# generated using pymatgen
data_NdH32C8N4Cl7
_symmetry_space_group_name_H-M   'P 1'
_cell_length_a   8.84582500
_cell_length_b   10.57203900
_cell_length_c   13.62025000
_cell_angle_alpha   90.00000000
_cell_angle_beta   90.00000000
_cell_angle_gamma   90.00000000
_symmetry_Int_Tables_number   1
_chemical_formula_structural   NdH32C8N4Cl7
_chemical_formula_sum   'Nd2 H64 C16 N8 Cl14'
_cell_volume   1273.74408141
_cell_formula_units_Z   2
loop_
 _symmetry_equiv_pos_site_id
 _symmetry_equiv_pos_as_xyz
  1  'x, y, z'
loop_
 _atom_site_type_symbol
 _atom_site_label
 _atom_site_symmetry_multiplicity
 _atom_site_fract_x
 _atom_site_fract_y
 _atom_site_fract_z
 _atom_site_occupancy
  Nd  Nd0  1  0.07011600  0.50000000  0.50000000  1
  Nd  Nd1  1  0.92988400  0.00000000  0.00000000  1
  H  H0  1  0.03522300  0.89566800  0.75575500  1
  H  H1  1  0.03522300  0.10433200  0.24424500  1
  H  H2  1  0.96477700  0.60433200  0.25575500  1
  H  H3  1  0.96477700  0.39566800  0.74424500  1
  H  H4  1  0.01780600  0.77539200  0.67750100  1
  H  H5  1  0.01780600  0.22460800  0.32249900  1
  H  H6  1  0.98219400  0.72460800  0.17750100  1
  H  H7  1  0.98219400  0.27539200  0.82249900  1
  H  H8  1  0.37665300  0.67835600  0.43337600  1
  H  H9  1  0.37665300  0.32164400  0.56662400  1
  H  H10  1  0.62334700  0.82164400  0.93337600  1
  H  H11  1  0.62334700  0.17835600  0.06662400  1
  H  H12  1  0.45764000  0.82274200  0.44233200  1
  H  H13  1  0.45764000  0.17725800  0.55766800  1
  H  H14  1  0.54236000  0.67725800  0.94233200  1
  H  H15  1  0.54236000  0.32274200  0.05766800  1
  H  H16  1  0.16823100  0.88276500  0.55586700  1
  H  H17  1  0.16823100  0.11723500  0.44413300  1
  H  H18  1  0.83176900  0.61723500  0.05586700  1
  H  H19  1  0.83176900  0.38276500  0.94413300  1
  H  H20  1  0.26679900  0.86673200  0.66948900  1
  H  H21  1  0.26679900  0.13326800  0.33051100  1
  H  H22  1  0.73320100  0.63326800  0.16948900  1
  H  H23  1  0.73320100  0.36673200  0.83051100  1
  H  H24  1  0.18239600  0.01536400  0.63769000  1
  H  H25  1  0.18239600  0.98463600  0.36231000  1
  H  H26  1  0.81760400  0.48463600  0.13769000  1
  H  H27  1  0.81760400  0.51536400  0.86231000  1
  H  H28  1  0.90168100  0.03474300  0.64055000  1
  H  H29  1  0.90168100  0.96525700  0.35945000  1
  H  H30  1  0.09831900  0.46525700  0.14055000  1
  H  H31  1  0.09831900  0.53474300  0.85945000  1
  H  H32  1  0.79198500  0.90443400  0.68405800  1
  H  H33  1  0.79198500  0.09556600  0.31594200  1
  H  H34  1  0.20801500  0.59556600  0.18405800  1
  H  H35  1  0.20801500  0.40443400  0.81594200  1
  H  H36  1  0.87402700  0.89852700  0.56425600  1
  H  H37  1  0.87402700  0.10147300  0.43574400  1
  H  H38  1  0.12597300  0.60147300  0.06425600  1
  H  H39  1  0.12597300  0.39852700  0.93574400  1
  H  H40  1  0.53833700  0.81417200  0.27353100  1
  H  H41  1  0.53833700  0.18582800  0.72646900  1
  H  H42  1  0.46166300  0.68582800  0.77353100  1
  H  H43  1  0.46166300  0.31417200  0.22646900  1
  H  H44  1  0.33878100  0.79273100  0.28438400  1
  H  H45  1  0.33878100  0.20726900  0.71561600  1
  H  H46  1  0.66121900  0.70726900  0.78438400  1
  H  H47  1  0.66121900  0.29273100  0.21561600  1
  H  H48  1  0.45810700  0.65871000  0.26364800  1
  H  H49  1  0.45810700  0.34129000  0.73635200  1
  H  H50  1  0.54189300  0.84129000  0.76364800  1
  H  H51  1  0.54189300  0.15871000  0.23635200  1
  H  H52  1  0.61694800  0.57813600  0.40817900  1
  H  H53  1  0.61694800  0.42186400  0.59182100  1
  H  H54  1  0.38305200  0.92186400  0.90817900  1
  H  H55  1  0.38305200  0.07813600  0.09182100  1
  H  H56  1  0.61368500  0.66866500  0.51899800  1
  H  H57  1  0.61368500  0.33133500  0.48100200  1
  H  H58  1  0.38631500  0.83133500  0.01899800  1
  H  H59  1  0.38631500  0.16866500  0.98100200  1
  H  H60  1  0.70452700  0.73090700  0.41234500  1
  H  H61  1  0.70452700  0.26909300  0.58765500  1
  H  H62  1  0.29547300  0.76909300  0.91234500  1
  H  H63  1  0.29547300  0.23090700  0.08765500  1
  C  C0  1  0.17180200  0.91302300  0.63249900  1
  C  C1  1  0.17180200  0.08697700  0.36750100  1
  C  C2  1  0.82819800  0.58697700  0.13249900  1
  C  C3  1  0.82819800  0.41302300  0.86750100  1
  C  C4  1  0.88946000  0.93211800  0.63943600  1
  C  C5  1  0.88946000  0.06788200  0.36056400  1
  C  C6  1  0.11054000  0.56788200  0.13943600  1
  C  C7  1  0.11054000  0.43211800  0.86056400  1
  C  C8  1  0.44953500  0.75070500  0.29986400  1
  C  C9  1  0.44953500  0.24929500  0.70013600  1
  C  C10  1  0.55046500  0.74929500  0.79986400  1
  C  C11  1  0.55046500  0.25070500  0.20013600  1
  C  C12  1  0.61012200  0.67347200  0.43866600  1
  C  C13  1  0.61012200  0.32652800  0.56133400  1
  C  C14  1  0.38987800  0.82652800  0.93866600  1
  C  C15  1  0.38987800  0.17347200  0.06133400  1
  N  N0  1  0.02874600  0.87302300  0.68157700  1
  N  N1  1  0.02874600  0.12697700  0.31842300  1
  N  N2  1  0.97125400  0.62697700  0.18157700  1
  N  N3  1  0.97125400  0.37302300  0.81842300  1
  N  N4  1  0.46501900  0.73298200  0.40786900  1
  N  N5  1  0.46501900  0.26701800  0.59213100  1
  N  N6  1  0.53498100  0.76701800  0.90786900  1
  N  N7  1  0.53498100  0.23298200  0.09213100  1
  Cl  Cl0  1  0.06088000  0.73190500  0.40589100  1
  Cl  Cl1  1  0.06088000  0.26809500  0.59410900  1
  Cl  Cl2  1  0.93911900  0.76809500  0.90589100  1
  Cl  Cl3  1  0.93911900  0.23190500  0.09410900  1
  Cl  Cl4  1  0.87208400  0.58757700  0.64267800  1
  Cl  Cl5  1  0.87208400  0.41242300  0.35732200  1
  Cl  Cl6  1  0.12791600  0.91242300  0.14267800  1
  Cl  Cl7  1  0.12791600  0.08757700  0.85732200  1
  Cl  Cl8  1  0.30235800  0.57864700  0.61999600  1
  Cl  Cl9  1  0.30235800  0.42135300  0.38000400  1
  Cl  Cl10  1  0.69764200  0.92135300  0.11999600  1
  Cl  Cl11  1  0.69764200  0.07864700  0.88000400  1
  Cl  Cl12  1  0.51520900  0.00000000  0.50000000  1
  Cl  Cl13  1  0.48479100  0.50000000  0.00000000  1
loop_
_geom_bond_atom_site_label_1
_geom_bond_atom_site_label_2
_geom_bond_distance
_geom_bond_site_symmetry_2
H0 N0 1.039879 1_555
H1 N1 1.039879 1_555
H2 N2 1.039879 1_555
H3 N3 1.039879 1_555
H4 N0 1.038171 1_555
H5 N1 1.038171 1_555
H6 N2 1.038171 1_555
H7 N3 1.038171 1_555
H8 N4 1.032094 1_555
H9 N5 1.032094 1_555
H10 N6 1.032094 1_555
H11 N7 1.032094 1_555
H12 N4 1.060703 1_555
H13 N5 1.060703 1_555
H14 N6 1.060703 1_555
H15 N7 1.060703 1_555
C0 H24 1.088303 1_565
C0 H16 1.092124 1_555
C0 H20 1.095208 1_555
C0 N0 1.492320 1_555
C1 H25 1.088303 1_545
C1 H17 1.092124 1_555
C1 H21 1.095208 1_555
C1 N1 1.492320 1_555
C2 H26 1.088303 1_555
C2 H18 1.092124 1_555
C2 H22 1.095208 1_555
C2 N2 1.492320 1_555
C3 H27 1.088303 1_555
C3 H19 1.092124 1_555
C3 H23 1.095208 1_555
C3 N3 1.492320 1_555
C4 H28 1.090434 1_565
C4 H36 1.092367 1_555
C4 H32 1.094762 1_555
C4 N0 1.495938 1_655
C5 H29 1.090434 1_545
C5 H37 1.092367 1_555
C5 H33 1.094762 1_555
C5 N1 1.495938 1_655
C6 H30 1.090434 1_555
C6 H38 1.092367 1_555
C6 H34 1.094762 1_555
C6 N2 1.495938 1_455
C7 H31 1.090434 1_555
C7 H39 1.092367 1_555
C7 H35 1.094762 1_555
C7 N3 1.495938 1_455
C8 H48 1.093146 1_555
C8 H40 1.093572 1_555
C8 H44 1.096216 1_555
C8 N4 1.489252 1_555
C9 H49 1.093146 1_555
C9 H41 1.093572 1_555
C9 H45 1.096216 1_555
C9 N5 1.489252 1_555
C10 H50 1.093146 1_555
C10 H42 1.093572 1_555
C10 H46 1.096216 1_555
C10 N6 1.489252 1_555
C11 H51 1.093146 1_555
C11 H43 1.093572 1_555
C11 H47 1.096216 1_555
C11 N7 1.489252 1_555
C12 H52 1.091753 1_555
C12 H60 1.092975 1_555
C12 H56 1.095775 1_555
C12 N4 1.489726 1_555
C13 H53 1.091753 1_555
C13 H61 1.092975 1_555
C13 H57 1.095775 1_555
C13 N5 1.489726 1_555
C14 H54 1.091753 1_555
C14 H62 1.092975 1_555
C14 H58 1.095775 1_556
C14 N6 1.489726 1_555
C15 H55 1.091753 1_555
C15 H63 1.092975 1_555
C15 H59 1.095775 1_554
C15 N7 1.489726 1_555
Cl0 Nd0 2.767766 1_555
Cl1 Nd0 2.767766 1_555
Cl2 Nd1 2.767766 1_566
Cl3 Nd1 2.767766 1_555
Cl4 Nd0 2.775308 1_655
Cl5 Nd0 2.775308 1_655
Cl6 Nd1 2.775308 1_465
Cl7 Nd1 2.775308 1_456
Cl8 Nd0 2.753716 1_555
Cl9 Nd0 2.753716 1_555
Cl10 Nd1 2.753716 1_565
Cl11 Nd1 2.753716 1_556
Cl12 H13 2.094770 1_555
Cl12 H12 2.094770 1_545
Cl13 H15 2.094770 1_555
Cl13 H14 2.094770 1_554
