# generated using pymatgen
data_Li4Ti2V3Cu3O16
_symmetry_space_group_name_H-M   'P 1'
_cell_length_a   5.99809691
_cell_length_b   5.82258647
_cell_length_c   9.68570707
_cell_angle_alpha   90.05942868
_cell_angle_beta   86.63674508
_cell_angle_gamma   119.03903184
_symmetry_Int_Tables_number   1
_chemical_formula_structural   Li4Ti2V3Cu3O16
_chemical_formula_sum   'Li4 Ti2 V3 Cu3 O16'
_cell_volume   295.08864447
_cell_formula_units_Z   1
loop_
 _symmetry_equiv_pos_site_id
 _symmetry_equiv_pos_as_xyz
  1  'x, y, z'
loop_
 _atom_site_type_symbol
 _atom_site_label
 _atom_site_symmetry_multiplicity
 _atom_site_fract_x
 _atom_site_fract_y
 _atom_site_fract_z
 _atom_site_occupancy
  Li  Li0  1  0.32273100  0.65237200  0.91047300  1
  Li  Li1  1  0.99224000  0.99673100  0.99656500  1
  Li  Li2  1  0.00569200  0.00503500  0.48515900  1
  Li  Li3  1  0.69788200  0.35169200  0.40163300  1
  Ti  Ti0  1  0.29264300  0.64463700  0.48566300  1
  Ti  Ti1  1  0.66393100  0.33426000  0.00522900  1
  V  V0  1  0.81720800  0.65698000  0.71927400  1
  V  V1  1  0.65065200  0.83040100  0.23529500  1
  V  V2  1  0.80382600  0.15259400  0.72305300  1
  Cu  Cu0  1  0.17233300  0.83432300  0.20401900  1
  Cu  Cu1  1  0.17332300  0.33898000  0.20466200  1
  Cu  Cu2  1  0.33321600  0.17062700  0.70372800  1
  O  O0  1  0.14294400  0.81384600  0.59142800  1
  O  O1  1  0.06254300  0.53225900  0.34571600  1
  O  O2  1  0.36412800  0.68222700  0.11635600  1
  O  O3  1  0.98638900  0.99335100  0.29251100  1
  O  O4  1  0.99405800  0.00844600  0.80390700  1
  O  O5  1  0.15181100  0.33406300  0.58755400  1
  O  O6  1  0.52877100  0.98349400  0.35203500  1
  O  O7  1  0.52847800  0.55091600  0.35213600  1
  O  O8  1  0.32251000  0.16189400  0.08100200  1
  O  O9  1  0.68509300  0.85270500  0.60932200  1
  O  O10  1  0.54180400  0.50231400  0.83887900  1
  O  O11  1  0.53282400  0.02706100  0.83904200  1
  O  O12  1  0.68567700  0.33040400  0.60754000  1
  O  O13  1  0.79468500  0.64835000  0.09119500  1
  O  O14  1  0.95976400  0.46574400  0.83255000  1
  O  O15  1  0.79284000  0.14459900  0.09191600  1
loop_
_geom_bond_atom_site_label_1
_geom_bond_atom_site_label_2
_geom_bond_distance
_geom_bond_site_symmetry_2
Li0 O10 1.994321 1_555
Li0 O11 2.014486 1_565
Li0 O2 2.020859 1_556
Li0 O14 2.093954 1_455
Li1 O4 1.866545 1_565
Li1 O8 1.963923 1_666
Li1 O15 1.973095 1_566
Li1 O13 1.975311 1_556
Li2 O3 1.875413 1_445
Li2 O5 1.972307 1_555
Li2 O0 1.991967 1_545
Li2 O9 2.001468 1_445
Li3 O6 1.949288 1_545
Li3 O7 1.952045 1_555
Li3 O1 1.952574 1_655
Li3 O12 1.993175 1_555
Cu0 O2 1.923934 1_555
Cu0 O3 1.929952 1_455
Cu0 O8 2.019849 1_565
Cu0 O1 2.045764 1_555
Cu0 O13 2.324750 1_455
Cu0 O6 2.436157 1_555
Cu1 O2 1.924536 1_555
Cu1 O3 1.931886 1_445
Cu1 O8 2.016404 1_555
Cu1 O1 2.047140 1_555
Cu1 O15 2.337539 1_455
Cu1 O7 2.429487 1_555
Cu2 O4 1.968999 1_455
Cu2 O12 2.015983 1_555
Cu2 O5 2.122909 1_555
Cu2 O0 2.154170 1_545
Cu2 O10 2.202247 1_555
Cu2 O11 2.237839 1_555
O0 Ti0 1.890807 1_555
O0 V0 2.042285 1_455
O1 Ti0 1.873841 1_555
O2 V1 1.953417 1_555
O3 V1 1.880851 1_555
O4 V2 1.911969 1_555
O4 V0 1.994046 1_545
O5 Ti0 1.838624 1_555
O5 V2 2.176205 1_455
O6 V1 1.772313 1_555
O6 Ti0 2.156687 1_555
O7 V1 1.792964 1_555
O7 Ti0 2.122423 1_555
O8 Ti1 1.889329 1_555
O9 V2 1.910606 1_565
O9 V0 2.009754 1_555
O9 Ti0 2.450019 1_555
O10 V0 1.793105 1_555
O10 Ti1 2.219847 1_556
O11 V2 1.752883 1_555
O11 Ti1 2.277227 1_556
O12 V2 1.906192 1_555
O12 V0 2.012192 1_555
O13 Ti1 1.825919 1_555
O13 V1 2.135995 1_555
O14 V2 1.944462 1_555
O14 V0 2.052235 1_555
O14 Ti1 2.206280 1_556
O15 Ti1 1.851858 1_555
O15 V1 2.086717 1_545
