# generated using pymatgen
data_Li2VP2O7
_symmetry_space_group_name_H-M   'P 1'
_cell_length_a   9.90817500
_cell_length_b   9.95568300
_cell_length_c   11.29537003
_cell_angle_alpha   76.94227721
_cell_angle_beta   90.00000000
_cell_angle_gamma   90.00000000
_symmetry_Int_Tables_number   1
_chemical_formula_structural   Li2VP2O7
_chemical_formula_sum   'Li16 V8 P16 O56'
_cell_volume   1085.39515745
_cell_formula_units_Z   8
loop_
 _symmetry_equiv_pos_site_id
 _symmetry_equiv_pos_as_xyz
  1  'x, y, z'
loop_
 _atom_site_type_symbol
 _atom_site_label
 _atom_site_symmetry_multiplicity
 _atom_site_fract_x
 _atom_site_fract_y
 _atom_site_fract_z
 _atom_site_occupancy
  Li  Li0  1  0.72101700  0.11212200  0.55102400  1
  Li  Li1  1  0.42146300  0.16921800  0.45450000  1
  Li  Li2  1  0.10708800  0.08550800  0.97091100  1
  Li  Li3  1  0.91061200  0.34520600  0.04304700  1
  Li  Li4  1  0.41061200  0.15479400  0.95695300  1
  Li  Li5  1  0.60708800  0.41449200  0.02908900  1
  Li  Li6  1  0.92146300  0.33078200  0.54550000  1
  Li  Li7  1  0.22101700  0.38787800  0.44897600  1
  Li  Li8  1  0.77898300  0.61212200  0.55102400  1
  Li  Li9  1  0.07853700  0.66921800  0.45450000  1
  Li  Li10  1  0.39291200  0.58550800  0.97091100  1
  Li  Li11  1  0.58938800  0.84520600  0.04304700  1
  Li  Li12  1  0.08938800  0.65479400  0.95695300  1
  Li  Li13  1  0.89291200  0.91449200  0.02908900  1
  Li  Li14  1  0.57853700  0.83078200  0.54550000  1
  Li  Li15  1  0.27898300  0.88787800  0.44897600  1
  V  V0  1  0.92831900  0.20275000  0.32691500  1
  V  V1  1  0.21828200  0.26378800  0.17314900  1
  V  V2  1  0.71828200  0.23621200  0.82685100  1
  V  V3  1  0.42831900  0.29725000  0.67308500  1
  V  V4  1  0.57168100  0.70275000  0.32691500  1
  V  V5  1  0.28171800  0.76378800  0.17314900  1
  V  V6  1  0.78171800  0.73621200  0.82685100  1
  V  V7  1  0.07168100  0.79725000  0.67308500  1
  P  P0  1  0.45315200  0.02638100  0.23891200  1
  P  P1  1  0.70357300  0.12057800  0.10978200  1
  P  P2  1  0.93027600  0.05930500  0.75460800  1
  P  P3  1  0.14968800  0.12212600  0.57293100  1
  P  P4  1  0.64968800  0.37787400  0.42706900  1
  P  P5  1  0.43027600  0.44069500  0.24539200  1
  P  P6  1  0.04684800  0.52638100  0.23891200  1
  P  P7  1  0.20357300  0.37942200  0.89021800  1
  P  P8  1  0.79642700  0.62057800  0.10978200  1
  P  P9  1  0.95315200  0.47361900  0.76108800  1
  P  P10  1  0.56972400  0.55930500  0.75460800  1
  P  P11  1  0.35031200  0.62212600  0.57293100  1
  P  P12  1  0.85031200  0.87787400  0.42706900  1
  P  P13  1  0.06972400  0.94069500  0.24539200  1
  P  P14  1  0.29642700  0.87942200  0.89021800  1
  P  P15  1  0.54684800  0.97361900  0.76108800  1
  O  O0  1  0.41413400  0.02211600  0.36972100  1
  O  O1  1  0.83986500  0.02381100  0.44748700  1
  O  O2  1  0.08984800  0.08764800  0.26500700  1
  O  O3  1  0.36483200  0.11822700  0.14182200  1
  O  O4  1  0.60256800  0.09324700  0.22665800  1
  O  O5  1  0.82906000  0.18316900  0.15461700  1
  O  O6  1  0.63100100  0.22611800  0.00612200  1
  O  O7  1  0.27664400  0.01597700  0.92571100  1
  O  O8  1  0.07967000  0.11039600  0.70550100  1
  O  O9  1  0.92735500  0.06915800  0.88690400  1
  O  O10  1  0.53633500  0.11999700  0.78921500  1
  O  O11  1  0.28749800  0.18843200  0.58066500  1
  O  O12  1  0.82965400  0.16520200  0.68064800  1
  O  O13  1  0.06166200  0.22297600  0.48126800  1
  O  O14  1  0.56166200  0.27702400  0.51873200  1
  O  O15  1  0.32965400  0.33479800  0.31935200  1
  O  O16  1  0.78749800  0.31156800  0.41933500  1
  O  O17  1  0.03633500  0.38000300  0.21078500  1
  O  O18  1  0.57967000  0.38960400  0.29449900  1
  O  O19  1  0.42735500  0.43084200  0.11309600  1
  O  O20  1  0.77664400  0.48402300  0.07428900  1
  O  O21  1  0.13100100  0.27388200  0.99387800  1
  O  O22  1  0.32906000  0.31683100  0.84538300  1
  O  O23  1  0.10256800  0.40675300  0.77334200  1
  O  O24  1  0.58984800  0.41235200  0.73499300  1
  O  O25  1  0.86483200  0.38177300  0.85817800  1
  O  O26  1  0.08586600  0.52211600  0.36972100  1
  O  O27  1  0.33986500  0.47618900  0.55251300  1
  O  O28  1  0.66013500  0.52381100  0.44748700  1
  O  O29  1  0.91413400  0.47788400  0.63027900  1
  O  O30  1  0.13516800  0.61822700  0.14182200  1
  O  O31  1  0.41015200  0.58764800  0.26500700  1
  O  O32  1  0.89743200  0.59324700  0.22665800  1
  O  O33  1  0.67094000  0.68316900  0.15461700  1
  O  O34  1  0.86899900  0.72611800  0.00612200  1
  O  O35  1  0.22335600  0.51597700  0.92571100  1
  O  O36  1  0.57264500  0.56915800  0.88690400  1
  O  O37  1  0.42033000  0.61039600  0.70550100  1
  O  O38  1  0.96366500  0.61999700  0.78921500  1
  O  O39  1  0.21250200  0.68843200  0.58066500  1
  O  O40  1  0.67034600  0.66520200  0.68064800  1
  O  O41  1  0.43833800  0.72297600  0.48126800  1
  O  O42  1  0.93833800  0.77702400  0.51873200  1
  O  O43  1  0.17034600  0.83479800  0.31935200  1
  O  O44  1  0.71250200  0.81156800  0.41933500  1
  O  O45  1  0.46366500  0.88000300  0.21078500  1
  O  O46  1  0.07264500  0.93084200  0.11309600  1
  O  O47  1  0.92033000  0.88960400  0.29449900  1
  O  O48  1  0.72335600  0.98402300  0.07428900  1
  O  O49  1  0.36899900  0.77388200  0.99387800  1
  O  O50  1  0.17094000  0.81683100  0.84538300  1
  O  O51  1  0.39743200  0.90675300  0.77334200  1
  O  O52  1  0.63516800  0.88177300  0.85817800  1
  O  O53  1  0.91015200  0.91235200  0.73499300  1
  O  O54  1  0.16013500  0.97618900  0.55251300  1
  O  O55  1  0.58586600  0.97788400  0.63027900  1
loop_
_geom_bond_atom_site_label_1
_geom_bond_atom_site_label_2
_geom_bond_distance
_geom_bond_site_symmetry_2
Li0 O55 1.959601 1_545
Li0 O12 1.982736 1_555
Li0 O1 1.997990 1_555
Li0 O14 2.247367 1_555
Li0 O16 2.292282 1_555
Li1 O0 1.923736 1_555
Li1 O11 1.988084 1_555
Li1 O14 1.989932 1_555
Li1 O15 2.176730 1_555
Li2 O7 1.929225 1_555
Li2 O21 1.964783 1_555
Li2 O46 1.987298 1_546
Li2 O9 2.041574 1_455
Li3 O5 1.981117 1_555
Li3 O20 2.004199 1_555
Li3 O25 2.086913 1_554
Li3 O17 2.357558 1_655
Li3 O21 2.399834 1_654
Li4 O22 1.981117 1_555
Li4 O7 2.004199 1_555
Li4 O3 2.086913 1_556
Li4 O10 2.357558 1_555
Li4 O6 2.399834 1_556
Li5 O20 1.929225 1_555
Li5 O6 1.964783 1_555
Li5 O36 1.987298 1_554
Li5 O19 2.041574 1_555
Li6 O29 1.923736 1_555
Li6 O16 1.988084 1_555
Li6 O13 1.989932 1_655
Li6 O12 2.176730 1_555
Li7 O26 1.959601 1_555
Li7 O15 1.982736 1_555
Li7 O27 1.997990 1_555
Li7 O13 2.247367 1_555
Li7 O11 2.292282 1_555
Li8 O29 1.959601 1_555
Li8 O40 1.982736 1_555
Li8 O28 1.997990 1_555
Li8 O42 2.247367 1_555
Li8 O44 2.292282 1_555
Li9 O26 1.923736 1_555
Li9 O39 1.988084 1_555
Li9 O42 1.989932 1_455
Li9 O43 2.176730 1_555
Li10 O35 1.929225 1_555
Li10 O49 1.964783 1_555
Li10 O19 1.987298 1_556
Li10 O36 2.041574 1_555
Li11 O33 1.981117 1_555
Li11 O48 2.004199 1_555
Li11 O52 2.086913 1_554
Li11 O45 2.357558 1_555
Li11 O49 2.399834 1_554
Li12 O50 1.981117 1_555
Li12 O35 2.004199 1_555
Li12 O30 2.086913 1_556
Li12 O38 2.357558 1_455
Li12 O34 2.399834 1_456
Li13 O48 1.929225 1_555
Li13 O34 1.964783 1_555
Li13 O9 1.987298 1_564
Li13 O46 2.041574 1_655
Li14 O55 1.923736 1_555
Li14 O44 1.988084 1_555
Li14 O41 1.989932 1_555
Li14 O40 2.176730 1_555
Li15 O0 1.959601 1_565
Li15 O43 1.982736 1_555
Li15 O54 1.997990 1_555
Li15 O41 2.247367 1_555
Li15 O39 2.292282 1_555
O0 P0 1.518560 1_555
O1 P12 1.525202 1_545
O1 V0 2.167992 1_555
O2 P13 1.541342 1_545
O2 V0 2.173859 1_455
O2 V1 2.224603 1_555
O3 P0 1.533443 1_555
O3 V1 2.136682 1_555
O4 P0 1.616285 1_555
O4 P1 1.629751 1_555
O5 P1 1.527507 1_555
O5 V0 2.228057 1_555
O6 P1 1.560801 1_555
O6 V2 2.183202 1_554
O7 P14 1.514485 1_545
O8 P2 1.621716 1_455
O8 P3 1.630398 1_555
O9 P2 1.519778 1_555
O9 V2 2.647191 1_555
O10 P15 1.563553 1_545
O10 V3 2.221298 1_555
O10 V2 2.234183 1_555
O11 P3 1.527708 1_555
O11 V3 2.172847 1_555
O12 P2 1.550933 1_555
O12 V2 2.229843 1_555
O13 P3 1.539813 1_555
O13 V0 2.232581 1_455
O14 P4 1.539813 1_555
O14 V3 2.232581 1_555
O15 P5 1.550933 1_555
O15 V1 2.229843 1_555
O16 P4 1.527708 1_555
O16 V0 2.172847 1_555
O17 P6 1.563553 1_555
O17 V0 2.221298 1_455
O17 V1 2.234183 1_555
O18 P5 1.621716 1_555
O18 P4 1.630398 1_555
O19 P5 1.519778 1_555
O19 V1 2.647191 1_555
O20 P8 1.514485 1_555
O21 P7 1.560801 1_555
O21 V1 2.183202 1_556
O22 P7 1.527507 1_555
O22 V3 2.228057 1_555
O23 P9 1.616285 1_455
O23 P7 1.629751 1_555
O24 P10 1.541342 1_555
O24 V3 2.173859 1_555
O24 V2 2.224603 1_555
O25 P9 1.533443 1_555
O25 V2 2.136682 1_555
O26 P6 1.518560 1_555
O27 P11 1.525202 1_555
O27 V3 2.167992 1_555
O28 P4 1.525202 1_555
O28 V4 2.167992 1_555
O29 P9 1.518560 1_555
O30 P6 1.533443 1_555
O30 V5 2.136682 1_555
O31 P5 1.541342 1_555
O31 V4 2.173859 1_555
O31 V5 2.224603 1_555
O32 P6 1.616285 1_655
O32 P8 1.629751 1_555
O33 P8 1.527507 1_555
O33 V4 2.228057 1_555
O34 P8 1.560801 1_555
O34 V6 2.183202 1_554
O35 P7 1.514485 1_555
O36 P10 1.519778 1_555
O36 V6 2.647191 1_555
O37 P10 1.621716 1_555
O37 P11 1.630398 1_555
O38 P9 1.563553 1_555
O38 V7 2.221298 1_655
O38 V6 2.234183 1_555
O39 P11 1.527708 1_555
O39 V7 2.172847 1_555
O40 P10 1.550933 1_555
O40 V6 2.229843 1_555
O41 P11 1.539813 1_555
O41 V4 2.232581 1_555
O42 P12 1.539813 1_555
O42 V7 2.232581 1_655
O43 P13 1.550933 1_555
O43 V5 2.229843 1_555
O44 P12 1.527708 1_555
O44 V4 2.172847 1_555
O45 P0 1.563553 1_565
O45 V4 2.221298 1_555
O45 V5 2.234183 1_555
O46 P13 1.519778 1_555
O46 V5 2.647191 1_555
O47 P13 1.621716 1_655
O47 P12 1.630398 1_555
O48 P1 1.514485 1_565
O49 P14 1.560801 1_555
O49 V5 2.183202 1_556
O50 P14 1.527507 1_555
O50 V7 2.228057 1_555
O51 P15 1.616285 1_555
O51 P14 1.629751 1_555
O52 P15 1.533443 1_555
O52 V6 2.136682 1_555
O53 P2 1.541342 1_565
O53 V7 2.173859 1_655
O53 V6 2.224603 1_555
O54 P3 1.525202 1_565
O54 V7 2.167992 1_555
O55 P15 1.518560 1_555
