# generated using pymatgen
data_LiFe4(BO3)4
_symmetry_space_group_name_H-M   'P 1'
_cell_length_a   5.33777500
_cell_length_b   9.03990445
_cell_length_c   10.13065153
_cell_angle_alpha   89.76678110
_cell_angle_beta   89.44430887
_cell_angle_gamma   89.58646736
_symmetry_Int_Tables_number   1
_chemical_formula_structural   LiFe4(BO3)4
_chemical_formula_sum   'Li2 Fe8 B8 O24'
_cell_volume   488.79445112
_cell_formula_units_Z   2
loop_
 _symmetry_equiv_pos_site_id
 _symmetry_equiv_pos_as_xyz
  1  'x, y, z'
loop_
 _atom_site_type_symbol
 _atom_site_label
 _atom_site_symmetry_multiplicity
 _atom_site_fract_x
 _atom_site_fract_y
 _atom_site_fract_z
 _atom_site_occupancy
  Li  Li0  1  0.65028000  0.00255900  0.89550900  1
  Li  Li1  1  0.85035600  0.51177200  0.65397700  1
  Fe  Fe0  1  0.15846000  0.82560200  0.87668600  1
  Fe  Fe1  1  0.83990000  0.84813400  0.62553900  1
  Fe  Fe2  1  0.33840900  0.66673600  0.13332400  1
  Fe  Fe3  1  0.65802300  0.66634300  0.38082500  1
  Fe  Fe4  1  0.34075900  0.32513500  0.62726000  1
  Fe  Fe5  1  0.16104100  0.16563900  0.37504000  1
  Fe  Fe6  1  0.65047200  0.34330200  0.88028700  1
  Fe  Fe7  1  0.84336000  0.16748300  0.12703000  1
  B  B0  1  0.15942200  0.82914500  0.37595900  1
  B  B1  1  0.33758800  0.65877500  0.63143800  1
  B  B2  1  0.82770300  0.83045800  0.12480800  1
  B  B3  1  0.66613600  0.67965100  0.87614300  1
  B  B4  1  0.33729100  0.33073000  0.13053800  1
  B  B5  1  0.66831900  0.32871200  0.37777800  1
  B  B6  1  0.16072400  0.15839600  0.87484800  1
  B  B7  1  0.83103000  0.18094500  0.62908900  1
  O  O0  1  0.25468800  0.96745100  0.37055000  1
  O  O1  1  0.06991000  0.80008000  0.07835000  1
  O  O2  1  0.72967100  0.96953300  0.11136300  1
  O  O3  1  0.20740700  0.77897300  0.68462600  1
  O  O4  1  0.30259700  0.70644200  0.33369600  1
  O  O5  1  0.79514500  0.81068400  0.84580800  1
  O  O6  1  0.91908200  0.80427500  0.42396800  1
  O  O7  1  0.43026800  0.69629200  0.93781800  1
  O  O8  1  0.21897100  0.52381500  0.62724300  1
  O  O9  1  0.58239500  0.67483400  0.58251700  1
  O  O10  1  0.69023200  0.71412600  0.17946800  1
  O  O11  1  0.24170600  0.46939400  0.13561200  1
  O  O12  1  0.76010700  0.54669800  0.84287700  1
  O  O13  1  0.28651100  0.27818300  0.82016300  1
  O  O14  1  0.42869100  0.29847000  0.42780700  1
  O  O15  1  0.76129700  0.46717400  0.38172100  1
  O  O16  1  0.57816700  0.30460400  0.08156900  1
  O  O17  1  0.06972800  0.19656400  0.56930700  1
  O  O18  1  0.19718500  0.20828400  0.17346000  1
  O  O19  1  0.70463100  0.31426000  0.66119700  1
  O  O20  1  0.80756400  0.20886500  0.32666600  1
  O  O21  1  0.27976800  0.02299500  0.88126300  1
  O  O22  1  0.91518900  0.17585900  0.92469000  1
  O  O23  1  0.72970200  0.05015500  0.65611100  1
loop_
_geom_bond_atom_site_label_1
_geom_bond_atom_site_label_2
_geom_bond_distance
_geom_bond_site_symmetry_2
Li0 O5 1.959653 1_545
Li0 O21 1.991567 1_555
Li0 O22 2.141261 1_555
Li0 O2 2.249753 1_546
Li0 O23 2.494177 1_555
Li1 O19 1.953523 1_555
Li1 O8 1.987235 1_655
Li1 O12 1.994683 1_555
Li1 O9 2.173411 1_555
Fe0 O21 1.903547 1_565
Fe0 O7 1.960103 1_555
Fe0 O5 1.973014 1_455
Fe0 O3 2.006711 1_555
Fe0 O1 2.104624 1_556
Fe1 O23 1.939761 1_565
Fe1 O6 2.119721 1_555
Fe1 O9 2.140505 1_555
Fe1 O3 2.144614 1_655
Fe1 O5 2.266233 1_555
Fe2 O11 1.860696 1_555
Fe2 O1 1.949948 1_555
Fe2 O10 1.989731 1_555
Fe2 O7 2.052642 1_554
Fe2 O4 2.069609 1_555
Fe3 O15 1.879172 1_555
Fe3 O6 1.931028 1_555
Fe3 O4 1.991205 1_555
Fe3 O9 2.080539 1_555
Fe3 O10 2.089100 1_555
Fe4 O8 1.905659 1_555
Fe4 O17 1.958267 1_555
Fe4 O19 1.977419 1_555
Fe4 O13 2.016698 1_555
Fe4 O14 2.084495 1_555
Fe5 O0 1.857165 1_545
Fe5 O14 1.952816 1_555
Fe5 O20 1.989605 1_455
Fe5 O17 2.042756 1_555
Fe5 O18 2.084030 1_555
Fe6 O12 1.967842 1_555
Fe6 O16 2.100050 1_556
Fe6 O22 2.113296 1_555
Fe6 O13 2.129356 1_555
Fe6 O19 2.251664 1_555
Fe7 O2 1.901430 1_545
Fe7 O16 1.932626 1_555
Fe7 O18 1.988200 1_655
Fe7 O20 2.065032 1_555
Fe7 O22 2.082900 1_554
B0 O0 1.353826 1_555
B0 O6 1.387100 1_455
B0 O4 1.408201 1_555
B1 O8 1.379581 1_555
B1 O3 1.393000 1_555
B1 O9 1.401362 1_555
B2 O2 1.365091 1_555
B2 O10 1.396252 1_555
B2 O1 1.397319 1_655
B3 O12 1.342017 1_555
B3 O5 1.405862 1_555
B3 O7 1.407443 1_555
B4 O11 1.350936 1_555
B4 O16 1.392556 1_555
B4 O18 1.405458 1_555
B5 O15 1.350694 1_555
B5 O14 1.399644 1_555
B5 O20 1.407051 1_555
B6 O21 1.376636 1_555
B6 O13 1.388779 1_555
B6 O22 1.407978 1_455
B7 O23 1.330076 1_555
B7 O17 1.413163 1_655
B7 O19 1.414428 1_555
