# generated using pymatgen
data_Hf2N2O
_symmetry_space_group_name_H-M   'P 1'
_cell_length_a   6.42990742
_cell_length_b   6.42990742
_cell_length_c   15.73057200
_cell_angle_alpha   90.00000000
_cell_angle_beta   90.00000000
_cell_angle_gamma   119.99999401
_symmetry_Int_Tables_number   1
_chemical_formula_structural   Hf2N2O
_chemical_formula_sum   'Hf16 N16 O8'
_cell_volume   563.22848666
_cell_formula_units_Z   8
loop_
 _symmetry_equiv_pos_site_id
 _symmetry_equiv_pos_as_xyz
  1  'x, y, z'
loop_
 _atom_site_type_symbol
 _atom_site_label
 _atom_site_symmetry_multiplicity
 _atom_site_fract_x
 _atom_site_fract_y
 _atom_site_fract_z
 _atom_site_occupancy
  Hf  Hf0  1  0.66666700  0.33333300  0.95539500  1
  Hf  Hf1  1  0.66666700  0.33333300  0.33175600  1
  Hf  Hf2  1  0.50000000  0.00000000  0.50000000  1
  Hf  Hf3  1  0.83276900  0.16723100  0.16551400  1
  Hf  Hf4  1  0.66553800  0.83276900  0.83448600  1
  Hf  Hf5  1  0.16723100  0.33446200  0.83448600  1
  Hf  Hf6  1  0.00000000  0.00000000  0.62759500  1
  Hf  Hf7  1  0.50000000  0.50000000  0.50000000  1
  Hf  Hf8  1  0.00000000  0.00000000  0.37240500  1
  Hf  Hf9  1  0.00000000  0.00000000  0.00000000  1
  Hf  Hf10  1  0.33446200  0.16723100  0.16551400  1
  Hf  Hf11  1  0.83276900  0.66553800  0.16551400  1
  Hf  Hf12  1  0.16723100  0.83276900  0.83448600  1
  Hf  Hf13  1  0.00000000  0.50000000  0.50000000  1
  Hf  Hf14  1  0.33333300  0.66666700  0.66824400  1
  Hf  Hf15  1  0.33333300  0.66666700  0.04460500  1
  N  N0  1  0.66666700  0.33333300  0.08709500  1
  N  N1  1  0.82277400  0.17722600  0.41708200  1
  N  N2  1  0.84417000  0.15583000  0.91308600  1
  N  N3  1  0.64554800  0.82277400  0.58291800  1
  N  N4  1  0.17722600  0.35445200  0.58291800  1
  N  N5  1  0.15583000  0.31166000  0.08691400  1
  N  N6  1  0.68834000  0.84417000  0.08691400  1
  N  N7  1  0.00000000  0.00000000  0.75952300  1
  N  N8  1  0.00000000  0.00000000  0.24047700  1
  N  N9  1  0.84417000  0.68834000  0.91308600  1
  N  N10  1  0.31166000  0.15583000  0.91308600  1
  N  N11  1  0.82277400  0.64554800  0.41708200  1
  N  N12  1  0.35445200  0.17722600  0.41708200  1
  N  N13  1  0.15583000  0.84417000  0.08691400  1
  N  N14  1  0.17722600  0.82277400  0.58291800  1
  N  N15  1  0.33333300  0.66666700  0.91290500  1
  O  O0  1  0.52654500  0.47345500  0.24153700  1
  O  O1  1  0.66666700  0.33333300  0.56049800  1
  O  O2  1  0.52654500  0.05309100  0.24153700  1
  O  O3  1  0.94690900  0.47345500  0.24153700  1
  O  O4  1  0.05309100  0.52654500  0.75846300  1
  O  O5  1  0.47345500  0.94690900  0.75846300  1
  O  O6  1  0.33333300  0.66666700  0.43950200  1
  O  O7  1  0.47345500  0.52654500  0.75846300  1
loop_
_geom_bond_atom_site_label_1
_geom_bond_atom_site_label_2
_geom_bond_distance
_geom_bond_site_symmetry_2
Hf0 N0 2.071716 1_556
Hf0 N2 2.085866 1_555
Hf0 N10 2.085872 1_555
Hf0 N9 2.085872 1_555
Hf1 O3 2.109344 1_555
Hf1 O2 2.109344 1_555
Hf1 O0 2.109352 1_555
Hf1 N1 2.196392 1_555
Hf1 N11 2.196396 1_555
Hf1 N12 2.196396 1_555
Hf2 O1 2.085899 1_555
Hf2 O6 2.085899 1_545
Hf2 N3 2.223101 1_545
Hf2 N12 2.223101 1_555
Hf2 N14 2.223102 1_545
Hf2 N1 2.223102 1_555
Hf3 O3 2.097768 1_555
Hf3 O2 2.097768 1_555
Hf3 N6 2.185650 1_545
Hf3 N5 2.185650 1_655
Hf3 N8 2.204363 1_655
Hf3 N0 2.223446 1_555
Hf4 O5 2.097763 1_555
Hf4 O7 2.097768 1_555
Hf4 N9 2.185650 1_555
Hf4 N2 2.185650 1_565
Hf4 N7 2.204364 1_665
Hf4 N15 2.223451 1_555
Hf5 O4 2.097763 1_555
Hf5 O7 2.097768 1_555
Hf5 N10 2.185650 1_555
Hf5 N2 2.185650 1_455
Hf5 N7 2.204364 1_555
Hf5 N15 2.223451 1_555
Hf6 N7 2.075303 1_555
Hf6 N14 2.095142 1_545
Hf6 N3 2.095142 1_445
Hf6 N4 2.095142 1_555
Hf7 O1 2.085904 1_555
Hf7 O6 2.085904 1_555
Hf7 N4 2.223102 1_555
Hf7 N3 2.223102 1_555
Hf7 N12 2.223102 1_555
Hf7 N11 2.223102 1_555
Hf8 N8 2.075303 1_555
Hf8 N1 2.095142 1_455
Hf8 N12 2.095142 1_555
Hf8 N11 2.095142 1_445
Hf9 N13 2.209321 1_545
Hf9 N2 2.209321 1_454
Hf9 N6 2.209322 1_445
Hf9 N5 2.209322 1_555
Hf9 N9 2.209322 1_444
Hf9 N10 2.209322 1_554
Hf10 O2 2.097763 1_555
Hf10 O0 2.097768 1_555
Hf10 N5 2.185650 1_555
Hf10 N13 2.185650 1_545
Hf10 N8 2.204364 1_555
Hf10 N0 2.223451 1_555
Hf11 O3 2.097763 1_555
Hf11 O0 2.097768 1_555
Hf11 N6 2.185650 1_555
Hf11 N13 2.185650 1_655
Hf11 N8 2.204364 1_665
Hf11 N0 2.223451 1_555
Hf12 O5 2.097768 1_555
Hf12 O4 2.097768 1_555
Hf12 N9 2.185650 1_455
Hf12 N10 2.185650 1_565
Hf12 N7 2.204363 1_565
Hf12 N15 2.223446 1_555
Hf13 O1 2.085899 1_455
Hf13 O6 2.085899 1_555
Hf13 N4 2.223101 1_555
Hf13 N11 2.223101 1_455
Hf13 N14 2.223102 1_555
Hf13 N1 2.223102 1_455
Hf14 O5 2.109344 1_555
Hf14 O4 2.109344 1_555
Hf14 O7 2.109352 1_555
Hf14 N14 2.196392 1_555
Hf14 N3 2.196396 1_555
Hf14 N4 2.196396 1_555
Hf15 N15 2.071716 1_554
Hf15 N13 2.085866 1_555
Hf15 N5 2.085872 1_555
Hf15 N6 2.085872 1_555
