# generated using pymatgen
data_Mn4Si4SnB2(HO9)2
_symmetry_space_group_name_H-M   'P 1'
_cell_length_a   7.05210234
_cell_length_b   7.46174288
_cell_length_c   7.77465280
_cell_angle_alpha   89.97075886
_cell_angle_beta   63.04497394
_cell_angle_gamma   76.88883581
_symmetry_Int_Tables_number   1
_chemical_formula_structural   Mn4Si4SnB2(HO9)2
_chemical_formula_sum   'Mn4 Si4 Sn1 B2 H2 O18'
_cell_volume   352.68376481
_cell_formula_units_Z   1
loop_
 _symmetry_equiv_pos_site_id
 _symmetry_equiv_pos_as_xyz
  1  'x, y, z'
loop_
 _atom_site_type_symbol
 _atom_site_label
 _atom_site_symmetry_multiplicity
 _atom_site_fract_x
 _atom_site_fract_y
 _atom_site_fract_z
 _atom_site_occupancy
  Mn  Mn0  1  0.69432300  0.71115600  0.26412900  1
  Mn  Mn1  1  0.30569300  0.28881200  0.73589500  1
  Mn  Mn2  1  0.19009400  0.72270200  0.26466100  1
  Mn  Mn3  1  0.80983100  0.27736700  0.73532800  1
  Si  Si0  1  0.92499500  0.67416400  0.75861000  1
  Si  Si1  1  0.07501300  0.32583100  0.24139000  1
  Si  Si2  1  0.46920600  0.67650100  0.77647400  1
  Si  Si3  1  0.53079900  0.32350000  0.22352400  1
  Sn  Sn0  1  0.99999800  0.00000000  0.99999600  1
  B  B0  1  0.25058300  0.87637300  0.56965400  1
  B  B1  1  0.74941800  0.12362600  0.43034500  1
  H  H0  1  0.67142200  0.95422500  0.66008900  1
  H  H1  1  0.32858100  0.04577300  0.33991100  1
  O  O0  1  0.14301600  0.04365600  0.70872700  1
  O  O1  1  0.85699000  0.95633900  0.29127400  1
  O  O2  1  0.87693700  0.77965600  0.96527600  1
  O  O3  1  0.12306900  0.22034000  0.03472500  1
  O  O4  1  0.43513300  0.75078300  0.58956400  1
  O  O5  1  0.56487500  0.24921100  0.41043700  1
  O  O6  1  0.27364500  0.80477900  0.97791100  1
  O  O7  1  0.72636100  0.19521900  0.02208500  1
  O  O8  1  0.09075100  0.77001700  0.57851300  1
  O  O9  1  0.90925400  0.22997900  0.42148600  1
  O  O10  1  0.69862900  0.73028800  0.73615400  1
  O  O11  1  0.30137500  0.26970700  0.26384100  1
  O  O12  1  0.01413700  0.45143200  0.73559000  1
  O  O13  1  0.98586500  0.54856400  0.26441000  1
  O  O14  1  0.49109200  0.45763700  0.78995100  1
  O  O15  1  0.50890900  0.54236400  0.21004900  1
  O  O16  1  0.35437100  0.91392200  0.36184400  1
  O  O17  1  0.64563300  0.08607500  0.63815500  1
loop_
_geom_bond_atom_site_label_1
_geom_bond_atom_site_label_2
_geom_bond_distance
_geom_bond_site_symmetry_2
Mn0 O13 2.138083 1_555
Mn0 O15 2.172299 1_555
Mn0 O2 2.214273 1_554
Mn0 O16 2.306105 1_555
Mn0 O4 2.322272 1_555
Mn0 O1 2.424775 1_555
Mn1 O12 2.138320 1_555
Mn1 O14 2.172301 1_555
Mn1 O3 2.214068 1_556
Mn1 O17 2.305924 1_555
Mn1 O5 2.322398 1_555
Mn1 O0 2.424704 1_555
Mn2 O13 2.148081 1_455
Mn2 O6 2.159594 1_554
Mn2 O15 2.192832 1_555
Mn2 O8 2.215487 1_555
Mn2 O16 2.343807 1_555
Mn2 O1 2.510384 1_455
Mn3 O12 2.148134 1_655
Mn3 O7 2.159901 1_556
Mn3 O14 2.192187 1_555
Mn3 O9 2.215337 1_555
Mn3 O17 2.343718 1_555
Mn3 O0 2.511105 1_655
B0 O0 1.459727 1_565
B0 O4 1.491688 1_555
B0 O8 1.496798 1_555
B0 O16 1.498350 1_555
B1 O1 1.459740 1_545
B1 O5 1.491626 1_555
B1 O9 1.496806 1_555
B1 O17 1.498353 1_555
H0 O17 0.988356 1_565
H1 O16 0.988362 1_545
O0 Sn0 2.080648 1_455
O1 Sn0 2.080717 1_564
O2 Si0 1.643996 1_555
O2 Sn0 2.095092 1_565
O3 Si1 1.643991 1_555
O3 Sn0 2.095134 1_454
O4 Si2 1.652858 1_555
O5 Si3 1.652906 1_555
O6 Si2 1.647847 1_555
O6 Sn0 2.073648 1_465
O7 Si3 1.647867 1_555
O7 Sn0 2.073578 1_554
O8 Si0 1.653161 1_455
O9 Si1 1.653161 1_655
O10 Si0 1.644235 1_555
O10 Si2 1.646713 1_555
O11 Si1 1.644186 1_555
O11 Si3 1.646746 1_555
O12 Si0 1.616684 1_455
O13 Si1 1.616695 1_655
O14 Si2 1.613063 1_555
O15 Si3 1.613058 1_555
