# generated using pymatgen
data_Th(MoO4)2
_symmetry_space_group_name_H-M   'P 1'
_cell_length_a   18.68800828
_cell_length_b   18.68800828
_cell_length_c   6.20651600
_cell_angle_alpha   90.00000000
_cell_angle_beta   90.00000000
_cell_angle_gamma   120.00000100
_symmetry_Int_Tables_number   1
_chemical_formula_structural   Th(MoO4)2
_chemical_formula_sum   'Th9 Mo18 O72'
_cell_volume   1877.17405232
_cell_formula_units_Z   9
loop_
 _symmetry_equiv_pos_site_id
 _symmetry_equiv_pos_as_xyz
  1  'x, y, z'
loop_
 _atom_site_type_symbol
 _atom_site_label
 _atom_site_symmetry_multiplicity
 _atom_site_fract_x
 _atom_site_fract_y
 _atom_site_fract_z
 _atom_site_occupancy
  Th  Th0  1  0.00000000  0.00000000  0.00000000  1
  Th  Th1  1  0.00163600  0.64824000  0.50000000  1
  Th  Th2  1  0.31457600  0.99676400  0.50000000  1
  Th  Th3  1  0.35176000  0.35339500  0.50000000  1
  Th  Th4  1  0.33333300  0.66666700  0.00000000  1
  Th  Th5  1  0.00323600  0.31781200  0.50000000  1
  Th  Th6  1  0.68218800  0.68542400  0.50000000  1
  Th  Th7  1  0.64660500  0.99836400  0.50000000  1
  Th  Th8  1  0.66666700  0.33333300  0.00000000  1
  Mo  Mo0  1  0.10658200  0.25457800  0.00000000  1
  Mo  Mo1  1  0.18830000  0.67711200  0.50000000  1
  Mo  Mo2  1  0.14799500  0.89341800  0.00000000  1
  Mo  Mo3  1  0.75830000  0.59070300  0.00000000  1
  Mo  Mo4  1  0.40929700  0.16759800  0.00000000  1
  Mo  Mo5  1  0.48881100  0.81170000  0.50000000  1
  Mo  Mo6  1  0.51147300  0.59779500  0.00000000  1
  Mo  Mo7  1  0.88560600  0.05848700  0.50000000  1
  Mo  Mo8  1  0.74542200  0.85200500  0.00000000  1
  Mo  Mo9  1  0.53527700  0.36341400  0.50000000  1
  Mo  Mo10  1  0.83240200  0.24170000  0.00000000  1
  Mo  Mo11  1  0.63658600  0.17186300  0.50000000  1
  Mo  Mo12  1  0.94151300  0.82711900  0.50000000  1
  Mo  Mo13  1  0.40220500  0.91367800  0.00000000  1
  Mo  Mo14  1  0.08632200  0.48852700  0.00000000  1
  Mo  Mo15  1  0.17288100  0.11439400  0.50000000  1
  Mo  Mo16  1  0.32288800  0.51118900  0.50000000  1
  Mo  Mo17  1  0.82813700  0.46472300  0.50000000  1
  O  O0  1  0.64071100  0.22877400  0.26679500  1
  O  O1  1  0.24425700  0.67943300  0.26783900  1
  O  O2  1  0.71387700  0.13699700  0.50000000  1
  O  O3  1  0.10753000  0.08042500  0.27196600  1
  O  O4  1  0.58806300  0.35928900  0.73320500  1
  O  O5  1  0.89703400  0.27139400  0.75891600  1
  O  O6  1  0.21041100  0.91895500  0.75673900  1
  O  O7  1  0.91957500  0.02710500  0.72803400  1
  O  O8  1  0.45383400  0.65130100  0.00000000  1
  O  O9  1  0.72860600  0.62564000  0.75891600  1
  O  O10  1  0.37436000  0.10296600  0.24108400  1
  O  O11  1  0.21041100  0.91895500  0.24326100  1
  O  O12  1  0.08104500  0.29145600  0.75673900  1
  O  O13  1  0.24355400  0.22999200  0.50000000  1
  O  O14  1  0.37297200  0.94578200  0.24553400  1
  O  O15  1  0.71315900  0.92570200  0.00000000  1
  O  O16  1  0.77122600  0.41193700  0.26679500  1
  O  O17  1  0.52046700  0.44968700  0.50000000  1
  O  O18  1  0.92922000  0.47953300  0.50000000  1
  O  O19  1  0.51977700  0.22355400  0.00000000  1
  O  O20  1  0.77644600  0.29622300  0.00000000  1
  O  O21  1  0.19746700  0.54616600  0.00000000  1
  O  O22  1  0.60213300  0.85813900  0.50000000  1
  O  O23  1  0.41292500  0.49978900  0.50000000  1
  O  O24  1  0.21254300  0.28684100  0.00000000  1
  O  O25  1  0.93424200  0.16710800  0.50000000  1
  O  O26  1  0.04335300  0.14390600  0.00000000  1
  O  O27  1  0.57281000  0.62702800  0.75446600  1
  O  O28  1  0.07429800  0.78745700  0.00000000  1
  O  O29  1  0.32056700  0.56482400  0.73216100  1
  O  O30  1  0.70377700  0.48022300  0.00000000  1
  O  O31  1  0.44352400  0.49022900  0.00000000  1
  O  O32  1  0.85609400  0.89944600  0.00000000  1
  O  O33  1  0.08104500  0.29145600  0.24326100  1
  O  O34  1  0.91957500  0.02710500  0.27196600  1
  O  O35  1  0.37436000  0.10296600  0.75891600  1
  O  O36  1  0.86511500  0.62672600  0.00000000  1
  O  O37  1  0.25600600  0.39786700  0.50000000  1
  O  O38  1  0.98643800  0.75644600  0.50000000  1
  O  O39  1  0.10753000  0.08042500  0.72803400  1
  O  O40  1  0.70854400  0.78958900  0.75673900  1
  O  O41  1  0.57281000  0.62702800  0.24553400  1
  O  O42  1  0.76161100  0.13488500  0.00000000  1
  O  O43  1  0.43517600  0.75574300  0.73216100  1
  O  O44  1  0.50977100  0.95329500  0.00000000  1
  O  O45  1  0.89703400  0.27139400  0.24108400  1
  O  O46  1  0.43517600  0.75574300  0.26783900  1
  O  O47  1  0.86300300  0.57688000  0.50000000  1
  O  O48  1  0.04670500  0.55647600  0.00000000  1
  O  O49  1  0.05421800  0.42719000  0.24553400  1
  O  O50  1  0.14186100  0.74399400  0.50000000  1
  O  O51  1  0.34869900  0.80253300  0.00000000  1
  O  O52  1  0.64071100  0.22877400  0.73320500  1
  O  O53  1  0.37297200  0.94578200  0.75446600  1
  O  O54  1  0.37327400  0.23838900  0.00000000  1
  O  O55  1  0.58806300  0.35928900  0.26679500  1
  O  O56  1  0.72860600  0.62564000  0.24108400  1
  O  O57  1  0.50021100  0.91313600  0.50000000  1
  O  O58  1  0.24425700  0.67943300  0.73216100  1
  O  O59  1  0.83289200  0.76713400  0.50000000  1
  O  O60  1  0.10055400  0.95664700  0.00000000  1
  O  O61  1  0.97289500  0.89247000  0.27196600  1
  O  O62  1  0.23286600  0.06575800  0.50000000  1
  O  O63  1  0.05421800  0.42719000  0.75446600  1
  O  O64  1  0.70854400  0.78958900  0.24326100  1
  O  O65  1  0.32056700  0.56482400  0.26783900  1
  O  O66  1  0.42312000  0.28612300  0.50000000  1
  O  O67  1  0.77000800  0.01356200  0.50000000  1
  O  O68  1  0.08686400  0.58707500  0.50000000  1
  O  O69  1  0.97289500  0.89247000  0.72803400  1
  O  O70  1  0.55031300  0.07078000  0.50000000  1
  O  O71  1  0.77122600  0.41193700  0.73320500  1
loop_
_geom_bond_atom_site_label_1
_geom_bond_atom_site_label_2
_geom_bond_distance
_geom_bond_site_symmetry_2
Mo0 O24 1.758065 1_555
Mo0 O26 1.797211 1_555
Mo0 O12 1.819649 1_554
Mo0 O33 1.819649 1_555
Mo1 O58 1.768131 1_555
Mo1 O1 1.768131 1_555
Mo1 O68 1.798611 1_555
Mo1 O50 1.843941 1_555
Mo2 O28 1.758061 1_555
Mo2 O60 1.797180 1_555
Mo2 O6 1.819659 1_554
Mo2 O11 1.819659 1_555
Mo3 O36 1.758988 1_555
Mo3 O30 1.788091 1_555
Mo3 O9 1.826313 1_554
Mo3 O56 1.826313 1_555
Mo4 O54 1.758970 1_555
Mo4 O19 1.788090 1_555
Mo4 O35 1.826322 1_554
Mo4 O10 1.826322 1_555
Mo5 O43 1.768126 1_555
Mo5 O46 1.768126 1_555
Mo5 O57 1.798603 1_555
Mo5 O22 1.843958 1_555
Mo6 O31 1.760893 1_555
Mo6 O8 1.799217 1_555
Mo6 O41 1.818920 1_555
Mo6 O27 1.818920 1_554
Mo7 O25 1.761149 1_555
Mo7 O7 1.767001 1_555
Mo7 O34 1.767001 1_555
Mo7 O67 1.886278 1_555
Mo8 O15 1.758048 1_555
Mo8 O32 1.797214 1_555
Mo8 O40 1.819658 1_554
Mo8 O64 1.819658 1_555
Mo9 O17 1.766987 1_555
Mo9 O55 1.774835 1_555
Mo9 O4 1.774835 1_555
Mo9 O66 1.857964 1_555
Mo10 O42 1.758984 1_555
Mo10 O20 1.788074 1_555
Mo10 O45 1.826323 1_555
Mo10 O5 1.826323 1_554
Mo11 O70 1.766987 1_555
Mo11 O0 1.774835 1_555
Mo11 O52 1.774835 1_555
Mo11 O2 1.857964 1_555
Mo12 O59 1.761149 1_555
Mo12 O69 1.767001 1_555
Mo12 O61 1.767001 1_555
Mo12 O38 1.886278 1_555
Mo13 O44 1.760893 1_555
Mo13 O51 1.799217 1_555
Mo13 O14 1.818920 1_555
Mo13 O53 1.818920 1_554
Mo14 O48 1.760893 1_555
Mo14 O21 1.799217 1_555
Mo14 O49 1.818920 1_555
Mo14 O63 1.818920 1_554
Mo15 O62 1.761149 1_555
Mo15 O39 1.767001 1_555
Mo15 O3 1.767001 1_555
Mo15 O13 1.886278 1_555
Mo16 O29 1.768120 1_555
Mo16 O65 1.768120 1_555
Mo16 O23 1.798622 1_555
Mo16 O37 1.843956 1_555
Mo17 O18 1.766987 1_555
Mo17 O16 1.774835 1_555
Mo17 O71 1.774835 1_555
Mo17 O47 1.857964 1_555
O0 Th8 2.418157 1_555
O1 Th4 2.447146 1_555
O2 Th7 2.244002 1_545
O3 Th0 2.475090 1_555
O4 Th8 2.418170 1_556
O5 Th5 2.356316 1_655
O6 Th2 2.369027 1_555
O7 Th0 2.475090 1_656
O8 Th4 2.408378 1_555
O9 Th6 2.356316 1_555
O10 Th2 2.356316 1_545
O11 Th2 2.369027 1_555
O12 Th5 2.369027 1_555
O13 Th3 2.178087 1_555
O14 Th2 2.373344 1_555
O16 Th8 2.418160 1_555
O17 Th3 2.739503 1_555
O18 Th1 2.739502 1_655
O19 Th8 2.472379 1_555
O20 Th8 2.472366 1_555
O21 Th4 2.408367 1_555
O22 Th7 2.319476 1_555
O23 Th3 2.379929 1_555
O25 Th5 2.441930 1_655
O26 Th0 2.389557 1_555
O27 Th6 2.373344 1_555
O29 Th4 2.447159 1_556
O30 Th8 2.472384 1_555
O32 Th0 2.389561 1_665
O33 Th5 2.369027 1_555
O34 Th0 2.475090 1_655
O35 Th2 2.356316 1_545
O37 Th3 2.319494 1_555
O38 Th1 2.178098 1_655
O39 Th0 2.475090 1_556
O40 Th6 2.369027 1_555
O41 Th6 2.373344 1_555
O43 Th4 2.447154 1_556
O45 Th5 2.356316 1_655
O46 Th4 2.447154 1_555
O47 Th1 2.244002 1_655
O49 Th5 2.373344 1_555
O50 Th1 2.319480 1_555
O51 Th4 2.408359 1_555
O52 Th8 2.418157 1_556
O53 Th2 2.373344 1_555
O55 Th8 2.418170 1_555
O56 Th6 2.356316 1_555
O57 Th7 2.379927 1_555
O58 Th4 2.447146 1_556
O59 Th6 2.441930 1_555
O60 Th0 2.389575 1_565
O61 Th0 2.475090 1_665
O62 Th2 2.441930 1_545
O63 Th5 2.373344 1_555
O64 Th6 2.369027 1_555
O65 Th4 2.447159 1_555
O66 Th3 2.243986 1_555
O67 Th7 2.178079 1_545
O68 Th1 2.379912 1_555
O69 Th0 2.475090 1_666
O70 Th7 2.739518 1_545
O71 Th8 2.418160 1_556
