# generated using pymatgen
data_LiFe(PO3)4
_symmetry_space_group_name_H-M   'P 1'
_cell_length_a   12.95656700
_cell_length_b   7.51649600
_cell_length_c   11.66050273
_cell_angle_alpha   54.49597056
_cell_angle_beta   90.00000000
_cell_angle_gamma   90.00000000
_symmetry_Int_Tables_number   1
_chemical_formula_structural   LiFe(PO3)4
_chemical_formula_sum   'Li4 Fe4 P16 O48'
_cell_volume   924.45738616
_cell_formula_units_Z   4
loop_
 _symmetry_equiv_pos_site_id
 _symmetry_equiv_pos_as_xyz
  1  'x, y, z'
loop_
 _atom_site_type_symbol
 _atom_site_label
 _atom_site_symmetry_multiplicity
 _atom_site_fract_x
 _atom_site_fract_y
 _atom_site_fract_z
 _atom_site_occupancy
  Li  Li0  1  0.22140800  0.56878700  0.96548400  1
  Li  Li1  1  0.72140800  0.43121300  0.53451600  1
  Li  Li2  1  0.27859200  0.56878700  0.46548400  1
  Li  Li3  1  0.77859200  0.43121300  0.03451600  1
  Fe  Fe0  1  0.26746600  0.01147100  0.52240200  1
  Fe  Fe1  1  0.76746600  0.98852900  0.97759800  1
  Fe  Fe2  1  0.23253400  0.01147100  0.02240200  1
  Fe  Fe3  1  0.73253400  0.98852900  0.47759800  1
  P  P0  1  0.89351400  0.65952900  0.75226400  1
  P  P1  1  0.36624700  0.18376000  0.21732600  1
  P  P2  1  0.59250200  0.07792100  0.22782000  1
  P  P3  1  0.61524100  0.43694100  0.76297300  1
  P  P4  1  0.11524100  0.56305900  0.73702700  1
  P  P5  1  0.09250200  0.92207900  0.27218000  1
  P  P6  1  0.86624700  0.81624000  0.28267400  1
  P  P7  1  0.39351400  0.34047100  0.74773600  1
  P  P8  1  0.60648600  0.65952900  0.25226400  1
  P  P9  1  0.13375300  0.18376000  0.71732600  1
  P  P10  1  0.90749800  0.07792100  0.72782000  1
  P  P11  1  0.88475900  0.43694100  0.26297300  1
  P  P12  1  0.38475900  0.56305900  0.23702700  1
  P  P13  1  0.40749800  0.92207900  0.77218000  1
  P  P14  1  0.63375300  0.81624000  0.78267400  1
  P  P15  1  0.10648600  0.34047100  0.24773600  1
  O  O0  1  0.63912200  0.56935100  0.82860800  1
  O  O1  1  0.61160000  0.07274900  0.35859500  1
  O  O2  1  0.06882000  0.16923000  0.21691400  1
  O  O3  1  0.17440100  0.77651200  0.64852100  1
  O  O4  1  0.82265900  0.77440800  0.62569400  1
  O  O5  1  0.35838500  0.02362500  0.37645500  1
  O  O6  1  0.85683200  0.45685200  0.88474600  1
  O  O7  1  0.63346900  0.56661200  0.60802900  1
  O  O8  1  0.99609900  0.61865200  0.69337100  1
  O  O9  1  0.47992100  0.18052100  0.16512700  1
  O  O10  1  0.28906600  0.17608500  0.12430000  1
  O  O11  1  0.16872700  0.80485200  0.38824200  1
  O  O12  1  0.66872700  0.19514800  0.11175800  1
  O  O13  1  0.49609900  0.38134800  0.80662900  1
  O  O14  1  0.78906600  0.82391500  0.37570000  1
  O  O15  1  0.13346900  0.43338800  0.89197100  1
  O  O16  1  0.97992100  0.81947900  0.33487300  1
  O  O17  1  0.35683200  0.54314800  0.61525400  1
  O  O18  1  0.85838500  0.97637500  0.12354500  1
  O  O19  1  0.32265900  0.22559200  0.87430600  1
  O  O20  1  0.67440100  0.22348800  0.85147900  1
  O  O21  1  0.56882000  0.83077000  0.28308600  1
  O  O22  1  0.13912200  0.43064900  0.67139200  1
  O  O23  1  0.11160000  0.92725100  0.14140500  1
  O  O24  1  0.88840000  0.07274900  0.85859500  1
  O  O25  1  0.86087800  0.56935100  0.32860800  1
  O  O26  1  0.43118000  0.16923000  0.71691400  1
  O  O27  1  0.32559900  0.77651200  0.14852100  1
  O  O28  1  0.67734100  0.77440800  0.12569400  1
  O  O29  1  0.14161500  0.02362500  0.87645500  1
  O  O30  1  0.64316800  0.45685200  0.38474600  1
  O  O31  1  0.02007900  0.18052100  0.66512700  1
  O  O32  1  0.86653100  0.56661200  0.10802900  1
  O  O33  1  0.21093400  0.17608500  0.62430000  1
  O  O34  1  0.50390100  0.61865200  0.19337100  1
  O  O35  1  0.33127300  0.80485200  0.88824200  1
  O  O36  1  0.83127300  0.19514800  0.61175800  1
  O  O37  1  0.71093400  0.82391500  0.87570000  1
  O  O38  1  0.52007900  0.81947900  0.83487300  1
  O  O39  1  0.00390100  0.38134800  0.30662900  1
  O  O40  1  0.36653100  0.43338800  0.39197100  1
  O  O41  1  0.14316800  0.54314800  0.11525400  1
  O  O42  1  0.64161500  0.97637500  0.62354500  1
  O  O43  1  0.17734100  0.22559200  0.37430600  1
  O  O44  1  0.82559900  0.22348800  0.35147900  1
  O  O45  1  0.93118000  0.83077000  0.78308600  1
  O  O46  1  0.38840000  0.92725100  0.64140500  1
  O  O47  1  0.36087800  0.43064900  0.17139200  1
loop_
_geom_bond_atom_site_label_1
_geom_bond_atom_site_label_2
_geom_bond_distance
_geom_bond_site_symmetry_2
Li0 O41 1.929700 1_556
Li0 O15 2.020411 1_555
Li0 O35 2.032153 1_555
Li0 O10 2.561545 1_556
Li1 O30 1.929700 1_555
Li1 O7 2.020411 1_555
Li1 O36 2.032153 1_555
Li1 O14 2.561545 1_555
Li2 O17 1.929700 1_555
Li2 O40 2.020411 1_555
Li2 O11 2.032153 1_555
Li2 O33 2.561545 1_555
Li3 O6 1.929700 1_554
Li3 O32 2.020411 1_555
Li3 O12 2.032153 1_555
Li3 O37 2.561545 1_554
Fe0 O43 1.925545 1_555
Fe0 O3 1.928459 1_545
Fe0 O46 1.939356 1_545
Fe0 O5 2.027713 1_555
Fe0 O33 2.277468 1_555
Fe1 O28 1.925545 1_556
Fe1 O20 1.928459 1_565
Fe1 O24 1.939356 1_565
Fe1 O18 2.027713 1_556
Fe1 O37 2.277468 1_555
Fe2 O19 1.925545 1_554
Fe2 O27 1.928459 1_545
Fe2 O23 1.939356 1_545
Fe2 O29 2.027713 1_554
Fe2 O10 2.277468 1_555
Fe3 O4 1.925545 1_555
Fe3 O44 1.928459 1_565
Fe3 O1 1.939356 1_565
Fe3 O42 2.027713 1_555
Fe3 O14 2.277468 1_555
O0 P3 1.598987 1_555
O0 P14 1.606545 1_555
O1 P2 1.522896 1_555
O2 P15 1.600424 1_555
O2 P5 1.603120 1_545
O3 P4 1.517738 1_555
O4 P0 1.512071 1_555
O5 P1 1.519203 1_555
O6 P0 1.483109 1_555
O7 P3 1.491517 1_555
O8 P4 1.602995 1_655
O8 P0 1.605524 1_555
O9 P1 1.599216 1_555
O9 P2 1.613077 1_555
O10 P1 1.500884 1_555
O11 P5 1.482642 1_555
O12 P2 1.482642 1_555
O13 P3 1.602995 1_555
O13 P7 1.605524 1_555
O14 P6 1.500884 1_555
O15 P4 1.491517 1_555
O16 P6 1.599216 1_555
O16 P5 1.613077 1_655
O17 P7 1.483109 1_555
O18 P6 1.519203 1_555
O19 P7 1.512071 1_555
O20 P3 1.517738 1_555
O21 P8 1.600424 1_555
O21 P2 1.603120 1_565
O22 P4 1.598987 1_555
O22 P9 1.606545 1_555
O23 P5 1.522896 1_555
O24 P10 1.522896 1_555
O25 P11 1.598987 1_555
O25 P6 1.606545 1_555
O26 P7 1.600424 1_555
O26 P13 1.603120 1_545
O27 P12 1.517738 1_555
O28 P8 1.512071 1_555
O29 P9 1.519203 1_555
O30 P8 1.483109 1_555
O31 P9 1.599216 1_555
O31 P10 1.613077 1_455
O32 P11 1.491517 1_555
O33 P9 1.500884 1_555
O34 P12 1.602995 1_555
O34 P8 1.605524 1_555
O35 P13 1.482642 1_555
O36 P10 1.482642 1_555
O37 P14 1.500884 1_555
O38 P14 1.599216 1_555
O38 P13 1.613077 1_555
O39 P11 1.602995 1_455
O39 P15 1.605524 1_555
O40 P12 1.491517 1_555
O41 P15 1.483109 1_555
O42 P14 1.519203 1_555
O43 P15 1.512071 1_555
O44 P11 1.517738 1_555
O45 P0 1.600424 1_555
O45 P10 1.603120 1_565
O46 P13 1.522896 1_555
O47 P12 1.598987 1_555
O47 P1 1.606545 1_555
