# generated using pymatgen
data_DyYO3
_symmetry_space_group_name_H-M   'P 1'
_cell_length_a   6.44561669
_cell_length_b   6.44561669
_cell_length_c   12.80003900
_cell_angle_alpha   90.00000000
_cell_angle_beta   90.00000000
_cell_angle_gamma   120.00000712
_symmetry_Int_Tables_number   1
_chemical_formula_structural   DyYO3
_chemical_formula_sum   'Dy6 Y6 O18'
_cell_volume   460.54369843
_cell_formula_units_Z   6
loop_
 _symmetry_equiv_pos_site_id
 _symmetry_equiv_pos_as_xyz
  1  'x, y, z'
loop_
 _atom_site_type_symbol
 _atom_site_label
 _atom_site_symmetry_multiplicity
 _atom_site_fract_x
 _atom_site_fract_y
 _atom_site_fract_z
 _atom_site_occupancy
  Dy  Dy0  1  0.00000000  0.66683900  0.50138800  1
  Dy  Dy1  1  0.00000000  0.33316100  0.00138800  1
  Dy  Dy2  1  0.33316100  0.33316100  0.50138800  1
  Dy  Dy3  1  0.66683900  0.66683900  0.00138800  1
  Dy  Dy4  1  0.33316100  0.00000000  0.00138800  1
  Dy  Dy5  1  0.66683900  0.00000000  0.50138800  1
  Y  Y0  1  0.33333300  0.66666700  0.23676500  1
  Y  Y1  1  0.00000000  0.00000000  0.26991800  1
  Y  Y2  1  0.00000000  0.00000000  0.76991800  1
  Y  Y3  1  0.33333300  0.66666700  0.73676500  1
  Y  Y4  1  0.66666700  0.33333300  0.73676500  1
  Y  Y5  1  0.66666700  0.33333300  0.23676500  1
  O  O0  1  0.00000000  0.69400400  0.67541700  1
  O  O1  1  0.00000000  0.63644900  0.32902000  1
  O  O2  1  0.00000000  0.36355100  0.82902000  1
  O  O3  1  0.00000000  0.30599600  0.17541700  1
  O  O4  1  0.33333300  0.66666700  0.03003100  1
  O  O5  1  0.00000000  0.00000000  0.46663000  1
  O  O6  1  0.00000000  0.00000000  0.96663000  1
  O  O7  1  0.33333300  0.66666700  0.53003100  1
  O  O8  1  0.30599600  0.30599600  0.67541700  1
  O  O9  1  0.36355100  0.36355100  0.32902000  1
  O  O10  1  0.30599600  0.00000000  0.17541700  1
  O  O11  1  0.63644900  0.63644900  0.82902000  1
  O  O12  1  0.69400400  0.69400400  0.17541700  1
  O  O13  1  0.36355100  0.00000000  0.82902000  1
  O  O14  1  0.66666700  0.33333300  0.53003100  1
  O  O15  1  0.66666700  0.33333300  0.03003100  1
  O  O16  1  0.63644900  0.00000000  0.32902000  1
  O  O17  1  0.69400400  0.00000000  0.67541700  1
loop_
_geom_bond_atom_site_label_1
_geom_bond_atom_site_label_2
_geom_bond_distance
_geom_bond_site_symmetry_2
Dy0 O7 2.180140 1_555
Dy0 O14 2.180143 1_455
Dy0 O5 2.193031 1_565
Dy0 O1 2.214996 1_555
Dy0 O0 2.234449 1_555
Dy1 O15 2.180140 1_455
Dy1 O4 2.180143 1_555
Dy1 O6 2.193031 1_554
Dy1 O2 2.214996 1_554
Dy1 O3 2.234449 1_555
Dy2 O14 2.180147 1_555
Dy2 O7 2.180147 1_555
Dy2 O5 2.193031 1_555
Dy2 O9 2.214996 1_555
Dy2 O8 2.234449 1_555
Dy3 O15 2.180147 1_555
Dy3 O4 2.180147 1_555
Dy3 O6 2.193031 1_664
Dy3 O11 2.214996 1_554
Dy3 O12 2.234449 1_555
Dy4 O4 2.180140 1_545
Dy4 O15 2.180143 1_555
Dy4 O6 2.193031 1_554
Dy4 O13 2.214996 1_554
Dy4 O10 2.234449 1_555
Dy5 O14 2.180140 1_555
Dy5 O7 2.180143 1_545
Dy5 O5 2.193031 1_655
Dy5 O16 2.214996 1_555
Dy5 O17 2.234449 1_555
O0 Y2 2.313713 1_565
O0 Y3 2.375388 1_555
O0 Y4 2.375391 1_455
O1 Y0 2.372787 1_555
O1 Y5 2.372789 1_455
O1 Y1 2.462399 1_565
O2 Y4 2.372787 1_455
O2 Y3 2.372789 1_555
O2 Y2 2.462399 1_555
O3 Y1 2.313713 1_555
O3 Y5 2.375388 1_455
O3 Y0 2.375391 1_555
O4 Y0 2.646203 1_555
O5 Y1 2.517921 1_555
O6 Y2 2.517921 1_555
O7 Y3 2.646203 1_555
O8 Y2 2.313713 1_555
O8 Y4 2.375394 1_555
O8 Y3 2.375394 1_555
O9 Y0 2.372792 1_555
O9 Y5 2.372792 1_555
O9 Y1 2.462399 1_555
O10 Y1 2.313713 1_555
O10 Y0 2.375388 1_545
O10 Y5 2.375391 1_555
O11 Y4 2.372792 1_555
O11 Y3 2.372792 1_555
O11 Y2 2.462399 1_665
O12 Y1 2.313713 1_665
O12 Y5 2.375394 1_555
O12 Y0 2.375394 1_555
O13 Y3 2.372787 1_545
O13 Y4 2.372789 1_555
O13 Y2 2.462399 1_555
O14 Y4 2.646203 1_555
O15 Y5 2.646203 1_555
O16 Y5 2.372787 1_555
O16 Y0 2.372789 1_545
O16 Y1 2.462399 1_655
O17 Y2 2.313713 1_655
O17 Y4 2.375388 1_555
O17 Y3 2.375391 1_545
