# generated using pymatgen
data_Mn2CrO4
_symmetry_space_group_name_H-M   'P 1'
_cell_length_a   5.93782624
_cell_length_b   5.96423125
_cell_length_c   10.36455819
_cell_angle_alpha   75.44831521
_cell_angle_beta   74.33033313
_cell_angle_gamma   61.35856563
_symmetry_Int_Tables_number   1
_chemical_formula_structural   Mn2CrO4
_chemical_formula_sum   'Mn8 Cr4 O16'
_cell_volume   306.93113429
_cell_formula_units_Z   4
loop_
 _symmetry_equiv_pos_site_id
 _symmetry_equiv_pos_as_xyz
  1  'x, y, z'
loop_
 _atom_site_type_symbol
 _atom_site_label
 _atom_site_symmetry_multiplicity
 _atom_site_fract_x
 _atom_site_fract_y
 _atom_site_fract_z
 _atom_site_occupancy
  Mn  Mn0  1  0.56502780  0.56429950  0.81007359  1
  Mn  Mn1  1  0.23625884  0.26354687  0.75004465  1
  Mn  Mn2  1  0.92430106  0.94635628  0.68953765  1
  Mn  Mn3  1  0.50000000  0.00000000  0.50000000  1
  Mn  Mn4  1  0.07569894  0.05364372  0.31046235  1
  Mn  Mn5  1  0.43497220  0.43570050  0.18992641  1
  Mn  Mn6  1  0.76374116  0.73645313  0.24995535  1
  Mn  Mn7  1  0.50000000  0.00000000  0.00000000  1
  Cr  Cr0  1  0.50000000  0.50000000  0.50000000  1
  Cr  Cr1  1  -0.00000000  0.50000000  0.50000000  1
  Cr  Cr2  1  -0.00000000  0.50000000  0.00000000  1
  Cr  Cr3  1  -0.00000000  0.00000000  0.00000000  1
  O  O0  1  0.57783262  0.15625561  0.61966785  1
  O  O1  1  0.11270478  0.17026855  0.62857515  1
  O  O2  1  0.85800594  0.37981062  0.39337989  1
  O  O3  1  0.36848073  0.35177027  0.39756394  1
  O  O4  1  0.63151927  0.64822973  0.60243606  1
  O  O5  1  0.14199406  0.62018938  0.60662011  1
  O  O6  1  0.88729522  0.82973145  0.37142485  1
  O  O7  1  0.42216738  0.84374439  0.38033215  1
  O  O8  1  0.64024554  0.10703932  0.10816898  1
  O  O9  1  0.13591362  0.14147459  0.10317564  1
  O  O10  1  0.90673427  0.34561383  0.88364902  1
  O  O11  1  0.09326573  0.65438617  0.11635098  1
  O  O12  1  0.34003748  0.37792597  0.87206367  1
  O  O13  1  0.65996252  0.62207403  0.12793633  1
  O  O14  1  0.35975446  0.89296068  0.89183102  1
  O  O15  1  0.86408638  0.85852541  0.89682436  1
loop_
_geom_bond_atom_site_label_1
_geom_bond_atom_site_label_2
_geom_bond_distance
_geom_bond_site_symmetry_2
Mn0 O14 2.008091 1_555
Mn0 O12 2.008542 1_555
Mn0 O10 2.049033 1_555
Mn0 O4 2.055971 1_555
Mn1 O1 1.917011 1_555
Mn1 O12 1.924057 1_555
Mn1 O10 1.986073 1_455
Mn1 O0 2.014682 1_555
Mn1 O5 2.183297 1_555
Mn1 O14 2.231305 1_545
Mn2 O5 2.005788 1_655
Mn2 O1 2.015088 1_665
Mn2 O0 2.050421 1_565
Mn2 O15 2.053555 1_555
Mn3 O3 1.974006 1_555
Mn3 O4 1.974006 1_545
Mn3 O7 1.980870 1_545
Mn3 O0 1.980870 1_555
Mn3 O1 2.209416 1_555
Mn3 O6 2.209416 1_545
Mn4 O2 2.005788 1_455
Mn4 O6 2.015088 1_445
Mn4 O7 2.050421 1_545
Mn4 O9 2.053555 1_555
Mn5 O8 2.008091 1_555
Mn5 O13 2.008542 1_555
Mn5 O11 2.049033 1_555
Mn5 O3 2.055971 1_555
Mn6 O6 1.917011 1_555
Mn6 O13 1.924057 1_555
Mn6 O11 1.986073 1_655
Mn6 O7 2.014682 1_555
Mn6 O2 2.183297 1_555
Mn6 O8 2.231305 1_565
Mn7 O14 1.931735 1_544
Mn7 O8 1.931735 1_555
Mn7 O9 1.996276 1_555
Mn7 O15 1.996276 1_544
Mn7 O12 2.206160 1_554
Mn7 O13 2.206160 1_545
Cr0 O5 1.980464 1_555
Cr0 O2 1.980464 1_555
Cr0 O0 2.019572 1_555
Cr0 O7 2.019572 1_555
Cr0 O3 2.024866 1_555
Cr0 O4 2.024866 1_555
Cr1 O2 1.981585 1_455
Cr1 O5 1.981585 1_555
Cr1 O1 1.998594 1_555
Cr1 O6 1.998594 1_455
Cr1 O3 2.014576 1_555
Cr1 O4 2.014576 1_455
Cr2 O12 1.998678 1_554
Cr2 O13 1.998678 1_455
Cr2 O10 2.004096 1_454
Cr2 O11 2.004096 1_555
Cr2 O9 2.007505 1_555
Cr2 O15 2.007505 1_454
Cr3 O8 1.996569 1_455
Cr3 O14 1.996569 1_544
Cr3 O11 2.006804 1_545
Cr3 O10 2.006804 1_454
Cr3 O15 2.019714 1_444
Cr3 O9 2.019714 1_555
