# generated using pymatgen
data_Ho(ClO4)3
_symmetry_space_group_name_H-M   'P 1'
_cell_length_a   9.26829842
_cell_length_b   9.26829842
_cell_length_c   5.71198700
_cell_angle_alpha   90.00000000
_cell_angle_beta   90.00000000
_cell_angle_gamma   120.00000298
_symmetry_Int_Tables_number   1
_chemical_formula_structural   Ho(ClO4)3
_chemical_formula_sum   'Ho2 Cl6 O24'
_cell_volume   424.93044316
_cell_formula_units_Z   2
loop_
 _symmetry_equiv_pos_site_id
 _symmetry_equiv_pos_as_xyz
  1  'x, y, z'
loop_
 _atom_site_type_symbol
 _atom_site_label
 _atom_site_symmetry_multiplicity
 _atom_site_fract_x
 _atom_site_fract_y
 _atom_site_fract_z
 _atom_site_occupancy
  Ho  Ho0  1  0.33333300  0.66666700  0.75000000  1
  Ho  Ho1  1  0.66666700  0.33333300  0.25000000  1
  Cl  Cl0  1  0.09091500  0.70763500  0.25000000  1
  Cl  Cl1  1  0.29236500  0.38328100  0.25000000  1
  Cl  Cl2  1  0.61671900  0.90908500  0.25000000  1
  Cl  Cl3  1  0.38328100  0.09091500  0.75000000  1
  Cl  Cl4  1  0.70763500  0.61671900  0.75000000  1
  Cl  Cl5  1  0.90908500  0.29236500  0.75000000  1
  O  O0  1  0.01994800  0.81236800  0.25000000  1
  O  O1  1  0.03483700  0.47026200  0.75000000  1
  O  O2  1  0.19766800  0.74156700  0.04309100  1
  O  O3  1  0.19766800  0.74156700  0.45690900  1
  O  O4  1  0.43542400  0.96516300  0.75000000  1
  O  O5  1  0.25843300  0.45610100  0.45690900  1
  O  O6  1  0.25843300  0.45610100  0.04309100  1
  O  O7  1  0.18763200  0.20758000  0.25000000  1
  O  O8  1  0.54389900  0.80233200  0.04309100  1
  O  O9  1  0.54389900  0.80233200  0.45690900  1
  O  O10  1  0.20758000  0.01994800  0.75000000  1
  O  O11  1  0.47026200  0.43542400  0.25000000  1
  O  O12  1  0.52973800  0.56457600  0.75000000  1
  O  O13  1  0.79242000  0.98005200  0.25000000  1
  O  O14  1  0.45610100  0.19766800  0.54309100  1
  O  O15  1  0.45610100  0.19766800  0.95690900  1
  O  O16  1  0.81236800  0.79242000  0.75000000  1
  O  O17  1  0.74156700  0.54389900  0.95690900  1
  O  O18  1  0.74156700  0.54389900  0.54309100  1
  O  O19  1  0.56457600  0.03483700  0.25000000  1
  O  O20  1  0.80233200  0.25843300  0.95690900  1
  O  O21  1  0.80233200  0.25843300  0.54309100  1
  O  O22  1  0.96516300  0.52973800  0.25000000  1
  O  O23  1  0.98005200  0.18763200  0.75000000  1
loop_
_geom_bond_atom_site_label_1
_geom_bond_atom_site_label_2
_geom_bond_distance
_geom_bond_site_symmetry_2
Ho0 O2 2.395519 1_556
Ho0 O3 2.395519 1_555
Ho0 O9 2.395524 1_555
Ho0 O8 2.395524 1_556
Ho0 O5 2.395525 1_555
Ho0 O6 2.395525 1_556
Ho0 O1 2.435441 1_555
Ho0 O4 2.435441 1_555
Ho0 O12 2.435441 1_555
Ho1 O20 2.395519 1_554
Ho1 O21 2.395519 1_555
Ho1 O14 2.395524 1_555
Ho1 O15 2.395524 1_554
Ho1 O17 2.395525 1_554
Ho1 O18 2.395525 1_555
Ho1 O22 2.435441 1_555
Ho1 O19 2.435441 1_555
Ho1 O11 2.435441 1_555
Cl0 O0 1.418925 1_555
Cl0 O22 1.468082 1_455
Cl0 O2 1.470880 1_555
Cl0 O3 1.470880 1_555
Cl1 O7 1.418932 1_555
Cl1 O11 1.468087 1_555
Cl1 O6 1.470874 1_555
Cl1 O5 1.470874 1_555
Cl2 O13 1.418933 1_555
Cl2 O19 1.468069 1_565
Cl2 O8 1.470878 1_555
Cl2 O9 1.470878 1_555
Cl3 O10 1.418933 1_555
Cl3 O4 1.468069 1_545
Cl3 O14 1.470878 1_555
Cl3 O15 1.470878 1_555
Cl4 O16 1.418932 1_555
Cl4 O12 1.468087 1_555
Cl4 O18 1.470874 1_555
Cl4 O17 1.470874 1_555
Cl5 O23 1.418925 1_555
Cl5 O1 1.468082 1_655
Cl5 O21 1.470880 1_555
Cl5 O20 1.470880 1_555
