# generated using pymatgen
data_Li4V3Ni3(SbO8)2
_symmetry_space_group_name_H-M   'P 1'
_cell_length_a   5.95716519
_cell_length_b   5.95716519
_cell_length_c   9.69085064
_cell_angle_alpha   89.51174492
_cell_angle_beta   89.51174492
_cell_angle_gamma   59.67717926
_symmetry_Int_Tables_number   1
_chemical_formula_structural   Li4V3Ni3(SbO8)2
_chemical_formula_sum   'Li4 V3 Ni3 Sb2 O16'
_cell_volume   296.84443306
_cell_formula_units_Z   1
loop_
 _symmetry_equiv_pos_site_id
 _symmetry_equiv_pos_as_xyz
  1  'x, y, z'
loop_
 _atom_site_type_symbol
 _atom_site_label
 _atom_site_symmetry_multiplicity
 _atom_site_fract_x
 _atom_site_fract_y
 _atom_site_fract_z
 _atom_site_occupancy
  Li  Li0  1  0.66159600  0.66159600  0.10780800  1
  Li  Li1  1  0.99743200  0.99743200  0.01584900  1
  Li  Li2  1  0.00115800  0.00115800  0.50268600  1
  Li  Li3  1  0.33102200  0.33102200  0.59399800  1
  V  V0  1  0.34328900  0.83233000  0.78323600  1
  V  V1  1  0.83233000  0.34328900  0.78323600  1
  V  V2  1  0.17448000  0.17448000  0.27951400  1
  Ni  Ni0  1  0.82987000  0.82987000  0.78923400  1
  Ni  Ni1  1  0.17145300  0.65795500  0.28802100  1
  Ni  Ni2  1  0.65795500  0.17145300  0.28802100  1
  Sb  Sb0  1  0.67078300  0.67078300  0.50451200  1
  Sb  Sb1  1  0.34047200  0.34047200  0.01602000  1
  O  O0  1  0.33634100  0.83458300  0.40718100  1
  O  O1  1  0.51843900  0.51843900  0.66039800  1
  O  O2  1  0.64870800  0.64870800  0.89173400  1
  O  O3  1  0.00984700  0.00984700  0.69569100  1
  O  O4  1  0.01248300  0.01248300  0.20193000  1
  O  O5  1  0.83458300  0.33634100  0.40718100  1
  O  O6  1  0.50899700  0.95941300  0.65827500  1
  O  O7  1  0.95941300  0.50899700  0.65827500  1
  O  O8  1  0.16735400  0.16735400  0.89809200  1
  O  O9  1  0.83801000  0.83801000  0.41141300  1
  O  O10  1  0.03196300  0.47278500  0.14784500  1
  O  O11  1  0.47278500  0.03196300  0.14784500  1
  O  O12  1  0.31469500  0.31469500  0.39417800  1
  O  O13  1  0.16948100  0.67284600  0.90353800  1
  O  O14  1  0.48184300  0.48184300  0.15178400  1
  O  O15  1  0.67284600  0.16948100  0.90353800  1
loop_
_geom_bond_atom_site_label_1
_geom_bond_atom_site_label_2
_geom_bond_distance
_geom_bond_site_symmetry_2
Li0 O14 1.901891 1_555
Li0 O11 1.945488 1_565
Li0 O10 1.945488 1_655
Li0 O2 2.099478 1_554
Li1 O4 1.811501 1_665
Li1 O13 1.997413 1_654
Li1 O15 1.997413 1_564
Li1 O8 2.084907 1_664
Li2 O3 1.873418 1_555
Li2 O9 1.911710 1_445
Li2 O0 1.952361 1_545
Li2 O5 1.952361 1_455
Li3 O12 1.945414 1_555
Li3 O6 2.007620 1_545
Li3 O7 2.007620 1_455
Li3 O1 2.047006 1_555
Ni0 O3 2.061157 1_665
Ni0 O13 2.074767 1_655
Ni0 O15 2.074767 1_565
Ni0 O7 2.096457 1_555
Ni0 O6 2.096457 1_555
Ni0 O2 2.110823 1_555
Ni1 O4 2.004301 1_565
Ni1 O12 2.045755 1_555
Ni1 O14 2.070246 1_555
Ni1 O9 2.087119 1_455
Ni1 O0 2.118750 1_555
Ni1 O10 2.173237 1_555
Ni2 O4 2.004301 1_655
Ni2 O12 2.045755 1_555
Ni2 O14 2.070246 1_555
Ni2 O9 2.087119 1_545
Ni2 O5 2.118750 1_555
Ni2 O11 2.173237 1_555
O0 Sb0 1.965834 1_555
O0 V2 2.136945 1_565
O1 V0 2.012208 1_555
O1 V1 2.012208 1_555
O1 Sb0 2.171241 1_555
O2 V0 1.901524 1_555
O2 V1 1.901524 1_555
O3 V0 1.917317 1_545
O3 V1 1.917317 1_455
O4 V2 1.842014 1_555
O5 Sb0 1.965834 1_555
O5 V2 2.136945 1_655
O6 V0 1.932013 1_555
O6 Sb0 2.109870 1_555
O7 V1 1.932013 1_555
O7 Sb0 2.109870 1_555
O8 V0 2.055820 1_545
O8 V1 2.055820 1_455
O8 Sb1 2.132433 1_556
O9 Sb0 1.941713 1_555
O10 V2 1.990792 1_555
O10 Sb1 2.036014 1_555
O11 V2 1.990792 1_555
O11 Sb1 2.036014 1_555
O12 V2 1.834742 1_555
O13 Sb1 2.022827 1_556
O13 V0 2.070675 1_555
O14 Sb1 1.975706 1_555
O15 Sb1 2.022827 1_556
O15 V1 2.070675 1_555
