# generated using pymatgen
data_LiVSiO4
_symmetry_space_group_name_H-M   'P 1'
_cell_length_a   8.68237965
_cell_length_b   8.68237965
_cell_length_c   8.68237961
_cell_angle_alpha   107.68576147
_cell_angle_beta   107.68576147
_cell_angle_gamma   107.68577099
_symmetry_Int_Tables_number   1
_chemical_formula_structural   LiVSiO4
_chemical_formula_sum   'Li6 V6 Si6 O24'
_cell_volume   534.55772149
_cell_formula_units_Z   6
loop_
 _symmetry_equiv_pos_site_id
 _symmetry_equiv_pos_as_xyz
  1  'x, y, z'
loop_
 _atom_site_type_symbol
 _atom_site_label
 _atom_site_symmetry_multiplicity
 _atom_site_fract_x
 _atom_site_fract_y
 _atom_site_fract_z
 _atom_site_occupancy
  Li  Li0  1  0.89093800  0.12567200  0.72441600  1
  Li  Li1  1  0.43203300  0.21158700  0.60600700  1
  Li  Li2  1  0.60600700  0.43203300  0.21158700  1
  Li  Li3  1  0.72441600  0.89093800  0.12567200  1
  Li  Li4  1  0.21158700  0.60600700  0.43203400  1
  Li  Li5  1  0.12567200  0.72441600  0.89093800  1
  V  V0  1  0.46050100  0.05426500  0.23381700  1
  V  V1  1  0.76979200  0.53163100  0.94684000  1
  V  V2  1  0.94684000  0.76979200  0.53163100  1
  V  V3  1  0.05426500  0.23381700  0.46050100  1
  V  V4  1  0.23381700  0.46050100  0.05426500  1
  V  V5  1  0.53163100  0.94684000  0.76979200  1
  Si  Si0  1  0.87325100  0.27962700  0.09829400  1
  Si  Si1  1  0.79510800  0.38888500  0.56818200  1
  Si  Si2  1  0.27962700  0.09829400  0.87325100  1
  Si  Si3  1  0.38888500  0.56818200  0.79510800  1
  Si  Si4  1  0.56818200  0.79510800  0.38888500  1
  Si  Si5  1  0.09829400  0.87325100  0.27962700  1
  O  O0  1  0.98156100  0.30914900  0.97480800  1
  O  O1  1  0.73107000  0.06552800  0.01161500  1
  O  O2  1  0.90768300  0.26651700  0.58147800  1
  O  O3  1  0.75968300  0.40155100  0.09026700  1
  O  O4  1  0.93472300  0.59975700  0.63622000  1
  O  O5  1  0.63826300  0.30290900  0.36112600  1
  O  O6  1  0.40155100  0.09026700  0.75968300  1
  O  O7  1  0.69342100  0.37659000  0.69939800  1
  O  O8  1  0.30477100  0.02217200  0.35152800  1
  O  O9  1  0.06552800  0.01161500  0.73107000  1
  O  O10  1  0.35152800  0.30477100  0.02217200  1
  O  O11  1  0.69939800  0.69342100  0.37659000  1
  O  O12  1  0.97480800  0.98156100  0.30914900  1
  O  O13  1  0.59975700  0.63622000  0.93472300  1
  O  O14  1  0.30290900  0.36112600  0.63826300  1
  O  O15  1  0.36112600  0.63826300  0.30290900  1
  O  O16  1  0.63622000  0.93472300  0.59975700  1
  O  O17  1  0.26651700  0.58147800  0.90768300  1
  O  O18  1  0.37659000  0.69939800  0.69342100  1
  O  O19  1  0.02217200  0.35152800  0.30477100  1
  O  O20  1  0.58147800  0.90768300  0.26651700  1
  O  O21  1  0.30914900  0.97480800  0.98156100  1
  O  O22  1  0.09026700  0.75968300  0.40155100  1
  O  O23  1  0.01161500  0.73107000  0.06552800  1
loop_
_geom_bond_atom_site_label_1
_geom_bond_atom_site_label_2
_geom_bond_distance
_geom_bond_site_symmetry_2
Li0 O0 1.994479 1_555
Li0 O2 1.995104 1_555
Li0 O16 2.009643 1_545
Li0 O9 2.043393 1_655
Li1 O6 1.964429 1_555
Li1 O14 1.968572 1_555
Li1 O8 2.003026 1_555
Li1 O7 2.015195 1_555
Li2 O3 1.964429 1_555
Li2 O5 1.968572 1_555
Li2 O10 2.003026 1_555
Li2 O11 2.015195 1_555
Li3 O12 1.994479 1_555
Li3 O20 1.995104 1_555
Li3 O13 2.009644 1_554
Li3 O1 2.043393 1_565
Li4 O22 1.964431 1_555
Li4 O15 1.968579 1_555
Li4 O19 2.003025 1_555
Li4 O18 2.015188 1_555
Li5 O21 1.994479 1_555
Li5 O17 1.995104 1_555
Li5 O4 2.009644 1_455
Li5 O23 2.043393 1_556
O0 Si0 1.653076 1_556
O0 V4 1.944760 1_656
O1 Si0 1.654393 1_555
O1 V5 1.964913 1_544
O2 Si1 1.653598 1_555
O2 V3 1.911587 1_655
O3 Si0 1.653793 1_555
O3 V1 1.922164 1_554
O4 Si1 1.652198 1_555
O4 V2 1.947662 1_555
O5 Si1 1.650173 1_555
O5 V0 1.937399 1_555
O6 Si2 1.653793 1_555
O6 V5 1.922165 1_545
O7 Si1 1.648206 1_555
O7 V1 1.924124 1_555
O8 Si5 1.642121 1_545
O8 V0 1.932374 1_555
O9 Si2 1.654393 1_555
O9 V2 1.964913 1_445
O10 Si2 1.642121 1_554
O10 V4 1.932375 1_555
O11 Si4 1.648206 1_555
O11 V2 1.924124 1_555
O12 Si5 1.653076 1_655
O12 V3 1.944760 1_665
O13 Si3 1.652198 1_555
O13 V1 1.947662 1_555
O14 Si3 1.650173 1_555
O14 V3 1.937399 1_555
O15 Si4 1.650173 1_555
O15 V4 1.937399 1_555
O16 Si4 1.652198 1_555
O16 V5 1.947662 1_555
O17 Si3 1.653598 1_555
O17 V4 1.911587 1_556
O18 Si3 1.648206 1_555
O18 V5 1.924124 1_555
O19 Si0 1.642121 1_455
O19 V3 1.932374 1_555
O20 Si4 1.653598 1_555
O20 V0 1.911587 1_565
O21 Si2 1.653076 1_565
O21 V0 1.944760 1_566
O22 Si5 1.653793 1_555
O22 V2 1.922164 1_455
O23 Si5 1.654393 1_555
O23 V1 1.964913 1_454
