# generated using pymatgen
data_Li2Mg2MnFe(PO4)4
_symmetry_space_group_name_H-M   'P 1'
_cell_length_a   7.65827259
_cell_length_b   10.09558719
_cell_length_c   7.70939055
_cell_angle_alpha   90.44447960
_cell_angle_beta   77.91303968
_cell_angle_gamma   89.50305504
_symmetry_Int_Tables_number   1
_chemical_formula_structural   Li2Mg2MnFe(PO4)4
_chemical_formula_sum   'Li4 Mg4 Mn2 Fe2 P8 O32'
_cell_volume   582.78593636
_cell_formula_units_Z   2
loop_
 _symmetry_equiv_pos_site_id
 _symmetry_equiv_pos_as_xyz
  1  'x, y, z'
loop_
 _atom_site_type_symbol
 _atom_site_label
 _atom_site_symmetry_multiplicity
 _atom_site_fract_x
 _atom_site_fract_y
 _atom_site_fract_z
 _atom_site_occupancy
  Li  Li0  1  0.26840500  0.00296600  0.26517600  1
  Li  Li1  1  0.76842000  0.00296300  0.76519900  1
  Li  Li2  1  0.72904000  0.50521700  0.23740700  1
  Li  Li3  1  0.22905500  0.50521400  0.73741400  1
  Mg  Mg0  1  0.38838600  0.72003200  0.36136000  1
  Mg  Mg1  1  0.88834300  0.72003700  0.86135800  1
  Mg  Mg2  1  0.61284100  0.22330100  0.13686200  1
  Mg  Mg3  1  0.11282800  0.22332900  0.63685000  1
  Mn  Mn0  1  0.90133500  0.78267400  0.34769900  1
  Mn  Mn1  1  0.40129500  0.78272700  0.84761400  1
  Fe  Fe0  1  0.11079300  0.27706200  0.13884200  1
  Fe  Fe1  1  0.61083000  0.27707100  0.63886200  1
  P  P0  1  0.16943800  0.60035400  0.08084000  1
  P  P1  1  0.66943200  0.60036300  0.58084800  1
  P  P2  1  0.33355300  0.09640100  0.91671500  1
  P  P3  1  0.83353700  0.09639100  0.41672600  1
  P  P4  1  0.66045400  0.90396100  0.08842700  1
  P  P5  1  0.16045200  0.90396800  0.58844000  1
  P  P6  1  0.83703300  0.40285900  0.91396600  1
  P  P7  1  0.33703800  0.40285700  0.41396500  1
  O  O0  1  0.20309800  0.45000800  0.04661000  1
  O  O1  1  0.70308100  0.45001200  0.54665100  1
  O  O2  1  0.13762900  0.66153800  0.90350400  1
  O  O3  1  0.63763600  0.66153100  0.40348100  1
  O  O4  1  0.33465100  0.67342800  0.11568500  1
  O  O5  1  0.83467000  0.67341900  0.61570100  1
  O  O6  1  0.50041300  0.38989000  0.26305500  1
  O  O7  1  0.00039800  0.38989600  0.76305000  1
  O  O8  1  0.49793000  0.89080100  0.23876000  1
  O  O9  1  0.99792800  0.89078700  0.73876700  1
  O  O10  1  0.16452000  0.17301800  0.88855300  1
  O  O11  1  0.66450200  0.17301100  0.38857100  1
  O  O12  1  0.35768400  0.16154200  0.09751700  1
  O  O13  1  0.85767200  0.16153100  0.59753800  1
  O  O14  1  0.29498800  0.94731100  0.95525600  1
  O  O15  1  0.79499500  0.94730500  0.45525300  1
  O  O16  1  0.70942800  0.04702600  0.03669300  1
  O  O17  1  0.20939500  0.04703500  0.53668000  1
  O  O18  1  0.63595000  0.83325100  0.90866500  1
  O  O19  1  0.13598500  0.83325100  0.40865600  1
  O  O20  1  0.82812700  0.82424500  0.12031300  1
  O  O21  1  0.32813400  0.82422700  0.62032900  1
  O  O22  1  0.49672300  0.11398000  0.76527100  1
  O  O23  1  0.99670700  0.11396500  0.26528600  1
  O  O24  1  0.50298300  0.61903200  0.73612700  1
  O  O25  1  0.00298900  0.61905300  0.23611600  1
  O  O26  1  0.67206700  0.32309000  0.87692500  1
  O  O27  1  0.17207200  0.32309700  0.37690200  1
  O  O28  1  0.86666200  0.33090300  0.09104000  1
  O  O29  1  0.36665000  0.33090600  0.59104400  1
  O  O30  1  0.78591200  0.54608300  0.96871700  1
  O  O31  1  0.28591400  0.54608500  0.46871400  1
loop_
_geom_bond_atom_site_label_1
_geom_bond_atom_site_label_2
_geom_bond_distance
_geom_bond_site_symmetry_2
Li0 O8 2.055592 1_545
Li0 O17 2.090283 1_555
Li0 O12 2.093343 1_555
Li0 O19 2.185722 1_545
Li0 O23 2.354573 1_455
Li0 O14 2.416475 1_544
Li1 O9 2.055533 1_545
Li1 O16 2.090196 1_556
Li1 O13 2.093247 1_555
Li1 O18 2.185793 1_545
Li1 O22 2.354706 1_555
Li1 O15 2.416684 1_545
Li2 O3 2.047862 1_555
Li2 O30 2.071062 1_554
Li2 O6 2.086680 1_555
Li2 O28 2.218097 1_555
Li2 O25 2.399086 1_655
Li2 O1 2.420337 1_555
Li3 O2 2.048041 1_555
Li3 O31 2.071146 1_555
Li3 O7 2.086825 1_555
Li3 O29 2.217984 1_555
Li3 O24 2.398862 1_555
Li3 O0 2.419983 1_556
Mg0 O31 2.039400 1_555
Mg0 O8 2.070665 1_555
Mg0 O4 2.072175 1_555
Mg0 O3 2.083477 1_555
Mg0 O19 2.199043 1_555
Mg0 O21 2.208756 1_555
Mg1 O30 2.039378 1_555
Mg1 O9 2.070577 1_555
Mg1 O5 2.071888 1_555
Mg1 O2 2.083800 1_655
Mg1 O18 2.198964 1_555
Mg1 O20 2.208721 1_556
Mg2 O16 2.006762 1_555
Mg2 O6 2.028546 1_555
Mg2 O11 2.124440 1_555
Mg2 O12 2.136711 1_555
Mg2 O28 2.199622 1_555
Mg2 O26 2.212481 1_554
Mg3 O17 2.006891 1_555
Mg3 O7 2.028389 1_555
Mg3 O10 2.124537 1_555
Mg3 O13 2.136737 1_455
Mg3 O29 2.199504 1_555
Mg3 O27 2.212459 1_555
Mn0 O25 1.936454 1_655
Mn0 O15 1.945634 1_555
Mn0 O20 1.995601 1_555
Mn0 O19 2.019079 1_655
Mn0 O5 2.312901 1_555
Mn0 O3 2.333727 1_555
Mn1 O24 1.936904 1_555
Mn1 O14 1.945376 1_555
Mn1 O21 1.994550 1_555
Mn1 O18 2.019279 1_555
Mn1 O4 2.313564 1_556
Mn1 O2 2.333771 1_555
Fe0 O0 1.970775 1_555
Fe0 O23 2.029270 1_455
Fe0 O27 2.038577 1_555
Fe0 O28 2.049580 1_455
Fe0 O10 2.150449 1_554
Fe0 O12 2.177224 1_555
Fe1 O1 1.970562 1_555
Fe1 O22 2.029168 1_555
Fe1 O26 2.038427 1_555
Fe1 O29 2.049966 1_555
Fe1 O11 2.150540 1_555
Fe1 O13 2.177018 1_555
O0 P0 1.548680 1_555
O1 P1 1.548687 1_555
O2 P0 1.568424 1_556
O3 P1 1.568543 1_555
O4 P0 1.540360 1_555
O5 P1 1.540458 1_555
O6 P7 1.523583 1_555
O7 P6 1.523557 1_455
O8 P4 1.520256 1_555
O9 P5 1.520250 1_655
O10 P2 1.556952 1_555
O11 P3 1.556963 1_555
O12 P2 1.582809 1_554
O13 P3 1.582883 1_555
O14 P2 1.555278 1_565
O15 P3 1.555194 1_565
O16 P4 1.530197 1_545
O17 P5 1.530212 1_545
O18 P4 1.600404 1_556
O19 P5 1.600500 1_555
O20 P4 1.572995 1_555
O21 P5 1.573188 1_555
O22 P2 1.533691 1_555
O23 P3 1.533667 1_555
O24 P1 1.564208 1_555
O25 P0 1.564227 1_555
O26 P6 1.578389 1_555
O27 P7 1.578400 1_555
O28 P6 1.607805 1_554
O29 P7 1.607775 1_555
O30 P6 1.527631 1_555
O31 P7 1.527670 1_555
