# generated using pymatgen
data_Na2Co2O3
_symmetry_space_group_name_H-M   'P 1'
_cell_length_a   8.23654573
_cell_length_b   8.23650089
_cell_length_c   5.51357151
_cell_angle_alpha   71.75096920
_cell_angle_beta   71.73511659
_cell_angle_gamma   83.09336632
_symmetry_Int_Tables_number   1
_chemical_formula_structural   Na2Co2O3
_chemical_formula_sum   'Na8 Co8 O12'
_cell_volume   337.23110695
_cell_formula_units_Z   4
loop_
 _symmetry_equiv_pos_site_id
 _symmetry_equiv_pos_as_xyz
  1  'x, y, z'
loop_
 _atom_site_type_symbol
 _atom_site_label
 _atom_site_symmetry_multiplicity
 _atom_site_fract_x
 _atom_site_fract_y
 _atom_site_fract_z
 _atom_site_occupancy
  Na  Na0  1  0.81981962  0.00539873  0.09031010  1
  Na  Na1  1  0.00550164  0.81966228  0.59011360  1
  Na  Na2  1  0.71323347  0.28779375  0.24894292  1
  Na  Na3  1  0.42794455  0.57137477  0.25092401  1
  Na  Na4  1  0.57205545  0.42862523  0.74907599  1
  Na  Na5  1  0.28676653  0.71220625  0.75105708  1
  Na  Na6  1  0.99449836  0.18033772  0.40988640  1
  Na  Na7  1  0.18018038  0.99460127  0.90968990  1
  Co  Co0  1  0.78178852  0.64553974  0.19632564  1
  Co  Co1  1  0.45003917  0.91185318  0.25277175  1
  Co  Co2  1  0.64533608  0.78193193  0.69650789  1
  Co  Co3  1  0.91204909  0.45034299  0.75229264  1
  Co  Co4  1  0.08795091  0.54965701  0.24770736  1
  Co  Co5  1  0.35466392  0.21806807  0.30349211  1
  Co  Co6  1  0.54996083  0.08814682  0.74722825  1
  Co  Co7  1  0.21821148  0.35446026  0.80367436  1
  O  O0  1  0.56562262  0.71341055  0.43938816  1
  O  O1  1  0.85546871  0.43247015  0.44139098  1
  O  O2  1  0.23510114  0.00462199  0.44898861  1
  O  O3  1  0.71351953  0.56581268  0.93909017  1
  O  O4  1  0.43245808  0.85559026  0.94158614  1
  O  O5  1  0.00455451  0.23521500  0.94879706  1
  O  O6  1  -0.00455451  0.76478500  0.05120294  1
  O  O7  1  0.56754192  0.14440974  0.05841386  1
  O  O8  1  0.28648047  0.43418732  0.06090983  1
  O  O9  1  0.76489886  -0.00462199  0.55101139  1
  O  O10  1  0.14453129  0.56752985  0.55860902  1
  O  O11  1  0.43437738  0.28658945  0.56061184  1
loop_
_geom_bond_atom_site_label_1
_geom_bond_atom_site_label_2
_geom_bond_distance
_geom_bond_site_symmetry_2
Na0 O7 2.278220 1_555
Na0 O6 2.334360 1_645
Na0 O5 2.351707 1_654
Na0 O9 2.412681 1_555
Na1 O10 2.276714 1_555
Na1 O9 2.334733 1_465
Na1 O2 2.351738 1_565
Na1 O6 2.414858 1_556
Na2 O3 2.389758 1_554
Na2 O11 2.397748 1_555
Na2 O1 2.413538 1_555
Na2 O7 2.417900 1_555
Na2 O5 2.528554 1_654
Na2 O9 2.537952 1_555
Na3 O0 2.356548 1_555
Na3 O8 2.356948 1_555
Na3 O10 2.414532 1_555
Na3 O4 2.423003 1_554
Na3 O11 2.436952 1_555
Na3 O3 2.445253 1_554
Na4 O11 2.356548 1_555
Na4 O3 2.356948 1_555
Na4 O1 2.414532 1_555
Na4 O7 2.423003 1_556
Na4 O0 2.436952 1_555
Na4 O8 2.445253 1_556
Na5 O8 2.389758 1_556
Na5 O0 2.397748 1_555
Na5 O10 2.413538 1_555
Na5 O4 2.417900 1_555
Na5 O6 2.528554 1_556
Na5 O2 2.537952 1_565
Na6 O1 2.276714 1_555
Na6 O2 2.334733 1_655
Na6 O9 2.351738 1_555
Na6 O5 2.414858 1_654
Na7 O4 2.278220 1_555
Na7 O5 2.334360 1_565
Na7 O6 2.351707 1_556
Na7 O2 2.412681 1_565
Co0 O6 1.934589 1_655
Co0 O3 1.982658 1_554
Co0 O0 2.003174 1_555
Co0 O1 2.011610 1_555
Co1 O0 1.955250 1_555
Co1 O4 1.961972 1_554
Co1 O2 1.969832 1_565
Co1 O7 2.064990 1_565
Co2 O9 1.934422 1_565
Co2 O0 1.983170 1_555
Co2 O3 2.003051 1_555
Co2 O4 2.010172 1_555
Co3 O3 1.955233 1_555
Co3 O1 1.962789 1_555
Co3 O5 1.970895 1_655
Co3 O10 2.062977 1_655
Co4 O8 1.955233 1_555
Co4 O10 1.962789 1_555
Co4 O6 1.970895 1_555
Co4 O1 2.062977 1_455
Co5 O2 1.934422 1_555
Co5 O11 1.983170 1_555
Co5 O8 2.003051 1_555
Co5 O7 2.010172 1_555
Co6 O11 1.955250 1_555
Co6 O7 1.961972 1_556
Co6 O9 1.969832 1_555
Co6 O4 2.064990 1_545
Co7 O5 1.934589 1_555
Co7 O8 1.982658 1_556
Co7 O11 2.003174 1_555
Co7 O10 2.011610 1_555
