# generated using pymatgen
data_NaV(PO4)2
_symmetry_space_group_name_H-M   'P 1'
_cell_length_a   8.22011500
_cell_length_b   8.22011500
_cell_length_c   10.15724800
_cell_angle_alpha   90.00000000
_cell_angle_beta   90.00000000
_cell_angle_gamma   90.00000000
_symmetry_Int_Tables_number   1
_chemical_formula_structural   NaV(PO4)2
_chemical_formula_sum   'Na4 V4 P8 O32'
_cell_volume   686.32819919
_cell_formula_units_Z   4
loop_
 _symmetry_equiv_pos_site_id
 _symmetry_equiv_pos_as_xyz
  1  'x, y, z'
loop_
 _atom_site_type_symbol
 _atom_site_label
 _atom_site_symmetry_multiplicity
 _atom_site_fract_x
 _atom_site_fract_y
 _atom_site_fract_z
 _atom_site_occupancy
  Na  Na0  1  0.16770300  0.16770300  0.74909300  1
  Na  Na1  1  0.33229700  0.66770300  0.24909300  1
  Na  Na2  1  0.66770300  0.33229700  0.24909300  1
  Na  Na3  1  0.83229700  0.83229700  0.74909300  1
  V  V0  1  0.00000000  0.50000000  0.46988200  1
  V  V1  1  0.00000000  0.50000000  0.96988200  1
  V  V2  1  0.50000000  0.00000000  0.46988200  1
  V  V3  1  0.50000000  0.00000000  0.96988200  1
  P  P0  1  0.12515200  0.87484800  0.49075300  1
  P  P1  1  0.13421200  0.86578800  0.99542500  1
  P  P2  1  0.36578800  0.36578800  0.49542500  1
  P  P3  1  0.37484800  0.37484800  0.99075300  1
  P  P4  1  0.63421200  0.63421200  0.49542500  1
  P  P5  1  0.62515200  0.62515200  0.99075300  1
  P  P6  1  0.87484800  0.12515200  0.49075300  1
  P  P7  1  0.86578800  0.13421200  0.99542500  1
  O  O0  1  0.00000000  0.50000000  0.12729700  1
  O  O1  1  0.00000000  0.50000000  0.62729700  1
  O  O2  1  0.00000000  0.00000000  0.42195600  1
  O  O3  1  0.00000000  0.00000000  0.94724100  1
  O  O4  1  0.08016400  0.70924100  0.42598200  1
  O  O5  1  0.07468800  0.71138200  0.91988300  1
  O  O6  1  0.15140600  0.84859400  0.13978300  1
  O  O7  1  0.11778800  0.88221200  0.63700800  1
  O  O8  1  0.21138200  0.42531200  0.41988300  1
  O  O9  1  0.20924100  0.41983600  0.92598200  1
  O  O10  1  0.29075900  0.91983600  0.42598200  1
  O  O11  1  0.28861800  0.92531200  0.91988300  1
  O  O12  1  0.38221200  0.38221200  0.13700800  1
  O  O13  1  0.34859400  0.34859400  0.63978300  1
  O  O14  1  0.42531200  0.21138200  0.41988300  1
  O  O15  1  0.41983600  0.20924100  0.92598200  1
  O  O16  1  0.50000000  0.00000000  0.62729700  1
  O  O17  1  0.50000000  0.50000000  0.44724100  1
  O  O18  1  0.50000000  0.00000000  0.12729700  1
  O  O19  1  0.50000000  0.50000000  0.92195600  1
  O  O20  1  0.57468800  0.78861800  0.41988300  1
  O  O21  1  0.58016400  0.79075900  0.92598200  1
  O  O22  1  0.61778800  0.61778800  0.13700800  1
  O  O23  1  0.65140600  0.65140600  0.63978300  1
  O  O24  1  0.70924100  0.08016400  0.42598200  1
  O  O25  1  0.71138200  0.07468800  0.91988300  1
  O  O26  1  0.78861800  0.57468800  0.41988300  1
  O  O27  1  0.79075900  0.58016400  0.92598200  1
  O  O28  1  0.84859400  0.15140600  0.13978300  1
  O  O29  1  0.88221200  0.11778800  0.63700800  1
  O  O30  1  0.91983600  0.29075900  0.42598200  1
  O  O31  1  0.92531200  0.28861800  0.91988300  1
loop_
_geom_bond_atom_site_label_1
_geom_bond_atom_site_label_2
_geom_bond_distance
_geom_bond_site_symmetry_2
Na0 O13 2.377972 1_555
Na0 O7 2.640417 1_545
Na0 O29 2.640417 1_455
Na0 O15 2.764100 1_555
Na0 O9 2.764100 1_555
Na0 O3 2.802043 1_555
Na0 O31 2.822635 1_455
Na0 O11 2.822635 1_545
Na1 O6 2.377972 1_555
Na1 O12 2.640417 1_555
Na1 O22 2.640417 1_555
Na1 O4 2.764100 1_555
Na1 O10 2.764100 1_555
Na1 O17 2.802043 1_555
Na1 O20 2.822635 1_555
Na1 O8 2.822635 1_555
Na2 O28 2.377972 1_555
Na2 O12 2.640417 1_555
Na2 O22 2.640417 1_555
Na2 O24 2.764100 1_555
Na2 O30 2.764100 1_555
Na2 O17 2.802043 1_555
Na2 O26 2.822635 1_555
Na2 O14 2.822635 1_555
Na3 O23 2.377972 1_555
Na3 O29 2.640417 1_565
Na3 O7 2.640417 1_655
Na3 O21 2.764100 1_555
Na3 O27 2.764100 1_555
Na3 O3 2.802043 1_665
Na3 O5 2.822635 1_655
Na3 O25 2.822635 1_565
O0 V1 1.598903 1_554
O1 V0 1.598903 1_555
O2 P0 1.614006 1_545
O2 P6 1.614006 1_455
O3 P7 1.635175 1_455
O3 P1 1.635175 1_545
O4 P0 1.556517 1_555
O4 V0 1.895100 1_555
O5 P1 1.561766 1_555
O5 V1 1.911554 1_555
O6 P1 1.479841 1_554
O7 P0 1.488013 1_555
O8 P2 1.561766 1_555
O8 V0 1.911554 1_555
O9 P3 1.556517 1_555
O9 V1 1.895100 1_555
O10 P0 1.556517 1_555
O10 V2 1.895100 1_565
O11 P1 1.561766 1_555
O11 V3 1.911554 1_565
O12 P3 1.488013 1_554
O13 P2 1.479841 1_555
O14 P2 1.561766 1_555
O14 V2 1.911554 1_555
O15 P3 1.556517 1_555
O15 V3 1.895100 1_555
O16 V2 1.598903 1_555
O17 P2 1.635175 1_555
O17 P4 1.635175 1_555
O18 V3 1.598903 1_554
O19 P5 1.614006 1_555
O19 P3 1.614006 1_555
O20 P4 1.561766 1_555
O20 V2 1.911554 1_565
O21 P5 1.556517 1_555
O21 V3 1.895100 1_565
O22 P5 1.488013 1_554
O23 P4 1.479841 1_555
O24 P6 1.556517 1_555
O24 V2 1.895100 1_555
O25 P7 1.561766 1_555
O25 V3 1.911554 1_555
O26 P4 1.561766 1_555
O26 V0 1.911554 1_655
O27 P5 1.556517 1_555
O27 V1 1.895100 1_655
O28 P7 1.479841 1_554
O29 P6 1.488013 1_555
O30 P6 1.556517 1_555
O30 V0 1.895100 1_655
O31 P7 1.561766 1_555
O31 V1 1.911554 1_655
