# generated using pymatgen
data_Dy(PO3)3
_symmetry_space_group_name_H-M   'P 1'
_cell_length_a   9.68960949
_cell_length_b   6.98645728
_cell_length_c   11.00609207
_cell_angle_alpha   88.19200140
_cell_angle_beta   90.00000000
_cell_angle_gamma   90.00000000
_symmetry_Int_Tables_number   1
_chemical_formula_structural   Dy(PO3)3
_chemical_formula_sum   'Dy4 P12 O36'
_cell_volume   744.69795850
_cell_formula_units_Z   4
loop_
 _symmetry_equiv_pos_site_id
 _symmetry_equiv_pos_as_xyz
  1  'x, y, z'
loop_
 _atom_site_type_symbol
 _atom_site_label
 _atom_site_symmetry_multiplicity
 _atom_site_fract_x
 _atom_site_fract_y
 _atom_site_fract_z
 _atom_site_occupancy
  Dy  Dy0  1  0.25000000  0.81193858  0.01794071  1
  Dy  Dy1  1  0.25000000  0.67180179  0.53642267  1
  Dy  Dy2  1  0.75000000  0.32819821  0.46357733  1
  Dy  Dy3  1  0.75000000  0.18806142  0.98205929  1
  P  P0  1  0.46603905  0.82660970  0.28393829  1
  P  P1  1  0.03396095  0.82660970  0.28393829  1
  P  P2  1  0.75000000  0.81547602  0.37322829  1
  P  P3  1  0.49021505  0.76615759  0.76736775  1
  P  P4  1  0.00978495  0.76615759  0.76736775  1
  P  P5  1  0.75000000  0.67744119  0.89606508  1
  P  P6  1  0.25000000  0.32255881  0.10393492  1
  P  P7  1  0.99021505  0.23384241  0.23263225  1
  P  P8  1  0.50978495  0.23384241  0.23263225  1
  P  P9  1  0.25000000  0.18452398  0.62677171  1
  P  P10  1  0.96603905  0.17339030  0.71606171  1
  P  P11  1  0.53396095  0.17339030  0.71606171  1
  O  O0  1  0.25000000  0.98950657  0.57675072  1
  O  O1  1  0.94945500  0.94931466  0.69523760  1
  O  O2  1  0.55054500  0.94931466  0.69523760  1
  O  O3  1  0.75000000  0.87390914  0.94384156  1
  O  O4  1  0.41584314  0.82804815  0.87771319  1
  O  O5  1  0.08415686  0.82804815  0.87771319  1
  O  O6  1  0.87218847  0.79612163  0.27779630  1
  O  O7  1  0.62781153  0.79612163  0.27779630  1
  O  O8  1  0.08997735  0.77975474  0.16333951  1
  O  O9  1  0.41002265  0.77975474  0.16333951  1
  O  O10  1  0.40857848  0.72875499  0.39419754  1
  O  O11  1  0.09142152  0.72875499  0.39419754  1
  O  O12  1  0.87471146  0.65162655  0.80368051  1
  O  O13  1  0.62528854  0.65162655  0.80368051  1
  O  O14  1  0.41440693  0.64898922  0.67952107  1
  O  O15  1  0.08559307  0.64898922  0.67952107  1
  O  O16  1  0.75000000  0.64830070  0.46018418  1
  O  O17  1  0.75000000  0.51072374  0.98273606  1
  O  O18  1  0.25000000  0.48927626  0.01726394  1
  O  O19  1  0.25000000  0.35169930  0.53981582  1
  O  O20  1  0.91440693  0.35101078  0.32047893  1
  O  O21  1  0.58559307  0.35101078  0.32047893  1
  O  O22  1  0.37471146  0.34837345  0.19631949  1
  O  O23  1  0.12528854  0.34837345  0.19631949  1
  O  O24  1  0.90857848  0.27124501  0.60580246  1
  O  O25  1  0.59142152  0.27124501  0.60580246  1
  O  O26  1  0.91002265  0.22024526  0.83666049  1
  O  O27  1  0.58997735  0.22024526  0.83666049  1
  O  O28  1  0.37218847  0.20387837  0.72220370  1
  O  O29  1  0.12781153  0.20387837  0.72220370  1
  O  O30  1  0.91584314  0.17195185  0.12228681  1
  O  O31  1  0.58415686  0.17195185  0.12228681  1
  O  O32  1  0.25000000  0.12609086  0.05615844  1
  O  O33  1  0.44945500  0.05068534  0.30476240  1
  O  O34  1  0.05054500  0.05068534  0.30476240  1
  O  O35  1  0.75000000  0.01049343  0.42324928  1
loop_
_geom_bond_atom_site_label_1
_geom_bond_atom_site_label_2
_geom_bond_distance
_geom_bond_site_symmetry_2
Dy0 O5 2.228444 1_554
Dy0 O4 2.228444 1_554
Dy0 O8 2.234491 1_555
Dy0 O9 2.234491 1_555
Dy0 O32 2.247750 1_565
Dy0 O18 2.254514 1_555
Dy1 O11 2.220439 1_555
Dy1 O10 2.220439 1_555
Dy1 O19 2.235516 1_555
Dy1 O15 2.242279 1_555
Dy1 O14 2.242279 1_555
Dy1 O0 2.277265 1_555
Dy2 O24 2.220439 1_555
Dy2 O25 2.220439 1_555
Dy2 O16 2.235516 1_555
Dy2 O21 2.242279 1_555
Dy2 O20 2.242279 1_555
Dy2 O35 2.277265 1_555
Dy3 O30 2.228444 1_556
Dy3 O31 2.228444 1_556
Dy3 O27 2.234491 1_555
Dy3 O26 2.234491 1_555
Dy3 O3 2.247750 1_545
Dy3 O17 2.254514 1_555
O0 P9 1.485522 1_565
O1 P4 1.595394 1_655
O1 P10 1.597425 1_565
O2 P3 1.595394 1_555
O2 P11 1.597425 1_565
O3 P5 1.485300 1_555
O4 P3 1.488072 1_555
O5 P4 1.488072 1_555
O6 P1 1.583649 1_655
O6 P2 1.591290 1_555
O7 P0 1.583649 1_555
O7 P2 1.591290 1_555
O8 P1 1.480191 1_555
O9 P0 1.480191 1_555
O10 P0 1.482454 1_555
O11 P1 1.482454 1_555
O12 P4 1.578860 1_655
O12 P5 1.593176 1_555
O13 P3 1.578860 1_555
O13 P5 1.593176 1_555
O14 P3 1.481349 1_555
O15 P4 1.481349 1_555
O16 P2 1.486452 1_555
O17 P5 1.482062 1_555
O18 P6 1.482062 1_555
O19 P9 1.486452 1_555
O20 P7 1.481349 1_555
O21 P8 1.481349 1_555
O22 P8 1.578860 1_555
O22 P6 1.593176 1_555
O23 P7 1.578860 1_455
O23 P6 1.593176 1_555
O24 P10 1.482454 1_555
O25 P11 1.482454 1_555
O26 P10 1.480191 1_555
O27 P11 1.480191 1_555
O28 P11 1.583649 1_555
O28 P9 1.591290 1_555
O29 P10 1.583649 1_455
O29 P9 1.591290 1_555
O30 P7 1.488072 1_555
O31 P8 1.488072 1_555
O32 P6 1.485300 1_555
O33 P8 1.595394 1_555
O33 P0 1.597425 1_545
O34 P7 1.595394 1_455
O34 P1 1.597425 1_545
O35 P2 1.485522 1_545
