# generated using pymatgen
data_K2PtS2
_symmetry_space_group_name_H-M   'P 1'
_cell_length_a   3.61866559
_cell_length_b   6.16575339
_cell_length_c   6.16575415
_cell_angle_alpha   70.28517728
_cell_angle_beta   72.93545344
_cell_angle_gamma   72.93545811
_symmetry_Int_Tables_number   1
_chemical_formula_structural   K2PtS2
_chemical_formula_sum   'K2 Pt1 S2'
_cell_volume   120.87900027
_cell_formula_units_Z   1
loop_
 _symmetry_equiv_pos_site_id
 _symmetry_equiv_pos_as_xyz
  1  'x, y, z'
loop_
 _atom_site_type_symbol
 _atom_site_label
 _atom_site_symmetry_multiplicity
 _atom_site_fract_x
 _atom_site_fract_y
 _atom_site_fract_z
 _atom_site_occupancy
  K  K0  1  0.80629727  0.69370273  0.69370273  1
  K  K1  1  0.19370273  0.30629727  0.30629727  1
  Pt  Pt0  1  0.00000000  0.00000000  -0.00000000  1
  S  S0  1  0.50000000  0.78357284  0.21642716  1
  S  S1  1  0.50000000  0.21642716  0.78357284  1
loop_
_geom_bond_atom_site_label_1
_geom_bond_atom_site_label_2
_geom_bond_distance
_geom_bond_site_symmetry_2
K0 S1 3.263297 1_555
K0 S1 3.263297 1_655
K0 S0 3.263297 1_655
K0 S0 3.263298 1_555
K0 S1 3.266665 1_565
K0 S0 3.266666 1_556
K0 Pt0 3.403639 1_566
K0 Pt0 3.403639 1_666
K1 S0 3.263297 1_555
K1 S0 3.263297 1_455
K1 S1 3.263297 1_455
K1 S1 3.263298 1_555
K1 S0 3.266665 1_545
K1 S1 3.266666 1_554
K1 Pt0 3.403639 1_655
K1 Pt0 3.403639 1_555
Pt0 S0 2.373545 1_445
Pt0 S1 2.373545 1_554
Pt0 S0 2.373545 1_545
Pt0 S1 2.373545 1_454
