# generated using pymatgen
data_NaSbO3
_symmetry_space_group_name_H-M   'P 1'
_cell_length_a   5.34812049
_cell_length_b   5.40063208
_cell_length_c   8.49555347
_cell_angle_alpha   90.00000000
_cell_angle_beta   90.00000000
_cell_angle_gamma   90.00000000
_symmetry_Int_Tables_number   1
_chemical_formula_structural   NaSbO3
_chemical_formula_sum   'Na4 Sb4 O12'
_cell_volume   245.37903408
_cell_formula_units_Z   4
loop_
 _symmetry_equiv_pos_site_id
 _symmetry_equiv_pos_as_xyz
  1  'x, y, z'
loop_
 _atom_site_type_symbol
 _atom_site_label
 _atom_site_symmetry_multiplicity
 _atom_site_fract_x
 _atom_site_fract_y
 _atom_site_fract_z
 _atom_site_occupancy
  Na  Na0  1  0.75000000  0.00000000  0.18456019  1
  Na  Na1  1  0.25000000  -0.00000000  0.81543981  1
  Na  Na2  1  0.25000000  0.50000000  0.68456019  1
  Na  Na3  1  0.75000000  0.50000000  0.31543981  1
  Sb  Sb0  1  0.25000000  -0.00000000  0.40394665  1
  Sb  Sb1  1  0.75000000  -0.00000000  0.59605335  1
  Sb  Sb2  1  0.25000000  0.50000000  0.09605335  1
  Sb  Sb3  1  0.75000000  0.50000000  0.90394665  1
  O  O0  1  0.56804297  0.18357175  0.42185944  1
  O  O1  1  0.06804297  0.18357175  0.57814056  1
  O  O2  1  0.61794039  0.25000000  0.75000000  1
  O  O3  1  0.11794039  0.25000000  0.25000000  1
  O  O4  1  0.56804297  0.31642825  0.07814056  1
  O  O5  1  0.06804297  0.31642825  0.92185944  1
  O  O6  1  0.93195703  0.68357175  0.07814056  1
  O  O7  1  0.43195703  0.68357175  0.92185944  1
  O  O8  1  0.88205961  0.75000000  0.75000000  1
  O  O9  1  0.38205961  0.75000000  0.25000000  1
  O  O10  1  0.93195703  0.81642825  0.42185944  1
  O  O11  1  0.43195703  0.81642825  0.57814056  1
loop_
_geom_bond_atom_site_label_1
_geom_bond_atom_site_label_2
_geom_bond_distance
_geom_bond_site_symmetry_2
Na0 O6 2.164427 1_545
Na0 O4 2.164427 1_555
Na0 O10 2.448279 1_545
Na0 O0 2.448279 1_555
Na0 O3 2.450347 1_655
Na0 O9 2.450347 1_545
Na1 O7 2.164427 1_545
Na1 O5 2.164427 1_555
Na1 O11 2.448279 1_545
Na1 O1 2.448279 1_555
Na1 O2 2.450347 1_555
Na1 O8 2.450347 1_445
Na2 O1 2.164427 1_555
Na2 O11 2.164427 1_555
Na2 O5 2.448279 1_555
Na2 O7 2.448279 1_555
Na2 O8 2.450347 1_455
Na2 O2 2.450347 1_555
Na3 O0 2.164427 1_555
Na3 O10 2.164427 1_555
Na3 O4 2.448279 1_555
Na3 O6 2.448279 1_555
Na3 O3 2.450347 1_655
Na3 O9 2.450347 1_555
O0 Sb0 1.974642 1_555
O0 Sb1 2.029750 1_555
O1 Sb1 1.974642 1_455
O1 Sb0 2.029750 1_555
O2 Sb3 2.008046 1_555
O2 Sb1 2.008046 1_555
O3 Sb2 2.008046 1_555
O3 Sb0 2.008046 1_555
O4 Sb2 1.974642 1_555
O4 Sb3 2.029750 1_554
O5 Sb3 1.974642 1_455
O5 Sb2 2.029750 1_556
O6 Sb2 1.974642 1_655
O6 Sb3 2.029750 1_554
O7 Sb3 1.974642 1_555
O7 Sb2 2.029750 1_556
O8 Sb3 2.008046 1_555
O8 Sb1 2.008046 1_565
O9 Sb0 2.008046 1_565
O9 Sb2 2.008046 1_555
O10 Sb0 1.974642 1_665
O10 Sb1 2.029750 1_565
O11 Sb1 1.974642 1_565
O11 Sb0 2.029750 1_565
