# generated using pymatgen
data_Li4V2Si(PO6)2
_symmetry_space_group_name_H-M   'P 1'
_cell_length_a   8.48671400
_cell_length_b   9.00667004
_cell_length_c   12.38991532
_cell_angle_alpha   89.96145823
_cell_angle_beta   85.07795528
_cell_angle_gamma   89.99437009
_symmetry_Int_Tables_number   1
_chemical_formula_structural   Li4V2Si(PO6)2
_chemical_formula_sum   'Li16 V8 Si4 P8 O48'
_cell_volume   943.55577319
_cell_formula_units_Z   4
loop_
 _symmetry_equiv_pos_site_id
 _symmetry_equiv_pos_as_xyz
  1  'x, y, z'
loop_
 _atom_site_type_symbol
 _atom_site_label
 _atom_site_symmetry_multiplicity
 _atom_site_fract_x
 _atom_site_fract_y
 _atom_site_fract_z
 _atom_site_occupancy
  Li  Li0  1  0.44394300  0.96483000  0.70019500  1
  Li  Li1  1  0.75720500  0.74047800  0.75016000  1
  Li  Li2  1  0.76192200  0.65403600  0.50868400  1
  Li  Li3  1  0.75760000  0.75993300  0.24981200  1
  Li  Li4  1  0.54392500  0.45106100  0.79298800  1
  Li  Li5  1  0.04366100  0.96503200  0.29783800  1
  Li  Li6  1  0.76036100  0.84527800  0.00713700  1
  Li  Li7  1  0.04367300  0.53560600  0.79740400  1
  Li  Li8  1  0.97950800  0.44220200  0.19647500  1
  Li  Li9  1  0.22981800  0.16600900  0.00298900  1
  Li  Li10  1  0.44648800  0.53482200  0.19960200  1
  Li  Li11  1  0.97851500  0.05827100  0.69755900  1
  Li  Li12  1  0.24161900  0.25719900  0.74901700  1
  Li  Li13  1  0.22907100  0.33415600  0.50323300  1
  Li  Li14  1  0.24160700  0.24258700  0.24892200  1
  Li  Li15  1  0.54290800  0.04891000  0.29315300  1
  V  V0  1  0.46512100  0.74799500  0.89122200  1
  V  V1  1  0.96796800  0.24944900  0.89228400  1
  V  V2  1  0.46468000  0.75205900  0.39078600  1
  V  V3  1  0.03715100  0.75166600  0.61131700  1
  V  V4  1  0.96790400  0.25041600  0.39234200  1
  V  V5  1  0.03591800  0.74766600  0.11081500  1
  V  V6  1  0.53250900  0.25341700  0.60694900  1
  V  V7  1  0.53262600  0.24660100  0.10771300  1
  Si  Si0  1  0.25201600  0.45406800  0.99901600  1
  Si  Si1  1  0.89589400  0.39778500  0.64822800  1
  Si  Si2  1  0.89677900  0.10237100  0.14801600  1
  Si  Si3  1  0.25218800  0.04598800  0.49924100  1
  P  P0  1  0.75076500  0.94993200  0.49908900  1
  P  P1  1  0.09956200  0.89661800  0.85239400  1
  P  P2  1  0.75069900  0.54980800  0.99963700  1
  P  P3  1  0.39941600  0.60308100  0.64878800  1
  P  P4  1  0.39965500  0.89706500  0.14854400  1
  P  P5  1  0.09996500  0.60314800  0.35249900  1
  P  P6  1  0.60015800  0.10071700  0.85158900  1
  P  P7  1  0.60048200  0.39938200  0.35185400  1
  O  O0  1  0.59558500  0.92874000  0.83163500  1
  O  O1  1  0.27379500  0.84752300  0.83485300  1
  O  O2  1  0.81900100  0.84570800  0.58543100  1
  O  O3  1  0.68623800  0.66008400  0.91487400  1
  O  O4  1  0.02193800  0.84953800  0.96358800  1
  O  O5  1  0.12442800  0.94613600  0.57369400  1
  O  O6  1  0.68607800  0.83981400  0.41439300  1
  O  O7  1  0.87637600  0.45708700  0.93377700  1
  O  O8  1  0.38371400  0.94600100  0.42828200  1
  O  O9  1  0.90193900  0.92084200  0.16922400  1
  O  O10  1  0.99171400  0.83029200  0.76843100  1
  O  O11  1  0.50784100  0.67097000  0.73272700  1
  O  O12  1  0.90026500  0.57969900  0.66905200  1
  O  O13  1  0.38370600  0.55442400  0.92853800  1
  O  O14  1  0.47691400  0.65004700  0.53781400  1
  O  O15  1  0.50900800  0.82990700  0.23234300  1
  O  O16  1  0.00601500  0.32321700  0.73767400  1
  O  O17  1  0.22493100  0.65057300  0.66615400  1
  O  O18  1  0.70874400  0.35632000  0.66314300  1
  O  O19  1  0.22634100  0.84825500  0.16634900  1
  O  O20  1  0.18048100  0.34459800  0.90817300  1
  O  O21  1  0.47750800  0.85024200  0.03741900  1
  O  O22  1  0.98085700  0.34283400  0.53244400  1
  O  O23  1  0.39565000  0.43185700  0.67016700  1
  O  O24  1  0.59472300  0.57111900  0.33168100  1
  O  O25  1  0.02273600  0.64754200  0.46407900  1
  O  O26  1  0.52013000  0.14850900  0.96210600  1
  O  O27  1  0.81712100  0.65422800  0.08650900  1
  O  O28  1  0.27444000  0.65252000  0.33551500  1
  O  O29  1  0.77552300  0.14418400  0.83855100  1
  O  O30  1  0.77570300  0.35660400  0.33838200  1
  O  O31  1  0.49614900  0.16868300  0.76514400  1
  O  O32  1  0.99264000  0.67108000  0.26860500  1
  O  O33  1  0.52106000  0.35138600  0.46254000  1
  O  O34  1  0.62454000  0.45406200  0.06288000  1
  O  O35  1  0.10371600  0.43210200  0.33062800  1
  O  O36  1  0.49638800  0.33078900  0.26576100  1
  O  O37  1  0.00576900  0.17752200  0.23777800  1
  O  O38  1  0.10326800  0.06788000  0.83131200  1
  O  O39  1  0.62444400  0.04506700  0.56242200  1
  O  O40  1  0.12305700  0.55363800  0.07268900  1
  O  O41  1  0.32158400  0.15934500  0.58983900  1
  O  O42  1  0.87612200  0.04352100  0.43325500  1
  O  O43  1  0.98185000  0.15728800  0.03231400  1
  O  O44  1  0.32172700  0.34179500  0.09009000  1
  O  O45  1  0.18045200  0.15517500  0.40824200  1
  O  O46  1  0.70926300  0.14298300  0.16229100  1
  O  O47  1  0.39524800  0.06863100  0.16971500  1
loop_
_geom_bond_atom_site_label_1
_geom_bond_atom_site_label_2
_geom_bond_distance
_geom_bond_site_symmetry_2
Li0 O31 2.068386 1_565
Li0 O0 2.184683 1_555
Li0 O39 2.309226 1_565
Li0 O1 2.359977 1_555
Li0 O41 2.501434 1_565
Li1 O12 2.091200 1_555
Li1 O10 2.178169 1_555
Li1 O3 2.199783 1_555
Li1 O11 2.235196 1_555
Li1 O2 2.269961 1_555
Li1 O0 2.353662 1_555
Li2 O2 2.049504 1_555
Li2 O6 2.169116 1_555
Li2 O25 2.235694 1_655
Li2 O14 2.415005 1_555
Li2 O12 2.484563 1_555
Li3 O9 2.094362 1_555
Li3 O32 2.180065 1_555
Li3 O6 2.198559 1_555
Li3 O15 2.230002 1_555
Li3 O27 2.254431 1_555
Li3 O24 2.364140 1_555
Li4 O23 2.063516 1_555
Li4 O11 2.147400 1_555
Li4 O18 2.210946 1_555
Li4 O13 2.268502 1_555
Li4 O31 2.603286 1_555
Li5 O37 2.087802 1_565
Li5 O9 2.115221 1_455
Li5 O42 2.220017 1_465
Li5 O19 2.394259 1_555
Li5 O45 2.535297 1_565
Li6 O27 2.058855 1_555
Li6 O3 2.147276 1_554
Li6 O4 2.239450 1_654
Li6 O21 2.398037 1_555
Li6 O9 2.521107 1_555
Li7 O16 2.086067 1_555
Li7 O12 2.121107 1_455
Li7 O7 2.226613 1_455
Li7 O17 2.377342 1_555
Li7 O20 2.541855 1_555
Li8 O35 2.045141 1_655
Li8 O40 2.126330 1_655
Li8 O32 2.253929 1_555
Li8 O37 2.451996 1_655
Li8 O30 2.480709 1_555
Li9 O20 2.055326 1_554
Li9 O44 2.103968 1_555
Li9 O43 2.106088 1_455
Li9 O26 2.477414 1_554
Li10 O36 2.070177 1_555
Li10 O24 2.172911 1_555
Li10 O34 2.290016 1_555
Li10 O28 2.381504 1_555
Li10 O44 2.496930 1_555
Li11 O38 2.043524 1_655
Li11 O5 2.141127 1_645
Li11 O10 2.239237 1_545
Li11 O16 2.453049 1_655
Li11 O29 2.470484 1_555
Li12 O16 2.102188 1_555
Li12 O20 2.145646 1_555
Li12 O41 2.213468 1_555
Li12 O23 2.217438 1_555
Li12 O38 2.262378 1_555
Li12 O31 2.327048 1_555
Li13 O45 2.059138 1_555
Li13 O41 2.094956 1_555
Li13 O22 2.108010 1_455
Li13 O33 2.490879 1_555
Li14 O37 2.101477 1_555
Li14 O45 2.146602 1_555
Li14 O47 2.213615 1_555
Li14 O44 2.213948 1_555
Li14 O35 2.259740 1_555
Li14 O36 2.329790 1_555
Li15 O47 2.066258 1_555
Li15 O15 2.140197 1_545
Li15 O46 2.223851 1_555
Li15 O8 2.257754 1_545
Li15 O36 2.595794 1_555
O0 P6 1.569719 1_565
O0 V0 2.068702 1_555
O1 P1 1.540800 1_555
O1 V0 2.030099 1_555
O2 P0 1.570284 1_555
O2 V3 2.085449 1_655
O3 P2 1.576634 1_555
O3 V0 2.080391 1_555
O4 P1 1.534708 1_555
O4 V5 2.053838 1_556
O5 Si3 1.631813 1_565
O5 V3 1.942595 1_555
O6 P0 1.576894 1_555
O6 V2 2.082206 1_555
O7 P2 1.533706 1_555
O7 V1 2.073239 1_555
O8 Si3 1.631675 1_565
O8 V2 1.919706 1_555
O9 Si2 1.656949 1_565
O9 V5 2.027149 1_655
O10 P1 1.562413 1_655
O10 V3 2.076666 1_655
O11 P3 1.570786 1_555
O11 V0 2.085330 1_555
O12 Si1 1.659714 1_555
O12 V3 2.028909 1_655
O13 Si0 1.631020 1_555
O13 V0 1.917042 1_555
O14 P3 1.531702 1_555
O14 V2 2.050268 1_555
O15 P4 1.571471 1_555
O15 V2 2.087667 1_555
O16 Si1 1.652043 1_455
O16 V1 2.026678 1_455
O17 P3 1.538625 1_555
O17 V3 2.003748 1_555
O18 Si1 1.626635 1_555
O18 V6 1.939214 1_555
O19 P4 1.532870 1_555
O19 V5 2.024307 1_555
O20 Si0 1.651177 1_555
O20 V1 2.021723 1_455
O21 P4 1.534495 1_555
O21 V0 2.043309 1_554
O22 Si1 1.626715 1_555
O22 V4 1.937221 1_555
O23 P3 1.564431 1_555
O23 V6 2.095398 1_555
O24 P7 1.568102 1_555
O24 V2 2.067043 1_555
O25 P5 1.531623 1_555
O25 V3 2.064709 1_555
O26 P6 1.537102 1_555
O26 V7 2.020249 1_556
O27 P2 1.570459 1_554
O27 V5 2.084103 1_655
O28 P5 1.543076 1_555
O28 V2 2.017469 1_555
O29 P6 1.533979 1_555
O29 V1 2.048720 1_555
O30 P7 1.531342 1_555
O30 V4 2.051416 1_555
O31 P6 1.569158 1_555
O31 V6 2.100854 1_555
O32 P5 1.563939 1_655
O32 V5 2.075516 1_655
O33 P7 1.537055 1_555
O33 V6 2.004248 1_555
O34 P2 1.536000 1_554
O34 V7 2.081581 1_555
O35 P5 1.564233 1_555
O35 V4 2.106740 1_455
O36 P7 1.569270 1_555
O36 V7 2.098259 1_555
O37 Si2 1.651735 1_455
O37 V4 2.024279 1_455
O38 P1 1.564155 1_545
O38 V1 2.101410 1_455
O39 P0 1.534793 1_545
O39 V6 2.088481 1_555
O40 Si0 1.632397 1_554
O40 V5 1.940326 1_555
O41 Si3 1.662632 1_555
O41 V6 2.008181 1_555
O42 P0 1.535582 1_545
O42 V4 2.065752 1_555
O43 Si2 1.625558 1_555
O43 V1 1.935482 1_554
O44 Si0 1.660945 1_554
O44 V7 2.013160 1_555
O45 Si3 1.650789 1_555
O45 V4 2.022103 1_455
O46 Si2 1.627663 1_555
O46 V7 1.936043 1_555
O47 P4 1.567423 1_545
O47 V7 2.088968 1_555
