# generated using pymatgen
data_LiFeF4
_symmetry_space_group_name_H-M   'P 1'
_cell_length_a   18.32823200
_cell_length_b   5.32939000
_cell_length_c   7.36962868
_cell_angle_alpha   88.02887917
_cell_angle_beta   90.00000000
_cell_angle_gamma   90.00000000
_symmetry_Int_Tables_number   1
_chemical_formula_structural   LiFeF4
_chemical_formula_sum   'Li8 Fe8 F32'
_cell_volume   719.42683032
_cell_formula_units_Z   8
loop_
 _symmetry_equiv_pos_site_id
 _symmetry_equiv_pos_as_xyz
  1  'x, y, z'
loop_
 _atom_site_type_symbol
 _atom_site_label
 _atom_site_symmetry_multiplicity
 _atom_site_fract_x
 _atom_site_fract_y
 _atom_site_fract_z
 _atom_site_occupancy
  Li  Li0  1  0.94611800  0.11308800  0.65053900  1
  Li  Li1  1  0.55388200  0.11308800  0.15053900  1
  Li  Li2  1  0.32085900  0.36626100  0.74714100  1
  Li  Li3  1  0.17914100  0.36626100  0.24714100  1
  Li  Li4  1  0.82085900  0.63373900  0.75285900  1
  Li  Li5  1  0.67914100  0.63373900  0.25285900  1
  Li  Li6  1  0.44611800  0.88691200  0.84946100  1
  Li  Li7  1  0.05388200  0.88691200  0.34946100  1
  Fe  Fe0  1  0.12965000  0.84358800  0.99428400  1
  Fe  Fe1  1  0.62842800  0.65019600  0.88485400  1
  Fe  Fe2  1  0.37035000  0.84358800  0.49428400  1
  Fe  Fe3  1  0.87157200  0.65019600  0.38485400  1
  Fe  Fe4  1  0.12842800  0.34980400  0.61514600  1
  Fe  Fe5  1  0.62965000  0.15641200  0.50571600  1
  Fe  Fe6  1  0.37157200  0.34980400  0.11514600  1
  Fe  Fe7  1  0.87035000  0.15641200  0.00571600  1
  F  F0  1  0.65286200  0.89129500  0.68194700  1
  F  F1  1  0.84713800  0.89129500  0.18194700  1
  F  F2  1  0.87399700  0.91933900  0.81308300  1
  F  F3  1  0.62600300  0.91933900  0.31308300  1
  F  F4  1  0.20327000  0.64898400  0.10254400  1
  F  F5  1  0.29673000  0.64898400  0.60254400  1
  F  F6  1  0.03827400  0.74400600  0.07322600  1
  F  F7  1  0.54797600  0.85473500  0.93835000  1
  F  F8  1  0.46172600  0.74400600  0.57322600  1
  F  F9  1  0.95202400  0.85473500  0.43835000  1
  F  F10  1  0.71026100  0.75314000  0.01221100  1
  F  F11  1  0.78973900  0.75314000  0.51221100  1
  F  F12  1  0.10677900  0.57882400  0.41699400  1
  F  F13  1  0.39322100  0.57882400  0.91699400  1
  F  F14  1  0.12803700  0.61271100  0.78469600  1
  F  F15  1  0.62803700  0.38728900  0.71530400  1
  F  F16  1  0.37196300  0.61271100  0.28469600  1
  F  F17  1  0.87196300  0.38728900  0.21530400  1
  F  F18  1  0.60677900  0.42117600  0.08300600  1
  F  F19  1  0.89322100  0.42117600  0.58300600  1
  F  F20  1  0.21026100  0.24686000  0.48778900  1
  F  F21  1  0.28973900  0.24686000  0.98778900  1
  F  F22  1  0.04797600  0.14526500  0.56165000  1
  F  F23  1  0.53827400  0.25599400  0.42677400  1
  F  F24  1  0.45202400  0.14526500  0.06165000  1
  F  F25  1  0.96172600  0.25599400  0.92677400  1
  F  F26  1  0.70327000  0.35101600  0.39745600  1
  F  F27  1  0.79673000  0.35101600  0.89745600  1
  F  F28  1  0.37399700  0.08066100  0.68691700  1
  F  F29  1  0.12600300  0.08066100  0.18691700  1
  F  F30  1  0.15286200  0.10870500  0.81805300  1
  F  F31  1  0.34713800  0.10870500  0.31805300  1
loop_
_geom_bond_atom_site_label_1
_geom_bond_atom_site_label_2
_geom_bond_distance
_geom_bond_site_symmetry_2
F0 Fe5 1.933352 1_565
F0 Fe1 1.988829 1_555
F1 Fe7 1.933352 1_565
F1 Fe3 1.988829 1_555
F2 Li4 1.873151 1_555
F2 Fe7 1.933787 1_566
F2 Li0 2.040423 1_565
F3 Li5 1.873151 1_555
F3 Fe5 1.933787 1_565
F3 Li1 2.040423 1_565
F4 Fe0 1.864381 1_554
F4 Li3 1.868409 1_555
F5 Fe2 1.864381 1_555
F5 Li2 1.868409 1_555
F6 Fe0 1.844911 1_554
F6 Li7 2.216485 1_555
F7 Fe1 1.883486 1_555
F7 Li6 1.983945 1_555
F7 Li1 2.121535 1_566
F8 Fe2 1.844911 1_555
F8 Li6 2.216485 1_555
F9 Fe3 1.883486 1_555
F9 Li7 1.983945 1_655
F9 Li0 2.121535 1_565
F10 Fe1 1.861961 1_554
F10 Li5 1.948812 1_555
F11 Fe3 1.861961 1_555
F11 Li4 1.948812 1_555
F12 Fe4 1.912338 1_555
F12 Li7 1.956358 1_555
F12 Li3 2.169499 1_555
F13 Fe6 1.912338 1_556
F13 Li6 1.956358 1_555
F13 Li2 2.169499 1_555
F14 Fe4 1.909179 1_555
F14 Fe0 2.007816 1_555
F15 Fe1 1.909179 1_555
F15 Fe5 2.007816 1_555
F16 Fe6 1.909179 1_555
F16 Fe2 2.007816 1_555
F17 Fe3 1.909179 1_555
F17 Fe7 2.007816 1_555
F18 Fe1 1.912338 1_554
F18 Li1 1.956358 1_555
F18 Li5 2.169499 1_555
F19 Fe3 1.912338 1_555
F19 Li0 1.956358 1_555
F19 Li4 2.169499 1_555
F20 Fe4 1.861961 1_555
F20 Li3 1.948812 1_555
F21 Fe6 1.861961 1_556
F21 Li2 1.948812 1_555
F22 Fe4 1.883486 1_555
F22 Li0 1.983945 1_455
F22 Li7 2.121535 1_545
F23 Fe5 1.844911 1_555
F23 Li1 2.216485 1_555
F24 Fe6 1.883486 1_555
F24 Li1 1.983945 1_555
F24 Li6 2.121535 1_544
F25 Fe7 1.844911 1_556
F25 Li0 2.216485 1_555
F26 Fe5 1.864381 1_555
F26 Li5 1.868409 1_555
F27 Fe7 1.864381 1_556
F27 Li4 1.868409 1_555
F28 Li2 1.873151 1_555
F28 Fe2 1.933787 1_545
F28 Li6 2.040423 1_545
F29 Li3 1.873151 1_555
F29 Fe0 1.933787 1_544
F29 Li7 2.040423 1_545
F30 Fe0 1.933352 1_545
F30 Fe4 1.988829 1_555
F31 Fe2 1.933352 1_545
F31 Fe6 1.988829 1_555
