# generated using pymatgen
data_Li2Mn2OF4
_symmetry_space_group_name_H-M   'P 1'
_cell_length_a   4.02027600
_cell_length_b   8.49156241
_cell_length_c   13.72188968
_cell_angle_alpha   98.39182614
_cell_angle_beta   90.04429791
_cell_angle_gamma   90.01779958
_symmetry_Int_Tables_number   1
_chemical_formula_structural   Li2Mn2OF4
_chemical_formula_sum   'Li8 Mn8 O4 F16'
_cell_volume   463.42796445
_cell_formula_units_Z   4
loop_
 _symmetry_equiv_pos_site_id
 _symmetry_equiv_pos_as_xyz
  1  'x, y, z'
loop_
 _atom_site_type_symbol
 _atom_site_label
 _atom_site_symmetry_multiplicity
 _atom_site_fract_x
 _atom_site_fract_y
 _atom_site_fract_z
 _atom_site_occupancy
  Li  Li0  1  0.73695500  0.21063500  0.98934800  1
  Li  Li1  1  0.24418600  0.40571200  0.94261000  1
  Li  Li2  1  0.74657200  0.58811700  0.55493100  1
  Li  Li3  1  0.76615600  0.21512100  0.50135300  1
  Li  Li4  1  0.24059800  0.79369100  0.51195000  1
  Li  Li5  1  0.25478400  0.41458300  0.43331600  1
  Li  Li6  1  0.75245500  0.58439900  0.04750200  1
  Li  Li7  1  0.25890200  0.78504500  0.01944200  1
  Mn  Mn0  1  0.74542800  0.39478400  0.76007400  1
  Mn  Mn1  1  0.73797000  0.96276900  0.66450800  1
  Mn  Mn2  1  0.23514000  0.00565600  0.84276200  1
  Mn  Mn3  1  0.24555500  0.66809700  0.71858000  1
  Mn  Mn4  1  0.75428000  0.36787200  0.26919500  1
  Mn  Mn5  1  0.76367200  0.96566600  0.15852400  1
  Mn  Mn6  1  0.26508700  0.02037400  0.33417600  1
  Mn  Mn7  1  0.25457200  0.64806100  0.23445600  1
  O  O0  1  0.23852000  0.91407500  0.69150700  1
  O  O1  1  0.74558300  0.60394500  0.70418200  1
  O  O2  1  0.26281500  0.90266300  0.18889500  1
  O  O3  1  0.25436800  0.42430400  0.28732900  1
  F  F0  1  0.23892900  0.18231000  0.96701600  1
  F  F1  1  0.74521700  0.41289600  0.93645400  1
  F  F2  1  0.24555900  0.38809500  0.79809200  1
  F  F3  1  0.25148200  0.78029400  0.87877400  1
  F  F4  1  0.75262300  0.20417300  0.64034500  1
  F  F5  1  0.73583600  0.08049500  0.83616700  1
  F  F6  1  0.24751900  0.58599700  0.54685700  1
  F  F7  1  0.26035600  0.17519400  0.46650500  1
  F  F8  1  0.74257900  0.81944700  0.52707700  1
  F  F9  1  0.75392500  0.40749500  0.44660400  1
  F  F10  1  0.24593600  0.79671000  0.37549800  1
  F  F11  1  0.74806100  0.20008400  0.12917700  1
  F  F12  1  0.75436100  0.60691500  0.19326900  1
  F  F13  1  0.76448200  0.10174400  0.32162000  1
  F  F14  1  0.25211600  0.57425700  0.05429700  1
  F  F15  1  0.75742300  0.80832500  0.02761000  1
loop_
_geom_bond_atom_site_label_1
_geom_bond_atom_site_label_2
_geom_bond_distance
_geom_bond_site_symmetry_2
Li2 O1 2.032751 1_555
Li4 O0 2.525975 1_555
Li5 O3 2.016918 1_555
Li7 O2 2.393006 1_555
Mn0 O1 2.034783 1_555
Mn1 O0 2.094121 1_555
Mn1 O0 2.098059 1_655
Mn2 O0 2.107511 1_545
Mn3 O1 2.084054 1_455
Mn3 O1 2.084892 1_555
Mn3 O0 2.174428 1_555
Mn4 O3 2.073004 1_555
Mn4 O3 2.073029 1_655
Mn5 O2 2.133346 1_655
Mn5 O2 2.140122 1_555
Mn6 O2 2.095637 1_545
Mn7 O3 2.130474 1_555
Mn7 O2 2.336785 1_555
F0 Li1 1.974020 1_555
F0 Li0 2.034160 1_555
F0 Li0 2.050396 1_455
F0 Mn2 2.100210 1_555
F1 Li6 1.948293 1_556
F1 Li0 1.960001 1_555
F1 Li1 2.009025 1_655
F1 Li1 2.017395 1_555
F1 Mn0 2.402645 1_555
F2 Li1 1.966816 1_555
F2 Mn0 2.079450 1_555
F2 Mn0 2.079722 1_455
F3 Li7 1.924965 1_556
F3 Mn2 2.046144 1_565
F3 Mn3 2.264688 1_555
F4 Li3 1.923811 1_555
F4 Mn1 2.124576 1_545
F4 Mn0 2.131603 1_555
F5 Mn2 2.111578 1_655
F5 Mn2 2.116656 1_555
F5 Li0 2.227410 1_555
F5 Mn1 2.420841 1_545
F6 Li4 1.894001 1_555
F6 Li5 1.971058 1_555
F6 Li2 2.009232 1_555
F6 Li2 2.017017 1_455
F6 Mn3 2.357770 1_555
F7 Li3 2.060492 1_455
F7 Mn6 2.080658 1_555
F7 Li3 2.104589 1_555
F7 Li5 2.147174 1_555
F8 Li4 2.021703 1_655
F8 Li4 2.037028 1_555
F8 Li2 2.055281 1_555
F8 Mn1 2.089966 1_555
F9 Li3 1.895656 1_555
F9 Li2 1.974204 1_555
F9 Li5 2.016523 1_555
F9 Li5 2.023639 1_655
F9 Mn4 2.408397 1_555
F10 Li4 1.876431 1_555
F10 Mn6 2.061291 1_565
F10 Mn7 2.151097 1_555
F11 Li0 1.934308 1_554
F11 Mn5 2.088661 1_545
F11 Mn4 2.218773 1_555
F12 Li6 1.981353 1_555
F12 Mn7 2.103161 1_555
F12 Mn7 2.103740 1_655
F12 Mn4 2.413091 1_555
F13 Mn6 2.138320 1_555
F13 Mn6 2.143041 1_655
F13 Mn5 2.364100 1_545
F13 Mn4 2.469935 1_555
F13 Li3 2.513239 1_555
F14 Li7 1.919158 1_555
F14 Li1 1.938501 1_554
F14 Li6 2.013318 1_455
F14 Li6 2.016128 1_555
F14 Mn7 2.460080 1_555
F15 Li6 1.960106 1_555
F15 Li7 2.015283 1_555
F15 Li7 2.027404 1_655
F15 Mn5 2.076556 1_555
