# generated using pymatgen
data_Li2AlFeO4
_symmetry_space_group_name_H-M   'P 1'
_cell_length_a   5.10058600
_cell_length_b   6.45432200
_cell_length_c   10.95788400
_cell_angle_alpha   90.00000000
_cell_angle_beta   90.00000000
_cell_angle_gamma   90.00000000
_symmetry_Int_Tables_number   1
_chemical_formula_structural   Li2AlFeO4
_chemical_formula_sum   'Li8 Al4 Fe4 O16'
_cell_volume   360.74257532
_cell_formula_units_Z   4
loop_
 _symmetry_equiv_pos_site_id
 _symmetry_equiv_pos_as_xyz
  1  'x, y, z'
loop_
 _atom_site_type_symbol
 _atom_site_label
 _atom_site_symmetry_multiplicity
 _atom_site_fract_x
 _atom_site_fract_y
 _atom_site_fract_z
 _atom_site_occupancy
  Li  Li0  1  0.72179300  0.87012000  0.08748700  1
  Li  Li1  1  0.19255400  0.11762600  0.16725200  1
  Li  Li2  1  0.69255400  0.61762600  0.33274800  1
  Li  Li3  1  0.22179300  0.37012000  0.41251300  1
  Li  Li4  1  0.77820700  0.87012000  0.58748700  1
  Li  Li5  1  0.30744600  0.11762600  0.66725200  1
  Li  Li6  1  0.80744600  0.61762600  0.83274800  1
  Li  Li7  1  0.27820700  0.37012000  0.91251300  1
  Al  Al0  1  0.18468300  0.61771200  0.16617100  1
  Al  Al1  1  0.68468300  0.11771200  0.33382900  1
  Al  Al2  1  0.31531700  0.61771200  0.66617100  1
  Al  Al3  1  0.81531700  0.11771200  0.83382900  1
  Fe  Fe0  1  0.68689100  0.36539400  0.08623800  1
  Fe  Fe1  1  0.18689100  0.86539400  0.41376200  1
  Fe  Fe2  1  0.81310900  0.36539400  0.58623800  1
  Fe  Fe3  1  0.31310900  0.86539400  0.91376200  1
  O  O0  1  0.27484900  0.84691900  0.08494100  1
  O  O1  1  0.31204800  0.39017300  0.09497500  1
  O  O2  1  0.83424300  0.60487400  0.16036500  1
  O  O3  1  0.79327500  0.12927900  0.17891900  1
  O  O4  1  0.29327500  0.62927900  0.32108100  1
  O  O5  1  0.33424300  0.10487400  0.33963500  1
  O  O6  1  0.81204800  0.89017300  0.40502500  1
  O  O7  1  0.77484900  0.34691900  0.41505900  1
  O  O8  1  0.22515100  0.84691900  0.58494100  1
  O  O9  1  0.18795200  0.39017300  0.59497500  1
  O  O10  1  0.66575700  0.60487400  0.66036500  1
  O  O11  1  0.70672500  0.12927900  0.67891900  1
  O  O12  1  0.20672500  0.62927900  0.82108100  1
  O  O13  1  0.16575700  0.10487400  0.83963500  1
  O  O14  1  0.68795200  0.89017300  0.90502500  1
  O  O15  1  0.72515100  0.34691900  0.91505900  1
loop_
_geom_bond_atom_site_label_1
_geom_bond_atom_site_label_2
_geom_bond_distance
_geom_bond_site_symmetry_2
Li0 O2 1.974235 1_555
Li0 O3 1.983595 1_565
Li0 O14 2.011004 1_554
Li0 O0 2.284760 1_555
Li1 O0 2.010604 1_545
Li1 O1 2.023166 1_555
Li1 O5 2.024156 1_555
Li1 O3 2.041951 1_455
Li2 O7 2.010604 1_555
Li2 O6 2.023166 1_555
Li2 O2 2.024156 1_555
Li2 O4 2.041951 1_555
Li3 O5 1.974235 1_555
Li3 O4 1.983595 1_555
Li3 O9 2.011004 1_555
Li3 O7 2.284760 1_455
Li4 O10 1.974235 1_555
Li4 O11 1.983595 1_565
Li4 O6 2.011004 1_555
Li4 O8 2.284760 1_655
Li5 O8 2.010604 1_545
Li5 O9 2.023166 1_555
Li5 O13 2.024156 1_555
Li5 O11 2.041951 1_555
Li6 O15 2.010604 1_555
Li6 O14 2.023166 1_555
Li6 O10 2.024156 1_555
Li6 O12 2.041951 1_655
Li7 O13 1.974235 1_555
Li7 O12 1.983595 1_555
Li7 O1 2.011004 1_556
Li7 O15 2.284760 1_555
Al0 O1 1.785354 1_555
Al0 O0 1.786716 1_555
Al0 O4 1.787126 1_555
Al0 O2 1.790500 1_455
Al1 O6 1.785354 1_545
Al1 O7 1.786716 1_555
Al1 O3 1.787126 1_555
Al1 O5 1.790500 1_555
Al2 O9 1.785354 1_555
Al2 O8 1.786716 1_555
Al2 O12 1.787126 1_555
Al2 O10 1.790500 1_555
Al3 O14 1.785354 1_545
Al3 O15 1.786716 1_555
Al3 O11 1.787126 1_555
Al3 O13 1.790500 1_655
Fe0 O15 1.889650 1_554
Fe0 O2 1.900999 1_555
Fe0 O3 1.910057 1_555
Fe0 O1 1.920984 1_555
Fe1 O8 1.889650 1_555
Fe1 O5 1.900999 1_565
Fe1 O4 1.910057 1_555
Fe1 O6 1.920984 1_455
Fe2 O7 1.889650 1_555
Fe2 O10 1.900999 1_555
Fe2 O11 1.910057 1_555
Fe2 O9 1.920984 1_655
Fe3 O0 1.889650 1_556
Fe3 O13 1.900999 1_565
Fe3 O12 1.910057 1_555
Fe3 O14 1.920984 1_555
