# generated using pymatgen
data_UH12(NO7)2
_symmetry_space_group_name_H-M   'P 1'
_cell_length_a   7.72672833
_cell_length_b   7.72672833
_cell_length_c   11.25616200
_cell_angle_alpha   90.00000000
_cell_angle_beta   90.00000000
_cell_angle_gamma   116.08840066
_symmetry_Int_Tables_number   1
_chemical_formula_structural   UH12(NO7)2
_chemical_formula_sum   'U2 H24 N4 O28'
_cell_volume   603.55152941
_cell_formula_units_Z   2
loop_
 _symmetry_equiv_pos_site_id
 _symmetry_equiv_pos_as_xyz
  1  'x, y, z'
loop_
 _atom_site_type_symbol
 _atom_site_label
 _atom_site_symmetry_multiplicity
 _atom_site_fract_x
 _atom_site_fract_y
 _atom_site_fract_z
 _atom_site_occupancy
  U  U0  1  0.12962300  0.12962300  0.24800400  1
  U  U1  1  0.87037700  0.87037700  0.74800400  1
  H  H0  1  0.60400000  0.05407200  0.67268600  1
  H  H1  1  0.94592800  0.39600000  0.17268600  1
  H  H2  1  0.85177100  0.31030300  0.30332300  1
  H  H3  1  0.68969700  0.14822900  0.80332300  1
  H  H4  1  0.65222400  0.18179700  0.98995400  1
  H  H5  1  0.81820300  0.34777600  0.48995400  1
  H  H6  1  0.53559900  0.13117500  0.49925800  1
  H  H7  1  0.86882500  0.46440100  0.99925800  1
  H  H8  1  0.69261800  0.42918000  0.42255400  1
  H  H9  1  0.57082000  0.30738200  0.92255400  1
  H  H10  1  0.89750800  0.62382900  0.09204000  1
  H  H11  1  0.37617100  0.10249200  0.59204000  1
  H  H12  1  0.10249200  0.37617100  0.59204000  1
  H  H13  1  0.62382900  0.89750800  0.09204000  1
  H  H14  1  0.42918000  0.69261800  0.42255400  1
  H  H15  1  0.30738200  0.57082000  0.92255400  1
  H  H16  1  0.13117500  0.53559900  0.49925800  1
  H  H17  1  0.46440100  0.86882500  0.99925800  1
  H  H18  1  0.18179700  0.65222400  0.98995400  1
  H  H19  1  0.34777600  0.81820300  0.48995400  1
  H  H20  1  0.14822900  0.68969700  0.80332300  1
  H  H21  1  0.31030300  0.85177100  0.30332300  1
  H  H22  1  0.39600000  0.94592800  0.17268600  1
  H  H23  1  0.05407200  0.60400000  0.67268600  1
  N  N0  1  0.52511100  0.52511100  0.66009300  1
  N  N1  1  0.47488900  0.47488900  0.16009300  1
  N  N2  1  0.79281900  0.79281900  0.35881600  1
  N  N3  1  0.20718100  0.20718100  0.85881600  1
  O  O0  1  0.93894200  0.30527700  0.23899900  1
  O  O1  1  0.69472300  0.06105800  0.73899900  1
  O  O2  1  0.68577600  0.28294900  0.92726800  1
  O  O3  1  0.71705100  0.31422400  0.42726800  1
  O  O4  1  0.95990000  0.54585900  0.06268300  1
  O  O5  1  0.45414100  0.04010000  0.56268300  1
  O  O6  1  0.47683200  0.31135200  0.17624800  1
  O  O7  1  0.68864800  0.52316800  0.67624800  1
  O  O8  1  0.94941900  0.78386300  0.33377900  1
  O  O9  1  0.21613700  0.05058100  0.83377900  1
  O  O10  1  0.65323100  0.65323100  0.40442200  1
  O  O11  1  0.78548400  0.78548400  0.89501000  1
  O  O12  1  0.62066600  0.62066600  0.13134000  1
  O  O13  1  0.04643000  0.04643000  0.09949300  1
  O  O14  1  0.21451600  0.21451600  0.39501000  1
  O  O15  1  0.37933400  0.37933400  0.63134000  1
  O  O16  1  0.34676900  0.34676900  0.90442200  1
  O  O17  1  0.95357000  0.95357000  0.59949300  1
  O  O18  1  0.78386300  0.94941900  0.33377900  1
  O  O19  1  0.05058100  0.21613700  0.83377900  1
  O  O20  1  0.52316800  0.68864800  0.67624800  1
  O  O21  1  0.31135200  0.47683200  0.17624800  1
  O  O22  1  0.54585900  0.95990000  0.06268300  1
  O  O23  1  0.04010000  0.45414100  0.56268300  1
  O  O24  1  0.28294900  0.68577600  0.92726800  1
  O  O25  1  0.31422400  0.71705100  0.42726800  1
  O  O26  1  0.30527700  0.93894200  0.23899900  1
  O  O27  1  0.06105800  0.69472300  0.73899900  1
loop_
_geom_bond_atom_site_label_1
_geom_bond_atom_site_label_2
_geom_bond_distance
_geom_bond_site_symmetry_2
H0 O1 1.009050 1_555
H1 O0 1.009050 1_555
H2 O0 1.001206 1_555
H3 O1 1.001206 1_555
H4 O2 0.998867 1_555
H5 O3 0.998867 1_555
H6 O5 1.005729 1_555
H7 O4 1.005729 1_556
H8 O3 0.987370 1_555
H9 O2 0.987370 1_555
H10 O4 0.979792 1_555
H11 O5 0.979792 1_555
H12 O23 0.979792 1_555
H13 O22 0.979792 1_555
H14 O25 0.987370 1_555
H15 O24 0.987370 1_555
H16 O23 1.005729 1_555
H17 O22 1.005729 1_556
H18 O24 0.998867 1_555
H19 O25 0.998867 1_555
H20 O27 1.001206 1_555
H21 O26 1.001206 1_555
H22 O26 1.009050 1_555
H23 O27 1.009050 1_555
N0 O15 1.235452 1_555
N0 O7 1.283229 1_555
N0 O20 1.283229 1_555
N1 O12 1.235452 1_555
N1 O21 1.283229 1_555
N1 O6 1.283229 1_555
N2 O10 1.251788 1_555
N2 O8 1.273566 1_555
N2 O18 1.273566 1_555
N3 O16 1.251788 1_555
N3 O9 1.273566 1_555
N3 O19 1.273566 1_555
O11 U1 1.794495 1_555
O13 U0 1.804841 1_555
O14 U0 1.794495 1_555
O17 U1 1.804841 1_555
