# generated using pymatgen
data_Na2Ca17V2(PO4)14
_symmetry_space_group_name_H-M   'P 1'
_cell_length_a   10.44062600
_cell_length_b   13.86182171
_cell_length_c   18.08228590
_cell_angle_alpha   102.57720951
_cell_angle_beta   90.01648947
_cell_angle_gamma   112.05207944
_symmetry_Int_Tables_number   1
_chemical_formula_structural   Na2Ca17V2(PO4)14
_chemical_formula_sum   'Na4 Ca34 V4 P28 O112'
_cell_volume   2357.56734094
_cell_formula_units_Z   2
loop_
 _symmetry_equiv_pos_site_id
 _symmetry_equiv_pos_as_xyz
  1  'x, y, z'
loop_
 _atom_site_type_symbol
 _atom_site_label
 _atom_site_symmetry_multiplicity
 _atom_site_fract_x
 _atom_site_fract_y
 _atom_site_fract_z
 _atom_site_occupancy
  Na  Na0  1  0.85002800  0.71982800  0.08889400  1
  Na  Na1  1  0.81441800  0.62952800  0.26918900  1
  Na  Na2  1  0.40119800  0.21971400  0.14035800  1
  Na  Na3  1  0.06761600  0.12938300  0.02284300  1
  Ca  Ca0  1  0.27921400  0.00030700  0.89892200  1
  Ca  Ca1  1  0.51562400  0.00212100  0.68859000  1
  Ca  Ca2  1  0.70483700  0.99946800  0.91324100  1
  Ca  Ca3  1  0.34973900  0.72003100  0.59097300  1
  Ca  Ca4  1  0.07093000  0.71845700  0.89126600  1
  Ca  Ca5  1  0.97615400  0.50163000  0.64927200  1
  Ca  Ca6  1  0.65837300  0.71891200  0.88076800  1
  Ca  Ca7  1  0.19319000  0.39839900  0.53836300  1
  Ca  Ca8  1  0.91054700  0.39979200  0.83396800  1
  Ca  Ca9  1  0.23747300  0.50376300  0.93891700  1
  Ca  Ca10  1  0.54027000  0.50158600  0.66394400  1
  Ca  Ca11  1  0.89901300  0.22013000  0.63972000  1
  Ca  Ca12  1  0.49488900  0.39964000  0.82813100  1
  Ca  Ca13  1  0.31102900  0.22022800  0.62948200  1
  Ca  Ca14  1  0.77546200  0.00225400  0.39834000  1
  Ca  Ca15  1  0.12151500  0.22212000  0.83745900  1
  Ca  Ca16  1  0.01514200  0.99735900  0.18913900  1
  Ca  Ca17  1  0.21331100  0.00299800  0.41289500  1
  Ca  Ca18  1  0.73787700  0.89904100  0.58388500  1
  Ca  Ca19  1  0.56600200  0.72188600  0.39089000  1
  Ca  Ca20  1  0.15523100  0.89936800  0.57782600  1
  Ca  Ca21  1  0.95572000  0.89836000  0.78853100  1
  Ca  Ca22  1  0.47220900  0.49795600  0.14620300  1
  Ca  Ca23  1  0.16570400  0.72164000  0.38114400  1
  Ca  Ca24  1  0.69250600  0.39994800  0.03899600  1
  Ca  Ca25  1  0.40881900  0.39626200  0.33173900  1
  Ca  Ca26  1  0.73378200  0.49866000  0.44020200  1
  Ca  Ca27  1  0.04261600  0.50095300  0.16147100  1
  Ca  Ca28  1  0.99507900  0.39773900  0.32685000  1
  Ca  Ca29  1  0.80443400  0.22000000  0.13106700  1
  Ca  Ca30  1  0.61801400  0.21844800  0.33982800  1
  Ca  Ca31  1  0.23821700  0.89918500  0.08376500  1
  Ca  Ca32  1  0.65369900  0.89662700  0.07756900  1
  Ca  Ca33  1  0.45531600  0.89901500  0.28767200  1
  V  V0  1  0.59600900  0.19292700  0.86572900  1
  V  V1  1  0.09699800  0.19316900  0.36517700  1
  V  V2  1  0.84672200  0.69352900  0.61637900  1
  V  V3  1  0.34680000  0.69270600  0.11487200  1
  P  P0  1  0.94612600  0.89180300  0.98174200  1
  P  P1  1  0.37015400  0.28901600  0.96143400  1
  P  P2  1  0.66116500  0.28780200  0.70486400  1
  P  P3  1  0.90077400  0.28826800  0.97839600  1
  P  P4  1  0.44686400  0.89377700  0.48249200  1
  P  P5  1  0.16748000  0.78793400  0.71100300  1
  P  P6  1  0.37671400  0.78786400  0.95483000  1
  P  P7  1  0.63770700  0.78791400  0.72837500  1
  P  P8  1  0.87059500  0.28782800  0.46090900  1
  P  P9  1  0.16148900  0.28812200  0.20421300  1
  P  P10  1  0.19675900  0.39352400  0.73220200  1
  P  P11  1  0.39981800  0.28810600  0.47825700  1
  P  P12  1  0.03227300  0.10285600  0.52227800  1
  P  P13  1  0.81946300  0.10316600  0.77444400  1
  P  P14  1  0.66859400  0.78793300  0.21131100  1
  P  P15  1  0.30306100  0.10284500  0.75490400  1
  P  P16  1  0.87698300  0.78854900  0.45467100  1
  P  P17  1  0.13751600  0.78905300  0.22870100  1
  P  P18  1  0.53408500  0.60308800  0.52388800  1
  P  P19  1  0.04968300  0.60332400  0.50463300  1
  P  P20  1  0.82082000  0.60316300  0.77228200  1
  P  P21  1  0.69626100  0.39205100  0.23206000  1
  P  P22  1  0.53167200  0.10434000  0.02342700  1
  P  P23  1  0.31949300  0.10352900  0.27354700  1
  P  P24  1  0.80415100  0.10319800  0.25472500  1
  P  P25  1  0.03268100  0.60436100  0.02471600  1
  P  P26  1  0.55134400  0.60360800  0.00500600  1
  P  P27  1  0.32114200  0.60284000  0.27246700  1
  O  O0  1  0.88479500  0.76901900  0.95903000  1
  O  O1  1  0.51229800  0.29486000  0.92469200  1
  O  O2  1  0.65169100  0.29661800  0.79508800  1
  O  O3  1  0.25805300  0.17373400  0.93992700  1
  O  O4  1  0.78011900  0.29576200  0.92882400  1
  O  O5  1  0.63487700  0.17290800  0.66273700  1
  O  O6  1  0.41784500  0.08335400  0.79932800  1
  O  O7  1  0.53305600  0.08513600  0.93266600  1
  O  O8  1  0.67528100  0.08392900  0.80948900  1
  O  O9  1  0.04212300  0.93589700  0.91996400  1
  O  O10  1  0.86895200  0.17313500  0.98681500  1
  O  O11  1  0.53233900  0.93163400  0.56109100  1
  O  O12  1  0.28899500  0.85879600  0.67187600  1
  O  O13  1  0.17464700  0.83295700  0.79732800  1
  O  O14  1  0.38457300  0.76904500  0.46169500  1
  O  O15  1  0.29264400  0.85837800  0.94824900  1
  O  O16  1  0.54949000  0.83288400  0.68856400  1
  O  O17  1  0.15994700  0.67303700  0.68755100  1
  O  O18  1  0.70646600  0.85900100  0.80844300  1
  O  O19  1  0.52497000  0.83295500  0.93005600  1
  O  O20  1  0.82706400  0.93520400  0.98624600  1
  O  O21  1  0.93544400  0.56462800  0.79156800  1
  O  O22  1  0.12928900  0.54171200  0.53165400  1
  O  O23  1  0.28885700  0.67296800  0.91237500  1
  O  O24  1  0.56135500  0.67295900  0.73579200  1
  O  O25  1  0.40955700  0.56501300  0.57163700  1
  O  O26  1  0.00425500  0.54151300  0.94051000  1
  O  O27  1  0.81581000  0.35863800  0.69893300  1
  O  O28  1  0.90818400  0.33285500  0.54727500  1
  O  O29  1  0.14051200  0.43162000  0.66902700  1
  O  O30  1  0.01499100  0.29651000  0.42501000  1
  O  O31  1  0.15106400  0.29542000  0.29382700  1
  O  O32  1  0.50189600  0.56415500  0.91877100  1
  O  O33  1  0.14899700  0.43133500  0.81105000  1
  O  O34  1  0.35757600  0.43148500  0.73564100  1
  O  O35  1  0.67882800  0.54156300  0.79847000  1
  O  O36  1  0.76302300  0.17302500  0.43788400  1
  O  O37  1  0.27924500  0.29718500  0.42861800  1
  O  O38  1  0.12780400  0.17256500  0.15948100  1
  O  O39  1  0.40245800  0.35900300  0.55863500  1
  O  O40  1  0.03483000  0.33193700  0.93905500  1
  O  O41  1  0.10547100  0.22300600  0.55933000  1
  O  O42  1  0.89781300  0.22331800  0.77923200  1
  O  O43  1  0.13450800  0.26893200  0.71139600  1
  O  O44  1  0.91865700  0.08408200  0.29975900  1
  O  O45  1  0.31850500  0.35796700  0.92055800  1
  O  O46  1  0.55768800  0.33260100  0.68031600  1
  O  O47  1  0.03178700  0.08371800  0.43301800  1
  O  O48  1  0.17550300  0.08551700  0.31015900  1
  O  O49  1  0.87942600  0.06464100  0.54187500  1
  O  O50  1  0.54102800  0.93133600  0.41910300  1
  O  O51  1  0.36188100  0.17316600  0.48626100  1
  O  O52  1  0.33158100  0.22314200  0.77315100  1
  O  O53  1  0.03530800  0.93709800  0.05973600  1
  O  O54  1  0.78793100  0.04168400  0.69041700  1
  O  O55  1  0.78730100  0.86017700  0.17315400  1
  O  O56  1  0.90604600  0.06538300  0.82240700  1
  O  O57  1  0.11260600  0.04127800  0.54868600  1
  O  O58  1  0.67491100  0.83234200  0.29807500  1
  O  O59  1  0.79200600  0.85842800  0.44875400  1
  O  O60  1  0.31224000  0.06474300  0.66877300  1
  O  O61  1  0.16195100  0.04190300  0.78210200  1
  O  O62  1  0.05029100  0.83427300  0.19057000  1
  O  O63  1  0.66078800  0.67233900  0.19272900  1
  O  O64  1  0.20740100  0.85781300  0.30942700  1
  O  O65  1  0.02465000  0.83204000  0.42904500  1
  O  O66  1  0.32364100  0.93137200  0.48571200  1
  O  O67  1  0.57587300  0.72326400  0.52904500  1
  O  O68  1  0.89447200  0.79575200  0.54350700  1
  O  O69  1  0.76820100  0.79694000  0.67817800  1
  O  O70  1  0.43633000  0.56567600  0.29238500  1
  O  O71  1  0.62464500  0.53865800  0.03178500  1
  O  O72  1  0.79019900  0.67335700  0.40886800  1
  O  O73  1  0.03212000  0.79705300  0.67495600  1
  O  O74  1  0.05590500  0.67373800  0.23810400  1
  O  O75  1  0.91114000  0.56296200  0.07270900  1
  O  O76  1  0.50494500  0.54182500  0.43980600  1
  O  O77  1  0.14158600  0.72328400  0.52303800  1
  O  O78  1  0.86759100  0.72331800  0.80870600  1
  O  O79  1  0.65897200  0.58411600  0.55951900  1
  O  O80  1  0.31448200  0.36046800  0.19973500  1
  O  O81  1  0.40663900  0.33433100  0.04683900  1
  O  O82  1  0.64636300  0.43719300  0.17104300  1
  O  O83  1  0.91510900  0.58425600  0.54958400  1
  O  O84  1  0.80173400  0.58356100  0.68291700  1
  O  O85  1  0.00185500  0.56544500  0.41848900  1
  O  O86  1  0.65174900  0.43524800  0.31094400  1
  O  O87  1  0.85886600  0.43574800  0.23683500  1
  O  O88  1  0.17922400  0.54203700  0.29890500  1
  O  O89  1  0.90280400  0.35780600  0.05887300  1
  O  O90  1  0.53388800  0.33308200  0.43909300  1
  O  O91  1  0.61010200  0.22397300  0.05824400  1
  O  O92  1  0.39929000  0.22370800  0.28135000  1
  O  O93  1  0.63805800  0.26921300  0.21265500  1
  O  O94  1  0.82001300  0.35896700  0.42193900  1
  O  O95  1  0.05659000  0.33285400  0.17970900  1
  O  O96  1  0.37846700  0.06338300  0.03973000  1
  O  O97  1  0.83178500  0.22327200  0.27343600  1
  O  O98  1  0.28408200  0.03870800  0.19120000  1
  O  O99  1  0.40482300  0.06410200  0.32195700  1
  O  O100  1  0.61327500  0.04192900  0.04838900  1
  O  O101  1  0.81281200  0.06548800  0.16853700  1
  O  O102  1  0.66273900  0.04163200  0.28198000  1
  O  O103  1  0.07899100  0.72368300  0.02784500  1
  O  O104  1  0.39537000  0.79721400  0.04447100  1
  O  O105  1  0.26655900  0.79460400  0.17896600  1
  O  O106  1  0.53097100  0.79456700  0.17495500  1
  O  O107  1  0.63940000  0.72355800  0.02163800  1
  O  O108  1  0.36741100  0.72311900  0.30943100  1
  O  O109  1  0.16004900  0.58511400  0.05990600  1
  O  O110  1  0.41537600  0.58485500  0.04995700  1
  O  O111  1  0.30156400  0.58364700  0.18302100  1
loop_
_geom_bond_atom_site_label_1
_geom_bond_atom_site_label_2
_geom_bond_distance
_geom_bond_site_symmetry_2
Na0 O75 2.446577 1_555
Na0 O55 2.490306 1_555
Na0 O107 2.535525 1_555
Na0 O62 2.550586 1_655
Na0 O0 2.573502 1_554
Na0 O103 2.620558 1_655
Na0 O71 2.709651 1_555
Na0 O63 2.725091 1_555
Na1 O63 2.430488 1_555
Na1 O74 2.457426 1_655
Na1 O72 2.501945 1_555
Na1 O82 2.785901 1_555
Na1 O87 2.832804 1_555
Na1 O86 2.856390 1_555
Na2 O96 2.441219 1_555
Na2 O80 2.488766 1_555
Na2 O92 2.538224 1_555
Na2 O81 2.547449 1_555
Na2 O93 2.574633 1_555
Na2 O91 2.628429 1_555
Na2 O98 2.708737 1_555
Na2 O38 2.718915 1_555
Na3 O38 2.435210 1_555
Na3 O3 2.462607 1_554
Na3 O10 2.492053 1_454
Na3 O53 2.786159 1_545
Na3 O9 2.831207 1_544
Na3 O20 2.852688 1_444
Ca0 O9 2.357615 1_545
Ca0 O15 2.378482 1_545
Ca0 O3 2.449590 1_555
Ca0 O7 2.474960 1_555
Ca0 O13 2.487810 1_545
Ca0 O6 2.513282 1_555
Ca0 O96 2.582576 1_556
Ca0 O61 2.711554 1_555
Ca1 O11 2.334004 1_545
Ca1 O5 2.375371 1_555
Ca1 O12 2.417710 1_545
Ca1 O6 2.490406 1_555
Ca1 O16 2.500160 1_545
Ca1 O8 2.518446 1_555
Ca1 O60 2.628714 1_555
Ca1 O54 2.684416 1_555
Ca2 O20 2.351489 1_555
Ca2 O18 2.408428 1_555
Ca2 O19 2.449053 1_555
Ca2 O10 2.451058 1_565
Ca2 O7 2.483584 1_565
Ca2 O8 2.492619 1_565
Ca2 O100 2.651379 1_566
Ca2 O56 2.675820 1_565
Ca3 O25 2.410481 1_555
Ca3 O12 2.435852 1_555
Ca3 O16 2.501298 1_555
Ca3 O77 2.515994 1_555
Ca3 O14 2.562244 1_555
Ca3 O67 2.602713 1_555
Ca3 O17 2.632257 1_555
Ca3 O22 2.670173 1_555
Ca3 O11 3.003667 1_555
Ca4 O21 2.420181 1_455
Ca4 O15 2.436995 1_555
Ca4 O103 2.455390 1_556
Ca4 O0 2.533665 1_455
Ca4 O13 2.541978 1_555
Ca4 O78 2.624821 1_455
Ca4 O23 2.627148 1_555
Ca4 O26 2.638743 1_555
Ca5 O29 2.327053 1_655
Ca5 O17 2.380366 1_655
Ca5 O27 2.412914 1_555
Ca5 O84 2.495783 1_555
Ca5 O28 2.500396 1_555
Ca5 O83 2.532584 1_555
Ca5 O21 2.620028 1_555
Ca5 O22 2.690312 1_655
Ca6 O32 2.398790 1_555
Ca6 O18 2.471362 1_555
Ca6 O19 2.504747 1_555
Ca6 O78 2.531647 1_555
Ca6 O0 2.531913 1_555
Ca6 O107 2.543679 1_556
Ca6 O24 2.662848 1_555
Ca6 O35 2.665509 1_555
Ca7 O22 2.346585 1_555
Ca7 O41 2.371331 1_555
Ca7 O29 2.411225 1_555
Ca7 O39 2.487771 1_555
Ca7 O25 2.505112 1_555
Ca7 O30 2.534041 1_555
Ca7 O37 2.539434 1_555
Ca7 O28 2.782057 1_455
Ca8 O26 2.331397 1_655
Ca8 O42 2.383839 1_555
Ca8 O33 2.413086 1_655
Ca8 O21 2.488641 1_555
Ca8 O27 2.496828 1_555
Ca8 O4 2.545548 1_555
Ca8 O2 2.549989 1_555
Ca8 O40 2.805839 1_655
Ca9 O33 2.344915 1_555
Ca9 O23 2.359028 1_555
Ca9 O45 2.429458 1_555
Ca9 O110 2.488407 1_556
Ca9 O109 2.514446 1_556
Ca9 O40 2.523482 1_555
Ca9 O32 2.617856 1_555
Ca9 O26 2.674667 1_555
Ca10 O34 2.328439 1_555
Ca10 O24 2.375411 1_555
Ca10 O39 2.413846 1_555
Ca10 O46 2.495914 1_555
Ca10 O79 2.507520 1_555
Ca10 O84 2.522182 1_555
Ca10 O25 2.638230 1_555
Ca10 O35 2.669460 1_555
Ca11 O49 2.413655 1_555
Ca11 O27 2.438232 1_555
Ca11 O28 2.504080 1_555
Ca11 O42 2.513561 1_555
Ca11 O43 2.559310 1_655
Ca11 O41 2.592982 1_655
Ca11 O5 2.640202 1_555
Ca11 O54 2.671715 1_555
Ca11 O29 3.000817 1_655
Ca12 O35 2.338633 1_555
Ca12 O52 2.385086 1_555
Ca12 O34 2.417134 1_555
Ca12 O32 2.477711 1_555
Ca12 O45 2.478241 1_555
Ca12 O2 2.541853 1_555
Ca12 O1 2.548295 1_555
Ca12 O46 2.795406 1_555
Ca13 O60 2.416116 1_555
Ca13 O39 2.438849 1_555
Ca13 O46 2.503240 1_555
Ca13 O41 2.509649 1_555
Ca13 O43 2.558654 1_555
Ca13 O52 2.596929 1_555
Ca13 O51 2.634279 1_555
Ca13 O57 2.672194 1_555
Ca13 O34 2.996542 1_555
Ca14 O50 2.335116 1_545
Ca14 O36 2.371817 1_555
Ca14 O59 2.426039 1_545
Ca14 O58 2.493803 1_545
Ca14 O47 2.500356 1_655
Ca14 O44 2.511583 1_555
Ca14 O49 2.641664 1_555
Ca14 O102 2.662937 1_555
Ca15 O45 2.427267 1_555
Ca15 O56 2.434611 1_455
Ca15 O52 2.479499 1_555
Ca15 O43 2.492769 1_555
Ca15 O40 2.515721 1_555
Ca15 O42 2.568876 1_455
Ca15 O61 2.669088 1_555
Ca15 O3 2.678204 1_555
Ca15 O33 2.949463 1_555
Ca16 O53 2.344856 1_555
Ca16 O55 2.392035 1_455
Ca16 O62 2.427837 1_555
Ca16 O38 2.447880 1_565
Ca16 O44 2.514803 1_465
Ca16 O48 2.526298 1_565
Ca16 O98 2.645063 1_565
Ca16 O101 2.672808 1_465
Ca17 O66 2.339585 1_545
Ca17 O51 2.370368 1_555
Ca17 O64 2.412745 1_545
Ca17 O48 2.485834 1_555
Ca17 O65 2.525408 1_545
Ca17 O47 2.528185 1_555
Ca17 O99 2.599257 1_555
Ca17 O57 2.696127 1_555
Ca18 O54 2.336290 1_565
Ca18 O67 2.373455 1_555
Ca18 O11 2.405763 1_555
Ca18 O49 2.498640 1_565
Ca18 O59 2.499502 1_555
Ca18 O69 2.529342 1_555
Ca18 O68 2.561113 1_555
Ca18 O16 2.774189 1_555
Ca19 O70 2.410791 1_555
Ca19 O59 2.455096 1_555
Ca19 O14 2.494269 1_555
Ca19 O67 2.495871 1_555
Ca19 O58 2.503378 1_555
Ca19 O108 2.550447 1_555
Ca19 O76 2.680608 1_555
Ca19 O72 2.704540 1_555
Ca19 O50 2.946389 1_555
Ca20 O57 2.335368 1_565
Ca20 O77 2.375959 1_555
Ca20 O66 2.408432 1_555
Ca20 O12 2.482713 1_555
Ca20 O60 2.486286 1_565
Ca20 O73 2.542754 1_555
Ca20 O68 2.556287 1_455
Ca20 O65 2.813613 1_555
Ca21 O61 2.343643 1_665
Ca21 O78 2.361437 1_555
Ca21 O9 2.416721 1_655
Ca21 O18 2.493907 1_555
Ca21 O56 2.507733 1_565
Ca21 O73 2.532202 1_655
Ca21 O69 2.549603 1_555
Ca21 O13 2.773170 1_655
Ca22 O82 2.351941 1_555
Ca22 O80 2.393474 1_555
Ca22 O81 2.428969 1_555
Ca22 O63 2.442759 1_555
Ca22 O111 2.504759 1_555
Ca22 O110 2.506198 1_555
Ca22 O71 2.639658 1_555
Ca22 O70 2.681895 1_555
Ca23 O64 2.425619 1_555
Ca23 O85 2.434439 1_555
Ca23 O108 2.469349 1_555
Ca23 O14 2.495765 1_555
Ca23 O65 2.525230 1_555
Ca23 O77 2.574161 1_555
Ca23 O88 2.661048 1_555
Ca23 O74 2.669035 1_555
Ca23 O66 2.958187 1_555
Ca24 O71 2.312604 1_555
Ca24 O91 2.367639 1_555
Ca24 O82 2.418754 1_555
Ca24 O75 2.492873 1_555
Ca24 O89 2.519004 1_555
Ca24 O1 2.561725 1_554
Ca24 O4 2.575115 1_554
Ca24 O81 2.788079 1_555
Ca25 O92 2.330976 1_555
Ca25 O76 2.378699 1_555
Ca25 O86 2.434394 1_555
Ca25 O80 2.455533 1_555
Ca25 O70 2.514999 1_555
Ca25 O31 2.534358 1_555
Ca25 O37 2.537547 1_555
Ca25 O90 2.799656 1_555
Ca26 O86 2.346885 1_555
Ca26 O94 2.387468 1_555
Ca26 O90 2.450931 1_555
Ca26 O72 2.461478 1_555
Ca26 O83 2.488568 1_555
Ca26 O79 2.500171 1_555
Ca26 O85 2.656698 1_655
Ca26 O76 2.672390 1_555
Ca27 O87 2.364409 1_455
Ca27 O89 2.393782 1_455
Ca27 O74 2.445594 1_555
Ca27 O109 2.469299 1_555
Ca27 O95 2.479839 1_555
Ca27 O111 2.500586 1_555
Ca27 O75 2.585492 1_455
Ca27 O88 2.702976 1_555
Ca28 O88 2.346421 1_655
Ca28 O97 2.360936 1_555
Ca28 O87 2.425744 1_555
Ca28 O94 2.500550 1_555
Ca28 O85 2.520687 1_655
Ca28 O31 2.527188 1_655
Ca28 O30 2.542884 1_655
Ca28 O95 2.773618 1_655
Ca29 O101 2.413865 1_555
Ca29 O91 2.442866 1_555
Ca29 O89 2.453897 1_555
Ca29 O93 2.472300 1_555
Ca29 O95 2.541393 1_655
Ca29 O97 2.578743 1_555
Ca29 O100 2.646347 1_555
Ca29 O10 2.696513 1_554
Ca30 O99 2.399766 1_555
Ca30 O94 2.469909 1_555
Ca30 O90 2.514967 1_555
Ca30 O97 2.520227 1_555
Ca30 O93 2.534065 1_555
Ca30 O92 2.548639 1_555
Ca30 O36 2.651957 1_555
Ca30 O102 2.657575 1_555
Ca31 O98 2.326269 1_565
Ca31 O103 2.365448 1_555
Ca31 O53 2.426511 1_555
Ca31 O96 2.499213 1_565
Ca31 O15 2.507196 1_554
Ca31 O104 2.549466 1_555
Ca31 O105 2.561484 1_555
Ca31 O62 2.796870 1_555
Ca32 O107 2.339846 1_555
Ca32 O100 2.369465 1_565
Ca32 O20 2.438970 1_554
Ca32 O55 2.469113 1_555
Ca32 O101 2.519156 1_565
Ca32 O104 2.525989 1_555
Ca32 O106 2.543504 1_555
Ca32 O19 2.789648 1_554
Ca33 O102 2.341520 1_565
Ca33 O108 2.383234 1_555
Ca33 O50 2.425623 1_555
Ca33 O64 2.483759 1_555
Ca33 O99 2.487423 1_565
Ca33 O106 2.539457 1_555
Ca33 O105 2.541524 1_555
Ca33 O58 2.795110 1_555
O0 P0 1.533815 1_555
O1 P1 1.607534 1_555
O1 V0 2.041783 1_555
O2 P2 1.615150 1_555
O2 V0 2.051372 1_555
O3 P1 1.549002 1_555
O4 P3 1.593525 1_555
O4 V0 2.064344 1_555
O5 P2 1.528197 1_555
O6 P15 1.578471 1_555
O6 V0 2.071644 1_555
O7 P22 1.605346 1_556
O7 V0 2.044560 1_555
O8 P13 1.584763 1_555
O8 V0 2.066968 1_555
O9 P0 1.569719 1_455
O10 P3 1.545415 1_555
O11 P4 1.553877 1_555
O12 P5 1.562824 1_555
O13 P5 1.540218 1_555
O14 P4 1.557623 1_555
O15 P6 1.560397 1_555
O16 P7 1.543145 1_555
O17 P5 1.527884 1_555
O18 P7 1.558657 1_555
O19 P6 1.543748 1_555
O20 P0 1.566561 1_555
O21 P20 1.549212 1_555
O22 P19 1.540599 1_555
O23 P6 1.528869 1_555
O24 P7 1.527071 1_555
O25 P18 1.548634 1_555
O26 P25 1.547048 1_556
O27 P2 1.561428 1_555
O28 P8 1.540676 1_555
O29 P10 1.556887 1_555
O30 P8 1.614627 1_455
O30 V1 2.049931 1_555
O31 P9 1.607743 1_555
O31 V1 2.046509 1_555
O32 P26 1.553464 1_556
O33 P10 1.558001 1_555
O34 P10 1.556329 1_555
O35 P20 1.541780 1_555
O36 P8 1.528502 1_555
O37 P11 1.604286 1_555
O37 V1 2.057607 1_555
O38 P9 1.535039 1_555
O39 P11 1.560953 1_555
O40 P3 1.543814 1_455
O41 P12 1.537787 1_555
O42 P13 1.537771 1_555
O43 P10 1.555875 1_555
O44 P24 1.579201 1_555
O44 V1 2.063579 1_655
O45 P1 1.563677 1_555
O46 P2 1.540587 1_555
O47 P12 1.577335 1_555
O47 V1 2.075004 1_555
O48 P23 1.597303 1_555
O48 V1 2.039783 1_555
O49 P12 1.549233 1_655
O50 P4 1.558082 1_555
O51 P11 1.530670 1_555
O52 P15 1.538078 1_555
O53 P0 1.557172 1_454
O54 P13 1.538953 1_555
O55 P14 1.544152 1_555
O56 P13 1.548078 1_555
O57 P12 1.541090 1_555
O58 P14 1.547114 1_555
O59 P16 1.557973 1_555
O60 P15 1.547135 1_555
O61 P15 1.540405 1_555
O62 P17 1.521242 1_555
O63 P14 1.534436 1_555
O64 P17 1.562963 1_555
O65 P16 1.542484 1_455
O66 P4 1.555760 1_555
O67 P18 1.536457 1_555
O68 P16 1.593733 1_555
O68 V2 2.067807 1_555
O69 P7 1.618005 1_555
O69 V2 2.039847 1_555
O70 P27 1.545061 1_555
O71 P26 1.528986 1_555
O72 P16 1.547199 1_555
O73 P5 1.614803 1_555
O73 V2 2.044284 1_455
O74 P17 1.551055 1_555
O75 P25 1.537341 1_655
O76 P18 1.539075 1_555
O77 P19 1.535338 1_555
O78 P20 1.535480 1_555
O79 P18 1.585945 1_555
O79 V2 2.070547 1_555
O80 P9 1.548013 1_555
O81 P1 1.523847 1_554
O82 P21 1.557381 1_555
O83 P19 1.587457 1_655
O83 V2 2.068532 1_555
O84 P20 1.578823 1_555
O84 V2 2.062355 1_555
O85 P19 1.548513 1_555
O86 P21 1.564134 1_555
O87 P21 1.568916 1_555
O88 P27 1.540300 1_555
O89 P3 1.555948 1_554
O90 P11 1.545031 1_555
O91 P22 1.530455 1_555
O92 P23 1.531215 1_555
O93 P21 1.534430 1_555
O94 P8 1.562479 1_555
O95 P9 1.552292 1_555
O96 P22 1.535923 1_555
O97 P24 1.536939 1_555
O98 P23 1.526037 1_555
O99 P23 1.559543 1_555
O100 P22 1.549639 1_555
O101 P24 1.546303 1_555
O102 P24 1.545477 1_555
O103 P25 1.526917 1_555
O104 P6 1.603580 1_554
O104 V3 2.056273 1_555
O105 P17 1.607134 1_555
O105 V3 2.053380 1_555
O106 P14 1.621799 1_555
O106 V3 2.040446 1_555
O107 P26 1.527917 1_555
O108 P27 1.539364 1_555
O109 P25 1.607579 1_555
O109 V3 2.045392 1_555
O110 P26 1.599709 1_555
O110 V3 2.040954 1_555
O111 P27 1.581164 1_555
O111 V3 2.074253 1_555
