# generated using pymatgen
data_Li9Mn21O40
_symmetry_space_group_name_H-M   'P 1'
_cell_length_a   6.04945100
_cell_length_b   6.05085731
_cell_length_c   21.07935215
_cell_angle_alpha   97.69319688
_cell_angle_beta   97.35358006
_cell_angle_gamma   93.93371448
_symmetry_Int_Tables_number   1
_chemical_formula_structural   Li9Mn21O40
_chemical_formula_sum   'Li9 Mn21 O40'
_cell_volume   755.47121983
_cell_formula_units_Z   1
loop_
 _symmetry_equiv_pos_site_id
 _symmetry_equiv_pos_as_xyz
  1  'x, y, z'
loop_
 _atom_site_type_symbol
 _atom_site_label
 _atom_site_symmetry_multiplicity
 _atom_site_fract_x
 _atom_site_fract_y
 _atom_site_fract_z
 _atom_site_occupancy
  Li  Li0  1  0.27077000  0.03013300  0.04853500  1
  Li  Li1  1  0.88159100  0.61678000  0.25274300  1
  Li  Li2  1  0.92639800  0.17502700  0.35158800  1
  Li  Li3  1  0.46608800  0.23163600  0.45185300  1
  Li  Li4  1  0.53891200  0.76445400  0.55075600  1
  Li  Li5  1  0.66150100  0.43656400  0.84875700  1
  Li  Li6  1  0.06442200  0.83732300  0.65019900  1
  Li  Li7  1  0.13579700  0.36244500  0.74958400  1
  Li  Li8  1  0.73519200  0.96332800  0.94792300  1
  Mn  Mn0  1  0.99401800  0.49919600  0.99550600  1
  Mn  Mn1  1  0.09399200  0.10083200  0.20168500  1
  Mn  Mn2  1  0.49871500  0.50461100  0.99811400  1
  Mn  Mn3  1  0.80715300  0.80127300  0.10052900  1
  Mn  Mn4  1  0.80248800  0.28998900  0.09661000  1
  Mn  Mn5  1  0.60335700  0.10714900  0.20097300  1
  Mn  Mn6  1  0.32137800  0.58466900  0.14963300  1
  Mn  Mn7  1  0.20589300  0.69502400  0.40310900  1
  Mn  Mn8  1  0.39616300  0.90805100  0.30431200  1
  Mn  Mn9  1  0.59978300  0.59997100  0.69962200  1
  Mn  Mn10  1  0.30031500  0.29927900  0.60036100  1
  Mn  Mn11  1  0.70564700  0.69192600  0.40008000  1
  Mn  Mn12  1  0.00025700  0.00064300  0.49989300  1
  Mn  Mn13  1  0.39393100  0.40366300  0.30225000  1
  Mn  Mn14  1  0.80013000  0.29944900  0.60045800  1
  Mn  Mn15  1  0.59941900  0.09947000  0.69979600  1
  Mn  Mn16  1  0.00104900  0.50032000  0.50165500  1
  Mn  Mn17  1  0.19871700  0.69873000  0.89776100  1
  Mn  Mn18  1  0.39958700  0.89860800  0.79895700  1
  Mn  Mn19  1  0.90006500  0.89952100  0.79908300  1
  Mn  Mn20  1  0.20108000  0.19899100  0.89855400  1
  O  O0  1  0.04470800  0.03842800  0.10871800  1
  O  O1  1  0.76647500  0.71430600  0.00289900  1
  O  O2  1  0.57160000  0.06348200  0.10664200  1
  O  O3  1  0.76164100  0.26809600  0.00122500  1
  O  O4  1  0.02893700  0.52925100  0.09001500  1
  O  O5  1  0.15880000  0.16490200  0.29497700  1
  O  O6  1  0.56987800  0.55957900  0.09404900  1
  O  O7  1  0.86181400  0.86476900  0.19748600  1
  O  O8  1  0.86476800  0.31260400  0.19545000  1
  O  O9  1  0.34069200  0.89223700  0.20753100  1
  O  O10  1  0.18644500  0.64284200  0.30803600  1
  O  O11  1  0.60655700  0.16856300  0.29795200  1
  O  O12  1  0.63129400  0.63843000  0.30645000  1
  O  O13  1  0.33842300  0.34267300  0.20842700  1
  O  O14  1  0.97292800  0.90888700  0.40431800  1
  O  O15  1  0.21364400  0.26699600  0.50571000  1
  O  O16  1  0.56724500  0.51202600  0.60480100  1
  O  O17  1  0.03050200  0.53415200  0.59482900  1
  O  O18  1  0.43636500  0.92804800  0.39768500  1
  O  O19  1  0.76871600  0.26841800  0.50643700  1
  O  O20  1  0.97381000  0.46518100  0.40853500  1
  O  O21  1  0.56987800  0.06610100  0.60588200  1
  O  O22  1  0.23495900  0.73222300  0.49574600  1
  O  O23  1  0.63267900  0.68635700  0.79406300  1
  O  O24  1  0.03300200  0.08703400  0.59523500  1
  O  O25  1  0.43599400  0.47932700  0.39675700  1
  O  O26  1  0.78832600  0.73384200  0.49516400  1
  O  O27  1  0.38648300  0.33223300  0.69480500  1
  O  O28  1  0.16871900  0.66510800  0.80413700  1
  O  O29  1  0.62966300  0.13280800  0.79326500  1
  O  O30  1  0.83249000  0.33155100  0.69393100  1
  O  O31  1  0.36705600  0.86762000  0.70508000  1
  O  O32  1  0.41173600  0.46658100  0.90281100  1
  O  O33  1  0.81287600  0.86754500  0.70442700  1
  O  O34  1  0.16727000  0.11124100  0.80367600  1
  O  O35  1  0.43216100  0.92964500  0.89237500  1
  O  O36  1  0.22715200  0.73298100  0.99099600  1
  O  O37  1  0.96507300  0.46722800  0.90260100  1
  O  O38  1  0.23178200  0.28805700  0.99317400  1
  O  O39  1  0.98642500  0.93205800  0.89345600  1
loop_
_geom_bond_atom_site_label_1
_geom_bond_atom_site_label_2
_geom_bond_distance
_geom_bond_site_symmetry_2
Li0 O0 1.979542 1_555
Li0 O36 2.010648 1_544
Li0 O2 2.041006 1_555
Li0 O38 2.078650 1_554
Li1 O12 2.004451 1_555
Li1 O7 2.019797 1_555
Li1 O10 2.035946 1_655
Li1 O8 2.050400 1_555
Li2 O5 1.956029 1_655
Li2 O20 1.970828 1_555
Li2 O14 2.090298 1_545
Li2 O11 2.107439 1_555
Li3 O18 2.012733 1_545
Li3 O19 2.015269 1_555
Li3 O25 2.019291 1_555
Li3 O15 2.022474 1_555
Li4 O21 2.011550 1_565
Li4 O22 2.026844 1_555
Li4 O16 2.027811 1_555
Li4 O26 2.029013 1_555
Li5 O32 2.009270 1_555
Li5 O37 2.014565 1_555
Li5 O23 2.023705 1_555
Li5 O29 2.025265 1_555
Li6 O31 2.019567 1_555
Li6 O33 2.020694 1_455
Li6 O17 2.020732 1_555
Li6 O24 2.028114 1_565
Li7 O28 2.010829 1_555
Li7 O34 2.023591 1_555
Li7 O27 2.023946 1_555
Li7 O30 2.030033 1_455
Li8 O3 2.011839 1_566
Li8 O39 2.022828 1_555
Li8 O1 2.024772 1_556
Li8 O35 2.026937 1_555
Mn0 O37 1.925998 1_555
Mn0 O3 1.940328 1_556
Mn0 O36 1.948272 1_655
Mn0 O4 1.958702 1_656
Mn0 O1 1.964601 1_556
Mn0 O38 1.989182 1_655
Mn1 O7 1.918316 1_445
Mn1 O0 1.925800 1_555
Mn1 O5 1.936215 1_555
Mn1 O8 1.955602 1_455
Mn1 O13 1.985370 1_555
Mn1 O9 2.022017 1_545
Mn2 O1 1.971241 1_556
Mn2 O32 1.988624 1_555
Mn2 O6 1.990693 1_556
Mn2 O38 1.991358 1_555
Mn2 O3 2.212017 1_556
Mn2 O36 2.221413 1_555
Mn3 O0 1.934276 1_665
Mn3 O6 1.956034 1_555
Mn3 O7 2.008325 1_555
Mn3 O1 2.033565 1_555
Mn3 O4 2.199966 1_655
Mn3 O2 2.206097 1_565
Mn4 O2 1.940260 1_555
Mn4 O4 1.955098 1_655
Mn4 O3 1.979483 1_555
Mn4 O8 2.053589 1_555
Mn4 O0 2.200799 1_655
Mn4 O6 2.227796 1_555
Mn5 O2 1.953249 1_555
Mn5 O8 1.968754 1_555
Mn5 O9 2.013917 1_545
Mn5 O11 2.025571 1_555
Mn5 O7 2.217232 1_545
Mn5 O13 2.223110 1_555
Mn6 O4 2.014489 1_555
Mn6 O6 2.022453 1_555
Mn6 O13 2.040735 1_555
Mn6 O9 2.071765 1_555
Mn7 O22 1.919303 1_555
Mn7 O20 1.932407 1_455
Mn7 O18 1.938885 1_555
Mn7 O10 1.973573 1_555
Mn7 O25 1.977160 1_555
Mn7 O14 1.977870 1_455
Mn8 O18 1.938409 1_555
Mn8 O11 1.986879 1_565
Mn8 O10 1.992684 1_555
Mn8 O9 2.012903 1_555
Mn8 O5 2.198126 1_565
Mn8 O12 2.237979 1_555
Mn9 O23 1.970189 1_555
Mn9 O16 1.979173 1_555
Mn9 O33 1.982338 1_555
Mn9 O27 1.983798 1_555
Mn9 O31 2.218681 1_555
Mn9 O30 2.222353 1_555
Mn10 O27 1.971965 1_555
Mn10 O15 1.976772 1_555
Mn10 O24 1.977166 1_555
Mn10 O16 1.979209 1_555
Mn10 O21 2.230366 1_555
Mn10 O17 2.238621 1_555
Mn11 O12 1.945290 1_555
Mn11 O26 1.980307 1_555
Mn11 O25 1.994853 1_555
Mn11 O14 1.996543 1_555
Mn11 O20 2.200602 1_555
Mn11 O18 2.239444 1_555
Mn12 O15 1.974836 1_555
Mn12 O26 1.974856 1_445
Mn12 O24 1.988514 1_555
Mn12 O14 1.999275 1_445
Mn12 O19 2.215232 1_455
Mn12 O22 2.229712 1_545
Mn13 O5 1.933099 1_555
Mn13 O12 1.934309 1_555
Mn13 O13 1.943693 1_555
Mn13 O25 1.962922 1_555
Mn13 O10 1.981416 1_555
Mn13 O11 1.983116 1_555
Mn14 O30 1.936984 1_555
Mn14 O21 1.939331 1_555
Mn14 O17 1.946536 1_655
Mn14 O19 1.948939 1_555
Mn14 O16 1.974283 1_555
Mn14 O24 1.974567 1_655
Mn15 O29 1.937101 1_555
Mn15 O31 1.941072 1_545
Mn15 O21 1.946580 1_555
Mn15 O30 1.948003 1_555
Mn15 O33 1.974690 1_545
Mn15 O27 1.976848 1_555
Mn16 O20 1.930292 1_455
Mn16 O17 1.931037 1_555
Mn16 O19 1.938578 1_455
Mn16 O22 1.950975 1_555
Mn16 O15 1.976820 1_555
Mn16 O26 1.981790 1_455
Mn17 O36 1.932509 1_555
Mn17 O28 1.940339 1_555
Mn17 O35 1.942233 1_555
Mn17 O37 1.942649 1_455
Mn17 O32 1.974440 1_555
Mn17 O39 1.975867 1_455
Mn18 O35 1.936076 1_555
Mn18 O28 1.941211 1_555
Mn18 O29 1.943567 1_565
Mn18 O31 1.945689 1_555
Mn18 O34 1.972308 1_565
Mn18 O23 1.974495 1_555
Mn19 O39 1.970808 1_555
Mn19 O34 1.976374 1_665
Mn19 O33 1.977383 1_555
Mn19 O23 1.981076 1_555
Mn19 O28 2.230904 1_655
Mn19 O29 2.234997 1_565
Mn20 O32 1.975448 1_555
Mn20 O38 1.976544 1_555
Mn20 O34 1.979823 1_555
Mn20 O39 1.984084 1_445
Mn20 O35 2.220283 1_545
Mn20 O37 2.234284 1_455
