# generated using pymatgen
data_Li2Cu4S3
_symmetry_space_group_name_H-M   'P 1'
_cell_length_a   3.87170400
_cell_length_b   10.39065500
_cell_length_c   14.36661100
_cell_angle_alpha   90.00000000
_cell_angle_beta   90.00000000
_cell_angle_gamma   90.00000000
_symmetry_Int_Tables_number   1
_chemical_formula_structural   Li2Cu4S3
_chemical_formula_sum   'Li8 Cu16 S12'
_cell_volume   577.96215945
_cell_formula_units_Z   4
loop_
 _symmetry_equiv_pos_site_id
 _symmetry_equiv_pos_as_xyz
  1  'x, y, z'
loop_
 _atom_site_type_symbol
 _atom_site_label
 _atom_site_symmetry_multiplicity
 _atom_site_fract_x
 _atom_site_fract_y
 _atom_site_fract_z
 _atom_site_occupancy
  Li  Li0  1  0.75000000  0.04467900  0.75197900  1
  Li  Li1  1  0.75000000  0.13411600  0.36474800  1
  Li  Li2  1  0.25000000  0.36588400  0.86474800  1
  Li  Li3  1  0.25000000  0.45532100  0.25197900  1
  Li  Li4  1  0.75000000  0.54467900  0.74802100  1
  Li  Li5  1  0.75000000  0.63411600  0.13525200  1
  Li  Li6  1  0.25000000  0.86588400  0.63525200  1
  Li  Li7  1  0.25000000  0.95532100  0.24802100  1
  Cu  Cu0  1  0.25000000  0.21704900  0.63089700  1
  Cu  Cu1  1  0.25000000  0.20026100  0.23856000  1
  Cu  Cu2  1  0.25000000  0.09384600  0.48297900  1
  Cu  Cu3  1  0.25000000  0.10821500  0.86989000  1
  Cu  Cu4  1  0.75000000  0.39178500  0.36989000  1
  Cu  Cu5  1  0.75000000  0.40615400  0.98297900  1
  Cu  Cu6  1  0.75000000  0.29973900  0.73856000  1
  Cu  Cu7  1  0.75000000  0.28295100  0.13089700  1
  Cu  Cu8  1  0.25000000  0.71704900  0.86910300  1
  Cu  Cu9  1  0.25000000  0.70026100  0.26144000  1
  Cu  Cu10  1  0.25000000  0.59384600  0.01702100  1
  Cu  Cu11  1  0.25000000  0.60821500  0.63011000  1
  Cu  Cu12  1  0.75000000  0.89178500  0.13011000  1
  Cu  Cu13  1  0.75000000  0.90615400  0.51702100  1
  Cu  Cu14  1  0.75000000  0.79973900  0.76144000  1
  Cu  Cu15  1  0.75000000  0.78295100  0.36910300  1
  S  S0  1  0.75000000  0.21631700  0.88812000  1
  S  S1  1  0.75000000  0.10540700  0.58967900  1
  S  S2  1  0.75000000  0.08585100  0.19837800  1
  S  S3  1  0.25000000  0.41414900  0.69837800  1
  S  S4  1  0.25000000  0.39459300  0.08967900  1
  S  S5  1  0.25000000  0.28368300  0.38812000  1
  S  S6  1  0.75000000  0.71631700  0.61188000  1
  S  S7  1  0.75000000  0.60540700  0.91032100  1
  S  S8  1  0.75000000  0.58585100  0.30162200  1
  S  S9  1  0.25000000  0.91414900  0.80162200  1
  S  S10  1  0.25000000  0.89459300  0.41032100  1
  S  S11  1  0.25000000  0.78368300  0.11188000  1
loop_
_geom_bond_atom_site_label_1
_geom_bond_atom_site_label_2
_geom_bond_distance
_geom_bond_site_symmetry_2
Li0 S1 2.415573 1_555
Li0 S9 2.468949 1_645
Li0 S9 2.468949 1_545
Li0 S0 2.646906 1_555
Li1 S2 2.442219 1_555
Li1 S5 2.505093 1_655
Li1 S5 2.505093 1_555
Li2 S3 2.442219 1_555
Li2 S0 2.505093 1_455
Li2 S0 2.505093 1_555
Li3 S4 2.415573 1_555
Li3 S8 2.468949 1_455
Li3 S8 2.468949 1_555
Li3 S5 2.646906 1_555
Li4 S7 2.415573 1_555
Li4 S3 2.468949 1_655
Li4 S3 2.468949 1_555
Li4 S6 2.646906 1_555
Li5 S8 2.442219 1_555
Li5 S11 2.505093 1_555
Li5 S11 2.505093 1_655
Li6 S9 2.442219 1_555
Li6 S6 2.505093 1_555
Li6 S6 2.505093 1_455
Li7 S10 2.415573 1_555
Li7 S2 2.468949 1_465
Li7 S2 2.468949 1_565
Li7 S11 2.646906 1_555
Cu0 S3 2.265872 1_555
Cu0 S1 2.333208 1_455
Cu0 S1 2.333208 1_555
Cu1 S5 2.316925 1_555
Cu1 S2 2.343930 1_455
Cu1 S2 2.343930 1_555
Cu1 Li7 2.548714 1_545
Cu1 Li3 2.657243 1_555
Cu1 Li1 2.739795 1_455
Cu1 Li1 2.739795 1_555
Cu2 S10 2.318631 1_545
Cu2 S5 2.397521 1_555
Cu2 S1 2.472203 1_555
Cu2 S1 2.472203 1_455
Cu2 Li1 2.609172 1_455
Cu2 Li1 2.609172 1_555
Cu3 S9 2.242341 1_545
Cu3 S0 2.253399 1_455
Cu3 S0 2.253399 1_555
Cu3 Li0 2.655736 1_555
Cu3 Li0 2.655736 1_455
Cu3 Li2 2.678369 1_555
Cu4 S8 2.242341 1_555
Cu4 S5 2.253399 1_555
Cu4 S5 2.253399 1_655
Cu4 Li3 2.655736 1_555
Cu4 Li3 2.655736 1_655
Cu4 Li1 2.678369 1_555
Cu5 S7 2.318631 1_555
Cu5 S0 2.397521 1_555
Cu5 S4 2.472203 1_556
Cu5 S4 2.472203 1_656
Cu5 Li2 2.609172 1_655
Cu5 Li2 2.609172 1_555
Cu6 S0 2.316925 1_555
Cu6 S3 2.343930 1_555
Cu6 S3 2.343930 1_655
Cu6 Li4 2.548714 1_555
Cu6 Li0 2.657243 1_555
Cu6 Li2 2.739795 1_555
Cu6 Li2 2.739795 1_655
Cu7 S2 2.265872 1_555
Cu7 S4 2.333208 1_555
Cu7 S4 2.333208 1_655
Cu8 S9 2.265872 1_555
Cu8 S7 2.333208 1_555
Cu8 S7 2.333208 1_455
Cu9 S11 2.316925 1_555
Cu9 S8 2.343930 1_455
Cu9 S8 2.343930 1_555
Cu9 Li3 2.548714 1_555
Cu9 Li7 2.657243 1_555
Cu9 Li5 2.739795 1_455
Cu9 Li5 2.739795 1_555
Cu10 S4 2.318631 1_555
Cu10 S11 2.397521 1_555
Cu10 S7 2.472203 1_554
Cu10 S7 2.472203 1_454
Cu10 Li5 2.609172 1_455
Cu10 Li5 2.609172 1_555
Cu11 S3 2.242341 1_555
Cu11 S6 2.253399 1_455
Cu11 S6 2.253399 1_555
Cu11 Li4 2.655736 1_555
Cu11 Li4 2.655736 1_455
Cu11 Li6 2.678369 1_555
Cu12 S2 2.242341 1_565
Cu12 S11 2.253399 1_555
Cu12 S11 2.253399 1_655
Cu12 Li7 2.655736 1_555
Cu12 Li7 2.655736 1_655
Cu12 Li5 2.678369 1_555
Cu13 S1 2.318631 1_565
Cu13 S6 2.397521 1_555
Cu13 S10 2.472203 1_655
Cu13 S10 2.472203 1_555
Cu13 Li6 2.609172 1_555
Cu13 Li6 2.609172 1_655
Cu14 S6 2.316925 1_555
Cu14 S9 2.343930 1_555
Cu14 S9 2.343930 1_655
Cu14 Li0 2.548714 1_565
Cu14 Li4 2.657243 1_555
Cu14 Li6 2.739795 1_555
Cu14 Li6 2.739795 1_655
Cu15 S8 2.265872 1_555
Cu15 S10 2.333208 1_655
Cu15 S10 2.333208 1_555
