# generated using pymatgen
data_LiCo(SO4)2
_symmetry_space_group_name_H-M   'P 1'
_cell_length_a   8.29239700
_cell_length_b   8.35991714
_cell_length_c   8.84975212
_cell_angle_alpha   90.41964764
_cell_angle_beta   117.13942873
_cell_angle_gamma   119.54338873
_symmetry_Int_Tables_number   1
_chemical_formula_structural   LiCo(SO4)2
_chemical_formula_sum   'Li3 Co3 S6 O24'
_cell_volume   453.09296151
_cell_formula_units_Z   3
loop_
 _symmetry_equiv_pos_site_id
 _symmetry_equiv_pos_as_xyz
  1  'x, y, z'
loop_
 _atom_site_type_symbol
 _atom_site_label
 _atom_site_symmetry_multiplicity
 _atom_site_fract_x
 _atom_site_fract_y
 _atom_site_fract_z
 _atom_site_occupancy
  Li  Li0  1  0.68280700  0.84635100  0.54651800  1
  Li  Li1  1  0.04285000  0.22228100  0.62710400  1
  Li  Li2  1  0.80776800  0.58400200  0.62659900  1
  Co  Co0  1  0.29463500  0.65333100  0.94133500  1
  Co  Co1  1  0.70874100  0.34929900  0.06634700  1
  Co  Co2  1  0.29613400  0.14157000  0.44218700  1
  S  S0  1  0.49590600  0.53191900  0.75368500  1
  S  S1  1  0.78704600  0.25107900  0.74889900  1
  S  S2  1  0.21660700  0.96623200  0.74839300  1
  S  S3  1  0.79298500  0.04538400  0.24987000  1
  S  S4  1  0.20807400  0.74465400  0.25264300  1
  S  S5  1  0.50187200  0.45896600  0.24970000  1
  O  O0  1  0.37981500  0.48928400  0.08217000  1
  O  O1  1  0.59607800  0.89598800  0.08355200  1
  O  O2  1  0.64866200  0.65452300  0.70156800  1
  O  O3  1  0.19097300  0.70024800  0.07604800  1
  O  O4  1  0.31278500  0.33977700  0.61157800  1
  O  O5  1  0.38499800  0.61963000  0.77533900  1
  O  O6  1  0.00196400  0.38011800  0.76108400  1
  O  O7  1  0.71259200  0.05185900  0.70067600  1
  O  O8  1  0.13368900  0.76313700  0.76070600  1
  O  O9  1  0.97394000  0.02009100  0.29067800  1
  O  O10  1  0.76153800  0.03917000  0.40074200  1
  O  O11  1  0.36645400  0.71874400  0.38989100  1
  O  O12  1  0.63468200  0.29677500  0.60914400  1
  O  O13  1  0.27060000  0.97974300  0.60734000  1
  O  O14  1  0.04426200  0.99924700  0.70382700  1
  O  O15  1  0.85853700  0.24037700  0.22608900  1
  O  O16  1  0.27266600  0.94937500  0.28837200  1
  O  O17  1  0.98933100  0.61706900  0.22416900  1
  O  O18  1  0.60850900  0.36881600  0.22238900  1
  O  O19  1  0.67489300  0.63786400  0.39839200  1
  O  O20  1  0.81981400  0.31311200  0.92331300  1
  O  O21  1  0.34201100  0.32148500  0.29422100  1
  O  O22  1  0.41403900  0.09989300  0.92228200  1
  O  O23  1  0.61314400  0.50340600  0.92435000  1
loop_
_geom_bond_atom_site_label_1
_geom_bond_atom_site_label_2
_geom_bond_distance
_geom_bond_site_symmetry_2
Li0 O11 1.960185 1_555
Li0 O7 2.028208 1_565
Li0 O10 2.109494 1_565
Li0 O2 2.115093 1_555
Li0 O19 2.129736 1_555
Li0 O14 2.223683 1_655
Li1 O10 1.992050 1_455
Li1 O14 1.992612 1_545
Li1 O6 2.011694 1_555
Li1 O4 2.026937 1_555
Li2 O19 1.991976 1_555
Li2 O8 2.002964 1_655
Li2 O2 2.021983 1_555
Li2 O12 2.059908 1_555
Co0 O3 1.890670 1_556
Co0 O5 2.001320 1_555
Co0 O1 2.009816 1_556
Co0 O0 2.027384 1_556
Co0 O8 2.112464 1_555
Co0 O6 2.144673 1_555
Co1 O18 1.949873 1_555
Co1 O20 1.968502 1_554
Co1 O15 1.975568 1_555
Co1 O23 1.997344 1_554
Co1 O22 2.009624 1_554
Co1 O17 2.056336 1_555
Co2 O16 1.972393 1_545
Co2 O9 2.000874 1_455
Co2 O13 2.009985 1_545
Co2 O21 2.010151 1_555
Co2 O12 2.084090 1_555
Co2 O4 2.135662 1_555
O0 S5 1.475209 1_555
O1 S3 1.470303 1_565
O2 S0 1.458560 1_555
O3 S4 1.528964 1_555
O4 S0 1.513398 1_555
O5 S0 1.497997 1_555
O6 S1 1.509486 1_455
O7 S1 1.439532 1_555
O8 S2 1.512336 1_555
O9 S3 1.498803 1_555
O10 S3 1.469254 1_555
O11 S4 1.440885 1_555
O12 S1 1.526178 1_555
O13 S2 1.494496 1_555
O14 S2 1.466480 1_555
O15 S3 1.494198 1_555
O16 S4 1.499829 1_555
O17 S4 1.470543 1_655
O18 S5 1.502622 1_555
O19 S5 1.469513 1_555
O20 S1 1.480507 1_555
O21 S5 1.487991 1_555
O22 S2 1.472859 1_545
O23 S0 1.475574 1_555
