# generated using pymatgen
data_Li4MgNi3O8
_symmetry_space_group_name_H-M   'P 1'
_cell_length_a   5.82465440
_cell_length_b   5.82465440
_cell_length_c   5.82465379
_cell_angle_alpha   59.49600628
_cell_angle_beta   59.49600628
_cell_angle_gamma   59.49599731
_symmetry_Int_Tables_number   1
_chemical_formula_structural   Li4MgNi3O8
_chemical_formula_sum   'Li4 Mg1 Ni3 O8'
_cell_volume   138.13018239
_cell_formula_units_Z   1
loop_
 _symmetry_equiv_pos_site_id
 _symmetry_equiv_pos_as_xyz
  1  'x, y, z'
loop_
 _atom_site_type_symbol
 _atom_site_label
 _atom_site_symmetry_multiplicity
 _atom_site_fract_x
 _atom_site_fract_y
 _atom_site_fract_z
 _atom_site_occupancy
  Li  Li0  1  0.50000000  0.50000000  0.00000000  1
  Li  Li1  1  0.00000000  0.50000000  0.50000000  1
  Li  Li2  1  0.00000000  0.00000000  0.00000000  1
  Li  Li3  1  0.50000000  0.00000000  0.50000000  1
  Mg  Mg0  1  0.50000000  0.50000000  0.50000000  1
  Ni  Ni0  1  0.00000000  0.00000000  0.50000000  1
  Ni  Ni1  1  0.50000000  0.00000000  0.00000000  1
  Ni  Ni2  1  0.00000000  0.50000000  0.00000000  1
  O  O0  1  0.74810000  0.74810000  0.22154300  1
  O  O1  1  0.25190000  0.25190000  0.77845700  1
  O  O2  1  0.77845700  0.25190000  0.25190000  1
  O  O3  1  0.22154300  0.74810000  0.74810000  1
  O  O4  1  0.75262100  0.75262100  0.75262100  1
  O  O5  1  0.24737900  0.24737900  0.24737900  1
  O  O6  1  0.74810000  0.22154300  0.74810000  1
  O  O7  1  0.25190000  0.77845700  0.25190000  1
loop_
_geom_bond_atom_site_label_1
_geom_bond_atom_site_label_2
_geom_bond_distance
_geom_bond_site_symmetry_2
Li0 O4 2.073550 1_554
Li0 O5 2.073550 1_555
Li0 O2 2.180737 1_555
Li0 O6 2.180737 1_554
Li0 O3 2.180737 1_554
Li0 O7 2.180737 1_555
Li1 O4 2.073549 1_455
Li1 O5 2.073549 1_555
Li1 O1 2.180737 1_555
Li1 O0 2.180737 1_455
Li1 O7 2.180737 1_555
Li1 O6 2.180737 1_455
Li2 O3 2.076527 1_544
Li2 O6 2.076527 1_454
Li2 O2 2.076527 1_455
Li2 O7 2.076527 1_545
Li2 O0 2.076527 1_445
Li2 O1 2.076527 1_554
Li3 O4 2.073549 1_545
Li3 O5 2.073549 1_555
Li3 O1 2.180737 1_555
Li3 O0 2.180737 1_545
Li3 O2 2.180737 1_555
Li3 O3 2.180737 1_545
Mg0 O2 2.041659 1_555
Mg0 O3 2.041659 1_555
Mg0 O7 2.041659 1_555
Mg0 O6 2.041659 1_555
Mg0 O0 2.041659 1_555
Mg0 O1 2.041659 1_555
Ni0 O3 1.929954 1_545
Ni0 O6 1.929954 1_455
Ni0 O2 1.929954 1_455
Ni0 O7 1.929954 1_545
Ni0 O5 2.029880 1_555
Ni0 O4 2.029880 1_445
Ni1 O0 1.929954 1_545
Ni1 O1 1.929954 1_554
Ni1 O6 1.929955 1_554
Ni1 O7 1.929955 1_545
Ni1 O5 2.029880 1_555
Ni1 O4 2.029880 1_544
Ni2 O0 1.929954 1_455
Ni2 O1 1.929954 1_554
Ni2 O3 1.929955 1_554
Ni2 O2 1.929955 1_455
Ni2 O5 2.029880 1_555
Ni2 O4 2.029880 1_454
