# generated using pymatgen
data_U(BH4)4
_symmetry_space_group_name_H-M   'P 1'
_cell_length_a   5.58075117
_cell_length_b   5.58075117
_cell_length_c   11.97349000
_cell_angle_alpha   90.00000000
_cell_angle_beta   90.00000000
_cell_angle_gamma   90.09979100
_symmetry_Int_Tables_number   1
_chemical_formula_structural   U(BH4)4
_chemical_formula_sum   'U2 B8 H32'
_cell_volume   372.91118962
_cell_formula_units_Z   2
loop_
 _symmetry_equiv_pos_site_id
 _symmetry_equiv_pos_as_xyz
  1  'x, y, z'
loop_
 _atom_site_type_symbol
 _atom_site_label
 _atom_site_symmetry_multiplicity
 _atom_site_fract_x
 _atom_site_fract_y
 _atom_site_fract_z
 _atom_site_occupancy
  U  U0  1  0.72069600  0.27930400  0.25000000  1
  U  U1  1  0.27930400  0.72069600  0.75000000  1
  B  B0  1  0.21929500  0.34674300  0.25000000  1
  B  B1  1  0.34674300  0.21929500  0.75000000  1
  B  B2  1  0.78070500  0.65325700  0.75000000  1
  B  B3  1  0.65325700  0.78070500  0.25000000  1
  B  B4  1  0.77414100  0.22585900  0.04318400  1
  B  B5  1  0.22585900  0.77414100  0.95681600  1
  B  B6  1  0.77414100  0.22585900  0.45681600  1
  B  B7  1  0.22585900  0.77414100  0.54318400  1
  H  H0  1  0.07800000  0.51651700  0.25000000  1
  H  H1  1  0.51651700  0.07800000  0.75000000  1
  H  H2  1  0.92200000  0.48348300  0.75000000  1
  H  H3  1  0.48348300  0.92200000  0.25000000  1
  H  H4  1  0.11370900  0.15102800  0.25000000  1
  H  H5  1  0.15102800  0.11370900  0.75000000  1
  H  H6  1  0.88629100  0.84897200  0.75000000  1
  H  H7  1  0.84897200  0.88629100  0.25000000  1
  H  H8  1  0.34019800  0.35650500  0.33612500  1
  H  H9  1  0.35650500  0.34019800  0.66387500  1
  H  H10  1  0.34019800  0.35650500  0.16387500  1
  H  H11  1  0.35650500  0.34019800  0.83612500  1
  H  H12  1  0.65980200  0.64349500  0.66387500  1
  H  H13  1  0.64349500  0.65980200  0.33612500  1
  H  H14  1  0.65980200  0.64349500  0.83612500  1
  H  H15  1  0.64349500  0.65980200  0.16387500  1
  H  H16  1  0.90412400  0.09587600  0.10269000  1
  H  H17  1  0.09587600  0.90412400  0.89731000  1
  H  H18  1  0.90412400  0.09587600  0.39731000  1
  H  H19  1  0.09587600  0.90412400  0.60269000  1
  H  H20  1  0.82073600  0.43236600  0.07646700  1
  H  H21  1  0.43236600  0.82073600  0.92353300  1
  H  H22  1  0.82073600  0.43236600  0.42353300  1
  H  H23  1  0.43236600  0.82073600  0.57646700  1
  H  H24  1  0.17926400  0.56763400  0.92353300  1
  H  H25  1  0.56763400  0.17926400  0.07646700  1
  H  H26  1  0.17926400  0.56763400  0.57646700  1
  H  H27  1  0.56763400  0.17926400  0.42353300  1
  H  H28  1  0.20015700  0.79984300  0.05521700  1
  H  H29  1  0.79984300  0.20015700  0.94478300  1
  H  H30  1  0.20015700  0.79984300  0.44478300  1
  H  H31  1  0.79984300  0.20015700  0.55521700  1
loop_
_geom_bond_atom_site_label_1
_geom_bond_atom_site_label_2
_geom_bond_distance
_geom_bond_site_symmetry_2
B0 H8 1.233494 1_555
B0 H10 1.233494 1_555
B0 H0 1.233725 1_555
B0 H4 1.240143 1_555
B1 H11 1.233494 1_555
B1 H9 1.233494 1_555
B1 H1 1.233725 1_555
B1 H5 1.240143 1_555
B2 H12 1.233494 1_555
B2 H14 1.233494 1_555
B2 H2 1.233725 1_555
B2 H6 1.240143 1_555
B3 H15 1.233494 1_555
B3 H13 1.233494 1_555
B3 H3 1.233725 1_555
B3 H7 1.240143 1_555
B4 H29 1.195568 1_554
B4 H25 1.246419 1_555
B4 H20 1.246419 1_555
B4 H16 1.249760 1_555
B5 H28 1.195568 1_556
B5 H24 1.246419 1_555
B5 H21 1.246419 1_555
B5 H17 1.249760 1_555
B6 H31 1.195568 1_555
B6 H27 1.246419 1_555
B6 H22 1.246419 1_555
B6 H18 1.249760 1_555
B7 H30 1.195568 1_555
B7 H26 1.246419 1_555
B7 H23 1.246419 1_555
B7 H19 1.249760 1_555
H0 U0 2.391539 1_455
H1 U1 2.391539 1_545
H2 U1 2.391539 1_655
H3 U0 2.391539 1_565
H4 U0 2.308365 1_455
H5 U1 2.308365 1_545
H6 U1 2.308365 1_655
H7 U0 2.308365 1_565
H8 U0 2.400275 1_555
H9 U1 2.400275 1_555
H10 U0 2.400275 1_555
H11 U1 2.400275 1_555
H12 U1 2.400275 1_555
H13 U0 2.400275 1_555
H14 U1 2.400275 1_555
H15 U0 2.400275 1_555
H16 U0 2.282647 1_555
H17 U1 2.282647 1_555
H18 U0 2.282647 1_555
H19 U1 2.282647 1_555
H20 U0 2.314504 1_555
H21 U1 2.314504 1_555
H22 U0 2.314504 1_555
H23 U1 2.314504 1_555
H24 U1 2.314504 1_555
H25 U0 2.314504 1_555
H26 U1 2.314504 1_555
H27 U0 2.314504 1_555
