# generated using pymatgen
data_LiSnPO4
_symmetry_space_group_name_H-M   'P 1'
_cell_length_a   7.07595400
_cell_length_b   9.45668100
_cell_length_c   18.97434834
_cell_angle_alpha   60.22110291
_cell_angle_beta   90.00000000
_cell_angle_gamma   90.00000000
_symmetry_Int_Tables_number   1
_chemical_formula_structural   LiSnPO4
_chemical_formula_sum   'Li12 Sn12 P12 O48'
_cell_volume   1102.00746235
_cell_formula_units_Z   12
loop_
 _symmetry_equiv_pos_site_id
 _symmetry_equiv_pos_as_xyz
  1  'x, y, z'
loop_
 _atom_site_type_symbol
 _atom_site_label
 _atom_site_symmetry_multiplicity
 _atom_site_fract_x
 _atom_site_fract_y
 _atom_site_fract_z
 _atom_site_occupancy
  Li  Li0  1  0.48351500  0.83973700  0.42016300  1
  Li  Li1  1  0.52686100  0.17037600  0.08871100  1
  Li  Li2  1  0.51345600  0.51637700  0.73207900  1
  Li  Li3  1  0.01345600  0.48362300  0.76792100  1
  Li  Li4  1  0.02686100  0.82962400  0.41128900  1
  Li  Li5  1  0.98351500  0.16026300  0.07983700  1
  Li  Li6  1  0.01648500  0.83973700  0.92016300  1
  Li  Li7  1  0.97313900  0.17037600  0.58871100  1
  Li  Li8  1  0.98654400  0.51637700  0.23207900  1
  Li  Li9  1  0.48654400  0.48362300  0.26792100  1
  Li  Li10  1  0.47313900  0.82962400  0.91128900  1
  Li  Li11  1  0.51648500  0.16026300  0.57983700  1
  Sn  Sn0  1  0.74748200  0.56277700  0.90128800  1
  Sn  Sn1  1  0.76179600  0.13338700  0.28037400  1
  Sn  Sn2  1  0.75850000  0.80528900  0.56538500  1
  Sn  Sn3  1  0.25850000  0.19471100  0.93461500  1
  Sn  Sn4  1  0.26179600  0.86661300  0.21962600  1
  Sn  Sn5  1  0.24748200  0.43722300  0.59871200  1
  Sn  Sn6  1  0.75251800  0.56277700  0.40128800  1
  Sn  Sn7  1  0.73820400  0.13338700  0.78037400  1
  Sn  Sn8  1  0.74150000  0.80528900  0.06538500  1
  Sn  Sn9  1  0.24150000  0.19471100  0.43461500  1
  Sn  Sn10  1  0.23820400  0.86661300  0.71962600  1
  Sn  Sn11  1  0.25251800  0.43722300  0.09871200  1
  P  P0  1  0.23739100  0.53784000  0.91069800  1
  P  P1  1  0.26392700  0.14415300  0.26908900  1
  P  P2  1  0.25355800  0.82045700  0.57234400  1
  P  P3  1  0.75355800  0.17954300  0.92765600  1
  P  P4  1  0.76392700  0.85584700  0.23091100  1
  P  P5  1  0.73739100  0.46216000  0.58930200  1
  P  P6  1  0.26260900  0.53784000  0.41069800  1
  P  P7  1  0.23607300  0.14415300  0.76908900  1
  P  P8  1  0.24644200  0.82045700  0.07234400  1
  P  P9  1  0.74644200  0.17954300  0.42765600  1
  P  P10  1  0.73607300  0.85584700  0.73091100  1
  P  P11  1  0.76260900  0.46216000  0.08930200  1
  O  O0  1  0.07360900  0.64027900  0.91551900  1
  O  O1  1  0.57762500  0.36529200  0.10122600  1
  O  O2  1  0.09274200  0.04347100  0.31923200  1
  O  O3  1  0.25465500  0.36389200  0.99141500  1
  O  O4  1  0.75836200  0.01564100  0.42253400  1
  O  O5  1  0.74402800  0.67388700  0.75207700  1
  O  O6  1  0.25341900  0.68341300  0.66328900  1
  O  O7  1  0.44415700  0.05642500  0.31743500  1
  O  O8  1  0.08440700  0.80944600  0.52347100  1
  O  O9  1  0.43556800  0.81928700  0.52740900  1
  O  O10  1  0.26364600  0.15600500  0.18180500  1
  O  O11  1  0.20304500  0.49253800  0.84319300  1
  O  O12  1  0.70304500  0.50746200  0.65680700  1
  O  O13  1  0.93556800  0.18071300  0.97259100  1
  O  O14  1  0.76364600  0.84399500  0.31819500  1
  O  O15  1  0.58440700  0.19055400  0.97652900  1
  O  O16  1  0.94415700  0.94357500  0.18256500  1
  O  O17  1  0.75341900  0.31658700  0.83671100  1
  O  O18  1  0.24402800  0.32611300  0.74792300  1
  O  O19  1  0.75465500  0.63610800  0.50858500  1
  O  O20  1  0.25836200  0.98435900  0.07746600  1
  O  O21  1  0.59274200  0.95652900  0.18076800  1
  O  O22  1  0.07762500  0.63470800  0.39877400  1
  O  O23  1  0.57360900  0.35972100  0.58448100  1
  O  O24  1  0.42639100  0.64027900  0.41551900  1
  O  O25  1  0.92237500  0.36529200  0.60122600  1
  O  O26  1  0.40725800  0.04347100  0.81923200  1
  O  O27  1  0.24534500  0.36389200  0.49141500  1
  O  O28  1  0.74163800  0.01564100  0.92253400  1
  O  O29  1  0.75597200  0.67388700  0.25207700  1
  O  O30  1  0.24658100  0.68341300  0.16328900  1
  O  O31  1  0.05584300  0.05642500  0.81743500  1
  O  O32  1  0.41559300  0.80944600  0.02347100  1
  O  O33  1  0.23635400  0.15600500  0.68180500  1
  O  O34  1  0.06443200  0.81928700  0.02740900  1
  O  O35  1  0.29695500  0.49253800  0.34319300  1
  O  O36  1  0.79695500  0.50746200  0.15680700  1
  O  O37  1  0.73635400  0.84399500  0.81819500  1
  O  O38  1  0.56443200  0.18071300  0.47259100  1
  O  O39  1  0.91559300  0.19055400  0.47652900  1
  O  O40  1  0.55584300  0.94357500  0.68256500  1
  O  O41  1  0.74658100  0.31658700  0.33671100  1
  O  O42  1  0.25597200  0.32611300  0.24792300  1
  O  O43  1  0.24163800  0.98435900  0.57746600  1
  O  O44  1  0.74534500  0.63610800  0.00858500  1
  O  O45  1  0.90725800  0.95652900  0.68076800  1
  O  O46  1  0.42237500  0.63470800  0.89877400  1
  O  O47  1  0.92639100  0.35972100  0.08448100  1
loop_
_geom_bond_atom_site_label_1
_geom_bond_atom_site_label_2
_geom_bond_distance
_geom_bond_site_symmetry_2
Li0 O24 1.973331 1_555
Li0 O9 1.975479 1_555
Li0 O7 2.026937 1_565
Li1 O21 1.961951 1_545
Li1 O1 2.004444 1_555
Li1 O15 2.080774 1_554
Li1 O10 2.523703 1_555
Li2 O12 1.991546 1_555
Li2 O6 2.352973 1_555
Li2 O5 2.363455 1_555
Li2 O18 2.534765 1_555
Li2 O17 2.582320 1_555
Li3 O11 1.991546 1_555
Li3 O17 2.352973 1_455
Li3 O18 2.363455 1_555
Li3 O5 2.534765 1_455
Li3 O6 2.582320 1_555
Li4 O2 1.961951 1_565
Li4 O22 2.004444 1_555
Li4 O8 2.080774 1_555
Li4 O14 2.523703 1_455
Li5 O47 1.973331 1_555
Li5 O13 1.975479 1_554
Li5 O16 2.026937 1_545
Li6 O0 1.973331 1_555
Li6 O34 1.975479 1_556
Li6 O31 2.026937 1_565
Li7 O45 1.961951 1_545
Li7 O25 2.004444 1_555
Li7 O39 2.080774 1_555
Li7 O33 2.523703 1_655
Li8 O36 1.991546 1_555
Li8 O30 2.352973 1_655
Li8 O29 2.363455 1_555
Li8 O42 2.534765 1_655
Li8 O41 2.582320 1_555
Li9 O35 1.991546 1_555
Li9 O41 2.352973 1_555
Li9 O42 2.363455 1_555
Li9 O29 2.534765 1_555
Li9 O30 2.582320 1_555
Li10 O26 1.961951 1_565
Li10 O46 2.004444 1_555
Li10 O32 2.080774 1_556
Li10 O37 2.523703 1_555
Li11 O23 1.973331 1_555
Li11 O38 1.975479 1_555
Li11 O40 2.026937 1_545
O0 P0 1.542049 1_555
O0 Sn0 2.476276 1_455
O1 P11 1.548479 1_555
O1 Sn11 2.392653 1_555
O2 P1 1.542458 1_555
O2 Sn1 2.475426 1_455
O3 P0 1.601251 1_555
O3 Sn3 2.331234 1_555
O3 Sn11 2.455271 1_556
O4 P9 1.602683 1_555
O4 Sn1 2.352225 1_555
O4 Sn2 2.438880 1_545
O5 P10 1.561715 1_555
O5 Sn0 2.483006 1_555
O6 P2 1.560747 1_555
O6 Sn10 2.448516 1_555
O7 P1 1.549261 1_555
O7 Sn1 2.359561 1_555
O8 P2 1.548963 1_555
O8 Sn2 2.433329 1_455
O9 P2 1.547615 1_555
O9 Sn2 2.379802 1_555
O10 P1 1.603447 1_555
O10 Sn11 2.323682 1_555
O10 Sn4 2.460455 1_545
O11 P0 1.558289 1_555
O11 Sn3 2.498509 1_555
O12 P5 1.558289 1_555
O12 Sn2 2.498509 1_555
O13 P3 1.547615 1_555
O13 Sn3 2.379802 1_655
O14 P4 1.603447 1_555
O14 Sn6 2.323682 1_555
O14 Sn1 2.460455 1_565
O15 P3 1.548963 1_555
O15 Sn3 2.433329 1_555
O16 P4 1.549261 1_555
O16 Sn4 2.359561 1_655
O17 P3 1.560747 1_555
O17 Sn7 2.448516 1_555
O18 P7 1.561715 1_555
O18 Sn5 2.483006 1_555
O19 P5 1.601251 1_555
O19 Sn2 2.331234 1_555
O19 Sn6 2.455271 1_555
O20 P8 1.602683 1_555
O20 Sn4 2.352225 1_555
O20 Sn3 2.438880 1_564
O21 P4 1.542458 1_555
O21 Sn4 2.475426 1_555
O22 P6 1.548479 1_555
O22 Sn6 2.392653 1_455
O23 P5 1.542049 1_555
O23 Sn5 2.476276 1_555
O24 P6 1.542049 1_555
O24 Sn6 2.476276 1_555
O25 P5 1.548479 1_555
O25 Sn5 2.392653 1_655
O26 P7 1.542458 1_555
O26 Sn7 2.475426 1_555
O27 P6 1.601251 1_555
O27 Sn9 2.331234 1_555
O27 Sn5 2.455271 1_555
O28 P3 1.602683 1_555
O28 Sn7 2.352225 1_555
O28 Sn8 2.438880 1_546
O29 P4 1.561715 1_555
O29 Sn6 2.483006 1_555
O30 P8 1.560747 1_555
O30 Sn4 2.448516 1_555
O31 P7 1.549261 1_555
O31 Sn7 2.359561 1_455
O32 P8 1.548963 1_555
O32 Sn8 2.433329 1_555
O33 P7 1.603447 1_555
O33 Sn5 2.323682 1_555
O33 Sn10 2.460455 1_545
O34 P8 1.547615 1_555
O34 Sn8 2.379802 1_455
O35 P6 1.558289 1_555
O35 Sn9 2.498509 1_555
O36 P11 1.558289 1_555
O36 Sn8 2.498509 1_555
O37 P10 1.603447 1_555
O37 Sn0 2.323682 1_555
O37 Sn7 2.460455 1_565
O38 P9 1.547615 1_555
O38 Sn9 2.379802 1_555
O39 P9 1.548963 1_555
O39 Sn9 2.433329 1_655
O40 P10 1.549261 1_555
O40 Sn10 2.359561 1_555
O41 P9 1.560747 1_555
O41 Sn1 2.448516 1_555
O42 P1 1.561715 1_555
O42 Sn11 2.483006 1_555
O43 P2 1.602683 1_555
O43 Sn10 2.352225 1_555
O43 Sn9 2.438880 1_565
O44 P11 1.601251 1_555
O44 Sn8 2.331234 1_555
O44 Sn0 2.455271 1_554
O45 P10 1.542458 1_555
O45 Sn10 2.475426 1_655
O46 P0 1.548479 1_555
O46 Sn0 2.392653 1_555
O47 P11 1.542049 1_555
O47 Sn11 2.476276 1_655
