# generated using pymatgen
data_Li4Mn5Fe(PO4)6
_symmetry_space_group_name_H-M   'P 1'
_cell_length_a   8.47607600
_cell_length_b   8.59933998
_cell_length_c   8.68745553
_cell_angle_alpha   62.48410689
_cell_angle_beta   63.38805895
_cell_angle_gamma   63.50094323
_symmetry_Int_Tables_number   1
_chemical_formula_structural   Li4Mn5Fe(PO4)6
_chemical_formula_sum   'Li4 Mn5 Fe1 P6 O24'
_cell_volume   478.69706555
_cell_formula_units_Z   1
loop_
 _symmetry_equiv_pos_site_id
 _symmetry_equiv_pos_as_xyz
  1  'x, y, z'
loop_
 _atom_site_type_symbol
 _atom_site_label
 _atom_site_symmetry_multiplicity
 _atom_site_fract_x
 _atom_site_fract_y
 _atom_site_fract_z
 _atom_site_occupancy
  Li  Li0  1  0.74261300  0.15098700  0.35934500  1
  Li  Li1  1  0.26520100  0.84911400  0.65482900  1
  Li  Li2  1  0.65198800  0.25944300  0.85485900  1
  Li  Li3  1  0.85053700  0.65561200  0.26426200  1
  Mn  Mn0  1  0.01361400  0.00092600  0.99085100  1
  Mn  Mn1  1  0.34914200  0.35385000  0.35039700  1
  Mn  Mn2  1  0.49160800  0.50291700  0.50195400  1
  Mn  Mn3  1  0.14668200  0.15028600  0.14823900  1
  Mn  Mn4  1  0.65657300  0.65009100  0.65796300  1
  Fe  Fe0  1  0.84854100  0.84604800  0.84787700  1
  P  P0  1  0.05674100  0.75373600  0.44333500  1
  P  P1  1  0.44349300  0.04997500  0.74968700  1
  P  P2  1  0.75346300  0.44125400  0.05536400  1
  P  P3  1  0.24624900  0.54905300  0.95059900  1
  P  P4  1  0.55947000  0.95341700  0.24667000  1
  P  P5  1  0.93623500  0.24558000  0.55281300  1
  O  O0  1  0.46406400  0.90084400  0.68410800  1
  O  O1  1  0.68734200  0.45651900  0.90952800  1
  O  O2  1  0.90585400  0.68923500  0.45821500  1
  O  O3  1  0.06276900  0.92395500  0.26038100  1
  O  O4  1  0.00273100  0.81306100  0.60875900  1
  O  O5  1  0.24841200  0.60886300  0.42841600  1
  O  O6  1  0.25435400  0.07453700  0.89922000  1
  O  O7  1  0.45703000  0.23339200  0.59022500  1
  O  O8  1  0.17963500  0.38966900  0.99445500  1
  O  O9  1  0.61136800  0.42298700  0.24870800  1
  O  O10  1  0.09048300  0.74436500  0.92525200  1
  O  O11  1  0.38946800  0.01531100  0.18782700  1
  O  O12  1  0.60471200  0.99268200  0.82432800  1
  O  O13  1  0.91081300  0.24895700  0.07869700  1
  O  O14  1  0.39168500  0.57357300  0.75579600  1
  O  O15  1  0.81914100  0.60429700  0.00325700  1
  O  O16  1  0.57350400  0.75672300  0.39374700  1
  O  O17  1  0.75091500  0.92301000  0.08889500  1
  O  O18  1  0.74336700  0.39688100  0.58726900  1
  O  O19  1  0.94924100  0.18623700  0.40568500  1
  O  O20  1  0.92218000  0.08835900  0.74786900  1
  O  O21  1  0.10054500  0.30423800  0.50684400  1
  O  O22  1  0.31262000  0.52006000  0.09966000  1
  O  O23  1  0.55562400  0.09695600  0.30681700  1
loop_
_geom_bond_atom_site_label_1
_geom_bond_atom_site_label_2
_geom_bond_distance
_geom_bond_site_symmetry_2
Li0 O9 2.047203 1_555
Li0 O23 2.106456 1_555
Li0 O19 2.130613 1_555
Li0 O13 2.178656 1_555
Li0 O7 2.411956 1_555
Li0 O3 2.578323 1_645
Li1 O14 2.046551 1_555
Li1 O0 2.064347 1_555
Li1 O10 2.154493 1_555
Li2 O18 2.016432 1_555
Li2 O1 2.124109 1_555
Li2 O20 2.150128 1_555
Li3 O16 2.061697 1_555
Li3 O2 2.102719 1_555
Li3 O17 2.122365 1_555
Mn0 O6 2.104745 1_555
Mn0 O20 2.258536 1_455
Mn0 O13 2.267320 1_456
Mn0 O10 2.272265 1_545
Mn0 O17 2.288520 1_446
Mn0 O3 2.300072 1_546
Mn1 O21 2.042048 1_555
Mn1 O22 2.053314 1_555
Mn1 O23 2.194449 1_555
Mn1 O9 2.238048 1_555
Mn1 O7 2.262227 1_555
Mn1 O5 2.276288 1_555
Mn2 O5 2.110322 1_555
Mn2 O7 2.192814 1_555
Mn2 O18 2.233955 1_555
Mn2 O16 2.236233 1_555
Mn2 O14 2.248362 1_555
Mn2 O9 2.262080 1_555
Mn3 O8 1.933415 1_554
Mn3 O11 1.958080 1_555
Mn3 O3 2.026226 1_545
Mn3 O13 2.043666 1_455
Mn3 O19 2.173100 1_455
Mn3 O6 2.222620 1_554
Mn4 O0 2.084346 1_555
Mn4 O1 2.092120 1_555
Mn4 O2 2.097415 1_555
Mn4 O18 2.249672 1_555
Mn4 O14 2.299636 1_555
Mn4 O16 2.352076 1_555
Fe0 O12 1.928228 1_555
Fe0 O15 1.942693 1_556
Fe0 O4 1.971089 1_655
Fe0 O20 2.118564 1_565
Fe0 O10 2.124521 1_655
Fe0 O17 2.178613 1_556
O0 P1 1.544717 1_565
O1 P2 1.534044 1_556
O2 P0 1.542299 1_655
O3 P0 1.586110 1_555
O4 P0 1.553943 1_555
O5 P0 1.537095 1_555
O6 P1 1.545271 1_555
O7 P1 1.555700 1_555
O8 P3 1.535529 1_555
O9 P2 1.552160 1_555
O10 P3 1.597643 1_555
O11 P4 1.531362 1_545
O12 P1 1.558336 1_565
O13 P2 1.587061 1_555
O14 P3 1.568862 1_555
O15 P2 1.537824 1_555
O16 P4 1.570795 1_555
O17 P4 1.593787 1_555
O18 P5 1.574264 1_555
O19 P5 1.527262 1_555
O20 P5 1.599861 1_555
O21 P5 1.515267 1_455
O22 P3 1.511535 1_554
O23 P4 1.530514 1_545
