# generated using pymatgen
data_KLi(WO3)6
_symmetry_space_group_name_H-M   'P 1'
_cell_length_a   7.49719285
_cell_length_b   7.49603186
_cell_length_c   7.72126307
_cell_angle_alpha   90.00947452
_cell_angle_beta   89.98473373
_cell_angle_gamma   119.67664423
_symmetry_Int_Tables_number   1
_chemical_formula_structural   KLi(WO3)6
_chemical_formula_sum   'K1 Li1 W6 O18'
_cell_volume   377.01180800
_cell_formula_units_Z   1
loop_
 _symmetry_equiv_pos_site_id
 _symmetry_equiv_pos_as_xyz
  1  'x, y, z'
loop_
 _atom_site_type_symbol
 _atom_site_label
 _atom_site_symmetry_multiplicity
 _atom_site_fract_x
 _atom_site_fract_y
 _atom_site_fract_z
 _atom_site_occupancy
  K  K0  1  0.00001300  0.00009400  0.26665200  1
  Li  Li0  1  0.70450800  0.29547100  0.75085400  1
  W  W0  1  0.00411500  0.50971100  0.49818200  1
  W  W1  1  0.00582000  0.49516900  0.00262300  1
  W  W2  1  0.49261300  0.49029200  0.49967400  1
  W  W3  1  0.50962400  0.50726200  0.00034800  1
  W  W4  1  0.49046100  0.99588000  0.00200400  1
  W  W5  1  0.50493500  0.99425300  0.49757000  1
  O  O0  1  0.00857100  0.50511200  0.74997400  1
  O  O1  1  0.21116100  0.78654000  0.00996800  1
  O  O2  1  0.21320900  0.78909400  0.49003500  1
  O  O3  1  0.21258600  0.42661100  0.49131500  1
  O  O4  1  0.49484800  0.99146000  0.74955600  1
  O  O5  1  0.21424300  0.42641100  0.00898300  1
  O  O6  1  0.57280900  0.78717100  0.00857600  1
  O  O7  1  0.57408000  0.78617500  0.49091800  1
  O  O8  1  0.49676600  0.50331400  0.74969900  1
  O  O9  1  0.50600900  0.49409100  0.25016900  1
  O  O10  1  0.42909600  0.21492700  0.99360100  1
  O  O11  1  0.42817600  0.21404100  0.50612900  1
  O  O12  1  0.78523600  0.57120700  0.50621100  1
  O  O13  1  0.50622700  0.01028500  0.25010200  1
  O  O14  1  0.78589400  0.57147300  0.99365600  1
  O  O15  1  0.78370100  0.21597000  0.98936000  1
  O  O16  1  0.78397700  0.21608900  0.51048400  1
  O  O17  1  0.98975200  0.49374900  0.25024800  1
loop_
_geom_bond_atom_site_label_1
_geom_bond_atom_site_label_2
_geom_bond_distance
_geom_bond_site_symmetry_2
K0 O2 3.246087 1_545
K0 O7 3.270250 1_445
K0 O3 3.274930 1_555
K0 O11 3.346611 1_555
K0 O12 3.350282 1_445
K0 O16 3.373935 1_455
K0 O1 3.391626 1_545
K0 O5 3.415883 1_555
K0 O6 3.422976 1_445
Li0 O4 2.029069 1_545
Li0 O0 2.029519 1_655
Li0 O15 2.109582 1_555
Li0 O16 2.122203 1_555
O0 W0 1.945053 1_555
O0 W1 1.951919 1_556
O1 W4 1.896620 1_555
O1 W1 1.952980 1_555
O2 W0 1.896432 1_555
O2 W5 1.954843 1_555
O3 W2 1.909788 1_555
O3 W0 1.948756 1_555
O4 W5 1.946813 1_555
O4 W4 1.950039 1_556
O5 W1 1.872774 1_555
O5 W3 1.986662 1_555
O6 W3 1.909626 1_555
O6 W4 1.946234 1_555
O7 W5 1.872119 1_555
O7 W2 1.988853 1_555
O8 W2 1.932439 1_555
O8 W3 1.937244 1_556
O9 W2 1.928564 1_555
O9 W3 1.930972 1_555
O10 W4 1.913127 1_546
O10 W3 1.964478 1_556
O11 W2 1.879747 1_555
O11 W5 1.997174 1_545
O12 W0 1.912625 1_655
O12 W2 1.966174 1_555
O13 W5 1.914282 1_545
O13 W4 1.919032 1_545
O14 W3 1.880740 1_556
O14 W1 1.996125 1_656
O15 W1 1.926837 1_656
O15 W4 1.993258 1_546
O16 W5 1.925368 1_545
O16 W0 1.995065 1_655
O17 W1 1.915437 1_655
O17 W0 1.917805 1_655
