# generated using pymatgen
data_Na5Fe2P2(CO7)2
_symmetry_space_group_name_H-M   'P 1'
_cell_length_a   6.61312800
_cell_length_b   10.37815200
_cell_length_c   10.50173519
_cell_angle_alpha   59.93982813
_cell_angle_beta   90.00000000
_cell_angle_gamma   90.00000000
_symmetry_Int_Tables_number   1
_chemical_formula_structural   Na5Fe2P2(CO7)2
_chemical_formula_sum   'Na10 Fe4 P4 C4 O28'
_cell_volume   623.81383846
_cell_formula_units_Z   2
loop_
 _symmetry_equiv_pos_site_id
 _symmetry_equiv_pos_as_xyz
  1  'x, y, z'
loop_
 _atom_site_type_symbol
 _atom_site_label
 _atom_site_symmetry_multiplicity
 _atom_site_fract_x
 _atom_site_fract_y
 _atom_site_fract_z
 _atom_site_occupancy
  Na  Na0  1  0.49866600  0.08719400  0.57217600  1
  Na  Na1  1  0.50133400  0.08719400  0.07217600  1
  Na  Na2  1  0.26641000  0.26649000  0.74120300  1
  Na  Na3  1  0.73359000  0.26649000  0.24120300  1
  Na  Na4  1  0.74887600  0.73926100  0.75629300  1
  Na  Na5  1  0.25117700  0.73942800  0.75645600  1
  Na  Na6  1  0.74882300  0.73942800  0.25645600  1
  Na  Na7  1  0.25112400  0.73926100  0.25629300  1
  Na  Na8  1  0.99126800  0.92597000  0.91616200  1
  Na  Na9  1  0.00873200  0.92597000  0.41616200  1
  Fe  Fe0  1  0.99606400  0.34697000  0.93300800  1
  Fe  Fe1  1  0.00393600  0.34697000  0.43300800  1
  Fe  Fe2  1  0.50056800  0.64642200  0.56568200  1
  Fe  Fe3  1  0.49943200  0.64642200  0.06568200  1
  P  P0  1  0.49838900  0.41821900  0.94025500  1
  P  P1  1  0.50161100  0.41821900  0.44025500  1
  P  P2  1  0.00014200  0.57982200  0.56563900  1
  P  P3  1  0.99985800  0.57982200  0.06563900  1
  C  C0  1  0.99868000  0.06234900  0.60331600  1
  C  C1  1  0.00132000  0.06234900  0.10331600  1
  C  C2  1  0.49556400  0.93702700  0.89523400  1
  C  C3  1  0.50443600  0.93702700  0.39523400  1
  O  O0  1  0.48473500  0.07768800  0.81479900  1
  O  O1  1  0.51526500  0.07768800  0.31479900  1
  O  O2  1  0.01621700  0.12656300  0.96045700  1
  O  O3  1  0.98378300  0.12656300  0.46045700  1
  O  O4  1  0.01214700  0.15029700  0.65735600  1
  O  O5  1  0.98785300  0.15029700  0.15735600  1
  O  O6  1  0.31032500  0.32298600  0.94631700  1
  O  O7  1  0.69128300  0.32192200  0.95752900  1
  O  O8  1  0.30871700  0.32192200  0.45752900  1
  O  O9  1  0.68967500  0.32298600  0.44631700  1
  O  O10  1  0.00655500  0.43313000  0.71613100  1
  O  O11  1  0.99344500  0.43313000  0.21613100  1
  O  O12  1  0.50193500  0.44727800  0.57032800  1
  O  O13  1  0.49806500  0.44727800  0.07032800  1
  O  O14  1  0.00066700  0.53918700  0.93912200  1
  O  O15  1  0.99933300  0.53918700  0.43912200  1
  O  O16  1  0.50080700  0.56759000  0.79386100  1
  O  O17  1  0.49919300  0.56759000  0.29386100  1
  O  O18  1  0.81457500  0.67748900  0.54807700  1
  O  O19  1  0.18400200  0.68085300  0.54475800  1
  O  O20  1  0.18542500  0.67748900  0.04807700  1
  O  O21  1  0.81599800  0.68085300  0.04475800  1
  O  O22  1  0.50176500  0.85058700  0.83711800  1
  O  O23  1  0.49823500  0.85058700  0.33711800  1
  O  O24  1  0.49790800  0.87283800  0.53980000  1
  O  O25  1  0.50209200  0.87283800  0.03980000  1
  O  O26  1  0.00030500  0.91896100  0.68545300  1
  O  O27  1  0.99969500  0.91896100  0.18545300  1
loop_
_geom_bond_atom_site_label_1
_geom_bond_atom_site_label_2
_geom_bond_distance
_geom_bond_site_symmetry_2
Na0 O24 2.412947 1_545
Na0 O8 2.454287 1_555
Na0 O9 2.467898 1_555
Na0 O0 2.501701 1_555
Na0 O22 2.631916 1_545
Na0 O1 2.755833 1_555
Na1 O25 2.412947 1_545
Na1 O7 2.454287 1_554
Na1 O6 2.467898 1_554
Na1 O1 2.501701 1_555
Na1 O23 2.631916 1_545
Na1 O0 2.755833 1_554
Na2 O0 2.236983 1_555
Na2 O10 2.357352 1_555
Na2 O12 2.406956 1_555
Na2 O4 2.473978 1_555
Na2 O6 2.516611 1_555
Na2 O2 2.607359 1_555
Na2 O8 2.750847 1_555
Na3 O1 2.236983 1_555
Na3 O11 2.357352 1_555
Na3 O13 2.406956 1_555
Na3 O5 2.473978 1_555
Na3 O9 2.516611 1_555
Na3 O3 2.607359 1_555
Na3 O7 2.750847 1_554
Na4 O16 2.305851 1_555
Na4 O26 2.325132 1_655
Na4 O22 2.389206 1_555
Na4 O24 2.586088 1_555
Na4 O14 2.603186 1_655
Na4 O18 2.604890 1_555
Na4 O21 2.811047 1_556
Na5 O16 2.314763 1_555
Na5 O26 2.321247 1_555
Na5 O22 2.402838 1_555
Na5 O24 2.569083 1_555
Na5 O14 2.597941 1_555
Na5 O19 2.619815 1_555
Na5 O20 2.830043 1_556
Na6 O17 2.314763 1_555
Na6 O27 2.321247 1_555
Na6 O23 2.402838 1_555
Na6 O25 2.569083 1_555
Na6 O15 2.597941 1_555
Na6 O21 2.619815 1_555
Na6 O18 2.830043 1_555
Na7 O17 2.305851 1_555
Na7 O27 2.325132 1_455
Na7 O23 2.389206 1_555
Na7 O25 2.586088 1_555
Na7 O15 2.603186 1_455
Na7 O20 2.604890 1_555
Na7 O19 2.811047 1_555
Na8 O2 2.355332 1_665
Na8 O26 2.460813 1_655
Na8 O21 2.489341 1_556
Na8 O4 2.546975 1_665
Na8 O20 2.576603 1_656
Na8 O27 2.792852 1_556
Na9 O3 2.355332 1_465
Na9 O27 2.460813 1_455
Na9 O19 2.489341 1_555
Na9 O5 2.546975 1_465
Na9 O18 2.576603 1_455
Na9 O26 2.792852 1_555
Fe0 O10 1.987835 1_655
Fe0 O14 2.028010 1_655
Fe0 O7 2.032066 1_555
Fe0 O6 2.089439 1_655
Fe0 O2 2.161611 1_655
Fe0 O5 2.214118 1_556
Fe1 O11 1.987835 1_455
Fe1 O15 2.028010 1_455
Fe1 O8 2.032066 1_555
Fe1 O9 2.089439 1_455
Fe1 O3 2.161611 1_455
Fe1 O4 2.214118 1_555
Fe2 O12 2.042763 1_555
Fe2 O18 2.095365 1_555
Fe2 O16 2.108897 1_555
Fe2 O19 2.116604 1_555
Fe2 O24 2.226164 1_555
Fe2 O23 2.270713 1_555
Fe3 O13 2.042763 1_555
Fe3 O20 2.095365 1_555
Fe3 O17 2.108897 1_555
Fe3 O21 2.116604 1_555
Fe3 O25 2.226164 1_555
Fe3 O22 2.270713 1_554
C0 O26 1.293316 1_645
C0 O4 1.296930 1_655
C0 O3 1.304989 1_555
C1 O27 1.293316 1_445
C1 O5 1.296930 1_455
C1 O2 1.304989 1_554
C2 O0 1.270563 1_565
C2 O22 1.314322 1_555
C2 O25 1.318084 1_556
C3 O1 1.270563 1_565
C3 O23 1.314322 1_555
C3 O24 1.318084 1_555
O6 P0 1.569907 1_555
O7 P0 1.573942 1_555
O8 P1 1.573942 1_555
O9 P1 1.569907 1_555
O10 P2 1.551393 1_555
O11 P3 1.551393 1_555
O12 P1 1.539348 1_555
O13 P0 1.539348 1_554
O14 P3 1.582564 1_456
O15 P2 1.582564 1_655
O16 P0 1.542511 1_555
O17 P1 1.542511 1_555
O18 P2 1.542755 1_655
O19 P2 1.547745 1_555
O20 P3 1.542755 1_455
O21 P3 1.547745 1_555
