# generated using pymatgen
data_Li4ScFe3(SiO3)8
_symmetry_space_group_name_H-M   'P 1'
_cell_length_a   7.35671400
_cell_length_b   9.55470459
_cell_length_c   13.92239309
_cell_angle_alpha   106.17962573
_cell_angle_beta   90.06529857
_cell_angle_gamma   110.11470742
_symmetry_Int_Tables_number   1
_chemical_formula_structural   Li4ScFe3(SiO3)8
_chemical_formula_sum   'Li8 Sc2 Fe6 Si16 O48'
_cell_volume   877.41916372
_cell_formula_units_Z   2
loop_
 _symmetry_equiv_pos_site_id
 _symmetry_equiv_pos_as_xyz
  1  'x, y, z'
loop_
 _atom_site_type_symbol
 _atom_site_label
 _atom_site_symmetry_multiplicity
 _atom_site_fract_x
 _atom_site_fract_y
 _atom_site_fract_z
 _atom_site_occupancy
  Li  Li0  1  0.06409900  0.93646900  0.31463000  1
  Li  Li1  1  0.43797100  0.56308300  0.18831200  1
  Li  Li2  1  0.81324500  0.18903700  0.06272600  1
  Li  Li3  1  0.31184700  0.68611200  0.56204700  1
  Li  Li4  1  0.18862800  0.80953700  0.93576700  1
  Li  Li5  1  0.68835900  0.31301500  0.43697600  1
  Li  Li6  1  0.56148000  0.43841600  0.81036500  1
  Li  Li7  1  0.93927200  0.05932300  0.68418100  1
  Sc  Sc0  1  0.01101000  0.98923600  0.11446200  1
  Sc  Sc1  1  0.76213000  0.23799300  0.86270700  1
  Fe  Fe0  1  0.24064500  0.75955500  0.13625900  1
  Fe  Fe1  1  0.26032800  0.73940700  0.36483000  1
  Fe  Fe2  1  0.48942800  0.51124900  0.38609600  1
  Fe  Fe3  1  0.51128700  0.48860600  0.61328900  1
  Fe  Fe4  1  0.73921400  0.26068000  0.63401500  1
  Fe  Fe5  1  0.99054700  0.00892700  0.88397900  1
  Si  Si0  1  0.65585500  0.93474300  0.27493400  1
  Si  Si1  1  0.80540100  0.60261700  0.01428100  1
  Si  Si2  1  0.69180200  0.89887400  0.48790900  1
  Si  Si3  1  0.84093300  0.56695200  0.22842600  1
  Si  Si4  1  0.90764300  0.68535800  0.52275400  1
  Si  Si5  1  0.55475100  0.84821400  0.76221700  1
  Si  Si6  1  0.94430900  0.64835900  0.73616100  1
  Si  Si7  1  0.58913300  0.81601800  0.97653700  1
  Si  Si8  1  0.40822600  0.18448900  0.02344400  1
  Si  Si9  1  0.05608900  0.35531100  0.26487300  1
  Si  Si10  1  0.44582400  0.14910600  0.23876000  1
  Si  Si11  1  0.09210700  0.31518400  0.47720400  1
  Si  Si12  1  0.16002800  0.43499200  0.77127300  1
  Si  Si13  1  0.30548300  0.10070600  0.51274300  1
  Si  Si14  1  0.19836500  0.39868500  0.98706200  1
  Si  Si15  1  0.34016900  0.06428200  0.72523200  1
  O  O0  1  0.79856500  0.96473300  0.00191100  1
  O  O1  1  0.82574200  0.90615800  0.20791700  1
  O  O2  1  0.73995900  0.96647200  0.39121600  1
  O  O3  1  0.41752500  0.84117000  0.04430600  1
  O  O4  1  0.24092500  0.99584700  0.20904300  1
  O  O5  1  0.86596100  0.84029700  0.51491700  1
  O  O6  1  0.30001700  0.96038300  0.41424500  1
  O  O7  1  0.44452500  0.78685300  0.24649900  1
  O  O8  1  0.99284900  0.71519500  0.63882100  1
  O  O9  1  0.75751700  0.53599700  0.11187400  1
  O  O10  1  0.95053100  0.78772200  0.83563100  1
  O  O11  1  0.66826400  0.59272400  0.29517200  1
  O  O12  1  0.01601100  0.75047600  0.04502900  1
  O  O13  1  0.48500600  0.74647100  0.45606300  1
  O  O14  1  0.88062600  0.41259600  0.23854500  1
  O  O15  1  0.38484000  0.91159400  0.73563000  1
  O  O16  1  0.54645100  0.70821200  0.66292500  1
  O  O17  1  0.05315900  0.71404600  0.25570600  1
  O  O18  1  0.69652300  0.53672100  0.49494300  1
  O  O19  1  0.20439300  0.53931900  0.08588600  1
  O  O20  1  0.50267000  0.78212900  0.85984200  1
  O  O21  1  0.37315000  0.34118300  0.01407400  1
  O  O22  1  0.91924100  0.34086900  0.54365000  1
  O  O23  1  0.26405100  0.50664000  0.29665100  1
  O  O24  1  0.73702700  0.49613100  0.70399000  1
  O  O25  1  0.07931900  0.65965600  0.45547300  1
  O  O26  1  0.63349900  0.66434400  0.98875000  1
  O  O27  1  0.48796400  0.21385400  0.14037300  1
  O  O28  1  0.79784700  0.46427400  0.91464500  1
  O  O29  1  0.30357900  0.46321300  0.50507500  1
  O  O30  1  0.95009000  0.28608400  0.74078100  1
  O  O31  1  0.45216900  0.29079900  0.33687400  1
  O  O32  1  0.62088800  0.09160100  0.26557500  1
  O  O33  1  0.11819500  0.58972200  0.76332300  1
  O  O34  1  0.51298800  0.25278100  0.54427200  1
  O  O35  1  0.99305500  0.24558300  0.95696700  1
  O  O36  1  0.33399700  0.41095800  0.70549400  1
  O  O37  1  0.05171300  0.21692600  0.16594000  1
  O  O38  1  0.24112500  0.46269700  0.88800300  1
  O  O39  1  0.00824700  0.28677100  0.36142700  1
  O  O40  1  0.54874100  0.21399900  0.75129200  1
  O  O41  1  0.69833800  0.03924300  0.58672800  1
  O  O42  1  0.13217200  0.15977900  0.48525400  1
  O  O43  1  0.76476900  0.99698100  0.79262000  1
  O  O44  1  0.58074100  0.15785600  0.95809800  1
  O  O45  1  0.25306800  0.03265500  0.60931900  1
  O  O46  1  0.16830500  0.08943300  0.79262800  1
  O  O47  1  0.19805400  0.03631900  0.99214800  1
loop_
_geom_bond_atom_site_label_1
_geom_bond_atom_site_label_2
_geom_bond_distance
_geom_bond_site_symmetry_2
Li0 O17 2.026447 1_555
Li0 O4 2.033865 1_555
Li0 O6 2.129093 1_555
Li0 O1 2.184262 1_455
Li1 O23 2.046002 1_555
Li1 O7 2.047832 1_555
Li1 O19 2.140903 1_555
Li1 O11 2.143206 1_555
Li2 O0 2.037401 1_545
Li2 O35 2.041069 1_554
Li2 O44 2.130331 1_554
Li2 O37 2.161705 1_655
Li3 O13 2.026289 1_555
Li3 O29 2.034200 1_555
Li3 O16 2.138790 1_555
Li3 O25 2.163222 1_555
Li4 O12 2.057913 1_556
Li4 O47 2.065133 1_565
Li4 O3 2.144777 1_556
Li4 O10 2.153269 1_455
Li5 O18 2.042998 1_555
Li5 O34 2.049396 1_555
Li5 O31 2.140670 1_555
Li5 O22 2.150487 1_555
Li6 O24 2.033459 1_555
Li6 O40 2.040038 1_555
Li6 O36 2.116662 1_555
Li6 O28 2.165967 1_555
Li7 O30 2.061883 1_555
Li7 O43 2.064411 1_545
Li7 O46 2.149442 1_655
Li7 O41 2.152883 1_555
Li7 O5 2.587695 1_545
Li7 O45 2.596631 1_655
Fe0 O19 1.944771 1_555
Fe0 O3 1.950004 1_555
Fe0 O7 2.043502 1_555
Fe0 O12 2.046210 1_555
Fe0 O4 2.201332 1_555
Fe0 O17 2.202891 1_555
Fe1 O6 1.944845 1_555
Fe1 O25 1.946348 1_555
Fe1 O13 2.054428 1_555
Fe1 O17 2.055544 1_555
Fe1 O23 2.171055 1_555
Fe1 O7 2.180514 1_555
Fe2 O31 1.944077 1_555
Fe2 O11 1.946262 1_555
Fe2 O18 2.052081 1_555
Fe2 O23 2.053356 1_555
Fe2 O29 2.195710 1_555
Fe2 O13 2.198038 1_555
Fe3 O16 1.940457 1_555
Fe3 O36 1.941264 1_555
Fe3 O29 2.049312 1_555
Fe3 O24 2.054314 1_555
Fe3 O18 2.186211 1_555
Fe3 O34 2.193934 1_555
Fe4 O22 1.940865 1_555
Fe4 O41 1.945762 1_555
Fe4 O34 2.047665 1_555
Fe4 O30 2.051777 1_555
Fe4 O40 2.193083 1_555
Fe4 O24 2.194053 1_555
Fe5 O46 1.943315 1_655
Fe5 O10 1.945658 1_545
Fe5 O47 2.041363 1_655
Fe5 O43 2.042938 1_545
Fe5 O35 2.199227 1_555
Fe5 O0 2.202351 1_546
O0 Si7 1.652549 1_554
O0 Sc0 2.119241 1_655
O1 Si0 1.613257 1_555
O1 Sc0 2.004037 1_655
O2 Si2 1.638043 1_555
O2 Si0 1.640375 1_555
O3 Si7 1.620747 1_554
O4 Si10 1.652398 1_565
O4 Sc0 2.115164 1_555
O5 Si4 1.643070 1_555
O5 Si2 1.644874 1_555
O6 Si13 1.617991 1_565
O7 Si0 1.657208 1_555
O8 Si6 1.642702 1_555
O8 Si4 1.644224 1_555
O9 Si3 1.643956 1_555
O9 Si1 1.644467 1_555
O10 Si6 1.619651 1_555
O11 Si3 1.621135 1_555
O12 Si1 1.653983 1_455
O12 Sc0 2.229098 1_555
O13 Si2 1.657234 1_555
O14 Si3 1.640774 1_555
O14 Si9 1.642214 1_655
O15 Si15 1.644585 1_565
O15 Si5 1.646424 1_555
O16 Si5 1.617767 1_555
O17 Si3 1.658027 1_455
O18 Si4 1.659568 1_555
O19 Si14 1.621451 1_554
O20 Si5 1.644968 1_555
O20 Si7 1.646760 1_555
O21 Si14 1.642142 1_554
O21 Si8 1.643045 1_555
O22 Si11 1.619914 1_655
O23 Si9 1.657552 1_555
O24 Si6 1.658729 1_555
O25 Si4 1.618845 1_455
O26 Si7 1.642606 1_555
O26 Si1 1.643868 1_556
O27 Si10 1.642089 1_555
O27 Si8 1.644100 1_555
O28 Si1 1.613070 1_556
O28 Sc1 2.000982 1_555
O29 Si11 1.658516 1_555
O30 Si12 1.655402 1_655
O30 Sc1 2.237794 1_555
O31 Si10 1.620716 1_555
O32 Si10 1.643126 1_555
O32 Si0 1.644165 1_545
O33 Si12 1.642157 1_555
O33 Si6 1.644154 1_455
O34 Si13 1.658836 1_555
O35 Si14 1.653507 1_655
O35 Sc1 2.114400 1_555
O36 Si12 1.617724 1_555
O37 Si9 1.613124 1_555
O37 Sc0 2.004666 1_545
O38 Si14 1.647360 1_555
O38 Si12 1.648204 1_555
O39 Si11 1.640480 1_555
O39 Si9 1.641018 1_555
O40 Si15 1.652923 1_555
O40 Sc1 2.114663 1_555
O41 Si2 1.618972 1_545
O42 Si11 1.642528 1_555
O42 Si13 1.644661 1_555
O43 Si5 1.655129 1_555
O43 Sc1 2.243642 1_565
O44 Si8 1.612114 1_556
O44 Sc1 1.999682 1_555
O45 Si13 1.641730 1_555
O45 Si15 1.642834 1_555
O46 Si15 1.619504 1_555
O47 Si8 1.653451 1_556
O47 Sc0 2.236565 1_546
