# generated using pymatgen
data_Na3Ni2P2(CO7)2
_symmetry_space_group_name_H-M   'P 1'
_cell_length_a   6.49951600
_cell_length_b   8.80231900
_cell_length_c   10.27206498
_cell_angle_alpha   88.37108360
_cell_angle_beta   90.00000000
_cell_angle_gamma   90.00000000
_symmetry_Int_Tables_number   1
_chemical_formula_structural   Na3Ni2P2(CO7)2
_chemical_formula_sum   'Na6 Ni4 P4 C4 O28'
_cell_volume   587.43570958
_cell_formula_units_Z   2
loop_
 _symmetry_equiv_pos_site_id
 _symmetry_equiv_pos_as_xyz
  1  'x, y, z'
loop_
 _atom_site_type_symbol
 _atom_site_label
 _atom_site_symmetry_multiplicity
 _atom_site_fract_x
 _atom_site_fract_y
 _atom_site_fract_z
 _atom_site_occupancy
  Na  Na0  1  0.98533100  0.74355800  0.87297100  1
  Na  Na1  1  0.51246800  0.74436800  0.87574500  1
  Na  Na2  1  0.52822300  0.74357500  0.37780100  1
  Na  Na3  1  0.02822300  0.25642500  0.62219900  1
  Na  Na4  1  0.48533100  0.25644200  0.12702900  1
  Na  Na5  1  0.01246800  0.25563200  0.12425500  1
  Ni  Ni0  1  0.24539800  0.65747300  0.60673300  1
  Ni  Ni1  1  0.24545600  0.65666000  0.11197100  1
  Ni  Ni2  1  0.74545600  0.34334000  0.88802900  1
  Ni  Ni3  1  0.74539800  0.34252700  0.39326700  1
  P  P0  1  0.74927300  0.57493500  0.63990300  1
  P  P1  1  0.74824700  0.57651900  0.14033800  1
  P  P2  1  0.24824700  0.42348100  0.85966200  1
  P  P3  1  0.24927300  0.42506500  0.36009700  1
  C  C0  1  0.25365000  0.92968500  0.64293300  1
  C  C1  1  0.24910300  0.92823800  0.14400900  1
  C  C2  1  0.74910300  0.07176200  0.85599100  1
  C  C3  1  0.75365000  0.07031500  0.35706700  1
  O  O0  1  0.74951900  0.93148100  0.83990100  1
  O  O1  1  0.75299300  0.93195000  0.33568800  1
  O  O2  1  0.25548700  0.87278100  0.52876900  1
  O  O3  1  0.24650500  0.86746700  0.02979400  1
  O  O4  1  0.25113500  0.82611500  0.73731600  1
  O  O5  1  0.25130400  0.82727100  0.23829800  1
  O  O6  1  0.93523500  0.68022800  0.61321600  1
  O  O7  1  0.56210800  0.67592600  0.60471700  1
  O  O8  1  0.93461600  0.67564000  0.10108000  1
  O  O9  1  0.56127800  0.67780000  0.10395000  1
  O  O10  1  0.24765100  0.57487800  0.93358300  1
  O  O11  1  0.25698900  0.57411500  0.43259600  1
  O  O12  1  0.74575300  0.53681300  0.79037100  1
  O  O13  1  0.74212400  0.53370100  0.28756100  1
  O  O14  1  0.24212400  0.46629900  0.71243900  1
  O  O15  1  0.24575300  0.46318700  0.20962900  1
  O  O16  1  0.75698900  0.42588500  0.56740400  1
  O  O17  1  0.74765100  0.42512200  0.06641700  1
  O  O18  1  0.43461600  0.32436000  0.89892000  1
  O  O19  1  0.06127800  0.32220000  0.89605000  1
  O  O20  1  0.43523500  0.31977200  0.38678400  1
  O  O21  1  0.06210800  0.32407400  0.39528300  1
  O  O22  1  0.75130400  0.17272900  0.76170200  1
  O  O23  1  0.75113500  0.17388500  0.26268400  1
  O  O24  1  0.74650500  0.13253300  0.97020600  1
  O  O25  1  0.75548700  0.12721900  0.47123100  1
  O  O26  1  0.25299300  0.06805000  0.66431200  1
  O  O27  1  0.24951900  0.06851900  0.16009900  1
loop_
_geom_bond_atom_site_label_1
_geom_bond_atom_site_label_2
_geom_bond_distance
_geom_bond_site_symmetry_2
Na0 O0 2.273488 1_555
Na0 O4 2.323107 1_655
Na0 O10 2.333776 1_655
Na0 O8 2.424206 1_556
Na0 O12 2.558159 1_555
Na0 O3 2.601152 1_656
Na0 O6 2.760567 1_555
Na1 O0 2.277630 1_555
Na1 O4 2.316588 1_555
Na1 O10 2.343252 1_555
Na1 O9 2.420923 1_556
Na1 O12 2.548910 1_555
Na1 O3 2.600718 1_556
Na1 O7 2.883252 1_555
Na2 O1 2.242763 1_555
Na2 O11 2.366823 1_555
Na2 O7 2.399428 1_555
Na2 O5 2.403248 1_555
Na2 O13 2.510419 1_555
Na2 O2 2.634555 1_555
Na2 O9 2.896034 1_555
Na3 O26 2.242763 1_555
Na3 O16 2.366823 1_455
Na3 O21 2.399428 1_555
Na3 O22 2.403248 1_455
Na3 O14 2.510419 1_555
Na3 O25 2.634555 1_455
Na3 O19 2.896034 1_555
Na4 O27 2.273488 1_555
Na4 O23 2.323107 1_555
Na4 O17 2.333776 1_555
Na4 O18 2.424206 1_554
Na4 O15 2.558159 1_555
Na4 O24 2.601152 1_554
Na4 O20 2.760567 1_555
Na5 O27 2.277630 1_555
Na5 O23 2.316588 1_455
Na5 O17 2.343252 1_455
Na5 O19 2.420923 1_554
Na5 O15 2.548910 1_555
Na5 O24 2.600718 1_454
Na5 O21 2.883252 1_555
Ni0 O11 1.954044 1_555
Ni0 O14 1.976691 1_555
Ni0 O6 2.027117 1_455
Ni0 O4 2.029137 1_555
Ni0 O2 2.037448 1_555
Ni0 O7 2.064918 1_555
Ni1 O15 1.951777 1_555
Ni1 O10 1.987750 1_554
Ni1 O5 2.012815 1_555
Ni1 O3 2.016622 1_555
Ni1 O8 2.030028 1_455
Ni1 O9 2.062542 1_555
Ni2 O12 1.951777 1_555
Ni2 O17 1.987750 1_556
Ni2 O22 2.012815 1_555
Ni2 O24 2.016622 1_555
Ni2 O18 2.030028 1_555
Ni2 O19 2.062542 1_655
Ni3 O16 1.954044 1_555
Ni3 O13 1.976691 1_555
Ni3 O20 2.027117 1_555
Ni3 O23 2.029137 1_555
Ni3 O25 2.037448 1_555
Ni3 O21 2.064918 1_655
C0 O26 1.243709 1_565
C0 O2 1.288274 1_555
C0 O4 1.311900 1_555
C1 O27 1.250461 1_565
C1 O5 1.295842 1_555
C1 O3 1.303290 1_555
C2 O0 1.250461 1_545
C2 O22 1.295842 1_555
C2 O24 1.303290 1_555
C3 O1 1.243709 1_545
C3 O25 1.288274 1_555
C3 O23 1.311900 1_555
O6 P0 1.542909 1_555
O7 P0 1.543514 1_555
O8 P1 1.539848 1_555
O9 P1 1.546701 1_555
O10 P2 1.552435 1_555
O11 P3 1.527733 1_555
O12 P0 1.572441 1_555
O13 P1 1.548624 1_555
O14 P2 1.548624 1_555
O15 P3 1.572441 1_555
O16 P0 1.527733 1_555
O17 P1 1.552435 1_555
O18 P2 1.539848 1_555
O19 P2 1.546701 1_555
O20 P3 1.542909 1_555
O21 P3 1.543514 1_555
