# generated using pymatgen
data_Li4V3CrO8
_symmetry_space_group_name_H-M   'P 1'
_cell_length_a   5.18574900
_cell_length_b   7.91083146
_cell_length_c   7.92026920
_cell_angle_alpha   81.72194816
_cell_angle_beta   83.76866568
_cell_angle_gamma   70.94230843
_symmetry_Int_Tables_number   1
_chemical_formula_structural   Li4V3CrO8
_chemical_formula_sum   'Li8 V6 Cr2 O16'
_cell_volume   303.25110002
_cell_formula_units_Z   2
loop_
 _symmetry_equiv_pos_site_id
 _symmetry_equiv_pos_as_xyz
  1  'x, y, z'
loop_
 _atom_site_type_symbol
 _atom_site_label
 _atom_site_symmetry_multiplicity
 _atom_site_fract_x
 _atom_site_fract_y
 _atom_site_fract_z
 _atom_site_occupancy
  Li  Li0  1  0.99924500  0.75114900  0.74801700  1
  Li  Li1  1  0.00000000  0.50000000  0.50000000  1
  Li  Li2  1  0.00015600  0.62422900  0.12429900  1
  Li  Li3  1  0.00159300  0.12373100  0.62314000  1
  Li  Li4  1  0.00075500  0.24885100  0.25198300  1
  Li  Li5  1  0.99984400  0.37577100  0.87570100  1
  Li  Li6  1  0.99840700  0.87626900  0.37686000  1
  Li  Li7  1  0.00000000  0.00000000  0.00000000  1
  V  V0  1  0.49929200  0.43764300  0.68802000  1
  V  V1  1  0.50070800  0.56235700  0.31198000  1
  V  V2  1  0.50029800  0.68779300  0.93703100  1
  V  V3  1  0.49970200  0.31220700  0.06296900  1
  V  V4  1  0.49879900  0.93727400  0.18766000  1
  V  V5  1  0.50120100  0.06272600  0.81234000  1
  Cr  Cr0  1  0.49973800  0.18642400  0.43799700  1
  Cr  Cr1  1  0.50026200  0.81357600  0.56200300  1
  O  O0  1  0.72631700  0.60199700  0.71904900  1
  O  O1  1  0.27428700  0.65278500  0.53107600  1
  O  O2  1  0.72518900  0.72426400  0.34505000  1
  O  O3  1  0.27481100  0.27573600  0.65495000  1
  O  O4  1  0.72571300  0.34721500  0.46892400  1
  O  O5  1  0.73018800  0.47084100  0.09528200  1
  O  O6  1  0.27368300  0.39800300  0.28095100  1
  O  O7  1  0.72577200  0.97351900  0.59199400  1
  O  O8  1  0.72736900  0.09839100  0.22233400  1
  O  O9  1  0.26981200  0.52915900  0.90471800  1
  O  O10  1  0.27422800  0.02648100  0.40800600  1
  O  O11  1  0.72889000  0.22259800  0.84499000  1
  O  O12  1  0.26850400  0.15233500  0.03380200  1
  O  O13  1  0.73149600  0.84766500  0.96619800  1
  O  O14  1  0.27111000  0.77740200  0.15501000  1
  O  O15  1  0.27263100  0.90160900  0.77766600  1
loop_
_geom_bond_atom_site_label_1
_geom_bond_atom_site_label_2
_geom_bond_distance
_geom_bond_site_symmetry_2
Li0 O13 2.159573 1_555
Li0 O0 2.164955 1_555
Li0 O1 2.172637 1_655
Li0 O9 2.175853 1_655
Li0 O15 2.176352 1_655
Li0 O7 2.181308 1_555
Li1 O3 2.187731 1_555
Li1 O2 2.187731 1_455
Li1 O0 2.189985 1_455
Li1 O6 2.189985 1_555
Li1 O1 2.197489 1_555
Li1 O4 2.197489 1_455
Li2 O9 2.169694 1_554
Li2 O5 2.178235 1_455
Li2 O13 2.183238 1_454
Li2 O14 2.184646 1_555
Li2 O2 2.199252 1_455
Li2 O6 2.199795 1_555
Li3 O10 2.153668 1_555
Li3 O15 2.168499 1_545
Li3 O4 2.184047 1_455
Li3 O7 2.188549 1_445
Li3 O3 2.189570 1_555
Li3 O11 2.198416 1_455
Li4 O12 2.159573 1_555
Li4 O6 2.164955 1_555
Li4 O4 2.172637 1_455
Li4 O5 2.175853 1_455
Li4 O8 2.176352 1_455
Li4 O10 2.181308 1_555
Li5 O5 2.169694 1_556
Li5 O9 2.178235 1_655
Li5 O12 2.183238 1_656
Li5 O11 2.184646 1_555
Li5 O3 2.199252 1_655
Li5 O0 2.199795 1_555
Li6 O7 2.153668 1_555
Li6 O8 2.168499 1_565
Li6 O1 2.184047 1_655
Li6 O10 2.188549 1_665
Li6 O2 2.189570 1_555
Li6 O14 2.198416 1_655
Li7 O11 2.172601 1_454
Li7 O14 2.172601 1_545
Li7 O12 2.175385 1_555
Li7 O13 2.175385 1_444
Li7 O8 2.200267 1_455
Li7 O15 2.200267 1_544
Cr0 O7 2.031727 1_545
Cr0 O10 2.034227 1_555
Cr0 O6 2.039256 1_555
Cr0 O8 2.040597 1_555
Cr0 O4 2.043681 1_555
Cr0 O3 2.046624 1_555
Cr1 O10 2.031727 1_565
Cr1 O7 2.034227 1_555
Cr1 O0 2.039256 1_555
Cr1 O15 2.040597 1_555
Cr1 O1 2.043681 1_555
Cr1 O2 2.046624 1_555
O0 V2 2.047872 1_555
O0 V0 2.071546 1_555
O1 V0 2.052333 1_555
O1 V1 2.065982 1_555
O2 V4 2.047598 1_555
O2 V1 2.049564 1_555
O3 V5 2.047598 1_555
O3 V0 2.049564 1_555
O4 V1 2.052333 1_555
O4 V0 2.065982 1_555
O5 V3 2.051184 1_555
O5 V1 2.058589 1_555
O5 V2 2.075231 1_554
O6 V3 2.047872 1_555
O6 V1 2.071546 1_555
O7 V5 2.068018 1_565
O8 V3 2.062211 1_555
O8 V4 2.064689 1_545
O9 V2 2.051184 1_555
O9 V0 2.058589 1_555
O9 V3 2.075231 1_556
O10 V4 2.068018 1_545
O11 V5 2.048458 1_555
O11 V0 2.060800 1_555
O11 V3 2.062156 1_556
O12 V4 2.048846 1_545
O12 V3 2.055432 1_555
O12 V5 2.091709 1_554
O13 V5 2.048846 1_565
O13 V2 2.055432 1_555
O13 V4 2.091709 1_556
O14 V4 2.048458 1_555
O14 V1 2.060800 1_555
O14 V2 2.062156 1_554
O15 V2 2.062211 1_555
O15 V5 2.064689 1_565
