# generated using pymatgen
data_CrFe3Sb2(PO4)6
_symmetry_space_group_name_H-M   'P 1'
_cell_length_a   8.84389740
_cell_length_b   8.84389740
_cell_length_c   8.84389703
_cell_angle_alpha   58.71554481
_cell_angle_beta   58.71554481
_cell_angle_gamma   58.71555014
_symmetry_Int_Tables_number   1
_chemical_formula_structural   CrFe3Sb2(PO4)6
_chemical_formula_sum   'Cr1 Fe3 Sb2 P6 O24'
_cell_volume   474.76643455
_cell_formula_units_Z   1
loop_
 _symmetry_equiv_pos_site_id
 _symmetry_equiv_pos_as_xyz
  1  'x, y, z'
loop_
 _atom_site_type_symbol
 _atom_site_label
 _atom_site_symmetry_multiplicity
 _atom_site_fract_x
 _atom_site_fract_y
 _atom_site_fract_z
 _atom_site_occupancy
  Cr  Cr0  1  0.14553800  0.14553800  0.14553800  1
  Fe  Fe0  1  0.85062000  0.85062000  0.85062000  1
  Fe  Fe1  1  0.64932300  0.64932300  0.64932300  1
  Fe  Fe2  1  0.35099100  0.35099100  0.35099100  1
  Sb  Sb0  1  0.99706000  0.99706000  0.99706000  1
  Sb  Sb1  1  0.50043600  0.50043600  0.50043600  1
  P  P0  1  0.96054400  0.25032000  0.53795200  1
  P  P1  1  0.53795200  0.96054400  0.25032000  1
  P  P2  1  0.25032000  0.53795200  0.96054400  1
  P  P3  1  0.75067800  0.45938900  0.04147800  1
  P  P4  1  0.45938900  0.04147800  0.75067800  1
  P  P5  1  0.04147800  0.75067800  0.45938900  1
  O  O0  1  0.88393200  0.69955200  0.49124300  1
  O  O1  1  0.69955200  0.49124300  0.88393200  1
  O  O2  1  0.94052800  0.08269200  0.73315800  1
  O  O3  1  0.49124300  0.88393200  0.69955200  1
  O  O4  1  0.99175100  0.19912400  0.38231900  1
  O  O5  1  0.76677600  0.41702800  0.56076500  1
  O  O6  1  0.73315800  0.94052800  0.08269200  1
  O  O7  1  0.56076500  0.76677600  0.41702800  1
  O  O8  1  0.80204600  0.61722500  0.00776500  1
  O  O9  1  0.41702800  0.56076500  0.76677600  1
  O  O10  1  0.91828000  0.26769000  0.06104300  1
  O  O11  1  0.61722500  0.00776500  0.80204600  1
  O  O12  1  0.38231900  0.99175100  0.19912400  1
  O  O13  1  0.08269200  0.73315800  0.94052800  1
  O  O14  1  0.58278100  0.43999200  0.23352700  1
  O  O15  1  0.19912400  0.38231900  0.99175100  1
  O  O16  1  0.43999200  0.23352700  0.58278100  1
  O  O17  1  0.26769000  0.06104300  0.91828000  1
  O  O18  1  0.23352700  0.58278100  0.43999200  1
  O  O19  1  0.00776500  0.80204600  0.61722500  1
  O  O20  1  0.50751000  0.11643900  0.30250300  1
  O  O21  1  0.06104300  0.91828000  0.26769000  1
  O  O22  1  0.30250300  0.50751000  0.11643900  1
  O  O23  1  0.11643900  0.30250300  0.50751000  1
loop_
_geom_bond_atom_site_label_1
_geom_bond_atom_site_label_2
_geom_bond_distance
_geom_bond_site_symmetry_2
Cr0 O4 1.965406 1_455
Cr0 O15 1.965406 1_554
Cr0 O12 1.965406 1_545
Cr0 O21 2.057026 1_545
Cr0 O17 2.057026 1_554
Cr0 O10 2.057026 1_455
Fe0 O19 1.923059 1_655
Fe0 O8 1.923059 1_556
Fe0 O11 1.923059 1_565
Fe0 O2 2.132257 1_565
Fe0 O6 2.132257 1_556
Fe0 O13 2.132257 1_655
Fe1 O1 1.938171 1_555
Fe1 O0 1.938171 1_555
Fe1 O3 1.938171 1_555
Fe1 O9 2.126676 1_555
Fe1 O7 2.126676 1_555
Fe1 O5 2.126677 1_555
Fe2 O22 1.930839 1_555
Fe2 O23 1.930839 1_555
Fe2 O20 1.930839 1_555
Fe2 O14 2.125039 1_555
Fe2 O16 2.125039 1_555
Fe2 O18 2.125039 1_555
O0 P5 1.529540 1_655
O1 P3 1.529540 1_556
O2 P0 1.583222 1_555
O2 Sb0 2.292080 1_545
O3 P4 1.529540 1_565
O4 P0 1.516108 1_555
O5 P0 1.573820 1_555
O5 Sb1 2.338596 1_555
O6 P1 1.583222 1_555
O6 Sb0 2.292080 1_554
O7 P1 1.573820 1_555
O7 Sb1 2.338596 1_555
O8 P3 1.526257 1_555
O9 P2 1.573820 1_555
O9 Sb1 2.338596 1_555
O10 P3 1.566234 1_555
O10 Sb0 2.408184 1_544
O11 P4 1.526257 1_555
O12 P1 1.516108 1_555
O13 P2 1.583222 1_555
O13 Sb0 2.292080 1_455
O14 P3 1.568979 1_555
O14 Sb1 2.347122 1_555
O15 P2 1.516108 1_555
O16 P4 1.568979 1_555
O16 Sb1 2.347122 1_555
O17 P4 1.566233 1_555
O17 Sb0 2.408184 1_445
O18 P5 1.568980 1_555
O18 Sb1 2.347122 1_555
O19 P5 1.526257 1_555
O20 P1 1.527289 1_545
O21 P5 1.566233 1_555
O21 Sb0 2.408184 1_454
O22 P2 1.527289 1_554
O23 P0 1.527289 1_455
