# generated using pymatgen
data_Li5Cr2Fe3O10
_symmetry_space_group_name_H-M   'P 1'
_cell_length_a   5.13208100
_cell_length_b   5.14008876
_cell_length_c   7.90888302
_cell_angle_alpha   71.51985281
_cell_angle_beta   71.39325707
_cell_angle_gamma   80.13784577
_symmetry_Int_Tables_number   1
_chemical_formula_structural   Li5Cr2Fe3O10
_chemical_formula_sum   'Li5 Cr2 Fe3 O10'
_cell_volume   186.95837541
_cell_formula_units_Z   1
loop_
 _symmetry_equiv_pos_site_id
 _symmetry_equiv_pos_as_xyz
  1  'x, y, z'
loop_
 _atom_site_type_symbol
 _atom_site_label
 _atom_site_symmetry_multiplicity
 _atom_site_fract_x
 _atom_site_fract_y
 _atom_site_fract_z
 _atom_site_occupancy
  Li  Li0  1  0.49830700  0.78487800  0.41654700  1
  Li  Li1  1  0.51370600  0.61235900  0.77306600  1
  Li  Li2  1  0.00000000  0.50000000  0.50000000  1
  Li  Li3  1  0.48629400  0.38764100  0.22693400  1
  Li  Li4  1  0.50169300  0.21512200  0.58345300  1
  Cr  Cr0  1  0.00517700  0.90180700  0.69109600  1
  Cr  Cr1  1  0.99482300  0.09819300  0.30890400  1
  Fe  Fe0  1  0.00285100  0.31178400  0.88769300  1
  Fe  Fe1  1  0.99714900  0.68821600  0.11230700  1
  Fe  Fe2  1  0.50000000  0.00000000  0.00000000  1
  O  O0  1  0.23849700  0.95057900  0.86036500  1
  O  O1  1  0.76989100  0.86453400  0.54537300  1
  O  O2  1  0.76674900  0.66417000  0.94292700  1
  O  O3  1  0.24937000  0.76915100  0.23195300  1
  O  O4  1  0.23122800  0.54898100  0.66444100  1
  O  O5  1  0.76877200  0.45101900  0.33555900  1
  O  O6  1  0.75063000  0.23084900  0.76804700  1
  O  O7  1  0.23325100  0.33583000  0.05707300  1
  O  O8  1  0.23010900  0.13546600  0.45462700  1
  O  O9  1  0.76150300  0.04942100  0.13963500  1
loop_
_geom_bond_atom_site_label_1
_geom_bond_atom_site_label_2
_geom_bond_distance
_geom_bond_site_symmetry_2
Li0 O8 2.112458 1_565
Li0 O1 2.124749 1_555
Li0 O4 2.130769 1_555
Li0 O5 2.143673 1_555
Li0 O3 2.251786 1_555
Li0 O9 2.307247 1_565
Li1 O4 2.019847 1_555
Li1 O1 2.060279 1_555
Li1 O6 2.127740 1_555
Li1 O0 2.188927 1_555
Li1 O2 2.240696 1_555
Li1 O7 2.398124 1_556
Li2 O1 2.105258 1_455
Li2 O8 2.105258 1_555
Li2 O4 2.111350 1_555
Li2 O5 2.111350 1_455
Li2 O6 2.249864 1_455
Li2 O3 2.249864 1_555
Li3 O5 2.019847 1_555
Li3 O8 2.060279 1_555
Li3 O3 2.127740 1_555
Li3 O9 2.188927 1_555
Li3 O7 2.240696 1_555
Li3 O2 2.398124 1_554
Li4 O1 2.112458 1_545
Li4 O8 2.124749 1_555
Li4 O5 2.130769 1_555
Li4 O4 2.143673 1_555
Li4 O6 2.251786 1_555
Li4 O0 2.307247 1_545
Cr0 O1 1.982511 1_455
Cr0 O8 1.986450 1_565
Cr0 O4 2.011189 1_555
Cr0 O6 2.079855 1_465
Cr0 O2 2.090608 1_455
Cr0 O0 2.151137 1_555
Cr1 O8 1.982511 1_655
Cr1 O1 1.986450 1_545
Cr1 O5 2.011189 1_555
Cr1 O3 2.079855 1_645
Cr1 O7 2.090608 1_655
Cr1 O9 2.151137 1_555
Fe0 O4 1.944725 1_555
Fe0 O6 1.989892 1_455
Fe0 O0 2.067548 1_545
Fe0 O2 2.086105 1_455
Fe0 O7 2.091365 1_556
Fe0 O9 2.148698 1_456
Fe1 O5 1.944725 1_555
Fe1 O3 1.989892 1_655
Fe1 O9 2.067548 1_565
Fe1 O7 2.086105 1_655
Fe1 O2 2.091365 1_554
Fe1 O0 2.148698 1_654
Fe2 O3 2.016151 1_545
Fe2 O6 2.016151 1_554
Fe2 O0 2.079825 1_544
Fe2 O9 2.079825 1_555
Fe2 O7 2.085120 1_555
Fe2 O2 2.085120 1_544
