# generated using pymatgen
data_LiFe3O4
_symmetry_space_group_name_H-M   'P 1'
_cell_length_a   3.06192900
_cell_length_b   5.17628647
_cell_length_c   5.21061180
_cell_angle_alpha   107.15180967
_cell_angle_beta   90.61705131
_cell_angle_gamma   89.97559308
_symmetry_Int_Tables_number   1
_chemical_formula_structural   LiFe3O4
_chemical_formula_sum   'Li1 Fe3 O4'
_cell_volume   78.90744800
_cell_formula_units_Z   1
loop_
 _symmetry_equiv_pos_site_id
 _symmetry_equiv_pos_as_xyz
  1  'x, y, z'
loop_
 _atom_site_type_symbol
 _atom_site_label
 _atom_site_symmetry_multiplicity
 _atom_site_fract_x
 _atom_site_fract_y
 _atom_site_fract_z
 _atom_site_occupancy
  Li  Li0  1  0.50000000  0.50000000  0.00000000  1
  Fe  Fe0  1  0.00000000  0.00000000  0.00000000  1
  Fe  Fe1  1  0.50000000  0.00000000  0.50000000  1
  Fe  Fe2  1  0.00000000  0.50000000  0.50000000  1
  O  O0  1  0.00598500  0.75789300  0.25349600  1
  O  O1  1  0.48931300  0.76365900  0.77613000  1
  O  O2  1  0.51068700  0.23634100  0.22387000  1
  O  O3  1  0.99401500  0.24210700  0.74650400  1
loop_
_geom_bond_atom_site_label_1
_geom_bond_atom_site_label_2
_geom_bond_distance
_geom_bond_site_symmetry_2
Li0 O1 2.040226 1_554
Li0 O2 2.040226 1_555
Li0 O3 2.194568 1_554
Li0 O0 2.194568 1_555
Li0 O0 2.201073 1_655
Li0 O3 2.201073 1_454
Fe0 O0 2.071562 1_545
Fe0 O3 2.071562 1_454
Fe0 O2 2.072793 1_455
Fe0 O1 2.072793 1_544
Fe0 O2 2.103122 1_555
Fe0 O1 2.103122 1_444
Fe1 O0 2.125740 1_545
Fe1 O3 2.125740 1_555
Fe1 O2 2.146413 1_555
Fe1 O1 2.146413 1_545
Fe1 O3 2.170814 1_455
Fe1 O0 2.170814 1_645
Fe2 O0 2.108075 1_555
Fe2 O3 2.108075 1_455
Fe2 O1 2.230389 1_555
Fe2 O2 2.230389 1_455
Fe2 O2 2.294854 1_555
Fe2 O1 2.294854 1_455
