# generated using pymatgen
data_Li5Fe2P2(CO7)2
_symmetry_space_group_name_H-M   'P 1'
_cell_length_a   6.49638800
_cell_length_b   5.04697900
_cell_length_c   8.43464852
_cell_angle_alpha   85.22058100
_cell_angle_beta   90.00000000
_cell_angle_gamma   90.00000000
_symmetry_Int_Tables_number   1
_chemical_formula_structural   Li5Fe2P2(CO7)2
_chemical_formula_sum   'Li5 Fe2 P2 C2 O14'
_cell_volume   275.58635157
_cell_formula_units_Z   1
loop_
 _symmetry_equiv_pos_site_id
 _symmetry_equiv_pos_as_xyz
  1  'x, y, z'
loop_
 _atom_site_type_symbol
 _atom_site_label
 _atom_site_symmetry_multiplicity
 _atom_site_fract_x
 _atom_site_fract_y
 _atom_site_fract_z
 _atom_site_occupancy
  Li  Li0  1  0.26698900  0.24939800  0.25957000  1
  Li  Li1  1  0.73301100  0.24939800  0.25957000  1
  Li  Li2  1  0.76461800  0.74624800  0.74106600  1
  Li  Li3  1  0.23538200  0.74624800  0.74106600  1
  Li  Li4  1  0.00000000  0.23563800  0.91006500  1
  Fe  Fe0  1  0.00000000  0.78794100  0.33712200  1
  Fe  Fe1  1  0.50000000  0.21089500  0.66356300  1
  P  P0  1  0.50000000  0.73681200  0.41769200  1
  P  P1  1  0.00000000  0.28609300  0.58515200  1
  C  C0  1  0.00000000  0.69819300  0.03690900  1
  C  C1  1  0.50000000  0.28498800  0.95372600  1
  O  O0  1  0.00000000  0.94149800  0.07350800  1
  O  O1  1  0.50000000  0.32816100  0.09897200  1
  O  O2  1  0.00000000  0.50768600  0.15099100  1
  O  O3  1  0.30976700  0.83702500  0.32519200  1
  O  O4  1  0.69023300  0.83702500  0.32519200  1
  O  O5  1  0.00000000  0.18660400  0.41819000  1
  O  O6  1  0.50000000  0.42214900  0.44743100  1
  O  O7  1  0.00000000  0.59467100  0.57429100  1
  O  O8  1  0.50000000  0.83860200  0.58989800  1
  O  O9  1  0.81228200  0.17723900  0.68782300  1
  O  O10  1  0.18771800  0.17723900  0.68782300  1
  O  O11  1  0.50000000  0.48150100  0.83707200  1
  O  O12  1  0.00000000  0.63835900  0.89043400  1
  O  O13  1  0.50000000  0.04964500  0.90075200  1
loop_
_geom_bond_atom_site_label_1
_geom_bond_atom_site_label_2
_geom_bond_distance
_geom_bond_site_symmetry_2
Li0 O1 2.048066 1_555
Li0 O3 2.126777 1_545
Li0 O5 2.197302 1_555
Li0 O2 2.312459 1_555
Li0 O6 2.406766 1_555
Li1 O1 2.048066 1_555
Li1 O4 2.126777 1_545
Li1 O5 2.197302 1_655
Li1 O2 2.312459 1_655
Li1 O6 2.406766 1_555
Li2 O12 2.026743 1_655
Li2 O8 2.167751 1_555
Li2 O9 2.205965 1_565
Li2 O7 2.254236 1_655
Li2 O11 2.283848 1_555
Li3 O12 2.026743 1_555
Li3 O8 2.167751 1_555
Li3 O10 2.205965 1_565
Li3 O7 2.254236 1_555
Li3 O11 2.283848 1_555
Li4 O0 1.939911 1_546
Li4 O12 2.025461 1_555
Li4 O10 2.275954 1_555
Li4 O9 2.275954 1_455
Li4 O2 2.545520 1_556
Fe0 O3 2.029029 1_555
Fe0 O4 2.029029 1_455
Fe0 O7 2.151290 1_555
Fe0 O5 2.178334 1_565
Fe0 O2 2.198960 1_555
Fe0 O0 2.292898 1_555
Fe1 O8 2.027580 1_545
Fe1 O6 2.033764 1_555
Fe1 O9 2.044646 1_555
Fe1 O10 2.044646 1_555
Fe1 O11 2.083295 1_555
Fe1 O13 2.096049 1_555
C0 O0 1.290867 1_555
C0 O12 1.296047 1_554
C0 O2 1.302379 1_555
C1 O1 1.262073 1_556
C1 O13 1.303413 1_555
C1 O11 1.337600 1_555
O3 P0 1.525135 1_555
O4 P0 1.525135 1_555
O5 P1 1.534004 1_555
O6 P0 1.587007 1_555
O7 P1 1.552440 1_555
O8 P0 1.580511 1_555
O9 P1 1.568324 1_655
O10 P1 1.568324 1_555
