# generated using pymatgen
data_Li2TiMn2O6
_symmetry_space_group_name_H-M   'P 1'
_cell_length_a   5.12817162
_cell_length_b   5.12816962
_cell_length_c   10.27062100
_cell_angle_alpha   89.99998092
_cell_angle_beta   89.99986442
_cell_angle_gamma   115.93241129
_symmetry_Int_Tables_number   1
_chemical_formula_structural   Li2TiMn2O6
_chemical_formula_sum   'Li4 Ti2 Mn4 O12'
_cell_volume   242.90212878
_cell_formula_units_Z   2
loop_
 _symmetry_equiv_pos_site_id
 _symmetry_equiv_pos_as_xyz
  1  'x, y, z'
loop_
 _atom_site_type_symbol
 _atom_site_label
 _atom_site_symmetry_multiplicity
 _atom_site_fract_x
 _atom_site_fract_y
 _atom_site_fract_z
 _atom_site_occupancy
  Li  Li0  1  0.10139100  0.60144200  0.75000100  1
  Li  Li1  1  0.39855900  0.89860900  0.24999700  1
  Li  Li2  1  0.60138900  0.10144200  0.74999800  1
  Li  Li3  1  0.89856000  0.39860800  0.25000300  1
  Ti  Ti0  1  0.99998600  0.00001600  0.99999800  1
  Ti  Ti1  1  0.49998900  0.50000500  0.50000000  1
  Mn  Mn0  1  0.33556700  0.66443300  0.99999700  1
  Mn  Mn1  1  0.83558200  0.16441800  0.50000700  1
  Mn  Mn2  1  0.16447100  0.83552700  0.50000100  1
  Mn  Mn3  1  0.66446900  0.33553600  0.00000200  1
  O  O0  1  0.17163900  0.17162500  0.59036600  1
  O  O1  1  0.32836700  0.32836900  0.09036600  1
  O  O2  1  0.67163300  0.67163300  0.90963400  1
  O  O3  1  0.82837400  0.82836100  0.40963300  1
  O  O4  1  0.04853300  0.70699300  0.11108300  1
  O  O5  1  0.95145300  0.29299400  0.88891300  1
  O  O6  1  0.20701200  0.54854000  0.38891200  1
  O  O7  1  0.45146000  0.79298900  0.61108500  1
  O  O8  1  0.29300600  0.95146600  0.88891700  1
  O  O9  1  0.54854200  0.20698800  0.38891600  1
  O  O10  1  0.79301200  0.45145900  0.61108300  1
  O  O11  1  0.70700600  0.04854800  0.11108700  1
loop_
_geom_bond_atom_site_label_1
_geom_bond_atom_site_label_2
_geom_bond_distance
_geom_bond_site_symmetry_2
Li0 O10 2.016019 1_455
Li0 O5 2.016180 1_455
Li0 O8 2.163446 1_555
Li0 O7 2.163556 1_555
Li1 O9 2.016024 1_565
Li1 O11 2.016162 1_565
Li1 O4 2.163441 1_555
Li1 O6 2.163549 1_555
Li2 O8 2.016032 1_545
Li2 O7 2.016205 1_545
Li2 O10 2.163417 1_555
Li2 O5 2.163541 1_555
Li3 O4 2.016045 1_655
Li3 O6 2.016174 1_655
Li3 O9 2.163404 1_555
Li3 O11 2.163534 1_555
Mn0 O2 1.943492 1_555
Mn0 O1 1.943514 1_556
Mn0 O8 1.948547 1_555
Mn0 O4 1.948584 1_556
Mn0 O5 2.351257 1_455
Mn0 O11 2.351289 1_566
Mn1 O0 1.943423 1_655
Mn1 O3 1.943492 1_545
Mn1 O10 1.948577 1_555
Mn1 O9 1.948665 1_555
Mn1 O7 2.351219 1_545
Mn1 O6 2.351306 1_655
Mn2 O0 1.943709 1_565
Mn2 O3 1.943725 1_455
Mn2 O7 1.948340 1_555
Mn2 O6 1.948366 1_555
Mn2 O10 2.351173 1_455
Mn2 O9 2.351200 1_565
Mn3 O1 1.943722 1_555
Mn3 O2 1.943726 1_554
Mn3 O11 1.948337 1_555
Mn3 O5 1.948355 1_554
Mn3 O4 2.351159 1_655
Mn3 O8 2.351207 1_544
O0 Ti1 2.013074 1_555
O1 Ti0 2.013097 1_454
O2 Ti0 2.013083 1_565
O3 Ti1 2.013105 1_555
O4 Ti0 1.987179 1_464
O5 Ti0 1.986959 1_555
O6 Ti1 1.986979 1_555
O7 Ti1 1.986974 1_555
O8 Ti0 1.987148 1_465
O9 Ti1 1.987162 1_555
O10 Ti1 1.987167 1_555
O11 Ti0 1.986987 1_554
