# generated using pymatgen
data_Mn2V3Cr(PO4)6
_symmetry_space_group_name_H-M   'P 1'
_cell_length_a   8.62868132
_cell_length_b   8.62868132
_cell_length_c   8.62868080
_cell_angle_alpha   59.89956080
_cell_angle_beta   59.89956080
_cell_angle_gamma   59.89955713
_symmetry_Int_Tables_number   1
_chemical_formula_structural   Mn2V3Cr(PO4)6
_chemical_formula_sum   'Mn2 V3 Cr1 P6 O24'
_cell_volume   453.23925994
_cell_formula_units_Z   1
loop_
 _symmetry_equiv_pos_site_id
 _symmetry_equiv_pos_as_xyz
  1  'x, y, z'
loop_
 _atom_site_type_symbol
 _atom_site_label
 _atom_site_symmetry_multiplicity
 _atom_site_fract_x
 _atom_site_fract_y
 _atom_site_fract_z
 _atom_site_occupancy
  Mn  Mn0  1  0.99975100  0.99975100  0.99975100  1
  Mn  Mn1  1  0.49952300  0.49952300  0.49952300  1
  V  V0  1  0.35574000  0.35574000  0.35574000  1
  V  V1  1  0.14341400  0.14341400  0.14341400  1
  V  V2  1  0.64419500  0.64419500  0.64419500  1
  Cr  Cr0  1  0.85729800  0.85729800  0.85729800  1
  P  P0  1  0.04100500  0.46022600  0.75024300  1
  P  P1  1  0.46022600  0.75024300  0.04100500  1
  P  P2  1  0.75024300  0.04100500  0.46022600  1
  P  P3  1  0.24974200  0.95829500  0.54180500  1
  P  P4  1  0.54180500  0.24974200  0.95829500  1
  P  P5  1  0.95829500  0.54180500  0.24974200  1
  O  O0  1  0.49493000  0.69316900  0.88020700  1
  O  O1  1  0.69316900  0.88020700  0.49493000  1
  O  O2  1  0.88020700  0.49493000  0.69316900  1
  O  O3  1  0.05850400  0.26424100  0.91446200  1
  O  O4  1  0.00963600  0.61820300  0.80385700  1
  O  O5  1  0.23572800  0.43838600  0.58394000  1
  O  O6  1  0.26424100  0.91446200  0.05850400  1
  O  O7  1  0.43838600  0.58394000  0.23572800  1
  O  O8  1  0.19383200  0.99461100  0.38054100  1
  O  O9  1  0.58394000  0.23572800  0.43838600  1
  O  O10  1  0.08639100  0.94352500  0.73527900  1
  O  O11  1  0.38054100  0.19383200  0.99461100  1
  O  O12  1  0.61820300  0.80385700  0.00963600  1
  O  O13  1  0.91446200  0.05850400  0.26424100  1
  O  O14  1  0.41602800  0.76427500  0.55836900  1
  O  O15  1  0.80385700  0.00963600  0.61820300  1
  O  O16  1  0.55836900  0.41602800  0.76427500  1
  O  O17  1  0.73527900  0.08639100  0.94352500  1
  O  O18  1  0.76427500  0.55836900  0.41602800  1
  O  O19  1  0.99461100  0.38054100  0.19383200  1
  O  O20  1  0.94352500  0.73527900  0.08639100  1
  O  O21  1  0.11835600  0.50233100  0.30997500  1
  O  O22  1  0.30997500  0.11835600  0.50233100  1
  O  O23  1  0.50233100  0.30997500  0.11835600  1
loop_
_geom_bond_atom_site_label_1
_geom_bond_atom_site_label_2
_geom_bond_distance
_geom_bond_site_symmetry_2
Mn0 O10 2.244436 1_655
Mn0 O17 2.244436 1_565
Mn0 O20 2.244436 1_556
Mn0 O13 2.260238 1_566
Mn0 O6 2.260238 1_656
Mn0 O3 2.260238 1_665
Mn1 O16 2.267455 1_555
Mn1 O14 2.267455 1_555
Mn1 O18 2.267455 1_555
Mn1 O7 2.268462 1_555
Mn1 O9 2.268462 1_555
Mn1 O5 2.268462 1_555
Cr0 O15 1.955227 1_565
Cr0 O4 1.955227 1_655
Cr0 O12 1.955227 1_556
Cr0 O20 2.042456 1_556
Cr0 O17 2.042456 1_565
Cr0 O10 2.042456 1_655
O0 P1 1.542075 1_556
O0 V2 1.915998 1_555
O1 P2 1.542075 1_565
O1 V2 1.915998 1_555
O2 P0 1.542075 1_655
O2 V2 1.915998 1_555
O3 P0 1.563781 1_555
O3 V1 2.036243 1_556
O4 P0 1.510713 1_555
O5 P0 1.566215 1_555
O5 V0 2.020053 1_555
O6 P1 1.563781 1_555
O6 V1 2.036243 1_565
O7 P1 1.566215 1_555
O7 V0 2.020053 1_555
O8 P3 1.533471 1_555
O8 V1 1.929198 1_565
O9 P2 1.566215 1_555
O9 V0 2.020053 1_555
O10 P3 1.548062 1_555
O11 P4 1.533471 1_555
O11 V1 1.929198 1_556
O12 P1 1.510713 1_555
O13 P2 1.563781 1_555
O13 V1 2.036243 1_655
O14 P3 1.561473 1_555
O14 V2 2.035873 1_555
O15 P2 1.510713 1_555
O16 P4 1.561473 1_555
O16 V2 2.035873 1_555
O17 P4 1.548062 1_555
O18 P5 1.561473 1_555
O18 V2 2.035873 1_555
O19 P5 1.533471 1_555
O19 V1 1.929198 1_655
O20 P5 1.548062 1_555
O21 P5 1.537593 1_455
O21 V0 1.913901 1_555
O22 P3 1.537593 1_545
O22 V0 1.913901 1_555
O23 P4 1.537593 1_554
O23 V0 1.913901 1_555
