# generated using pymatgen
data_Dy(ClO4)3
_symmetry_space_group_name_H-M   'P 1'
_cell_length_a   9.28714209
_cell_length_b   9.28714209
_cell_length_c   5.73330500
_cell_angle_alpha   90.00000000
_cell_angle_beta   90.00000000
_cell_angle_gamma   120.00000061
_symmetry_Int_Tables_number   1
_chemical_formula_structural   Dy(ClO4)3
_chemical_formula_sum   'Dy2 Cl6 O24'
_cell_volume   428.25244872
_cell_formula_units_Z   2
loop_
 _symmetry_equiv_pos_site_id
 _symmetry_equiv_pos_as_xyz
  1  'x, y, z'
loop_
 _atom_site_type_symbol
 _atom_site_label
 _atom_site_symmetry_multiplicity
 _atom_site_fract_x
 _atom_site_fract_y
 _atom_site_fract_z
 _atom_site_occupancy
  Dy  Dy0  1  0.33333300  0.66666700  0.75000000  1
  Dy  Dy1  1  0.66666700  0.33333300  0.25000000  1
  Cl  Cl0  1  0.09066200  0.70821300  0.25000000  1
  Cl  Cl1  1  0.29178700  0.38244900  0.25000000  1
  Cl  Cl2  1  0.61755100  0.90933800  0.25000000  1
  Cl  Cl3  1  0.38244900  0.09066200  0.75000000  1
  Cl  Cl4  1  0.70821300  0.61755100  0.75000000  1
  Cl  Cl5  1  0.90933800  0.29178700  0.75000000  1
  O  O0  1  0.01993700  0.81241000  0.25000000  1
  O  O1  1  0.03454800  0.46967800  0.75000000  1
  O  O2  1  0.19720600  0.74197300  0.04371300  1
  O  O3  1  0.19720600  0.74197300  0.45628700  1
  O  O4  1  0.43513000  0.96545200  0.75000000  1
  O  O5  1  0.25802700  0.45523300  0.45628700  1
  O  O6  1  0.25802700  0.45523300  0.04371300  1
  O  O7  1  0.18759000  0.20752800  0.25000000  1
  O  O8  1  0.54476700  0.80279400  0.04371300  1
  O  O9  1  0.54476700  0.80279400  0.45628700  1
  O  O10  1  0.20752800  0.01993700  0.75000000  1
  O  O11  1  0.46967800  0.43513000  0.25000000  1
  O  O12  1  0.53032200  0.56487000  0.75000000  1
  O  O13  1  0.79247200  0.98006300  0.25000000  1
  O  O14  1  0.45523300  0.19720600  0.54371300  1
  O  O15  1  0.45523300  0.19720600  0.95628700  1
  O  O16  1  0.81241000  0.79247200  0.75000000  1
  O  O17  1  0.74197300  0.54476700  0.54371300  1
  O  O18  1  0.74197300  0.54476700  0.95628700  1
  O  O19  1  0.56487000  0.03454800  0.25000000  1
  O  O20  1  0.80279400  0.25802700  0.95628700  1
  O  O21  1  0.80279400  0.25802700  0.54371300  1
  O  O22  1  0.96545200  0.53032200  0.25000000  1
  O  O23  1  0.98006300  0.18759000  0.75000000  1
loop_
_geom_bond_atom_site_label_1
_geom_bond_atom_site_label_2
_geom_bond_distance
_geom_bond_site_symmetry_2
Dy0 O2 2.409825 1_556
Dy0 O3 2.409825 1_555
Dy0 O8 2.409830 1_556
Dy0 O9 2.409830 1_555
Dy0 O6 2.409831 1_556
Dy0 O5 2.409831 1_555
Dy0 O4 2.443413 1_555
Dy0 O1 2.443415 1_555
Dy0 O12 2.443422 1_555
Dy1 O20 2.409825 1_554
Dy1 O21 2.409825 1_555
Dy1 O14 2.409830 1_555
Dy1 O15 2.409830 1_554
Dy1 O17 2.409831 1_555
Dy1 O18 2.409831 1_554
Dy1 O19 2.443413 1_555
Dy1 O22 2.443415 1_555
Dy1 O11 2.443422 1_555
Cl0 O0 1.415440 1_555
Cl0 O22 1.469865 1_455
Cl0 O3 1.471716 1_555
Cl0 O2 1.471716 1_555
Cl1 O7 1.415433 1_555
Cl1 O11 1.469865 1_555
Cl1 O5 1.471716 1_555
Cl1 O6 1.471716 1_555
Cl2 O13 1.415432 1_555
Cl2 O19 1.469865 1_565
Cl2 O8 1.471716 1_555
Cl2 O9 1.471716 1_555
Cl3 O10 1.415432 1_555
Cl3 O4 1.469865 1_545
Cl3 O14 1.471716 1_555
Cl3 O15 1.471716 1_555
Cl4 O16 1.415433 1_555
Cl4 O12 1.469865 1_555
Cl4 O17 1.471716 1_555
Cl4 O18 1.471716 1_555
Cl5 O23 1.415440 1_555
Cl5 O1 1.469865 1_655
Cl5 O21 1.471716 1_555
Cl5 O20 1.471716 1_555
