# generated using pymatgen
data_Li2Mn2F7
_symmetry_space_group_name_H-M   'P 1'
_cell_length_a   7.43576100
_cell_length_b   7.89825200
_cell_length_c   11.05671700
_cell_angle_alpha   90.00000000
_cell_angle_beta   90.00000000
_cell_angle_gamma   90.00000000
_symmetry_Int_Tables_number   1
_chemical_formula_structural   Li2Mn2F7
_chemical_formula_sum   'Li8 Mn8 F28'
_cell_volume   649.35561794
_cell_formula_units_Z   4
loop_
 _symmetry_equiv_pos_site_id
 _symmetry_equiv_pos_as_xyz
  1  'x, y, z'
loop_
 _atom_site_type_symbol
 _atom_site_label
 _atom_site_symmetry_multiplicity
 _atom_site_fract_x
 _atom_site_fract_y
 _atom_site_fract_z
 _atom_site_occupancy
  Li  Li0  1  0.82276000  0.07000200  0.76254100  1
  Li  Li1  1  0.83923500  0.94698200  0.52523200  1
  Li  Li2  1  0.16076500  0.44698200  0.97476800  1
  Li  Li3  1  0.17724000  0.57000200  0.73745900  1
  Li  Li4  1  0.32276000  0.42999800  0.23745900  1
  Li  Li5  1  0.33923500  0.55301800  0.47476800  1
  Li  Li6  1  0.66076500  0.05301800  0.02523200  1
  Li  Li7  1  0.67724000  0.92999800  0.26254100  1
  Mn  Mn0  1  0.86482500  0.36823800  0.20360000  1
  Mn  Mn1  1  0.89864500  0.39962700  0.55157000  1
  Mn  Mn2  1  0.10135500  0.89962700  0.94843000  1
  Mn  Mn3  1  0.13517500  0.86823800  0.29640000  1
  Mn  Mn4  1  0.36482500  0.13176200  0.79640000  1
  Mn  Mn5  1  0.39864500  0.10037300  0.44843000  1
  Mn  Mn6  1  0.60135500  0.60037300  0.05157000  1
  Mn  Mn7  1  0.63517500  0.63176200  0.70360000  1
  F  F0  1  0.85150000  0.45520500  0.04192600  1
  F  F1  1  0.76700900  0.85258400  0.68020400  1
  F  F2  1  0.84604200  0.50141400  0.72953300  1
  F  F3  1  0.87051300  0.15990100  0.60455600  1
  F  F4  1  0.86903100  0.02538200  0.93237400  1
  F  F5  1  0.89669000  0.81123800  0.33075800  1
  F  F6  1  0.90788200  0.34876000  0.37033400  1
  F  F7  1  0.09211800  0.84876000  0.12966600  1
  F  F8  1  0.10331000  0.31123800  0.16924200  1
  F  F9  1  0.13096900  0.52538200  0.56762600  1
  F  F10  1  0.12948700  0.65990100  0.89544400  1
  F  F11  1  0.15395800  0.00141400  0.77046700  1
  F  F12  1  0.23299100  0.35258400  0.81979600  1
  F  F13  1  0.14850000  0.95520500  0.45807400  1
  F  F14  1  0.35150000  0.04479500  0.95807400  1
  F  F15  1  0.26700900  0.64741600  0.31979600  1
  F  F16  1  0.34604200  0.99858600  0.27046700  1
  F  F17  1  0.37051300  0.34009900  0.39544400  1
  F  F18  1  0.36903100  0.47461800  0.06762600  1
  F  F19  1  0.39669000  0.68876200  0.66924200  1
  F  F20  1  0.40788200  0.15124000  0.62966600  1
  F  F21  1  0.59211800  0.65124000  0.87033400  1
  F  F22  1  0.60331000  0.18876200  0.83075800  1
  F  F23  1  0.63096900  0.97461800  0.43237400  1
  F  F24  1  0.62948700  0.84009900  0.10455600  1
  F  F25  1  0.65395800  0.49858600  0.22953300  1
  F  F26  1  0.73299100  0.14741600  0.18020400  1
  F  F27  1  0.64850000  0.54479500  0.54192600  1
loop_
_geom_bond_atom_site_label_1
_geom_bond_atom_site_label_2
_geom_bond_distance
_geom_bond_site_symmetry_2
F0 Mn0 1.917573 1_555
F0 Mn6 2.187617 1_555
F0 Li2 2.417405 1_654
F1 Li1 1.944309 1_555
F1 Li0 1.987333 1_565
F1 Mn7 2.017372 1_555
F2 Mn7 1.897530 1_555
F2 Mn1 2.161273 1_555
F2 Li3 2.523110 1_655
F3 Li1 1.910865 1_545
F3 Li0 1.918734 1_555
F3 Mn1 1.992989 1_555
F4 Li6 1.870823 1_556
F4 Li0 1.941312 1_555
F4 Mn2 2.000582 1_645
F5 Mn3 1.868595 1_655
F5 Li7 2.027668 1_555
F5 Li1 2.440400 1_555
F6 Mn0 1.877439 1_555
F6 Mn1 2.044907 1_555
F7 Mn3 1.877439 1_555
F7 Mn2 2.044907 1_554
F8 Mn0 1.868595 1_455
F8 Li4 2.027668 1_555
F8 Li2 2.440400 1_554
F9 Li5 1.870823 1_555
F9 Li3 1.941312 1_555
F9 Mn1 2.000582 1_455
F10 Li2 1.910865 1_555
F10 Li3 1.918734 1_555
F10 Mn2 1.992989 1_555
F11 Mn4 1.897530 1_555
F11 Mn2 2.161273 1_545
F11 Li0 2.523110 1_455
F12 Li2 1.944309 1_555
F12 Li3 1.987333 1_555
F12 Mn4 2.017372 1_555
F13 Mn3 1.917573 1_555
F13 Mn5 2.187617 1_565
F13 Li1 2.417405 1_455
F14 Mn4 1.917573 1_555
F14 Mn2 2.187617 1_545
F14 Li6 2.417405 1_556
F15 Li5 1.944309 1_555
F15 Li4 1.987333 1_555
F15 Mn3 2.017372 1_555
F16 Mn3 1.897530 1_555
F16 Mn5 2.161273 1_565
F16 Li7 2.523110 1_555
F17 Li5 1.910865 1_555
F17 Li4 1.918734 1_555
F17 Mn5 1.992989 1_555
F18 Li2 1.870823 1_554
F18 Li4 1.941312 1_555
F18 Mn6 2.000582 1_555
F19 Mn7 1.868595 1_555
F19 Li3 2.027668 1_555
F19 Li5 2.440400 1_555
F20 Mn4 1.877439 1_555
F20 Mn5 2.044907 1_555
F21 Mn7 1.877439 1_555
F21 Mn6 2.044907 1_556
F22 Mn4 1.868595 1_555
F22 Li0 2.027668 1_555
F22 Li6 2.440400 1_556
F23 Li1 1.870823 1_555
F23 Li7 1.941312 1_555
F23 Mn5 2.000582 1_565
F24 Li6 1.910865 1_565
F24 Li7 1.918734 1_555
F24 Mn6 1.992989 1_555
F25 Mn0 1.897530 1_555
F25 Mn6 2.161273 1_555
F25 Li4 2.523110 1_555
F26 Li6 1.944309 1_555
F26 Li7 1.987333 1_545
F26 Mn0 2.017372 1_555
F27 Mn7 1.917573 1_555
F27 Mn1 2.187617 1_555
F27 Li5 2.417405 1_555
