# generated using pymatgen
data_Ba2LaCl7
_symmetry_space_group_name_H-M   'P 1'
_cell_length_a   11.69939922
_cell_length_b   11.69939922
_cell_length_c   11.56658687
_cell_angle_alpha   66.84274997
_cell_angle_beta   66.84274997
_cell_angle_gamma   68.69923027
_symmetry_Int_Tables_number   1
_chemical_formula_structural   Ba2LaCl7
_chemical_formula_sum   'Ba8 La4 Cl28'
_cell_volume   1296.95483317
_cell_formula_units_Z   4
loop_
 _symmetry_equiv_pos_site_id
 _symmetry_equiv_pos_as_xyz
  1  'x, y, z'
loop_
 _atom_site_type_symbol
 _atom_site_label
 _atom_site_symmetry_multiplicity
 _atom_site_fract_x
 _atom_site_fract_y
 _atom_site_fract_z
 _atom_site_occupancy
  Ba  Ba0  1  0.33085700  0.43137900  0.46389800  1
  Ba  Ba1  1  0.10199300  0.73947100  0.04425500  1
  Ba  Ba2  1  0.56862100  0.66914300  0.03610200  1
  Ba  Ba3  1  0.73947100  0.10199300  0.54425500  1
  Ba  Ba4  1  0.26052900  0.89800700  0.45574500  1
  Ba  Ba5  1  0.43137900  0.33085700  0.96389800  1
  Ba  Ba6  1  0.89800700  0.26052900  0.95574500  1
  Ba  Ba7  1  0.66914300  0.56862100  0.53610200  1
  La  La0  1  0.01378600  0.33735400  0.32196200  1
  La  La1  1  0.66264600  0.98621400  0.17803800  1
  La  La2  1  0.33735400  0.01378600  0.82196200  1
  La  La3  1  0.98621400  0.66264600  0.67803800  1
  Cl  Cl0  1  0.13245600  0.45396400  0.06028500  1
  Cl  Cl1  1  0.77625800  0.37613000  0.28999300  1
  Cl  Cl2  1  0.62387000  0.22374200  0.21000700  1
  Cl  Cl3  1  0.23775100  0.23465500  0.39012300  1
  Cl  Cl4  1  0.41340100  0.05107400  0.15955200  1
  Cl  Cl5  1  0.28351800  0.85914800  0.08118100  1
  Cl  Cl6  1  0.03206200  0.08877600  0.33216100  1
  Cl  Cl7  1  0.05107400  0.41340100  0.65955200  1
  Cl  Cl8  1  0.52310500  0.35307000  0.64634700  1
  Cl  Cl9  1  0.85914800  0.28351800  0.58118100  1
  Cl  Cl10  1  0.91122400  0.96793800  0.16783900  1
  Cl  Cl11  1  0.64693000  0.47689500  0.85365300  1
  Cl  Cl12  1  0.76534500  0.76224900  0.10987700  1
  Cl  Cl13  1  0.45396400  0.13245600  0.56028500  1
  Cl  Cl14  1  0.54603600  0.86754400  0.43971500  1
  Cl  Cl15  1  0.23465500  0.23775100  0.89012300  1
  Cl  Cl16  1  0.35307000  0.52310500  0.14634700  1
  Cl  Cl17  1  0.08877600  0.03206200  0.83216100  1
  Cl  Cl18  1  0.14085200  0.71648200  0.41881900  1
  Cl  Cl19  1  0.47689500  0.64693000  0.35365300  1
  Cl  Cl20  1  0.94892600  0.58659900  0.34044800  1
  Cl  Cl21  1  0.96793800  0.91122400  0.66783900  1
  Cl  Cl22  1  0.71648200  0.14085200  0.91881900  1
  Cl  Cl23  1  0.58659900  0.94892600  0.84044800  1
  Cl  Cl24  1  0.76224900  0.76534500  0.60987700  1
  Cl  Cl25  1  0.37613000  0.77625800  0.78999300  1
  Cl  Cl26  1  0.22374200  0.62387000  0.71000700  1
  Cl  Cl27  1  0.86754400  0.54603600  0.93971500  1
loop_
_geom_bond_atom_site_label_1
_geom_bond_atom_site_label_2
_geom_bond_distance
_geom_bond_site_symmetry_2
Ba0 Cl19 3.129276 1_555
Ba0 Cl13 3.175647 1_555
Ba0 Cl7 3.190567 1_555
Ba0 Cl18 3.239735 1_555
Ba0 Cl16 3.325912 1_555
Ba0 Cl8 3.326716 1_555
Ba0 Cl3 3.362893 1_555
Ba1 Cl5 3.161836 1_555
Ba1 Cl0 3.165233 1_555
Ba1 Cl10 3.214155 1_455
Ba1 Cl20 3.290160 1_455
Ba1 Cl17 3.327000 1_564
Ba1 Cl16 3.377231 1_555
Ba1 Cl25 3.421911 1_554
Ba1 Cl12 3.633844 1_455
Ba2 Cl16 3.129276 1_555
Ba2 Cl27 3.175647 1_554
Ba2 Cl23 3.190567 1_554
Ba2 Cl5 3.239735 1_555
Ba2 Cl19 3.325912 1_555
Ba2 Cl11 3.326716 1_554
Ba2 Cl12 3.362893 1_555
Ba3 Cl9 3.161836 1_555
Ba3 Cl13 3.165233 1_555
Ba3 Cl21 3.214155 1_545
Ba3 Cl23 3.290160 1_545
Ba3 Cl6 3.327000 1_655
Ba3 Cl8 3.377231 1_555
Ba3 Cl1 3.421911 1_555
Ba3 Cl24 3.633844 1_545
Ba4 Cl18 3.161836 1_555
Ba4 Cl14 3.165233 1_555
Ba4 Cl6 3.214155 1_565
Ba4 Cl4 3.290160 1_565
Ba4 Cl21 3.327000 1_455
Ba4 Cl19 3.377231 1_555
Ba4 Cl26 3.421911 1_555
Ba4 Cl3 3.633844 1_565
Ba5 Cl11 3.129276 1_555
Ba5 Cl0 3.175647 1_556
Ba5 Cl4 3.190567 1_556
Ba5 Cl22 3.239735 1_555
Ba5 Cl8 3.325912 1_555
Ba5 Cl16 3.326716 1_556
Ba5 Cl15 3.362893 1_555
Ba6 Cl22 3.161836 1_555
Ba6 Cl27 3.165233 1_555
Ba6 Cl17 3.214155 1_655
Ba6 Cl7 3.290160 1_655
Ba6 Cl10 3.327000 1_546
Ba6 Cl11 3.377231 1_555
Ba6 Cl2 3.421911 1_556
Ba6 Cl15 3.633844 1_655
Ba7 Cl8 3.129276 1_555
Ba7 Cl14 3.175647 1_555
Ba7 Cl20 3.190567 1_555
Ba7 Cl9 3.239735 1_555
Ba7 Cl11 3.325912 1_555
Ba7 Cl19 3.326716 1_555
Ba7 Cl24 3.362893 1_555
Cl0 La0 2.788030 1_555
Cl1 La0 2.797384 1_655
Cl2 La1 2.797384 1_545
Cl3 La0 2.742874 1_555
Cl4 La1 2.807107 1_545
Cl5 La2 2.781315 1_564
Cl6 La0 2.795634 1_555
Cl7 La3 2.807107 1_455
Cl9 La0 2.781315 1_655
Cl10 La1 2.795634 1_555
Cl12 La1 2.742874 1_555
Cl13 La2 2.788030 1_555
Cl14 La1 2.788030 1_555
Cl15 La2 2.742874 1_555
Cl17 La2 2.795634 1_555
Cl18 La3 2.781315 1_455
Cl20 La0 2.807107 1_655
Cl21 La3 2.795634 1_555
Cl22 La1 2.781315 1_546
Cl23 La2 2.807107 1_565
Cl24 La3 2.742874 1_555
Cl25 La2 2.797384 1_565
Cl26 La3 2.797384 1_455
Cl27 La3 2.788030 1_555
