# generated using pymatgen
data_Li9V3P8O29
_symmetry_space_group_name_H-M   'P 1'
_cell_length_a   9.91686200
_cell_length_b   9.92451249
_cell_length_c   13.77358011
_cell_angle_alpha   89.81092924
_cell_angle_beta   89.81461676
_cell_angle_gamma   60.03107492
_symmetry_Int_Tables_number   1
_chemical_formula_structural   Li9V3P8O29
_chemical_formula_sum   'Li18 V6 P16 O58'
_cell_volume   1174.33968116
_cell_formula_units_Z   2
loop_
 _symmetry_equiv_pos_site_id
 _symmetry_equiv_pos_as_xyz
  1  'x, y, z'
loop_
 _atom_site_type_symbol
 _atom_site_label
 _atom_site_symmetry_multiplicity
 _atom_site_fract_x
 _atom_site_fract_y
 _atom_site_fract_z
 _atom_site_occupancy
  Li  Li0  1  0.90414500  0.32993500  0.93821300  1
  Li  Li1  1  0.76140800  0.32913000  0.42658200  1
  Li  Li2  1  0.90829200  0.77335900  0.43602100  1
  Li  Li3  1  0.66850600  0.66709500  0.62256000  1
  Li  Li4  1  0.66789900  0.63674800  0.11910100  1
  Li  Li5  1  0.77109800  0.89952400  0.93907900  1
  Li  Li6  1  0.32932900  0.76646800  0.93532000  1
  Li  Li7  1  0.65305600  0.10348000  0.56556500  1
  Li  Li8  1  0.66876200  0.23648400  0.07499000  1
  Li  Li9  1  0.23075800  0.10348500  0.06011500  1
  Li  Li10  1  0.56242000  0.42758700  0.24356900  1
  Li  Li11  1  0.36674400  0.33085000  0.37821500  1
  Li  Li12  1  0.33223400  0.33445300  0.87982100  1
  Li  Li13  1  0.09973700  0.23586500  0.56261000  1
  Li  Li14  1  0.23171300  0.66607900  0.56457000  1
  Li  Li15  1  0.10267500  0.66682100  0.06654000  1
  Li  Li16  1  0.99456000  0.00263900  0.01323300  1
  Li  Li17  1  0.92432200  0.03658700  0.49609800  1
  V  V0  1  0.56991400  0.99913600  0.75410700  1
  V  V1  1  0.43237500  0.00663000  0.23880100  1
  V  V2  1  0.36554300  0.88115600  0.43739100  1
  V  V3  1  0.43675900  0.56256200  0.74940500  1
  V  V4  1  0.99871700  0.43599000  0.74926400  1
  V  V5  1  0.00485000  0.56293900  0.25289200  1
  P  P0  1  0.91204600  0.31354600  0.15795800  1
  P  P1  1  0.77503100  0.31295600  0.65601400  1
  P  P2  1  0.91035700  0.77516600  0.65424600  1
  P  P3  1  0.66734300  0.66638100  0.87674000  1
  P  P4  1  0.66071700  0.67377800  0.37912100  1
  P  P5  1  0.77737900  0.90994700  0.15691600  1
  P  P6  1  0.68096300  0.08977000  0.34524500  1
  P  P7  1  0.32044200  0.77360300  0.15038800  1
  P  P8  1  0.68588300  0.22659200  0.84728200  1
  P  P9  1  0.32998900  0.90467900  0.65770100  1
  P  P10  1  0.22614900  0.09134700  0.84143600  1
  P  P11  1  0.33355900  0.33150000  0.62237600  1
  P  P12  1  0.32733900  0.33494500  0.11969800  1
  P  P13  1  0.08907200  0.22311100  0.34699300  1
  P  P14  1  0.23675700  0.67606700  0.33841600  1
  P  P15  1  0.09053000  0.68228100  0.84320200  1
  O  O0  1  0.99785600  0.21916800  0.43552800  1
  O  O1  1  0.92176900  0.32745200  0.65320300  1
  O  O2  1  0.77587100  0.22967900  0.93520300  1
  O  O3  1  0.75409300  0.32808400  0.15790400  1
  O  O4  1  0.89570600  0.47652000  0.17467800  1
  O  O5  1  0.81198700  0.51456300  0.83665000  1
  O  O6  1  0.88906800  0.63158300  0.66203100  1
  O  O7  1  0.99836800  0.77021800  0.93218500  1
  O  O8  1  0.92173900  0.74728900  0.15759100  1
  O  O9  1  0.68180300  0.51582300  0.36031400  1
  O  O10  1  0.63079900  0.47675000  0.66335100  1
  O  O11  1  0.80900800  0.68277700  0.35979600  1
  O  O12  1  0.66676600  0.66626700  0.98594600  1
  O  O13  1  0.58563500  0.73900400  0.48453800  1
  O  O14  1  0.67807900  0.81078200  0.83941400  1
  O  O15  1  0.48031200  0.63241500  0.15745800  1
  O  O16  1  0.51643300  0.67322600  0.83586900  1
  O  O17  1  0.75090700  0.92413600  0.65567500  1
  O  O18  1  0.78890800  0.99513900  0.25332000  1
  O  O19  1  0.76764800  0.99596900  0.43630800  1
  O  O20  1  0.78377200  0.00118000  0.06878400  1
  O  O21  1  0.62932300  0.89725600  0.16191500  1
  O  O22  1  0.51513700  0.80432200  0.32002000  1
  O  O23  1  0.67382600  0.07844800  0.84774100  1
  O  O24  1  0.49437800  0.87547100  0.67604700  1
  O  O25  1  0.32929400  0.75113100  0.65271300  1
  O  O26  1  0.78789700  0.21390000  0.75165000  1
  O  O27  1  0.77109800  0.22005000  0.56869900  1
  O  O28  1  0.24987100  0.76929000  0.42917600  1
  O  O29  1  0.66466800  0.24852600  0.34719200  1
  O  O30  1  0.52074400  0.09968300  0.33404200  1
  O  O31  1  0.32069700  0.92905400  0.15229800  1
  O  O32  1  0.48363200  0.18680900  0.66324000  1
  O  O33  1  0.37011800  0.11127400  0.83231000  1
  O  O34  1  0.22957600  0.99394600  0.92723800  1
  O  O35  1  0.26051600  0.99811500  0.56293800  1
  O  O36  1  0.21425600  0.00812600  0.74201400  1
  O  O37  1  0.25508600  0.07023700  0.34994700  1
  O  O38  1  0.48159200  0.31825100  0.15045700  1
  O  O39  1  0.52201700  0.36966300  0.83481800  1
  O  O40  1  0.31208700  0.19319100  0.16070400  1
  O  O41  1  0.29928300  0.34340500  0.01116000  1
  O  O42  1  0.33597900  0.32733200  0.51281200  1
  O  O43  1  0.18727600  0.32716900  0.66123200  1
  O  O44  1  0.37385100  0.51505600  0.33357100  1
  O  O45  1  0.32813500  0.48355300  0.66009600  1
  O  O46  1  0.07686800  0.24984100  0.84219300  1
  O  O47  1  0.00958600  0.20469200  0.25134800  1
  O  O48  1  0.00674900  0.22927400  0.06775300  1
  O  O49  1  0.11075300  0.36429800  0.33913000  1
  O  O50  1  0.18630000  0.48761000  0.16611500  1
  O  O51  1  0.11007300  0.51909500  0.83061300  1
  O  O52  1  0.25073900  0.67039400  0.84207100  1
  O  O53  1  0.21861400  0.77997500  0.06479600  1
  O  O54  1  0.21950800  0.78417300  0.24795600  1
  O  O55  1  0.08001000  0.68028400  0.34686000  1
  O  O56  1  0.00310000  0.77421600  0.56532200  1
  O  O57  1  0.00116000  0.78449100  0.74827400  1
loop_
_geom_bond_atom_site_label_1
_geom_bond_atom_site_label_2
_geom_bond_distance
_geom_bond_site_symmetry_2
Li0 O2 1.968510 1_555
Li0 O46 1.986680 1_655
Li0 O48 2.049698 1_656
Li0 O5 2.113747 1_555
Li1 O9 1.849730 1_555
Li1 O29 1.880236 1_555
Li1 O0 2.036857 1_555
Li1 O27 2.212721 1_555
Li2 O55 1.919300 1_655
Li2 O19 1.935932 1_555
Li2 O11 1.943466 1_555
Li2 O56 2.018591 1_655
Li3 O13 2.052785 1_555
Li3 O24 2.058017 1_555
Li3 O6 2.107191 1_555
Li3 O10 2.172898 1_555
Li4 O12 1.855501 1_554
Li4 O15 1.953202 1_555
Li4 O4 2.152310 1_555
Li4 O21 2.489767 1_555
Li5 O7 1.960954 1_555
Li5 O23 1.987015 1_565
Li5 O14 2.082993 1_555
Li5 O20 2.089323 1_566
Li6 O34 1.963573 1_555
Li6 O52 1.980692 1_555
Li6 O53 2.060497 1_556
Li6 O16 2.109975 1_555
Li7 O17 1.979334 1_545
Li7 O32 1.980229 1_555
Li7 O27 2.016001 1_555
Li7 O19 2.094637 1_545
Li8 O3 1.904835 1_555
Li8 O38 1.916372 1_555
Li8 O20 2.025184 1_555
Li8 O2 2.180778 1_554
Li9 O48 1.932139 1_555
Li9 O31 1.963344 1_545
Li9 O40 2.023702 1_555
Li9 O34 2.134847 1_544
Li10 O3 2.024421 1_555
Li10 O44 2.039006 1_555
Li10 O38 2.085551 1_555
Li10 O29 2.101349 1_555
Li10 O15 2.130435 1_555
Li10 O9 2.410709 1_555
Li11 O42 1.880887 1_555
Li11 O44 1.961187 1_555
Li11 O30 2.113934 1_555
Li11 O49 2.451608 1_555
Li12 O41 1.831779 1_556
Li12 O51 2.153888 1_555
Li12 O33 2.156844 1_555
Li12 O39 2.167145 1_555
Li13 O1 1.971937 1_455
Li13 O43 2.054645 1_555
Li13 O0 2.071878 1_455
Li13 O35 2.085924 1_545
Li14 O56 1.964903 1_555
Li14 O25 1.988285 1_555
Li14 O45 2.046666 1_555
Li14 O28 2.174593 1_555
Li15 O53 1.968052 1_555
Li15 O8 1.997636 1_455
Li15 O50 2.061501 1_555
Li15 O7 2.118234 1_454
Li16 O20 2.230481 1_555
Li16 O53 2.327887 1_645
Li16 O48 2.433303 1_655
Li16 O2 2.460203 1_554
Li16 O7 2.549117 1_544
Li16 O34 2.573735 1_644
Li17 O27 1.965244 1_555
Li17 O19 1.972543 1_545
Li17 O0 2.411936 1_555
Li17 O56 2.501165 1_645
O0 P13 1.527987 1_655
O1 P1 1.532481 1_555
O1 V4 2.080957 1_555
O2 P8 1.516033 1_555
O3 P0 1.499545 1_555
O4 P0 1.560695 1_555
O4 V5 2.002183 1_655
O5 P3 1.572829 1_555
O5 V4 2.008724 1_555
O6 P2 1.544693 1_555
O6 V4 2.068430 1_555
O7 P15 1.517244 1_655
O8 P5 1.531880 1_555
O8 V5 2.057746 1_655
O9 P4 1.497703 1_555
O10 P1 1.541355 1_555
O10 V3 2.046369 1_555
O11 P4 1.539468 1_555
O11 V5 2.244972 1_655
O12 P3 1.504149 1_555
O13 P4 1.612242 1_555
O13 V2 2.025503 1_555
O14 P3 1.573744 1_555
O14 V0 2.003982 1_555
O15 P7 1.505690 1_555
O16 P3 1.569974 1_555
O16 V3 2.032359 1_555
O17 P2 1.533277 1_555
O17 V0 2.066374 1_555
O18 P5 1.611216 1_555
O18 P6 1.620407 1_565
O19 P6 1.542254 1_565
O20 P5 1.531986 1_545
O21 P5 1.536362 1_555
O21 V1 1.997623 1_565
O22 P4 1.599194 1_555
O22 V2 2.063530 1_555
O22 V1 2.073915 1_565
O23 P8 1.533478 1_555
O23 V0 2.042155 1_545
O24 P9 1.528258 1_555
O24 V0 2.038582 1_555
O25 P9 1.529115 1_555
O25 V3 2.100463 1_555
O26 P1 1.607826 1_555
O26 P8 1.624649 1_555
O27 P1 1.530224 1_555
O28 P14 1.601410 1_555
O28 V2 1.958375 1_555
O29 P6 1.501718 1_555
O30 P6 1.550262 1_555
O30 V1 2.040996 1_555
O31 P7 1.544351 1_555
O31 V1 2.026159 1_565
O32 P11 1.568034 1_555
O32 V0 2.041331 1_545
O33 P10 1.540799 1_555
O33 V0 2.028705 1_545
O34 P10 1.513979 1_565
O35 P9 1.548460 1_555
O35 V2 2.053329 1_555
O36 P9 1.594337 1_545
O36 P10 1.636198 1_555
O37 P13 1.586987 1_555
O37 V2 2.027782 1_545
O37 V1 2.171018 1_555
O38 P12 1.515739 1_555
O39 P8 1.543152 1_555
O39 V3 2.034298 1_555
O40 P12 1.589925 1_555
O40 V1 1.948532 1_555
O41 P12 1.515876 1_555
O42 P11 1.509576 1_555
O43 P11 1.565193 1_555
O43 V4 2.027198 1_455
O44 P14 1.495306 1_555
O45 P11 1.572880 1_555
O45 V3 2.036469 1_555
O46 P10 1.529545 1_555
O46 V4 2.052402 1_455
O47 P13 1.594521 1_555
O47 P0 1.646885 1_455
O48 P0 1.529626 1_455
O49 P13 1.523545 1_555
O49 V5 2.079535 1_555
O50 P12 1.595009 1_555
O50 V5 1.968089 1_555
O51 P15 1.542270 1_555
O51 V4 2.019712 1_455
O52 P15 1.533280 1_555
O52 V3 2.049101 1_555
O53 P7 1.535240 1_555
O54 P14 1.594361 1_555
O54 P7 1.645049 1_555
O55 P14 1.537994 1_555
O55 V5 2.114327 1_555
O56 P2 1.526511 1_455
O57 P2 1.608824 1_455
O57 P15 1.620054 1_555
