# generated using pymatgen
data_Li2VFeP2(O4F)2
_symmetry_space_group_name_H-M   'P 1'
_cell_length_a   5.22521755
_cell_length_b   7.40123700
_cell_length_c   10.56198197
_cell_angle_alpha   75.64241690
_cell_angle_beta   97.57727628
_cell_angle_gamma   71.39550892
_symmetry_Int_Tables_number   1
_chemical_formula_structural   Li2VFeP2(O4F)2
_chemical_formula_sum   'Li4 V2 Fe2 P4 O16 F4'
_cell_volume   364.99327000
_cell_formula_units_Z   2
loop_
 _symmetry_equiv_pos_site_id
 _symmetry_equiv_pos_as_xyz
  1  'x, y, z'
loop_
 _atom_site_type_symbol
 _atom_site_label
 _atom_site_symmetry_multiplicity
 _atom_site_fract_x
 _atom_site_fract_y
 _atom_site_fract_z
 _atom_site_occupancy
  Li  Li0  1  0.46185800  0.62071700  0.19188600  1
  Li  Li1  1  0.96187400  0.12074200  0.69189500  1
  Li  Li2  1  0.53814300  0.37928500  0.80811300  1
  Li  Li3  1  0.03812700  0.87925900  0.30810400  1
  V  V0  1  0.49999500  0.50000300  0.49999900  1
  V  V1  1  0.00000600  0.00000100  0.99999900  1
  Fe  Fe0  1  0.99999100  0.49997900  0.00001300  1
  Fe  Fe1  1  0.49999800  0.00000200  0.49999800  1
  P  P0  1  0.99871600  0.44103200  0.32075200  1
  P  P1  1  0.49874900  0.94093700  0.82075900  1
  P  P2  1  0.00128400  0.55896900  0.67924800  1
  P  P3  1  0.50125200  0.05906300  0.17924000  1
  O  O0  1  0.74593600  0.53684800  0.37727800  1
  O  O1  1  0.24607500  0.03689500  0.87727600  1
  O  O2  1  0.25406400  0.46315300  0.62272100  1
  O  O3  1  0.75392500  0.96310700  0.12272300  1
  O  O4  1  0.64503100  0.71603300  0.89421100  1
  O  O5  1  0.14494500  0.21605200  0.39420900  1
  O  O6  1  0.35497000  0.28396800  0.10578900  1
  O  O7  1  0.85505600  0.78394900  0.60579000  1
  O  O8  1  0.86284000  0.48671500  0.17091900  1
  O  O9  1  0.36291700  0.98676100  0.67090000  1
  O  O10  1  0.13716100  0.51328600  0.82908100  1
  O  O11  1  0.63708300  0.01324000  0.32910000  1
  O  O12  1  0.79622300  0.44489000  0.66707900  1
  O  O13  1  0.29602600  0.94497000  0.16688600  1
  O  O14  1  0.20377800  0.55511100  0.33292100  1
  O  O15  1  0.70397500  0.05503200  0.83311300  1
  F  F0  1  0.83484700  0.30106500  0.96384700  1
  F  F1  1  0.33490500  0.80083400  0.46384400  1
  F  F2  1  0.16515300  0.69893600  0.03615300  1
  F  F3  1  0.66509500  0.19916700  0.53615500  1
loop_
_geom_bond_atom_site_label_1
_geom_bond_atom_site_label_2
_geom_bond_distance
_geom_bond_site_symmetry_2
Li0 O8 2.080385 1_555
Li0 O0 2.113195 1_555
Li0 O14 2.205012 1_555
Li0 O13 2.208726 1_555
Li1 O9 2.080739 1_645
Li1 O1 2.113445 1_655
Li1 O15 2.205831 1_555
Li1 O12 2.208366 1_555
Li2 O10 2.080387 1_555
Li2 O2 2.113199 1_555
Li2 O12 2.205003 1_555
Li2 O15 2.208726 1_555
Li3 O11 2.080748 1_465
Li3 O3 2.113447 1_455
Li3 O13 2.205832 1_555
Li3 O14 2.208364 1_555
Fe0 O6 1.979928 1_655
Fe0 O4 1.980051 1_554
Fe0 O8 2.019849 1_555
Fe0 O10 2.020133 1_654
Fe1 O5 1.980301 1_555
Fe1 O7 1.980333 1_545
Fe1 O11 2.019614 1_555
Fe1 O9 2.019641 1_545
O0 P0 1.556990 1_555
O0 V0 1.973197 1_555
O1 P1 1.556810 1_545
O1 V1 1.973802 1_555
O2 P2 1.556997 1_555
O2 V0 1.973171 1_555
O3 P3 1.556802 1_565
O3 V1 1.973858 1_664
O4 P1 1.532393 1_555
O5 P0 1.532829 1_455
O6 P3 1.532397 1_555
O7 P2 1.532830 1_655
O8 P0 1.551758 1_555
O9 P1 1.551760 1_555
O10 P2 1.551760 1_555
O11 P3 1.551770 1_555
O12 P2 1.572337 1_655
O12 V0 2.048456 1_555
O13 P3 1.573388 1_565
O13 V1 2.046530 1_564
O14 P0 1.572341 1_455
O14 V0 2.048417 1_555
O15 P1 1.573400 1_545
O15 V1 2.046556 1_655
F0 Li2 1.930493 1_555
F0 Fe0 2.015068 1_556
F0 V1 2.029727 1_655
F1 Li3 1.930512 1_555
F1 Fe1 2.016577 1_565
F1 V0 2.028126 1_555
F2 Li0 1.930490 1_555
F2 Fe0 2.015332 1_455
F2 V1 2.029727 1_564
F3 Li1 1.930515 1_555
F3 Fe1 2.016580 1_555
F3 V0 2.028161 1_555
