# generated using pymatgen
data_Li9(NiO2)10
_symmetry_space_group_name_H-M   'P 1'
_cell_length_a   6.33587810
_cell_length_b   7.49991587
_cell_length_c   7.52151894
_cell_angle_alpha   67.80297595
_cell_angle_beta   88.75616608
_cell_angle_gamma   89.11181683
_symmetry_Int_Tables_number   1
_chemical_formula_structural   Li9(NiO2)10
_chemical_formula_sum   'Li9 Ni10 O20'
_cell_volume   330.83572311
_cell_formula_units_Z   1
loop_
 _symmetry_equiv_pos_site_id
 _symmetry_equiv_pos_as_xyz
  1  'x, y, z'
loop_
 _atom_site_type_symbol
 _atom_site_label
 _atom_site_symmetry_multiplicity
 _atom_site_fract_x
 _atom_site_fract_y
 _atom_site_fract_z
 _atom_site_occupancy
  Li  Li0  1  0.69035095  0.30963586  0.80923528  1
  Li  Li1  1  0.20608969  0.79114737  0.80543051  1
  Li  Li2  1  0.40181991  0.59663052  0.60677508  1
  Li  Li3  1  0.89486320  0.10427159  0.59963728  1
  Li  Li4  1  0.10513680  0.89572841  0.40036272  1
  Li  Li5  1  0.59818009  0.40336948  0.39322492  1
  Li  Li6  1  0.30964905  0.69036414  0.19076472  1
  Li  Li7  1  0.79391031  0.20885263  0.19456949  1
  Li  Li8  1  -0.00000000  0.00000000  -0.00000000  1
  Ni  Ni0  1  0.59841759  0.89901626  0.89963250  1
  Ni  Ni1  1  0.10262291  0.40087656  0.89902472  1
  Ni  Ni2  1  0.79926138  0.69883490  0.70129319  1
  Ni  Ni3  1  -0.00000000  0.50000000  0.50000000  1
  Ni  Ni4  1  0.29839139  0.19697276  0.70079007  1
  Ni  Ni5  1  0.70160861  0.80302724  0.29920993  1
  Ni  Ni6  1  0.50000000  0.00000000  0.50000000  1
  Ni  Ni7  1  0.89737709  0.59912344  0.10097528  1
  Ni  Ni8  1  0.20073862  0.30116510  0.29870681  1
  Ni  Ni9  1  0.40158241  0.10098374  0.10036750  1
  O  O0  1  0.32067908  0.95299207  0.95376903  1
  O  O1  1  0.87629142  0.84557033  0.84298294  1
  O  O2  1  0.82591477  0.45672248  0.95075891  1
  O  O3  1  0.51505359  0.77861027  0.72816655  1
  O  O4  1  0.37897312  0.33771994  0.84447704  1
  O  O5  1  0.08346300  0.64324840  0.64604576  1
  O  O6  1  0.57948598  0.14477894  0.64275338  1
  O  O7  1  0.77927297  0.94814933  0.44508382  1
  O  O8  1  0.01851604  0.25356731  0.75483224  1
  O  O9  1  0.72063834  0.55617326  0.55634523  1
  O  O10  1  0.27936166  0.44382674  0.44365477  1
  O  O11  1  0.91653700  0.35675160  0.35395424  1
  O  O12  1  0.42051402  0.85522106  0.35724662  1
  O  O13  1  0.22072703  0.05185067  0.55491618  1
  O  O14  1  0.98148396  0.74643269  0.24516776  1
  O  O15  1  0.62102688  0.66228006  0.15552296  1
  O  O16  1  0.48494641  0.22138973  0.27183345  1
  O  O17  1  0.12370858  0.15442967  0.15701706  1
  O  O18  1  0.67932092  0.04700793  0.04623097  1
  O  O19  1  0.17408523  0.54327752  0.04924109  1
loop_
_geom_bond_atom_site_label_1
_geom_bond_atom_site_label_2
_geom_bond_distance
_geom_bond_site_symmetry_2
Li0 O4 2.003340 1_555
Li0 O2 2.010988 1_555
Li0 O18 2.099529 1_556
Li0 O9 2.100344 1_555
Li0 O8 2.175631 1_655
Li0 O6 2.196600 1_555
Li1 O3 2.040782 1_555
Li1 O19 2.068723 1_556
Li1 O0 2.081131 1_555
Li1 O5 2.084011 1_555
Li1 O13 2.143905 1_565
Li1 O1 2.155851 1_455
Li2 O3 2.052197 1_555
Li2 O5 2.075660 1_555
Li2 O9 2.085909 1_555
Li2 O4 2.088632 1_555
Li2 O12 2.131904 1_555
Li2 O10 2.133530 1_555
Li3 O6 2.053710 1_555
Li3 O8 2.069928 1_655
Li3 O7 2.085842 1_545
Li3 O11 2.091028 1_555
Li3 O1 2.107821 1_545
Li3 O13 2.138933 1_655
Li4 O12 2.053710 1_555
Li4 O14 2.069928 1_455
Li4 O13 2.085842 1_565
Li4 O5 2.091028 1_555
Li4 O17 2.107821 1_565
Li4 O7 2.138933 1_455
Li5 O16 2.052197 1_555
Li5 O11 2.075660 1_555
Li5 O10 2.085909 1_555
Li5 O15 2.088632 1_555
Li5 O6 2.131904 1_555
Li5 O9 2.133530 1_555
Li6 O15 2.003340 1_555
Li6 O19 2.010988 1_555
Li6 O0 2.099529 1_554
Li6 O10 2.100344 1_555
Li6 O14 2.175631 1_455
Li6 O12 2.196600 1_555
Li7 O16 2.040782 1_555
Li7 O2 2.068723 1_554
Li7 O18 2.081131 1_555
Li7 O11 2.084011 1_555
Li7 O7 2.143905 1_545
Li7 O17 2.155851 1_655
Li8 O8 2.092512 1_554
Li8 O14 2.092512 1_445
Li8 O0 2.100739 1_544
Li8 O18 2.100739 1_455
Li8 O17 2.110079 1_555
Li8 O1 2.110079 1_444
Ni0 O0 1.870197 1_555
Ni0 O1 1.875221 1_555
Ni0 O18 1.917657 1_566
Ni0 O3 1.918873 1_555
Ni0 O15 2.073494 1_556
Ni0 O6 2.111212 1_565
Ni1 O2 1.863136 1_455
Ni1 O4 1.883709 1_555
Ni1 O19 1.889747 1_556
Ni1 O8 1.905127 1_555
Ni1 O5 2.080712 1_555
Ni1 O17 2.119729 1_556
Ni2 O9 1.871638 1_555
Ni2 O1 1.873626 1_555
Ni2 O5 1.914162 1_655
Ni2 O3 1.919256 1_555
Ni2 O2 2.067928 1_555
Ni2 O7 2.122878 1_555
Ni3 O9 1.889239 1_455
Ni3 O10 1.889239 1_555
Ni3 O11 1.890790 1_455
Ni3 O5 1.890790 1_555
Ni3 O14 2.104729 1_455
Ni3 O8 2.104729 1_555
Ni4 O4 1.856234 1_555
Ni4 O8 1.888269 1_555
Ni4 O13 1.890224 1_555
Ni4 O6 1.894578 1_555
Ni4 O0 2.088468 1_545
Ni4 O10 2.116697 1_555
Ni5 O15 1.856234 1_555
Ni5 O14 1.888269 1_555
Ni5 O7 1.890224 1_555
Ni5 O12 1.894578 1_555
Ni5 O18 2.088468 1_565
Ni5 O9 2.116697 1_555
Ni6 O6 1.872667 1_555
Ni6 O12 1.872667 1_545
Ni6 O7 1.876448 1_545
Ni6 O13 1.876448 1_555
Ni6 O3 1.886898 1_545
Ni6 O16 1.886898 1_555
Ni7 O19 1.863136 1_655
Ni7 O15 1.883709 1_555
Ni7 O2 1.889747 1_554
Ni7 O14 1.905127 1_555
Ni7 O11 2.080712 1_555
Ni7 O1 2.119729 1_554
Ni8 O10 1.871638 1_555
Ni8 O17 1.873626 1_555
Ni8 O11 1.914162 1_455
Ni8 O16 1.919256 1_555
Ni8 O19 2.067928 1_555
Ni8 O13 2.122878 1_555
Ni9 O18 1.870197 1_555
Ni9 O17 1.875221 1_555
Ni9 O0 1.917657 1_544
Ni9 O16 1.918873 1_555
Ni9 O4 2.073494 1_554
Ni9 O12 2.111212 1_545
