# generated using pymatgen
data_Li2Ti3Ni(PO4)6
_symmetry_space_group_name_H-M   'P 1'
_cell_length_a   8.69453580
_cell_length_b   8.69453580
_cell_length_c   8.69453616
_cell_angle_alpha   59.60683066
_cell_angle_beta   59.60683066
_cell_angle_gamma   59.60683639
_symmetry_Int_Tables_number   1
_chemical_formula_structural   Li2Ti3Ni(PO4)6
_chemical_formula_sum   'Li2 Ti3 Ni1 P6 O24'
_cell_volume   460.60217016
_cell_formula_units_Z   1
loop_
 _symmetry_equiv_pos_site_id
 _symmetry_equiv_pos_as_xyz
  1  'x, y, z'
loop_
 _atom_site_type_symbol
 _atom_site_label
 _atom_site_symmetry_multiplicity
 _atom_site_fract_x
 _atom_site_fract_y
 _atom_site_fract_z
 _atom_site_occupancy
  Li  Li0  1  0.01160400  0.01160400  0.01160400  1
  Li  Li1  1  0.49822800  0.49822800  0.49822800  1
  Ti  Ti0  1  0.85780800  0.85780800  0.85780800  1
  Ti  Ti1  1  0.64449500  0.64449500  0.64449500  1
  Ti  Ti2  1  0.35482500  0.35482500  0.35482500  1
  Ni  Ni0  1  0.14280600  0.14280600  0.14280600  1
  P  P0  1  0.53861500  0.95694700  0.25135200  1
  P  P1  1  0.25135200  0.53861500  0.95694700  1
  P  P2  1  0.95694700  0.25135200  0.53861500  1
  P  P3  1  0.04107600  0.75051800  0.45926000  1
  P  P4  1  0.75051800  0.45926000  0.04107600  1
  P  P5  1  0.45926000  0.04107600  0.75051800  1
  O  O0  1  0.51025400  0.88083300  0.68448900  1
  O  O1  1  0.88083300  0.68448900  0.51025400  1
  O  O2  1  0.72422100  0.94677200  0.07887100  1
  O  O3  1  0.68448900  0.51025400  0.88083300  1
  O  O4  1  0.57461500  0.76493800  0.41404200  1
  O  O5  1  0.37519300  0.98200400  0.21151800  1
  O  O6  1  0.07887100  0.72422100  0.94677200  1
  O  O7  1  0.41404200  0.57461500  0.76493800  1
  O  O8  1  0.76493800  0.41404200  0.57461500  1
  O  O9  1  0.99928800  0.80306100  0.62513300  1
  O  O10  1  0.04911200  0.91506200  0.27156900  1
  O  O11  1  0.80306100  0.62513300  0.99928800  1
  O  O12  1  0.21151800  0.37519300  0.98200400  1
  O  O13  1  0.94677200  0.07887100  0.72422100  1
  O  O14  1  0.98200400  0.21151800  0.37519300  1
  O  O15  1  0.23379900  0.58571500  0.43679600  1
  O  O16  1  0.58571500  0.43679600  0.23379900  1
  O  O17  1  0.91506200  0.27156900  0.04911200  1
  O  O18  1  0.62513300  0.99928800  0.80306100  1
  O  O19  1  0.43679600  0.23379900  0.58571500  1
  O  O20  1  0.30633800  0.49591300  0.12292800  1
  O  O21  1  0.27156900  0.04911200  0.91506200  1
  O  O22  1  0.12292800  0.30633800  0.49591300  1
  O  O23  1  0.49591300  0.12292800  0.30633800  1
loop_
_geom_bond_atom_site_label_1
_geom_bond_atom_site_label_2
_geom_bond_distance
_geom_bond_site_symmetry_2
Li0 O21 2.113973 1_554
Li0 O17 2.113973 1_455
Li0 O10 2.113973 1_545
Li0 O2 2.552645 1_445
Li0 O6 2.552645 1_544
Li0 O13 2.552645 1_454
Li1 O19 2.282889 1_555
Li1 O15 2.282889 1_555
Li1 O16 2.282889 1_555
Li1 O4 2.388146 1_555
Li1 O8 2.388146 1_555
Li1 O7 2.388146 1_555
Ni0 O12 1.977847 1_554
Ni0 O14 1.977847 1_455
Ni0 O5 1.977847 1_545
Ni0 O10 2.074642 1_545
Ni0 O21 2.074643 1_554
Ni0 O17 2.074643 1_455
O0 P5 1.547257 1_565
O0 Ti1 1.895029 1_555
O1 P3 1.547257 1_655
O1 Ti1 1.895029 1_555
O2 P0 1.549834 1_555
O2 Ti0 1.994482 1_554
O3 P4 1.547257 1_556
O3 Ti1 1.895029 1_555
O4 P0 1.554232 1_555
O4 Ti1 1.986303 1_555
O5 P0 1.514820 1_555
O6 P1 1.549835 1_555
O6 Ti0 1.994482 1_455
O7 P1 1.554232 1_555
O7 Ti1 1.986303 1_555
O8 P2 1.554232 1_555
O8 Ti1 1.986303 1_555
O9 P3 1.545679 1_655
O9 Ti0 1.922535 1_555
O10 P3 1.529083 1_555
O11 P4 1.545679 1_556
O11 Ti0 1.922535 1_555
O12 P1 1.514820 1_555
O13 P2 1.549834 1_555
O13 Ti0 1.994482 1_545
O14 P2 1.514820 1_555
O15 P3 1.556155 1_555
O15 Ti2 2.048556 1_555
O16 P4 1.556154 1_555
O16 Ti2 2.048556 1_555
O17 P4 1.529083 1_555
O18 P5 1.545679 1_565
O18 Ti0 1.922535 1_555
O19 P5 1.556154 1_555
O19 Ti2 2.048556 1_555
O20 P1 1.557362 1_554
O20 Ti2 1.892582 1_555
O21 P5 1.529083 1_555
O22 P2 1.557362 1_455
O22 Ti2 1.892582 1_555
O23 P0 1.557362 1_545
O23 Ti2 1.892582 1_555
