# generated using pymatgen
data_Li14Fe2S9
_symmetry_space_group_name_H-M   'P 1'
_cell_length_a   7.06684003
_cell_length_b   7.06684003
_cell_length_c   9.85976400
_cell_angle_alpha   90.00000000
_cell_angle_beta   90.00000000
_cell_angle_gamma   120.00000029
_symmetry_Int_Tables_number   1
_chemical_formula_structural   Li14Fe2S9
_chemical_formula_sum   'Li14 Fe2 S9'
_cell_volume   426.42992238
_cell_formula_units_Z   1
loop_
 _symmetry_equiv_pos_site_id
 _symmetry_equiv_pos_as_xyz
  1  'x, y, z'
loop_
 _atom_site_type_symbol
 _atom_site_label
 _atom_site_symmetry_multiplicity
 _atom_site_fract_x
 _atom_site_fract_y
 _atom_site_fract_z
 _atom_site_occupancy
  Li  Li0  1  0.01556900  0.67173700  0.90919900  1
  Li  Li1  1  0.32359200  0.96398600  0.59089500  1
  Li  Li2  1  0.03601400  0.35960700  0.59089500  1
  Li  Li3  1  0.00000000  0.00000000  0.25075700  1
  Li  Li4  1  0.00000000  0.00000000  0.74924300  1
  Li  Li5  1  0.32826300  0.34383200  0.90919900  1
  Li  Li6  1  0.65616800  0.98443100  0.90919900  1
  Li  Li7  1  0.35960700  0.32359200  0.40910500  1
  Li  Li8  1  0.64039300  0.67640800  0.59089500  1
  Li  Li9  1  0.34383200  0.01556900  0.09080100  1
  Li  Li10  1  0.67173700  0.65616800  0.09080100  1
  Li  Li11  1  0.96398600  0.64039300  0.40910500  1
  Li  Li12  1  0.67640800  0.03601400  0.40910500  1
  Li  Li13  1  0.98443100  0.32826300  0.09080100  1
  Fe  Fe0  1  0.33333300  0.66666700  0.25558100  1
  Fe  Fe1  1  0.66666700  0.33333300  0.74441900  1
  S  S0  1  0.30879600  0.96740800  0.33662800  1
  S  S1  1  0.03259200  0.34138800  0.33662800  1
  S  S2  1  0.33333300  0.66666700  0.01806800  1
  S  S3  1  0.00000000  0.00000000  0.00000000  1
  S  S4  1  0.34138800  0.30879600  0.66337200  1
  S  S5  1  0.65861200  0.69120400  0.33662800  1
  S  S6  1  0.66666700  0.33333300  0.98193200  1
  S  S7  1  0.96740800  0.65861200  0.66337200  1
  S  S8  1  0.69120400  0.03259200  0.66337200  1
loop_
_geom_bond_atom_site_label_1
_geom_bond_atom_site_label_2
_geom_bond_distance
_geom_bond_site_symmetry_2
Li0 S7 2.442879 1_455
Li0 S2 2.505322 1_556
Li0 S6 2.533025 1_455
Li0 S3 2.539733 1_566
Li1 S7 2.464053 1_455
Li1 S4 2.481456 1_565
Li1 S8 2.497010 1_565
Li1 S0 2.509812 1_555
Li2 S4 2.464057 1_555
Li2 S8 2.481459 1_455
Li2 S7 2.497003 1_455
Li2 S1 2.509813 1_555
Li3 S5 2.456533 1_445
Li3 S1 2.456533 1_555
Li3 S0 2.456533 1_545
Li3 S3 2.472405 1_555
Li4 S4 2.456533 1_555
Li4 S7 2.456533 1_445
Li4 S8 2.456533 1_455
Li4 S3 2.472405 1_556
Li5 S4 2.442879 1_555
Li5 S2 2.505329 1_556
Li5 S6 2.533028 1_555
Li5 S3 2.539733 1_556
Li6 S8 2.442879 1_565
Li6 S2 2.505325 1_556
Li6 S6 2.533021 1_565
Li6 S3 2.539733 1_666
Li7 S0 2.464050 1_545
Li7 S1 2.481463 1_555
Li7 S5 2.497008 1_555
Li7 S4 2.509813 1_555
Li8 S8 2.464050 1_565
Li8 S7 2.481463 1_555
Li8 S4 2.497008 1_555
Li8 S5 2.509813 1_555
Li9 S0 2.442879 1_545
Li9 S6 2.505325 1_554
Li9 S2 2.533021 1_545
Li9 S3 2.539733 1_555
Li10 S5 2.442879 1_555
Li10 S6 2.505329 1_554
Li10 S2 2.533028 1_555
Li10 S3 2.539733 1_665
Li11 S5 2.464057 1_555
Li11 S0 2.481459 1_655
Li11 S1 2.497003 1_655
Li11 S7 2.509813 1_555
Li12 S1 2.464053 1_655
Li12 S5 2.481456 1_545
Li12 S0 2.497010 1_545
Li12 S8 2.509812 1_555
Li13 S1 2.442879 1_655
Li13 S6 2.505322 1_554
Li13 S2 2.533025 1_655
Li13 S3 2.539733 1_655
Fe0 S2 2.341822 1_555
Fe0 S0 2.356695 1_555
Fe0 S1 2.356698 1_555
Fe0 S5 2.356701 1_555
Fe1 S6 2.341822 1_555
Fe1 S8 2.356695 1_555
Fe1 S7 2.356698 1_555
Fe1 S4 2.356701 1_555
