# generated using pymatgen
data_Mn3BiO8
_symmetry_space_group_name_H-M   'P 1'
_cell_length_a   6.44826399
_cell_length_b   6.44826399
_cell_length_c   6.44826403
_cell_angle_alpha   53.57283447
_cell_angle_beta   53.57283447
_cell_angle_gamma   53.57283695
_symmetry_Int_Tables_number   1
_chemical_formula_structural   Mn3BiO8
_chemical_formula_sum   'Mn3 Bi1 O8'
_cell_volume   161.08382414
_cell_formula_units_Z   1
loop_
 _symmetry_equiv_pos_site_id
 _symmetry_equiv_pos_as_xyz
  1  'x, y, z'
loop_
 _atom_site_type_symbol
 _atom_site_label
 _atom_site_symmetry_multiplicity
 _atom_site_fract_x
 _atom_site_fract_y
 _atom_site_fract_z
 _atom_site_occupancy
  Mn  Mn0  1  0.50000000  0.50000000  0.00000000  1
  Mn  Mn1  1  0.50000000  0.00000000  0.50000000  1
  Mn  Mn2  1  0.00000000  0.50000000  0.50000000  1
  Bi  Bi0  1  0.50000000  0.50000000  0.50000000  1
  O  O0  1  0.75687700  0.29216700  0.75687700  1
  O  O1  1  0.75687700  0.75687700  0.29216700  1
  O  O2  1  0.27344300  0.27344300  0.27344300  1
  O  O3  1  0.29216700  0.75687700  0.75687700  1
  O  O4  1  0.70783300  0.24312300  0.24312300  1
  O  O5  1  0.72655700  0.72655700  0.72655700  1
  O  O6  1  0.24312300  0.24312300  0.70783300  1
  O  O7  1  0.24312300  0.70783300  0.24312300  1
loop_
_geom_bond_atom_site_label_1
_geom_bond_atom_site_label_2
_geom_bond_distance
_geom_bond_site_symmetry_2
Mn0 O7 1.942260 1_555
Mn0 O4 1.942260 1_555
Mn0 O0 1.942260 1_554
Mn0 O3 1.942260 1_554
Mn0 O2 1.947757 1_555
Mn0 O5 1.947757 1_554
Mn1 O4 1.942260 1_555
Mn1 O3 1.942260 1_545
Mn1 O6 1.942260 1_555
Mn1 O1 1.942260 1_545
Mn1 O2 1.947757 1_555
Mn1 O5 1.947757 1_545
Mn2 O7 1.942260 1_555
Mn2 O0 1.942260 1_455
Mn2 O6 1.942260 1_555
Mn2 O1 1.942260 1_455
Mn2 O5 1.947757 1_455
Mn2 O2 1.947757 1_555
Bi0 O1 2.295481 1_555
Bi0 O6 2.295481 1_555
Bi0 O0 2.295481 1_555
Bi0 O3 2.295481 1_555
Bi0 O7 2.295481 1_555
Bi0 O4 2.295481 1_555
