# generated using pymatgen
data_Li3Cr(PO4)2
_symmetry_space_group_name_H-M   'P 1'
_cell_length_a   8.11614100
_cell_length_b   8.46606586
_cell_length_c   10.31204251
_cell_angle_alpha   90.24735428
_cell_angle_beta   89.96987428
_cell_angle_gamma   107.54990611
_symmetry_Int_Tables_number   1
_chemical_formula_structural   Li3Cr(PO4)2
_chemical_formula_sum   'Li12 Cr4 P8 O32'
_cell_volume   675.57221311
_cell_formula_units_Z   4
loop_
 _symmetry_equiv_pos_site_id
 _symmetry_equiv_pos_as_xyz
  1  'x, y, z'
loop_
 _atom_site_type_symbol
 _atom_site_label
 _atom_site_symmetry_multiplicity
 _atom_site_fract_x
 _atom_site_fract_y
 _atom_site_fract_z
 _atom_site_occupancy
  Li  Li0  1  0.34785700  0.84208000  0.14824200  1
  Li  Li1  1  0.53659500  0.77026600  0.42986200  1
  Li  Li2  1  0.45897800  0.73085300  0.91580500  1
  Li  Li3  1  0.65474900  0.66916700  0.65668400  1
  Li  Li4  1  0.61681600  0.60703100  0.16746100  1
  Li  Li5  1  0.38465900  0.40241400  0.83849900  1
  Li  Li6  1  0.35855600  0.32519000  0.34162300  1
  Li  Li7  1  0.81890700  0.34691700  0.15354600  1
  Li  Li8  1  0.15935200  0.13272800  0.66185500  1
  Li  Li9  1  0.47588200  0.22067800  0.58334900  1
  Li  Li10  1  0.63608700  0.16756700  0.85119200  1
  Li  Li11  1  0.60493400  0.09714000  0.33610400  1
  Cr  Cr0  1  0.87539300  0.87724800  0.85522900  1
  Cr  Cr1  1  0.12401300  0.62285500  0.35779200  1
  Cr  Cr2  1  0.88521200  0.37739600  0.65305100  1
  Cr  Cr3  1  0.12295000  0.13250800  0.14711200  1
  P  P0  1  0.21757900  0.94919900  0.41158400  1
  P  P1  1  0.72426000  0.97555600  0.08639100  1
  P  P2  1  0.28374300  0.51151600  0.57933200  1
  P  P3  1  0.21257200  0.45496500  0.09095700  1
  P  P4  1  0.78789600  0.55527000  0.91389800  1
  P  P5  1  0.71558300  0.47572400  0.41519300  1
  P  P6  1  0.28586400  0.02481300  0.90680200  1
  P  P7  1  0.77835300  0.05351800  0.59236400  1
  O  O0  1  0.25005100  0.00400100  0.05847000  1
  O  O1  1  0.34258900  0.85668800  0.34936500  1
  O  O2  1  0.04402700  0.80488000  0.41586100  1
  O  O3  1  0.70521800  0.98711900  0.46173000  1
  O  O4  1  0.35303900  0.88609400  0.86438400  1
  O  O5  1  0.90201200  0.95386600  0.12383800  1
  O  O6  1  0.79063400  0.90980100  0.68039700  1
  O  O7  1  0.57842900  0.80983000  0.10456100  1
  O  O8  1  0.43465400  0.66927900  0.59570800  1
  O  O9  1  0.19582500  0.60039900  0.17794800  1
  O  O10  1  0.11086400  0.53910500  0.62515800  1
  O  O11  1  0.64559300  0.60704300  0.35583900  1
  O  O12  1  0.28598200  0.52124400  0.96060100  1
  O  O13  1  0.96107400  0.69929800  0.90873800  1
  O  O14  1  0.65794500  0.63971800  0.84966500  1
  O  O15  1  0.25357200  0.47468200  0.42811600  1
  O  O16  1  0.75722700  0.51289800  0.56434600  1
  O  O17  1  0.32285300  0.35652200  0.15979500  1
  O  O18  1  0.03290900  0.31532100  0.08391800  1
  O  O19  1  0.73288000  0.49450300  0.04996900  1
  O  O20  1  0.32135700  0.36436600  0.64887000  1
  O  O21  1  0.88363500  0.46334000  0.34527000  1
  O  O22  1  0.80258600  0.40870700  0.82792800  1
  O  O23  1  0.57866800  0.30221400  0.40543800  1
  O  O24  1  0.41262800  0.19646500  0.87734000  1
  O  O25  1  0.20305800  0.08814800  0.31812400  1
  O  O26  1  0.11036800  0.02930000  0.83951500  1
  O  O27  1  0.68290300  0.11568800  0.16026100  1
  O  O28  1  0.27953300  0.02870700  0.54138100  1
  O  O29  1  0.96183600  0.18792600  0.58744700  1
  O  O30  1  0.67554400  0.16353900  0.65895900  1
  O  O31  1  0.73997200  0.01281500  0.93508700  1
loop_
_geom_bond_atom_site_label_1
_geom_bond_atom_site_label_2
_geom_bond_distance
_geom_bond_site_symmetry_2
Li0 O0 2.008551 1_565
Li0 O7 2.021286 1_555
Li0 O9 2.070095 1_555
Li0 O1 2.078325 1_555
Li1 O3 1.957419 1_555
Li1 O8 1.981126 1_555
Li1 O11 2.000550 1_555
Li1 O1 2.098822 1_555
Li2 O4 1.853586 1_555
Li2 O12 1.958987 1_555
Li2 O14 2.100925 1_555
Li2 O7 2.185288 1_556
Li3 O8 1.894341 1_555
Li3 O16 2.000153 1_555
Li3 O14 2.007805 1_555
Li3 O6 2.016777 1_555
Li4 O19 1.947536 1_555
Li4 O7 1.948841 1_555
Li4 O11 1.956670 1_555
Li5 O24 1.869982 1_555
Li5 O12 1.926855 1_555
Li5 O20 2.021723 1_555
Li5 O14 2.506000 1_555
Li6 O17 1.929052 1_555
Li6 O15 1.939871 1_555
Li6 O23 1.968306 1_555
Li6 O25 2.036542 1_555
Li7 O19 1.930781 1_555
Li7 O27 1.937361 1_555
Li7 O18 1.970032 1_655
Li7 O21 2.197331 1_555
Li8 O28 1.943621 1_555
Li8 O29 1.957836 1_455
Li8 O20 2.009874 1_555
Li8 O26 2.020962 1_555
Li9 O28 1.949604 1_555
Li9 O30 1.986261 1_555
Li9 O23 2.049469 1_555
Li9 O20 2.102684 1_555
Li10 O24 1.920494 1_555
Li10 O31 1.962789 1_555
Li10 O30 2.009632 1_555
Li10 O22 2.095604 1_555
Li11 O27 1.911671 1_555
Li11 O3 1.917551 1_545
Li11 O23 1.945057 1_555
Li11 O1 2.466665 1_545
Cr0 O13 1.922781 1_555
Cr0 O26 1.959924 1_665
Cr0 O6 1.979765 1_555
Cr0 O31 1.988733 1_565
Cr0 O14 2.240682 1_555
Cr1 O2 1.936424 1_555
Cr1 O9 1.969232 1_555
Cr1 O15 2.002339 1_555
Cr1 O21 2.014065 1_455
Cr1 O1 2.226434 1_555
Cr2 O10 1.949841 1_655
Cr2 O22 1.968201 1_555
Cr2 O16 1.990077 1_555
Cr2 O29 2.002306 1_555
Cr2 O30 2.078529 1_555
Cr3 O0 1.936636 1_555
Cr3 O25 1.956479 1_555
Cr3 O5 1.980449 1_445
Cr3 O18 2.011321 1_555
Cr3 O17 2.094906 1_555
O0 P6 1.591434 1_554
O1 P0 1.590182 1_555
O2 P0 1.562484 1_555
O3 P7 1.508672 1_565
O4 P6 1.499752 1_565
O5 P1 1.557262 1_555
O6 P7 1.548292 1_565
O7 P1 1.550832 1_555
O8 P2 1.524567 1_555
O9 P3 1.558983 1_555
O10 P2 1.562875 1_555
O11 P5 1.523285 1_555
O12 P3 1.510254 1_556
O13 P4 1.559516 1_555
O14 P4 1.588032 1_555
O15 P2 1.593398 1_555
O16 P5 1.584666 1_555
O17 P3 1.566930 1_555
O18 P3 1.577638 1_555
O19 P4 1.516565 1_554
O20 P2 1.548118 1_555
O21 P5 1.573458 1_555
O22 P4 1.555431 1_555
O23 P5 1.554725 1_555
O24 P6 1.537680 1_555
O25 P0 1.555651 1_545
O26 P6 1.595483 1_555
O27 P1 1.527245 1_545
O28 P0 1.512033 1_545
O29 P7 1.579091 1_555
O30 P7 1.580513 1_555
O31 P1 1.590577 1_546
