# generated using pymatgen
data_LiFe2(PO4)2
_symmetry_space_group_name_H-M   'P 1'
_cell_length_a   7.48661000
_cell_length_b   7.52881233
_cell_length_c   9.52521856
_cell_angle_alpha   91.91309661
_cell_angle_beta   89.74852311
_cell_angle_gamma   119.39302754
_symmetry_Int_Tables_number   1
_chemical_formula_structural   LiFe2(PO4)2
_chemical_formula_sum   'Li3 Fe6 P6 O24'
_cell_volume   467.47437449
_cell_formula_units_Z   3
loop_
 _symmetry_equiv_pos_site_id
 _symmetry_equiv_pos_as_xyz
  1  'x, y, z'
loop_
 _atom_site_type_symbol
 _atom_site_label
 _atom_site_symmetry_multiplicity
 _atom_site_fract_x
 _atom_site_fract_y
 _atom_site_fract_z
 _atom_site_occupancy
  Li  Li0  1  0.81272800  0.75655800  0.75159600  1
  Li  Li1  1  0.18729800  0.94048000  0.25090500  1
  Li  Li2  1  0.95899800  0.20958500  0.75995900  1
  Fe  Fe0  1  0.45087500  0.39060100  0.96691500  1
  Fe  Fe1  1  0.58937300  0.05191500  0.97250200  1
  Fe  Fe2  1  0.94488000  0.54045900  0.98253500  1
  Fe  Fe3  1  0.05679400  0.59507200  0.47745500  1
  Fe  Fe4  1  0.56250200  0.95414200  0.45272800  1
  Fe  Fe5  1  0.38294400  0.45012400  0.46833100  1
  P  P0  1  0.00398600  0.00371500  0.50532300  1
  P  P1  1  0.00318800  0.00349200  0.00594900  1
  P  P2  1  0.65622500  0.33841400  0.66969300  1
  P  P3  1  0.65993100  0.33288400  0.27485700  1
  P  P4  1  0.33225600  0.65556300  0.77355500  1
  P  P5  1  0.34894900  0.67390100  0.17402700  1
  O  O0  1  0.99152800  0.00537000  0.66414300  1
  O  O1  1  0.01179000  0.00704600  0.16265300  1
  O  O2  1  0.23199100  0.12556700  0.94651400  1
  O  O3  1  0.45662400  0.31964200  0.61056100  1
  O  O4  1  0.57744000  0.47172900  0.33179500  1
  O  O5  1  0.50660000  0.10952800  0.31866500  1
  O  O6  1  0.65783000  0.33748200  0.10722800  1
  O  O7  1  0.64853900  0.32854000  0.83655800  1
  O  O8  1  0.91023300  0.78307900  0.93779200  1
  O  O9  1  0.84028900  0.54443900  0.63334000  1
  O  O10  1  0.68316300  0.15642500  0.61191100  1
  O  O11  1  0.10925800  0.88512900  0.44567700  1
  O  O12  1  0.87338800  0.39637200  0.33045300  1
  O  O13  1  0.15573600  0.68919200  0.14215900  1
  O  O14  1  0.88424800  0.10683800  0.94385500  1
  O  O15  1  0.11581900  0.50045100  0.81994900  1
  O  O16  1  0.39896300  0.87466200  0.81721500  1
  O  O17  1  0.33433600  0.64636900  0.60313400  1
  O  O18  1  0.35798100  0.67582600  0.34569900  1
  O  O19  1  0.11566600  0.22640800  0.45007000  1
  O  O20  1  0.32744900  0.47073500  0.11541100  1
  O  O21  1  0.54421200  0.85507300  0.12508200  1
  O  O22  1  0.49048900  0.59247700  0.82468600  1
  O  O23  1  0.77767400  0.89908300  0.44448900  1
loop_
_geom_bond_atom_site_label_1
_geom_bond_atom_site_label_2
_geom_bond_distance
_geom_bond_site_symmetry_2
Li0 O8 1.887563 1_555
Li0 O0 1.904695 1_565
Li0 O9 2.015718 1_555
Li0 O22 2.224433 1_555
Li1 O1 1.835350 1_565
Li1 O11 1.939088 1_555
Li1 O13 2.034835 1_555
Li1 O5 2.173271 1_565
Li2 O0 1.878318 1_555
Li2 O14 1.907035 1_555
Li2 O15 1.974615 1_655
Li2 O10 2.364300 1_555
Fe0 O2 1.863310 1_555
Fe0 O20 1.922838 1_556
Fe0 O22 1.981131 1_555
Fe0 O7 2.138655 1_555
Fe0 O6 2.238060 1_556
Fe1 O16 2.005055 1_545
Fe1 O21 2.017548 1_546
Fe1 O14 2.055527 1_555
Fe1 O6 2.296057 1_556
Fe1 O7 2.340921 1_555
Fe2 O8 2.025727 1_555
Fe2 O13 2.056672 1_656
Fe2 O15 2.111092 1_655
Fe2 O6 2.288991 1_556
Fe2 O7 2.409459 1_555
Fe3 O12 1.986118 1_455
Fe3 O11 2.053277 1_555
Fe3 O9 2.094633 1_455
Fe3 O17 2.258974 1_555
Fe3 O18 2.389462 1_555
Fe4 O23 1.850734 1_555
Fe4 O5 1.938935 1_565
Fe4 O10 1.985409 1_565
Fe4 O18 2.120422 1_555
Fe4 O17 2.579633 1_555
Fe5 O19 1.883188 1_555
Fe5 O4 1.898192 1_555
Fe5 O3 1.931860 1_555
Fe5 O17 2.088336 1_555
Fe5 O18 2.175560 1_555
O0 P0 1.515271 1_655
O1 P1 1.493092 1_555
O2 P1 1.606330 1_556
O3 P2 1.537862 1_555
O4 P3 1.536612 1_555
O5 P3 1.570819 1_555
O6 P3 1.598547 1_555
O7 P2 1.593110 1_555
O8 P1 1.567799 1_666
O9 P2 1.535693 1_555
O10 P2 1.562323 1_555
O11 P0 1.547240 1_565
O12 P3 1.517717 1_555
O13 P5 1.538648 1_555
O14 P1 1.569578 1_656
O15 P4 1.534731 1_555
O16 P4 1.513529 1_555
O17 P4 1.622794 1_555
O18 P5 1.636194 1_555
O19 P0 1.570389 1_555
O20 P5 1.542532 1_555
O21 P5 1.514626 1_555
O22 P4 1.561712 1_555
O23 P0 1.579563 1_665
