# generated using pymatgen
data_MgBP(H3O4)2
_symmetry_space_group_name_H-M   'P 1'
_cell_length_a   9.85388607
_cell_length_b   9.85388607
_cell_length_c   9.85388606
_cell_angle_alpha   99.14738960
_cell_angle_beta   99.14738960
_cell_angle_gamma   99.14739301
_symmetry_Int_Tables_number   1
_chemical_formula_structural   MgBP(H3O4)2
_chemical_formula_sum   'Mg6 B6 P6 H36 O48'
_cell_volume   915.80889180
_cell_formula_units_Z   6
loop_
 _symmetry_equiv_pos_site_id
 _symmetry_equiv_pos_as_xyz
  1  'x, y, z'
loop_
 _atom_site_type_symbol
 _atom_site_label
 _atom_site_symmetry_multiplicity
 _atom_site_fract_x
 _atom_site_fract_y
 _atom_site_fract_z
 _atom_site_occupancy
  Mg  Mg0  1  0.75000000  0.24974200  0.25025800  1
  Mg  Mg1  1  0.74974200  0.25000000  0.75025800  1
  Mg  Mg2  1  0.75025800  0.74974200  0.25000000  1
  Mg  Mg3  1  0.24974200  0.25025800  0.75000000  1
  Mg  Mg4  1  0.25025800  0.75000000  0.24974200  1
  Mg  Mg5  1  0.25000000  0.75025800  0.74974200  1
  B  B0  1  0.94070700  0.55929300  0.75000000  1
  B  B1  1  0.25000000  0.05929300  0.44070700  1
  B  B2  1  0.44070700  0.25000000  0.05929300  1
  B  B3  1  0.75000000  0.94070700  0.55929300  1
  B  B4  1  0.55929300  0.75000000  0.94070700  1
  B  B5  1  0.05929300  0.44070700  0.25000000  1
  P  P0  1  0.43986500  0.06013500  0.25000000  1
  P  P1  1  0.75000000  0.56013500  0.93986500  1
  P  P2  1  0.93986500  0.75000000  0.56013500  1
  P  P3  1  0.25000000  0.43986500  0.06013500  1
  P  P4  1  0.06013500  0.25000000  0.43986500  1
  P  P5  1  0.56013500  0.93986500  0.75000000  1
  H  H0  1  0.83229000  0.02164700  0.13012300  1
  H  H1  1  0.86987700  0.16771000  0.97835300  1
  H  H2  1  0.83420000  0.13092700  0.52697700  1
  H  H3  1  0.97966900  0.29499900  0.96144100  1
  H  H4  1  0.70500100  0.03855900  0.02033100  1
  H  H5  1  0.97302300  0.36907300  0.66580000  1
  H  H6  1  0.86907300  0.47302300  0.16580000  1
  H  H7  1  0.53855900  0.20500100  0.52033100  1
  H  H8  1  0.79499900  0.47966900  0.46144100  1
  H  H9  1  0.63092700  0.33420000  0.02697700  1
  H  H10  1  0.66771000  0.36987700  0.47835300  1
  H  H11  1  0.47302300  0.16580000  0.86907300  1
  H  H12  1  0.33420000  0.02697700  0.63092700  1
  H  H13  1  0.52164700  0.33229000  0.63012300  1
  H  H14  1  0.63012300  0.52164700  0.33229000  1
  H  H15  1  0.97835300  0.86987700  0.16771000  1
  H  H16  1  0.47966900  0.46144100  0.79499900  1
  H  H17  1  0.03855900  0.02033100  0.70500100  1
  H  H18  1  0.52033100  0.53855900  0.20500100  1
  H  H19  1  0.96144100  0.97966900  0.29499900  1
  H  H20  1  0.02164700  0.13012300  0.83229000  1
  H  H21  1  0.36987700  0.47835300  0.66771000  1
  H  H22  1  0.47835300  0.66771000  0.36987700  1
  H  H23  1  0.66580000  0.97302300  0.36907300  1
  H  H24  1  0.52697700  0.83420000  0.13092700  1
  H  H25  1  0.33229000  0.63012300  0.52164700  1
  H  H26  1  0.36907300  0.66580000  0.97302300  1
  H  H27  1  0.20500100  0.52033100  0.53855900  1
  H  H28  1  0.46144100  0.79499900  0.47966900  1
  H  H29  1  0.13092700  0.52697700  0.83420000  1
  H  H30  1  0.02697700  0.63092700  0.33420000  1
  H  H31  1  0.29499900  0.96144100  0.97966900  1
  H  H32  1  0.02033100  0.70500100  0.03855900  1
  H  H33  1  0.16580000  0.86907300  0.47302300  1
  H  H34  1  0.13012300  0.83229000  0.02164700  1
  H  H35  1  0.16771000  0.97835300  0.86987700  1
  O  O0  1  0.90156400  0.20135300  0.39406600  1
  O  O1  1  0.78955400  0.09349600  0.60064200  1
  O  O2  1  0.78689000  0.09423000  0.08856000  1
  O  O3  1  0.91144000  0.21311000  0.90577000  1
  O  O4  1  0.60593400  0.09843600  0.79864700  1
  O  O5  1  0.90650400  0.39935800  0.21044600  1
  O  O6  1  0.89935800  0.40650400  0.71044600  1
  O  O7  1  0.59843600  0.10593400  0.29864700  1
  O  O8  1  0.71311000  0.41144000  0.40577000  1
  O  O9  1  0.59423000  0.28689000  0.58856000  1
  O  O10  1  0.59349600  0.28955400  0.10064200  1
  O  O11  1  0.70135300  0.40156400  0.89406600  1
  O  O12  1  0.88613800  0.62234700  0.62771800  1
  O  O13  1  0.87765300  0.61386200  0.87228200  1
  O  O14  1  0.37228200  0.11386200  0.37765300  1
  O  O15  1  0.38613800  0.12771800  0.12234700  1
  O  O16  1  0.89406600  0.70135300  0.40156400  1
  O  O17  1  0.79864700  0.60593400  0.09843600  1
  O  O18  1  0.39935800  0.21044600  0.90650400  1
  O  O19  1  0.28955400  0.10064200  0.59349600  1
  O  O20  1  0.37765300  0.37228200  0.11386200  1
  O  O21  1  0.12771800  0.12234700  0.38613800  1
  O  O22  1  0.58856000  0.59423000  0.28689000  1
  O  O23  1  0.90577000  0.91144000  0.21311000  1
  O  O24  1  0.41144000  0.40577000  0.71311000  1
  O  O25  1  0.09423000  0.08856000  0.78689000  1
  O  O26  1  0.87228200  0.87765300  0.61386200  1
  O  O27  1  0.62234700  0.62771800  0.88613800  1
  O  O28  1  0.60064200  0.78955400  0.09349600  1
  O  O29  1  0.71044600  0.89935800  0.40650400  1
  O  O30  1  0.20135300  0.39406600  0.90156400  1
  O  O31  1  0.10593400  0.29864700  0.59843600  1
  O  O32  1  0.62771800  0.88613800  0.62234700  1
  O  O33  1  0.61386200  0.87228200  0.87765300  1
  O  O34  1  0.12234700  0.38613800  0.12771800  1
  O  O35  1  0.11386200  0.37765300  0.37228200  1
  O  O36  1  0.29864700  0.59843600  0.10593400  1
  O  O37  1  0.40650400  0.71044600  0.89935800  1
  O  O38  1  0.40577000  0.71311000  0.41144000  1
  O  O39  1  0.28689000  0.58856000  0.59423000  1
  O  O40  1  0.40156400  0.89406600  0.70135300  1
  O  O41  1  0.10064200  0.59349600  0.28955400  1
  O  O42  1  0.09349600  0.60064200  0.78955400  1
  O  O43  1  0.39406600  0.90156400  0.20135300  1
  O  O44  1  0.08856000  0.78689000  0.09423000  1
  O  O45  1  0.21311000  0.90577000  0.91144000  1
  O  O46  1  0.21044600  0.90650400  0.39935800  1
  O  O47  1  0.09843600  0.79864700  0.60593400  1
loop_
_geom_bond_atom_site_label_1
_geom_bond_atom_site_label_2
_geom_bond_distance
_geom_bond_site_symmetry_2
Mg0 O7 2.057745 1_555
Mg0 O0 2.057745 1_555
Mg0 O5 2.087848 1_555
Mg0 O10 2.087848 1_555
Mg0 O2 2.145717 1_555
Mg0 O8 2.145717 1_555
Mg1 O4 2.057745 1_555
Mg1 O11 2.057745 1_555
Mg1 O6 2.087848 1_555
Mg1 O1 2.087848 1_555
Mg1 O9 2.145717 1_555
Mg1 O3 2.145717 1_555
Mg2 O16 2.057745 1_555
Mg2 O17 2.057745 1_555
Mg2 O29 2.087848 1_555
Mg2 O28 2.087848 1_555
Mg2 O22 2.145717 1_555
Mg2 O23 2.145717 1_555
Mg3 O30 2.057745 1_555
Mg3 O31 2.057745 1_555
Mg3 O18 2.087848 1_555
Mg3 O19 2.087848 1_555
Mg3 O25 2.145717 1_555
Mg3 O24 2.145717 1_555
Mg4 O43 2.057745 1_555
Mg4 O36 2.057745 1_555
Mg4 O41 2.087848 1_555
Mg4 O46 2.087848 1_555
Mg4 O38 2.145717 1_555
Mg4 O44 2.145717 1_555
Mg5 O40 2.057745 1_555
Mg5 O47 2.057745 1_555
Mg5 O42 2.087848 1_555
Mg5 O37 2.087848 1_555
Mg5 O45 2.145717 1_555
Mg5 O39 2.145717 1_555
B0 O6 1.467155 1_555
B0 O42 1.467155 1_655
B0 O12 1.505110 1_555
B0 O13 1.505110 1_555
B1 O46 1.467155 1_545
B1 O19 1.467155 1_555
B1 O14 1.505110 1_555
B1 O21 1.505110 1_555
B2 O10 1.467155 1_555
B2 O18 1.467155 1_554
B2 O15 1.505110 1_555
B2 O20 1.505110 1_555
B3 O1 1.467155 1_565
B3 O29 1.467155 1_555
B3 O32 1.505110 1_555
B3 O26 1.505110 1_555
B4 O37 1.467155 1_555
B4 O28 1.467155 1_556
B4 O33 1.505110 1_555
B4 O27 1.505110 1_555
B5 O5 1.467155 1_455
B5 O41 1.467155 1_555
B5 O35 1.505110 1_555
B5 O34 1.505110 1_555
H0 O2 1.007985 1_555
H1 O3 1.007985 1_555
H2 O1 0.995775 1_555
H2 O0 1.748267 1_555
H3 O3 0.986700 1_555
H4 O2 0.986700 1_555
H5 O6 0.995775 1_555
H5 O31 1.748267 1_655
H6 O5 0.995775 1_555
H6 O17 1.748267 1_555
H7 O9 0.986700 1_555
H8 O8 0.986700 1_555
H9 O10 0.995775 1_555
H9 O11 1.748267 1_554
H10 O8 1.007985 1_555
H11 O18 0.995775 1_555
H11 O4 1.748267 1_555
H12 O19 0.995775 1_555
H12 O40 1.748267 1_545
H13 O9 1.007985 1_555
H14 O22 1.007985 1_555
H15 O23 1.007985 1_555
H16 O24 0.986700 1_555
H17 O25 0.986700 1_555
H18 O22 0.986700 1_555
H19 O23 0.986700 1_555
H20 O25 1.007985 1_555
H21 O24 1.007985 1_555
H22 O38 1.007985 1_555
H23 O29 0.995775 1_555
H23 O7 1.748267 1_565
H24 O28 0.995775 1_555
H24 O43 1.748267 1_555
H25 O39 1.007985 1_555
H26 O37 0.995775 1_555
H26 O36 1.748267 1_556
H27 O39 0.986700 1_555
H28 O38 0.986700 1_555
H29 O42 0.995775 1_555
H29 O30 1.748267 1_555
H30 O41 0.995775 1_555
H30 O16 1.748267 1_455
H31 O45 0.986700 1_555
H32 O44 0.986700 1_555
H33 O46 0.995775 1_555
H33 O47 1.748267 1_555
H34 O44 1.007985 1_555
H35 O45 1.007985 1_555
O0 P4 1.530963 1_655
O4 P5 1.530963 1_545
O7 P0 1.530963 1_555
O11 P1 1.530963 1_555
O12 P2 1.572496 1_555
O13 P1 1.572496 1_555
O14 P0 1.572496 1_555
O15 P0 1.572496 1_555
O16 P2 1.530963 1_555
O17 P1 1.530963 1_554
O20 P3 1.572496 1_555
O21 P4 1.572496 1_555
O26 P2 1.572496 1_555
O27 P1 1.572496 1_555
O30 P3 1.530963 1_556
O31 P4 1.530963 1_555
O32 P5 1.572496 1_555
O33 P5 1.572496 1_555
O34 P3 1.572496 1_555
O35 P4 1.572496 1_555
O36 P3 1.530963 1_555
O40 P5 1.530963 1_555
O43 P0 1.530963 1_565
O47 P2 1.530963 1_455
