# generated using pymatgen
data_Li2SnP2O7
_symmetry_space_group_name_H-M   'P 1'
_cell_length_a   14.44792400
_cell_length_b   5.53638700
_cell_length_c   9.56806077
_cell_angle_alpha   56.17287342
_cell_angle_beta   90.00000000
_cell_angle_gamma   90.00000000
_symmetry_Int_Tables_number   1
_chemical_formula_structural   Li2SnP2O7
_chemical_formula_sum   'Li8 Sn4 P8 O28'
_cell_volume   635.78606119
_cell_formula_units_Z   4
loop_
 _symmetry_equiv_pos_site_id
 _symmetry_equiv_pos_as_xyz
  1  'x, y, z'
loop_
 _atom_site_type_symbol
 _atom_site_label
 _atom_site_symmetry_multiplicity
 _atom_site_fract_x
 _atom_site_fract_y
 _atom_site_fract_z
 _atom_site_occupancy
  Li  Li0  1  0.59210100  0.05431200  0.64992200  1
  Li  Li1  1  0.18382800  0.51768600  0.68348600  1
  Li  Li2  1  0.68382800  0.48231400  0.81651400  1
  Li  Li3  1  0.09210100  0.94568800  0.85007800  1
  Li  Li4  1  0.90789900  0.05431200  0.14992200  1
  Li  Li5  1  0.31617200  0.51768600  0.18348600  1
  Li  Li6  1  0.81617200  0.48231400  0.31651400  1
  Li  Li7  1  0.40789900  0.94568800  0.35007800  1
  Sn  Sn0  1  0.84289500  0.03179000  0.77059500  1
  Sn  Sn1  1  0.34289500  0.96821000  0.72940500  1
  Sn  Sn2  1  0.65710500  0.03179000  0.27059500  1
  Sn  Sn3  1  0.15710500  0.96821000  0.22940500  1
  P  P0  1  0.82618300  0.74513700  0.52788000  1
  P  P1  1  0.47740300  0.48919500  0.72012500  1
  P  P2  1  0.97740300  0.51080500  0.77987500  1
  P  P3  1  0.32618300  0.25486300  0.97212000  1
  P  P4  1  0.67381700  0.74513700  0.02788000  1
  P  P5  1  0.02259700  0.48919500  0.22012500  1
  P  P6  1  0.52259700  0.51080500  0.27987500  1
  P  P7  1  0.17381700  0.25486300  0.47212000  1
  O  O0  1  0.93289200  0.69122200  0.58413800  1
  O  O1  1  0.79447500  0.47423400  0.52994600  1
  O  O2  1  0.76865900  0.78100000  0.65046100  1
  O  O3  1  0.17959100  0.97685600  0.65206500  1
  O  O4  1  0.40066600  0.70586700  0.60732000  1
  O  O5  1  0.49463600  0.25196800  0.68831000  1
  O  O6  1  0.56287700  0.63758100  0.73119100  1
  O  O7  1  0.06287700  0.36241900  0.76880900  1
  O  O8  1  0.99463600  0.74803200  0.81169000  1
  O  O9  1  0.90066600  0.29413300  0.89268000  1
  O  O10  1  0.26865900  0.21900000  0.84953900  1
  O  O11  1  0.67959100  0.02314400  0.84793500  1
  O  O12  1  0.29447500  0.52576600  0.97005400  1
  O  O13  1  0.43289200  0.30877800  0.91586200  1
  O  O14  1  0.56710800  0.69122200  0.08413800  1
  O  O15  1  0.70552500  0.47423400  0.02994600  1
  O  O16  1  0.32040900  0.97685600  0.15206500  1
  O  O17  1  0.73134100  0.78100000  0.15046100  1
  O  O18  1  0.09933400  0.70586700  0.10732000  1
  O  O19  1  0.00536400  0.25196800  0.18831000  1
  O  O20  1  0.93712300  0.63758100  0.23119100  1
  O  O21  1  0.43712300  0.36241900  0.26880900  1
  O  O22  1  0.50536400  0.74803200  0.31169000  1
  O  O23  1  0.59933400  0.29413300  0.39268000  1
  O  O24  1  0.82040900  0.02314400  0.34793500  1
  O  O25  1  0.23134100  0.21900000  0.34953900  1
  O  O26  1  0.20552500  0.52576600  0.47005400  1
  O  O27  1  0.06710800  0.30877800  0.41586200  1
loop_
_geom_bond_atom_site_label_1
_geom_bond_atom_site_label_2
_geom_bond_distance
_geom_bond_site_symmetry_2
Li0 O5 1.939804 1_555
Li0 O6 2.026962 1_545
Li0 O23 2.047768 1_555
Li0 O11 2.202978 1_555
Li1 O7 1.917759 1_555
Li1 O10 1.958523 1_555
Li1 O26 2.041777 1_555
Li1 O3 2.388662 1_555
Li2 O6 1.917759 1_555
Li2 O2 1.958523 1_555
Li2 O15 2.041777 1_556
Li2 O11 2.388662 1_555
Li3 O8 1.939804 1_455
Li3 O7 2.026962 1_565
Li3 O18 2.047768 1_556
Li3 O3 2.202978 1_555
Li4 O19 1.939804 1_655
Li4 O20 2.026962 1_545
Li4 O9 2.047768 1_554
Li4 O24 2.202978 1_555
Li5 O21 1.917759 1_555
Li5 O25 1.958523 1_555
Li5 O12 2.041777 1_554
Li5 O16 2.388662 1_555
Li6 O20 1.917759 1_555
Li6 O17 1.958523 1_555
Li6 O1 2.041777 1_555
Li6 O24 2.388662 1_555
Li7 O22 1.939804 1_555
Li7 O21 2.026962 1_565
Li7 O4 2.047768 1_555
Li7 O16 2.202978 1_555
O0 P0 1.605262 1_555
O0 P2 1.684035 1_555
O1 P0 1.557794 1_555
O1 Sn0 2.347703 1_555
O2 P0 1.537868 1_555
O2 Sn0 2.485234 1_565
O3 P7 1.545911 1_565
O3 Sn1 2.465204 1_555
O4 P1 1.546479 1_555
O4 Sn1 2.461646 1_555
O5 P1 1.524715 1_555
O5 Sn1 2.596391 1_545
O6 P1 1.519206 1_555
O7 P2 1.519206 1_455
O8 P2 1.524715 1_555
O8 Sn0 2.596391 1_565
O9 P2 1.546479 1_555
O9 Sn0 2.461646 1_555
O10 P3 1.537868 1_555
O10 Sn1 2.485234 1_545
O11 P4 1.545911 1_546
O11 Sn0 2.465204 1_555
O12 P3 1.557794 1_555
O12 Sn1 2.347703 1_555
O13 P3 1.605262 1_555
O13 P1 1.684035 1_555
O14 P4 1.605262 1_555
O14 P6 1.684035 1_555
O15 P4 1.557794 1_555
O15 Sn2 2.347703 1_555
O16 P3 1.545911 1_564
O16 Sn3 2.465204 1_555
O17 P4 1.537868 1_555
O17 Sn2 2.485234 1_565
O18 P5 1.546479 1_555
O18 Sn3 2.461646 1_555
O19 P5 1.524715 1_555
O19 Sn3 2.596391 1_545
O20 P5 1.519206 1_655
O21 P6 1.519206 1_555
O22 P6 1.524715 1_555
O22 Sn2 2.596391 1_565
O23 P6 1.546479 1_555
O23 Sn2 2.461646 1_555
O24 P0 1.545911 1_545
O24 Sn2 2.465204 1_555
O25 P7 1.537868 1_555
O25 Sn3 2.485234 1_545
O26 P7 1.557794 1_555
O26 Sn3 2.347703 1_555
O27 P7 1.605262 1_555
O27 P5 1.684035 1_555
