# generated using pymatgen
data_Cr3P
_symmetry_space_group_name_H-M   'P 1'
_cell_length_a   4.44996942
_cell_length_b   6.76623870
_cell_length_c   6.76622289
_cell_angle_alpha   83.78545949
_cell_angle_beta   70.80300782
_cell_angle_gamma   70.80405379
_symmetry_Int_Tables_number   1
_chemical_formula_structural   Cr3P
_chemical_formula_sum   'Cr12 P4'
_cell_volume   181.70191202
_cell_formula_units_Z   4
loop_
 _symmetry_equiv_pos_site_id
 _symmetry_equiv_pos_as_xyz
  1  'x, y, z'
loop_
 _atom_site_type_symbol
 _atom_site_label
 _atom_site_symmetry_multiplicity
 _atom_site_fract_x
 _atom_site_fract_y
 _atom_site_fract_z
 _atom_site_occupancy
  Cr  Cr0  1  0.35922945  0.66956171  0.61333667  1
  Cr  Cr1  1  0.02739423  0.61337505  0.33049310  1
  Cr  Cr2  1  0.97129624  0.38662679  0.66950412  1
  Cr  Cr3  1  0.64203922  0.33047073  0.38667315  1
  Cr  Cr4  1  0.93859686  0.05643023  0.61114136  1
  Cr  Cr5  1  0.45030241  0.61114437  0.94355409  1
  Cr  Cr6  1  0.00477849  0.38884548  0.05636362  1
  Cr  Cr7  1  0.60628338  0.94359845  0.38885240  1
  Cr  Cr8  1  0.16072723  0.97504892  0.17601995  1
  Cr  Cr9  1  0.66326488  0.17588456  0.02494968  1
  Cr  Cr10  1  0.86423387  0.82399626  0.97505547  1
  Cr  Cr11  1  0.31185311  0.02496386  0.82406170  1
  P  P0  1  0.21544301  0.24571298  0.33362562  1
  P  P1  1  0.45088425  0.33370161  0.75435026  1
  P  P2  1  0.53886239  0.66630492  0.24568917  1
  P  P3  1  0.79481097  0.75433409  0.66632864  1
loop_
_geom_bond_atom_site_label_1
_geom_bond_atom_site_label_2
_geom_bond_distance
_geom_bond_site_symmetry_2
Cr0 P3 2.295831 1_455
Cr0 P1 2.327657 1_555
Cr0 P3 2.333961 1_555
Cr0 P2 2.349497 1_555
Cr1 P2 2.295744 1_555
Cr1 P3 2.327620 1_455
Cr1 P2 2.333976 1_455
Cr1 P0 2.349597 1_555
Cr2 P1 2.295881 1_655
Cr2 P0 2.327760 1_655
Cr2 P1 2.333957 1_555
Cr2 P3 2.349886 1_555
Cr3 P0 2.295647 1_555
Cr3 P2 2.327432 1_555
Cr3 P0 2.334205 1_655
Cr3 P1 2.349680 1_555
Cr4 P3 2.294488 1_545
Cr4 P1 2.345613 1_555
Cr4 P0 2.383166 1_655
Cr5 P2 2.294680 1_556
Cr5 P3 2.345120 1_555
Cr5 P1 2.382831 1_555
Cr6 P1 2.294803 1_554
Cr6 P0 2.345711 1_555
Cr6 P2 2.382966 1_455
Cr7 P0 2.295055 1_565
Cr7 P2 2.345928 1_555
Cr7 P3 2.382741 1_555
Cr8 P2 2.326924 1_555
Cr8 P0 2.331788 1_565
Cr9 P0 2.326787 1_555
Cr9 P1 2.331696 1_554
Cr10 P3 2.326906 1_555
Cr10 P2 2.331802 1_556
Cr11 P1 2.326759 1_555
Cr11 P3 2.331899 1_545
