# generated using pymatgen
data_Ti3CuSn2(PO4)6
_symmetry_space_group_name_H-M   'P 1'
_cell_length_a   9.01160940
_cell_length_b   9.01160940
_cell_length_c   9.01160896
_cell_angle_alpha   57.39492815
_cell_angle_beta   57.39492815
_cell_angle_gamma   57.39493212
_symmetry_Int_Tables_number   1
_chemical_formula_structural   Ti3CuSn2(PO4)6
_chemical_formula_sum   'Ti3 Cu1 Sn2 P6 O24'
_cell_volume   486.45660690
_cell_formula_units_Z   1
loop_
 _symmetry_equiv_pos_site_id
 _symmetry_equiv_pos_as_xyz
  1  'x, y, z'
loop_
 _atom_site_type_symbol
 _atom_site_label
 _atom_site_symmetry_multiplicity
 _atom_site_fract_x
 _atom_site_fract_y
 _atom_site_fract_z
 _atom_site_occupancy
  Ti  Ti0  1  0.14441800  0.14441800  0.14441800  1
  Ti  Ti1  1  0.35234700  0.35234700  0.35234700  1
  Ti  Ti2  1  0.65046500  0.65046500  0.65046500  1
  Cu  Cu0  1  0.84834500  0.84834500  0.84834500  1
  Sn  Sn0  1  0.98793000  0.98793000  0.98793000  1
  Sn  Sn1  1  0.50153300  0.50153300  0.50153300  1
  P  P0  1  0.46249100  0.75164300  0.04122600  1
  P  P1  1  0.75164300  0.04122600  0.46249100  1
  P  P2  1  0.96231800  0.53527500  0.25250300  1
  P  P3  1  0.25250300  0.96231800  0.53527500  1
  P  P4  1  0.53527500  0.25250300  0.96231800  1
  P  P5  1  0.04122600  0.46249100  0.75164300  1
  O  O0  1  0.49349700  0.30227200  0.12383200  1
  O  O1  1  0.12383200  0.49349700  0.30227200  1
  O  O2  1  0.27628100  0.92338700  0.06431300  1
  O  O3  1  0.30227200  0.12383200  0.49349700  1
  O  O4  1  0.62019100  0.78274200  0.02218300  1
  O  O5  1  0.42735200  0.57810800  0.22284700  1
  O  O6  1  0.92338700  0.06431300  0.27628100  1
  O  O7  1  0.57810800  0.22284700  0.42735200  1
  O  O8  1  0.99700100  0.37212100  0.21009300  1
  O  O9  1  0.22284700  0.42735200  0.57810800  1
  O  O10  1  0.94463400  0.71971400  0.08390200  1
  O  O11  1  0.21009300  0.99700100  0.37212100  1
  O  O12  1  0.78274200  0.02218300  0.62019100  1
  O  O13  1  0.06431300  0.27628100  0.92338700  1
  O  O14  1  0.77762700  0.55688100  0.42748300  1
  O  O15  1  0.02218300  0.62019100  0.78274200  1
  O  O16  1  0.42748300  0.77762700  0.55688100  1
  O  O17  1  0.08390200  0.94463400  0.71971400  1
  O  O18  1  0.55688100  0.42748300  0.77762700  1
  O  O19  1  0.37212100  0.21009300  0.99700100  1
  O  O20  1  0.71328400  0.87146700  0.49829500  1
  O  O21  1  0.71971400  0.08390200  0.94463400  1
  O  O22  1  0.87146700  0.49829500  0.71328400  1
  O  O23  1  0.49829500  0.71328400  0.87146700  1
loop_
_geom_bond_atom_site_label_1
_geom_bond_atom_site_label_2
_geom_bond_distance
_geom_bond_site_symmetry_2
Cu0 O12 1.967641 1_565
Cu0 O4 1.967641 1_556
Cu0 O15 1.967641 1_655
Cu0 O10 2.202713 1_556
Cu0 O17 2.202713 1_655
Cu0 O21 2.202713 1_565
O0 P4 1.546726 1_554
O0 Ti1 1.903217 1_555
O1 P2 1.546726 1_455
O1 Ti1 1.903217 1_555
O2 P0 1.557685 1_555
O2 Ti0 1.993724 1_565
O2 Sn0 2.726109 1_454
O3 P3 1.546726 1_545
O3 Ti1 1.903217 1_555
O4 P0 1.497386 1_555
O5 P0 1.562492 1_555
O5 Ti1 2.007741 1_555
O5 Sn1 2.583547 1_555
O6 P1 1.557685 1_555
O6 Ti0 1.993724 1_655
O6 Sn0 2.726109 1_544
O7 P1 1.562492 1_555
O7 Ti1 2.007741 1_555
O7 Sn1 2.583547 1_555
O8 P2 1.545017 1_555
O8 Ti0 1.961985 1_655
O9 P5 1.562492 1_555
O9 Ti1 2.007741 1_555
O9 Sn1 2.583547 1_555
O10 P2 1.533097 1_555
O10 Sn0 2.267647 1_554
O11 P3 1.545017 1_555
O11 Ti0 1.961985 1_565
O12 P1 1.497386 1_555
O13 P5 1.557685 1_555
O13 Ti0 1.993724 1_556
O13 Sn0 2.726109 1_445
O14 P2 1.564533 1_555
O14 Ti2 2.089358 1_555
O14 Sn1 2.464524 1_555
O15 P5 1.497386 1_555
O16 P3 1.564533 1_555
O16 Ti2 2.089358 1_555
O16 Sn1 2.464524 1_555
O17 P3 1.533097 1_555
O17 Sn0 2.267647 1_455
O18 P4 1.564533 1_555
O18 Ti2 2.089358 1_555
O18 Sn1 2.464524 1_555
O19 P4 1.545017 1_555
O19 Ti0 1.961985 1_556
O20 P1 1.575326 1_565
O20 Ti2 1.898032 1_555
O21 P4 1.533097 1_555
O21 Sn0 2.267647 1_545
O22 P5 1.575326 1_655
O22 Ti2 1.898032 1_555
O23 P0 1.575326 1_556
O23 Ti2 1.898032 1_555
