# generated using pymatgen
data_Co3OF5
_symmetry_space_group_name_H-M   'P 1'
_cell_length_a   3.09443500
_cell_length_b   4.76363000
_cell_length_c   14.18754930
_cell_angle_alpha   87.72227283
_cell_angle_beta   90.00000000
_cell_angle_gamma   90.00000000
_symmetry_Int_Tables_number   1
_chemical_formula_structural   Co3OF5
_chemical_formula_sum   'Co6 O2 F10'
_cell_volume   208.96979028
_cell_formula_units_Z   2
loop_
 _symmetry_equiv_pos_site_id
 _symmetry_equiv_pos_as_xyz
  1  'x, y, z'
loop_
 _atom_site_type_symbol
 _atom_site_label
 _atom_site_symmetry_multiplicity
 _atom_site_fract_x
 _atom_site_fract_y
 _atom_site_fract_z
 _atom_site_occupancy
  Co  Co0  1  0.00000000  0.00000000  0.00000000  1
  Co  Co1  1  0.00000000  0.01559800  0.32822200  1
  Co  Co2  1  0.00000000  0.98440200  0.67177800  1
  Co  Co3  1  0.50000000  0.47512400  0.17522600  1
  Co  Co4  1  0.50000000  0.50000000  0.50000000  1
  Co  Co5  1  0.50000000  0.52487600  0.82477400  1
  O  O0  1  0.00000000  0.68519800  0.76833100  1
  O  O1  1  0.00000000  0.31480200  0.23166900  1
  F  F0  1  0.50000000  0.80706300  0.26614500  1
  F  F1  1  0.50000000  0.79921000  0.93544500  1
  F  F2  1  0.50000000  0.79776700  0.60085300  1
  F  F3  1  0.00000000  0.68975700  0.10415100  1
  F  F4  1  0.00000000  0.70295700  0.43259300  1
  F  F5  1  0.00000000  0.29704300  0.56740700  1
  F  F6  1  0.00000000  0.31024300  0.89584900  1
  F  F7  1  0.50000000  0.20079000  0.06455500  1
  F  F8  1  0.50000000  0.20223300  0.39914700  1
  F  F9  1  0.50000000  0.19293700  0.73385500  1
loop_
_geom_bond_atom_site_label_1
_geom_bond_atom_site_label_2
_geom_bond_distance
_geom_bond_site_symmetry_2
Co0 F6 2.047925 1_554
Co0 F3 2.047925 1_545
Co0 F7 2.053586 1_455
Co0 F7 2.053586 1_555
Co0 F1 2.053586 1_544
Co0 F1 2.053586 1_444
Co1 O1 1.937206 1_555
Co1 F0 2.055700 1_445
Co1 F0 2.055700 1_545
Co1 F4 2.058012 1_545
Co1 F8 2.065905 1_555
Co1 F8 2.065905 1_455
Co2 O0 1.937206 1_555
Co2 F9 2.055700 1_565
Co2 F9 2.055700 1_465
Co2 F5 2.058012 1_565
Co2 F2 2.065905 1_455
Co2 F2 2.065905 1_555
Co3 O1 1.889389 1_655
Co3 O1 1.889389 1_555
Co3 F0 2.079980 1_555
Co3 F7 2.082370 1_555
Co3 F3 2.091442 1_655
Co3 F3 2.091442 1_555
Co4 F4 2.041984 1_555
Co4 F4 2.041984 1_655
Co4 F5 2.041984 1_655
Co4 F5 2.041984 1_555
Co4 F2 2.054430 1_555
Co4 F8 2.054430 1_555
Co5 O0 1.889389 1_655
Co5 O0 1.889389 1_555
Co5 F9 2.079980 1_555
Co5 F1 2.082370 1_555
Co5 F6 2.091442 1_555
Co5 F6 2.091442 1_655
