# generated using pymatgen
data_CuH12C3SN6O7
_symmetry_space_group_name_H-M   'P 1'
_cell_length_a   9.07202100
_cell_length_b   9.38601300
_cell_length_c   13.11044900
_cell_angle_alpha   90.00000000
_cell_angle_beta   90.00000000
_cell_angle_gamma   90.00000000
_symmetry_Int_Tables_number   1
_chemical_formula_structural   CuH12C3SN6O7
_chemical_formula_sum   'Cu4 H48 C12 S4 N24 O28'
_cell_volume   1116.35613572
_cell_formula_units_Z   4
loop_
 _symmetry_equiv_pos_site_id
 _symmetry_equiv_pos_as_xyz
  1  'x, y, z'
loop_
 _atom_site_type_symbol
 _atom_site_label
 _atom_site_symmetry_multiplicity
 _atom_site_fract_x
 _atom_site_fract_y
 _atom_site_fract_z
 _atom_site_occupancy
  Cu  Cu0  1  0.00000000  0.50000000  0.00000000  1
  Cu  Cu1  1  0.50000000  0.50000000  0.00000000  1
  Cu  Cu2  1  0.00000000  0.00000000  0.50000000  1
  Cu  Cu3  1  0.50000000  0.00000000  0.50000000  1
  H  H0  1  0.85991900  0.03767500  0.03106000  1
  H  H1  1  0.35991900  0.96232500  0.03106000  1
  H  H2  1  0.45922100  0.81152700  0.05970600  1
  H  H3  1  0.95922100  0.18847300  0.05970600  1
  H  H4  1  0.48202600  0.20997800  0.14957800  1
  H  H5  1  0.98202600  0.79002200  0.14957800  1
  H  H6  1  0.27317600  0.51845600  0.16391400  1
  H  H7  1  0.77317600  0.48154400  0.16391400  1
  H  H8  1  0.64912500  0.17361800  0.20920000  1
  H  H9  1  0.14912500  0.82638200  0.20920000  1
  H  H10  1  0.26803200  0.10093500  0.21572100  1
  H  H11  1  0.76803200  0.89906500  0.21572100  1
  H  H12  1  0.26803200  0.60093500  0.28427900  1
  H  H13  1  0.76803200  0.39906500  0.28427900  1
  H  H14  1  0.14912500  0.32638200  0.29080000  1
  H  H15  1  0.64912500  0.67361800  0.29080000  1
  H  H16  1  0.27317600  0.01845600  0.33608600  1
  H  H17  1  0.77317600  0.98154400  0.33608600  1
  H  H18  1  0.48202600  0.70997800  0.35042200  1
  H  H19  1  0.98202600  0.29002200  0.35042200  1
  H  H20  1  0.45922100  0.31152700  0.44029400  1
  H  H21  1  0.95922100  0.68847300  0.44029400  1
  H  H22  1  0.35991900  0.46232500  0.46894000  1
  H  H23  1  0.85991900  0.53767500  0.46894000  1
  H  H24  1  0.14008100  0.46232500  0.53106000  1
  H  H25  1  0.64008100  0.53767500  0.53106000  1
  H  H26  1  0.04077900  0.31152700  0.55970600  1
  H  H27  1  0.54077900  0.68847300  0.55970600  1
  H  H28  1  0.51797400  0.29002200  0.64957800  1
  H  H29  1  0.01797400  0.70997800  0.64957800  1
  H  H30  1  0.22682400  0.01845600  0.66391400  1
  H  H31  1  0.72682400  0.98154400  0.66391400  1
  H  H32  1  0.35087500  0.32638200  0.70920000  1
  H  H33  1  0.85087500  0.67361800  0.70920000  1
  H  H34  1  0.73196800  0.39906500  0.71572100  1
  H  H35  1  0.23196800  0.60093500  0.71572100  1
  H  H36  1  0.23196800  0.10093500  0.78427900  1
  H  H37  1  0.73196800  0.89906500  0.78427900  1
  H  H38  1  0.85087500  0.17361800  0.79080000  1
  H  H39  1  0.35087500  0.82638200  0.79080000  1
  H  H40  1  0.72682400  0.48154400  0.83608600  1
  H  H41  1  0.22682400  0.51845600  0.83608600  1
  H  H42  1  0.01797400  0.20997800  0.85042200  1
  H  H43  1  0.51797400  0.79002200  0.85042200  1
  H  H44  1  0.54077900  0.18847300  0.94029400  1
  H  H45  1  0.04077900  0.81152700  0.94029400  1
  H  H46  1  0.64008100  0.03767500  0.96894000  1
  H  H47  1  0.14008100  0.96232500  0.96894000  1
  C  C0  1  0.75000000  0.22216900  0.00000000  1
  C  C1  1  0.25000000  0.77783100  0.00000000  1
  C  C2  1  0.97145600  0.40780700  0.21569000  1
  C  C3  1  0.47145600  0.59219300  0.21569000  1
  C  C4  1  0.47145600  0.09219300  0.28431000  1
  C  C5  1  0.97145600  0.90780700  0.28431000  1
  C  C6  1  0.75000000  0.72216900  0.50000000  1
  C  C7  1  0.25000000  0.27783100  0.50000000  1
  C  C8  1  0.02854400  0.09219300  0.71569000  1
  C  C9  1  0.52854400  0.90780700  0.71569000  1
  C  C10  1  0.52854400  0.40780700  0.78431000  1
  C  C11  1  0.02854400  0.59219300  0.78431000  1
  S  S0  1  0.25000000  0.25083400  0.00000000  1
  S  S1  1  0.75000000  0.74916600  0.00000000  1
  S  S2  1  0.75000000  0.24916600  0.50000000  1
  S  S3  1  0.25000000  0.75083400  0.50000000  1
  N  N0  1  0.85908400  0.14429700  0.04460700  1
  N  N1  1  0.35908400  0.85570300  0.04460700  1
  N  N2  1  0.53854900  0.16071900  0.20687600  1
  N  N3  1  0.03854900  0.83928100  0.20687600  1
  N  N4  1  0.32575000  0.57124500  0.22094800  1
  N  N5  1  0.82575000  0.42875500  0.22094800  1
  N  N6  1  0.32575000  0.07124500  0.27905200  1
  N  N7  1  0.82575000  0.92875500  0.27905200  1
  N  N8  1  0.03854900  0.33928100  0.29312400  1
  N  N9  1  0.53854900  0.66071900  0.29312400  1
  N  N10  1  0.35908400  0.35570300  0.45539300  1
  N  N11  1  0.85908400  0.64429700  0.45539300  1
  N  N12  1  0.14091600  0.35570300  0.54460700  1
  N  N13  1  0.64091600  0.64429700  0.54460700  1
  N  N14  1  0.46145100  0.33928100  0.70687600  1
  N  N15  1  0.96145100  0.66071900  0.70687600  1
  N  N16  1  0.17425000  0.07124500  0.72094800  1
  N  N17  1  0.67425000  0.92875500  0.72094800  1
  N  N18  1  0.67425000  0.42875500  0.77905200  1
  N  N19  1  0.17425000  0.57124500  0.77905200  1
  N  N20  1  0.96145100  0.16071900  0.79312400  1
  N  N21  1  0.46145100  0.83928100  0.79312400  1
  N  N22  1  0.64091600  0.14429700  0.95539300  1
  N  N23  1  0.14091600  0.85570300  0.95539300  1
  O  O0  1  0.25000000  0.64318800  0.00000000  1
  O  O1  1  0.75000000  0.35681200  0.00000000  1
  O  O2  1  0.36637200  0.34242800  0.05071100  1
  O  O3  1  0.86637200  0.65757200  0.05071100  1
  O  O4  1  0.18337200  0.16133500  0.08048400  1
  O  O5  1  0.68337200  0.83866500  0.08048400  1
  O  O6  1  0.55050700  0.54853400  0.14060400  1
  O  O7  1  0.05050700  0.45146600  0.14060400  1
  O  O8  1  0.55050700  0.04853400  0.35939600  1
  O  O9  1  0.05050700  0.95146600  0.35939600  1
  O  O10  1  0.68337200  0.33866500  0.41951600  1
  O  O11  1  0.18337200  0.66133500  0.41951600  1
  O  O12  1  0.86637200  0.15757200  0.44928900  1
  O  O13  1  0.36637200  0.84242800  0.44928900  1
  O  O14  1  0.75000000  0.85681200  0.50000000  1
  O  O15  1  0.25000000  0.14318800  0.50000000  1
  O  O16  1  0.63362800  0.15757200  0.55071100  1
  O  O17  1  0.13362800  0.84242800  0.55071100  1
  O  O18  1  0.81662800  0.33866500  0.58048400  1
  O  O19  1  0.31662800  0.66133500  0.58048400  1
  O  O20  1  0.94949300  0.04853400  0.64060400  1
  O  O21  1  0.44949300  0.95146600  0.64060400  1
  O  O22  1  0.44949300  0.45146600  0.85939600  1
  O  O23  1  0.94949300  0.54853400  0.85939600  1
  O  O24  1  0.31662800  0.16133500  0.91951600  1
  O  O25  1  0.81662800  0.83866500  0.91951600  1
  O  O26  1  0.13362800  0.34242800  0.94928900  1
  O  O27  1  0.63362800  0.65757200  0.94928900  1
loop_
_geom_bond_atom_site_label_1
_geom_bond_atom_site_label_2
_geom_bond_distance
_geom_bond_site_symmetry_2
Cu0 O7 1.953336 1_555
Cu0 O23 1.953336 1_454
Cu0 O3 2.024597 1_455
Cu0 O26 2.024597 1_554
Cu1 O6 1.953336 1_555
Cu1 O22 1.953336 1_554
Cu1 O27 2.024597 1_554
Cu1 O2 2.024597 1_555
Cu2 O9 1.953336 1_545
Cu2 O20 1.953336 1_455
Cu2 O17 2.024597 1_545
Cu2 O12 2.024597 1_455
Cu3 O8 1.953336 1_555
Cu3 O21 1.953336 1_545
Cu3 O16 2.024597 1_555
Cu3 O13 2.024597 1_545
H0 N0 1.016422 1_555
H1 N1 1.016422 1_555
H2 N1 1.018028 1_555
H3 N0 1.018028 1_555
H4 N2 1.020299 1_555
H5 N3 1.020299 1_655
H6 N4 1.015923 1_555
H7 N5 1.015923 1_555
H8 N2 1.010887 1_555
H9 N3 1.010887 1_555
H10 N6 1.020406 1_555
H11 N7 1.020406 1_555
H12 N4 1.020406 1_555
H13 N5 1.020406 1_555
H14 N8 1.010887 1_555
H15 N9 1.010887 1_555
H16 N6 1.015923 1_555
H17 N7 1.015923 1_555
H18 N9 1.020299 1_555
H19 N8 1.020299 1_655
H20 N10 1.018028 1_555
H21 N11 1.018028 1_555
H22 N10 1.016422 1_555
H23 N11 1.016422 1_555
H24 N12 1.016422 1_555
H25 N13 1.016422 1_555
H26 N12 1.018028 1_555
H27 N13 1.018028 1_555
H28 N14 1.020299 1_555
H29 N15 1.020299 1_455
H30 N16 1.015923 1_555
H31 N17 1.015923 1_555
H32 N14 1.010887 1_555
H33 N15 1.010887 1_555
H34 N18 1.020406 1_555
H35 N19 1.020406 1_555
H36 N16 1.020406 1_555
H37 N17 1.020406 1_555
H38 N20 1.010887 1_555
H39 N21 1.010887 1_555
H40 N18 1.015923 1_555
H41 N19 1.015923 1_555
H42 N20 1.020299 1_455
H43 N21 1.020299 1_555
H44 N22 1.018028 1_555
H45 N23 1.018028 1_555
H46 N22 1.016422 1_555
H47 N23 1.016422 1_555
C0 O1 1.263761 1_555
C0 N0 1.362193 1_555
C0 N22 1.362193 1_554
C1 O0 1.263761 1_555
C1 N1 1.362193 1_555
C1 N23 1.362193 1_554
C2 O7 1.285028 1_655
C2 N5 1.338168 1_555
C2 N8 1.347140 1_655
C3 O6 1.285028 1_555
C3 N4 1.338168 1_555
C3 N9 1.347140 1_555
C4 O8 1.285028 1_555
C4 N6 1.338168 1_555
C4 N2 1.347140 1_555
C5 O9 1.285028 1_655
C5 N7 1.338168 1_555
C5 N3 1.347140 1_655
C6 O14 1.263761 1_555
C6 N11 1.362193 1_555
C6 N13 1.362193 1_555
C7 O15 1.263761 1_555
C7 N10 1.362193 1_555
C7 N12 1.362193 1_555
C8 O20 1.285028 1_455
C8 N16 1.338168 1_555
C8 N20 1.347140 1_455
C9 O21 1.285028 1_555
C9 N17 1.338168 1_555
C9 N21 1.347140 1_555
C10 O22 1.285028 1_555
C10 N18 1.338168 1_555
C10 N14 1.347140 1_555
C11 O23 1.285028 1_455
C11 N19 1.338168 1_555
C11 N15 1.347140 1_455
O2 S0 1.515147 1_555
O3 S1 1.515147 1_555
O4 S0 1.477983 1_555
O5 S1 1.477983 1_555
O10 S2 1.477983 1_555
O11 S3 1.477983 1_555
O12 S2 1.515147 1_555
O13 S3 1.515147 1_555
O16 S2 1.515147 1_555
O17 S3 1.515147 1_555
O18 S2 1.477983 1_555
O19 S3 1.477983 1_555
O24 S0 1.477983 1_556
O25 S1 1.477983 1_556
O26 S0 1.515147 1_556
O27 S1 1.515147 1_556
