# generated using pymatgen
data_Li4Ti3Fe2Ni3O16
_symmetry_space_group_name_H-M   'P 1'
_cell_length_a   5.87625537
_cell_length_b   5.87625537
_cell_length_c   9.54771771
_cell_angle_alpha   87.31808621
_cell_angle_beta   87.31808621
_cell_angle_gamma   59.01569364
_symmetry_Int_Tables_number   1
_chemical_formula_structural   Li4Ti3Fe2Ni3O16
_chemical_formula_sum   'Li4 Ti3 Fe2 Ni3 O16'
_cell_volume   282.23399831
_cell_formula_units_Z   1
loop_
 _symmetry_equiv_pos_site_id
 _symmetry_equiv_pos_as_xyz
  1  'x, y, z'
loop_
 _atom_site_type_symbol
 _atom_site_label
 _atom_site_symmetry_multiplicity
 _atom_site_fract_x
 _atom_site_fract_y
 _atom_site_fract_z
 _atom_site_occupancy
  Li  Li0  1  0.66921800  0.66921800  0.10417900  1
  Li  Li1  1  0.98373100  0.98373100  0.00842500  1
  Li  Li2  1  0.99259500  0.99259500  0.50442800  1
  Li  Li3  1  0.34045000  0.34045000  0.60112400  1
  Ti  Ti0  1  0.34080600  0.83823200  0.78259400  1
  Ti  Ti1  1  0.83823200  0.34080600  0.78259400  1
  Ti  Ti2  1  0.16783100  0.16783100  0.29000800  1
  Fe  Fe0  1  0.66947300  0.66947300  0.50525800  1
  Fe  Fe1  1  0.33424600  0.33424600  0.01652800  1
  Ni  Ni0  1  0.82718200  0.82718200  0.79191700  1
  Ni  Ni1  1  0.16992800  0.66392600  0.28598300  1
  Ni  Ni2  1  0.66392600  0.16992800  0.28598300  1
  O  O0  1  0.33536600  0.85265600  0.40161700  1
  O  O1  1  0.51939300  0.51939300  0.66497000  1
  O  O2  1  0.65791500  0.65791500  0.89658700  1
  O  O3  1  0.99562400  0.99562400  0.69405200  1
  O  O4  1  0.00157200  0.00157200  0.19281000  1
  O  O5  1  0.85265600  0.33536600  0.40161700  1
  O  O6  1  0.50692900  0.96643500  0.65908100  1
  O  O7  1  0.96643500  0.50692900  0.65908100  1
  O  O8  1  0.15677500  0.15677500  0.89680900  1
  O  O9  1  0.84246300  0.84246300  0.39672700  1
  O  O10  1  0.04237800  0.47384000  0.15094500  1
  O  O11  1  0.47384000  0.04237800  0.15094500  1
  O  O12  1  0.33684800  0.33684800  0.38793000  1
  O  O13  1  0.17312500  0.65986000  0.90558500  1
  O  O14  1  0.48401500  0.48401500  0.16883700  1
  O  O15  1  0.65986000  0.17312500  0.90558500  1
loop_
_geom_bond_atom_site_label_1
_geom_bond_atom_site_label_2
_geom_bond_distance
_geom_bond_site_symmetry_2
Li0 O11 1.943550 1_565
Li0 O10 1.943550 1_655
Li0 O14 1.960514 1_555
Li0 O2 1.991594 1_554
Li1 O4 1.779620 1_665
Li1 O13 1.927828 1_654
Li1 O15 1.927828 1_564
Li1 O8 2.016289 1_664
Li2 O3 1.812406 1_555
Li2 O9 1.893446 1_555
Li2 O0 1.970269 1_655
Li2 O5 1.970269 1_565
Li3 O6 1.953642 1_545
Li3 O7 1.953642 1_455
Li3 O1 1.959936 1_555
Li3 O12 2.037829 1_555
Fe0 O5 1.974494 1_555
Fe0 O0 1.974494 1_555
Fe0 O9 2.001805 1_555
Fe0 O1 2.104730 1_555
Fe0 O6 2.122930 1_555
Fe0 O7 2.122930 1_555
Fe1 O10 1.924961 1_555
Fe1 O11 1.924961 1_555
Fe1 O13 1.928331 1_554
Fe1 O15 1.928331 1_554
Fe1 O14 2.168133 1_555
Fe1 O8 2.196487 1_554
Ni0 O3 1.915240 1_555
Ni0 O2 1.951919 1_555
Ni0 O13 2.079831 1_655
Ni0 O15 2.079831 1_565
Ni0 O6 2.088146 1_555
Ni0 O7 2.088146 1_555
Ni1 O12 1.891251 1_555
Ni1 O4 1.898136 1_565
Ni1 O14 1.919267 1_555
Ni1 O9 1.938119 1_455
Ni1 O10 2.135171 1_555
Ni1 O0 2.172331 1_555
Ni2 O12 1.891251 1_555
Ni2 O4 1.898136 1_655
Ni2 O14 1.919267 1_555
Ni2 O9 1.938119 1_545
Ni2 O11 2.135171 1_555
Ni2 O5 2.172331 1_555
O0 Ti2 1.889712 1_565
O1 Ti1 1.983693 1_555
O1 Ti0 1.983693 1_555
O2 Ti0 1.956670 1_555
O2 Ti1 1.956670 1_555
O3 Ti0 1.959625 1_655
O3 Ti1 1.959625 1_565
O4 Ti2 1.980567 1_555
O5 Ti2 1.889712 1_655
O6 Ti0 1.864794 1_555
O7 Ti1 1.864794 1_555
O8 Ti1 1.964412 1_455
O8 Ti0 1.964412 1_545
O10 Ti2 2.010751 1_555
O11 Ti2 2.010751 1_555
O12 Ti2 2.009069 1_555
O13 Ti0 2.070838 1_555
O15 Ti1 2.070838 1_555
