# generated using pymatgen
data_K2WO4
_symmetry_space_group_name_H-M   'P 1'
_cell_length_a   8.07429345
_cell_length_b   6.22738173
_cell_length_c   12.03988645
_cell_angle_alpha   64.00755142
_cell_angle_beta   90.00000000
_cell_angle_gamma   90.00000000
_symmetry_Int_Tables_number   1
_chemical_formula_structural   K2WO4
_chemical_formula_sum   'K8 W4 O16'
_cell_volume   544.15234810
_cell_formula_units_Z   4
loop_
 _symmetry_equiv_pos_site_id
 _symmetry_equiv_pos_as_xyz
  1  'x, y, z'
loop_
 _atom_site_type_symbol
 _atom_site_label
 _atom_site_symmetry_multiplicity
 _atom_site_fract_x
 _atom_site_fract_y
 _atom_site_fract_z
 _atom_site_occupancy
  K  K0  1  0.25789645  0.78838474  0.91272784  1
  K  K1  1  0.50214731  0.50348048  0.74212260  1
  K  K2  1  0.24210355  0.78838474  0.41272784  1
  K  K3  1  0.00214731  0.49651952  0.75787740  1
  K  K4  1  0.99785269  0.50348048  0.24212260  1
  K  K5  1  0.75789645  0.21161526  0.58727216  1
  K  K6  1  0.49785269  0.49651952  0.25787740  1
  K  K7  1  0.74210355  0.21161526  0.08727216  1
  W  W0  1  0.74949590  0.85577537  0.92515515  1
  W  W1  1  0.75050410  0.85577537  0.42515515  1
  W  W2  1  0.24949590  0.14422463  0.57484485  1
  W  W3  1  0.25050410  0.14422463  0.07484485  1
  O  O0  1  0.93529346  0.74337915  0.89003075  1
  O  O1  1  0.57709917  0.73908594  0.87637256  1
  O  O2  1  0.76238673  0.75967567  0.58904375  1
  O  O3  1  0.24854059  0.82292891  0.65060885  1
  O  O4  1  0.56470654  0.74337915  0.39003075  1
  O  O5  1  0.92290083  0.73908594  0.37637256  1
  O  O6  1  0.74854059  0.17707109  0.84939115  1
  O  O7  1  0.26238673  0.24032433  0.91095625  1
  O  O8  1  0.73761327  0.75967567  0.08904375  1
  O  O9  1  0.25145941  0.82292891  0.15060885  1
  O  O10  1  0.07709917  0.26091406  0.62362744  1
  O  O11  1  0.43529346  0.25662085  0.60996925  1
  O  O12  1  0.75145941  0.17707109  0.34939115  1
  O  O13  1  0.23761327  0.24032433  0.41095625  1
  O  O14  1  0.42290083  0.26091406  0.12362744  1
  O  O15  1  0.06470654  0.25662085  0.10996925  1
loop_
_geom_bond_atom_site_label_1
_geom_bond_atom_site_label_2
_geom_bond_distance
_geom_bond_site_symmetry_2
K0 O0 2.646752 1_455
K0 O1 2.654485 1_555
K0 O7 2.805352 1_565
K0 O9 2.965105 1_556
K0 O3 3.068636 1_555
K1 O1 2.685180 1_555
K1 O11 2.707435 1_555
K1 O3 2.728239 1_555
K1 O6 2.730688 1_555
K1 O7 2.765048 1_555
K1 O2 2.789292 1_555
K2 O4 2.646752 1_555
K2 O5 2.654485 1_455
K2 O13 2.805352 1_565
K2 O3 2.965105 1_555
K2 O9 3.068636 1_555
K3 O10 2.685180 1_555
K3 O0 2.707435 1_455
K3 O6 2.728239 1_455
K3 O3 2.730688 1_555
K3 O2 2.765048 1_455
K3 O7 2.789292 1_555
K4 O5 2.685180 1_555
K4 O15 2.707435 1_655
K4 O9 2.728239 1_655
K4 O12 2.730688 1_555
K4 O13 2.765048 1_655
K4 O8 2.789292 1_555
K5 O11 2.646752 1_555
K5 O10 2.654485 1_655
K5 O2 2.805352 1_545
K5 O12 2.965105 1_555
K5 O6 3.068636 1_555
K6 O14 2.685180 1_555
K6 O4 2.707435 1_555
K6 O12 2.728239 1_555
K6 O9 2.730688 1_555
K6 O8 2.765048 1_555
K6 O13 2.789292 1_555
K7 O15 2.646752 1_655
K7 O14 2.654485 1_555
K7 O8 2.805352 1_545
K7 O6 2.965105 1_554
K7 O12 3.068636 1_555
O0 W0 1.782903 1_555
O1 W0 1.784578 1_555
O2 W1 1.796061 1_555
O3 W2 1.798814 1_565
O4 W1 1.782903 1_555
O5 W1 1.784578 1_555
O6 W0 1.798814 1_545
O7 W3 1.796061 1_556
O8 W0 1.796061 1_554
O9 W3 1.798814 1_565
O10 W2 1.784578 1_555
O11 W2 1.782903 1_555
O12 W1 1.798814 1_545
O13 W2 1.796061 1_555
O14 W3 1.784578 1_555
O15 W3 1.782903 1_555
