# generated using pymatgen
data_Li9(NiO4)2
_symmetry_space_group_name_H-M   'P 1'
_cell_length_a   9.13822400
_cell_length_b   9.13947200
_cell_length_c   9.40897400
_cell_angle_alpha   90.00000000
_cell_angle_beta   90.00000000
_cell_angle_gamma   90.00000000
_symmetry_Int_Tables_number   1
_chemical_formula_structural   Li9(NiO4)2
_chemical_formula_sum   'Li36 Ni8 O32'
_cell_volume   785.82379375
_cell_formula_units_Z   4
loop_
 _symmetry_equiv_pos_site_id
 _symmetry_equiv_pos_as_xyz
  1  'x, y, z'
loop_
 _atom_site_type_symbol
 _atom_site_label
 _atom_site_symmetry_multiplicity
 _atom_site_fract_x
 _atom_site_fract_y
 _atom_site_fract_z
 _atom_site_occupancy
  Li  Li0  1  0.86399400  0.36675700  0.64456000  1
  Li  Li1  1  0.36399400  0.13324300  0.64456000  1
  Li  Li2  1  0.16436400  0.88840900  0.63347700  1
  Li  Li3  1  0.66436400  0.61159100  0.63347700  1
  Li  Li4  1  0.64233300  0.15390400  0.63344600  1
  Li  Li5  1  0.14233300  0.34609600  0.63344600  1
  Li  Li6  1  0.58117100  0.87865900  0.58848800  1
  Li  Li7  1  0.08117100  0.62134100  0.58848800  1
  Li  Li8  1  0.08117100  0.12134100  0.41151200  1
  Li  Li9  1  0.58117100  0.37865900  0.41151200  1
  Li  Li10  1  0.14233300  0.84609600  0.36655400  1
  Li  Li11  1  0.64233300  0.65390400  0.36655400  1
  Li  Li12  1  0.16436400  0.38840900  0.36652300  1
  Li  Li13  1  0.66436400  0.11159100  0.36652300  1
  Li  Li14  1  0.86399400  0.86675700  0.35544000  1
  Li  Li15  1  0.36399400  0.63324300  0.35544000  1
  Li  Li16  1  0.64015200  0.38309400  0.13802900  1
  Li  Li17  1  0.14015200  0.11690600  0.13802900  1
  Li  Li18  1  0.34767400  0.88876000  0.14208500  1
  Li  Li19  1  0.84767400  0.61124000  0.14208500  1
  Li  Li20  1  0.37168400  0.34754200  0.13048700  1
  Li  Li21  1  0.87168400  0.15245800  0.13048700  1
  Li  Li22  1  0.10270900  0.38083500  0.10206400  1
  Li  Li23  1  0.60270900  0.11916500  0.10206400  1
  Li  Li24  1  0.89549100  0.88511500  0.08931800  1
  Li  Li25  1  0.39549100  0.61488500  0.08931800  1
  Li  Li26  1  0.89549100  0.38511500  0.91068200  1
  Li  Li27  1  0.39549100  0.11488500  0.91068200  1
  Li  Li28  1  0.60270900  0.61916500  0.89793600  1
  Li  Li29  1  0.10270900  0.88083500  0.89793600  1
  Li  Li30  1  0.37168400  0.84754200  0.86951300  1
  Li  Li31  1  0.87168400  0.65245800  0.86951300  1
  Li  Li32  1  0.34767400  0.38876000  0.85791500  1
  Li  Li33  1  0.84767400  0.11124000  0.85791500  1
  Li  Li34  1  0.64015200  0.88309400  0.86197100  1
  Li  Li35  1  0.14015200  0.61690600  0.86197100  1
  Ni  Ni0  1  0.87762900  0.87071800  0.62813500  1
  Ni  Ni1  1  0.37762900  0.62928200  0.62813500  1
  Ni  Ni2  1  0.87762900  0.37071800  0.37186500  1
  Ni  Ni3  1  0.37762900  0.12928200  0.37186500  1
  Ni  Ni4  1  0.62220200  0.85028800  0.13016900  1
  Ni  Ni5  1  0.12220200  0.64971200  0.13016900  1
  Ni  Ni6  1  0.62220200  0.35028800  0.86983100  1
  Ni  Ni7  1  0.12220200  0.14971200  0.86983100  1
  O  O0  1  0.50438100  0.73491300  0.74460500  1
  O  O1  1  0.00438100  0.76508700  0.74460500  1
  O  O2  1  0.74664300  0.98396300  0.72200900  1
  O  O3  1  0.24664300  0.51603700  0.72200900  1
  O  O4  1  0.00689100  0.94124400  0.49809200  1
  O  O5  1  0.50689100  0.55875600  0.49809200  1
  O  O6  1  0.75158700  0.77212200  0.51172400  1
  O  O7  1  0.25158700  0.72787800  0.51172400  1
  O  O8  1  0.75158700  0.27212200  0.48827600  1
  O  O9  1  0.25158700  0.22787800  0.48827600  1
  O  O10  1  0.00689100  0.44124400  0.50190800  1
  O  O11  1  0.50689100  0.05875600  0.50190800  1
  O  O12  1  0.74664300  0.48396300  0.27799100  1
  O  O13  1  0.24664300  0.01603700  0.27799100  1
  O  O14  1  0.50438100  0.23491300  0.25539500  1
  O  O15  1  0.00438100  0.26508700  0.25539500  1
  O  O16  1  0.99649800  0.75998200  0.22939900  1
  O  O17  1  0.49649800  0.74001800  0.22939900  1
  O  O18  1  0.74686200  0.98843800  0.21423800  1
  O  O19  1  0.24686200  0.51156200  0.21423800  1
  O  O20  1  0.50177800  0.96040500  0.00529600  1
  O  O21  1  0.00177800  0.53959500  0.00529600  1
  O  O22  1  0.74057200  0.74983500  0.00305100  1
  O  O23  1  0.24057200  0.75016500  0.00305100  1
  O  O24  1  0.74057200  0.24983500  0.99694900  1
  O  O25  1  0.24057200  0.25016500  0.99694900  1
  O  O26  1  0.50177800  0.46040500  0.99470400  1
  O  O27  1  0.00177800  0.03959500  0.99470400  1
  O  O28  1  0.24686200  0.01156200  0.78576200  1
  O  O29  1  0.74686200  0.48843800  0.78576200  1
  O  O30  1  0.99649800  0.25998200  0.77060100  1
  O  O31  1  0.49649800  0.24001800  0.77060100  1
loop_
_geom_bond_atom_site_label_1
_geom_bond_atom_site_label_2
_geom_bond_distance
_geom_bond_site_symmetry_2
Li0 O30 1.955729 1_555
Li0 O8 1.991358 1_555
Li0 O10 1.992524 1_655
Li0 O29 2.036557 1_555
Li1 O31 1.955729 1_555
Li1 O9 1.991358 1_555
Li1 O11 1.992524 1_555
Li1 O28 2.036557 1_555
Li2 O28 1.971867 1_565
Li2 O4 1.981570 1_555
Li2 O7 2.024901 1_555
Li2 O1 2.121546 1_555
Li3 O29 1.971867 1_555
Li3 O5 1.981570 1_555
Li3 O6 2.024901 1_555
Li3 O0 2.121546 1_555
Li4 O11 1.954445 1_555
Li4 O2 2.003825 1_545
Li4 O8 2.007445 1_555
Li4 O31 2.015143 1_555
Li5 O10 1.954445 1_555
Li5 O3 2.003825 1_555
Li5 O9 2.007445 1_555
Li5 O30 2.015143 1_455
Li6 O11 1.957974 1_565
Li6 O6 1.973558 1_555
Li6 O0 2.091903 1_555
Li6 O2 2.188845 1_555
Li7 O10 1.957974 1_555
Li7 O7 1.973558 1_555
Li7 O1 2.091903 1_555
Li7 O3 2.188845 1_555
Li8 O4 1.957974 1_545
Li8 O9 1.973558 1_555
Li8 O15 2.091903 1_555
Li8 O13 2.188845 1_555
Li9 O5 1.957974 1_555
Li9 O8 1.973558 1_555
Li9 O14 2.091903 1_555
Li9 O12 2.188845 1_555
Li10 O4 1.954445 1_555
Li10 O13 2.003825 1_565
Li10 O7 2.007445 1_555
Li10 O16 2.015143 1_455
Li11 O5 1.954445 1_555
Li11 O12 2.003825 1_555
Li11 O6 2.007445 1_555
Li11 O17 2.015143 1_555
Li12 O19 1.971867 1_555
Li12 O10 1.981570 1_555
Li12 O9 2.024901 1_555
Li12 O15 2.121546 1_555
Li13 O18 1.971867 1_545
Li13 O11 1.981570 1_555
Li13 O8 2.024901 1_555
Li13 O14 2.121546 1_555
Li14 O16 1.955729 1_555
Li14 O6 1.991358 1_555
Li14 O4 1.992524 1_655
Li14 O18 2.036557 1_555
Li15 O17 1.955729 1_555
Li15 O7 1.991358 1_555
Li15 O5 1.992524 1_555
Li15 O19 2.036557 1_555
Li16 O12 1.879122 1_555
Li16 O26 1.979081 1_554
Li16 O24 2.021747 1_554
Li16 O14 2.143113 1_555
Li17 O13 1.879122 1_555
Li17 O27 1.979081 1_554
Li17 O25 2.021747 1_554
Li17 O15 2.143113 1_555
Li18 O13 1.959766 1_565
Li18 O20 2.017021 1_555
Li18 O23 2.067290 1_555
Li18 O17 2.091056 1_555
Li19 O12 1.959766 1_555
Li19 O21 2.017021 1_655
Li19 O22 2.067290 1_555
Li19 O16 2.091056 1_555
Li20 O25 1.950962 1_554
Li20 O14 1.977691 1_555
Li20 O26 2.027197 1_554
Li20 O19 2.041866 1_555
Li21 O24 1.950962 1_554
Li21 O15 1.977691 1_655
Li21 O27 2.027197 1_654
Li21 O18 2.041866 1_545
Li22 O21 1.945516 1_555
Li22 O25 1.997891 1_554
Li22 O15 2.001956 1_555
Li22 O19 2.068026 1_555
Li23 O20 1.945516 1_545
Li23 O24 1.997891 1_554
Li23 O14 2.001956 1_555
Li23 O18 2.068026 1_545
Li24 O27 1.931122 1_664
Li24 O16 1.974103 1_555
Li24 O18 2.029273 1_555
Li24 O22 2.047352 1_555
Li25 O26 1.931122 1_554
Li25 O17 1.974103 1_555
Li25 O19 2.029273 1_555
Li25 O23 2.047352 1_555
Li26 O21 1.931122 1_656
Li26 O30 1.974103 1_555
Li26 O29 2.029273 1_555
Li26 O24 2.047352 1_555
Li27 O20 1.931122 1_546
Li27 O31 1.974103 1_555
Li27 O28 2.029273 1_555
Li27 O25 2.047352 1_555
Li28 O26 1.945516 1_555
Li28 O22 1.997891 1_556
Li28 O0 2.001956 1_555
Li28 O29 2.068026 1_555
Li29 O27 1.945516 1_565
Li29 O23 1.997891 1_556
Li29 O1 2.001956 1_555
Li29 O28 2.068026 1_565
Li30 O23 1.950962 1_556
Li30 O0 1.977691 1_555
Li30 O20 2.027197 1_556
Li30 O28 2.041866 1_565
Li31 O22 1.950962 1_556
Li31 O1 1.977691 1_655
Li31 O21 2.027197 1_656
Li31 O29 2.041866 1_555
Li32 O3 1.959766 1_555
Li32 O26 2.017021 1_555
Li32 O25 2.067290 1_555
Li32 O31 2.091056 1_555
Li33 O2 1.959766 1_545
Li33 O27 2.017021 1_655
Li33 O24 2.067290 1_555
Li33 O30 2.091056 1_555
Li34 O2 1.879122 1_555
Li34 O20 1.979081 1_556
Li34 O22 2.021747 1_556
Li34 O0 2.143113 1_555
Li35 O3 1.879122 1_555
Li35 O21 1.979081 1_556
Li35 O23 2.021747 1_556
Li35 O1 2.143113 1_555
Ni0 O2 1.812216 1_555
Ni0 O4 1.818761 1_655
Ni0 O6 1.827116 1_555
Ni0 O1 1.864019 1_655
Ni1 O3 1.812216 1_555
Ni1 O5 1.818761 1_555
Ni1 O7 1.827116 1_555
Ni1 O0 1.864019 1_555
Ni2 O12 1.812216 1_555
Ni2 O10 1.818761 1_655
Ni2 O8 1.827116 1_555
Ni2 O15 1.864019 1_655
Ni3 O13 1.812216 1_555
Ni3 O11 1.818761 1_555
Ni3 O9 1.827116 1_555
Ni3 O14 1.864019 1_555
Ni4 O17 1.790789 1_555
Ni4 O22 1.855661 1_555
Ni4 O18 1.875527 1_555
Ni4 O20 1.898508 1_555
Ni5 O16 1.790789 1_455
Ni5 O23 1.855661 1_555
Ni5 O19 1.875527 1_555
Ni5 O21 1.898508 1_555
Ni6 O31 1.790789 1_555
Ni6 O24 1.855661 1_555
Ni6 O29 1.875527 1_555
Ni6 O26 1.898508 1_555
Ni7 O30 1.790789 1_455
Ni7 O25 1.855661 1_555
Ni7 O28 1.875527 1_555
Ni7 O27 1.898508 1_555
