# generated using pymatgen
data_Li4V3Cu3(TeO8)2
_symmetry_space_group_name_H-M   'P 1'
_cell_length_a   5.92158800
_cell_length_b   5.98616809
_cell_length_c   9.89465509
_cell_angle_alpha   92.46149113
_cell_angle_beta   89.99480006
_cell_angle_gamma   119.51810058
_symmetry_Int_Tables_number   1
_chemical_formula_structural   Li4V3Cu3(TeO8)2
_chemical_formula_sum   'Li4 V3 Cu3 Te2 O16'
_cell_volume   304.84452714
_cell_formula_units_Z   1
loop_
 _symmetry_equiv_pos_site_id
 _symmetry_equiv_pos_as_xyz
  1  'x, y, z'
loop_
 _atom_site_type_symbol
 _atom_site_label
 _atom_site_symmetry_multiplicity
 _atom_site_fract_x
 _atom_site_fract_y
 _atom_site_fract_z
 _atom_site_occupancy
  Li  Li0  1  0.33566400  0.66786200  0.91506300  1
  Li  Li1  1  0.00367600  0.00949100  0.98689200  1
  Li  Li2  1  0.99756600  0.99928100  0.47762600  1
  Li  Li3  1  0.65454400  0.30675700  0.40822800  1
  V  V0  1  0.17563100  0.35177400  0.22329100  1
  V  V1  1  0.83090800  0.18312600  0.71921000  1
  V  V2  1  0.34874000  0.18148600  0.71395400  1
  Cu  Cu0  1  0.65870100  0.83239400  0.20771500  1
  Cu  Cu1  1  0.17367000  0.83243700  0.20774800  1
  Cu  Cu2  1  0.83280000  0.66666400  0.70700000  1
  Te  Te0  1  0.33184200  0.66613600  0.48665500  1
  Te  Te1  1  0.67353700  0.34845100  0.98806000  1
  O  O0  1  0.66396200  0.83959800  0.58708800  1
  O  O1  1  0.46880800  0.93804800  0.35330500  1
  O  O2  1  0.31881800  0.63643300  0.11657400  1
  O  O3  1  0.00837700  0.01749100  0.28600900  1
  O  O4  1  0.99799500  0.01757900  0.79471400  1
  O  O5  1  0.17449800  0.84386300  0.58543700  1
  O  O6  1  0.45342100  0.47648000  0.36409600  1
  O  O7  1  0.02332900  0.47908700  0.36274800  1
  O  O8  1  0.84092900  0.68203500  0.08256500  1
  O  O9  1  0.16955700  0.34874300  0.60102900  1
  O  O10  1  0.96595800  0.46942800  0.85283900  1
  O  O11  1  0.50462300  0.46798300  0.85216900  1
  O  O12  1  0.67265900  0.31329300  0.60899200  1
  O  O13  1  0.83846400  0.19262200  0.08769900  1
  O  O14  1  0.52881600  0.04113300  0.84456300  1
  O  O15  1  0.35280700  0.19032600  0.08657300  1
loop_
_geom_bond_atom_site_label_1
_geom_bond_atom_site_label_2
_geom_bond_distance
_geom_bond_site_symmetry_2
Li0 O11 1.983805 1_555
Li0 O10 1.989412 1_455
Li0 O2 2.008632 1_556
Li0 O14 2.098331 1_565
Li1 O4 1.904950 1_455
Li1 O8 1.991240 1_446
Li1 O13 2.028917 1_456
Li1 O15 2.030312 1_556
Li2 O3 1.903048 1_665
Li2 O5 2.036470 1_655
Li2 O0 2.053548 1_555
Li2 O9 2.141438 1_665
Li3 O7 1.963530 1_655
Li3 O6 1.967706 1_555
Li3 O1 1.970158 1_545
Li3 O12 1.987060 1_555
Cu0 O3 1.944518 1_665
Cu0 O2 1.955265 1_555
Cu0 O1 2.088517 1_555
Cu0 O8 2.090230 1_555
Cu0 O13 2.269610 1_565
Cu0 O6 2.478297 1_555
Cu1 O3 1.944081 1_565
Cu1 O2 1.957536 1_555
Cu1 O1 2.088505 1_555
Cu1 O8 2.093733 1_455
Cu1 O15 2.265750 1_565
Cu1 O7 2.457976 1_555
Cu2 O4 1.985325 1_565
Cu2 O12 2.040009 1_555
Cu2 O0 2.145832 1_555
Cu2 O5 2.158768 1_655
Cu2 O11 2.263405 1_555
Cu2 O10 2.272010 1_555
O0 Te0 1.957799 1_555
O0 V1 2.163619 1_565
O1 Te0 1.982828 1_555
O2 V0 1.862323 1_555
O3 V0 1.877214 1_555
O4 V1 1.883898 1_555
O4 V2 1.993485 1_655
O5 Te0 1.960267 1_555
O5 V2 2.119190 1_565
O6 V0 1.976171 1_555
O6 Te0 1.991192 1_555
O7 V0 1.971039 1_555
O7 Te0 1.990267 1_555
O8 Te1 1.932307 1_554
O9 Te0 2.049246 1_555
O9 V1 2.124090 1_455
O9 V2 2.126008 1_555
O10 V1 1.944234 1_555
O10 Te1 2.039643 1_555
O11 V2 1.975462 1_555
O11 Te1 2.026956 1_555
O12 V1 1.862074 1_555
O12 V2 1.989730 1_555
O13 Te1 1.942377 1_554
O13 V0 2.170308 1_655
O14 V1 2.013148 1_555
O14 Te1 2.087359 1_555
O14 V2 2.118828 1_555
O15 Te1 1.939234 1_554
O15 V0 2.179768 1_555
