# generated using pymatgen
data_LiMn2(PO4)2
_symmetry_space_group_name_H-M   'P 1'
_cell_length_a   5.30132884
_cell_length_b   9.43927512
_cell_length_c   6.10074707
_cell_angle_alpha   90.00559816
_cell_angle_beta   89.98361555
_cell_angle_gamma   90.61625131
_symmetry_Int_Tables_number   1
_chemical_formula_structural   LiMn2(PO4)2
_chemical_formula_sum   'Li2 Mn4 P4 O16'
_cell_volume   305.26799065
_cell_formula_units_Z   2
loop_
 _symmetry_equiv_pos_site_id
 _symmetry_equiv_pos_as_xyz
  1  'x, y, z'
loop_
 _atom_site_type_symbol
 _atom_site_label
 _atom_site_symmetry_multiplicity
 _atom_site_fract_x
 _atom_site_fract_y
 _atom_site_fract_z
 _atom_site_occupancy
  Li  Li0  1  0.37094200  0.55828400  0.12215800  1
  Li  Li1  1  0.87023000  0.05808600  0.37816900  1
  Mn  Mn0  1  0.22927600  0.33521000  0.62929200  1
  Mn  Mn1  1  0.32679300  0.14079700  0.10111900  1
  Mn  Mn2  1  0.73038100  0.83521700  0.87021900  1
  Mn  Mn3  1  0.82768900  0.64049200  0.39865900  1
  P  P0  1  0.26512600  0.63644200  0.63987500  1
  P  P1  1  0.23165600  0.86640700  0.14742100  1
  P  P2  1  0.76443500  0.13630200  0.86019900  1
  P  P3  1  0.73180700  0.36634600  0.35247800  1
  O  O0  1  0.01654200  0.73070200  0.64445700  1
  O  O1  1  0.97942600  0.77932100  0.16606000  1
  O  O2  1  0.22566300  0.54974300  0.42348400  1
  O  O3  1  0.26262400  0.52972600  0.82937300  1
  O  O4  1  0.23514400  0.99145200  0.32097600  1
  O  O5  1  0.23504800  0.95883400  0.93425800  1
  O  O6  1  0.51640800  0.23096100  0.85565100  1
  O  O7  1  0.47963600  0.27944800  0.33403300  1
  O  O8  1  0.50552000  0.72897900  0.62843300  1
  O  O9  1  0.45963800  0.76751200  0.14472000  1
  O  O10  1  0.72511400  0.04997200  0.07690600  1
  O  O11  1  0.76139200  0.02915900  0.67116900  1
  O  O12  1  0.73572800  0.49144300  0.17934900  1
  O  O13  1  0.73587400  0.45851700  0.56593500  1
  O  O14  1  0.00560200  0.22850300  0.87069500  1
  O  O15  1  0.95993100  0.26740100  0.35491200  1
loop_
_geom_bond_atom_site_label_1
_geom_bond_atom_site_label_2
_geom_bond_distance
_geom_bond_site_symmetry_2
Li0 O3 1.894757 1_554
Li0 O2 1.994228 1_555
Li0 O9 2.029906 1_555
Li0 O12 2.070329 1_555
Li1 O11 1.897053 1_555
Li1 O10 1.993790 1_555
Li1 O15 2.032187 1_555
Li1 O4 2.070146 1_645
Mn0 O14 2.136149 1_555
Mn0 O3 2.210239 1_555
Mn0 O6 2.286066 1_555
Mn0 O15 2.287370 1_455
Mn0 O7 2.301472 1_555
Mn0 O2 2.383059 1_555
Mn1 O6 1.989572 1_554
Mn1 O4 2.001916 1_545
Mn1 O5 2.050598 1_544
Mn1 O7 2.089494 1_555
Mn1 O10 2.292279 1_555
Mn1 O14 2.364907 1_554
Mn2 O8 2.139507 1_555
Mn2 O11 2.201565 1_565
Mn2 O0 2.280877 1_655
Mn2 O9 2.291747 1_556
Mn2 O1 2.301198 1_556
Mn2 O10 2.387619 1_566
Mn3 O0 1.989561 1_655
Mn3 O12 1.998113 1_555
Mn3 O13 2.052063 1_555
Mn3 O1 2.086867 1_555
Mn3 O2 2.290636 1_655
Mn3 O8 2.368283 1_555
O0 P0 1.598215 1_555
O1 P1 1.566183 1_655
O2 P0 1.566064 1_555
O3 P0 1.533403 1_555
O4 P1 1.585534 1_555
O5 P1 1.566056 1_556
O6 P2 1.597912 1_555
O7 P3 1.564962 1_555
O8 P0 1.538822 1_555
O9 P1 1.535147 1_555
O10 P2 1.565817 1_554
O11 P2 1.533770 1_555
O12 P3 1.584322 1_555
O13 P3 1.566094 1_555
O14 P2 1.540201 1_455
O15 P3 1.536028 1_555
