# generated using pymatgen
data_Li2SmPCO7
_symmetry_space_group_name_H-M   'P 1'
_cell_length_a   6.87808700
_cell_length_b   4.97218200
_cell_length_c   9.25935682
_cell_angle_alpha   87.02920492
_cell_angle_beta   90.00000000
_cell_angle_gamma   90.00000000
_symmetry_Int_Tables_number   1
_chemical_formula_structural   Li2SmPCO7
_chemical_formula_sum   'Li4 Sm2 P2 C2 O14'
_cell_volume   316.23610585
_cell_formula_units_Z   2
loop_
 _symmetry_equiv_pos_site_id
 _symmetry_equiv_pos_as_xyz
  1  'x, y, z'
loop_
 _atom_site_type_symbol
 _atom_site_label
 _atom_site_symmetry_multiplicity
 _atom_site_fract_x
 _atom_site_fract_y
 _atom_site_fract_z
 _atom_site_occupancy
  Li  Li0  1  0.52017000  0.79812200  0.80431500  1
  Li  Li1  1  0.97983000  0.79812200  0.80431500  1
  Li  Li2  1  0.47983000  0.20187800  0.19568500  1
  Li  Li3  1  0.02017000  0.20187800  0.19568500  1
  Sm  Sm0  1  0.25000000  0.25685600  0.62708400  1
  Sm  Sm1  1  0.75000000  0.74314400  0.37291600  1
  P  P0  1  0.75000000  0.26563200  0.59945400  1
  P  P1  1  0.25000000  0.73436800  0.40054600  1
  C  C0  1  0.25000000  0.25764600  0.93155100  1
  C  C1  1  0.75000000  0.74235400  0.06844900  1
  O  O0  1  0.75000000  0.72861800  0.93153900  1
  O  O1  1  0.25000000  0.02791600  0.86793300  1
  O  O2  1  0.25000000  0.47647700  0.84415900  1
  O  O3  1  0.93291200  0.12712800  0.66497400  1
  O  O4  1  0.56708800  0.12712800  0.66497400  1
  O  O5  1  0.25000000  0.76034100  0.56958500  1
  O  O6  1  0.75000000  0.57352700  0.62031600  1
  O  O7  1  0.25000000  0.42647300  0.37968400  1
  O  O8  1  0.75000000  0.23965900  0.43041500  1
  O  O9  1  0.43291200  0.87287200  0.33502600  1
  O  O10  1  0.06708800  0.87287200  0.33502600  1
  O  O11  1  0.75000000  0.52352300  0.15584100  1
  O  O12  1  0.75000000  0.97208400  0.13206700  1
  O  O13  1  0.25000000  0.27138200  0.06846100  1
loop_
_geom_bond_atom_site_label_1
_geom_bond_atom_site_label_2
_geom_bond_distance
_geom_bond_site_symmetry_2
Li0 O0 1.990941 1_555
Li0 O4 2.055747 1_565
Li0 O1 2.274938 1_565
Li0 O2 2.466930 1_555
Li0 O6 2.616453 1_555
Li1 O0 1.990941 1_555
Li1 O3 2.055747 1_565
Li1 O1 2.274938 1_665
Li1 O2 2.466930 1_655
Li1 O6 2.616453 1_555
Li2 O13 1.990941 1_555
Li2 O9 2.055747 1_545
Li2 O12 2.274938 1_545
Li2 O11 2.466930 1_555
Li2 O7 2.616453 1_555
Li3 O13 1.990941 1_555
Li3 O10 2.055747 1_545
Li3 O12 2.274938 1_445
Li3 O11 2.466930 1_455
Li3 O7 2.616453 1_555
C0 O13 1.273067 1_556
C0 O1 1.312058 1_555
C0 O2 1.321901 1_555
C1 O0 1.273067 1_554
C1 O12 1.312058 1_555
C1 O11 1.321901 1_555
O1 Sm0 2.450722 1_555
O2 Sm0 2.336656 1_555
O3 P0 1.543303 1_555
O3 Sm0 2.296144 1_655
O4 P0 1.543303 1_555
O4 Sm0 2.296144 1_555
O5 P1 1.577167 1_555
O5 Sm0 2.532273 1_555
O5 Sm0 2.552349 1_565
O6 P0 1.552950 1_555
O6 Sm1 2.399712 1_555
O7 P1 1.552950 1_555
O7 Sm0 2.399712 1_555
O8 P0 1.577167 1_555
O8 Sm1 2.532273 1_555
O8 Sm1 2.552349 1_545
O9 P1 1.543303 1_555
O9 Sm1 2.296144 1_555
O10 P1 1.543303 1_555
O10 Sm1 2.296144 1_455
O11 Sm1 2.336656 1_555
O12 Sm1 2.450722 1_555
