# generated using pymatgen
data_LiMnF4
_symmetry_space_group_name_H-M   'P 1'
_cell_length_a   6.30941500
_cell_length_b   6.34985800
_cell_length_c   6.89499200
_cell_angle_alpha   90.00000000
_cell_angle_beta   90.00000000
_cell_angle_gamma   90.00000000
_symmetry_Int_Tables_number   1
_chemical_formula_structural   LiMnF4
_chemical_formula_sum   'Li4 Mn4 F16'
_cell_volume   276.24019630
_cell_formula_units_Z   4
loop_
 _symmetry_equiv_pos_site_id
 _symmetry_equiv_pos_as_xyz
  1  'x, y, z'
loop_
 _atom_site_type_symbol
 _atom_site_label
 _atom_site_symmetry_multiplicity
 _atom_site_fract_x
 _atom_site_fract_y
 _atom_site_fract_z
 _atom_site_occupancy
  Li  Li0  1  0.23985700  0.25000000  0.26939800  1
  Li  Li1  1  0.26014300  0.75000000  0.76939800  1
  Li  Li2  1  0.73985700  0.25000000  0.23060200  1
  Li  Li3  1  0.76014300  0.75000000  0.73060200  1
  Mn  Mn0  1  0.00942200  0.25000000  0.74981700  1
  Mn  Mn1  1  0.49057800  0.75000000  0.24981700  1
  Mn  Mn2  1  0.50942200  0.25000000  0.75018300  1
  Mn  Mn3  1  0.99057800  0.75000000  0.25018300  1
  F  F0  1  0.00928000  0.95959300  0.74926000  1
  F  F1  1  0.00928000  0.54040700  0.74926000  1
  F  F2  1  0.24132400  0.75000000  0.05679000  1
  F  F3  1  0.25878700  0.25000000  0.93398800  1
  F  F4  1  0.24121300  0.75000000  0.43398800  1
  F  F5  1  0.25867600  0.25000000  0.55679000  1
  F  F6  1  0.49072000  0.04040700  0.24926000  1
  F  F7  1  0.49072000  0.45959300  0.24926000  1
  F  F8  1  0.50928000  0.95959300  0.75074000  1
  F  F9  1  0.50928000  0.54040700  0.75074000  1
  F  F10  1  0.74132400  0.75000000  0.44321000  1
  F  F11  1  0.75878700  0.25000000  0.56601200  1
  F  F12  1  0.74121300  0.75000000  0.06601200  1
  F  F13  1  0.75867600  0.25000000  0.94321000  1
  F  F14  1  0.99072000  0.45959300  0.25074000  1
  F  F15  1  0.99072000  0.04040700  0.25074000  1
loop_
_geom_bond_atom_site_label_1
_geom_bond_atom_site_label_2
_geom_bond_distance
_geom_bond_site_symmetry_2
F0 Mn0 1.844047 1_565
F0 Li3 2.063663 1_455
F0 Li1 2.072628 1_555
F1 Mn0 1.844047 1_555
F1 Li3 2.063663 1_455
F1 Li1 2.072628 1_555
F2 Li1 1.985120 1_554
F2 Mn1 2.060234 1_555
F2 Mn3 2.069054 1_455
F3 Mn0 2.021870 1_555
F3 Mn2 2.026533 1_555
F3 Li0 2.315731 1_556
F4 Mn1 2.021870 1_555
F4 Mn3 2.026533 1_455
F4 Li1 2.315731 1_555
F5 Li0 1.985120 1_555
F5 Mn0 2.060234 1_555
F5 Mn2 2.069054 1_555
F6 Mn1 1.844047 1_545
F6 Li2 2.063663 1_555
F6 Li0 2.072628 1_555
F7 Mn1 1.844047 1_555
F7 Li2 2.063663 1_555
F7 Li0 2.072628 1_555
F8 Mn2 1.844047 1_565
F8 Li1 2.063663 1_555
F8 Li3 2.072628 1_555
F9 Mn2 1.844047 1_555
F9 Li1 2.063663 1_555
F9 Li3 2.072628 1_555
F10 Li3 1.985120 1_555
F10 Mn3 2.060234 1_555
F10 Mn1 2.069054 1_555
F11 Mn2 2.021870 1_555
F11 Mn0 2.026533 1_655
F11 Li2 2.315731 1_555
F12 Mn3 2.021870 1_555
F12 Mn1 2.026533 1_555
F12 Li3 2.315731 1_554
F13 Li2 1.985120 1_556
F13 Mn2 2.060234 1_555
F13 Mn0 2.069054 1_655
F14 Mn3 1.844047 1_555
F14 Li0 2.063663 1_655
F14 Li2 2.072628 1_555
F15 Mn3 1.844047 1_545
F15 Li0 2.063663 1_655
F15 Li2 2.072628 1_555
