# generated using pymatgen
data_Na3SnPCO7
_symmetry_space_group_name_H-M   'P 1'
_cell_length_a   7.05115000
_cell_length_b   5.43318600
_cell_length_c   9.39794018
_cell_angle_alpha   87.07494965
_cell_angle_beta   90.00000000
_cell_angle_gamma   90.00000000
_symmetry_Int_Tables_number   1
_chemical_formula_structural   Na3SnPCO7
_chemical_formula_sum   'Na6 Sn2 P2 C2 O14'
_cell_volume   359.56797972
_cell_formula_units_Z   2
loop_
 _symmetry_equiv_pos_site_id
 _symmetry_equiv_pos_as_xyz
  1  'x, y, z'
loop_
 _atom_site_type_symbol
 _atom_site_label
 _atom_site_symmetry_multiplicity
 _atom_site_fract_x
 _atom_site_fract_y
 _atom_site_fract_z
 _atom_site_occupancy
  Na  Na0  1  0.52426500  0.00748100  0.01583200  1
  Na  Na1  1  0.80258400  0.49676200  0.17142800  1
  Na  Na2  1  0.52206400  0.47623400  0.48932300  1
  Na  Na3  1  0.02206400  0.52376600  0.51067700  1
  Na  Na4  1  0.30258400  0.50323800  0.82857200  1
  Na  Na5  1  0.02426500  0.99251900  0.98416800  1
  Sn  Sn0  1  0.24827000  0.05301700  0.31596700  1
  Sn  Sn1  1  0.74827000  0.94698300  0.68403300  1
  P  P0  1  0.76106700  0.00257100  0.32648400  1
  P  P1  1  0.26106700  0.99742900  0.67351600  1
  C  C0  1  0.25951300  0.50026400  0.14311000  1
  C  C1  1  0.75951300  0.49973600  0.85689000  1
  O  O0  1  0.27566400  0.70420600  0.06857200  1
  O  O1  1  0.23473000  0.29247500  0.08073300  1
  O  O2  1  0.88522900  0.91974300  0.20283000  1
  O  O3  1  0.55900000  0.07210300  0.26321900  1
  O  O4  1  0.26705300  0.48936100  0.28295100  1
  O  O5  1  0.83880000  0.23803000  0.39276400  1
  O  O6  1  0.74716200  0.78543600  0.44172900  1
  O  O7  1  0.24716200  0.21456400  0.55827100  1
  O  O8  1  0.33880000  0.76197000  0.60723600  1
  O  O9  1  0.76705300  0.51063900  0.71704900  1
  O  O10  1  0.05900000  0.92789700  0.73678100  1
  O  O11  1  0.38522900  0.08025700  0.79717000  1
  O  O12  1  0.73473000  0.70752500  0.91926700  1
  O  O13  1  0.77566400  0.29579400  0.93142800  1
loop_
_geom_bond_atom_site_label_1
_geom_bond_atom_site_label_2
_geom_bond_distance
_geom_bond_site_symmetry_2
Na0 O11 2.292911 1_554
Na0 O3 2.381567 1_555
Na0 O12 2.415122 1_544
Na0 O0 2.439289 1_545
Na0 O13 2.469509 1_554
Na0 O1 2.652165 1_555
Na1 O2 2.403606 1_555
Na1 O5 2.463678 1_555
Na1 O13 2.562601 1_554
Na1 O12 2.622817 1_554
Na2 O6 2.337695 1_555
Na2 O8 2.341689 1_555
Na2 O7 2.470704 1_555
Na2 O4 2.643059 1_555
Na2 O5 2.757929 1_555
Na2 O9 2.764079 1_555
Na3 O7 2.337695 1_555
Na3 O5 2.341689 1_455
Na3 O6 2.470704 1_455
Na3 O9 2.643059 1_455
Na3 O8 2.757929 1_555
Na3 O4 2.764079 1_555
Na4 O11 2.403606 1_555
Na4 O8 2.463678 1_555
Na4 O0 2.562601 1_556
Na4 O1 2.622817 1_556
Na5 O2 2.292911 1_456
Na5 O10 2.381567 1_555
Na5 O1 2.415122 1_566
Na5 O13 2.439289 1_465
Na5 O0 2.469509 1_556
Na5 O12 2.652165 1_455
C0 O0 1.285396 1_555
C0 O1 1.310066 1_555
C0 O4 1.313605 1_555
C1 O13 1.285396 1_555
C1 O12 1.310066 1_555
C1 O9 1.313605 1_555
O1 Sn0 2.509081 1_555
O2 P0 1.540398 1_565
O3 P0 1.582203 1_555
O3 Sn0 2.247609 1_555
O4 Sn0 2.378895 1_555
O5 P0 1.551237 1_555
O6 P0 1.563334 1_565
O6 Sn1 2.481911 1_555
O7 P1 1.563334 1_545
O7 Sn0 2.481911 1_555
O8 P1 1.551237 1_555
O9 Sn1 2.378895 1_555
O10 P1 1.582203 1_555
O10 Sn1 2.247609 1_455
O11 P1 1.540398 1_545
O12 Sn1 2.509081 1_555
