# generated using pymatgen
data_Li2MnF5
_symmetry_space_group_name_H-M   'P 1'
_cell_length_a   5.48487200
_cell_length_b   7.58064900
_cell_length_c   9.47166600
_cell_angle_alpha   90.00000000
_cell_angle_beta   90.00000000
_cell_angle_gamma   90.00000000
_symmetry_Int_Tables_number   1
_chemical_formula_structural   Li2MnF5
_chemical_formula_sum   'Li8 Mn4 F20'
_cell_volume   393.82135344
_cell_formula_units_Z   4
loop_
 _symmetry_equiv_pos_site_id
 _symmetry_equiv_pos_as_xyz
  1  'x, y, z'
loop_
 _atom_site_type_symbol
 _atom_site_label
 _atom_site_symmetry_multiplicity
 _atom_site_fract_x
 _atom_site_fract_y
 _atom_site_fract_z
 _atom_site_occupancy
  Li  Li0  1  0.75000000  0.92726200  0.27702700  1
  Li  Li1  1  0.25000000  0.07693200  0.43382800  1
  Li  Li2  1  0.75000000  0.42306800  0.93382800  1
  Li  Li3  1  0.25000000  0.57273800  0.77702700  1
  Li  Li4  1  0.75000000  0.42726200  0.22297300  1
  Li  Li5  1  0.25000000  0.57693200  0.06617200  1
  Li  Li6  1  0.75000000  0.92306800  0.56617200  1
  Li  Li7  1  0.25000000  0.07273800  0.72297300  1
  Mn  Mn0  1  0.25000000  0.18335300  0.05052900  1
  Mn  Mn1  1  0.75000000  0.31664700  0.55052900  1
  Mn  Mn2  1  0.25000000  0.68335300  0.44947100  1
  Mn  Mn3  1  0.75000000  0.81664700  0.94947100  1
  F  F0  1  0.00000000  0.00000000  0.00000000  1
  F  F1  1  0.50000000  0.00000000  0.00000000  1
  F  F2  1  0.25000000  0.11655800  0.23589900  1
  F  F3  1  0.00504500  0.13055300  0.58779800  1
  F  F4  1  0.49495500  0.13055300  0.58779800  1
  F  F5  1  0.75000000  0.24151600  0.36160700  1
  F  F6  1  0.25000000  0.25848400  0.86160700  1
  F  F7  1  0.99495500  0.36944700  0.08779800  1
  F  F8  1  0.50504500  0.36944700  0.08779800  1
  F  F9  1  0.75000000  0.38344200  0.73589900  1
  F  F10  1  0.00000000  0.50000000  0.50000000  1
  F  F11  1  0.50000000  0.50000000  0.50000000  1
  F  F12  1  0.25000000  0.61655800  0.26410100  1
  F  F13  1  0.49495500  0.63055300  0.91220200  1
  F  F14  1  0.00504500  0.63055300  0.91220200  1
  F  F15  1  0.75000000  0.74151600  0.13839300  1
  F  F16  1  0.25000000  0.75848400  0.63839300  1
  F  F17  1  0.99495500  0.86944700  0.41220200  1
  F  F18  1  0.50504500  0.86944700  0.41220200  1
  F  F19  1  0.75000000  0.88344200  0.76410100  1
loop_
_geom_bond_atom_site_label_1
_geom_bond_atom_site_label_2
_geom_bond_distance
_geom_bond_site_symmetry_2
F0 Mn0 2.010276 1_555
F0 Mn3 2.010276 1_444
F1 Mn0 2.010276 1_555
F1 Mn3 2.010276 1_544
F2 Mn0 1.827318 1_555
F2 Li1 1.898631 1_555
F3 Li7 1.906949 1_555
F3 Mn1 2.017823 1_455
F3 Li1 2.024139 1_555
F3 Li6 2.114893 1_445
F4 Li7 1.906949 1_555
F4 Mn1 2.017823 1_555
F4 Li1 2.024139 1_555
F4 Li6 2.114893 1_545
F5 Mn1 1.877858 1_555
F5 Li4 1.925330 1_555
F5 Li0 2.513343 1_545
F6 Mn0 1.877858 1_556
F6 Li7 1.925330 1_555
F6 Li3 2.513343 1_555
F7 Li4 1.906949 1_555
F7 Mn0 2.017823 1_655
F7 Li2 2.024139 1_554
F7 Li5 2.114893 1_655
F8 Li4 1.906949 1_555
F8 Mn0 2.017823 1_555
F8 Li2 2.024139 1_554
F8 Li5 2.114893 1_555
F9 Mn1 1.827318 1_555
F9 Li2 1.898631 1_555
F10 Mn2 2.010276 1_555
F10 Mn1 2.010276 1_455
F11 Mn2 2.010276 1_555
F11 Mn1 2.010276 1_555
F12 Mn2 1.827318 1_555
F12 Li5 1.898631 1_555
F13 Li3 1.906949 1_555
F13 Mn3 2.017823 1_555
F13 Li5 2.024139 1_556
F13 Li2 2.114893 1_555
F14 Li3 1.906949 1_555
F14 Mn3 2.017823 1_455
F14 Li5 2.024139 1_556
F14 Li2 2.114893 1_455
F15 Mn3 1.877858 1_554
F15 Li0 1.925330 1_555
F15 Li4 2.513343 1_555
F16 Mn2 1.877858 1_555
F16 Li3 1.925330 1_555
F16 Li7 2.513343 1_565
F17 Li0 1.906949 1_555
F17 Mn2 2.017823 1_655
F17 Li6 2.024139 1_555
F17 Li1 2.114893 1_665
F18 Li0 1.906949 1_555
F18 Mn2 2.017823 1_555
F18 Li6 2.024139 1_555
F18 Li1 2.114893 1_565
F19 Mn3 1.827318 1_555
F19 Li6 1.898631 1_555
