# generated using pymatgen
data_Li3V(BO3)2
_symmetry_space_group_name_H-M   'P 1'
_cell_length_a   8.76463400
_cell_length_b   5.97131000
_cell_length_c   10.43512638
_cell_angle_alpha   55.58155240
_cell_angle_beta   90.00000000
_cell_angle_gamma   90.00000000
_symmetry_Int_Tables_number   1
_chemical_formula_structural   Li3V(BO3)2
_chemical_formula_sum   'Li12 V4 B8 O24'
_cell_volume   450.52514110
_cell_formula_units_Z   4
loop_
 _symmetry_equiv_pos_site_id
 _symmetry_equiv_pos_as_xyz
  1  'x, y, z'
loop_
 _atom_site_type_symbol
 _atom_site_label
 _atom_site_symmetry_multiplicity
 _atom_site_fract_x
 _atom_site_fract_y
 _atom_site_fract_z
 _atom_site_occupancy
  Li  Li0  1  0.24154200  0.83714400  0.15296100  1
  Li  Li1  1  0.77040700  0.62725600  0.39693300  1
  Li  Li2  1  0.41739100  0.88152200  0.40199300  1
  Li  Li3  1  0.91739100  0.11847800  0.09800700  1
  Li  Li4  1  0.27040700  0.37274400  0.10306700  1
  Li  Li5  1  0.74154200  0.16285600  0.34703900  1
  Li  Li6  1  0.25845800  0.83714400  0.65296100  1
  Li  Li7  1  0.72959300  0.62725600  0.89693300  1
  Li  Li8  1  0.08260900  0.88152200  0.90199300  1
  Li  Li9  1  0.58260900  0.11847800  0.59800700  1
  Li  Li10  1  0.22959300  0.37274400  0.60306700  1
  Li  Li11  1  0.75845800  0.16285600  0.84703900  1
  V  V0  1  0.40106200  0.29242200  0.86897700  1
  V  V1  1  0.90106200  0.70757800  0.63102300  1
  V  V2  1  0.09893800  0.29242200  0.36897700  1
  V  V3  1  0.59893800  0.70757800  0.13102300  1
  B  B0  1  0.10629700  0.85470700  0.36402100  1
  B  B1  1  0.56516100  0.61337700  0.63650100  1
  B  B2  1  0.06516100  0.38662300  0.86349900  1
  B  B3  1  0.60629700  0.14529300  0.13597900  1
  B  B4  1  0.39370300  0.85470700  0.86402100  1
  B  B5  1  0.93483900  0.61337700  0.13650100  1
  B  B6  1  0.43483900  0.38662300  0.36349900  1
  B  B7  1  0.89370300  0.14529300  0.63597900  1
  O  O0  1  0.14030900  0.62450400  0.37311700  1
  O  O1  1  0.46687300  0.07271500  0.10317800  1
  O  O2  1  0.71804400  0.94942500  0.18364100  1
  O  O3  1  0.41199800  0.57403900  0.61733500  1
  O  O4  1  0.15530800  0.20034800  0.98613400  1
  O  O5  1  0.61226900  0.45449600  0.79118100  1
  O  O6  1  0.11226900  0.54550400  0.70881900  1
  O  O7  1  0.65530800  0.79965200  0.51386600  1
  O  O8  1  0.21804400  0.05057500  0.31635900  1
  O  O9  1  0.91199800  0.42596100  0.88266500  1
  O  O10  1  0.96687300  0.92728500  0.39682200  1
  O  O11  1  0.64030900  0.37549600  0.12688300  1
  O  O12  1  0.35969100  0.62450400  0.87311700  1
  O  O13  1  0.03312700  0.07271500  0.60317800  1
  O  O14  1  0.08800200  0.57403900  0.11733500  1
  O  O15  1  0.78195600  0.94942500  0.68364100  1
  O  O16  1  0.34469200  0.20034800  0.48613400  1
  O  O17  1  0.88773100  0.45449600  0.29118100  1
  O  O18  1  0.38773100  0.54550400  0.20881900  1
  O  O19  1  0.84469200  0.79965200  0.01386600  1
  O  O20  1  0.58800200  0.42596100  0.38266500  1
  O  O21  1  0.28195600  0.05057500  0.81635900  1
  O  O22  1  0.53312700  0.92728500  0.89682200  1
  O  O23  1  0.85969100  0.37549600  0.62688300  1
loop_
_geom_bond_atom_site_label_1
_geom_bond_atom_site_label_2
_geom_bond_distance
_geom_bond_site_symmetry_2
Li0 O18 1.966388 1_555
Li0 O4 2.009325 1_564
Li0 O0 2.092777 1_555
Li0 O14 2.253384 1_555
Li0 O1 2.307141 1_565
Li1 O2 2.006234 1_555
Li1 O20 2.055518 1_555
Li1 O23 2.133610 1_555
Li1 O17 2.150892 1_555
Li1 O7 2.233007 1_555
Li1 O10 2.484449 1_555
Li2 O3 1.938761 1_555
Li2 O8 1.962274 1_565
Li2 O7 2.303249 1_555
Li2 O16 2.586712 1_565
Li3 O9 1.938761 1_554
Li3 O2 1.962274 1_545
Li3 O4 2.303249 1_654
Li3 O19 2.586712 1_545
Li4 O8 2.006234 1_555
Li4 O14 2.055518 1_555
Li4 O12 2.133610 1_554
Li4 O18 2.150892 1_555
Li4 O4 2.233007 1_554
Li4 O1 2.484449 1_555
Li5 O17 1.966388 1_555
Li5 O7 2.009325 1_545
Li5 O11 2.092777 1_555
Li5 O20 2.253384 1_555
Li5 O10 2.307141 1_545
Li6 O6 1.966388 1_555
Li6 O16 2.009325 1_565
Li6 O12 2.092777 1_555
Li6 O3 2.253384 1_555
Li6 O13 2.307141 1_565
Li7 O15 2.006234 1_555
Li7 O9 2.055518 1_555
Li7 O11 2.133610 1_556
Li7 O5 2.150892 1_555
Li7 O19 2.233007 1_556
Li7 O22 2.484449 1_555
Li8 O14 1.938761 1_556
Li8 O21 1.962274 1_565
Li8 O19 2.303249 1_456
Li8 O4 2.586712 1_565
Li9 O20 1.938761 1_555
Li9 O15 1.962274 1_545
Li9 O16 2.303249 1_555
Li9 O7 2.586712 1_545
Li10 O21 2.006234 1_555
Li10 O3 2.055518 1_555
Li10 O0 2.133610 1_555
Li10 O6 2.150892 1_555
Li10 O16 2.233007 1_555
Li10 O13 2.484449 1_555
Li11 O5 1.966388 1_555
Li11 O19 2.009325 1_546
Li11 O23 2.092777 1_555
Li11 O9 2.253384 1_555
Li11 O22 2.307141 1_545
B0 O0 1.356443 1_555
B0 O8 1.384548 1_565
B0 O10 1.402127 1_455
B1 O7 1.374778 1_555
B1 O5 1.394546 1_555
B1 O3 1.396557 1_555
B2 O4 1.374778 1_555
B2 O6 1.394546 1_555
B2 O9 1.396557 1_455
B3 O11 1.356443 1_555
B3 O2 1.384548 1_545
B3 O1 1.402127 1_555
B4 O12 1.356443 1_555
B4 O21 1.384548 1_565
B4 O22 1.402127 1_555
B5 O19 1.374778 1_555
B5 O17 1.394546 1_555
B5 O14 1.396557 1_655
B6 O16 1.374778 1_555
B6 O18 1.394546 1_555
B6 O20 1.396557 1_555
B7 O23 1.356443 1_555
B7 O15 1.384548 1_545
B7 O13 1.402127 1_655
O0 V2 2.040181 1_555
O1 V0 2.098105 1_554
O1 V3 2.337083 1_545
O2 V3 2.091220 1_555
O3 V0 2.177285 1_555
O4 V0 2.382546 1_555
O5 V0 2.033288 1_555
O6 V1 2.033288 1_455
O7 V1 2.382546 1_555
O8 V2 2.091220 1_555
O9 V1 2.177285 1_555
O10 V1 2.098105 1_555
O10 V2 2.337083 1_665
O11 V3 2.040181 1_555
O12 V0 2.040181 1_555
O13 V2 2.098105 1_555
O13 V1 2.337083 1_445
O14 V2 2.177285 1_555
O15 V1 2.091220 1_555
O16 V2 2.382546 1_555
O17 V2 2.033288 1_655
O18 V3 2.033288 1_555
O19 V3 2.382546 1_555
O20 V3 2.177285 1_555
O21 V0 2.091220 1_555
O22 V3 2.098105 1_556
O22 V0 2.337083 1_565
O23 V1 2.040181 1_555
