# generated using pymatgen
data_FeCo3(PO4)4
_symmetry_space_group_name_H-M   'P 1'
_cell_length_a   5.90717300
_cell_length_b   4.83882700
_cell_length_c   9.82476135
_cell_angle_alpha   89.56026832
_cell_angle_beta   90.00000000
_cell_angle_gamma   90.00000000
_symmetry_Int_Tables_number   1
_chemical_formula_structural   FeCo3(PO4)4
_chemical_formula_sum   'Fe1 Co3 P4 O16'
_cell_volume   280.82062688
_cell_formula_units_Z   1
loop_
 _symmetry_equiv_pos_site_id
 _symmetry_equiv_pos_as_xyz
  1  'x, y, z'
loop_
 _atom_site_type_symbol
 _atom_site_label
 _atom_site_symmetry_multiplicity
 _atom_site_fract_x
 _atom_site_fract_y
 _atom_site_fract_z
 _atom_site_occupancy
  Fe  Fe0  1  0.00000000  0.04344800  0.72310400  1
  Co  Co0  1  0.50000000  0.96974900  0.27017200  1
  Co  Co1  1  0.50000000  0.57073900  0.78540600  1
  Co  Co2  1  0.00000000  0.46809700  0.22980400  1
  P  P0  1  0.00000000  0.90433500  0.40024900  1
  P  P1  1  0.00000000  0.58053000  0.90647200  1
  P  P2  1  0.50000000  0.41077400  0.09602700  1
  P  P3  1  0.50000000  0.09066400  0.59981000  1
  O  O0  1  0.00000000  0.84738500  0.55303800  1
  O  O1  1  0.20418700  0.75937700  0.32845900  1
  O  O2  1  0.79581300  0.75937700  0.32845900  1
  O  O3  1  0.50000000  0.77377800  0.62015800  1
  O  O4  1  0.50000000  0.72572600  0.11885200  1
  O  O5  1  0.20234200  0.73325700  0.83020300  1
  O  O6  1  0.79765800  0.73325700  0.83020300  1
  O  O7  1  0.00000000  0.65449100  0.05785700  1
  O  O8  1  0.50000000  0.34697400  0.94262300  1
  O  O9  1  0.70387400  0.26043700  0.16718400  1
  O  O10  1  0.29612600  0.26043700  0.16718400  1
  O  O11  1  0.00000000  0.27117000  0.88484900  1
  O  O12  1  0.00000000  0.22144100  0.37621000  1
  O  O13  1  0.70547400  0.23627700  0.66976800  1
  O  O14  1  0.29452600  0.23627700  0.66976800  1
  O  O15  1  0.50000000  0.14200200  0.44414200  1
loop_
_geom_bond_atom_site_label_1
_geom_bond_atom_site_label_2
_geom_bond_distance
_geom_bond_site_symmetry_2
Fe0 O0 1.927734 1_545
Fe0 O11 1.940705 1_555
Fe0 O14 2.040749 1_555
Fe0 O13 2.040749 1_455
Fe0 O6 2.182769 1_445
Fe0 O5 2.182769 1_545
Co0 O4 1.905630 1_555
Co0 O15 1.907356 1_565
Co0 O2 2.099688 1_555
Co0 O1 2.099688 1_555
Co0 O10 2.104955 1_565
Co0 O9 2.104955 1_565
Co1 O8 1.879507 1_555
Co1 O3 1.891187 1_555
Co1 O5 1.977149 1_555
Co1 O6 1.977149 1_555
Co1 O13 2.326253 1_555
Co1 O14 2.326253 1_555
Co2 O12 1.862031 1_555
Co2 O7 1.908914 1_555
Co2 O1 2.098056 1_555
Co2 O2 2.098056 1_455
Co2 O9 2.111306 1_455
Co2 O10 2.111306 1_555
O0 P0 1.524119 1_555
O1 P0 1.565858 1_555
O2 P0 1.565858 1_655
O3 P3 1.544812 1_565
O4 P2 1.542110 1_555
O5 P1 1.589908 1_555
O6 P1 1.589908 1_655
O7 P1 1.532441 1_554
O8 P2 1.540770 1_556
O9 P2 1.568601 1_555
O10 P2 1.568601 1_555
O11 P1 1.513552 1_555
O12 P0 1.550698 1_545
O13 P3 1.565100 1_555
O14 P3 1.565100 1_555
O15 P3 1.547561 1_555
