# generated using pymatgen
data_Sm3TaO7
_symmetry_space_group_name_H-M   'P 1'
_cell_length_a   6.55905785
_cell_length_b   6.55905785
_cell_length_c   7.58815085
_cell_angle_alpha   90.00000000
_cell_angle_beta   90.00000000
_cell_angle_gamma   111.13433094
_symmetry_Int_Tables_number   1
_chemical_formula_structural   Sm3TaO7
_chemical_formula_sum   'Sm6 Ta2 O14'
_cell_volume   304.49375613
_cell_formula_units_Z   2
loop_
 _symmetry_equiv_pos_site_id
 _symmetry_equiv_pos_as_xyz
  1  'x, y, z'
loop_
 _atom_site_type_symbol
 _atom_site_label
 _atom_site_symmetry_multiplicity
 _atom_site_fract_x
 _atom_site_fract_y
 _atom_site_fract_z
 _atom_site_occupancy
  Sm  Sm0  1  0.52176384  0.06715646  0.25000000  1
  Sm  Sm1  1  0.93284354  0.47823616  0.75000000  1
  Sm  Sm2  1  0.00000000  -0.00000000  -0.00000000  1
  Sm  Sm3  1  0.00000000  -0.00000000  0.50000000  1
  Sm  Sm4  1  0.47823616  0.93284354  0.75000000  1
  Sm  Sm5  1  0.06715646  0.52176384  0.25000000  1
  Ta  Ta0  1  0.50000000  0.50000000  -0.00000000  1
  Ta  Ta1  1  0.50000000  0.50000000  0.50000000  1
  O  O0  1  0.89205626  0.15484502  0.25000000  1
  O  O1  1  0.84515498  0.10794374  0.75000000  1
  O  O2  1  0.81642228  0.56154517  0.03622473  1
  O  O3  1  0.81642228  0.56154517  0.46377527  1
  O  O4  1  0.43845483  0.18357772  0.96377527  1
  O  O5  1  0.43845483  0.18357772  0.53622473  1
  O  O6  1  0.57463095  0.57463095  0.75000000  1
  O  O7  1  0.42536905  0.42536905  0.25000000  1
  O  O8  1  0.56154517  0.81642228  0.03622473  1
  O  O9  1  0.18357772  0.43845483  0.53622473  1
  O  O10  1  0.18357772  0.43845483  0.96377527  1
  O  O11  1  0.56154517  0.81642228  0.46377527  1
  O  O12  1  0.10794374  0.84515498  0.75000000  1
  O  O13  1  0.15484502  0.89205626  0.25000000  1
loop_
_geom_bond_atom_site_label_1
_geom_bond_atom_site_label_2
_geom_bond_distance
_geom_bond_site_symmetry_2
O0 Sm5 2.262256 1_655
O0 Sm0 2.285255 1_555
O0 Sm2 2.376991 1_655
O0 Sm3 2.376991 1_655
O1 Sm4 2.262256 1_545
O1 Sm1 2.285255 1_555
O1 Sm2 2.376991 1_656
O1 Sm3 2.376991 1_655
O2 Ta0 1.985392 1_555
O2 Sm5 2.390307 1_655
O2 Sm1 2.428951 1_554
O2 Sm2 2.701640 1_665
O3 Ta1 1.985392 1_555
O3 Sm5 2.390307 1_655
O3 Sm1 2.428951 1_555
O3 Sm3 2.701640 1_665
O4 Ta0 1.985392 1_556
O4 Sm4 2.390307 1_545
O4 Sm0 2.428951 1_556
O4 Sm2 2.701640 1_556
O5 Ta1 1.985392 1_555
O5 Sm4 2.390307 1_545
O5 Sm0 2.428951 1_555
O5 Sm3 2.701640 1_555
O6 Ta0 1.976157 1_556
O6 Ta1 1.976157 1_555
O6 Sm4 2.644106 1_555
O6 Sm1 2.644106 1_555
O7 Ta1 1.976157 1_555
O7 Ta0 1.976157 1_555
O7 Sm5 2.644106 1_555
O7 Sm0 2.644106 1_555
O8 Ta0 1.985392 1_555
O8 Sm0 2.390307 1_565
O8 Sm4 2.428951 1_554
O8 Sm2 2.701640 1_665
O9 Ta1 1.985392 1_555
O9 Sm1 2.390307 1_455
O9 Sm5 2.428951 1_555
O9 Sm3 2.701640 1_555
O10 Ta0 1.985392 1_556
O10 Sm1 2.390307 1_455
O10 Sm5 2.428951 1_556
O10 Sm2 2.701640 1_556
O11 Ta1 1.985392 1_555
O11 Sm0 2.390307 1_565
O11 Sm4 2.428951 1_555
O11 Sm3 2.701640 1_665
O12 Sm1 2.262256 1_455
O12 Sm4 2.285255 1_555
O12 Sm3 2.376991 1_565
O12 Sm2 2.376991 1_566
O13 Sm0 2.262256 1_565
O13 Sm5 2.285255 1_555
O13 Sm3 2.376991 1_565
O13 Sm2 2.376991 1_565
