# generated using pymatgen
data_Li2Mn(PO4)2
_symmetry_space_group_name_H-M   'P 1'
_cell_length_a   6.18350694
_cell_length_b   6.18324866
_cell_length_c   9.47497008
_cell_angle_alpha   66.21974573
_cell_angle_beta   113.78215846
_cell_angle_gamma   98.84737579
_symmetry_Int_Tables_number   1
_chemical_formula_structural   Li2Mn(PO4)2
_chemical_formula_sum   'Li4 Mn2 P4 O16'
_cell_volume   303.34365378
_cell_formula_units_Z   2
loop_
 _symmetry_equiv_pos_site_id
 _symmetry_equiv_pos_as_xyz
  1  'x, y, z'
loop_
 _atom_site_type_symbol
 _atom_site_label
 _atom_site_symmetry_multiplicity
 _atom_site_fract_x
 _atom_site_fract_y
 _atom_site_fract_z
 _atom_site_occupancy
  Li  Li0  1  0.32436100  0.61346400  0.49067800  1
  Li  Li1  1  0.61344900  0.32437400  0.00930300  1
  Li  Li2  1  0.38661900  0.67558700  0.99074300  1
  Li  Li3  1  0.67559600  0.38660700  0.50925500  1
  Mn  Mn0  1  0.90442700  0.90439000  0.75000100  1
  Mn  Mn1  1  0.09553300  0.09553400  0.25001400  1
  P  P0  1  0.02196400  0.36309500  0.85708800  1
  P  P1  1  0.63687100  0.97804500  0.35709100  1
  P  P2  1  0.36311600  0.02196200  0.64291900  1
  P  P3  1  0.97803300  0.63688000  0.14290100  1
  O  O0  1  0.22858300  0.92713900  0.76446600  1
  O  O1  1  0.22867300  0.93663600  0.49342900  1
  O  O2  1  0.07299200  0.77131400  0.26451400  1
  O  O3  1  0.59580600  0.86980600  0.75355500  1
  O  O4  1  0.06341100  0.77140000  0.99343200  1
  O  O5  1  0.28386800  0.40722700  0.90964800  1
  O  O6  1  0.13016000  0.40418600  0.25361200  1
  O  O7  1  0.59271100  0.71608500  0.40964500  1
  O  O8  1  0.40727800  0.28386800  0.59039400  1
  O  O9  1  0.86979300  0.59579300  0.74641200  1
  O  O10  1  0.71607400  0.59276900  0.09032500  1
  O  O11  1  0.93664000  0.22870800  0.00657900  1
  O  O12  1  0.40418600  0.13015500  0.24641000  1
  O  O13  1  0.92716200  0.22853900  0.73554900  1
  O  O14  1  0.77140200  0.06340300  0.50657300  1
  O  O15  1  0.77129000  0.07303500  0.23546500  1
loop_
_geom_bond_atom_site_label_1
_geom_bond_atom_site_label_2
_geom_bond_distance
_geom_bond_site_symmetry_2
Li0 O8 1.920097 1_555
Li0 O2 2.013502 1_555
Li0 O7 2.014025 1_555
Li0 O1 2.182184 1_555
Li1 O5 1.919995 1_554
Li1 O15 2.013403 1_555
Li1 O10 2.014133 1_555
Li1 O11 2.182185 1_555
Li2 O10 1.919271 1_556
Li2 O5 2.014365 1_555
Li2 O0 2.014771 1_555
Li2 O4 2.182503 1_555
Li3 O7 1.919435 1_555
Li3 O8 2.014455 1_555
Li3 O13 2.014932 1_555
Li3 O14 2.182358 1_555
Mn0 O9 1.899669 1_555
Mn0 O3 1.899787 1_555
Mn0 O13 1.939903 1_565
Mn0 O0 1.939981 1_655
Mn0 O4 1.962883 1_655
Mn0 O14 1.962884 1_565
Mn1 O6 1.900041 1_555
Mn1 O12 1.900152 1_555
Mn1 O2 1.940265 1_545
Mn1 O15 1.940354 1_455
Mn1 O1 1.962736 1_545
Mn1 O11 1.962888 1_455
O0 P2 1.562117 1_565
O1 P2 1.579160 1_565
O2 P3 1.562083 1_455
O3 P2 1.568071 1_565
O4 P3 1.579295 1_456
O5 P0 1.506118 1_555
O6 P3 1.568029 1_455
O7 P1 1.506421 1_555
O8 P2 1.506126 1_555
O9 P0 1.568157 1_655
O10 P3 1.506405 1_555
O11 P0 1.579168 1_654
O12 P1 1.567938 1_545
O13 P0 1.562107 1_655
O14 P1 1.579281 1_545
O15 P1 1.562168 1_545
