# generated using pymatgen
data_LiCoSiO4
_symmetry_space_group_name_H-M   'P 1'
_cell_length_a   4.68660700
_cell_length_b   6.10365500
_cell_length_c   10.17497600
_cell_angle_alpha   90.00000000
_cell_angle_beta   90.00000000
_cell_angle_gamma   90.00000000
_symmetry_Int_Tables_number   1
_chemical_formula_structural   LiCoSiO4
_chemical_formula_sum   'Li4 Co4 Si4 O16'
_cell_volume   291.05958660
_cell_formula_units_Z   4
loop_
 _symmetry_equiv_pos_site_id
 _symmetry_equiv_pos_as_xyz
  1  'x, y, z'
loop_
 _atom_site_type_symbol
 _atom_site_label
 _atom_site_symmetry_multiplicity
 _atom_site_fract_x
 _atom_site_fract_y
 _atom_site_fract_z
 _atom_site_occupancy
  Li  Li0  1  0.03760000  0.75000000  0.28088600  1
  Li  Li1  1  0.46240000  0.75000000  0.78088600  1
  Li  Li2  1  0.53760000  0.25000000  0.21911400  1
  Li  Li3  1  0.96240000  0.25000000  0.71911400  1
  Co  Co0  1  0.00000000  0.00000000  0.00000000  1
  Co  Co1  1  0.50000000  0.00000000  0.50000000  1
  Co  Co2  1  0.50000000  0.50000000  0.50000000  1
  Co  Co3  1  0.00000000  0.50000000  0.00000000  1
  Si  Si0  1  0.09076100  0.25000000  0.41274400  1
  Si  Si1  1  0.40923900  0.25000000  0.91274400  1
  Si  Si2  1  0.59076100  0.75000000  0.08725600  1
  Si  Si3  1  0.90923900  0.75000000  0.58725600  1
  O  O0  1  0.26620200  0.25000000  0.56030900  1
  O  O1  1  0.23974800  0.02433400  0.35540800  1
  O  O2  1  0.23974800  0.47566600  0.35540800  1
  O  O3  1  0.24753400  0.75000000  0.08888600  1
  O  O4  1  0.25246600  0.75000000  0.58888600  1
  O  O5  1  0.26025200  0.47566600  0.85540800  1
  O  O6  1  0.26025200  0.02433400  0.85540800  1
  O  O7  1  0.23379800  0.25000000  0.06030900  1
  O  O8  1  0.76620200  0.75000000  0.93969100  1
  O  O9  1  0.73974800  0.52433400  0.14459200  1
  O  O10  1  0.73974800  0.97566600  0.14459200  1
  O  O11  1  0.74753400  0.25000000  0.41111400  1
  O  O12  1  0.75246600  0.25000000  0.91111400  1
  O  O13  1  0.76025200  0.97566600  0.64459200  1
  O  O14  1  0.76025200  0.52433400  0.64459200  1
  O  O15  1  0.73379800  0.75000000  0.43969100  1
loop_
_geom_bond_atom_site_label_1
_geom_bond_atom_site_label_2
_geom_bond_distance
_geom_bond_site_symmetry_2
Li0 O2 2.067910 1_555
Li0 O1 2.067910 1_565
Li0 O15 2.153634 1_455
Li0 O3 2.187362 1_555
Li0 O9 2.401865 1_455
Li0 O10 2.401865 1_455
Li1 O6 2.067910 1_565
Li1 O5 2.067910 1_555
Li1 O8 2.153634 1_555
Li1 O4 2.187362 1_555
Li1 O14 2.401865 1_555
Li1 O13 2.401865 1_555
Li2 O10 2.067910 1_545
Li2 O9 2.067910 1_555
Li2 O7 2.153634 1_555
Li2 O11 2.187362 1_555
Li2 O1 2.401865 1_555
Li2 O2 2.401865 1_555
Li3 O14 2.067910 1_555
Li3 O13 2.067910 1_545
Li3 O0 2.153634 1_655
Li3 O12 2.187362 1_555
Li3 O6 2.401865 1_655
Li3 O5 2.401865 1_655
Co0 O10 1.916824 1_445
Co0 O6 1.916824 1_554
Co0 O8 1.976252 1_444
Co0 O7 1.976252 1_555
Co0 O3 2.119480 1_545
Co0 O12 2.119480 1_454
Co1 O1 1.916824 1_555
Co1 O13 1.916824 1_545
Co1 O0 1.976252 1_555
Co1 O15 1.976252 1_545
Co1 O4 2.119480 1_545
Co1 O11 2.119480 1_555
Co2 O2 1.916824 1_555
Co2 O14 1.916824 1_555
Co2 O0 1.976252 1_555
Co2 O15 1.976252 1_555
Co2 O11 2.119480 1_555
Co2 O4 2.119480 1_555
Co3 O9 1.916824 1_455
Co3 O5 1.916824 1_554
Co3 O8 1.976252 1_454
Co3 O7 1.976252 1_555
Co3 O3 2.119480 1_555
Co3 O12 2.119480 1_454
O0 Si0 1.711860 1_555
O1 Si0 1.650784 1_555
O2 Si0 1.650784 1_555
O3 Si2 1.608656 1_555
O4 Si3 1.608656 1_455
O5 Si1 1.650784 1_555
O6 Si1 1.650784 1_555
O7 Si1 1.711860 1_554
O8 Si2 1.711860 1_556
O9 Si2 1.650784 1_555
O10 Si2 1.650784 1_555
O11 Si0 1.608656 1_655
O12 Si1 1.608656 1_555
O13 Si3 1.650784 1_555
O14 Si3 1.650784 1_555
O15 Si3 1.711860 1_555
