# generated using pymatgen
data_Li2VF4
_symmetry_space_group_name_H-M   'P 1'
_cell_length_a   6.09234273
_cell_length_b   6.09234273
_cell_length_c   6.09234273
_cell_angle_alpha   120.95199874
_cell_angle_beta   117.95348480
_cell_angle_gamma   90.96981349
_symmetry_Int_Tables_number   1
_chemical_formula_structural   Li2VF4
_chemical_formula_sum   'Li4 V2 F8'
_cell_volume   161.05861852
_cell_formula_units_Z   2
loop_
 _symmetry_equiv_pos_site_id
 _symmetry_equiv_pos_as_xyz
  1  'x, y, z'
loop_
 _atom_site_type_symbol
 _atom_site_label
 _atom_site_symmetry_multiplicity
 _atom_site_fract_x
 _atom_site_fract_y
 _atom_site_fract_z
 _atom_site_occupancy
  Li  Li0  1  0.88421100  0.13421100  0.75000000  1
  Li  Li1  1  0.50000000  0.00000000  0.00000000  1
  Li  Li2  1  0.11578900  0.86578900  0.25000000  1
  Li  Li3  1  0.50000000  0.50000000  0.50000000  1
  V  V0  1  0.00000000  0.50000000  0.50000000  1
  V  V1  1  0.50000000  0.50000000  0.00000000  1
  F  F0  1  0.25329700  0.26555100  0.51225400  1
  F  F1  1  0.26363000  0.74549100  0.51813900  1
  F  F2  1  0.72735200  0.74549100  0.98186100  1
  F  F3  1  0.25329700  0.74104300  0.98774600  1
  F  F4  1  0.74670300  0.25895700  0.01225400  1
  F  F5  1  0.27264800  0.25450900  0.01813900  1
  F  F6  1  0.73637000  0.25450900  0.48186100  1
  F  F7  1  0.74670300  0.73444900  0.48774600  1
loop_
_geom_bond_atom_site_label_1
_geom_bond_atom_site_label_2
_geom_bond_distance
_geom_bond_site_symmetry_2
F0 Li2 1.964573 1_545
F0 Li3 2.108781 1_555
F0 V1 2.122125 1_556
F0 V0 2.122125 1_555
F1 Li2 1.972686 1_555
F1 Li3 2.091626 1_555
F1 Li1 2.091626 1_566
F1 V0 2.100235 1_555
F2 Li2 1.972686 1_656
F2 Li3 2.091626 1_555
F2 Li1 2.091626 1_566
F2 V1 2.100235 1_556
F3 Li2 1.964573 1_556
F3 Li1 2.108781 1_566
F3 V1 2.122125 1_556
F3 V0 2.122125 1_555
F4 Li0 1.964573 1_554
F4 Li1 2.108781 1_555
F4 V0 2.122125 1_655
F4 V1 2.122125 1_555
F5 Li0 1.972686 1_454
F5 Li1 2.091626 1_555
F5 Li3 2.091626 1_555
F5 V1 2.100235 1_555
F6 Li0 1.972686 1_555
F6 Li3 2.091626 1_555
F6 Li1 2.091626 1_555
F6 V0 2.100235 1_655
F7 Li0 1.964573 1_565
F7 Li3 2.108781 1_555
F7 V0 2.122125 1_655
F7 V1 2.122125 1_555
