# generated using pymatgen
data_NaLi5Ti3Cr3(PO4)9
_symmetry_space_group_name_H-M   'P 1'
_cell_length_a   8.46409900
_cell_length_b   8.91388665
_cell_length_c   20.90153354
_cell_angle_alpha   92.54135452
_cell_angle_beta   89.97141726
_cell_angle_gamma   118.25947999
_symmetry_Int_Tables_number   1
_chemical_formula_structural   NaLi5Ti3Cr3(PO4)9
_chemical_formula_sum   'Na2 Li10 Ti6 Cr6 P18 O72'
_cell_volume   1387.28037509
_cell_formula_units_Z   2
loop_
 _symmetry_equiv_pos_site_id
 _symmetry_equiv_pos_as_xyz
  1  'x, y, z'
loop_
 _atom_site_type_symbol
 _atom_site_label
 _atom_site_symmetry_multiplicity
 _atom_site_fract_x
 _atom_site_fract_y
 _atom_site_fract_z
 _atom_site_occupancy
  Na  Na0  1  0.99965100  0.99866000  0.49868600  1
  Na  Na1  1  0.33831100  0.67044300  0.16634400  1
  Li  Li0  1  0.15183100  0.62761100  0.77482800  1
  Li  Li1  1  0.55903000  0.54290500  0.69174800  1
  Li  Li2  1  0.75784100  0.76840100  0.91686000  1
  Li  Li3  1  0.48655400  0.30312000  0.43929700  1
  Li  Li4  1  0.89962300  0.21657500  0.36105300  1
  Li  Li5  1  0.09840700  0.44098200  0.58091800  1
  Li  Li6  1  0.85645900  0.37805600  0.22375400  1
  Li  Li7  1  0.81598300  0.96490600  0.10665800  1
  Li  Li8  1  0.23232000  0.88768800  0.02487200  1
  Li  Li9  1  0.42515100  0.10004700  0.24781900  1
  Ti  Ti0  1  0.18755800  0.37202100  0.95362300  1
  Ti  Ti1  1  0.47591000  0.95330700  0.88146500  1
  Ti  Ti2  1  0.51823700  0.03859200  0.62053200  1
  Ti  Ti3  1  0.80480900  0.61191200  0.54713800  1
  Ti  Ti4  1  0.86517000  0.72789200  0.78440000  1
  Ti  Ti5  1  0.14713300  0.27552900  0.21564000  1
  Cr  Cr0  1  0.85740100  0.71308300  0.28700900  1
  Cr  Cr1  1  0.14078000  0.28235600  0.71481400  1
  Cr  Cr2  1  0.20116700  0.39997800  0.45022200  1
  Cr  Cr3  1  0.47336700  0.94682100  0.38119900  1
  Cr  Cr4  1  0.53261400  0.06510200  0.11627500  1
  Cr  Cr5  1  0.80797300  0.61634600  0.04774300  1
  P  P0  1  0.90711200  0.09798300  0.84552300  1
  P  P1  1  0.28619000  0.00146000  0.74934200  1
  P  P2  1  0.47498900  0.23944900  0.98909300  1
  P  P3  1  0.85604500  0.42520800  0.67714900  1
  P  P4  1  0.05153300  0.66594000  0.91800700  1
  P  P5  1  0.23993400  0.76311000  0.51234200  1
  P  P6  1  0.42406500  0.57104600  0.82250700  1
  P  P7  1  0.62189200  0.66522800  0.41417500  1
  P  P8  1  0.80897700  0.90716200  0.65439800  1
  P  P9  1  0.18753800  0.08945600  0.34640400  1
  P  P10  1  0.38180500  0.33086400  0.58385600  1
  P  P11  1  0.57875000  0.43397500  0.17995600  1
  P  P12  1  0.75920500  0.23479400  0.48917800  1
  P  P13  1  0.95218900  0.33319500  0.08265100  1
  P  P14  1  0.13936200  0.57029100  0.32108700  1
  P  P15  1  0.52080600  0.75871600  0.01097600  1
  P  P16  1  0.71212800  0.99705600  0.25023400  1
  P  P17  1  0.09251700  0.90051400  0.15580600  1
  O  O0  1  0.38514400  0.72553300  0.82721700  1
  O  O1  1  0.57225600  0.84424100  0.94532400  1
  O  O2  1  0.98576300  0.17770100  0.91220300  1
  O  O3  1  0.23754000  0.82764700  0.92922900  1
  O  O4  1  0.70419400  0.04717800  0.84315900  1
  O  O5  1  0.00354500  0.21675100  0.79344700  1
  O  O6  1  0.40303300  0.96659000  0.70110800  1
  O  O7  1  0.36829400  0.02287100  0.81777600  1
  O  O8  1  0.53238700  0.14223700  0.93791900  1
  O  O9  1  0.70994300  0.24049500  0.66754900  1
  O  O10  1  0.03281200  0.44271400  0.70573700  1
  O  O11  1  0.06338600  0.50614500  0.93386300  1
  O  O12  1  0.27059000  0.15696900  0.73407800  1
  O  O13  1  0.30059300  0.23366300  0.96428400  1
  O  O14  1  0.72538800  0.39351200  0.49401200  1
  O  O15  1  0.62289300  0.42008400  0.99867700  1
  O  O16  1  0.90737600  0.51051700  0.61118700  1
  O  O17  1  0.78697700  0.52178300  0.72417000  1
  O  O18  1  0.98155900  0.64530500  0.84693300  1
  O  O19  1  0.92060800  0.69753600  0.96123800  1
  O  O20  1  0.31949400  0.84883100  0.57857800  1
  O  O21  1  0.56938700  0.49344200  0.59386900  1
  O  O22  1  0.03904000  0.72559600  0.51045700  1
  O  O23  1  0.32497500  0.44718700  0.87440300  1
  O  O24  1  0.33427500  0.88104300  0.45938700  1
  O  O25  1  0.62950700  0.62886600  0.82928400  1
  O  O26  1  0.10050400  0.83302900  0.74709100  1
  O  O27  1  0.36107300  0.49016000  0.75403000  1
  O  O28  1  0.74358900  0.63269000  0.36900500  1
  O  O29  1  0.71056300  0.69534400  0.48383000  1
  O  O30  1  0.86800300  0.81611600  0.60147300  1
  O  O31  1  0.76400300  0.80163000  0.71605700  1
  O  O32  1  0.04949100  0.90531000  0.33720000  1
  O  O33  1  0.91859600  0.92627700  0.83966400  1
  O  O34  1  0.36927800  0.11257500  0.37235800  1
  O  O35  1  0.39576600  0.17335500  0.60211400  1
  O  O36  1  0.60561500  0.82344500  0.40128500  1
  O  O37  1  0.63177900  0.89821300  0.63225000  1
  O  O38  1  0.05773800  0.05998100  0.16206800  1
  O  O39  1  0.95528200  0.08868700  0.66410600  1
  O  O40  1  0.23398700  0.17722600  0.27969600  1
  O  O41  1  0.11301400  0.17882000  0.39405500  1
  O  O42  1  0.30693600  0.29774300  0.51375900  1
  O  O43  1  0.25490200  0.36571500  0.62819600  1
  O  O44  1  0.65224000  0.50968500  0.24644400  1
  O  O45  1  0.89469000  0.17051100  0.25784700  1
  O  O46  1  0.37387500  0.38491700  0.17614800  1
  O  O47  1  0.65374500  0.11111700  0.54053600  1
  O  O48  1  0.67027000  0.55195400  0.12678800  1
  O  O49  1  0.96015700  0.28132700  0.49823700  1
  O  O50  1  0.44102000  0.49656800  0.41347700  1
  O  O51  1  0.69499900  0.15629300  0.42050000  1
  O  O52  1  0.07855600  0.30599600  0.03653400  1
  O  O53  1  0.03486100  0.36684200  0.15323900  1
  O  O54  1  0.20148000  0.47801400  0.26783900  1
  O  O55  1  0.08785700  0.46486100  0.38175100  1
  O  O56  1  0.37799900  0.57201600  0.00100400  1
  O  O57  1  0.24777900  0.59305900  0.51067500  1
  O  O58  1  0.69872700  0.77611600  0.03900800  1
  O  O59  1  0.73077400  0.84555600  0.26885600  1
  O  O60  1  0.93646600  0.49003900  0.06804500  1
  O  O61  1  0.96330500  0.55362100  0.29329300  1
  O  O62  1  0.28596000  0.75234400  0.33016400  1
  O  O63  1  0.44424000  0.84411400  0.05977800  1
  O  O64  1  0.63602800  0.96270500  0.17982900  1
  O  O65  1  0.58383100  0.03203600  0.29412800  1
  O  O66  1  0.99059200  0.77316400  0.20511600  1
  O  O67  1  0.29610800  0.95341800  0.16494900  1
  O  O68  1  0.77489100  0.16212100  0.07975000  1
  O  O69  1  0.03063700  0.82706500  0.08635500  1
  O  O70  1  0.41901400  0.13441400  0.05018900  1
  O  O71  1  0.59883500  0.26625900  0.17728800  1
loop_
_geom_bond_atom_site_label_1
_geom_bond_atom_site_label_2
_geom_bond_distance
_geom_bond_site_symmetry_2
Na0 O22 2.630201 1_655
Na0 O29 2.656209 1_555
Na0 O30 2.663773 1_555
Na0 O41 2.670699 1_665
Na0 O49 2.694476 1_565
Na0 O42 2.707722 1_665
Na1 O64 2.633540 1_555
Na1 O63 2.674168 1_555
Na1 O54 2.687560 1_555
Na1 O53 2.710853 1_555
Na1 O67 2.711223 1_555
Na1 O46 2.717013 1_555
Li0 O10 2.008693 1_555
Li0 O0 2.036140 1_555
Li0 O18 2.136655 1_455
Li0 O26 2.173782 1_555
Li1 O27 2.007296 1_555
Li1 O21 2.084202 1_555
Li1 O17 2.138630 1_555
Li1 O31 2.166798 1_555
Li2 O19 2.008657 1_555
Li2 O1 2.060915 1_555
Li2 O25 2.144363 1_555
Li2 O33 2.195728 1_555
Li3 O34 2.005468 1_555
Li3 O50 2.031083 1_555
Li3 O14 2.102816 1_555
Li3 O42 2.161288 1_555
Li4 O51 2.002024 1_555
Li4 O55 2.049524 1_655
Li4 O41 2.109200 1_655
Li4 O45 2.174627 1_555
Li5 O43 2.020597 1_555
Li5 O57 2.035531 1_555
Li5 O16 2.076549 1_455
Li5 O49 2.141994 1_455
Li6 O61 1.959330 1_555
Li6 O71 2.133015 1_555
Li6 O53 2.142445 1_655
Li6 O45 2.172360 1_555
Li7 O58 2.006287 1_555
Li7 O68 2.048056 1_565
Li7 O38 2.125991 1_665
Li7 O64 2.152081 1_555
Li8 O69 2.010825 1_555
Li8 O3 2.052354 1_554
Li8 O70 2.054423 1_565
Li8 O63 2.141666 1_555
Li9 O65 1.983090 1_555
Li9 O67 2.085860 1_545
Li9 O40 2.132509 1_555
Li9 O71 2.158378 1_555
Cr0 O28 1.957638 1_555
Cr0 O32 1.970855 1_655
Cr0 O44 1.976201 1_555
Cr0 O59 1.981332 1_555
Cr0 O66 1.998813 1_555
Cr0 O61 2.016036 1_555
Cr1 O12 1.954930 1_555
Cr1 O5 1.957700 1_555
Cr1 O39 1.959971 1_455
Cr1 O10 2.043407 1_555
Cr1 O27 2.043534 1_555
Cr1 O43 2.049584 1_555
Cr2 O50 1.963301 1_555
Cr2 O57 1.969539 1_555
Cr2 O55 1.975479 1_555
Cr2 O41 2.055249 1_555
Cr2 O42 2.068003 1_555
Cr2 O49 2.082351 1_455
Cr3 O24 1.957031 1_555
Cr3 O36 1.961073 1_555
Cr3 O62 1.973070 1_555
Cr3 O65 2.052230 1_565
Cr3 O51 2.056450 1_565
Cr3 O34 2.061649 1_565
Cr4 O70 1.963105 1_555
Cr4 O68 1.978278 1_555
Cr4 O71 2.000468 1_555
Cr4 O64 2.056476 1_545
Cr4 O63 2.057585 1_545
Cr4 O67 2.057676 1_545
Cr5 O15 1.952881 1_554
Cr5 O60 1.957766 1_555
Cr5 O48 1.966276 1_555
Cr5 O19 2.040297 1_554
Cr5 O58 2.046177 1_555
Cr5 O69 2.060657 1_655
O0 P6 1.559515 1_555
O0 Ti1 2.077946 1_555
O1 P15 1.559373 1_556
O1 Ti1 2.063650 1_555
O2 P0 1.534832 1_555
O2 Ti0 1.932386 1_655
O3 P4 1.559770 1_555
O3 Ti1 2.068614 1_555
O4 P0 1.555303 1_555
O4 Ti1 1.897775 1_545
O5 P0 1.501610 1_455
O6 P1 1.534071 1_565
O6 Ti2 1.923732 1_565
O7 P1 1.554518 1_555
O7 Ti1 1.896191 1_545
O8 P2 1.564262 1_555
O8 Ti1 1.875916 1_545
O9 P3 1.524266 1_555
O9 Ti2 1.979177 1_555
O10 P3 1.546438 1_455
O11 P4 1.525128 1_555
O11 Ti0 1.984604 1_555
O12 P1 1.501107 1_555
O13 P2 1.541667 1_555
O13 Ti0 1.904723 1_555
O14 P12 1.569885 1_555
O14 Ti3 2.011148 1_555
O15 P2 1.504272 1_555
O16 P3 1.564411 1_555
O16 Ti3 2.052852 1_555
O17 P3 1.565151 1_555
O17 Ti4 2.010618 1_555
O18 P4 1.570024 1_655
O18 Ti4 1.998529 1_555
O19 P4 1.547839 1_655
O20 P5 1.540734 1_555
O20 Ti2 1.906674 1_565
O21 P10 1.568262 1_555
O21 Ti3 2.033901 1_555
O22 P5 1.570083 1_555
O22 Ti3 1.926186 1_455
O23 P6 1.525590 1_555
O23 Ti0 1.975350 1_555
O24 P5 1.508393 1_555
O25 P6 1.566692 1_555
O25 Ti4 2.010550 1_555
O26 P1 1.576657 1_565
O26 Ti4 1.936392 1_455
O27 P6 1.548514 1_555
O28 P7 1.514646 1_555
O29 P7 1.590794 1_555
O29 Ti3 1.894856 1_555
O30 P8 1.560686 1_555
O30 Ti3 1.945386 1_555
O31 P8 1.568018 1_555
O31 Ti4 1.955312 1_555
O32 P9 1.500901 1_565
O33 P0 1.578394 1_565
O33 Ti4 1.930821 1_555
O34 P9 1.547174 1_555
O35 P10 1.528243 1_555
O35 Ti2 1.971381 1_555
O36 P7 1.516020 1_555
O37 P8 1.534358 1_555
O37 Ti2 1.927571 1_565
O38 P17 1.582423 1_545
O38 Ti5 1.987812 1_555
O39 P8 1.505525 1_545
O40 P9 1.586086 1_555
O40 Ti5 1.953420 1_555
O41 P9 1.558593 1_555
O42 P10 1.555880 1_555
O43 P10 1.548742 1_555
O44 P11 1.514536 1_555
O45 P16 1.587356 1_545
O45 Ti5 2.096992 1_655
O46 P11 1.575941 1_555
O46 Ti5 1.900816 1_555
O47 P12 1.528602 1_555
O47 Ti2 1.980143 1_555
O48 P11 1.507438 1_555
O49 P12 1.557619 1_555
O50 P7 1.556534 1_555
O51 P12 1.548282 1_555
O52 P13 1.534838 1_455
O52 Ti0 1.943047 1_554
O53 P13 1.587277 1_455
O53 Ti5 2.023490 1_555
O54 P14 1.587282 1_555
O54 Ti5 1.923381 1_555
O55 P14 1.548604 1_555
O56 P15 1.529300 1_555
O56 Ti0 1.970045 1_554
O57 P5 1.547237 1_555
O58 P15 1.551403 1_555
O59 P16 1.499542 1_555
O60 P13 1.509848 1_555
O61 P14 1.537428 1_655
O62 P14 1.508409 1_555
O63 P15 1.561266 1_555
O64 P16 1.564735 1_555
O65 P16 1.553199 1_545
O66 P17 1.506871 1_655
O67 P17 1.565632 1_555
O68 P13 1.551135 1_555
O69 P17 1.549830 1_555
O70 P2 1.554728 1_554
O71 P11 1.581234 1_555
