# generated using pymatgen
data_Li6Cu2C4SO16
_symmetry_space_group_name_H-M   'P 1'
_cell_length_a   9.35200620
_cell_length_b   9.35200620
_cell_length_c   9.35200620
_cell_angle_alpha   60.00000000
_cell_angle_beta   60.00000000
_cell_angle_gamma   60.00000000
_symmetry_Int_Tables_number   1
_chemical_formula_structural   Li6Cu2C4SO16
_chemical_formula_sum   'Li12 Cu4 C8 S2 O32'
_cell_volume   578.36147954
_cell_formula_units_Z   2
loop_
 _symmetry_equiv_pos_site_id
 _symmetry_equiv_pos_as_xyz
  1  'x, y, z'
loop_
 _atom_site_type_symbol
 _atom_site_label
 _atom_site_symmetry_multiplicity
 _atom_site_fract_x
 _atom_site_fract_y
 _atom_site_fract_z
 _atom_site_occupancy
  Li  Li0  1  0.21965200  0.78034800  0.78034800  1
  Li  Li1  1  0.21965200  0.78034800  0.21965200  1
  Li  Li2  1  0.21965200  0.21965200  0.78034800  1
  Li  Li3  1  0.78034800  0.78034800  0.21965200  1
  Li  Li4  1  0.46965200  0.03034800  0.03034800  1
  Li  Li5  1  0.46965200  0.03034800  0.46965200  1
  Li  Li6  1  0.78034800  0.21965200  0.78034800  1
  Li  Li7  1  0.78034800  0.21965200  0.21965200  1
  Li  Li8  1  0.03034800  0.03034800  0.46965200  1
  Li  Li9  1  0.46965200  0.46965200  0.03034800  1
  Li  Li10  1  0.03034800  0.46965200  0.46965200  1
  Li  Li11  1  0.03034800  0.46965200  0.03034800  1
  Cu  Cu0  1  0.12500000  0.62500000  0.62500000  1
  Cu  Cu1  1  0.62500000  0.62500000  0.12500000  1
  Cu  Cu2  1  0.62500000  0.62500000  0.62500000  1
  Cu  Cu3  1  0.62500000  0.12500000  0.62500000  1
  C  C0  1  0.40084300  0.79747200  0.40084300  1
  C  C1  1  0.40084300  0.40084300  0.40084300  1
  C  C2  1  0.40084300  0.40084300  0.79747200  1
  C  C3  1  0.79747200  0.40084300  0.40084300  1
  C  C4  1  0.45252800  0.84915700  0.84915700  1
  C  C5  1  0.84915700  0.84915700  0.45252800  1
  C  C6  1  0.84915700  0.84915700  0.84915700  1
  C  C7  1  0.84915700  0.45252800  0.84915700  1
  S  S0  1  0.25000000  0.25000000  0.25000000  1
  S  S1  1  0.00000000  0.00000000  0.00000000  1
  O  O0  1  0.18477200  0.44568400  0.18477200  1
  O  O1  1  0.18477200  0.18477200  0.44568400  1
  O  O2  1  0.18477200  0.18477200  0.18477200  1
  O  O3  1  0.44568400  0.18477200  0.18477200  1
  O  O4  1  0.25679400  0.79912800  0.53365200  1
  O  O5  1  0.41042700  0.79912800  0.25679400  1
  O  O6  1  0.25679400  0.53365200  0.41042700  1
  O  O7  1  0.53365200  0.79912800  0.41042700  1
  O  O8  1  0.25679400  0.41042700  0.79912800  1
  O  O9  1  0.41042700  0.53365200  0.79912800  1
  O  O10  1  0.53365200  0.41042700  0.25679400  1
  O  O11  1  0.41042700  0.25679400  0.53365200  1
  O  O12  1  0.79912800  0.53365200  0.25679400  1
  O  O13  1  0.53365200  0.25679400  0.79912800  1
  O  O14  1  0.79912800  0.41042700  0.53365200  1
  O  O15  1  0.45087200  0.99320600  0.83957300  1
  O  O16  1  0.79912800  0.25679400  0.41042700  1
  O  O17  1  0.45087200  0.83957300  0.71634800  1
  O  O18  1  0.71634800  0.99320600  0.45087200  1
  O  O19  1  0.45087200  0.71634800  0.99320600  1
  O  O20  1  0.83957300  0.99320600  0.71634800  1
  O  O21  1  0.71634800  0.83957300  0.99320600  1
  O  O22  1  0.83957300  0.71634800  0.45087200  1
  O  O23  1  0.99320600  0.83957300  0.45087200  1
  O  O24  1  0.71634800  0.45087200  0.83957300  1
  O  O25  1  0.99320600  0.71634800  0.83957300  1
  O  O26  1  0.83957300  0.45087200  0.99320600  1
  O  O27  1  0.99320600  0.45087200  0.71634800  1
  O  O28  1  0.80431600  0.06522800  0.06522800  1
  O  O29  1  0.06522800  0.06522800  0.06522800  1
  O  O30  1  0.06522800  0.06522800  0.80431600  1
  O  O31  1  0.06522800  0.80431600  0.06522800  1
loop_
_geom_bond_atom_site_label_1
_geom_bond_atom_site_label_2
_geom_bond_distance
_geom_bond_site_symmetry_2
Li0 O4 2.080541 1_555
Li0 O9 2.080545 1_555
Li0 O17 2.216481 1_555
Li0 O25 2.216490 1_455
Li0 O31 2.379021 1_556
Li0 O30 2.379021 1_565
Li1 O6 2.080545 1_555
Li1 O5 2.080551 1_555
Li1 O23 2.216484 1_455
Li1 O19 2.216487 1_554
Li1 O29 2.379021 1_565
Li1 O31 2.379021 1_555
Li2 O11 2.080545 1_555
Li2 O8 2.080551 1_555
Li2 O15 2.216484 1_545
Li2 O27 2.216487 1_455
Li2 O30 2.379021 1_555
Li2 O29 2.379021 1_556
Li3 O12 2.080541 1_555
Li3 O7 2.080545 1_555
Li3 O22 2.216481 1_555
Li3 O21 2.216490 1_554
Li3 O28 2.379021 1_565
Li3 O31 2.379021 1_655
Li4 O21 2.080545 1_544
Li4 O15 2.080551 1_544
Li4 O5 2.216484 1_545
Li4 O13 2.216487 1_554
Li4 O2 2.379021 1_555
Li4 O3 2.379021 1_555
Li5 O18 2.080541 1_545
Li5 O17 2.080545 1_545
Li5 O7 2.216481 1_545
Li5 O11 2.216490 1_555
Li5 O1 2.379021 1_555
Li5 O3 2.379021 1_555
Li6 O13 2.080541 1_555
Li6 O14 2.080545 1_555
Li6 O24 2.216481 1_555
Li6 O20 2.216490 1_545
Li6 O30 2.379021 1_655
Li6 O28 2.379021 1_556
Li7 O10 2.080545 1_555
Li7 O16 2.080551 1_555
Li7 O26 2.216484 1_554
Li7 O18 2.216487 1_545
Li7 O28 2.379021 1_555
Li7 O29 2.379021 1_655
Li8 O20 2.080545 1_445
Li8 O23 2.080551 1_445
Li8 O16 2.216484 1_455
Li8 O4 2.216487 1_545
Li8 O1 2.379021 1_555
Li8 O2 2.379021 1_555
Li9 O19 2.080541 1_554
Li9 O24 2.080545 1_554
Li9 O9 2.216481 1_554
Li9 O10 2.216490 1_555
Li9 O0 2.379021 1_555
Li9 O3 2.379021 1_555
Li10 O27 2.080541 1_455
Li10 O22 2.080545 1_455
Li10 O14 2.216481 1_455
Li10 O6 2.216490 1_555
Li10 O0 2.379021 1_555
Li10 O1 2.379021 1_555
Li11 O25 2.080545 1_454
Li11 O26 2.080551 1_454
Li11 O8 2.216484 1_554
Li11 O12 2.216487 1_455
Li11 O2 2.379021 1_555
Li11 O0 2.379021 1_555
Cu0 O6 2.112766 1_555
Cu0 O25 2.112766 1_455
Cu0 O8 2.112771 1_555
Cu0 O23 2.112771 1_455
Cu0 O27 2.112774 1_455
Cu0 O4 2.112774 1_555
Cu1 O10 2.112766 1_555
Cu1 O21 2.112766 1_554
Cu1 O5 2.112771 1_555
Cu1 O26 2.112771 1_554
Cu1 O19 2.112774 1_554
Cu1 O12 2.112774 1_555
Cu2 O14 2.112767 1_555
Cu2 O24 2.112767 1_555
Cu2 O9 2.112767 1_555
Cu2 O22 2.112767 1_555
Cu2 O7 2.112767 1_555
Cu2 O17 2.112767 1_555
Cu3 O20 2.112766 1_545
Cu3 O11 2.112766 1_555
Cu3 O15 2.112771 1_545
Cu3 O16 2.112771 1_555
Cu3 O18 2.112774 1_545
Cu3 O13 2.112774 1_555
C0 O7 1.297251 1_555
C0 O4 1.297251 1_555
C0 O5 1.297251 1_555
C1 O6 1.297251 1_555
C1 O11 1.297251 1_555
C1 O10 1.297251 1_555
C2 O13 1.297251 1_555
C2 O9 1.297251 1_555
C2 O8 1.297251 1_555
C3 O16 1.297251 1_555
C3 O12 1.297251 1_555
C3 O14 1.297251 1_555
C4 O15 1.297251 1_555
C4 O19 1.297251 1_555
C4 O17 1.297251 1_555
C5 O23 1.297251 1_555
C5 O18 1.297251 1_555
C5 O22 1.297251 1_555
C6 O21 1.297251 1_555
C6 O20 1.297251 1_555
C6 O25 1.297251 1_555
C7 O26 1.297251 1_555
C7 O27 1.297251 1_555
C7 O24 1.297251 1_555
O0 S0 1.494220 1_555
O1 S0 1.494220 1_555
O2 S0 1.494220 1_555
O3 S0 1.494220 1_555
O28 S1 1.494220 1_655
O29 S1 1.494220 1_555
O30 S1 1.494220 1_556
O31 S1 1.494220 1_565
