# generated using pymatgen
data_CdP4O11
_symmetry_space_group_name_H-M   'P 1'
_cell_length_a   9.41725043
_cell_length_b   9.44586332
_cell_length_c   10.89425063
_cell_angle_alpha   108.81893070
_cell_angle_beta   108.82798265
_cell_angle_gamma   90.24717645
_symmetry_Int_Tables_number   1
_chemical_formula_structural   CdP4O11
_chemical_formula_sum   'Cd4 P16 O44'
_cell_volume   861.81986453
_cell_formula_units_Z   4
loop_
 _symmetry_equiv_pos_site_id
 _symmetry_equiv_pos_as_xyz
  1  'x, y, z'
loop_
 _atom_site_type_symbol
 _atom_site_label
 _atom_site_symmetry_multiplicity
 _atom_site_fract_x
 _atom_site_fract_y
 _atom_site_fract_z
 _atom_site_occupancy
  Cd  Cd0  1  0.73912316  0.74127820  0.97905785  1
  Cd  Cd1  1  0.22597057  0.76389555  0.48725084  1
  Cd  Cd2  1  0.77402943  0.23610445  0.51274916  1
  Cd  Cd3  1  0.26087684  0.25872180  0.02094215  1
  P  P0  1  0.89115996  0.58627012  0.22862813  1
  P  P1  1  0.76824209  0.91609881  0.60626253  1
  P  P2  1  0.42752588  0.74245665  0.07878688  1
  P  P3  1  0.89724941  0.26742845  0.08829375  1
  P  P4  1  0.74489799  0.58614287  0.43850775  1
  P  P5  1  0.55907234  0.93467045  0.76302679  1
  P  P6  1  0.42104313  0.59132369  0.27792823  1
  P  P7  1  0.91603026  0.06341497  0.25303340  1
  P  P8  1  0.08396974  0.93658503  0.74696660  1
  P  P9  1  0.57895687  0.40867631  0.72207177  1
  P  P10  1  0.44092766  0.06532955  0.23697321  1
  P  P11  1  0.25510201  0.41385713  0.56149225  1
  P  P12  1  0.10275059  0.73257155  0.91170625  1
  P  P13  1  0.57247412  0.25754335  0.92121312  1
  P  P14  1  0.23175791  0.08390119  0.39373747  1
  P  P15  1  0.10884004  0.41372988  0.77137187  1
  O  O0  1  0.82626380  0.91484863  0.19559759  1
  O  O1  1  0.77650308  0.98333886  0.50519623  1
  O  O2  1  0.90985458  0.95674683  0.74160975  1
  O  O3  1  0.77447179  0.58409206  0.09932465  1
  O  O4  1  0.49356177  0.90034535  0.19056944  1
  O  O5  1  0.82231872  0.63716070  0.35168140  1
  O  O6  1  0.90238527  0.40952174  0.21343368  1
  O  O7  1  0.63474325  0.96193869  0.65742716  1
  O  O8  1  0.74141554  0.73816928  0.55231224  1
  O  O9  1  0.97359261  0.74191940  0.95766386  1
  O  O10  1  0.46609698  0.63176634  0.16010129  1
  O  O11  1  0.25024721  0.74080373  0.03691275  1
  O  O12  1  0.67979344  0.91633441  0.88089740  1
  O  O13  1  0.81353059  0.47518721  0.49818891  1
  O  O14  1  0.86135697  0.13578357  0.13276005  1
  O  O15  1  0.57673281  0.53172856  0.34644053  1
  O  O16  1  0.40085965  0.73160805  0.37814616  1
  O  O17  1  0.92727575  0.17660676  0.38692527  1
  O  O18  1  0.51643462  0.29194104  0.03649969  1
  O  O19  1  0.95763938  0.32952008  0.71928633  1
  O  O20  1  0.42271555  0.82538539  0.68535880  1
  O  O21  1  0.69452478  0.54039051  0.78708826  1
  O  O22  1  0.30547522  0.45960949  0.21291174  1
  O  O23  1  0.57728445  0.17461461  0.31464120  1
  O  O24  1  0.04236062  0.67047992  0.28071367  1
  O  O25  1  0.48356538  0.70805896  0.96350031  1
  O  O26  1  0.07272425  0.82339324  0.61307473  1
  O  O27  1  0.59914035  0.26839195  0.62185384  1
  O  O28  1  0.42326719  0.46827144  0.65355947  1
  O  O29  1  0.13864303  0.86421643  0.86723995  1
  O  O30  1  0.18646941  0.52481279  0.50181109  1
  O  O31  1  0.32020656  0.08366559  0.11910260  1
  O  O32  1  0.74975279  0.25919627  0.96308725  1
  O  O33  1  0.53390302  0.36823366  0.83989871  1
  O  O34  1  0.02640739  0.25808060  0.04233614  1
  O  O35  1  0.25858446  0.26183072  0.44768776  1
  O  O36  1  0.36525675  0.03806131  0.34257284  1
  O  O37  1  0.09761473  0.59047826  0.78656632  1
  O  O38  1  0.17768128  0.36283930  0.64831860  1
  O  O39  1  0.50643823  0.09965465  0.80943056  1
  O  O40  1  0.22552821  0.41590794  0.90067535  1
  O  O41  1  0.09014542  0.04325317  0.25839025  1
  O  O42  1  0.22349692  0.01666114  0.49480377  1
  O  O43  1  0.17373620  0.08515137  0.80440241  1
loop_
_geom_bond_atom_site_label_1
_geom_bond_atom_site_label_2
_geom_bond_distance
_geom_bond_site_symmetry_2
Cd0 O12 2.225567 1_555
Cd0 O3 2.238257 1_556
Cd0 O21 2.239824 1_555
Cd0 O0 2.273788 1_556
Cd0 O9 2.294090 1_555
Cd0 O25 2.369610 1_555
Cd1 O24 2.241856 1_555
Cd1 O20 2.242575 1_555
Cd1 O26 2.250416 1_555
Cd1 O16 2.291802 1_555
Cd1 O30 2.350660 1_555
Cd1 O42 2.362809 1_565
Cd2 O19 2.241856 1_555
Cd2 O23 2.242575 1_555
Cd2 O17 2.250416 1_555
Cd2 O27 2.291802 1_555
Cd2 O13 2.350660 1_555
Cd2 O1 2.362809 1_545
Cd3 O31 2.225567 1_555
Cd3 O40 2.238257 1_554
Cd3 O22 2.239824 1_555
Cd3 O43 2.273788 1_554
Cd3 O34 2.294090 1_555
Cd3 O18 2.369610 1_555
O0 P7 1.468789 1_565
O1 P1 1.458690 1_555
O2 P1 1.568816 1_555
O2 P8 1.635954 1_655
O3 P0 1.474541 1_555
O4 P2 1.557384 1_555
O4 P10 1.609362 1_565
O5 P4 1.547497 1_555
O5 P0 1.611333 1_555
O6 P3 1.561661 1_555
O6 P0 1.631093 1_555
O7 P1 1.542728 1_555
O7 P5 1.617524 1_555
O8 P4 1.574289 1_555
O8 P1 1.580256 1_555
O9 P12 1.450297 1_655
O10 P2 1.550174 1_555
O10 P6 1.624861 1_555
O11 P2 1.580857 1_555
O11 P12 1.582310 1_554
O12 P5 1.474553 1_555
O13 P4 1.453675 1_555
O14 P3 1.544637 1_555
O14 P7 1.610804 1_555
O15 P4 1.553476 1_555
O15 P6 1.611051 1_555
O16 P6 1.478783 1_555
O17 P7 1.474855 1_555
O18 P13 1.458608 1_554
O19 P15 1.469591 1_655
O20 P5 1.467733 1_555
O21 P9 1.468434 1_555
O22 P6 1.468434 1_555
O23 P10 1.467733 1_555
O24 P0 1.469591 1_455
O25 P2 1.458608 1_556
O26 P8 1.474855 1_555
O27 P9 1.478783 1_555
O28 P11 1.553476 1_555
O28 P9 1.611051 1_555
O29 P12 1.544637 1_555
O29 P8 1.610804 1_555
O30 P11 1.453675 1_555
O31 P10 1.474553 1_555
O32 P13 1.580857 1_555
O32 P3 1.582310 1_556
O33 P13 1.550174 1_555
O33 P9 1.624861 1_555
O34 P3 1.450297 1_455
O35 P11 1.574289 1_555
O35 P14 1.580256 1_555
O36 P14 1.542728 1_555
O36 P10 1.617524 1_555
O37 P12 1.561661 1_555
O37 P15 1.631093 1_555
O38 P11 1.547497 1_555
O38 P15 1.611333 1_555
O39 P13 1.557384 1_555
O39 P5 1.609362 1_545
O40 P15 1.474541 1_555
O41 P14 1.568816 1_555
O41 P7 1.635954 1_455
O42 P14 1.458690 1_555
O43 P8 1.468789 1_545
