# generated using pymatgen
data_CoOF
_symmetry_space_group_name_H-M   'P 1'
_cell_length_a   2.95773800
_cell_length_b   4.59505700
_cell_length_c   13.59395403
_cell_angle_alpha   87.73229307
_cell_angle_beta   90.00000000
_cell_angle_gamma   90.00000000
_symmetry_Int_Tables_number   1
_chemical_formula_structural   CoOF
_chemical_formula_sum   'Co6 O6 F6'
_cell_volume   184.61039538
_cell_formula_units_Z   6
loop_
 _symmetry_equiv_pos_site_id
 _symmetry_equiv_pos_as_xyz
  1  'x, y, z'
loop_
 _atom_site_type_symbol
 _atom_site_label
 _atom_site_symmetry_multiplicity
 _atom_site_fract_x
 _atom_site_fract_y
 _atom_site_fract_z
 _atom_site_occupancy
  Co  Co0  1  0.00000000  0.00000000  0.00000000  1
  Co  Co1  1  0.00000000  0.94694200  0.32997100  1
  Co  Co2  1  0.00000000  0.05305800  0.67002900  1
  Co  Co3  1  0.50000000  0.40284200  0.16744800  1
  Co  Co4  1  0.50000000  0.50000000  0.50000000  1
  Co  Co5  1  0.50000000  0.59715800  0.83255200  1
  O  O0  1  0.50000000  0.84456000  0.93260400  1
  O  O1  1  0.00000000  0.76618400  0.76854800  1
  O  O2  1  0.00000000  0.67229900  0.43341400  1
  O  O3  1  0.00000000  0.32770100  0.56658600  1
  O  O4  1  0.00000000  0.23381600  0.23145200  1
  O  O5  1  0.50000000  0.15544000  0.06739600  1
  F  F0  1  0.50000000  0.72160200  0.26468400  1
  F  F1  1  0.50000000  0.84387800  0.60190700  1
  F  F2  1  0.00000000  0.62358600  0.10442500  1
  F  F3  1  0.00000000  0.37641400  0.89557500  1
  F  F4  1  0.50000000  0.15612200  0.39809300  1
  F  F5  1  0.50000000  0.27839800  0.73531600  1
loop_
_geom_bond_atom_site_label_1
_geom_bond_atom_site_label_2
_geom_bond_distance
_geom_bond_site_symmetry_2
Co0 O5 1.894303 1_455
Co0 O5 1.894303 1_555
Co0 O0 1.894303 1_444
Co0 O0 1.894303 1_544
Co0 F3 2.193736 1_554
Co0 F2 2.193736 1_545
Co1 O4 1.841622 1_565
Co1 O2 1.851919 1_555
Co1 F4 2.009714 1_465
Co1 F4 2.009714 1_565
Co1 F0 2.029681 1_555
Co1 F0 2.029681 1_455
Co2 O1 1.841622 1_545
Co2 O3 1.851919 1_555
Co2 F1 2.009714 1_545
Co2 F1 2.009714 1_445
Co2 F5 2.029681 1_455
Co2 F5 2.029681 1_555
Co3 O5 1.806824 1_555
Co3 O4 1.869179 1_655
Co3 O4 1.869179 1_555
Co3 F2 1.970061 1_555
Co3 F2 1.970061 1_655
Co3 F0 2.011426 1_555
Co4 O2 1.891162 1_555
Co4 O2 1.891162 1_655
Co4 O3 1.891162 1_555
Co4 O3 1.891162 1_655
Co4 F1 2.142237 1_555
Co4 F4 2.142237 1_555
Co5 O0 1.806824 1_555
Co5 O1 1.869179 1_655
Co5 O1 1.869179 1_555
Co5 F3 1.970061 1_655
Co5 F3 1.970061 1_555
Co5 F5 2.011426 1_555
