# generated using pymatgen
data_Li8MnNi7(PO4)12
_symmetry_space_group_name_H-M   'P 1'
_cell_length_a   8.69402900
_cell_length_b   8.84826223
_cell_length_c   12.31644241
_cell_angle_alpha   89.84955409
_cell_angle_beta   89.92007440
_cell_angle_gamma   89.95932819
_symmetry_Int_Tables_number   1
_chemical_formula_structural   Li8MnNi7(PO4)12
_chemical_formula_sum   'Li8 Mn1 Ni7 P12 O48'
_cell_volume   947.46313734
_cell_formula_units_Z   1
loop_
 _symmetry_equiv_pos_site_id
 _symmetry_equiv_pos_as_xyz
  1  'x, y, z'
loop_
 _atom_site_type_symbol
 _atom_site_label
 _atom_site_symmetry_multiplicity
 _atom_site_fract_x
 _atom_site_fract_y
 _atom_site_fract_z
 _atom_site_occupancy
  Li  Li0  1  0.78278800  0.72112000  0.81274200  1
  Li  Li1  1  0.78296200  0.77638200  0.18953500  1
  Li  Li2  1  0.71523200  0.22388400  0.68515100  1
  Li  Li3  1  0.71993600  0.27675700  0.31373500  1
  Li  Li4  1  0.28080900  0.72292200  0.68541000  1
  Li  Li5  1  0.28698900  0.78362600  0.31479600  1
  Li  Li6  1  0.21921700  0.22350400  0.81350600  1
  Li  Li7  1  0.21685900  0.27867400  0.18323000  1
  Mn  Mn0  1  0.24688800  0.46214600  0.38881600  1
  Ni  Ni0  1  0.74682100  0.96171700  0.38648200  1
  Ni  Ni1  1  0.74810700  0.53818000  0.61422000  1
  Ni  Ni2  1  0.75376600  0.03748500  0.88353300  1
  Ni  Ni3  1  0.75396000  0.46277000  0.11581600  1
  Ni  Ni4  1  0.24759800  0.53835700  0.88555000  1
  Ni  Ni5  1  0.24609500  0.96205700  0.11353000  1
  Ni  Ni6  1  0.25182000  0.03885300  0.61652100  1
  P  P0  1  0.96540100  0.25139200  0.49943000  1
  P  P1  1  0.53703100  0.74980000  0.00203600  1
  P  P2  1  0.46293900  0.25078100  0.99925600  1
  P  P3  1  0.04213400  0.74554700  0.49965700  1
  P  P4  1  0.89435100  0.39105400  0.85164200  1
  P  P5  1  0.89463900  0.10861100  0.14745000  1
  P  P6  1  0.60164700  0.60516200  0.35354900  1
  P  P7  1  0.60518300  0.89031000  0.64769800  1
  P  P8  1  0.39463000  0.11351700  0.35517300  1
  P  P9  1  0.39261000  0.39162400  0.64251700  1
  P  P10  1  0.10687400  0.60719100  0.15399000  1
  P  P11  1  0.10526800  0.89126100  0.85168700  1
  O  O0  1  0.94779800  0.63841600  0.56975700  1
  O  O1  1  0.94333200  0.84672500  0.42672800  1
  O  O2  1  0.92704100  0.89267700  0.84295200  1
  O  O3  1  0.92997600  0.60709100  0.15938300  1
  O  O4  1  0.85737100  0.16719100  0.42006400  1
  O  O5  1  0.85236400  0.33438900  0.57682300  1
  O  O6  1  0.84910400  0.43897700  0.96716200  1
  O  O7  1  0.84881100  0.06244800  0.03180700  1
  O  O8  1  0.83667400  0.23444400  0.81958900  1
  O  O9  1  0.83550800  0.26500000  0.17879900  1
  O  O10  1  0.83152600  0.51273500  0.77292100  1
  O  O11  1  0.83039700  0.98574900  0.22574600  1
  O  O12  1  0.66610400  0.01274800  0.72615000  1
  O  O13  1  0.66533800  0.48556900  0.27433200  1
  O  O14  1  0.64989500  0.76520900  0.32010000  1
  O  O15  1  0.66427600  0.73417700  0.67941500  1
  O  O16  1  0.65322300  0.55997400  0.46640200  1
  O  O17  1  0.65103800  0.93930400  0.53285000  1
  O  O18  1  0.64935600  0.83160200  0.92222800  1
  O  O19  1  0.65292000  0.66829800  0.07898100  1
  O  O20  1  0.57144000  0.11526900  0.34497300  1
  O  O21  1  0.56979300  0.39383900  0.65137400  1
  O  O22  1  0.55937900  0.14400700  0.93013200  1
  O  O23  1  0.55960100  0.35582100  0.06906500  1
  O  O24  1  0.44103900  0.64027900  0.93445400  1
  O  O25  1  0.44185700  0.85890700  0.07015400  1
  O  O26  1  0.42099400  0.59967700  0.34389500  1
  O  O27  1  0.42759300  0.89317700  0.65711100  1
  O  O28  1  0.35033000  0.33409700  0.92143900  1
  O  O29  1  0.35002200  0.16712100  0.07751200  1
  O  O30  1  0.34681700  0.06399100  0.46934000  1
  O  O31  1  0.34619300  0.43480100  0.52500100  1
  O  O32  1  0.33450300  0.23563000  0.67684700  1
  O  O33  1  0.33241500  0.27397700  0.32451600  1
  O  O34  1  0.32870800  0.51420200  0.71975400  1
  O  O35  1  0.32840600  0.99712300  0.27491800  1
  O  O36  1  0.16643700  0.01479900  0.77300500  1
  O  O37  1  0.17253900  0.48490800  0.23582300  1
  O  O38  1  0.16502300  0.73430500  0.82067500  1
  O  O39  1  0.16888600  0.76364900  0.18234000  1
  O  O40  1  0.15695600  0.55320300  0.04085200  1
  O  O41  1  0.14973500  0.93873000  0.96665300  1
  O  O42  1  0.15338600  0.65835800  0.41979700  1
  O  O43  1  0.14984800  0.83211100  0.57635900  1
  O  O44  1  0.07251800  0.10803900  0.15509000  1
  O  O45  1  0.07260600  0.39383300  0.84426700  1
  O  O46  1  0.06042800  0.14523200  0.56860800  1
  O  O47  1  0.05794100  0.36350600  0.42719900  1
loop_
_geom_bond_atom_site_label_1
_geom_bond_atom_site_label_2
_geom_bond_distance
_geom_bond_site_symmetry_2
Li0 O15 1.942950 1_555
Li0 O10 1.955228 1_555
Li0 O2 2.005629 1_555
Li0 O18 2.029959 1_555
Li1 O11 1.951103 1_555
Li1 O14 1.981988 1_555
Li1 O3 2.003557 1_555
Li1 O19 2.014834 1_555
Li2 O8 1.967482 1_555
Li2 O12 1.980686 1_555
Li2 O21 2.007192 1_555
Li2 O5 2.036653 1_555
Li3 O9 1.943845 1_555
Li3 O20 1.963377 1_555
Li3 O13 1.967038 1_555
Li3 O4 2.019570 1_555
Li4 O34 1.938645 1_555
Li4 O38 1.948087 1_555
Li4 O27 2.004540 1_555
Li4 O43 2.007396 1_555
Li5 O39 1.937373 1_555
Li5 O35 1.983710 1_555
Li5 O26 2.032329 1_555
Li5 O42 2.059206 1_555
Li6 O32 1.960515 1_555
Li6 O36 1.968828 1_555
Li6 O28 2.009169 1_555
Li6 O45 2.009619 1_555
Li7 O37 1.975479 1_555
Li7 O44 1.995276 1_555
Li7 O29 2.002722 1_555
Li7 O33 2.010863 1_555
Mn0 O31 1.902349 1_555
Mn0 O47 1.918711 1_555
Mn0 O42 1.954788 1_555
Mn0 O33 1.988901 1_555
Mn0 O37 2.002574 1_555
Mn0 O26 2.018651 1_555
Ni0 O17 1.994192 1_555
Ni0 O1 2.048681 1_555
Ni0 O4 2.099480 1_565
Ni0 O14 2.100784 1_555
Ni0 O20 2.104246 1_565
Ni0 O11 2.118106 1_555
Ni1 O16 2.008572 1_555
Ni1 O0 2.024254 1_555
Ni1 O15 2.046314 1_555
Ni1 O21 2.059526 1_555
Ni1 O5 2.070297 1_555
Ni1 O10 2.097301 1_555
Ni2 O22 2.017862 1_555
Ni2 O7 2.018223 1_556
Ni2 O2 2.039480 1_545
Ni2 O8 2.042049 1_555
Ni2 O18 2.089576 1_545
Ni2 O12 2.095885 1_555
Ni3 O6 2.019470 1_554
Ni3 O23 2.022426 1_555
Ni3 O9 2.039429 1_555
Ni3 O3 2.066175 1_555
Ni3 O19 2.068618 1_555
Ni3 O13 2.108002 1_555
Ni4 O24 2.003077 1_555
Ni4 O38 2.037758 1_555
Ni4 O45 2.053479 1_555
Ni4 O28 2.062577 1_555
Ni4 O40 2.072177 1_556
Ni4 O34 2.170448 1_555
Ni5 O25 2.003227 1_555
Ni5 O41 2.005832 1_554
Ni5 O44 2.050939 1_565
Ni5 O39 2.059883 1_555
Ni5 O29 2.074231 1_565
Ni5 O35 2.137042 1_555
Ni6 O46 2.000153 1_555
Ni6 O30 2.002901 1_555
Ni6 O32 2.027413 1_555
Ni6 O27 2.059773 1_545
Ni6 O36 2.074851 1_555
Ni6 O43 2.094109 1_545
O0 P3 1.520355 1_655
O1 P3 1.530679 1_655
O2 P11 1.553430 1_655
O3 P10 1.539298 1_655
O4 P0 1.549225 1_555
O5 P0 1.553623 1_555
O6 P4 1.536317 1_555
O7 P5 1.535942 1_555
O8 P4 1.527071 1_555
O9 P5 1.526247 1_555
O10 P4 1.546854 1_555
O11 P5 1.554847 1_565
O12 P7 1.547767 1_545
O13 P6 1.543179 1_555
O14 P6 1.532456 1_555
O15 P7 1.523753 1_555
O16 P6 1.513755 1_555
O17 P7 1.530745 1_555
O18 P1 1.561518 1_556
O19 P1 1.559281 1_555
O20 P8 1.542227 1_555
O21 P9 1.544585 1_555
O22 P2 1.523649 1_555
O23 P2 1.522052 1_554
O24 P1 1.528315 1_556
O25 P1 1.523723 1_555
O26 P6 1.576054 1_555
O27 P7 1.548353 1_555
O28 P2 1.555129 1_555
O29 P2 1.560554 1_554
O30 P8 1.528865 1_555
O31 P9 1.549910 1_555
O32 P9 1.528555 1_555
O33 P8 1.564486 1_555
O34 P9 1.546948 1_555
O35 P8 1.541744 1_565
O36 P11 1.552618 1_545
O37 P10 1.583500 1_555
O38 P11 1.531575 1_555
O39 P10 1.527489 1_555
O40 P10 1.536559 1_555
O41 P11 1.528310 1_555
O42 P3 1.580639 1_555
O43 P3 1.537327 1_555
O44 P5 1.549480 1_455
O45 P4 1.552496 1_455
O46 P0 1.512450 1_455
O47 P0 1.554775 1_455
