# generated using pymatgen
data_In5(BiS4)3
_symmetry_space_group_name_H-M   'P 1'
_cell_length_a   16.87289000
_cell_length_b   16.87289000
_cell_length_c   14.56597544
_cell_angle_alpha   89.42697089
_cell_angle_beta   89.42697089
_cell_angle_gamma   13.34558676
_symmetry_Int_Tables_number   1
_chemical_formula_structural   In5(BiS4)3
_chemical_formula_sum   'In10 Bi6 S24'
_cell_volume   957.14426215
_cell_formula_units_Z   2
loop_
 _symmetry_equiv_pos_site_id
 _symmetry_equiv_pos_as_xyz
  1  'x, y, z'
loop_
 _atom_site_type_symbol
 _atom_site_label
 _atom_site_symmetry_multiplicity
 _atom_site_fract_x
 _atom_site_fract_y
 _atom_site_fract_z
 _atom_site_occupancy
  In  In0  1  0.99612800  0.00252100  0.00295300  1
  In  In1  1  0.99791100  0.00341600  0.50296900  1
  In  In2  1  0.78598300  0.77773900  0.41697000  1
  In  In3  1  0.20573800  0.22603500  0.58267600  1
  In  In4  1  0.59659500  0.59917500  0.50017300  1
  In  In5  1  0.40383900  0.39984700  0.49329600  1
  In  In6  1  0.31392200  0.33905600  0.21917600  1
  In  In7  1  0.66864100  0.67561700  0.78174500  1
  In  In8  1  0.05884300  0.08433500  0.27823100  1
  In  In9  1  0.93444000  0.92496800  0.72085500  1
  Bi  Bi0  1  0.85502000  0.87648900  0.98446700  1
  Bi  Bi1  1  0.13410900  0.13644900  0.01799800  1
  Bi  Bi2  1  0.67782600  0.68063800  0.26464300  1
  Bi  Bi3  1  0.31816800  0.32346400  0.73518000  1
  Bi  Bi4  1  0.45685300  0.43895400  0.20819500  1
  Bi  Bi5  1  0.54222900  0.56159200  0.78953600  1
  S  S0  1  0.99911000  0.01223800  0.17878900  1
  S  S1  1  0.99312100  0.99198800  0.81782000  1
  S  S2  1  0.92932000  0.94644700  0.40395900  1
  S  S3  1  0.06629900  0.05633700  0.59602800  1
  S  S4  1  0.87300800  0.89776100  0.18020600  1
  S  S5  1  0.12697100  0.10189100  0.81973900  1
  S  S6  1  0.76604800  0.79034200  0.23988000  1
  S  S7  1  0.23460200  0.21004400  0.76167400  1
  S  S8  1  0.59814200  0.61223400  0.18992000  1
  S  S9  1  0.39357300  0.39603200  0.80952100  1
  S  S10  1  0.53992300  0.52982400  0.39671900  1
  S  S11  1  0.46951200  0.45936900  0.60420000  1
  S  S12  1  0.43450700  0.45823700  0.02657200  1
  S  S13  1  0.56576800  0.54088300  0.97350700  1
  S  S14  1  0.33559100  0.34334400  0.39800200  1
  S  S15  1  0.65684200  0.66919900  0.60006000  1
  S  S16  1  0.20181900  0.18806900  0.14501200  1
  S  S17  1  0.80179100  0.80560500  0.84972100  1
  S  S18  1  0.12931100  0.12663200  0.39739800  1
  S  S19  1  0.86756100  0.87944000  0.60746100  1
  S  S20  1  0.21988700  0.23653600  0.41138600  1
  S  S21  1  0.76016400  0.78468000  0.59106200  1
  S  S22  1  0.30977100  0.32605000  0.03918600  1
  S  S23  1  0.67394900  0.68965000  0.96042600  1
loop_
_geom_bond_atom_site_label_1
_geom_bond_atom_site_label_2
_geom_bond_distance
_geom_bond_site_symmetry_2
In0 S0 2.572218 1_555
In0 S12 2.639682 1_645
In0 S13 2.655484 1_554
In0 S12 2.689702 1_555
In0 S1 2.708489 1_544
In0 S13 2.744545 1_644
In1 S3 2.454942 1_655
In1 S2 2.563046 1_545
In1 S11 2.708663 1_555
In1 S10 2.720140 1_555
In1 S11 2.752718 1_645
In1 S10 2.763891 1_645
In2 S21 2.553124 1_555
In2 S6 2.584437 1_555
In2 S20 2.626410 1_655
In2 S20 2.698293 1_565
In2 S14 2.741463 1_655
In2 S14 2.785963 1_565
In3 S20 2.524876 1_555
In3 S7 2.619831 1_555
In3 S15 2.641589 1_455
In3 S15 2.664597 1_545
In3 S21 2.724319 1_545
In3 S21 2.736199 1_455
In4 S10 2.606893 1_555
In4 S15 2.635792 1_555
In4 S18 2.651650 1_565
In4 S18 2.666854 1_655
In4 S3 2.676811 1_565
In4 S3 2.712593 1_655
In5 S14 2.521205 1_555
In5 S2 2.608494 1_545
In5 S11 2.660825 1_555
In5 S2 2.670013 1_455
In5 S19 2.712728 1_545
In5 S19 2.757340 1_455
In6 S6 2.557106 1_455
In6 S6 2.559631 1_545
In6 S22 2.640383 1_555
In6 S14 2.645385 1_555
In6 S4 2.835039 1_455
In6 S4 2.836072 1_545
In7 S7 2.551726 1_565
In7 S23 2.626061 1_555
In7 S7 2.645028 1_655
In7 S15 2.667043 1_555
In7 S5 2.761540 1_565
In7 S5 2.849386 1_655
In8 S8 2.578867 1_455
In8 S18 2.579406 1_555
In8 S8 2.612631 1_545
In8 S0 2.654061 1_455
In8 S10 2.832943 1_455
In8 S10 2.927937 1_545
In9 S19 2.518163 1_555
In9 S1 2.548073 1_555
In9 S9 2.599775 1_655
In9 S9 2.634821 1_565
In9 S11 2.835806 1_565
In9 S11 2.837625 1_655
Bi0 S22 2.642964 1_566
Bi0 S22 2.658019 1_656
Bi0 S17 2.874345 1_555
Bi0 S4 2.932515 1_556
Bi1 S23 2.617270 1_544
Bi1 S23 2.656226 1_454
Bi1 S16 2.738160 1_555
Bi1 S5 2.978489 1_554
Bi2 S16 2.648215 1_565
Bi2 S16 2.695867 1_655
Bi2 S8 2.720036 1_555
Bi3 S17 2.631748 1_455
Bi3 S17 2.636074 1_545
Bi3 S9 2.715911 1_555
Bi4 S12 2.647789 1_555
Bi4 S0 2.743212 1_555
Bi4 S0 2.828831 1_465
Bi4 S4 2.845604 1_545
Bi4 S4 2.958595 1_455
Bi5 S13 2.682018 1_555
Bi5 S1 2.792700 1_455
Bi5 S5 2.848368 1_565
Bi5 S1 2.848565 1_545
Bi5 S5 2.965899 1_655
