# generated using pymatgen
data_Mn3Cr(PO4)6
_symmetry_space_group_name_H-M   'P 1'
_cell_length_a   8.66490816
_cell_length_b   8.66490816
_cell_length_c   8.66490816
_cell_angle_alpha   58.13087436
_cell_angle_beta   58.13087436
_cell_angle_gamma   58.13086752
_symmetry_Int_Tables_number   1
_chemical_formula_structural   Mn3Cr(PO4)6
_chemical_formula_sum   'Mn3 Cr1 P6 O24'
_cell_volume   440.31050229
_cell_formula_units_Z   1
loop_
 _symmetry_equiv_pos_site_id
 _symmetry_equiv_pos_as_xyz
  1  'x, y, z'
loop_
 _atom_site_type_symbol
 _atom_site_label
 _atom_site_symmetry_multiplicity
 _atom_site_fract_x
 _atom_site_fract_y
 _atom_site_fract_z
 _atom_site_occupancy
  Mn  Mn0  1  0.14413800  0.14413800  0.14413800  1
  Mn  Mn1  1  0.35644800  0.35644800  0.35644800  1
  Mn  Mn2  1  0.64436200  0.64436200  0.64436200  1
  Cr  Cr0  1  0.85761000  0.85761000  0.85761000  1
  P  P0  1  0.03449600  0.46429700  0.74981500  1
  P  P1  1  0.46429700  0.74981500  0.03449600  1
  P  P2  1  0.74981500  0.03449600  0.46429700  1
  P  P3  1  0.25183500  0.96710500  0.53238900  1
  P  P4  1  0.53238900  0.25183500  0.96710500  1
  P  P5  1  0.96710500  0.53238900  0.25183500  1
  O  O0  1  0.14309100  0.51400400  0.27044400  1
  O  O1  1  0.27044400  0.14309100  0.51400400  1
  O  O2  1  0.05802500  0.27988900  0.92723200  1
  O  O3  1  0.51400400  0.27044400  0.14309100  1
  O  O4  1  0.21992100  0.44518000  0.57229800  1
  O  O5  1  0.00655500  0.63822600  0.78107900  1
  O  O6  1  0.27988900  0.92723200  0.05802500  1
  O  O7  1  0.44518000  0.57229800  0.21992100  1
  O  O8  1  0.57229800  0.21992100  0.44518000  1
  O  O9  1  0.22723700  0.98841200  0.35831200  1
  O  O10  1  0.07481600  0.93699300  0.71853400  1
  O  O11  1  0.35831200  0.22723700  0.98841200  1
  O  O12  1  0.63822600  0.78107900  0.00655500  1
  O  O13  1  0.92723200  0.05802500  0.27988900  1
  O  O14  1  0.78107900  0.00655500  0.63822600  1
  O  O15  1  0.42573000  0.77978200  0.56024200  1
  O  O16  1  0.56024200  0.42573000  0.77978200  1
  O  O17  1  0.71853400  0.07481600  0.93699300  1
  O  O18  1  0.98841200  0.35831200  0.22723700  1
  O  O19  1  0.77978200  0.56024200  0.42573000  1
  O  O20  1  0.48619600  0.72562300  0.85968100  1
  O  O21  1  0.93699300  0.71853400  0.07481600  1
  O  O22  1  0.72562300  0.85968100  0.48619600  1
  O  O23  1  0.85968100  0.48619600  0.72562300  1
loop_
_geom_bond_atom_site_label_1
_geom_bond_atom_site_label_2
_geom_bond_distance
_geom_bond_site_symmetry_2
Mn0 O18 1.877236 1_455
Mn0 O9 1.877236 1_545
Mn0 O11 1.877236 1_554
Mn0 O6 1.921551 1_545
Mn0 O2 1.921551 1_554
Mn0 O13 1.921551 1_455
Mn1 O0 1.884744 1_555
Mn1 O3 1.884744 1_555
Mn1 O1 1.884744 1_555
Mn1 O8 1.926224 1_555
Mn1 O4 1.926224 1_555
Mn1 O7 1.926225 1_555
Mn2 O23 1.876995 1_555
Mn2 O20 1.876995 1_555
Mn2 O22 1.876995 1_555
Mn2 O15 1.924745 1_555
Mn2 O19 1.924745 1_555
Mn2 O16 1.924745 1_555
Cr0 O5 1.885660 1_655
Cr0 O14 1.885661 1_565
Cr0 O12 1.885661 1_556
Cr0 O17 1.887934 1_565
Cr0 O21 1.887934 1_556
Cr0 O10 1.887934 1_655
O0 P5 1.533853 1_455
O1 P3 1.533853 1_545
O2 P0 1.533346 1_555
O3 P4 1.533853 1_554
O4 P0 1.534017 1_555
O5 P0 1.542678 1_555
O6 P1 1.533346 1_555
O7 P1 1.534017 1_555
O8 P2 1.534017 1_555
O9 P3 1.535752 1_555
O10 P3 1.545345 1_555
O11 P4 1.535752 1_555
O12 P1 1.542678 1_555
O13 P2 1.533346 1_555
O14 P2 1.542678 1_555
O15 P3 1.533291 1_555
O16 P4 1.533291 1_555
O17 P4 1.545345 1_555
O18 P5 1.535752 1_555
O19 P5 1.533291 1_555
O20 P1 1.537599 1_556
O21 P5 1.545345 1_555
O22 P2 1.537599 1_565
O23 P0 1.537599 1_655
