# generated using pymatgen
data_Li2TiFeO4
_symmetry_space_group_name_H-M   'P 1'
_cell_length_a   4.07592031
_cell_length_b   4.08668874
_cell_length_c   8.73581737
_cell_angle_alpha   89.98641037
_cell_angle_beta   90.00843042
_cell_angle_gamma   89.99532495
_symmetry_Int_Tables_number   1
_chemical_formula_structural   Li2TiFeO4
_chemical_formula_sum   'Li4 Ti2 Fe2 O8'
_cell_volume   145.51265782
_cell_formula_units_Z   2
loop_
 _symmetry_equiv_pos_site_id
 _symmetry_equiv_pos_as_xyz
  1  'x, y, z'
loop_
 _atom_site_type_symbol
 _atom_site_label
 _atom_site_symmetry_multiplicity
 _atom_site_fract_x
 _atom_site_fract_y
 _atom_site_fract_z
 _atom_site_occupancy
  Li  Li0  1  0.50000000  0.99986700  0.24789100  1
  Li  Li1  1  0.49999700  0.99993500  0.75076100  1
  Li  Li2  1  0.99994300  0.00018000  0.00170800  1
  Li  Li3  1  0.50008900  0.50019600  0.50316100  1
  Ti  Ti0  1  0.49999200  0.50235900  0.99888000  1
  Ti  Ti1  1  0.00091400  0.99992600  0.49863900  1
  Fe  Fe0  1  0.99998700  0.49976800  0.25329300  1
  Fe  Fe1  1  0.99999500  0.49991100  0.75171600  1
  O  O0  1  0.49993800  0.99869300  0.99916900  1
  O  O1  1  0.49956300  0.00018000  0.49923300  1
  O  O2  1  0.49997000  0.49944500  0.22776600  1
  O  O3  1  0.99988600  0.99980600  0.26891700  1
  O  O4  1  0.49998400  0.49969600  0.76935800  1
  O  O5  1  0.99991400  0.99998100  0.72925900  1
  O  O6  1  0.99991000  0.49974200  0.99995200  1
  O  O7  1  0.99991700  0.50031400  0.50029200  1
loop_
_geom_bond_atom_site_label_1
_geom_bond_atom_site_label_2
_geom_bond_distance
_geom_bond_site_symmetry_2
Li0 O3 2.045731 1_555
Li0 O3 2.046711 1_455
Li0 O2 2.049134 1_565
Li0 O2 2.052653 1_555
Li0 O0 2.172796 1_554
Li0 O1 2.195679 1_565
Li1 O5 2.046289 1_555
Li1 O5 2.046908 1_455
Li1 O4 2.048857 1_565
Li1 O4 2.050728 1_555
Li1 O0 2.170052 1_555
Li1 O1 2.197303 1_565
Li2 O0 2.038072 1_644
Li2 O0 2.038108 1_544
Li2 O6 2.041608 1_554
Li2 O6 2.045196 1_544
Li2 O3 2.334289 1_545
Li2 O5 2.380065 1_544
Li3 O7 2.037417 1_555
Li3 O7 2.038812 1_455
Li3 O1 2.043560 1_565
Li3 O1 2.043707 1_555
Li3 O4 2.325449 1_555
Li3 O2 2.405803 1_555
Fe0 O3 2.047711 1_545
Fe0 O3 2.048085 1_555
Fe0 O2 2.050089 1_655
Fe0 O2 2.050161 1_555
Fe0 O7 2.157740 1_555
Fe0 O6 2.213141 1_554
Fe1 O4 2.043712 1_655
Fe1 O4 2.043847 1_555
Fe1 O5 2.052502 1_545
Fe1 O5 2.052979 1_555
Fe1 O6 2.168544 1_555
Fe1 O7 2.196394 1_555
O0 Ti0 2.028365 1_555
O0 Ti0 2.058327 1_565
O1 Ti1 2.032460 1_545
O1 Ti1 2.043474 1_645
O2 Ti0 1.999539 1_554
O3 Ti1 2.006813 1_655
O4 Ti0 2.005094 1_555
O5 Ti1 2.014659 1_655
O6 Ti0 2.037673 1_555
O6 Ti0 2.038346 1_655
O7 Ti1 2.041811 1_655
O7 Ti1 2.044988 1_645
