# generated using pymatgen
data_Li3Ti2(NiO4)2
_symmetry_space_group_name_H-M   'P 1'
_cell_length_a   5.92460891
_cell_length_b   5.92460891
_cell_length_c   5.86291345
_cell_angle_alpha   60.57845543
_cell_angle_beta   60.57845543
_cell_angle_gamma   59.39570609
_symmetry_Int_Tables_number   1
_chemical_formula_structural   Li3Ti2(NiO4)2
_chemical_formula_sum   'Li3 Ti2 Ni2 O8'
_cell_volume   146.08445764
_cell_formula_units_Z   1
loop_
 _symmetry_equiv_pos_site_id
 _symmetry_equiv_pos_as_xyz
  1  'x, y, z'
loop_
 _atom_site_type_symbol
 _atom_site_label
 _atom_site_symmetry_multiplicity
 _atom_site_fract_x
 _atom_site_fract_y
 _atom_site_fract_z
 _atom_site_occupancy
  Li  Li0  1  0.50000000  0.00000000  0.00000000  1
  Li  Li1  1  0.50000000  0.50000000  0.50000000  1
  Li  Li2  1  0.00000000  0.50000000  0.00000000  1
  Ti  Ti0  1  0.00000000  0.00000000  0.00000000  1
  Ti  Ti1  1  0.00000000  0.00000000  0.50000000  1
  Ni  Ni0  1  0.00000000  0.50000000  0.50000000  1
  Ni  Ni1  1  0.50000000  0.00000000  0.50000000  1
  O  O0  1  0.76563400  0.76563400  0.24413700  1
  O  O1  1  0.23110400  0.23110400  0.28963600  1
  O  O2  1  0.22197500  0.77406700  0.74826900  1
  O  O3  1  0.77406700  0.22197500  0.74826900  1
  O  O4  1  0.22593300  0.77802500  0.25173100  1
  O  O5  1  0.77802500  0.22593300  0.25173100  1
  O  O6  1  0.76889600  0.76889600  0.71036400  1
  O  O7  1  0.23436600  0.23436600  0.75586300  1
loop_
_geom_bond_atom_site_label_1
_geom_bond_atom_site_label_2
_geom_bond_distance
_geom_bond_site_symmetry_2
Li0 O3 2.111219 1_554
Li0 O4 2.111219 1_545
Li0 O0 2.118735 1_545
Li0 O7 2.118735 1_554
Li0 O1 2.168346 1_555
Li0 O6 2.168346 1_544
Li1 O2 2.170628 1_555
Li1 O3 2.170628 1_555
Li1 O4 2.170628 1_555
Li1 O5 2.170628 1_555
Li1 O0 2.255414 1_555
Li1 O7 2.255414 1_555
Li2 O2 2.111219 1_554
Li2 O5 2.111219 1_455
Li2 O0 2.118735 1_455
Li2 O7 2.118735 1_554
Li2 O1 2.168346 1_555
Li2 O6 2.168346 1_454
Ni0 O6 1.996030 1_455
Ni0 O1 1.996030 1_555
Ni0 O7 2.038882 1_555
Ni0 O0 2.038882 1_455
Ni0 O4 2.144514 1_555
Ni0 O3 2.144514 1_455
Ni1 O6 1.996030 1_545
Ni1 O1 1.996030 1_555
Ni1 O7 2.038882 1_555
Ni1 O0 2.038882 1_545
Ni1 O5 2.144514 1_555
Ni1 O2 2.144514 1_545
O0 Ti0 1.990646 1_665
O1 Ti1 1.965007 1_555
O2 Ti1 1.952955 1_565
O2 Ti0 1.985213 1_566
O3 Ti1 1.952955 1_655
O3 Ti0 1.985213 1_656
O4 Ti1 1.952955 1_565
O4 Ti0 1.985213 1_565
O5 Ti1 1.952955 1_655
O5 Ti0 1.985213 1_655
O6 Ti1 1.965007 1_665
O7 Ti0 1.990646 1_556
