# generated using pymatgen
data_Na2MgH4(SO4)2
_symmetry_space_group_name_H-M   'P 1'
_cell_length_a   7.58842700
_cell_length_b   5.98448232
_cell_length_c   5.24302032
_cell_angle_alpha   106.88703589
_cell_angle_beta   109.38159623
_cell_angle_gamma   100.21999615
_symmetry_Int_Tables_number   1
_chemical_formula_structural   Na2MgH4(SO4)2
_chemical_formula_sum   'Na2 Mg1 H4 S2 O8'
_cell_volume   204.79381881
_cell_formula_units_Z   1
loop_
 _symmetry_equiv_pos_site_id
 _symmetry_equiv_pos_as_xyz
  1  'x, y, z'
loop_
 _atom_site_type_symbol
 _atom_site_label
 _atom_site_symmetry_multiplicity
 _atom_site_fract_x
 _atom_site_fract_y
 _atom_site_fract_z
 _atom_site_occupancy
  Na  Na0  1  0.33948500  0.33226100  0.99909400  1
  Na  Na1  1  0.66051500  0.66773900  0.00090600  1
  Mg  Mg0  1  0.00000000  0.00000000  0.50000000  1
  H  H0  1  0.83313000  0.13466200  0.75782300  1
  H  H1  1  0.16687000  0.86533800  0.24217700  1
  H  H2  1  0.05293200  0.84172900  0.94687800  1
  H  H3  1  0.94706800  0.15827100  0.05312200  1
  S  S0  1  0.33251500  0.34701200  0.39047800  1
  S  S1  1  0.66748500  0.65298800  0.60952200  1
  O  O0  1  0.09463500  0.33974400  0.29708600  1
  O  O1  1  0.90536500  0.66025600  0.70291400  1
  O  O2  1  0.27298200  0.64484400  0.21099800  1
  O  O3  1  0.72701800  0.35515600  0.78900200  1
  O  O4  1  0.59107800  0.25277000  0.31094700  1
  O  O5  1  0.40892200  0.74723000  0.68905300  1
  O  O6  1  0.90536900  0.96925500  0.79601700  1
  O  O7  1  0.09463100  0.03074500  0.20398300  1
loop_
_geom_bond_atom_site_label_1
_geom_bond_atom_site_label_2
_geom_bond_distance
_geom_bond_site_symmetry_2
Na0 S0 2.046921 1_556
Na0 O2 2.118499 1_556
Na0 O4 2.290638 1_556
Na1 S1 2.046921 1_554
Na1 O3 2.118499 1_554
Na1 O5 2.290638 1_554
Mg0 O6 1.953723 1_445
Mg0 O7 1.953723 1_555
H0 O6 1.247123 1_545
H0 O3 1.659937 1_555
H1 O7 1.247123 1_565
H1 O2 1.659937 1_555
H2 O1 1.371220 1_455
H2 O7 1.378689 1_566
H2 O6 1.589987 1_455
H3 O0 1.371220 1_655
H3 O6 1.378689 1_544
H3 O7 1.589987 1_655
O0 S0 1.695074 1_555
O1 S1 1.695074 1_555
O4 S0 2.267337 1_555
O4 S1 2.291237 1_555
O5 S1 2.267337 1_555
O5 S0 2.291237 1_555
