# generated using pymatgen
data_Li2V(PO3)5
_symmetry_space_group_name_H-M   'P 1'
_cell_length_a   9.63395500
_cell_length_b   5.30764200
_cell_length_c   13.31917534
_cell_angle_alpha   71.06522577
_cell_angle_beta   90.00000000
_cell_angle_gamma   90.00000000
_symmetry_Int_Tables_number   1
_chemical_formula_structural   Li2V(PO3)5
_chemical_formula_sum   'Li4 V2 P10 O30'
_cell_volume   644.20421047
_cell_formula_units_Z   2
loop_
 _symmetry_equiv_pos_site_id
 _symmetry_equiv_pos_as_xyz
  1  'x, y, z'
loop_
 _atom_site_type_symbol
 _atom_site_label
 _atom_site_symmetry_multiplicity
 _atom_site_fract_x
 _atom_site_fract_y
 _atom_site_fract_z
 _atom_site_occupancy
  Li  Li0  1  0.60218200  0.93561300  0.93667600  1
  Li  Li1  1  0.39781800  0.93561300  0.43667600  1
  Li  Li2  1  0.59714400  0.05620500  0.57121400  1
  Li  Li3  1  0.40285600  0.05620500  0.07121400  1
  V  V0  1  0.00482900  0.00881800  0.49520500  1
  V  V1  1  0.99517100  0.00881800  0.99520500  1
  P  P0  1  0.47628900  0.51631900  0.86219000  1
  P  P1  1  0.52371100  0.51631900  0.36219000  1
  P  P2  1  0.81631700  0.41518900  0.08465400  1
  P  P3  1  0.51985100  0.47309100  0.14368300  1
  P  P4  1  0.48014900  0.47309100  0.64368300  1
  P  P5  1  0.82420400  0.60127700  0.40805800  1
  P  P6  1  0.01398700  0.01509200  0.74483200  1
  P  P7  1  0.17579600  0.60127700  0.90805800  1
  P  P8  1  0.18368300  0.41518900  0.58465400  1
  P  P9  1  0.98601300  0.01509200  0.24483200  1
  O  O0  1  0.06475300  0.05029100  0.33660200  1
  O  O1  1  0.34255600  0.34703400  0.60612600  1
  O  O2  1  0.41025900  0.71427200  0.34900200  1
  O  O3  1  0.86061800  0.31091500  0.43539900  1
  O  O4  1  0.87927000  0.76554300  0.29065600  1
  O  O5  1  0.05990500  0.97495400  0.15204800  1
  O  O6  1  0.13058200  0.73674500  0.98715300  1
  O  O7  1  0.58974100  0.71427200  0.84900200  1
  O  O8  1  0.50178300  0.75076200  0.06883000  1
  O  O9  1  0.14162500  0.27605600  0.50620600  1
  O  O10  1  0.85837500  0.27605600  0.00620600  1
  O  O11  1  0.65744400  0.34703400  0.10612600  1
  O  O12  1  0.41950300  0.49429000  0.75246300  1
  O  O13  1  0.93524700  0.05029100  0.83660200  1
  O  O14  1  0.66262000  0.64542500  0.39661500  1
  O  O15  1  0.11589300  0.27231200  0.69987900  1
  O  O16  1  0.59328900  0.27467400  0.65882100  1
  O  O17  1  0.88410700  0.27231200  0.19987900  1
  O  O18  1  0.94009500  0.97495400  0.65204800  1
  O  O19  1  0.58049700  0.49429000  0.25246300  1
  O  O20  1  0.15674000  0.71106400  0.55121500  1
  O  O21  1  0.49821700  0.75076200  0.56883000  1
  O  O22  1  0.50660600  0.23865600  0.43687400  1
  O  O23  1  0.86941800  0.73674500  0.48715300  1
  O  O24  1  0.13938200  0.31091500  0.93539900  1
  O  O25  1  0.33738000  0.64542500  0.89661500  1
  O  O26  1  0.40671100  0.27467400  0.15882100  1
  O  O27  1  0.12073000  0.76554300  0.79065600  1
  O  O28  1  0.84326000  0.71106400  0.05121500  1
  O  O29  1  0.49339400  0.23865600  0.93687400  1
loop_
_geom_bond_atom_site_label_1
_geom_bond_atom_site_label_2
_geom_bond_distance
_geom_bond_site_symmetry_2
Li0 O7 1.910095 1_555
Li0 O29 1.920489 1_565
Li0 O8 1.968662 1_556
Li1 O2 1.910095 1_555
Li1 O22 1.920489 1_565
Li1 O21 1.968662 1_555
Li2 O21 1.889700 1_545
Li2 O16 1.893565 1_555
Li2 O22 1.943102 1_555
Li3 O8 1.889700 1_545
Li3 O26 1.893565 1_555
Li3 O29 1.943102 1_554
O0 P9 1.500853 1_455
O0 V0 2.131302 1_555
O1 P8 1.577393 1_555
O1 P4 1.634688 1_555
O2 P1 1.486475 1_555
O3 P5 1.505511 1_555
O3 V0 2.075282 1_655
O4 P5 1.613057 1_555
O4 P9 1.630870 1_565
O5 P9 1.500075 1_465
O5 V1 2.131094 1_464
O6 P7 1.519252 1_555
O6 V1 1.974632 1_465
O7 P0 1.486475 1_555
O8 P3 1.497572 1_555
O9 P8 1.517235 1_555
O9 V0 1.976118 1_555
O10 P2 1.517235 1_555
O10 V1 1.976118 1_554
O11 P2 1.577393 1_555
O11 P3 1.634688 1_555
O12 P4 1.599692 1_555
O12 P0 1.599925 1_555
O13 P6 1.500853 1_655
O13 V1 2.131302 1_555
O14 P5 1.574246 1_555
O14 P1 1.635421 1_555
O15 P8 1.612950 1_555
O15 P6 1.629633 1_555
O16 P4 1.483238 1_555
O17 P2 1.612950 1_555
O17 P9 1.629633 1_555
O18 P6 1.500075 1_665
O18 V0 2.131094 1_665
O19 P3 1.599692 1_555
O19 P1 1.599925 1_555
O20 P8 1.509297 1_555
O20 V0 2.104950 1_565
O21 P4 1.497572 1_555
O22 P1 1.495711 1_555
O23 P5 1.519252 1_555
O23 V0 1.974632 1_665
O24 P7 1.505511 1_555
O24 V1 2.075282 1_455
O25 P7 1.574246 1_555
O25 P0 1.635421 1_555
O26 P3 1.483238 1_555
O27 P7 1.613057 1_555
O27 P6 1.630870 1_565
O28 P2 1.509297 1_555
O28 V1 2.104950 1_564
O29 P0 1.495711 1_555
