# generated using pymatgen
data_Li2V5CuO12
_symmetry_space_group_name_H-M   'P 1'
_cell_length_a   6.88379131
_cell_length_b   6.88379131
_cell_length_c   5.85434801
_cell_angle_alpha   74.35136448
_cell_angle_beta   74.35136448
_cell_angle_gamma   82.38297034
_symmetry_Int_Tables_number   1
_chemical_formula_structural   Li2V5CuO12
_chemical_formula_sum   'Li2 V5 Cu1 O12'
_cell_volume   256.69776323
_cell_formula_units_Z   1
loop_
 _symmetry_equiv_pos_site_id
 _symmetry_equiv_pos_as_xyz
  1  'x, y, z'
loop_
 _atom_site_type_symbol
 _atom_site_label
 _atom_site_symmetry_multiplicity
 _atom_site_fract_x
 _atom_site_fract_y
 _atom_site_fract_z
 _atom_site_occupancy
  Li  Li0  1  0.74921900  0.25078100  0.00000000  1
  Li  Li1  1  0.23758300  0.76241700  0.50000000  1
  V  V0  1  0.08520800  0.91479200  0.00000000  1
  V  V1  1  0.79725300  0.61039900  0.51535900  1
  V  V2  1  0.60817500  0.80606000  0.01937800  1
  V  V3  1  0.38960100  0.20274800  0.48464100  1
  V  V4  1  0.19394000  0.39182500  0.98062200  1
  Cu  Cu0  1  0.90147700  0.09852300  0.50000000  1
  O  O0  1  0.98180000  0.78954800  0.38707600  1
  O  O1  1  0.90547900  0.36974000  0.56355200  1
  O  O2  1  0.80683800  0.97531600  0.92255100  1
  O  O3  1  0.62962600  0.64037400  0.32290900  1
  O  O4  1  0.63026000  0.09452100  0.43644800  1
  O  O5  1  0.66281600  0.63132000  0.81272000  1
  O  O6  1  0.35962600  0.37037400  0.67709100  1
  O  O7  1  0.35263200  0.89534600  0.07054800  1
  O  O8  1  0.36868000  0.33718400  0.18728000  1
  O  O9  1  0.21045200  0.01820000  0.61292400  1
  O  O10  1  0.10465400  0.64736800  0.92945200  1
  O  O11  1  0.02468400  0.19316200  0.07744900  1
loop_
_geom_bond_atom_site_label_1
_geom_bond_atom_site_label_2
_geom_bond_distance
_geom_bond_site_symmetry_2
Li0 O11 2.031272 1_655
Li0 O2 2.031272 1_544
Li0 O4 2.445053 1_555
Li0 O1 2.445053 1_554
Li0 O5 2.609071 1_554
Li0 O8 2.609071 1_555
Li1 O9 2.011560 1_565
Li1 O0 2.011560 1_455
Li1 O10 2.379577 1_555
Li1 O7 2.379577 1_555
Cu0 O4 2.004689 1_555
Cu0 O1 2.004689 1_555
Cu0 O11 2.325606 1_655
Cu0 O2 2.325606 1_545
Cu0 O0 2.348649 1_545
Cu0 O9 2.348649 1_655
O0 V1 1.760602 1_555
O0 V0 2.150264 1_655
O1 V1 1.706799 1_555
O2 V2 1.788000 1_556
O2 V0 2.050929 1_656
O3 V1 1.776594 1_555
O3 V2 1.866504 1_555
O4 V3 1.706801 1_555
O5 V1 1.771595 1_555
O5 V2 1.863268 1_556
O6 V3 1.776589 1_555
O6 V4 1.866504 1_555
O7 V2 1.757945 1_555
O7 V0 1.972915 1_555
O8 V3 1.771593 1_555
O8 V4 1.863268 1_554
O9 V3 1.760607 1_555
O9 V0 2.150264 1_546
O10 V4 1.757945 1_555
O10 V0 1.972915 1_556
O11 V4 1.788000 1_554
O11 V0 2.050929 1_545
