# generated using pymatgen
data_Li5CrP2(O4F)2
_symmetry_space_group_name_H-M   'P 1'
_cell_length_a   10.05718997
_cell_length_b   10.05718997
_cell_length_c   6.50513000
_cell_angle_alpha   90.00000000
_cell_angle_beta   90.00000000
_cell_angle_gamma   119.99999983
_symmetry_Int_Tables_number   1
_chemical_formula_structural   Li5CrP2(O4F)2
_chemical_formula_sum   'Li15 Cr3 P6 O24 F6'
_cell_volume   569.82292795
_cell_formula_units_Z   3
loop_
 _symmetry_equiv_pos_site_id
 _symmetry_equiv_pos_as_xyz
  1  'x, y, z'
loop_
 _atom_site_type_symbol
 _atom_site_label
 _atom_site_symmetry_multiplicity
 _atom_site_fract_x
 _atom_site_fract_y
 _atom_site_fract_z
 _atom_site_occupancy
  Li  Li0  1  0.83422900  0.16768200  0.50349900  1
  Li  Li1  1  0.00000000  0.00000000  0.54697100  1
  Li  Li2  1  0.00000000  0.00000000  0.96628200  1
  Li  Li3  1  0.66666700  0.33333300  0.46303800  1
  Li  Li4  1  0.66666700  0.33333300  0.04452800  1
  Li  Li5  1  0.83231800  0.66654700  0.50349900  1
  Li  Li6  1  0.33345300  0.16577100  0.50349900  1
  Li  Li7  1  0.13428700  0.81618100  0.74142800  1
  Li  Li8  1  0.99027100  0.47326400  0.26781200  1
  Li  Li9  1  0.48299300  0.00972900  0.26781200  1
  Li  Li10  1  0.33333300  0.66666700  0.96704700  1
  Li  Li11  1  0.33333300  0.66666700  0.48658800  1
  Li  Li12  1  0.18381900  0.31810600  0.74142800  1
  Li  Li13  1  0.68189400  0.86571300  0.74142800  1
  Li  Li14  1  0.52673600  0.51700700  0.26781200  1
  Cr  Cr0  1  0.83438600  0.16724800  0.00506800  1
  Cr  Cr1  1  0.83275200  0.66713800  0.00506800  1
  Cr  Cr2  1  0.33286200  0.16561400  0.00506800  1
  P  P0  1  0.70342500  0.85775900  0.26535500  1
  P  P1  1  0.15433400  0.29657500  0.26535500  1
  P  P2  1  0.96413500  0.47771100  0.74536800  1
  P  P3  1  0.14224100  0.84566600  0.26535500  1
  P  P4  1  0.51357500  0.03586500  0.74536800  1
  P  P5  1  0.52228900  0.48642500  0.74536800  1
  O  O0  1  0.68252300  0.06743100  0.76968000  1
  O  O1  1  0.78766500  0.95990800  0.07367800  1
  O  O2  1  0.78514900  0.94590600  0.46250400  1
  O  O3  1  0.98717500  0.26860700  0.23950200  1
  O  O4  1  0.73139300  0.71856700  0.23950200  1
  O  O5  1  0.16075700  0.21485100  0.46250400  1
  O  O6  1  0.17224300  0.21233500  0.07367800  1
  O  O7  1  0.93256900  0.61509200  0.76968000  1
  O  O8  1  0.04009200  0.82775700  0.07367800  1
  O  O9  1  0.05409400  0.83924300  0.46250400  1
  O  O10  1  0.88521600  0.38990500  0.54715300  1
  O  O11  1  0.88021300  0.37457100  0.93594400  1
  O  O12  1  0.28143300  0.01282500  0.23950200  1
  O  O13  1  0.38490800  0.31747700  0.76968000  1
  O  O14  1  0.19620900  0.72717900  0.26538400  1
  O  O15  1  0.13750700  0.53500300  0.74856000  1
  O  O16  1  0.49435800  0.11978700  0.93594400  1
  O  O17  1  0.50468900  0.11478400  0.54715300  1
  O  O18  1  0.39749600  0.86249300  0.74856000  1
  O  O19  1  0.27282100  0.46903000  0.26538400  1
  O  O20  1  0.53097000  0.80379100  0.26538400  1
  O  O21  1  0.46499700  0.60250400  0.74856000  1
  O  O22  1  0.61009500  0.49531100  0.54715300  1
  O  O23  1  0.62542900  0.50564200  0.93594400  1
  F  F0  1  0.69874500  0.17563400  0.22092900  1
  F  F1  1  0.96945300  0.15811300  0.78888900  1
  F  F2  1  0.84188700  0.81134000  0.78888900  1
  F  F3  1  0.82436600  0.52311100  0.22092900  1
  F  F4  1  0.18866000  0.03054700  0.78888900  1
  F  F5  1  0.47688900  0.30125500  0.22092900  1
loop_
_geom_bond_atom_site_label_1
_geom_bond_atom_site_label_2
_geom_bond_distance
_geom_bond_site_symmetry_2
Li0 O2 2.046627 1_545
Li0 O10 2.047559 1_555
Li0 O3 2.187299 1_555
Li0 O0 2.191883 1_555
Li1 O9 2.022718 1_545
Li1 O2 2.022718 1_445
Li1 O5 2.022718 1_555
Li2 O8 2.085649 1_546
Li2 O1 2.085649 1_446
Li2 O6 2.085649 1_556
Li3 O10 2.050296 1_555
Li3 O17 2.050298 1_555
Li3 O22 2.050305 1_555
Li4 O11 2.095881 1_554
Li4 O16 2.095884 1_554
Li4 O23 2.095891 1_554
Li5 O9 2.046627 1_655
Li5 O22 2.047559 1_555
Li5 O4 2.187294 1_555
Li5 O7 2.191883 1_555
Li6 O5 2.046627 1_555
Li6 O17 2.047559 1_555
Li6 O12 2.187300 1_555
Li6 O13 2.191883 1_555
Li7 O7 2.033881 1_455
Li7 O9 2.045363 1_555
Li7 O8 2.385925 1_556
Li7 O18 2.448163 1_555
Li8 O3 2.051168 1_555
Li8 O10 2.058013 1_555
Li8 O14 2.349920 1_655
Li8 O11 2.402567 1_554
Li9 O12 2.051158 1_555
Li9 O17 2.058013 1_555
Li9 O20 2.349920 1_545
Li9 O16 2.402567 1_554
Li10 O18 2.245962 1_555
Li10 O15 2.245963 1_555
Li10 O21 2.245969 1_555
Li10 O14 2.622579 1_556
Li10 O20 2.622584 1_556
Li10 O19 2.622585 1_556
Li11 O14 2.276429 1_555
Li11 O20 2.276435 1_555
Li11 O19 2.276436 1_555
Li11 O18 2.434843 1_555
Li11 O15 2.434844 1_555
Li11 O21 2.434849 1_555
Li12 O13 2.033881 1_555
Li12 O5 2.045363 1_555
Li12 O6 2.385925 1_556
Li12 O15 2.448163 1_555
Li13 O0 2.033881 1_565
Li13 O2 2.045363 1_555
Li13 O1 2.385925 1_556
Li13 O21 2.448163 1_555
Li14 O4 2.051163 1_555
Li14 O22 2.058013 1_555
Li14 O19 2.349920 1_555
Li14 O23 2.402567 1_554
Cr0 O1 1.946397 1_545
Cr0 O11 1.949668 1_554
Cr0 F0 1.988695 1_555
Cr0 F1 1.988989 1_554
Cr0 O0 2.037618 1_554
Cr0 O3 2.039523 1_555
Cr1 O8 1.946397 1_655
Cr1 O23 1.949668 1_554
Cr1 F3 1.988695 1_555
Cr1 F2 1.988989 1_554
Cr1 O7 2.037618 1_554
Cr1 O4 2.039518 1_555
Cr2 O6 1.946397 1_555
Cr2 O16 1.949668 1_554
Cr2 F5 1.988695 1_555
Cr2 F4 1.988989 1_554
Cr2 O13 2.037618 1_554
Cr2 O12 2.039524 1_555
O0 P4 1.572724 1_555
O1 P0 1.567652 1_555
O2 P0 1.541935 1_555
O3 P1 1.568692 1_655
O4 P0 1.568702 1_555
O5 P1 1.541935 1_555
O6 P1 1.567652 1_555
O7 P2 1.572714 1_555
O8 P3 1.567652 1_555
O9 P3 1.541935 1_555
O10 P2 1.539962 1_555
O11 P2 1.565173 1_555
O12 P3 1.568695 1_545
O13 P5 1.572721 1_555
O14 P3 1.536685 1_555
O15 P2 1.538837 1_455
O16 P4 1.565169 1_555
O17 P4 1.539959 1_555
O18 P4 1.538835 1_565
O19 P1 1.536685 1_555
O20 P0 1.536685 1_555
O21 P5 1.538828 1_555
O22 P5 1.539964 1_555
O23 P5 1.565175 1_555
F0 Li9 1.991187 1_555
F0 Li4 2.109018 1_555
F0 Li0 2.313186 1_555
F0 Li3 2.368891 1_555
F1 Li12 1.965554 1_655
F1 Li2 2.107888 1_655
F1 Li0 2.331578 1_555
F1 Li1 2.363920 1_655
F2 Li13 1.965554 1_555
F2 Li2 2.107888 1_665
F2 Li5 2.331578 1_555
F2 Li1 2.363920 1_665
F3 Li8 1.991187 1_555
F3 Li4 2.109023 1_555
F3 Li5 2.313186 1_555
F3 Li3 2.368895 1_555
F4 Li7 1.965554 1_545
F4 Li2 2.107888 1_555
F4 Li6 2.331578 1_555
F4 Li1 2.363920 1_555
F5 Li14 1.991187 1_555
F5 Li4 2.109026 1_555
F5 Li6 2.313186 1_555
F5 Li3 2.368898 1_555
