# generated using pymatgen
data_Li3Mn4(BO3)4
_symmetry_space_group_name_H-M   'P 1'
_cell_length_a   9.09230200
_cell_length_b   5.28847000
_cell_length_c   11.57125916
_cell_angle_alpha   63.64511624
_cell_angle_beta   90.00000000
_cell_angle_gamma   90.00000000
_symmetry_Int_Tables_number   1
_chemical_formula_structural   Li3Mn4(BO3)4
_chemical_formula_sum   'Li6 Mn8 B8 O24'
_cell_volume   498.56568573
_cell_formula_units_Z   2
loop_
 _symmetry_equiv_pos_site_id
 _symmetry_equiv_pos_as_xyz
  1  'x, y, z'
loop_
 _atom_site_type_symbol
 _atom_site_label
 _atom_site_symmetry_multiplicity
 _atom_site_fract_x
 _atom_site_fract_y
 _atom_site_fract_z
 _atom_site_occupancy
  Li  Li0  1  0.23102900  0.51379000  0.34195500  1
  Li  Li1  1  0.26385300  0.01523800  0.81936400  1
  Li  Li2  1  0.74072300  0.56674200  0.08978100  1
  Li  Li3  1  0.76897100  0.51379000  0.84195500  1
  Li  Li4  1  0.73614700  0.01523800  0.31936400  1
  Li  Li5  1  0.25927700  0.56674200  0.58978100  1
  Mn  Mn0  1  0.88832200  0.46008400  0.37887700  1
  Mn  Mn1  1  0.58029100  0.98235300  0.86458100  1
  Mn  Mn2  1  0.39866400  0.55913900  0.11503800  1
  Mn  Mn3  1  0.06267300  0.02319600  0.62120800  1
  Mn  Mn4  1  0.41970900  0.98235300  0.36458100  1
  Mn  Mn5  1  0.11167800  0.46008400  0.87887700  1
  Mn  Mn6  1  0.60133600  0.55913900  0.61503800  1
  Mn  Mn7  1  0.93732700  0.02319600  0.12120800  1
  B  B0  1  0.57168100  0.46432000  0.36909500  1
  B  B1  1  0.92483100  0.94765600  0.87829100  1
  B  B2  1  0.06145400  0.53458200  0.13406600  1
  B  B3  1  0.41411900  0.04896500  0.61985500  1
  B  B4  1  0.07516900  0.94765600  0.37829100  1
  B  B5  1  0.42831900  0.46432000  0.86909500  1
  B  B6  1  0.58588100  0.04896500  0.11985500  1
  B  B7  1  0.93854600  0.53458200  0.63406600  1
  O  O0  1  0.94366900  0.36417400  0.57129200  1
  O  O1  1  0.57472700  0.84219600  0.07592000  1
  O  O2  1  0.18808800  0.62963900  0.15982400  1
  O  O3  1  0.53596900  0.13971300  0.66289100  1
  O  O4  1  0.92494500  0.61159500  0.16841100  1
  O  O5  1  0.27717900  0.15952100  0.62624100  1
  O  O6  1  0.43212400  0.40847800  0.33758300  1
  O  O7  1  0.04860500  0.89913100  0.81610000  1
  O  O8  1  0.79582800  0.80939900  0.89270200  1
  O  O9  1  0.68961000  0.30917800  0.36359600  1
  O  O10  1  0.40573700  0.68392700  0.90472900  1
  O  O11  1  0.05516000  0.14432500  0.42827600  1
  O  O12  1  0.05633100  0.36417400  0.07129200  1
  O  O13  1  0.42527300  0.84219600  0.57592000  1
  O  O14  1  0.46403100  0.13971300  0.16289100  1
  O  O15  1  0.72282100  0.15952100  0.12624100  1
  O  O16  1  0.81191200  0.62963900  0.65982400  1
  O  O17  1  0.07505500  0.61159500  0.66841100  1
  O  O18  1  0.56787600  0.40847800  0.83758300  1
  O  O19  1  0.95139500  0.89913100  0.31610000  1
  O  O20  1  0.20417200  0.80939900  0.39270200  1
  O  O21  1  0.31039000  0.30917800  0.86359600  1
  O  O22  1  0.59426300  0.68392700  0.40472900  1
  O  O23  1  0.94484000  0.14432500  0.92827600  1
loop_
_geom_bond_atom_site_label_1
_geom_bond_atom_site_label_2
_geom_bond_distance
_geom_bond_site_symmetry_2
Li0 O20 1.914016 1_555
Li0 O6 1.918558 1_555
Li0 O2 1.955224 1_555
Li0 O11 2.374788 1_555
Li1 O21 1.887815 1_555
Li1 O5 2.019099 1_555
Li1 O10 2.042857 1_545
Li1 O7 2.056523 1_545
Li2 O4 1.970111 1_555
Li2 O15 2.008903 1_555
Li2 O1 2.053847 1_555
Li2 O8 2.121325 1_554
Li3 O8 1.914016 1_555
Li3 O18 1.918558 1_555
Li3 O16 1.955224 1_555
Li3 O23 2.374788 1_555
Li4 O9 1.887815 1_555
Li4 O15 2.019099 1_555
Li4 O22 2.042857 1_545
Li4 O19 2.056523 1_545
Li5 O17 1.970111 1_555
Li5 O5 2.008903 1_555
Li5 O13 2.053847 1_555
Li5 O20 2.121325 1_555
Mn0 O9 2.014398 1_555
Mn0 O0 2.113072 1_555
Mn0 O11 2.137493 1_655
Mn0 O19 2.179497 1_555
Mn0 O4 2.225159 1_555
Mn1 O8 2.125740 1_555
Mn1 O18 2.136295 1_565
Mn1 O10 2.138809 1_555
Mn1 O3 2.139444 1_565
Mn1 O1 2.218757 1_556
Mn2 O2 2.060313 1_555
Mn2 O1 2.099222 1_555
Mn2 O14 2.118825 1_555
Mn2 O10 2.221684 1_554
Mn2 O6 2.353078 1_555
Mn3 O0 1.957384 1_455
Mn3 O17 1.998399 1_545
Mn3 O11 2.032045 1_555
Mn3 O7 2.053977 1_545
Mn3 O5 2.089095 1_555
Mn4 O20 2.125740 1_555
Mn4 O6 2.136295 1_565
Mn4 O22 2.138809 1_555
Mn4 O14 2.139444 1_565
Mn4 O13 2.218757 1_555
Mn5 O21 2.014398 1_555
Mn5 O12 2.113072 1_556
Mn5 O23 2.137493 1_455
Mn5 O7 2.179497 1_555
Mn5 O17 2.225159 1_555
Mn6 O16 2.060313 1_555
Mn6 O13 2.099222 1_555
Mn6 O3 2.118825 1_555
Mn6 O22 2.221684 1_555
Mn6 O18 2.353078 1_555
Mn7 O12 1.957384 1_655
Mn7 O4 1.998399 1_545
Mn7 O23 2.032045 1_554
Mn7 O19 2.053977 1_545
Mn7 O15 2.089095 1_555
B0 O9 1.368676 1_555
B0 O6 1.387758 1_555
B0 O22 1.409312 1_555
B1 O8 1.352751 1_555
B1 O23 1.408369 1_565
B1 O7 1.419221 1_655
B2 O2 1.341748 1_555
B2 O12 1.386775 1_555
B2 O4 1.417059 1_455
B3 O3 1.384894 1_555
B3 O5 1.391379 1_555
B3 O13 1.399298 1_545
B4 O20 1.352751 1_555
B4 O11 1.408369 1_565
B4 O19 1.419221 1_455
B5 O21 1.368676 1_555
B5 O18 1.387758 1_555
B5 O10 1.409312 1_555
B6 O14 1.384894 1_555
B6 O15 1.391379 1_555
B6 O1 1.399298 1_545
B7 O16 1.341748 1_555
B7 O0 1.386775 1_555
B7 O17 1.417059 1_655
