# generated using pymatgen
data_Na2CoO3
_symmetry_space_group_name_H-M   'P 1'
_cell_length_a   5.34032146
_cell_length_b   5.34032146
_cell_length_c   10.93157643
_cell_angle_alpha   84.89505186
_cell_angle_beta   84.89505186
_cell_angle_gamma   120.38901346
_symmetry_Int_Tables_number   1
_chemical_formula_structural   Na2CoO3
_chemical_formula_sum   'Na8 Co4 O12'
_cell_volume   264.58167808
_cell_formula_units_Z   4
loop_
 _symmetry_equiv_pos_site_id
 _symmetry_equiv_pos_as_xyz
  1  'x, y, z'
loop_
 _atom_site_type_symbol
 _atom_site_label
 _atom_site_symmetry_multiplicity
 _atom_site_fract_x
 _atom_site_fract_y
 _atom_site_fract_z
 _atom_site_occupancy
  Na  Na0  1  0.84179400  0.68380900  0.99966300  1
  Na  Na1  1  0.00000000  0.50000000  0.50000000  1
  Na  Na2  1  0.91403500  0.08596500  0.75000000  1
  Na  Na3  1  0.50000000  0.00000000  0.00000000  1
  Na  Na4  1  0.31619100  0.15820600  0.50033700  1
  Na  Na5  1  0.68380900  0.84179400  0.49966300  1
  Na  Na6  1  0.08596500  0.91403500  0.25000000  1
  Na  Na7  1  0.15820600  0.31619100  0.00033700  1
  Co  Co0  1  0.74751400  0.25248600  0.25000000  1
  Co  Co1  1  0.58372600  0.41627400  0.75000000  1
  Co  Co2  1  0.41627400  0.58372600  0.25000000  1
  Co  Co3  1  0.25248600  0.74751400  0.75000000  1
  O  O0  1  0.94201300  0.73715800  0.64921900  1
  O  O1  1  0.67582400  0.48849800  0.34908900  1
  O  O2  1  0.87947100  0.43709000  0.85047500  1
  O  O3  1  0.51150200  0.32417600  0.15091100  1
  O  O4  1  0.73715800  0.94201300  0.14921900  1
  O  O5  1  0.43709000  0.87947100  0.35047500  1
  O  O6  1  0.56291000  0.12052900  0.64952500  1
  O  O7  1  0.26284200  0.05798700  0.85078100  1
  O  O8  1  0.48849800  0.67582400  0.84908900  1
  O  O9  1  0.12052900  0.56291000  0.14952500  1
  O  O10  1  0.32417600  0.51150200  0.65091100  1
  O  O11  1  0.05798700  0.26284200  0.35078100  1
loop_
_geom_bond_atom_site_label_1
_geom_bond_atom_site_label_2
_geom_bond_distance
_geom_bond_site_symmetry_2
Na0 O3 2.240974 1_556
Na0 O2 2.242401 1_555
Na0 O4 2.429936 1_556
Na0 O7 2.433475 1_665
Na0 O9 2.556257 1_656
Na0 O8 2.598965 1_555
Na1 O0 2.243944 1_455
Na1 O11 2.243944 1_555
Na1 O1 2.478110 1_455
Na1 O10 2.478110 1_555
Na1 O6 2.484490 1_455
Na1 O5 2.484490 1_555
Na2 O10 2.288846 1_655
Na2 O8 2.288846 1_545
Na2 O7 2.307240 1_655
Na2 O0 2.307240 1_545
Na2 O6 2.331767 1_555
Na2 O2 2.331767 1_555
Na3 O4 2.243944 1_545
Na3 O7 2.243944 1_554
Na3 O8 2.478110 1_544
Na3 O3 2.478110 1_555
Na3 O9 2.484490 1_545
Na3 O2 2.484490 1_554
Na4 O1 2.240974 1_555
Na4 O6 2.242401 1_555
Na4 O11 2.429936 1_555
Na4 O0 2.433475 1_445
Na4 O5 2.556257 1_545
Na4 O10 2.598965 1_555
Na5 O10 2.240974 1_555
Na5 O5 2.242401 1_555
Na5 O0 2.429936 1_555
Na5 O11 2.433475 1_665
Na5 O6 2.556257 1_565
Na5 O1 2.598965 1_555
Na6 O3 2.288846 1_565
Na6 O1 2.288846 1_455
Na6 O4 2.307240 1_455
Na6 O11 2.307240 1_565
Na6 O9 2.331767 1_555
Na6 O5 2.331767 1_555
Na7 O8 2.240974 1_554
Na7 O9 2.242401 1_555
Na7 O7 2.429936 1_554
Na7 O4 2.433475 1_445
Na7 O2 2.556257 1_454
Na7 O3 2.598965 1_555
Co0 O1 1.888334 1_555
Co0 O3 1.888334 1_555
Co0 O9 1.966785 1_655
Co0 O5 1.966785 1_545
Co0 O11 2.051580 1_655
Co0 O4 2.051580 1_545
Co1 O7 1.944952 1_555
Co1 O0 1.944952 1_555
Co1 O6 1.966204 1_555
Co1 O2 1.966204 1_555
Co1 O8 2.058028 1_555
Co1 O10 2.058028 1_555
Co2 O11 1.944952 1_555
Co2 O4 1.944952 1_555
Co2 O5 1.966204 1_555
Co2 O9 1.966204 1_555
Co2 O1 2.058028 1_555
Co2 O3 2.058028 1_555
Co3 O8 1.888334 1_555
Co3 O10 1.888334 1_555
Co3 O6 1.966785 1_565
Co3 O2 1.966785 1_455
Co3 O7 2.051580 1_565
Co3 O0 2.051580 1_455
