# generated using pymatgen
data_Li3V6O16
_symmetry_space_group_name_H-M   'P 1'
_cell_length_a   3.59447688
_cell_length_b   6.65574532
_cell_length_c   11.79569204
_cell_angle_alpha   75.27392455
_cell_angle_beta   90.00000000
_cell_angle_gamma   90.00000000
_symmetry_Int_Tables_number   1
_chemical_formula_structural   Li3V6O16
_chemical_formula_sum   'Li3 V6 O16'
_cell_volume   272.92959117
_cell_formula_units_Z   1
loop_
 _symmetry_equiv_pos_site_id
 _symmetry_equiv_pos_as_xyz
  1  'x, y, z'
loop_
 _atom_site_type_symbol
 _atom_site_label
 _atom_site_symmetry_multiplicity
 _atom_site_fract_x
 _atom_site_fract_y
 _atom_site_fract_z
 _atom_site_occupancy
  Li  Li0  1  0.50000000  0.81328388  0.67999452  1
  Li  Li1  1  0.00000000  0.18792212  0.32172816  1
  Li  Li2  1  0.50000000  0.52675133  0.05077812  1
  V  V0  1  0.50000000  0.26508881  0.80240015  1
  V  V1  1  0.00000000  0.69589374  0.46428115  1
  V  V2  1  0.50000000  0.11944528  0.08099541  1
  V  V3  1  -0.00000000  0.87561250  0.91633693  1
  V  V4  1  0.50000000  0.30609794  0.53643591  1
  V  V5  1  0.00000000  0.73738474  0.19993499  1
  O  O0  1  0.00000000  0.17983922  0.82678954  1
  O  O1  1  0.50000000  0.32552858  0.95461627  1
  O  O2  1  0.50000000  0.61041692  0.46042855  1
  O  O3  1  0.50000000  0.49956578  0.71958850  1
  O  O4  1  0.00000000  0.87707115  0.32828801  1
  O  O5  1  0.00000000  0.82512087  0.56406794  1
  O  O6  1  0.00000000  0.04606546  0.07308014  1
  O  O7  1  0.00000000  0.76563391  0.80884501  1
  O  O8  1  0.50000000  0.24912984  0.18200215  1
  O  O9  1  0.50000000  0.94190558  0.92968134  1
  O  O10  1  0.50000000  0.17816758  0.43572301  1
  O  O11  1  0.50000000  0.12569174  0.67182556  1
  O  O12  1  0.00000000  0.50079391  0.28188464  1
  O  O13  1  -0.00000000  0.39231973  0.54032434  1
  O  O14  1  0.00000000  0.66390991  0.04663327  1
  O  O15  1  0.50000000  0.81418550  0.17350638  1
loop_
_geom_bond_atom_site_label_1
_geom_bond_atom_site_label_2
_geom_bond_distance
_geom_bond_site_symmetry_2
Li0 O3 2.020446 1_555
Li0 O11 2.056925 1_565
Li0 O5 2.247527 1_655
Li0 O5 2.247527 1_555
Li0 O7 2.322849 1_555
Li0 O7 2.322849 1_655
Li1 O12 2.014867 1_555
Li1 O4 2.050642 1_545
Li1 O10 2.235616 1_455
Li1 O10 2.235616 1_555
Li1 O8 2.402316 1_455
Li1 O8 2.402316 1_555
Li2 O1 1.962816 1_554
Li2 O14 2.010756 1_555
Li2 O14 2.010756 1_655
Li2 O8 2.087134 1_555
O0 V0 1.884618 1_455
O0 V0 1.884618 1_555
O0 V3 2.031845 1_545
O1 V2 1.750465 1_556
O1 V0 1.937221 1_555
O2 V1 1.889163 1_555
O2 V1 1.889163 1_655
O2 V4 1.995776 1_555
O3 V0 1.617000 1_555
O4 V1 1.744688 1_555
O4 V5 1.967798 1_555
O5 V1 1.624785 1_555
O6 V2 1.870962 1_555
O6 V2 1.870962 1_455
O6 V5 2.212934 1_545
O6 V3 2.402472 1_544
O7 V3 1.617200 1_555
O8 V2 1.639327 1_555
O9 V3 1.866772 1_555
O9 V3 1.866772 1_655
O9 V0 2.288922 1_565
O9 V2 2.377872 1_566
O10 V4 1.628053 1_555
O11 V4 1.737046 1_555
O11 V0 1.989866 1_555
O12 V5 1.624867 1_555
O13 V4 1.890735 1_555
O13 V4 1.890735 1_455
O13 V1 1.991393 1_555
O14 V3 1.801826 1_554
O14 V5 1.989643 1_555
O15 V5 1.872839 1_555
O15 V5 1.872839 1_655
O15 V2 2.047329 1_565
