# generated using pymatgen
data_Li5V3(CoO5)2
_symmetry_space_group_name_H-M   'P 1'
_cell_length_a   5.09575800
_cell_length_b   5.22848709
_cell_length_c   7.91970845
_cell_angle_alpha   107.28075895
_cell_angle_beta   102.66816620
_cell_angle_gamma   100.84873573
_symmetry_Int_Tables_number   1
_chemical_formula_structural   Li5V3(CoO5)2
_chemical_formula_sum   'Li5 V3 Co2 O10'
_cell_volume   189.16698997
_cell_formula_units_Z   1
loop_
 _symmetry_equiv_pos_site_id
 _symmetry_equiv_pos_as_xyz
  1  'x, y, z'
loop_
 _atom_site_type_symbol
 _atom_site_label
 _atom_site_symmetry_multiplicity
 _atom_site_fract_x
 _atom_site_fract_y
 _atom_site_fract_z
 _atom_site_occupancy
  Li  Li0  1  0.35038000  0.08235200  0.42172800  1
  Li  Li1  1  0.83384400  0.73660500  0.77386800  1
  Li  Li2  1  0.50000000  0.50000000  0.50000000  1
  Li  Li3  1  0.16615600  0.26339500  0.22613200  1
  Li  Li4  1  0.64962000  0.91764800  0.57827200  1
  V  V0  1  0.00000000  0.50000000  0.00000000  1
  V  V1  1  0.91991900  0.12788500  0.88182300  1
  V  V2  1  0.08008100  0.87211500  0.11817700  1
  Co  Co0  1  0.72736200  0.31634300  0.68047700  1
  Co  Co1  1  0.27263800  0.68365700  0.31952300  1
  O  O0  1  0.30668900  0.35718700  0.87191000  1
  O  O1  1  0.42981700  0.81479600  0.95837400  1
  O  O2  1  0.04436400  0.20323100  0.55035400  1
  O  O3  1  0.80143800  0.02579500  0.22300600  1
  O  O4  1  0.13755900  0.56195700  0.67185700  1
  O  O5  1  0.86244100  0.43804300  0.32814300  1
  O  O6  1  0.19856200  0.97420500  0.77699400  1
  O  O7  1  0.95563600  0.79676900  0.44964600  1
  O  O8  1  0.57018300  0.18520400  0.04162600  1
  O  O9  1  0.69331100  0.64281300  0.12809000  1
loop_
_geom_bond_atom_site_label_1
_geom_bond_atom_site_label_2
_geom_bond_distance
_geom_bond_site_symmetry_2
Li0 O2 2.134024 1_555
Li0 V2 2.300562 1_545
Li0 O7 2.363309 1_445
Li1 V1 1.888716 1_565
Li1 O6 2.022475 1_655
Li1 O4 2.126944 1_655
Li1 V0 2.549518 1_656
Li1 V2 2.555158 1_656
Li2 O4 2.536597 1_555
Li2 O5 2.536597 1_555
Li3 V2 1.888716 1_545
Li3 O3 2.022475 1_455
Li3 O5 2.126944 1_455
Li3 V0 2.549518 1_555
Li3 V1 2.555158 1_454
Li4 O7 2.134024 1_555
Li4 V1 2.300562 1_565
Li4 O2 2.363309 1_665
V0 V2 1.810971 1_555
V0 V1 1.810971 1_454
Co0 Li4 1.924474 1_545
Co0 Li1 2.019742 1_555
Co0 O2 2.179186 1_655
Co0 Li2 2.194365 1_555
Co0 V1 2.255579 1_555
Co0 O4 2.264337 1_655
Co0 Li0 2.299034 1_555
Co0 V0 2.401660 1_656
Co1 Li0 1.924474 1_565
Co1 Li3 2.019742 1_555
Co1 O7 2.179186 1_455
Co1 Li2 2.194365 1_555
Co1 V2 2.255579 1_555
Co1 O5 2.264337 1_455
Co1 Li4 2.299034 1_555
Co1 V0 2.401660 1_555
O0 O6 1.840399 1_545
O0 V1 2.135939 1_455
O0 V0 2.171090 1_556
O1 O8 1.791678 1_566
O1 V2 2.415092 1_556
O1 V0 2.626194 1_556
O2 O4 1.749671 1_555
O2 O7 1.957056 1_445
O3 O9 1.840399 1_545
O3 V2 1.975144 1_645
O5 O7 1.749671 1_555
O6 V1 1.975144 1_465
O8 V1 2.415092 1_554
O8 V0 2.626194 1_655
O9 V2 2.135939 1_655
O9 V0 2.171090 1_655
