# generated using pymatgen
data_LiV4O5F7
_symmetry_space_group_name_H-M   'P 1'
_cell_length_a   5.09088300
_cell_length_b   5.36525658
_cell_length_c   9.06237455
_cell_angle_alpha   73.67493524
_cell_angle_beta   74.99284658
_cell_angle_gamma   62.91057178
_symmetry_Int_Tables_number   1
_chemical_formula_structural   LiV4O5F7
_chemical_formula_sum   'Li1 V4 O5 F7'
_cell_volume   208.99083305
_cell_formula_units_Z   1
loop_
 _symmetry_equiv_pos_site_id
 _symmetry_equiv_pos_as_xyz
  1  'x, y, z'
loop_
 _atom_site_type_symbol
 _atom_site_label
 _atom_site_symmetry_multiplicity
 _atom_site_fract_x
 _atom_site_fract_y
 _atom_site_fract_z
 _atom_site_occupancy
  Li  Li0  1  0.42726800  0.26335000  0.85911100  1
  V  V0  1  0.99288800  0.99572900  0.00836400  1
  V  V1  1  0.79555800  0.73316800  0.74509100  1
  V  V2  1  0.51526100  0.51670000  0.49704600  1
  V  V3  1  0.20726500  0.25969500  0.24743100  1
  O  O0  1  0.83499600  0.85522400  0.91496000  1
  O  O1  1  0.65562300  0.66480400  0.58245900  1
  O  O2  1  0.84289600  0.41064100  0.32757100  1
  O  O3  1  0.16544300  0.56693500  0.67700800  1
  O  O4  1  0.17033100  0.17614800  0.06482100  1
  F  F0  1  0.73843900  0.39075400  0.87877500  1
  F  F1  1  0.34010600  0.94015500  0.82547900  1
  F  F2  1  0.71298600  0.12822400  0.63138500  1
  F  F3  1  0.27205700  0.86878600  0.36900100  1
  F  F4  1  0.65993000  0.07876600  0.18041200  1
  F  F5  1  0.33871200  0.32452200  0.42192600  1
  F  F6  1  0.22796300  0.62033600  0.12481100  1
loop_
_geom_bond_atom_site_label_1
_geom_bond_atom_site_label_2
_geom_bond_distance
_geom_bond_site_symmetry_2
Li0 O4 2.051678 1_556
Li0 O3 2.191773 1_555
Li0 O0 2.267365 1_545
O0 V0 1.787135 1_556
O0 V1 1.919765 1_555
O1 V2 1.700152 1_555
O1 V1 1.974804 1_555
O2 V3 1.699700 1_655
O2 V2 1.940338 1_555
O3 V1 1.702960 1_455
O3 V2 2.051776 1_555
O4 V0 1.824549 1_445
O4 V3 1.905214 1_555
F0 V1 1.995053 1_555
F0 Li0 2.051676 1_555
F0 V0 2.106471 1_546
F1 V0 2.059356 1_456
F1 Li0 2.089153 1_565
F1 V1 2.091660 1_555
F2 V1 1.978921 1_545
F2 V2 2.033942 1_555
F2 Li0 2.286145 1_555
F3 V2 1.956913 1_555
F3 V3 1.995118 1_565
F4 V0 1.958752 1_545
F4 V3 2.047187 1_555
F5 V2 1.972284 1_555
F5 V3 2.034358 1_555
F6 V0 1.966283 1_455
F6 V3 1.976408 1_555
