# generated using pymatgen
data_Li3Ti2(PO4)3
_symmetry_space_group_name_H-M   'P 1'
_cell_length_a   8.70490693
_cell_length_b   8.70490693
_cell_length_c   8.58302844
_cell_angle_alpha   62.48561104
_cell_angle_beta   62.48561104
_cell_angle_gamma   61.14860206
_symmetry_Int_Tables_number   1
_chemical_formula_structural   Li3Ti2(PO4)3
_chemical_formula_sum   'Li6 Ti4 P6 O24'
_cell_volume   480.70492561
_cell_formula_units_Z   2
loop_
 _symmetry_equiv_pos_site_id
 _symmetry_equiv_pos_as_xyz
  1  'x, y, z'
loop_
 _atom_site_type_symbol
 _atom_site_label
 _atom_site_symmetry_multiplicity
 _atom_site_fract_x
 _atom_site_fract_y
 _atom_site_fract_z
 _atom_site_occupancy
  Li  Li0  1  0.18509400  0.44289700  0.79169400  1
  Li  Li1  1  0.86787300  0.13212700  0.25000000  1
  Li  Li2  1  0.55710300  0.81490600  0.70830600  1
  Li  Li3  1  0.44289700  0.18509400  0.29169400  1
  Li  Li4  1  0.13212700  0.86787300  0.75000000  1
  Li  Li5  1  0.81490600  0.55710300  0.20830600  1
  Ti  Ti0  1  0.64661700  0.14242600  0.64081700  1
  Ti  Ti1  1  0.85757400  0.35338300  0.85918300  1
  Ti  Ti2  1  0.14242600  0.64661700  0.14081700  1
  Ti  Ti3  1  0.35338300  0.85757400  0.35918300  1
  P  P0  1  0.97261100  0.74696900  0.54584300  1
  P  P1  1  0.55055300  0.44944700  0.25000000  1
  P  P2  1  0.74696900  0.97261100  0.04584300  1
  P  P3  1  0.25303100  0.02738900  0.95415700  1
  P  P4  1  0.44944700  0.55055300  0.75000000  1
  P  P5  1  0.02738900  0.25303100  0.45415700  1
  O  O0  1  0.77732400  0.89550900  0.57700500  1
  O  O1  1  0.26243800  0.96891700  0.15008800  1
  O  O2  1  0.52088800  0.60464700  0.31131200  1
  O  O3  1  0.96614800  0.56211300  0.69840800  1
  O  O4  1  0.11638300  0.79473300  0.55708200  1
  O  O5  1  0.74421700  0.42835100  0.09658900  1
  O  O6  1  0.57164900  0.25578300  0.40341100  1
  O  O7  1  0.20526700  0.88361700  0.94291800  1
  O  O8  1  0.89550900  0.77732400  0.07700500  1
  O  O9  1  0.43788700  0.03385200  0.80159200  1
  O  O10  1  0.39535300  0.47911200  0.18868800  1
  O  O11  1  0.03108300  0.73756200  0.34991200  1
  O  O12  1  0.96891700  0.26243800  0.65008800  1
  O  O13  1  0.60464700  0.52088800  0.81131200  1
  O  O14  1  0.56211300  0.96614800  0.19840800  1
  O  O15  1  0.10449100  0.22267600  0.92299500  1
  O  O16  1  0.79473300  0.11638300  0.05708200  1
  O  O17  1  0.42835100  0.74421700  0.59658900  1
  O  O18  1  0.25578300  0.57164900  0.90341100  1
  O  O19  1  0.88361700  0.20526700  0.44291800  1
  O  O20  1  0.03385200  0.43788700  0.30159200  1
  O  O21  1  0.47911200  0.39535300  0.68868800  1
  O  O22  1  0.73756200  0.03108300  0.84991200  1
  O  O23  1  0.22267600  0.10449100  0.42299500  1
loop_
_geom_bond_atom_site_label_1
_geom_bond_atom_site_label_2
_geom_bond_distance
_geom_bond_site_symmetry_2
Li0 O15 2.002165 1_555
Li0 O3 2.020874 1_455
Li0 O21 2.174532 1_555
Li0 O18 2.181257 1_555
Li1 O19 2.105660 1_555
Li1 O16 2.105660 1_555
Li1 O5 2.243966 1_555
Li1 O6 2.243966 1_555
Li2 O0 2.002165 1_555
Li2 O9 2.020874 1_565
Li2 O13 2.174532 1_555
Li2 O17 2.181257 1_555
Li3 O23 2.002165 1_555
Li3 O14 2.020874 1_545
Li3 O10 2.174532 1_555
Li3 O6 2.181257 1_555
Li4 O4 2.105660 1_555
Li4 O7 2.105660 1_555
Li4 O17 2.243966 1_555
Li4 O18 2.243966 1_555
Li5 O8 2.002165 1_555
Li5 O20 2.020874 1_655
Li5 O2 2.174532 1_555
Li5 O5 2.181257 1_555
O0 P0 1.552873 1_555
O0 Ti0 2.089540 1_565
O1 P3 1.545956 1_564
O1 Ti3 1.937018 1_555
O2 P1 1.537354 1_555
O2 Ti3 2.080020 1_555
O3 P0 1.542621 1_555
O3 Ti1 2.057805 1_555
O4 P0 1.548960 1_455
O4 Ti3 2.105593 1_555
O5 P1 1.575819 1_555
O5 Ti1 2.073894 1_554
O6 P1 1.575819 1_555
O6 Ti0 2.073894 1_555
O7 P3 1.548960 1_565
O7 Ti2 2.105593 1_556
O8 P2 1.552873 1_555
O8 Ti2 2.089540 1_655
O9 P3 1.542621 1_555
O9 Ti0 2.057805 1_555
O10 P1 1.537354 1_555
O10 Ti2 2.080020 1_555
O11 P0 1.545956 1_455
O11 Ti2 1.937018 1_555
O12 P5 1.545956 1_655
O12 Ti1 1.937018 1_555
O13 P4 1.537354 1_555
O13 Ti1 2.080020 1_555
O14 P2 1.542621 1_555
O14 Ti3 2.057805 1_555
O15 P3 1.552873 1_555
O15 Ti1 2.089540 1_455
O16 P2 1.548960 1_545
O16 Ti1 2.105593 1_554
O17 P4 1.575819 1_555
O17 Ti3 2.073894 1_555
O18 P4 1.575819 1_555
O18 Ti2 2.073894 1_556
O19 P5 1.548960 1_655
O19 Ti0 2.105593 1_555
O20 P5 1.542621 1_555
O20 Ti2 2.057805 1_555
O21 P4 1.537354 1_555
O21 Ti0 2.080020 1_555
O22 P2 1.545956 1_546
O22 Ti0 1.937018 1_555
O23 P5 1.552873 1_555
O23 Ti3 2.089540 1_545
