# generated using pymatgen
data_Lu3TaO7
_symmetry_space_group_name_H-M   'P 1'
_cell_length_a   6.34438846
_cell_length_b   6.34438846
_cell_length_c   7.43946400
_cell_angle_alpha   90.00000000
_cell_angle_beta   90.00000000
_cell_angle_gamma   110.00180196
_symmetry_Int_Tables_number   1
_chemical_formula_structural   Lu3TaO7
_chemical_formula_sum   'Lu6 Ta2 O14'
_cell_volume   281.38570105
_cell_formula_units_Z   2
loop_
 _symmetry_equiv_pos_site_id
 _symmetry_equiv_pos_as_xyz
  1  'x, y, z'
loop_
 _atom_site_type_symbol
 _atom_site_label
 _atom_site_symmetry_multiplicity
 _atom_site_fract_x
 _atom_site_fract_y
 _atom_site_fract_z
 _atom_site_occupancy
  Lu  Lu0  1  0.51071200  0.04375500  0.25000000  1
  Lu  Lu1  1  0.95624500  0.48928800  0.75000000  1
  Lu  Lu2  1  0.00000000  0.00000000  0.00000000  1
  Lu  Lu3  1  0.00000000  0.00000000  0.50000000  1
  Lu  Lu4  1  0.48928800  0.95624500  0.75000000  1
  Lu  Lu5  1  0.04375500  0.51071200  0.25000000  1
  Ta  Ta0  1  0.50000000  0.50000000  0.00000000  1
  Ta  Ta1  1  0.50000000  0.50000000  0.50000000  1
  O  O0  1  0.88306000  0.15072200  0.25000000  1
  O  O1  1  0.84927800  0.11694000  0.75000000  1
  O  O2  1  0.82850000  0.56746700  0.03210200  1
  O  O3  1  0.82850000  0.56746700  0.46789800  1
  O  O4  1  0.43253300  0.17150000  0.96789800  1
  O  O5  1  0.43253300  0.17150000  0.53210200  1
  O  O6  1  0.57833700  0.57833700  0.75000000  1
  O  O7  1  0.42166300  0.42166300  0.25000000  1
  O  O8  1  0.56746700  0.82850000  0.03210200  1
  O  O9  1  0.17150000  0.43253300  0.53210200  1
  O  O10  1  0.17150000  0.43253300  0.96789800  1
  O  O11  1  0.56746700  0.82850000  0.46789800  1
  O  O12  1  0.11694000  0.84927800  0.75000000  1
  O  O13  1  0.15072200  0.88306000  0.25000000  1
loop_
_geom_bond_atom_site_label_1
_geom_bond_atom_site_label_2
_geom_bond_distance
_geom_bond_site_symmetry_2
Lu0 O13 2.159344 1_545
Lu0 O0 2.223597 1_555
Lu0 O8 2.226852 1_545
Lu0 O11 2.226852 1_545
Lu0 O5 2.362701 1_555
Lu0 O4 2.362701 1_554
Lu0 O7 2.644672 1_555
Lu1 O12 2.159344 1_655
Lu1 O1 2.223597 1_555
Lu1 O10 2.226852 1_655
Lu1 O9 2.226852 1_655
Lu1 O3 2.362701 1_555
Lu1 O2 2.362701 1_556
Lu1 O6 2.644672 1_555
Lu2 O13 2.325782 1_545
Lu2 O1 2.325782 1_454
Lu2 O12 2.325782 1_544
Lu2 O0 2.325782 1_455
Lu2 O4 2.593978 1_554
Lu2 O10 2.593978 1_554
Lu2 O2 2.593978 1_445
Lu2 O8 2.593978 1_445
Lu3 O13 2.325782 1_545
Lu3 O12 2.325782 1_545
Lu3 O0 2.325782 1_455
Lu3 O1 2.325782 1_455
Lu3 O5 2.593978 1_555
Lu3 O9 2.593978 1_555
Lu3 O3 2.593978 1_445
Lu3 O11 2.593978 1_445
Lu4 O1 2.159344 1_565
Lu4 O12 2.223597 1_555
Lu4 O4 2.226852 1_565
Lu4 O5 2.226852 1_565
Lu4 O11 2.362701 1_555
Lu4 O8 2.362701 1_556
Lu4 O6 2.644672 1_555
Lu5 O0 2.159344 1_455
Lu5 O13 2.223597 1_555
Lu5 O2 2.226852 1_455
Lu5 O3 2.226852 1_455
Lu5 O9 2.362701 1_555
Lu5 O10 2.362701 1_554
Lu5 O7 2.644672 1_555
O2 Ta0 1.993384 1_555
O3 Ta1 1.993384 1_555
O4 Ta0 1.993384 1_556
O5 Ta1 1.993384 1_555
O6 Ta1 1.945287 1_555
O6 Ta0 1.945287 1_556
O7 Ta1 1.945287 1_555
O7 Ta0 1.945287 1_555
O8 Ta0 1.993384 1_555
O9 Ta1 1.993384 1_555
O10 Ta0 1.993384 1_556
O11 Ta1 1.993384 1_555
