# generated using pymatgen
data_LiMn(SiO3)2
_symmetry_space_group_name_H-M   'P 1'
_cell_length_a   5.43510464
_cell_length_b   7.08277423
_cell_length_c   13.38512583
_cell_angle_alpha   93.68101231
_cell_angle_beta   92.84905688
_cell_angle_gamma   109.60743657
_symmetry_Int_Tables_number   1
_chemical_formula_structural   LiMn(SiO3)2
_chemical_formula_sum   'Li4 Mn4 Si8 O24'
_cell_volume   482.99564845
_cell_formula_units_Z   4
loop_
 _symmetry_equiv_pos_site_id
 _symmetry_equiv_pos_as_xyz
  1  'x, y, z'
loop_
 _atom_site_type_symbol
 _atom_site_label
 _atom_site_symmetry_multiplicity
 _atom_site_fract_x
 _atom_site_fract_y
 _atom_site_fract_z
 _atom_site_occupancy
  Li  Li0  1  0.82835800  0.15607000  0.07827700  1
  Li  Li1  1  0.32852900  0.15596200  0.57822300  1
  Li  Li2  1  0.67153200  0.84402700  0.42177900  1
  Li  Li3  1  0.17161600  0.84401600  0.92173400  1
  Mn  Mn0  1  0.63868300  0.77763300  0.88888800  1
  Mn  Mn1  1  0.86148700  0.22257100  0.61110600  1
  Mn  Mn2  1  0.13855100  0.77754700  0.38907600  1
  Mn  Mn3  1  0.36120400  0.22211400  0.11086500  1
  Si  Si0  1  0.10762300  0.19591400  0.31017000  1
  Si  Si1  1  0.60773300  0.19614200  0.81022200  1
  Si  Si2  1  0.69932000  0.37952700  0.40231700  1
  Si  Si3  1  0.19935000  0.37975900  0.90230000  1
  Si  Si4  1  0.80057600  0.62030300  0.09766500  1
  Si  Si5  1  0.30072000  0.62039900  0.59772100  1
  Si  Si6  1  0.39224800  0.80389100  0.18982300  1
  Si  Si7  1  0.89241100  0.80405800  0.68979500  1
  O  O0  1  0.01545000  0.00028200  0.37487000  1
  O  O1  1  0.51576100  0.00053600  0.87494700  1
  O  O2  1  0.64077500  0.24884100  0.49961700  1
  O  O3  1  0.14045800  0.24900900  0.99956400  1
  O  O4  1  0.85937300  0.75103700  0.00037800  1
  O  O5  1  0.35939900  0.75114000  0.50045400  1
  O  O6  1  0.48438300  0.99952700  0.12511100  1
  O  O7  1  0.98446900  0.99963900  0.62506200  1
  O  O8  1  0.42464400  0.32377700  0.33077000  1
  O  O9  1  0.92477000  0.32411400  0.83068500  1
  O  O10  1  0.93255300  0.33955300  0.33820800  1
  O  O11  1  0.43260500  0.33972200  0.83822800  1
  O  O12  1  0.56744600  0.66038000  0.16178600  1
  O  O13  1  0.06736300  0.66032700  0.66177100  1
  O  O14  1  0.07522800  0.67596900  0.16924600  1
  O  O15  1  0.57534100  0.67622200  0.66932700  1
  O  O16  1  0.06759700  0.13967700  0.18847100  1
  O  O17  1  0.56768600  0.13981200  0.68853100  1
  O  O18  1  0.80881100  0.62322500  0.43085600  1
  O  O19  1  0.30898700  0.62344700  0.93080700  1
  O  O20  1  0.69091400  0.37660300  0.06912700  1
  O  O21  1  0.19126900  0.37671000  0.56921400  1
  O  O22  1  0.43225500  0.86014900  0.31151900  1
  O  O23  1  0.93252200  0.86037100  0.81148800  1
loop_
_geom_bond_atom_site_label_1
_geom_bond_atom_site_label_2
_geom_bond_distance
_geom_bond_site_symmetry_2
Li0 O20 1.952289 1_555
Li0 O16 1.952537 1_655
Li0 O6 1.982941 1_545
Li0 O3 1.984459 1_654
Li1 O17 1.952787 1_555
Li1 O21 1.952882 1_555
Li1 O7 1.982915 1_445
Li1 O2 1.984185 1_555
Li2 O22 1.952677 1_555
Li2 O18 1.953392 1_555
Li2 O0 1.982567 1_665
Li2 O5 1.984265 1_555
Li3 O19 1.952172 1_555
Li3 O23 1.952443 1_455
Li3 O1 1.983360 1_565
Li3 O4 1.984531 1_456
Mn0 O23 1.892510 1_555
Mn0 O19 1.893068 1_555
Mn0 O1 1.925365 1_565
Mn0 O4 1.926396 1_556
Mn1 O17 1.892565 1_555
Mn1 O21 1.893197 1_655
Mn1 O2 1.925638 1_555
Mn1 O7 1.925786 1_545
Mn2 O18 1.892813 1_455
Mn2 O22 1.893170 1_555
Mn2 O0 1.925316 1_565
Mn2 O5 1.925325 1_555
Mn3 O20 1.892804 1_555
Mn3 O16 1.893094 1_555
Mn3 O6 1.924662 1_545
Mn3 O3 1.925444 1_554
O0 Si0 1.628565 1_555
O1 Si1 1.628569 1_555
O2 Si2 1.628653 1_555
O3 Si3 1.628581 1_555
O4 Si4 1.628755 1_555
O5 Si5 1.628527 1_555
O6 Si6 1.628673 1_555
O7 Si7 1.628518 1_555
O8 Si2 1.647864 1_555
O8 Si0 1.654838 1_555
O9 Si3 1.647998 1_655
O9 Si1 1.654911 1_555
O10 Si0 1.648467 1_655
O10 Si2 1.655673 1_555
O11 Si1 1.648292 1_555
O11 Si3 1.655680 1_555
O12 Si6 1.648296 1_555
O12 Si4 1.655573 1_555
O13 Si7 1.648435 1_455
O13 Si5 1.655686 1_555
O14 Si4 1.648057 1_455
O14 Si6 1.654887 1_555
O15 Si5 1.647984 1_555
O15 Si7 1.654888 1_555
O16 Si0 1.637920 1_555
O17 Si1 1.637905 1_555
O18 Si2 1.637893 1_555
O19 Si3 1.637764 1_555
O20 Si4 1.637903 1_555
O21 Si5 1.637772 1_555
O22 Si6 1.637901 1_555
O23 Si7 1.637916 1_555
