# generated using pymatgen
data_Li2VF6
_symmetry_space_group_name_H-M   'P 1'
_cell_length_a   4.94685963
_cell_length_b   4.94685963
_cell_length_c   4.50472200
_cell_angle_alpha   90.00000000
_cell_angle_beta   90.00000000
_cell_angle_gamma   119.99999503
_symmetry_Int_Tables_number   1
_chemical_formula_structural   Li2VF6
_chemical_formula_sum   'Li2 V1 F6'
_cell_volume   95.46799948
_cell_formula_units_Z   1
loop_
 _symmetry_equiv_pos_site_id
 _symmetry_equiv_pos_as_xyz
  1  'x, y, z'
loop_
 _atom_site_type_symbol
 _atom_site_label
 _atom_site_symmetry_multiplicity
 _atom_site_fract_x
 _atom_site_fract_y
 _atom_site_fract_z
 _atom_site_occupancy
  Li  Li0  1  0.33333300  0.66666700  0.50000000  1
  Li  Li1  1  0.66666700  0.33333300  0.50000000  1
  V  V0  1  0.00000000  0.00000000  0.00000000  1
  F  F0  1  0.00000000  0.68687800  0.24735800  1
  F  F1  1  0.31312200  0.00000000  0.75264200  1
  F  F2  1  0.68687800  0.68687800  0.75264200  1
  F  F3  1  0.31312200  0.31312200  0.24735800  1
  F  F4  1  0.68687800  0.00000000  0.24735800  1
  F  F5  1  0.00000000  0.31312200  0.75264200  1
loop_
_geom_bond_atom_site_label_1
_geom_bond_atom_site_label_2
_geom_bond_distance
_geom_bond_site_symmetry_2
F0 V0 1.908121 1_565
F0 Li0 2.046737 1_555
F0 Li1 2.046739 1_455
F1 V0 1.908121 1_556
F1 Li0 2.046737 1_545
F1 Li1 2.046739 1_555
F2 V0 1.908122 1_666
F2 Li0 2.046741 1_555
F2 Li1 2.046741 1_555
F3 V0 1.908122 1_555
F3 Li1 2.046741 1_555
F3 Li0 2.046741 1_555
F4 V0 1.908121 1_655
F4 Li1 2.046737 1_555
F4 Li0 2.046739 1_545
F5 V0 1.908121 1_556
F5 Li1 2.046737 1_455
F5 Li0 2.046739 1_555
