# generated using pymatgen
data_Li2VP2O7
_symmetry_space_group_name_H-M   'P 1'
_cell_length_a   7.43194803
_cell_length_b   7.43194803
_cell_length_c   11.68354093
_cell_angle_alpha   88.61801110
_cell_angle_beta   88.61801110
_cell_angle_gamma   121.12441862
_symmetry_Int_Tables_number   1
_chemical_formula_structural   Li2VP2O7
_chemical_formula_sum   'Li8 V4 P8 O28'
_cell_volume   551.76457896
_cell_formula_units_Z   4
loop_
 _symmetry_equiv_pos_site_id
 _symmetry_equiv_pos_as_xyz
  1  'x, y, z'
loop_
 _atom_site_type_symbol
 _atom_site_label
 _atom_site_symmetry_multiplicity
 _atom_site_fract_x
 _atom_site_fract_y
 _atom_site_fract_z
 _atom_site_occupancy
  Li  Li0  1  0.73438000  0.29945900  0.49346700  1
  Li  Li1  1  0.29945900  0.73438000  0.99346700  1
  Li  Li2  1  0.72373600  0.27626400  0.25000000  1
  Li  Li3  1  0.28800400  0.71199600  0.25000000  1
  Li  Li4  1  0.71199600  0.28800400  0.75000000  1
  Li  Li5  1  0.27626400  0.72373600  0.75000000  1
  Li  Li6  1  0.70054100  0.26562000  0.00653300  1
  Li  Li7  1  0.26562000  0.70054100  0.50653300  1
  V  V0  1  0.67322400  0.66516200  0.38934100  1
  V  V1  1  0.66516200  0.67322400  0.88934100  1
  V  V2  1  0.33483800  0.32677600  0.11065900  1
  V  V3  1  0.32677600  0.33483800  0.61065900  1
  P  P0  1  0.71863100  0.92676100  0.12962700  1
  P  P1  1  0.92676100  0.71863100  0.62962700  1
  P  P2  1  0.90298500  0.67471500  0.13776900  1
  P  P3  1  0.67471500  0.90298500  0.63776900  1
  P  P4  1  0.32528500  0.09701500  0.36223100  1
  P  P5  1  0.09701500  0.32528500  0.86223100  1
  P  P6  1  0.07323900  0.28136900  0.37037300  1
  P  P7  1  0.28136900  0.07323900  0.87037300  1
  O  O0  1  0.93183100  0.90932300  0.12505700  1
  O  O1  1  0.90932300  0.93183100  0.62505700  1
  O  O2  1  0.59843600  0.82866800  0.02046500  1
  O  O3  1  0.82866800  0.59843600  0.52046500  1
  O  O4  1  0.81687800  0.58208800  0.25949100  1
  O  O5  1  0.58208800  0.81687800  0.75949100  1
  O  O6  1  0.59250200  0.79795600  0.23854300  1
  O  O7  1  0.79795600  0.59250200  0.73854300  1
  O  O8  1  0.73302500  0.54229100  0.04942800  1
  O  O9  1  0.54229100  0.73302500  0.54942800  1
  O  O10  1  0.29681200  0.88306600  0.38299100  1
  O  O11  1  0.88306600  0.29681200  0.88299100  1
  O  O12  1  0.84105400  0.20270300  0.37154000  1
  O  O13  1  0.20270300  0.84105400  0.87154000  1
  O  O14  1  0.79729700  0.15894600  0.12846000  1
  O  O15  1  0.15894600  0.79729700  0.62846000  1
  O  O16  1  0.11693400  0.70318800  0.11700900  1
  O  O17  1  0.70318800  0.11693400  0.61700900  1
  O  O18  1  0.45770900  0.26697500  0.45057200  1
  O  O19  1  0.26697500  0.45770900  0.95057200  1
  O  O20  1  0.20204400  0.40749800  0.26145700  1
  O  O21  1  0.40749800  0.20204400  0.76145700  1
  O  O22  1  0.41791200  0.18312200  0.24050900  1
  O  O23  1  0.18312200  0.41791200  0.74050900  1
  O  O24  1  0.17133200  0.40156400  0.47953500  1
  O  O25  1  0.40156400  0.17133200  0.97953500  1
  O  O26  1  0.09067700  0.06816900  0.37494300  1
  O  O27  1  0.06816900  0.09067700  0.87494300  1
loop_
_geom_bond_atom_site_label_1
_geom_bond_atom_site_label_2
_geom_bond_distance
_geom_bond_site_symmetry_2
Li0 O17 1.881920 1_555
Li0 O12 1.938868 1_555
Li0 O3 1.990615 1_555
Li0 O18 2.019848 1_555
Li1 O16 1.881920 1_556
Li1 O13 1.938868 1_555
Li1 O2 1.990615 1_556
Li1 O19 2.019848 1_555
Li2 O12 1.894887 1_555
Li2 O14 1.894887 1_555
Li2 O22 2.011654 1_555
Li2 O4 2.011654 1_555
Li3 O20 2.008470 1_555
Li3 O6 2.008470 1_555
Li3 O16 2.012255 1_555
Li3 O10 2.012255 1_555
Li4 O21 2.008470 1_555
Li4 O7 2.008470 1_555
Li4 O17 2.012255 1_555
Li4 O11 2.012255 1_555
Li5 O13 1.894887 1_555
Li5 O15 1.894887 1_555
Li5 O5 2.011654 1_555
Li5 O23 2.011654 1_555
Li6 O11 1.881920 1_554
Li6 O14 1.938868 1_555
Li6 O25 1.990615 1_554
Li6 O8 2.019848 1_555
Li7 O10 1.881920 1_555
Li7 O15 1.938868 1_555
Li7 O24 1.990615 1_555
Li7 O9 2.019848 1_555
O0 P2 1.645504 1_555
O0 P0 1.654932 1_555
O1 P3 1.645504 1_555
O1 P1 1.654932 1_555
O2 P0 1.543581 1_555
O2 V1 2.137407 1_554
O3 P1 1.543581 1_555
O3 V0 2.137407 1_555
O4 P2 1.536023 1_555
O4 V0 2.114502 1_555
O5 P3 1.536023 1_555
O5 V1 2.114502 1_555
O6 P0 1.539618 1_555
O6 V0 2.239920 1_555
O7 P1 1.539618 1_555
O7 V1 2.239920 1_555
O8 P2 1.567205 1_555
O8 V1 2.272594 1_554
O8 V2 2.603309 1_555
O9 P3 1.567205 1_555
O9 V0 2.272594 1_555
O9 V3 2.603309 1_555
O10 P4 1.504317 1_565
O11 P5 1.504317 1_655
O12 P6 1.508369 1_655
O13 P7 1.508369 1_565
O14 P0 1.508369 1_545
O15 P1 1.508369 1_455
O16 P2 1.504317 1_455
O17 P3 1.504317 1_545
O18 P4 1.567205 1_555
O18 V3 2.272594 1_555
O18 V0 2.603309 1_555
O19 P5 1.567205 1_555
O19 V2 2.272594 1_556
O19 V1 2.603309 1_555
O20 P6 1.539618 1_555
O20 V2 2.239920 1_555
O21 P7 1.539618 1_555
O21 V3 2.239920 1_555
O22 P4 1.536023 1_555
O22 V2 2.114502 1_555
O23 P5 1.536023 1_555
O23 V3 2.114502 1_555
O24 P6 1.543581 1_555
O24 V3 2.137407 1_555
O25 P7 1.543581 1_555
O25 V2 2.137407 1_556
O26 P4 1.645504 1_555
O26 P6 1.654932 1_555
O27 P5 1.645504 1_555
O27 P7 1.654932 1_555
