# generated using pymatgen
data_Li5Co7O12
_symmetry_space_group_name_H-M   'P 1'
_cell_length_a   5.03246929
_cell_length_b   5.03246929
_cell_length_c   9.65268683
_cell_angle_alpha   85.24426836
_cell_angle_beta   85.24426836
_cell_angle_gamma   120.25770575
_symmetry_Int_Tables_number   1
_chemical_formula_structural   Li5Co7O12
_chemical_formula_sum   'Li5 Co7 O12'
_cell_volume   208.21176646
_cell_formula_units_Z   1
loop_
 _symmetry_equiv_pos_site_id
 _symmetry_equiv_pos_as_xyz
  1  'x, y, z'
loop_
 _atom_site_type_symbol
 _atom_site_label
 _atom_site_symmetry_multiplicity
 _atom_site_fract_x
 _atom_site_fract_y
 _atom_site_fract_z
 _atom_site_occupancy
  Li  Li0  1  0.83414900  0.66370700  0.75908200  1
  Li  Li1  1  0.66871200  0.83641500  0.24118400  1
  Li  Li2  1  0.33629300  0.16585100  0.24091800  1
  Li  Li3  1  0.16358500  0.33128800  0.75881600  1
  Li  Li4  1  0.08249000  0.91751000  0.00000000  1
  Co  Co0  1  0.91901100  0.08098900  0.50000000  1
  Co  Co1  1  0.00403900  0.51418000  0.24104200  1
  Co  Co2  1  0.74931900  0.25068100  0.00000000  1
  Co  Co3  1  0.48582000  0.99596100  0.75895800  1
  Co  Co4  1  0.58040300  0.41959700  0.50000000  1
  Co  Co5  1  0.41716900  0.58283100  0.00000000  1
  Co  Co6  1  0.25133100  0.74866900  0.50000000  1
  O  O0  1  0.04864800  0.24162900  0.11607300  1
  O  O1  1  0.75837100  0.95135200  0.88392700  1
  O  O2  1  0.88490600  0.39035800  0.61413300  1
  O  O3  1  0.60964200  0.11509400  0.38586700  1
  O  O4  1  0.69992700  0.52319400  0.11615500  1
  O  O5  1  0.47680600  0.30007300  0.88384500  1
  O  O6  1  0.52185000  0.70525300  0.61644800  1
  O  O7  1  0.29474700  0.47815000  0.38355200  1
  O  O8  1  0.39801400  0.87334400  0.11249900  1
  O  O9  1  0.12665600  0.60198600  0.88750100  1
  O  O10  1  0.21994700  0.03183500  0.61830000  1
  O  O11  1  0.96816500  0.78005300  0.38170000  1
loop_
_geom_bond_atom_site_label_1
_geom_bond_atom_site_label_2
_geom_bond_distance
_geom_bond_site_symmetry_2
Li0 O5 1.998017 1_555
Li0 O1 2.112461 1_555
Li0 O9 2.121189 1_655
Li0 O2 2.128189 1_555
Li0 O10 2.137407 1_665
Li0 O6 2.247565 1_555
Li1 O8 1.982611 1_555
Li1 O7 2.102804 1_555
Li1 O4 2.121177 1_555
Li1 O0 2.133562 1_665
Li1 O3 2.163730 1_565
Li1 O11 2.212933 1_555
Li2 O4 1.998017 1_555
Li2 O0 2.112461 1_555
Li2 O8 2.121189 1_545
Li2 O3 2.128189 1_555
Li2 O11 2.137407 1_445
Li2 O7 2.247565 1_555
Li3 O9 1.982611 1_555
Li3 O6 2.102804 1_555
Li3 O5 2.121177 1_555
Li3 O1 2.133562 1_445
Li3 O2 2.163730 1_455
Li3 O10 2.212933 1_555
Li4 O5 2.079528 1_564
Li4 O4 2.079528 1_455
Li4 O9 2.086024 1_554
Li4 O8 2.086024 1_555
Li4 O1 2.120433 1_454
Li4 O0 2.120433 1_565
Co0 O3 2.046810 1_555
Co0 O2 2.046810 1_555
Co0 O10 2.067891 1_655
Co0 O11 2.067891 1_545
Co0 O6 2.073651 1_545
Co0 O7 2.073651 1_655
Co1 O0 1.981561 1_555
Co1 O4 2.040667 1_455
Co1 O11 2.042124 1_455
Co1 O8 2.084754 1_555
Co1 O7 2.150615 1_555
Co1 O3 2.232579 1_455
Co2 O5 1.936996 1_554
Co2 O4 1.936996 1_555
Co2 O1 1.966491 1_544
Co2 O0 1.966491 1_655
Co2 O8 1.966516 1_545
Co2 O9 1.966516 1_654
Co3 O1 1.981561 1_555
Co3 O5 2.040667 1_565
Co3 O10 2.042124 1_565
Co3 O9 2.084754 1_555
Co3 O6 2.150615 1_555
Co3 O2 2.232579 1_565
Co4 O6 2.014140 1_555
Co4 O7 2.014140 1_555
Co4 O3 2.015917 1_555
Co4 O2 2.015917 1_555
Co4 O10 2.030308 1_555
Co4 O11 2.030308 1_555
Co5 O8 1.927140 1_555
Co5 O9 1.927140 1_554
Co5 O1 1.941743 1_554
Co5 O0 1.941743 1_555
Co5 O4 2.002790 1_555
Co5 O5 2.002790 1_554
Co6 O7 1.917635 1_555
Co6 O6 1.917635 1_555
Co6 O10 1.956103 1_565
Co6 O11 1.956103 1_455
Co6 O3 1.961728 1_565
Co6 O2 1.961728 1_455
