# generated using pymatgen
data_CdNi2H24(ClO2)6
_symmetry_space_group_name_H-M   'P 1'
_cell_length_a   9.98545191
_cell_length_b   9.98545191
_cell_length_c   11.40731700
_cell_angle_alpha   90.00000000
_cell_angle_beta   90.00000000
_cell_angle_gamma   119.99999942
_symmetry_Int_Tables_number   1
_chemical_formula_structural   CdNi2H24(ClO2)6
_chemical_formula_sum   'Cd2 Ni4 H48 Cl12 O24'
_cell_volume   985.03030902
_cell_formula_units_Z   2
loop_
 _symmetry_equiv_pos_site_id
 _symmetry_equiv_pos_as_xyz
  1  'x, y, z'
loop_
 _atom_site_type_symbol
 _atom_site_label
 _atom_site_symmetry_multiplicity
 _atom_site_fract_x
 _atom_site_fract_y
 _atom_site_fract_z
 _atom_site_occupancy
  Cd  Cd0  1  0.00000000  0.00000000  0.00298000  1
  Cd  Cd1  1  0.33333300  0.66666700  0.53209700  1
  Ni  Ni0  1  0.00000000  0.00000000  0.51312000  1
  Ni  Ni1  1  0.66666700  0.33333300  0.11743700  1
  Ni  Ni2  1  0.66666700  0.33333300  0.61280900  1
  Ni  Ni3  1  0.33333300  0.66666700  0.03080300  1
  H  H0  1  0.85997700  0.31891400  0.96739200  1
  H  H1  1  0.45893700  0.14002300  0.96739200  1
  H  H2  1  0.68108600  0.54106300  0.96739200  1
  H  H3  1  0.95670600  0.44141000  0.06510000  1
  H  H4  1  0.48470400  0.04329400  0.06510000  1
  H  H5  1  0.55859000  0.51529600  0.06510000  1
  H  H6  1  0.37501200  0.24201500  0.19163700  1
  H  H7  1  0.86700400  0.62498800  0.19163700  1
  H  H8  1  0.75798500  0.13299600  0.19163700  1
  H  H9  1  0.48802600  0.32204400  0.29534100  1
  H  H10  1  0.83401800  0.51197400  0.29534100  1
  H  H11  1  0.67795600  0.16598200  0.29534100  1
  H  H12  1  0.86050900  0.54569700  0.76817700  1
  H  H13  1  0.68518800  0.13949100  0.76817700  1
  H  H14  1  0.45430300  0.31481200  0.76817700  1
  H  H15  1  0.95553200  0.47541400  0.70311000  1
  H  H16  1  0.51988200  0.04446800  0.70311000  1
  H  H17  1  0.52458600  0.48011800  0.70311000  1
  H  H18  1  0.47342000  0.10508800  0.47547000  1
  H  H19  1  0.63166800  0.52658000  0.47547000  1
  H  H20  1  0.89491200  0.36833200  0.47547000  1
  H  H21  1  0.37771000  0.17512600  0.53383500  1
  H  H22  1  0.79741600  0.62229000  0.53383500  1
  H  H23  1  0.82487400  0.20258400  0.53383500  1
  H  H24  1  0.57732400  0.72186300  0.14632800  1
  H  H25  1  0.14453900  0.42267600  0.14632800  1
  H  H26  1  0.27813700  0.85546100  0.14632800  1
  H  H27  1  0.44338600  0.57633000  0.21451700  1
  H  H28  1  0.13294400  0.55661400  0.21451700  1
  H  H29  1  0.42367000  0.86705600  0.21451700  1
  H  H30  1  0.53016200  0.77357200  0.84676800  1
  H  H31  1  0.24341000  0.46983800  0.84676800  1
  H  H32  1  0.22642800  0.75659000  0.84676800  1
  H  H33  1  0.56543400  0.91672400  0.92902600  1
  H  H34  1  0.35129000  0.43456600  0.92902600  1
  H  H35  1  0.08327600  0.64871000  0.92902600  1
  H  H36  1  0.18825200  0.24590900  0.63227400  1
  H  H37  1  0.05765700  0.81174800  0.63227400  1
  H  H38  1  0.75409100  0.94234300  0.63227400  1
  H  H39  1  0.19800400  0.11154700  0.69445300  1
  H  H40  1  0.91354300  0.80199600  0.69445300  1
  H  H41  1  0.88845300  0.08645700  0.69445300  1
  H  H42  1  0.13144800  0.84891400  0.42420000  1
  H  H43  1  0.71746600  0.86855200  0.42420000  1
  H  H44  1  0.15108600  0.28253400  0.42420000  1
  H  H45  1  0.13018300  0.95355100  0.32639400  1
  H  H46  1  0.82336800  0.86981700  0.32639400  1
  H  H47  1  0.04644900  0.17663200  0.32639400  1
  Cl  Cl0  1  0.15321400  0.43321900  0.67286600  1
  Cl  Cl1  1  0.28000500  0.84678600  0.67286600  1
  Cl  Cl2  1  0.56678100  0.71999500  0.67286600  1
  Cl  Cl3  1  0.08855700  0.60022900  0.39947000  1
  Cl  Cl4  1  0.51167200  0.91144300  0.39947000  1
  Cl  Cl5  1  0.39977100  0.48832800  0.39947000  1
  Cl  Cl6  1  0.07191300  0.84244000  0.15639500  1
  Cl  Cl7  1  0.77052700  0.92808700  0.15639500  1
  Cl  Cl8  1  0.15756000  0.22947300  0.15639500  1
  Cl  Cl9  1  0.86443800  0.74171300  0.87541600  1
  Cl  Cl10  1  0.87727400  0.13556200  0.87541600  1
  Cl  Cl11  1  0.25828700  0.12272600  0.87541600  1
  O  O0  1  0.86386300  0.40382400  0.01569300  1
  O  O1  1  0.53996100  0.13613700  0.01569300  1
  O  O2  1  0.59617600  0.46003900  0.01569300  1
  O  O3  1  0.47357300  0.25949200  0.22489100  1
  O  O4  1  0.78591900  0.52642700  0.22489100  1
  O  O5  1  0.74050800  0.21408100  0.22489100  1
  O  O6  1  0.85213400  0.45870700  0.72178600  1
  O  O7  1  0.60657300  0.14786600  0.72178600  1
  O  O8  1  0.54129300  0.39342700  0.72178600  1
  O  O9  1  0.48099000  0.20151300  0.50448800  1
  O  O10  1  0.72052400  0.51901000  0.50448800  1
  O  O11  1  0.79848700  0.27947600  0.50448800  1
  O  O12  1  0.47898700  0.61967100  0.13520100  1
  O  O13  1  0.14068400  0.52101300  0.13520100  1
  O  O14  1  0.38032900  0.85931600  0.13520100  1
  O  O15  1  0.51822400  0.80448700  0.92724500  1
  O  O16  1  0.28626300  0.48177600  0.92724500  1
  O  O17  1  0.19551300  0.71373700  0.92724500  1
  O  O18  1  0.19070500  0.14896300  0.61559100  1
  O  O19  1  0.95825800  0.80929500  0.61559100  1
  O  O20  1  0.85103700  0.04174200  0.61559100  1
  O  O21  1  0.14366400  0.95245800  0.41208400  1
  O  O22  1  0.80879400  0.85633600  0.41208400  1
  O  O23  1  0.04754200  0.19120600  0.41208400  1
loop_
_geom_bond_atom_site_label_1
_geom_bond_atom_site_label_2
_geom_bond_distance
_geom_bond_site_symmetry_2
Cd0 Cl11 2.666547 1_554
Cd0 Cl9 2.666547 1_444
Cd0 Cl10 2.666554 1_454
Cd0 Cl6 2.680186 1_545
Cd0 Cl7 2.680186 1_445
Cd0 Cl8 2.680186 1_555
Cd1 Cl1 2.656076 1_555
Cd1 Cl0 2.656082 1_555
Cd1 Cl2 2.656084 1_555
Cd1 Cl3 2.661134 1_555
Cd1 Cl4 2.661136 1_555
Cd1 Cl5 2.661142 1_555
Ni0 O21 2.071881 1_545
Ni0 O23 2.071881 1_555
Ni0 O22 2.071882 1_445
Ni0 O20 2.091087 1_455
Ni0 O19 2.091087 1_445
Ni0 O18 2.091087 1_555
Ni1 O0 2.081781 1_555
Ni1 O1 2.081783 1_555
Ni1 O2 2.081789 1_555
Ni1 O5 2.083779 1_555
Ni1 O4 2.083785 1_555
Ni1 O3 2.083786 1_555
Ni2 O7 2.055227 1_555
Ni2 O6 2.055229 1_555
Ni2 O8 2.055235 1_555
Ni2 O11 2.063135 1_555
Ni2 O10 2.063135 1_555
Ni2 O9 2.063135 1_555
Ni3 O17 2.038915 1_554
Ni3 O15 2.038921 1_554
Ni3 O16 2.038923 1_554
Ni3 O14 2.106252 1_555
Ni3 O13 2.106254 1_555
Ni3 O12 2.106260 1_555
H0 O0 0.995522 1_556
H1 O1 0.995522 1_556
H2 O2 0.995522 1_556
H3 O0 0.984905 1_555
H4 O1 0.984905 1_555
H5 O2 0.984905 1_555
H6 O3 0.985496 1_555
H7 O4 0.985499 1_555
H8 O5 0.985505 1_555
H9 O3 0.983193 1_555
H10 O4 0.983193 1_555
H11 O5 0.983193 1_555
H12 O6 0.984341 1_555
H13 O7 0.984341 1_555
H14 O8 0.984341 1_555
H15 O6 0.983351 1_555
H16 O7 0.983351 1_555
H17 O8 0.983351 1_555
H18 O9 0.984672 1_555
H19 O10 0.984682 1_555
H20 O11 0.984676 1_555
H21 O9 0.986579 1_555
H22 O10 0.986576 1_555
H23 O11 0.986570 1_555
H24 O12 1.009751 1_555
H25 O13 1.009751 1_555
H26 O14 1.009751 1_555
H27 O12 0.989169 1_555
H28 O13 0.989169 1_555
H29 O14 0.989169 1_555
H30 O15 0.994524 1_555
H31 O16 0.994524 1_555
H32 O17 0.994524 1_555
H33 O15 0.974866 1_555
H34 O16 0.974866 1_555
H35 O17 0.974866 1_555
H36 O18 0.998824 1_555
H37 O19 0.998824 1_455
H38 O20 0.998824 1_565
H39 O18 0.990666 1_555
H40 O19 0.990666 1_555
H41 O20 0.990666 1_555
H42 O21 0.988372 1_555
H43 O22 0.988372 1_555
H44 O23 0.988372 1_555
H45 O21 0.987523 1_555
H46 O22 0.987523 1_555
H47 O23 0.987523 1_555
Cl6 H26 2.000704 1_555
Cl7 H24 2.000704 1_555
Cl8 H25 2.000704 1_555
