# generated using pymatgen
data_Li2Zr2O5
_symmetry_space_group_name_H-M   'P 1'
_cell_length_a   5.63130084
_cell_length_b   5.63130084
_cell_length_c   7.60798662
_cell_angle_alpha   71.91806942
_cell_angle_beta   71.91806942
_cell_angle_gamma   72.00159514
_symmetry_Int_Tables_number   1
_chemical_formula_structural   Li2Zr2O5
_chemical_formula_sum   'Li4 Zr4 O10'
_cell_volume   211.89669081
_cell_formula_units_Z   2
loop_
 _symmetry_equiv_pos_site_id
 _symmetry_equiv_pos_as_xyz
  1  'x, y, z'
loop_
 _atom_site_type_symbol
 _atom_site_label
 _atom_site_symmetry_multiplicity
 _atom_site_fract_x
 _atom_site_fract_y
 _atom_site_fract_z
 _atom_site_occupancy
  Li  Li0  1  0.78144500  0.18485900  0.50071800  1
  Li  Li1  1  0.18485900  0.78144500  0.00071800  1
  Li  Li2  1  0.81514100  0.21855500  0.99928200  1
  Li  Li3  1  0.21855500  0.81514100  0.49928200  1
  Zr  Zr0  1  0.22300100  0.27888700  0.62087000  1
  Zr  Zr1  1  0.27888700  0.22300100  0.12087000  1
  Zr  Zr2  1  0.72111300  0.77699900  0.87913000  1
  Zr  Zr3  1  0.77699900  0.72111300  0.37913000  1
  O  O0  1  0.00000000  0.50000000  0.00000000  1
  O  O1  1  0.92989000  0.63927200  0.62834000  1
  O  O2  1  0.63927200  0.92989000  0.12834000  1
  O  O3  1  0.93805700  0.06194300  0.75000000  1
  O  O4  1  0.50000000  0.50000000  0.50000000  1
  O  O5  1  0.06194300  0.93805700  0.25000000  1
  O  O6  1  0.50000000  0.50000000  0.00000000  1
  O  O7  1  0.36072800  0.07011000  0.87166000  1
  O  O8  1  0.07011000  0.36072800  0.37166000  1
  O  O9  1  0.50000000  0.00000000  0.50000000  1
loop_
_geom_bond_atom_site_label_1
_geom_bond_atom_site_label_2
_geom_bond_distance
_geom_bond_site_symmetry_2
Li0 O4 1.980538 1_555
Li0 O8 1.996956 1_655
Li0 O9 2.150375 1_555
Li0 O3 2.167924 1_555
Li0 O5 2.546309 1_645
Li1 O6 1.980538 1_555
Li1 O7 1.996956 1_564
Li1 O0 2.150375 1_555
Li1 O5 2.167924 1_555
Li1 O3 2.546309 1_464
Li2 O6 1.980538 1_556
Li2 O2 1.996956 1_546
Li2 O0 2.150375 1_656
Li2 O3 2.167924 1_555
Li2 O5 2.546309 1_646
Li3 O4 1.980538 1_555
Li3 O1 1.996956 1_455
Li3 O9 2.150375 1_565
Li3 O5 2.167924 1_555
Li3 O3 2.546309 1_465
O0 Zr2 2.058500 1_454
O0 Zr1 2.058500 1_555
O1 Zr2 2.141698 1_555
O1 Zr3 2.184978 1_555
O1 Zr0 2.188510 1_655
O2 Zr3 2.141698 1_555
O2 Zr2 2.184978 1_554
O2 Zr1 2.188510 1_565
O3 Zr2 2.126089 1_545
O3 Zr0 2.126089 1_655
O4 Zr0 2.104354 1_555
O4 Zr3 2.104354 1_555
O5 Zr1 2.126089 1_565
O5 Zr3 2.126089 1_455
O6 Zr2 2.104354 1_554
O6 Zr1 2.104354 1_555
O7 Zr0 2.141698 1_555
O7 Zr1 2.184978 1_556
O7 Zr2 2.188510 1_545
O8 Zr1 2.141698 1_555
O8 Zr0 2.184978 1_555
O8 Zr3 2.188510 1_455
O9 Zr0 2.058500 1_555
O9 Zr3 2.058500 1_545
