# generated using pymatgen
data_RbCuO2
_symmetry_space_group_name_H-M   'P 1'
_cell_length_a   4.82779489
_cell_length_b   5.41953676
_cell_length_c   6.40688589
_cell_angle_alpha   90.00000000
_cell_angle_beta   112.13350173
_cell_angle_gamma   90.00000000
_symmetry_Int_Tables_number   1
_chemical_formula_structural   RbCuO2
_chemical_formula_sum   'Rb2 Cu2 O4'
_cell_volume   155.27931630
_cell_formula_units_Z   2
loop_
 _symmetry_equiv_pos_site_id
 _symmetry_equiv_pos_as_xyz
  1  'x, y, z'
loop_
 _atom_site_type_symbol
 _atom_site_label
 _atom_site_symmetry_multiplicity
 _atom_site_fract_x
 _atom_site_fract_y
 _atom_site_fract_z
 _atom_site_occupancy
  Rb  Rb0  1  0.30869271  0.75000000  0.61738342  1
  Rb  Rb1  1  0.69130729  0.25000000  0.38261658  1
  Cu  Cu0  1  0.99788881  0.25000000  0.99577962  1
  Cu  Cu1  1  0.00211119  0.75000000  0.00422038  1
  O  O0  1  0.89727006  0.50398062  0.79454012  1
  O  O1  1  0.10272994  0.49601938  0.20545988  1
  O  O2  1  0.89727006  0.99601938  0.79454012  1
  O  O3  1  0.10272994  0.00398062  0.20545988  1
loop_
_geom_bond_atom_site_label_1
_geom_bond_atom_site_label_2
_geom_bond_distance
_geom_bond_site_symmetry_2
Cu0 O2 1.822362 1_545
Cu0 O0 1.822362 1_555
Cu0 O1 1.823801 1_656
Cu0 O3 1.823801 1_656
Cu1 O1 1.822362 1_555
Cu1 O3 1.822362 1_565
Cu1 O2 1.823801 1_454
Cu1 O0 1.823801 1_454
O0 Rb1 2.805534 1_555
O0 Rb0 2.951271 1_555
O0 Rb0 2.951278 1_655
O1 Rb0 2.805534 1_555
O1 Rb1 2.951271 1_555
O1 Rb1 2.951278 1_455
O2 Rb1 2.805534 1_565
O2 Rb0 2.951271 1_555
O2 Rb0 2.951278 1_655
O3 Rb0 2.805534 1_545
O3 Rb1 2.951271 1_555
O3 Rb1 2.951278 1_455
