# generated using pymatgen
data_Li2Mn(SiO3)2
_symmetry_space_group_name_H-M   'P 1'
_cell_length_a   7.30530019
_cell_length_b   10.51316022
_cell_length_c   7.38224908
_cell_angle_alpha   110.56867182
_cell_angle_beta   89.98911937
_cell_angle_gamma   89.98338573
_symmetry_Int_Tables_number   1
_chemical_formula_structural   Li2Mn(SiO3)2
_chemical_formula_sum   'Li8 Mn4 Si8 O24'
_cell_volume   530.82657829
_cell_formula_units_Z   4
loop_
 _symmetry_equiv_pos_site_id
 _symmetry_equiv_pos_as_xyz
  1  'x, y, z'
loop_
 _atom_site_type_symbol
 _atom_site_label
 _atom_site_symmetry_multiplicity
 _atom_site_fract_x
 _atom_site_fract_y
 _atom_site_fract_z
 _atom_site_occupancy
  Li  Li0  1  0.72132700  0.83512200  0.19107200  1
  Li  Li1  1  0.22132400  0.83511400  0.69109100  1
  Li  Li2  1  0.47131200  0.66397000  0.35560400  1
  Li  Li3  1  0.97129200  0.66397700  0.85563100  1
  Li  Li4  1  0.47128100  0.33503300  0.64480400  1
  Li  Li5  1  0.97126600  0.33500300  0.14473400  1
  Li  Li6  1  0.72107900  0.16393000  0.80917100  1
  Li  Li7  1  0.22108000  0.16394000  0.30915100  1
  Mn  Mn0  1  0.21709300  0.49957000  0.50038500  1
  Mn  Mn1  1  0.46697700  0.99942100  0.50007600  1
  Mn  Mn2  1  0.71712200  0.49957100  0.00040400  1
  Mn  Mn3  1  0.96696300  0.99943200  0.00015500  1
  Si  Si0  1  0.28698000  0.83246100  0.10136000  1
  Si  Si1  1  0.78699700  0.83249700  0.60137600  1
  Si  Si2  1  0.53730200  0.66686600  0.76861500  1
  Si  Si3  1  0.03723700  0.66687000  0.26859200  1
  Si  Si4  1  0.53686100  0.33208500  0.23173700  1
  Si  Si5  1  0.03686000  0.33207200  0.73174700  1
  Si  Si6  1  0.28679600  0.16667500  0.89897500  1
  Si  Si7  1  0.78679300  0.16669300  0.39898600  1
  O  O0  1  0.31587800  0.98275700  0.25980400  1
  O  O1  1  0.81584900  0.98278800  0.75989500  1
  O  O2  1  0.56705300  0.51651400  0.77608400  1
  O  O3  1  0.06676500  0.51653100  0.27605000  1
  O  O4  1  0.56596900  0.48239700  0.22408800  1
  O  O5  1  0.06595800  0.48240500  0.72411300  1
  O  O6  1  0.31614200  0.01642200  0.74058400  1
  O  O7  1  0.81611200  0.01644400  0.24062600  1
  O  O8  1  0.13172400  0.82577800  0.93922500  1
  O  O9  1  0.63174200  0.82581800  0.43926400  1
  O  O10  1  0.88181100  0.67348400  0.11326300  1
  O  O11  1  0.38183500  0.67347100  0.61327500  1
  O  O12  1  0.88112900  0.32530500  0.88678700  1
  O  O13  1  0.38113500  0.32532000  0.38679300  1
  O  O14  1  0.13119100  0.17315200  0.06073000  1
  O  O15  1  0.63114900  0.17316300  0.56070700  1
  O  O16  1  0.23761900  0.72538900  0.21913300  1
  O  O17  1  0.73764800  0.72544700  0.71917300  1
  O  O18  1  0.48769900  0.77415400  0.99346600  1
  O  O19  1  0.98768200  0.77415400  0.49343500  1
  O  O20  1  0.48721100  0.22514000  0.00688600  1
  O  O21  1  0.98721400  0.22513800  0.50688200  1
  O  O22  1  0.23761000  0.27376300  0.78119600  1
  O  O23  1  0.73760300  0.27376500  0.28119100  1
loop_
_geom_bond_atom_site_label_1
_geom_bond_atom_site_label_2
_geom_bond_distance
_geom_bond_site_symmetry_2
Li0 O7 1.938557 1_565
Li0 O10 1.976071 1_555
Li0 O9 1.979997 1_555
Li0 O18 2.190056 1_554
Li1 O6 1.938579 1_565
Li1 O11 1.976227 1_555
Li1 O8 1.979756 1_555
Li1 O19 2.190339 1_455
Li2 O4 1.939440 1_555
Li2 O9 1.978190 1_555
Li2 O11 1.980293 1_555
Li2 O16 2.191702 1_555
Li3 O5 1.939458 1_655
Li3 O8 1.977823 1_655
Li3 O10 1.980013 1_556
Li3 O17 2.191613 1_555
Li4 O2 1.941838 1_555
Li4 O15 1.975245 1_555
Li4 O13 1.983896 1_555
Li4 O22 2.190527 1_555
Li5 O3 1.941560 1_655
Li5 O14 1.975334 1_655
Li5 O12 1.983474 1_554
Li5 O23 2.190599 1_555
Li6 O1 1.936661 1_545
Li6 O12 1.972825 1_555
Li6 O15 1.982656 1_555
Li6 O20 2.191304 1_556
Li7 O0 1.937046 1_545
Li7 O13 1.972884 1_555
Li7 O14 1.982175 1_555
Li7 O21 2.191351 1_455
Mn0 O5 2.046523 1_555
Mn0 O3 2.046595 1_555
Mn0 O13 2.100988 1_555
Mn0 O11 2.101540 1_555
Mn1 O6 2.043194 1_565
Mn1 O0 2.043968 1_555
Mn1 O15 2.098121 1_565
Mn1 O9 2.098613 1_555
Mn2 O2 2.045417 1_554
Mn2 O4 2.046357 1_555
Mn2 O12 2.100983 1_554
Mn2 O10 2.101390 1_555
Mn3 O7 2.043003 1_565
Mn3 O1 2.044000 1_554
Mn3 O14 2.098209 1_665
Mn3 O8 2.098942 1_654
O0 Si0 1.615864 1_555
O1 Si1 1.615993 1_555
O2 Si2 1.615505 1_555
O3 Si3 1.615121 1_555
O4 Si4 1.615085 1_555
O5 Si5 1.615252 1_555
O6 Si6 1.615640 1_555
O7 Si7 1.615496 1_555
O8 Si0 1.632611 1_556
O9 Si1 1.632493 1_555
O10 Si3 1.632601 1_655
O11 Si2 1.632841 1_555
O12 Si5 1.632814 1_655
O13 Si4 1.632868 1_555
O14 Si6 1.632493 1_554
O15 Si7 1.632528 1_555
O16 Si3 1.677147 1_555
O16 Si0 1.685485 1_555
O17 Si2 1.677163 1_555
O17 Si1 1.685403 1_555
O18 Si0 1.678156 1_556
O18 Si2 1.686062 1_555
O19 Si1 1.678134 1_555
O19 Si3 1.685929 1_655
O20 Si6 1.677165 1_554
O20 Si4 1.685250 1_555
O21 Si7 1.677123 1_555
O21 Si5 1.685284 1_655
O22 Si5 1.678302 1_555
O22 Si6 1.685319 1_555
O23 Si4 1.678315 1_555
O23 Si7 1.685271 1_555
