# generated using pymatgen
data_Li4VP2O9
_symmetry_space_group_name_H-M   'P 1'
_cell_length_a   6.85492100
_cell_length_b   10.24113600
_cell_length_c   13.77038900
_cell_angle_alpha   90.00000000
_cell_angle_beta   90.00000000
_cell_angle_gamma   90.00000000
_symmetry_Int_Tables_number   1
_chemical_formula_structural   Li4VP2O9
_chemical_formula_sum   'Li16 V4 P8 O36'
_cell_volume   966.71130288
_cell_formula_units_Z   4
loop_
 _symmetry_equiv_pos_site_id
 _symmetry_equiv_pos_as_xyz
  1  'x, y, z'
loop_
 _atom_site_type_symbol
 _atom_site_label
 _atom_site_symmetry_multiplicity
 _atom_site_fract_x
 _atom_site_fract_y
 _atom_site_fract_z
 _atom_site_occupancy
  Li  Li0  1  0.16262300  0.39595000  0.58758400  1
  Li  Li1  1  0.16262300  0.39595000  0.91241600  1
  Li  Li2  1  0.09517600  0.80627000  0.53802700  1
  Li  Li3  1  0.09517600  0.80627000  0.96197300  1
  Li  Li4  1  0.40482400  0.30627000  0.03802700  1
  Li  Li5  1  0.40482400  0.30627000  0.46197300  1
  Li  Li6  1  0.33737700  0.89595000  0.08758400  1
  Li  Li7  1  0.33737700  0.89595000  0.41241600  1
  Li  Li8  1  0.66262300  0.10405000  0.58758400  1
  Li  Li9  1  0.66262300  0.10405000  0.91241600  1
  Li  Li10  1  0.59517600  0.69373000  0.53802700  1
  Li  Li11  1  0.59517600  0.69373000  0.96197300  1
  Li  Li12  1  0.90482400  0.19373000  0.46197300  1
  Li  Li13  1  0.90482400  0.19373000  0.03802700  1
  Li  Li14  1  0.83737700  0.60405000  0.41241600  1
  Li  Li15  1  0.83737700  0.60405000  0.08758400  1
  V  V0  1  0.06376500  0.76602000  0.25000000  1
  V  V1  1  0.43623500  0.26602000  0.75000000  1
  V  V2  1  0.56376500  0.73398000  0.25000000  1
  V  V3  1  0.93623500  0.23398000  0.75000000  1
  P  P0  1  0.20071300  0.10202400  0.91658400  1
  P  P1  1  0.20071300  0.10202400  0.58341600  1
  P  P2  1  0.29928700  0.60202400  0.08341600  1
  P  P3  1  0.29928700  0.60202400  0.41658400  1
  P  P4  1  0.70071300  0.39797600  0.58341600  1
  P  P5  1  0.70071300  0.39797600  0.91658400  1
  P  P6  1  0.79928700  0.89797600  0.08341600  1
  P  P7  1  0.79928700  0.89797600  0.41658400  1
  O  O0  1  0.98309700  0.89680200  0.15076400  1
  O  O1  1  0.98309700  0.89680200  0.34923600  1
  O  O2  1  0.17585800  0.21636200  0.50935700  1
  O  O3  1  0.17585800  0.21636200  0.99064300  1
  O  O4  1  0.18988500  0.31610800  0.75000000  1
  O  O5  1  0.22221300  0.97056500  0.96821100  1
  O  O6  1  0.22221300  0.97056500  0.53178900  1
  O  O7  1  0.11057400  0.62713000  0.35521900  1
  O  O8  1  0.11057400  0.62713000  0.14478100  1
  O  O9  1  0.38942600  0.12713000  0.64478100  1
  O  O10  1  0.38942600  0.12713000  0.85521900  1
  O  O11  1  0.27778700  0.47056500  0.03178900  1
  O  O12  1  0.27778700  0.47056500  0.46821100  1
  O  O13  1  0.31011500  0.81610800  0.25000000  1
  O  O14  1  0.32414200  0.71636200  0.00935700  1
  O  O15  1  0.32414200  0.71636200  0.49064300  1
  O  O16  1  0.51690300  0.39680200  0.65076400  1
  O  O17  1  0.51690300  0.39680200  0.84923600  1
  O  O18  1  0.48309700  0.60319800  0.15076400  1
  O  O19  1  0.48309700  0.60319800  0.34923600  1
  O  O20  1  0.67585800  0.28363800  0.50935700  1
  O  O21  1  0.67585800  0.28363800  0.99064300  1
  O  O22  1  0.68988500  0.18389200  0.75000000  1
  O  O23  1  0.72221300  0.52943500  0.53178900  1
  O  O24  1  0.72221300  0.52943500  0.96821100  1
  O  O25  1  0.61057400  0.87287000  0.14478100  1
  O  O26  1  0.61057400  0.87287000  0.35521900  1
  O  O27  1  0.88942600  0.37287000  0.64478100  1
  O  O28  1  0.88942600  0.37287000  0.85521900  1
  O  O29  1  0.77778700  0.02943500  0.03178900  1
  O  O30  1  0.77778700  0.02943500  0.46821100  1
  O  O31  1  0.81011500  0.68389200  0.25000000  1
  O  O32  1  0.82414200  0.78363800  0.49064300  1
  O  O33  1  0.82414200  0.78363800  0.00935700  1
  O  O34  1  0.01690300  0.10319800  0.65076400  1
  O  O35  1  0.01690300  0.10319800  0.84923600  1
loop_
_geom_bond_atom_site_label_1
_geom_bond_atom_site_label_2
_geom_bond_distance
_geom_bond_site_symmetry_2
Li0 O12 1.977182 1_555
Li0 O27 2.045334 1_455
Li0 O2 2.133361 1_555
Li0 O4 2.388637 1_555
Li0 O16 2.579711 1_555
Li1 O11 1.977182 1_556
Li1 O28 2.045334 1_455
Li1 O3 2.133361 1_555
Li1 O4 2.388637 1_555
Li1 O17 2.579711 1_555
Li2 O6 1.896511 1_555
Li2 O15 1.933137 1_555
Li2 O32 1.982757 1_455
Li3 O5 1.896511 1_555
Li3 O14 1.933137 1_556
Li3 O33 1.982757 1_456
Li4 O11 1.896511 1_555
Li4 O3 1.933137 1_554
Li4 O21 1.982757 1_554
Li5 O12 1.896511 1_555
Li5 O2 1.933137 1_555
Li5 O20 1.982757 1_555
Li6 O5 1.977182 1_554
Li6 O25 2.045334 1_555
Li6 O14 2.133361 1_555
Li6 O13 2.388637 1_555
Li6 O0 2.579711 1_455
Li7 O6 1.977182 1_555
Li7 O26 2.045334 1_555
Li7 O15 2.133361 1_555
Li7 O13 2.388637 1_555
Li7 O1 2.579711 1_455
Li8 O30 1.977182 1_555
Li8 O9 2.045334 1_555
Li8 O20 2.133361 1_555
Li8 O22 2.388637 1_555
Li8 O34 2.579711 1_655
Li9 O29 1.977182 1_556
Li9 O10 2.045334 1_555
Li9 O21 2.133361 1_555
Li9 O22 2.388637 1_555
Li9 O35 2.579711 1_655
Li10 O23 1.896511 1_555
Li10 O32 1.933137 1_555
Li10 O15 1.982757 1_555
Li11 O24 1.896511 1_555
Li11 O33 1.933137 1_556
Li11 O14 1.982757 1_556
Li12 O30 1.896511 1_555
Li12 O20 1.933137 1_555
Li12 O2 1.982757 1_655
Li13 O29 1.896511 1_555
Li13 O21 1.933137 1_554
Li13 O3 1.982757 1_654
Li14 O23 1.977182 1_555
Li14 O7 2.045334 1_655
Li14 O32 2.133361 1_555
Li14 O31 2.388637 1_555
Li14 O19 2.579711 1_555
Li15 O24 1.977182 1_554
Li15 O8 2.045334 1_655
Li15 O33 2.133361 1_555
Li15 O31 2.388637 1_555
Li15 O18 2.579711 1_555
O0 P6 1.564557 1_555
O0 V0 1.991740 1_655
O1 P7 1.564557 1_555
O1 V0 1.991740 1_655
O2 P1 1.562111 1_555
O3 P0 1.562111 1_555
O4 V1 1.764898 1_555
O4 V3 1.931496 1_455
O5 P0 1.529585 1_565
O6 P1 1.529585 1_565
O7 P3 1.566397 1_555
O7 V0 2.055599 1_555
O8 P2 1.566397 1_555
O8 V0 2.055599 1_555
O9 P1 1.566397 1_555
O9 V1 2.055599 1_555
O10 P0 1.566397 1_555
O10 V1 2.055599 1_555
O11 P2 1.529585 1_555
O12 P3 1.529585 1_555
O13 V0 1.764898 1_555
O13 V2 1.931496 1_555
O14 P2 1.562111 1_555
O15 P3 1.562111 1_555
O16 P4 1.564557 1_555
O16 V1 1.991740 1_555
O17 P5 1.564557 1_555
O17 V1 1.991740 1_555
O18 P2 1.564557 1_555
O18 V2 1.991740 1_555
O19 P3 1.564557 1_555
O19 V2 1.991740 1_555
O20 P4 1.562111 1_555
O21 P5 1.562111 1_555
O22 V3 1.764898 1_555
O22 V1 1.931496 1_555
O23 P4 1.529585 1_555
O24 P5 1.529585 1_555
O25 P6 1.566397 1_555
O25 V2 2.055599 1_555
O26 P7 1.566397 1_555
O26 V2 2.055599 1_555
O27 P4 1.566397 1_555
O27 V3 2.055599 1_555
O28 P5 1.566397 1_555
O28 V3 2.055599 1_555
O29 P6 1.529585 1_545
O30 P7 1.529585 1_545
O31 V2 1.764898 1_555
O31 V0 1.931496 1_655
O32 P7 1.562111 1_555
O33 P6 1.562111 1_555
O34 P1 1.564557 1_555
O34 V3 1.991740 1_455
O35 P0 1.564557 1_555
O35 V3 1.991740 1_455
