# generated using pymatgen
data_Cu2Ni11O13
_symmetry_space_group_name_H-M   'P 1'
_cell_length_a   2.98030098
_cell_length_b   19.53024604
_cell_length_c   4.19944029
_cell_angle_alpha   83.82813321
_cell_angle_beta   90.00000000
_cell_angle_gamma   85.62410056
_symmetry_Int_Tables_number   1
_chemical_formula_structural   Cu2Ni11O13
_chemical_formula_sum   'Cu2 Ni11 O13'
_cell_volume   242.29920298
_cell_formula_units_Z   1
loop_
 _symmetry_equiv_pos_site_id
 _symmetry_equiv_pos_as_xyz
  1  'x, y, z'
loop_
 _atom_site_type_symbol
 _atom_site_label
 _atom_site_symmetry_multiplicity
 _atom_site_fract_x
 _atom_site_fract_y
 _atom_site_fract_z
 _atom_site_occupancy
  Cu  Cu0  1  0.46214510  0.07570880  0.46214510  1
  Cu  Cu1  1  0.38400890  0.23198320  0.38400890  1
  Ni  Ni0  1  0.00037510  0.99925081  0.00037510  1
  Ni  Ni1  1  0.30668971  0.38662059  0.30668971  1
  Ni  Ni2  1  0.23046671  0.53906658  0.23046671  1
  Ni  Ni3  1  0.07692189  0.84615722  0.07692189  1
  Ni  Ni4  1  0.15385913  0.69228273  0.15385913  1
  Ni  Ni5  1  0.61568729  0.76862542  0.61568729  1
  Ni  Ni6  1  0.53946429  0.92107141  0.53946429  1
  Ni  Ni7  1  0.76923211  0.46153578  0.76923211  1
  Ni  Ni8  1  0.69229487  0.61541027  0.69229487  1
  Ni  Ni9  1  0.84577890  0.30844219  0.84577890  1
  Ni  Ni10  1  0.92307700  0.15384600  0.92307700  1
  O  O0  1  0.61531457  0.76936987  0.11531457  1
  O  O1  1  0.69210852  0.61578195  0.19210852  1
  O  O2  1  0.53855454  0.92289093  0.03855454  1
  O  O3  1  0.00182457  0.99635086  0.50182457  1
  O  O4  1  0.76880333  0.46239434  0.26880333  1
  O  O5  1  0.84432943  0.31134214  0.34432943  1
  O  O6  1  0.92307700  0.15384600  0.42307700  1
  O  O7  1  0.15404448  0.69191005  0.65404448  1
  O  O8  1  0.07735067  0.84529866  0.57735067  1
  O  O9  1  0.23083943  0.53832213  0.73083943  1
  O  O10  1  0.30759946  0.38480107  0.80759946  1
  O  O11  1  0.46150052  0.07699896  0.96150052  1
  O  O12  1  0.38465348  0.23069304  0.88465348  1
loop_
_geom_bond_atom_site_label_1
_geom_bond_atom_site_label_2
_geom_bond_distance
_geom_bond_site_symmetry_2
Cu0 O11 2.099867 1_554
Cu0 O11 2.099871 1_555
Cu0 O6 2.123408 1_455
Cu0 O6 2.123410 1_555
Cu0 O3 2.140309 1_545
Cu0 O3 2.140311 1_645
Cu1 O12 2.099867 1_555
Cu1 O12 2.099871 1_554
Cu1 O6 2.123408 1_555
Cu1 O6 2.123410 1_455
Cu1 O5 2.140324 1_555
Cu1 O5 2.140324 1_455
Ni0 O2 2.099035 1_555
Ni0 O2 2.099037 1_455
Ni0 O3 2.100468 1_555
Ni0 O3 2.100473 1_554
Ni0 O11 2.118049 1_564
Ni0 O11 2.118051 1_464
Ni1 O5 2.084343 1_455
Ni1 O5 2.084345 1_555
Ni1 O4 2.091058 1_455
Ni1 O4 2.091061 1_555
Ni1 O10 2.100016 1_555
Ni1 O10 2.100016 1_554
Ni2 O9 2.099768 1_554
Ni2 O9 2.099772 1_555
Ni2 O4 2.103298 1_455
Ni2 O4 2.103300 1_555
Ni2 O1 2.103887 1_555
Ni2 O1 2.103889 1_455
Ni3 O8 2.099784 1_555
Ni3 O8 2.099788 1_554
Ni3 O2 2.104138 1_555
Ni3 O2 2.104140 1_455
Ni3 O0 2.104870 1_555
Ni3 O0 2.104874 1_455
Ni4 O7 2.099728 1_555
Ni4 O7 2.099737 1_554
Ni4 O1 2.100956 1_555
Ni4 O1 2.100960 1_455
Ni4 O0 2.108973 1_555
Ni4 O0 2.108977 1_455
Ni5 O0 2.099768 1_556
Ni5 O0 2.099772 1_555
Ni5 O8 2.103313 1_655
Ni5 O8 2.103313 1_555
Ni5 O7 2.103887 1_655
Ni5 O7 2.103889 1_555
Ni6 O3 2.084357 1_555
Ni6 O3 2.084357 1_655
Ni6 O8 2.091046 1_555
Ni6 O8 2.091046 1_655
Ni6 O2 2.100016 1_555
Ni6 O2 2.100016 1_556
Ni7 O4 2.099784 1_555
Ni7 O4 2.099788 1_556
Ni7 O10 2.104153 1_655
Ni7 O10 2.104153 1_555
Ni7 O9 2.104858 1_555
Ni7 O9 2.104860 1_655
Ni8 O1 2.099730 1_556
Ni8 O1 2.099735 1_555
Ni8 O7 2.100943 1_655
Ni8 O7 2.100945 1_555
Ni8 O9 2.108988 1_555
Ni8 O9 2.108990 1_655
Ni9 O10 2.099022 1_555
Ni9 O10 2.099022 1_655
Ni9 O5 2.100468 1_555
Ni9 O5 2.100473 1_556
Ni9 O12 2.118064 1_555
Ni9 O12 2.118064 1_655
Ni10 O6 2.099720 1_555
Ni10 O6 2.099720 1_556
Ni10 O11 2.105689 1_555
Ni10 O11 2.105689 1_655
Ni10 O12 2.105689 1_555
Ni10 O12 2.105689 1_655
