# generated using pymatgen
data_Li2MnVP2(HO5)2
_symmetry_space_group_name_H-M   'P 1'
_cell_length_a   5.46923300
_cell_length_b   7.41603920
_cell_length_c   10.22881963
_cell_angle_alpha   105.59391432
_cell_angle_beta   96.67193132
_cell_angle_gamma   110.27975014
_symmetry_Int_Tables_number   1
_chemical_formula_structural   Li2MnVP2(HO5)2
_chemical_formula_sum   'Li4 Mn2 V2 P4 H4 O20'
_cell_volume   364.63647825
_cell_formula_units_Z   2
loop_
 _symmetry_equiv_pos_site_id
 _symmetry_equiv_pos_as_xyz
  1  'x, y, z'
loop_
 _atom_site_type_symbol
 _atom_site_label
 _atom_site_symmetry_multiplicity
 _atom_site_fract_x
 _atom_site_fract_y
 _atom_site_fract_z
 _atom_site_occupancy
  Li  Li0  1  0.10773500  0.71160200  0.54101200  1
  Li  Li1  1  0.39256000  0.78397700  0.96068300  1
  Li  Li2  1  0.61377700  0.21676100  0.03796200  1
  Li  Li3  1  0.88778500  0.28677000  0.46089500  1
  Mn  Mn0  1  0.25299900  0.25280400  0.75176100  1
  Mn  Mn1  1  0.50060100  0.50140700  0.50058900  1
  V  V0  1  0.74469500  0.74625500  0.24926900  1
  V  V1  1  0.00068000  0.99872000  0.99825900  1
  P  P0  1  0.08853400  0.45467200  0.22221600  1
  P  P1  1  0.58931500  0.95499600  0.72049900  1
  P  P2  1  0.40368700  0.04474300  0.27774500  1
  P  P3  1  0.91634700  0.54483400  0.77909100  1
  H  H0  1  0.21822900  0.15481600  0.48875500  1
  H  H1  1  0.28914500  0.35174400  0.01122200  1
  H  H2  1  0.71116900  0.64780200  0.98718600  1
  H  H3  1  0.78362700  0.84796700  0.51358800  1
  O  O0  1  0.04350400  0.78103200  0.85142600  1
  O  O1  1  0.15014200  0.94835300  0.32860100  1
  O  O2  1  0.14877300  0.48184300  0.82638500  1
  O  O3  1  0.33584300  0.99542200  0.11598800  1
  O  O4  1  0.14756900  0.50409100  0.38152800  1
  O  O5  1  0.26759400  0.21979500  0.94292300  1
  O  O6  1  0.45987300  0.71923500  0.64894700  1
  O  O7  1  0.24034500  0.28739700  0.55654400  1
  O  O8  1  0.34401700  0.55098300  0.17182800  1
  O  O9  1  0.63095400  0.97705700  0.32185000  1
  O  O10  1  0.35718300  0.02097500  0.68057400  1
  O  O11  1  0.66918300  0.45258300  0.83381200  1
  O  O12  1  0.76107300  0.71435300  0.44543100  1
  O  O13  1  0.53115700  0.27986900  0.34925000  1
  O  O14  1  0.73620300  0.78092600  0.05654200  1
  O  O15  1  0.85127400  0.49501800  0.61934500  1
  O  O16  1  0.66501700  0.00351000  0.88245000  1
  O  O17  1  0.86088500  0.51968900  0.17270300  1
  O  O18  1  0.83436000  0.04824100  0.66490600  1
  O  O19  1  0.96416300  0.21975800  0.14823400  1
loop_
_geom_bond_atom_site_label_1
_geom_bond_atom_site_label_2
_geom_bond_distance
_geom_bond_site_symmetry_2
Li0 O4 2.010530 1_555
Li0 O12 2.039069 1_455
Li0 O6 2.080397 1_555
Li0 O15 2.140237 1_455
Li0 O10 2.186282 1_565
Li1 O14 2.026699 1_556
Li1 O3 2.047229 1_556
Li1 O0 2.087150 1_555
Li1 O2 2.129295 1_555
Li1 O16 2.192543 1_565
Li2 O5 2.035668 1_554
Li2 O16 2.041630 1_554
Li2 O19 2.097585 1_555
Li2 O17 2.137939 1_555
Li2 O3 2.213282 1_545
Li3 O15 1.998768 1_555
Li3 O7 2.056281 1_655
Li3 O13 2.119657 1_555
Li3 O4 2.158553 1_655
Li3 O9 2.194172 1_545
Mn0 O2 1.966708 1_555
Mn0 O10 1.978174 1_555
Mn0 O5 2.030852 1_555
Mn0 O7 2.076917 1_555
Mn0 O11 2.151831 1_555
Mn0 O18 2.174400 1_455
Mn1 O12 1.986945 1_555
Mn1 O6 1.993012 1_555
Mn1 O7 1.996055 1_555
Mn1 O13 2.001651 1_555
Mn1 O4 2.169073 1_555
Mn1 O15 2.169974 1_555
H0 O7 0.996842 1_555
H1 O5 0.996429 1_554
H2 O14 1.001938 1_556
H2 O11 1.753473 1_555
H3 O12 1.003491 1_555
H3 O18 1.748486 1_565
O0 P3 1.561591 1_455
O0 V1 1.989254 1_555
O1 P2 1.544316 1_565
O1 V0 2.108589 1_455
O2 P3 1.567937 1_455
O3 P2 1.564288 1_565
O3 V1 2.084451 1_554
O4 P0 1.539057 1_555
O5 V1 2.042358 1_545
O6 P1 1.558004 1_555
O8 P0 1.549731 1_555
O8 V0 2.075299 1_555
O9 P2 1.557063 1_565
O9 V0 2.007508 1_555
O10 P1 1.560648 1_545
O11 P3 1.532745 1_555
O12 V0 2.078030 1_555
O13 P2 1.553910 1_555
O14 V1 2.038388 1_654
O14 V0 2.052824 1_555
O15 P3 1.543476 1_555
O16 P1 1.569080 1_545
O16 V1 2.082606 1_645
O17 P0 1.562080 1_655
O17 V0 1.997164 1_555
O18 P1 1.530937 1_545
O19 P0 1.555798 1_655
O19 V1 2.006607 1_644
