# generated using pymatgen
data_Na3SiSnBO7
_symmetry_space_group_name_H-M   'P 1'
_cell_length_a   6.76166100
_cell_length_b   5.37439400
_cell_length_c   9.11741383
_cell_angle_alpha   88.06242121
_cell_angle_beta   90.00000000
_cell_angle_gamma   90.00000000
_symmetry_Int_Tables_number   1
_chemical_formula_structural   Na3SiSnBO7
_chemical_formula_sum   'Na6 Si2 Sn2 B2 O14'
_cell_volume   331.13583808
_cell_formula_units_Z   2
loop_
 _symmetry_equiv_pos_site_id
 _symmetry_equiv_pos_as_xyz
  1  'x, y, z'
loop_
 _atom_site_type_symbol
 _atom_site_label
 _atom_site_symmetry_multiplicity
 _atom_site_fract_x
 _atom_site_fract_y
 _atom_site_fract_z
 _atom_site_occupancy
  Na  Na0  1  0.75000000  0.23891500  0.91916600  1
  Na  Na1  1  0.99368200  0.74546500  0.75247600  1
  Na  Na2  1  0.50631800  0.74546500  0.75247600  1
  Na  Na3  1  0.49368200  0.25453500  0.24752400  1
  Na  Na4  1  0.00631800  0.25453500  0.24752400  1
  Na  Na5  1  0.25000000  0.76108500  0.08083400  1
  Si  Si0  1  0.75000000  0.28072900  0.57445100  1
  Si  Si1  1  0.25000000  0.71927100  0.42554900  1
  Sn  Sn0  1  0.25000000  0.21656000  0.65981500  1
  Sn  Sn1  1  0.75000000  0.78344000  0.34018500  1
  B  B0  1  0.25000000  0.27533200  0.93838200  1
  B  B1  1  0.75000000  0.72466800  0.06161800  1
  O  O0  1  0.75000000  0.68437000  0.91720800  1
  O  O1  1  0.25000000  0.03893200  0.87505900  1
  O  O2  1  0.25000000  0.47204800  0.82905100  1
  O  O3  1  0.94104200  0.20606000  0.67855600  1
  O  O4  1  0.55895800  0.20606000  0.67855600  1
  O  O5  1  0.75000000  0.58590500  0.53758400  1
  O  O6  1  0.25000000  0.86209700  0.58149700  1
  O  O7  1  0.75000000  0.13790300  0.41850300  1
  O  O8  1  0.25000000  0.41409500  0.46241600  1
  O  O9  1  0.44104200  0.79394000  0.32144400  1
  O  O10  1  0.05895800  0.79394000  0.32144400  1
  O  O11  1  0.75000000  0.52795200  0.17094900  1
  O  O12  1  0.75000000  0.96106800  0.12494100  1
  O  O13  1  0.25000000  0.31563000  0.08279200  1
loop_
_geom_bond_atom_site_label_1
_geom_bond_atom_site_label_2
_geom_bond_distance
_geom_bond_site_symmetry_2
Na0 O12 2.358021 1_546
Na0 O0 2.393514 1_555
Na0 O3 2.557053 1_555
Na0 O4 2.557053 1_555
Na0 O11 2.814962 1_556
Na0 O0 2.981000 1_545
Na1 O0 2.246143 1_555
Na1 O2 2.362436 1_655
Na1 O6 2.400150 1_655
Na1 O3 2.568228 1_565
Na1 O1 2.619095 1_665
Na1 O5 2.720769 1_555
Na2 O0 2.246143 1_555
Na2 O2 2.362436 1_555
Na2 O6 2.400150 1_555
Na2 O4 2.568228 1_565
Na2 O1 2.619095 1_565
Na2 O5 2.720769 1_555
Na3 O13 2.246143 1_555
Na3 O11 2.362436 1_555
Na3 O7 2.400150 1_555
Na3 O9 2.568228 1_545
Na3 O12 2.619095 1_545
Na3 O8 2.720769 1_555
Na4 O13 2.246143 1_555
Na4 O11 2.362436 1_455
Na4 O7 2.400150 1_455
Na4 O10 2.568228 1_545
Na4 O12 2.619095 1_445
Na4 O8 2.720769 1_555
Na5 O1 2.358021 1_564
Na5 O13 2.393514 1_555
Na5 O10 2.557053 1_555
Na5 O9 2.557053 1_555
Na5 O2 2.814962 1_554
Na5 O13 2.981000 1_565
B0 O13 1.341546 1_556
B0 O1 1.413192 1_555
B0 O2 1.428325 1_555
B1 O0 1.341546 1_554
B1 O12 1.413192 1_555
B1 O11 1.428325 1_555
O1 Sn0 2.153123 1_555
O2 Sn0 2.099877 1_555
O3 Si0 1.644644 1_555
O3 Sn0 2.096650 1_655
O4 Si0 1.644644 1_555
O4 Sn0 2.096650 1_555
O5 Si0 1.663055 1_555
O5 Sn1 2.058403 1_555
O6 Si1 1.638491 1_555
O6 Sn0 2.056934 1_565
O7 Si0 1.638491 1_555
O7 Sn1 2.056934 1_545
O8 Si1 1.663055 1_555
O8 Sn0 2.058403 1_555
O9 Si1 1.644644 1_555
O9 Sn1 2.096650 1_555
O10 Si1 1.644644 1_555
O10 Sn1 2.096650 1_455
O11 Sn1 2.099877 1_555
O12 Sn1 2.153123 1_555
