# generated using pymatgen
data_CuPH4O5F
_symmetry_space_group_name_H-M   'P 1'
_cell_length_a   7.88476800
_cell_length_b   7.66301400
_cell_length_c   9.26787476
_cell_angle_alpha   67.00699909
_cell_angle_beta   90.00000000
_cell_angle_gamma   90.00000000
_symmetry_Int_Tables_number   1
_chemical_formula_structural   CuPH4O5F
_chemical_formula_sum   'Cu4 P4 H16 O20 F4'
_cell_volume   515.48649640
_cell_formula_units_Z   4
loop_
 _symmetry_equiv_pos_site_id
 _symmetry_equiv_pos_as_xyz
  1  'x, y, z'
loop_
 _atom_site_type_symbol
 _atom_site_label
 _atom_site_symmetry_multiplicity
 _atom_site_fract_x
 _atom_site_fract_y
 _atom_site_fract_z
 _atom_site_occupancy
  Cu  Cu0  1  0.68913900  0.60357200  0.95133800  1
  Cu  Cu1  1  0.18913900  0.39642800  0.54866200  1
  Cu  Cu2  1  0.31086100  0.39642800  0.04866200  1
  Cu  Cu3  1  0.81086100  0.60357200  0.45133800  1
  P  P0  1  0.49906000  0.53923400  0.68551300  1
  P  P1  1  0.99906000  0.46076600  0.81448700  1
  P  P2  1  0.50094000  0.46076600  0.31448700  1
  P  P3  1  0.00094000  0.53923400  0.18551300  1
  H  H0  1  0.77789200  0.99520900  0.18153500  1
  H  H1  1  0.27789200  0.00479100  0.31846500  1
  H  H2  1  0.22210800  0.00479100  0.81846500  1
  H  H3  1  0.72210800  0.99520900  0.68153500  1
  H  H4  1  0.76477000  0.17857900  0.02258100  1
  H  H5  1  0.26477000  0.82142100  0.47741900  1
  H  H6  1  0.23523000  0.82142100  0.97741900  1
  H  H7  1  0.73523000  0.17857900  0.52258100  1
  H  H8  1  0.67141900  0.93126500  0.96303400  1
  H  H9  1  0.17141900  0.06873500  0.53696600  1
  H  H10  1  0.32858100  0.06873500  0.03696600  1
  H  H11  1  0.82858100  0.93126500  0.46303400  1
  H  H12  1  0.49420200  0.90110300  0.89077900  1
  H  H13  1  0.99420200  0.09889700  0.60922100  1
  H  H14  1  0.50579800  0.09889700  0.10922100  1
  H  H15  1  0.00579800  0.90110300  0.39077900  1
  O  O0  1  0.48790100  0.56502200  0.84165500  1
  O  O1  1  0.98790100  0.43497800  0.65834500  1
  O  O2  1  0.51209900  0.43497800  0.15834500  1
  O  O3  1  0.01209900  0.56502200  0.34165500  1
  O  O4  1  0.33025700  0.58174200  0.59719100  1
  O  O5  1  0.83025700  0.41825800  0.90280900  1
  O  O6  1  0.66974300  0.41825800  0.40280900  1
  O  O7  1  0.16974300  0.58174200  0.09719100  1
  O  O8  1  0.64885400  0.64722500  0.58945800  1
  O  O9  1  0.14885400  0.35277500  0.91054200  1
  O  O10  1  0.35114600  0.35277500  0.41054200  1
  O  O11  1  0.85114600  0.64722500  0.08945800  1
  O  O12  1  0.71178800  0.05398300  0.08396100  1
  O  O13  1  0.21178800  0.94601700  0.41603900  1
  O  O14  1  0.28821200  0.94601700  0.91603900  1
  O  O15  1  0.78821200  0.05398300  0.58396100  1
  O  O16  1  0.62018500  0.88034100  0.88843400  1
  O  O17  1  0.12018500  0.11965900  0.61156600  1
  O  O18  1  0.37981500  0.11965900  0.11156600  1
  O  O19  1  0.87981500  0.88034100  0.38843400  1
  F  F0  1  0.53179700  0.31866800  0.73273900  1
  F  F1  1  0.03179700  0.68133200  0.76726100  1
  F  F2  1  0.46820300  0.68133200  0.26726100  1
  F  F3  1  0.96820300  0.31866800  0.23273900  1
loop_
_geom_bond_atom_site_label_1
_geom_bond_atom_site_label_2
_geom_bond_distance
_geom_bond_site_symmetry_2
Cu0 O11 1.927887 1_556
Cu0 O0 1.967958 1_555
Cu0 O5 1.988943 1_555
Cu0 O16 2.041485 1_555
Cu0 O2 2.315603 1_556
Cu1 O10 1.927887 1_555
Cu1 O1 1.967958 1_455
Cu1 O4 1.988943 1_555
Cu1 O17 2.041485 1_555
Cu1 O3 2.315603 1_555
Cu2 O9 1.927887 1_554
Cu2 O2 1.967958 1_555
Cu2 O7 1.988943 1_555
Cu2 O18 2.041485 1_555
Cu2 O0 2.315603 1_554
Cu3 O8 1.927887 1_555
Cu3 O3 1.967958 1_655
Cu3 O6 1.988943 1_555
Cu3 O19 2.041485 1_555
Cu3 O1 2.315603 1_555
H0 O12 0.986960 1_565
H1 O13 0.986960 1_545
H2 O14 0.986960 1_545
H3 O15 0.986960 1_565
H4 O12 0.992676 1_555
H5 O13 0.992676 1_555
H6 O14 0.992676 1_555
H7 O15 0.992676 1_555
H8 O16 1.002127 1_555
H9 O17 1.002127 1_555
H10 O18 1.002127 1_555
H11 O19 1.002127 1_555
H12 O16 1.007583 1_555
H13 O17 1.007583 1_655
H14 O18 1.007583 1_555
H15 O19 1.007583 1_455
O0 P0 1.537632 1_555
O1 P1 1.537632 1_555
O2 P2 1.537632 1_555
O3 P3 1.537632 1_555
O4 P0 1.529485 1_555
O5 P1 1.529485 1_555
O6 P2 1.529485 1_555
O7 P3 1.529485 1_555
O8 P0 1.515507 1_555
O9 P1 1.515507 1_455
O10 P2 1.515507 1_555
O11 P3 1.515507 1_655
F0 P0 1.592807 1_555
F1 P1 1.592807 1_455
F2 P2 1.592807 1_555
F3 P3 1.592807 1_655
