# generated using pymatgen
data_Li3CuS2
_symmetry_space_group_name_H-M   'P 1'
_cell_length_a   8.19207602
_cell_length_b   8.19207602
_cell_length_c   8.19207602
_cell_angle_alpha   122.36313470
_cell_angle_beta   122.36313470
_cell_angle_gamma   85.95345405
_symmetry_Int_Tables_number   1
_chemical_formula_structural   Li3CuS2
_chemical_formula_sum   'Li12 Cu4 S8'
_cell_volume   373.84534410
_cell_formula_units_Z   4
loop_
 _symmetry_equiv_pos_site_id
 _symmetry_equiv_pos_as_xyz
  1  'x, y, z'
loop_
 _atom_site_type_symbol
 _atom_site_label
 _atom_site_symmetry_multiplicity
 _atom_site_fract_x
 _atom_site_fract_y
 _atom_site_fract_z
 _atom_site_occupancy
  Li  Li0  1  0.71235800  0.28764200  0.00000000  1
  Li  Li1  1  0.87500000  0.12500000  0.75000000  1
  Li  Li2  1  0.37500000  0.12500000  0.25000000  1
  Li  Li3  1  0.71235800  0.71235800  0.42471500  1
  Li  Li4  1  0.28764200  0.71235800  0.00000000  1
  Li  Li5  1  0.46235800  0.96235800  0.92471500  1
  Li  Li6  1  0.87500000  0.62500000  0.75000000  1
  Li  Li7  1  0.87500000  0.12500000  0.25000000  1
  Li  Li8  1  0.03764200  0.53764200  0.07528500  1
  Li  Li9  1  0.46235800  0.53764200  0.50000000  1
  Li  Li10  1  0.28764200  0.28764200  0.57528500  1
  Li  Li11  1  0.03764200  0.96235800  0.50000000  1
  Cu  Cu0  1  0.35246300  0.35246300  0.00000000  1
  Cu  Cu1  1  0.64753700  0.64753700  0.00000000  1
  Cu  Cu2  1  0.10246300  0.60246300  0.50000000  1
  Cu  Cu3  1  0.39753700  0.89753700  0.50000000  1
  S  S0  1  0.66508700  0.89473800  0.77035000  1
  S  S1  1  0.62561200  0.35526200  0.27035000  1
  S  S2  1  0.10526200  0.33491300  0.22965000  1
  S  S3  1  0.64473800  0.37438800  0.72965000  1
  S  S4  1  0.10526200  0.87561200  0.77035000  1
  S  S5  1  0.64473800  0.91508700  0.27035000  1
  S  S6  1  0.08491300  0.35526200  0.72965000  1
  S  S7  1  0.12438800  0.89473800  0.22965000  1
loop_
_geom_bond_atom_site_label_1
_geom_bond_atom_site_label_2
_geom_bond_distance
_geom_bond_site_symmetry_2
Li0 S1 2.456178 1_555
Li0 S3 2.456178 1_554
Li0 S2 2.638675 1_655
Li0 S0 2.638675 1_544
Li1 S5 2.691457 1_545
Li1 S2 2.691457 1_656
Li1 S4 2.691458 1_645
Li1 S3 2.691458 1_555
Li1 S6 2.764866 1_655
Li1 S0 2.764866 1_545
Li2 S4 2.691458 1_544
Li2 S3 2.691458 1_555
Li2 S5 2.691463 1_545
Li2 S2 2.691463 1_555
Li2 S1 2.764860 1_555
Li2 S7 2.764860 1_545
Li3 S5 2.456164 1_555
Li3 S1 2.456180 1_555
Li3 S4 2.638677 1_655
Li3 S0 2.638689 1_555
Li4 S5 2.456175 1_555
Li4 S6 2.456175 1_554
Li4 S7 2.638676 1_555
Li4 S4 2.638676 1_554
Li5 S0 2.456164 1_555
Li5 S4 2.456180 1_555
Li5 S1 2.638677 1_566
Li5 S5 2.638689 1_556
Li6 S7 2.691458 1_656
Li6 S1 2.691458 1_555
Li6 S0 2.691463 1_555
Li6 S6 2.691463 1_655
Li6 S4 2.764860 1_655
Li6 S3 2.764860 1_555
Li7 S0 2.691457 1_544
Li7 S6 2.691457 1_655
Li7 S1 2.691458 1_555
Li7 S7 2.691458 1_645
Li7 S2 2.764866 1_655
Li7 S5 2.764866 1_545
Li8 S2 2.456164 1_555
Li8 S7 2.456180 1_555
Li8 S3 2.638677 1_454
Li8 S6 2.638689 1_554
Li9 S0 2.456175 1_555
Li9 S2 2.456175 1_555
Li9 S3 2.638676 1_555
Li9 S1 2.638676 1_555
Li10 S6 2.456164 1_555
Li10 S3 2.456180 1_555
Li10 S7 2.638677 1_545
Li10 S2 2.638689 1_555
Li11 S4 2.456178 1_555
Li11 S7 2.456178 1_555
Li11 S6 2.638675 1_565
Li11 S5 2.638675 1_455
Cu0 S6 2.135415 1_554
Cu0 S1 2.135419 1_555
Cu1 S5 2.135415 1_555
Cu1 S3 2.135419 1_554
Cu2 S2 2.135415 1_555
Cu2 S4 2.135419 1_555
Cu3 S0 2.135415 1_555
Cu3 S7 2.135419 1_555
