# generated using pymatgen
data_Cr5Si3
_symmetry_space_group_name_H-M   'P 1'
_cell_length_a   4.54810045
_cell_length_b   6.75939638
_cell_length_c   6.75949757
_cell_angle_alpha   83.50290355
_cell_angle_beta   70.34868209
_cell_angle_gamma   70.34787946
_symmetry_Int_Tables_number   1
_chemical_formula_structural   Cr5Si3
_chemical_formula_sum   'Cr10 Si6'
_cell_volume   184.30094870
_cell_formula_units_Z   2
loop_
 _symmetry_equiv_pos_site_id
 _symmetry_equiv_pos_as_xyz
  1  'x, y, z'
loop_
 _atom_site_type_symbol
 _atom_site_label
 _atom_site_symmetry_multiplicity
 _atom_site_fract_x
 _atom_site_fract_y
 _atom_site_fract_z
 _atom_site_occupancy
  Cr  Cr0  1  0.24997892  0.50000395  0.50000549  1
  Cr  Cr1  1  0.75001711  0.49998868  0.50002854  1
  Cr  Cr2  1  0.07660295  0.15168811  0.69577585  1
  Cr  Cr3  1  0.77202470  0.30423260  0.15172659  1
  Cr  Cr4  1  0.22797817  0.69577256  0.84825708  1
  Cr  Cr5  1  0.92336724  0.84832792  0.30424753  1
  Cr  Cr6  1  0.27202203  0.15170990  0.30426313  1
  Cr  Cr7  1  0.72797488  0.84829900  0.69574773  1
  Cr  Cr8  1  0.42343207  0.30418537  0.84827557  1
  Cr  Cr9  1  0.57660286  0.69578571  0.15169432  1
  Si  Si0  1  0.24999722  0.99993471  0.00006147  1
  Si  Si1  1  0.74999470  0.00007065  0.99992674  1
  Si  Si2  1  0.16749373  0.49999864  0.16521391  1
  Si  Si3  1  0.33251850  0.83476407  0.49999625  1
  Si  Si4  1  0.66748478  0.16523648  0.49999526  1
  Si  Si5  1  0.83250816  0.50000163  0.83478155  1
loop_
_geom_bond_atom_site_label_1
_geom_bond_atom_site_label_2
_geom_bond_distance
_geom_bond_site_symmetry_2
Cr0 Cr1 2.273859 1_455
Cr0 Cr1 2.274242 1_555
Cr0 Si3 2.415033 1_555
Cr0 Si2 2.415171 1_555
Cr0 Si4 2.415761 1_555
Cr0 Si5 2.415785 1_455
Cr1 Si5 2.414934 1_555
Cr1 Si4 2.415010 1_555
Cr1 Si3 2.415827 1_555
Cr1 Si2 2.415981 1_655
Cr2 Si3 2.371414 1_545
Cr2 Si5 2.387354 1_455
Cr2 Si0 2.444178 1_546
Cr2 Si1 2.444728 1_455
Cr2 Si4 2.593813 1_555
Cr2 Si4 2.595404 1_455
Cr3 Si5 2.371384 1_554
Cr3 Si4 2.387000 1_555
Cr3 Si1 2.444372 1_554
Cr3 Si0 2.445027 1_645
Cr3 Si2 2.594312 1_555
Cr3 Si2 2.594777 1_655
Cr4 Si2 2.371464 1_556
Cr4 Si3 2.386943 1_555
Cr4 Si0 2.444366 1_556
Cr4 Si1 2.445058 1_465
Cr4 Si5 2.594334 1_555
Cr4 Si5 2.594780 1_455
Cr5 Si4 2.371223 1_565
Cr5 Si2 2.387514 1_655
Cr5 Si1 2.444331 1_564
Cr5 Si0 2.444876 1_655
Cr5 Si3 2.593682 1_555
Cr5 Si3 2.595347 1_655
Cr6 Si3 2.371247 1_545
Cr6 Si2 2.387210 1_555
Cr6 Si0 2.444534 1_545
Cr6 Si1 2.445170 1_554
Cr6 Si4 2.594252 1_455
Cr6 Si4 2.594670 1_555
Cr7 Si4 2.371266 1_565
Cr7 Si5 2.387224 1_555
Cr7 Si1 2.444373 1_565
Cr7 Si0 2.445085 1_556
Cr7 Si3 2.594283 1_655
Cr7 Si3 2.594761 1_555
Cr8 Si2 2.371625 1_556
Cr8 Si4 2.387059 1_555
Cr8 Si0 2.444086 1_546
Cr8 Si1 2.444573 1_555
Cr8 Si5 2.593877 1_455
Cr8 Si5 2.595511 1_555
Cr9 Si5 2.371389 1_554
Cr9 Si3 2.387256 1_555
Cr9 Si1 2.444178 1_564
Cr9 Si0 2.444735 1_555
Cr9 Si2 2.593771 1_655
Cr9 Si2 2.595450 1_555
Si0 Si1 2.274042 1_564
Si0 Si1 2.274059 1_464
