# generated using pymatgen
data_Na3Li3Mn2P2(CO7)2
_symmetry_space_group_name_H-M   'P 1'
_cell_length_a   6.76635700
_cell_length_b   8.75109624
_cell_length_c   10.14992142
_cell_angle_alpha   91.06440448
_cell_angle_beta   90.30446735
_cell_angle_gamma   91.08575929
_symmetry_Int_Tables_number   1
_chemical_formula_structural   Na3Li3Mn2P2(CO7)2
_chemical_formula_sum   'Na6 Li6 Mn4 P4 C4 O28'
_cell_volume   600.78646836
_cell_formula_units_Z   2
loop_
 _symmetry_equiv_pos_site_id
 _symmetry_equiv_pos_as_xyz
  1  'x, y, z'
loop_
 _atom_site_type_symbol
 _atom_site_label
 _atom_site_symmetry_multiplicity
 _atom_site_fract_x
 _atom_site_fract_y
 _atom_site_fract_z
 _atom_site_occupancy
  Na  Na0  1  0.24426000  0.91640300  0.37887200  1
  Na  Na1  1  0.49968000  0.74603700  0.62623300  1
  Na  Na2  1  0.99876900  0.74455900  0.12331000  1
  Na  Na3  1  0.50097800  0.74289900  0.12154300  1
  Na  Na4  1  0.50083600  0.25371600  0.87614500  1
  Na  Na5  1  0.50115500  0.25525000  0.37574300  1
  Li  Li0  1  0.23606300  0.92037700  0.87537400  1
  Li  Li1  1  0.01989700  0.73028700  0.62059800  1
  Li  Li2  1  0.98239000  0.26628800  0.88353000  1
  Li  Li3  1  0.98022300  0.27042300  0.38377500  1
  Li  Li4  1  0.76739500  0.08572300  0.62601900  1
  Li  Li5  1  0.76021400  0.08910600  0.12291200  1
  Mn  Mn0  1  0.75148100  0.64175100  0.88517200  1
  Mn  Mn1  1  0.75222000  0.63982000  0.39090100  1
  Mn  Mn2  1  0.24581400  0.35520400  0.61313900  1
  Mn  Mn3  1  0.24472500  0.35568100  0.10870800  1
  P  P0  1  0.24147600  0.59475200  0.84900800  1
  P  P1  1  0.24479200  0.58493800  0.35362900  1
  P  P2  1  0.75803000  0.40571200  0.64865100  1
  P  P3  1  0.75308200  0.40182700  0.14606300  1
  C  C0  1  0.75996900  0.95501800  0.86552500  1
  C  C1  1  0.75917100  0.95498400  0.36721000  1
  C  C2  1  0.23939300  0.05151200  0.63903300  1
  C  C3  1  0.24840100  0.05122200  0.12988700  1
  O  O0  1  0.22712900  0.90411900  0.65407200  1
  O  O1  1  0.25523000  0.90709000  0.14981800  1
  O  O2  1  0.75305400  0.91015200  0.98721700  1
  O  O3  1  0.75076800  0.90975500  0.48875900  1
  O  O4  1  0.75302500  0.85444200  0.76901800  1
  O  O5  1  0.75266900  0.85348400  0.27106300  1
  O  O6  1  0.06827100  0.69582700  0.89670400  1
  O  O7  1  0.43425800  0.68372900  0.88943400  1
  O  O8  1  0.06802400  0.68331200  0.40127500  1
  O  O9  1  0.43600200  0.67289300  0.39929200  1
  O  O10  1  0.23058200  0.57896500  0.69512000  1
  O  O11  1  0.76787500  0.57180000  0.59508600  1
  O  O12  1  0.24336700  0.57271900  0.20008800  1
  O  O13  1  0.74906500  0.56445300  0.08784300  1
  O  O14  1  0.23337900  0.43037000  0.90523200  1
  O  O15  1  0.77250400  0.41952100  0.80235100  1
  O  O16  1  0.23228300  0.42027900  0.40766100  1
  O  O17  1  0.77128100  0.42017000  0.29954300  1
  O  O18  1  0.56417200  0.31864300  0.60884600  1
  O  O19  1  0.92789300  0.30448600  0.59538100  1
  O  O20  1  0.56370600  0.30623400  0.11009900  1
  O  O21  1  0.92737700  0.30508900  0.09274500  1
  O  O22  1  0.24279200  0.14122500  0.74269800  1
  O  O23  1  0.24248000  0.14721400  0.22976500  1
  O  O24  1  0.24891000  0.11103400  0.52325000  1
  O  O25  1  0.24682700  0.10249500  0.00979200  1
  O  O26  1  0.77314900  0.09870800  0.83765100  1
  O  O27  1  0.77350800  0.09830400  0.33921500  1
loop_
_geom_bond_atom_site_label_1
_geom_bond_atom_site_label_2
_geom_bond_distance
_geom_bond_site_symmetry_2
Na0 O24 2.225807 1_565
Na0 O1 2.326423 1_555
Na0 O8 2.358480 1_555
Na0 O9 2.526973 1_555
Na0 O23 2.546505 1_565
Na0 O0 2.800252 1_555
Na1 O0 2.341432 1_555
Na1 O4 2.408267 1_555
Na1 O11 2.410612 1_555
Na1 O9 2.413584 1_555
Na1 O10 2.427445 1_555
Na1 O3 2.625513 1_555
Na1 O7 2.772644 1_555
Na2 O1 2.234719 1_655
Na2 O13 2.310843 1_555
Na2 O6 2.382401 1_654
Na2 O12 2.394154 1_655
Na2 O5 2.442158 1_555
Na2 O2 2.629358 1_554
Na3 O1 2.234316 1_555
Na3 O13 2.336459 1_555
Na3 O12 2.419158 1_555
Na3 O7 2.440625 1_554
Na3 O5 2.448572 1_555
Na3 O2 2.629554 1_554
Na4 O26 2.338901 1_555
Na4 O22 2.390074 1_555
Na4 O14 2.418019 1_555
Na4 O20 2.443827 1_556
Na4 O15 2.449337 1_555
Na4 O25 2.559418 1_556
Na4 O18 2.815600 1_555
Na5 O27 2.346090 1_555
Na5 O16 2.364079 1_555
Na5 O17 2.445069 1_555
Na5 O23 2.451604 1_555
Na5 O18 2.453358 1_555
Na5 O24 2.600605 1_555
Na5 O20 2.774475 1_555
Li0 O25 2.078569 1_566
Li0 O0 2.248479 1_555
Li0 O6 2.265214 1_555
Li0 O22 2.375865 1_565
Li0 O7 2.494343 1_555
Li1 O0 2.071382 1_555
Li1 O10 2.110751 1_555
Li1 O11 2.188817 1_455
Li1 O8 2.282407 1_555
Li1 O4 2.598664 1_455
Li2 O26 2.064199 1_555
Li2 O15 2.143531 1_555
Li2 O21 2.179353 1_556
Li2 O14 2.210506 1_655
Li2 O22 2.527321 1_655
Li2 O25 2.653204 1_656
Li3 O27 2.077930 1_555
Li3 O17 2.132128 1_555
Li3 O16 2.141591 1_655
Li3 O19 2.194426 1_555
Li3 O23 2.606610 1_655
Li4 O3 2.058397 1_545
Li4 O26 2.149050 1_555
Li4 O19 2.210877 1_555
Li4 O18 2.488531 1_555
Li4 O4 2.513107 1_545
Li5 O2 2.065928 1_544
Li5 O27 2.196741 1_555
Li5 O21 2.211267 1_555
Li5 O20 2.344859 1_555
Li5 O5 2.574383 1_545
Mn0 O15 2.111867 1_555
Mn0 O13 2.177410 1_556
Mn0 O7 2.185022 1_555
Mn0 O6 2.188408 1_655
Mn0 O4 2.221559 1_555
Mn0 O2 2.549179 1_555
Mn1 O17 2.125016 1_555
Mn1 O8 2.165027 1_655
Mn1 O9 2.166469 1_555
Mn1 O11 2.169454 1_555
Mn1 O5 2.249435 1_555
Mn1 O3 2.545697 1_555
Mn2 O10 2.117878 1_555
Mn2 O16 2.174035 1_555
Mn2 O18 2.184288 1_555
Mn2 O19 2.194020 1_455
Mn2 O22 2.307909 1_555
Mn2 O24 2.308256 1_555
Mn3 O12 2.098347 1_555
Mn3 O14 2.179172 1_554
Mn3 O21 2.188773 1_455
Mn3 O20 2.209337 1_555
Mn3 O23 2.218228 1_555
Mn3 O25 2.415787 1_555
C0 O26 1.295531 1_565
C0 O2 1.303806 1_555
C0 O4 1.304715 1_555
C1 O27 1.293100 1_565
C1 O3 1.303831 1_555
C1 O5 1.307329 1_555
C2 O24 1.295689 1_555
C2 O22 1.300910 1_555
C2 O0 1.302802 1_545
C3 O1 1.282794 1_545
C3 O23 1.305768 1_555
C3 O25 1.306773 1_555
O6 P0 1.555521 1_555
O7 P0 1.555681 1_555
O8 P1 1.560540 1_555
O9 P1 1.556853 1_555
O10 P0 1.566711 1_555
O11 P2 1.561609 1_555
O12 P1 1.560076 1_555
O13 P3 1.551724 1_555
O14 P0 1.557516 1_555
O15 P2 1.564881 1_555
O16 P1 1.552252 1_555
O17 P3 1.567043 1_555
O18 P2 1.552237 1_555
O19 P2 1.557389 1_555
O20 P3 1.555012 1_555
O21 P3 1.558199 1_555
