# generated using pymatgen
data_Li6Bi2B4SO16
_symmetry_space_group_name_H-M   'P 1'
_cell_length_a   9.73614054
_cell_length_b   9.73614054
_cell_length_c   9.73614054
_cell_angle_alpha   60.00000000
_cell_angle_beta   60.00000000
_cell_angle_gamma   60.00000000
_symmetry_Int_Tables_number   1
_chemical_formula_structural   Li6Bi2B4SO16
_chemical_formula_sum   'Li12 Bi4 B8 S2 O32'
_cell_volume   652.59764950
_cell_formula_units_Z   2
loop_
 _symmetry_equiv_pos_site_id
 _symmetry_equiv_pos_as_xyz
  1  'x, y, z'
loop_
 _atom_site_type_symbol
 _atom_site_label
 _atom_site_symmetry_multiplicity
 _atom_site_fract_x
 _atom_site_fract_y
 _atom_site_fract_z
 _atom_site_occupancy
  Li  Li0  1  0.28646900  0.71353100  0.28646900  1
  Li  Li1  1  0.71353100  0.28646900  0.28646900  1
  Li  Li2  1  0.71353100  0.71353100  0.28646900  1
  Li  Li3  1  0.53646900  0.96353100  0.53646900  1
  Li  Li4  1  0.28646900  0.71353100  0.71353100  1
  Li  Li5  1  0.28646900  0.28646900  0.71353100  1
  Li  Li6  1  0.96353100  0.96353100  0.53646900  1
  Li  Li7  1  0.96353100  0.53646900  0.53646900  1
  Li  Li8  1  0.71353100  0.28646900  0.71353100  1
  Li  Li9  1  0.53646900  0.96353100  0.96353100  1
  Li  Li10  1  0.53646900  0.53646900  0.96353100  1
  Li  Li11  1  0.96353100  0.53646900  0.96353100  1
  Bi  Bi0  1  0.12500000  0.62500000  0.12500000  1
  Bi  Bi1  1  0.12500000  0.12500000  0.12500000  1
  Bi  Bi2  1  0.62500000  0.12500000  0.12500000  1
  Bi  Bi3  1  0.12500000  0.12500000  0.62500000  1
  B  B0  1  0.89721300  0.89721300  0.30836100  1
  B  B1  1  0.35278700  0.35278700  0.35278700  1
  B  B2  1  0.35278700  0.94163900  0.35278700  1
  B  B3  1  0.94163900  0.35278700  0.35278700  1
  B  B4  1  0.30836100  0.89721300  0.89721300  1
  B  B5  1  0.89721300  0.30836100  0.89721300  1
  B  B6  1  0.89721300  0.89721300  0.89721300  1
  B  B7  1  0.35278700  0.35278700  0.94163900  1
  S  S0  1  0.75000000  0.75000000  0.75000000  1
  S  S1  1  0.50000000  0.50000000  0.50000000  1
  O  O0  1  0.04112000  0.89493300  0.30718100  1
  O  O1  1  0.89493300  0.75676600  0.30718100  1
  O  O2  1  0.75676600  0.04112000  0.30718100  1
  O  O3  1  0.49323400  0.35506700  0.20888000  1
  O  O4  1  0.93811100  0.68729600  0.68729600  1
  O  O5  1  0.49323400  0.94281900  0.35506700  1
  O  O6  1  0.35506700  0.94281900  0.20888000  1
  O  O7  1  0.68729600  0.93811100  0.68729600  1
  O  O8  1  0.68729600  0.68729600  0.68729600  1
  O  O9  1  0.20888000  0.49323400  0.35506700  1
  O  O10  1  0.35506700  0.20888000  0.49323400  1
  O  O11  1  0.68729600  0.68729600  0.93811100  1
  O  O12  1  0.94281900  0.49323400  0.20888000  1
  O  O13  1  0.20888000  0.94281900  0.49323400  1
  O  O14  1  0.94281900  0.20888000  0.35506700  1
  O  O15  1  0.30718100  0.89493300  0.75676600  1
  O  O16  1  0.94281900  0.35506700  0.49323400  1
  O  O17  1  0.30718100  0.04112000  0.89493300  1
  O  O18  1  0.04112000  0.30718100  0.75676600  1
  O  O19  1  0.30718100  0.75676600  0.04112000  1
  O  O20  1  0.56270400  0.56270400  0.31188900  1
  O  O21  1  0.89493300  0.04112000  0.75676600  1
  O  O22  1  0.04112000  0.75676600  0.89493300  1
  O  O23  1  0.56270400  0.56270400  0.56270400  1
  O  O24  1  0.56270400  0.31188900  0.56270400  1
  O  O25  1  0.89493300  0.30718100  0.04112000  1
  O  O26  1  0.75676600  0.30718100  0.89493300  1
  O  O27  1  0.31188900  0.56270400  0.56270400  1
  O  O28  1  0.75676600  0.89493300  0.04112000  1
  O  O29  1  0.49323400  0.20888000  0.94281900  1
  O  O30  1  0.35506700  0.49323400  0.94281900  1
  O  O31  1  0.20888000  0.35506700  0.94281900  1
loop_
_geom_bond_atom_site_label_1
_geom_bond_atom_site_label_2
_geom_bond_distance
_geom_bond_site_symmetry_2
Li0 O19 2.126417 1_555
Li0 O0 2.126417 1_555
Li0 O9 2.302237 1_555
Li0 O6 2.302237 1_555
Li0 O27 2.409078 1_555
Li0 O20 2.409078 1_555
Li1 O2 2.126417 1_555
Li1 O25 2.126417 1_555
Li1 O3 2.302237 1_555
Li1 O14 2.302237 1_555
Li1 O20 2.409078 1_555
Li1 O24 2.409078 1_555
Li2 O28 2.126417 1_555
Li2 O1 2.126417 1_555
Li2 O5 2.302237 1_555
Li2 O12 2.302237 1_555
Li2 O20 2.409070 1_555
Li2 O23 2.409075 1_555
Li3 O10 2.126417 1_565
Li3 O5 2.126417 1_555
Li3 O15 2.302237 1_555
Li3 O2 2.302237 1_565
Li3 O7 2.409070 1_555
Li3 O8 2.409075 1_555
Li4 O22 2.126417 1_555
Li4 O15 2.126417 1_555
Li4 O30 2.302237 1_555
Li4 O13 2.302237 1_555
Li4 O27 2.409070 1_555
Li4 O23 2.409075 1_555
Li5 O18 2.126417 1_555
Li5 O17 2.126417 1_555
Li5 O10 2.302237 1_555
Li5 O31 2.302237 1_555
Li5 O27 2.409078 1_555
Li5 O24 2.409078 1_555
Li6 O13 2.126417 1_655
Li6 O14 2.126417 1_565
Li6 O0 2.302237 1_655
Li6 O21 2.302237 1_565
Li6 O7 2.409078 1_555
Li6 O4 2.409078 1_555
Li7 O9 2.126417 1_655
Li7 O16 2.126417 1_555
Li7 O1 2.302237 1_555
Li7 O18 2.302237 1_655
Li7 O4 2.409070 1_555
Li7 O8 2.409075 1_555
Li8 O21 2.126417 1_555
Li8 O26 2.126417 1_555
Li8 O16 2.302237 1_555
Li8 O29 2.302237 1_555
Li8 O24 2.409070 1_555
Li8 O23 2.409075 1_555
Li9 O6 2.126417 1_556
Li9 O29 2.126417 1_565
Li9 O17 2.302237 1_565
Li9 O28 2.302237 1_556
Li9 O7 2.409078 1_555
Li9 O11 2.409078 1_555
Li10 O30 2.126417 1_555
Li10 O3 2.126417 1_556
Li10 O26 2.302237 1_555
Li10 O19 2.302237 1_556
Li10 O11 2.409070 1_555
Li10 O8 2.409075 1_555
Li11 O12 2.126417 1_556
Li11 O31 2.126417 1_655
Li11 O25 2.302237 1_556
Li11 O22 2.302237 1_655
Li11 O11 2.409078 1_555
Li11 O4 2.409078 1_555
Bi0 O9 2.288706 1_555
Bi0 O19 2.288706 1_555
Bi0 O1 2.288706 1_455
Bi0 O30 2.288706 1_554
Bi0 O22 2.288706 1_554
Bi0 O12 2.288706 1_455
Bi1 O14 2.288706 1_455
Bi1 O6 2.288706 1_545
Bi1 O31 2.288706 1_554
Bi1 O0 2.288706 1_545
Bi1 O17 2.288706 1_554
Bi1 O25 2.288706 1_455
Bi2 O3 2.288706 1_555
Bi2 O2 2.288706 1_555
Bi2 O26 2.288706 1_554
Bi2 O28 2.288706 1_545
Bi2 O5 2.288706 1_545
Bi2 O29 2.288706 1_554
Bi3 O10 2.288706 1_555
Bi3 O18 2.288706 1_555
Bi3 O15 2.288706 1_545
Bi3 O21 2.288706 1_455
Bi3 O16 2.288706 1_455
Bi3 O13 2.288706 1_545
B0 O1 1.384471 1_555
B0 O2 1.384471 1_565
B0 O0 1.384471 1_655
B1 O3 1.384471 1_555
B1 O10 1.384471 1_555
B1 O9 1.384471 1_555
B2 O6 1.384471 1_555
B2 O13 1.384471 1_555
B2 O5 1.384471 1_555
B3 O14 1.384471 1_555
B3 O12 1.384471 1_555
B3 O16 1.384471 1_555
B4 O15 1.384471 1_555
B4 O19 1.384471 1_556
B4 O17 1.384471 1_565
B5 O26 1.384471 1_555
B5 O18 1.384471 1_655
B5 O25 1.384471 1_556
B6 O21 1.384471 1_565
B6 O22 1.384471 1_655
B6 O28 1.384471 1_556
B7 O31 1.384471 1_555
B7 O29 1.384471 1_555
B7 O30 1.384471 1_555
O4 S0 1.495393 1_555
O7 S0 1.495393 1_555
O8 S0 1.495401 1_555
O11 S0 1.495393 1_555
O20 S1 1.495393 1_555
O23 S1 1.495401 1_555
O24 S1 1.495393 1_555
O27 S1 1.495393 1_555
