# generated using pymatgen
data_Sr3(AsO4)2
_symmetry_space_group_name_H-M   'P 1'
_cell_length_a   10.29619600
_cell_length_b   7.35720000
_cell_length_c   12.67591964
_cell_angle_alpha   89.40842806
_cell_angle_beta   90.00000000
_cell_angle_gamma   90.00000000
_symmetry_Int_Tables_number   1
_chemical_formula_structural   Sr3(AsO4)2
_chemical_formula_sum   'Sr12 As8 O32'
_cell_volume   960.16460374
_cell_formula_units_Z   4
loop_
 _symmetry_equiv_pos_site_id
 _symmetry_equiv_pos_as_xyz
  1  'x, y, z'
loop_
 _atom_site_type_symbol
 _atom_site_label
 _atom_site_symmetry_multiplicity
 _atom_site_fract_x
 _atom_site_fract_y
 _atom_site_fract_z
 _atom_site_occupancy
  Sr  Sr0  1  0.79692900  0.09255300  0.57393400  1
  Sr  Sr1  1  0.70307100  0.09255300  0.07393400  1
  Sr  Sr2  1  0.15526700  0.24218700  0.64470900  1
  Sr  Sr3  1  0.34473300  0.24218700  0.14470900  1
  Sr  Sr4  1  0.53823100  0.39382900  0.63788500  1
  Sr  Sr5  1  0.96176900  0.39382900  0.13788500  1
  Sr  Sr6  1  0.03823100  0.60617100  0.86211500  1
  Sr  Sr7  1  0.46176900  0.60617100  0.36211500  1
  Sr  Sr8  1  0.65526700  0.75781300  0.85529100  1
  Sr  Sr9  1  0.84473300  0.75781300  0.35529100  1
  Sr  Sr10  1  0.29692900  0.90744700  0.92606600  1
  Sr  Sr11  1  0.20307100  0.90744700  0.42606600  1
  As  As0  1  0.94848600  0.10466000  0.85877700  1
  As  As1  1  0.55151400  0.10466000  0.35877700  1
  As  As2  1  0.38562300  0.40257100  0.86831300  1
  As  As3  1  0.11437700  0.40257100  0.36831300  1
  As  As4  1  0.88562300  0.59742900  0.63168700  1
  As  As5  1  0.61437700  0.59742900  0.13168700  1
  As  As6  1  0.44848600  0.89534000  0.64122300  1
  As  As7  1  0.05151400  0.89534000  0.14122300  1
  O  O0  1  0.79758700  0.02680200  0.89533100  1
  O  O1  1  0.70241300  0.02680200  0.39533100  1
  O  O2  1  0.57040400  0.05562700  0.62444200  1
  O  O3  1  0.92959600  0.05562700  0.12444200  1
  O  O4  1  0.94888400  0.14565200  0.72424100  1
  O  O5  1  0.55111600  0.14565200  0.22424100  1
  O  O6  1  0.38310300  0.21886500  0.95482100  1
  O  O7  1  0.11689700  0.21886500  0.45482100  1
  O  O8  1  0.98549300  0.30025200  0.92684400  1
  O  O9  1  0.33538100  0.33397100  0.74533900  1
  O  O10  1  0.51450700  0.30025200  0.42684400  1
  O  O11  1  0.16461900  0.33397100  0.24533900  1
  O  O12  1  0.77955900  0.43311000  0.58775000  1
  O  O13  1  0.72044100  0.43311000  0.08775000  1
  O  O14  1  0.54337600  0.46608300  0.84622500  1
  O  O15  1  0.95662400  0.46608300  0.34622500  1
  O  O16  1  0.04337600  0.53391700  0.65377500  1
  O  O17  1  0.45662400  0.53391700  0.15377500  1
  O  O18  1  0.27955900  0.56689000  0.91225000  1
  O  O19  1  0.22044100  0.56689000  0.41225000  1
  O  O20  1  0.83538100  0.66602900  0.75466100  1
  O  O21  1  0.48549300  0.69974800  0.57315600  1
  O  O22  1  0.66461900  0.66602900  0.25466100  1
  O  O23  1  0.01450700  0.69974800  0.07315600  1
  O  O24  1  0.88310300  0.78113500  0.54517900  1
  O  O25  1  0.61689700  0.78113500  0.04517900  1
  O  O26  1  0.44888400  0.85434800  0.77575900  1
  O  O27  1  0.05111600  0.85434800  0.27575900  1
  O  O28  1  0.07040400  0.94437300  0.87555800  1
  O  O29  1  0.42959600  0.94437300  0.37555800  1
  O  O30  1  0.29758700  0.97319800  0.60466900  1
  O  O31  1  0.20241300  0.97319800  0.10466900  1
loop_
_geom_bond_atom_site_label_1
_geom_bond_atom_site_label_2
_geom_bond_distance
_geom_bond_site_symmetry_2
As0 O0 1.717928 1_555
As0 O8 1.728009 1_555
As0 O4 1.728765 1_555
As0 O28 1.733922 1_645
As1 O1 1.717928 1_555
As1 O10 1.728009 1_555
As1 O5 1.728765 1_555
As1 O29 1.733922 1_545
As2 O14 1.712378 1_555
As2 O9 1.722921 1_555
As2 O18 1.725740 1_555
As2 O6 1.731835 1_555
As3 O15 1.712378 1_455
As3 O11 1.722921 1_555
As3 O19 1.725740 1_555
As3 O7 1.731835 1_555
As4 O16 1.712378 1_655
As4 O20 1.722921 1_555
As4 O12 1.725740 1_555
As4 O24 1.731835 1_555
As5 O17 1.712378 1_555
As5 O22 1.722921 1_555
As5 O13 1.725740 1_555
As5 O25 1.731835 1_555
As6 O30 1.717928 1_555
As6 O21 1.728009 1_555
As6 O26 1.728765 1_555
As6 O2 1.733922 1_565
As7 O31 1.717928 1_555
As7 O23 1.728009 1_555
As7 O27 1.728765 1_555
As7 O3 1.733922 1_465
O0 Sr1 2.515781 1_556
O0 Sr8 2.518347 1_545
O1 Sr0 2.515781 1_555
O1 Sr9 2.518347 1_545
O2 Sr0 2.433095 1_555
O2 Sr4 2.517690 1_555
O3 Sr1 2.433095 1_555
O3 Sr5 2.517690 1_555
O4 Sr2 2.453862 1_655
O4 Sr0 2.499183 1_555
O5 Sr3 2.453862 1_555
O5 Sr1 2.499183 1_555
O6 Sr3 2.446982 1_556
O6 Sr10 2.487323 1_545
O7 Sr2 2.446982 1_555
O7 Sr11 2.487323 1_545
O8 Sr6 2.448595 1_655
O8 Sr5 2.779937 1_556
O9 Sr2 2.353722 1_555
O9 Sr4 2.529623 1_555
O10 Sr7 2.448595 1_555
O10 Sr4 2.779937 1_555
O11 Sr3 2.353722 1_555
O11 Sr5 2.529623 1_455
O12 Sr0 2.519817 1_555
O12 Sr4 2.580239 1_555
O13 Sr1 2.519817 1_555
O13 Sr5 2.580239 1_555
O14 Sr8 2.439712 1_555
O14 Sr4 2.699766 1_555
O15 Sr9 2.439712 1_555
O15 Sr5 2.699766 1_555
O16 Sr2 2.439712 1_555
O16 Sr6 2.699766 1_555
O17 Sr3 2.439712 1_555
O17 Sr7 2.699766 1_555
O18 Sr10 2.519817 1_555
O18 Sr6 2.580239 1_555
O19 Sr11 2.519817 1_555
O19 Sr7 2.580239 1_555
O20 Sr8 2.353722 1_555
O20 Sr6 2.529623 1_655
O21 Sr4 2.448595 1_555
O21 Sr7 2.779937 1_555
O22 Sr9 2.353722 1_555
O22 Sr7 2.529623 1_555
O23 Sr5 2.448595 1_455
O23 Sr6 2.779937 1_554
O24 Sr9 2.446982 1_555
O24 Sr0 2.487323 1_565
O25 Sr8 2.446982 1_554
O25 Sr1 2.487323 1_565
O26 Sr8 2.453862 1_555
O26 Sr10 2.499183 1_555
O27 Sr9 2.453862 1_455
O27 Sr11 2.499183 1_555
O28 Sr10 2.433095 1_555
O28 Sr6 2.517690 1_555
O29 Sr11 2.433095 1_555
O29 Sr7 2.517690 1_555
O30 Sr11 2.515781 1_555
O30 Sr2 2.518347 1_565
O31 Sr10 2.515781 1_554
O31 Sr3 2.518347 1_565
