# generated using pymatgen
data_Li5V3P8O29
_symmetry_space_group_name_H-M   'P 1'
_cell_length_a   9.74828700
_cell_length_b   9.77990989
_cell_length_c   14.00756138
_cell_angle_alpha   89.98177215
_cell_angle_beta   90.06746619
_cell_angle_gamma   119.86397147
_symmetry_Int_Tables_number   1
_chemical_formula_structural   Li5V3P8O29
_chemical_formula_sum   'Li10 V6 P16 O58'
_cell_volume   1158.10961497
_cell_formula_units_Z   2
loop_
 _symmetry_equiv_pos_site_id
 _symmetry_equiv_pos_as_xyz
  1  'x, y, z'
loop_
 _atom_site_type_symbol
 _atom_site_label
 _atom_site_symmetry_multiplicity
 _atom_site_fract_x
 _atom_site_fract_y
 _atom_site_fract_z
 _atom_site_occupancy
  Li  Li0  1  0.23598500  0.33748600  0.56007400  1
  Li  Li1  1  0.23792800  0.90502000  0.05894400  1
  Li  Li2  1  0.66912600  0.76800200  0.05996300  1
  Li  Li3  1  0.33144600  0.09417700  0.44080000  1
  Li  Li4  1  0.66775900  0.90538700  0.55997100  1
  Li  Li5  1  0.76782900  0.10594300  0.94252700  1
  Li  Li6  1  0.76348800  0.66080900  0.44087300  1
  Li  Li7  1  0.90236700  0.66423900  0.94048600  1
  Li  Li8  1  0.04982700  0.06625300  0.99480800  1
  Li  Li9  1  0.00240300  0.00037900  0.49863000  1
  V  V0  1  0.43434600  0.99951000  0.25292100  1
  V  V1  1  0.56592100  0.00116600  0.74916900  1
  V  V2  1  0.43123500  0.43026900  0.75585000  1
  V  V3  1  0.56255800  0.56210800  0.24507100  1
  V  V4  1  0.99949100  0.43178500  0.25185700  1
  V  V5  1  0.00065400  0.56375600  0.74489700  1
  P  P0  1  0.08214500  0.30876100  0.84304200  1
  P  P1  1  0.22563500  0.31198700  0.34208700  1
  P  P2  1  0.08201400  0.77531600  0.34249700  1
  P  P3  1  0.32974400  0.66891500  0.13011700  1
  P  P4  1  0.33486500  0.66400700  0.62994300  1
  P  P5  1  0.22291200  0.91007100  0.84136100  1
  P  P6  1  0.31134200  0.08761800  0.65765700  1
  P  P7  1  0.68574000  0.77378500  0.84319800  1
  P  P8  1  0.30692500  0.22085700  0.15778700  1
  P  P9  1  0.68635500  0.90848200  0.34279100  1
  P  P10  1  0.77535700  0.08840500  0.16072500  1
  P  P11  1  0.66819500  0.33617000  0.37041100  1
  P  P12  1  0.67122000  0.33511900  0.86921000  1
  P  P13  1  0.91689000  0.22263700  0.65557300  1
  P  P14  1  0.77150600  0.68536400  0.66004900  1
  P  P15  1  0.91592000  0.68558000  0.15560100  1
  O  O0  1  0.00782000  0.21502900  0.57171000  1
  O  O1  1  0.08272400  0.33947200  0.33535500  1
  O  O2  1  0.21029200  0.20706700  0.07347500  1
  O  O3  1  0.25503900  0.34429100  0.83880100  1
  O  O4  1  0.07628200  0.46224200  0.82993800  1
  O  O5  1  0.18719800  0.52288800  0.18097600  1
  O  O6  1  0.07858600  0.61668200  0.33156000  1
  O  O7  1  0.00158400  0.76758800  0.06526200  1
  O  O8  1  0.07881100  0.73834800  0.83446100  1
  O  O9  1  0.32570100  0.51010700  0.66884200  1
  O  O10  1  0.37987400  0.46730700  0.32905800  1
  O  O11  1  0.18792000  0.66630000  0.67893900  1
  O  O12  1  0.32231500  0.66705000  0.02399700  1
  O  O13  1  0.32867100  0.66508400  0.52395500  1
  O  O14  1  0.32421800  0.81554300  0.17115900  1
  O  O15  1  0.52849700  0.62168700  0.83000600  1
  O  O16  1  0.48679000  0.67680800  0.16657400  1
  O  O17  1  0.25372300  0.91626900  0.34336100  1
  O  O18  1  0.20260100  0.99876200  0.74930700  1
  O  O19  1  0.22787000  0.01209600  0.56659300  1
  O  O20  1  0.20767300  0.98279000  0.93197300  1
  O  O21  1  0.37881700  0.91039200  0.82851300  1
  O  O22  1  0.48834100  0.81134100  0.66980000  1
  O  O23  1  0.34382400  0.08352100  0.16242300  1
  O  O24  1  0.52988200  0.91032000  0.32890200  1
  O  O25  1  0.65563000  0.73712300  0.33456500  1
  O  O26  1  0.20642700  0.19846900  0.25420000  1
  O  O27  1  0.21915500  0.22395000  0.43247200  1
  O  O28  1  0.77802900  0.77476600  0.57051700  1
  O  O29  1  0.33908600  0.25756200  0.66312700  1
  O  O30  1  0.46937200  0.08736300  0.67232800  1
  O  O31  1  0.66257900  0.91983800  0.84056600  1
  O  O32  1  0.51224000  0.18796400  0.33297900  1
  O  O33  1  0.62005900  0.08903800  0.17284800  1
  O  O34  1  0.78004200  0.00509500  0.07085800  1
  O  O35  1  0.77020800  0.98023200  0.43425100  1
  O  O36  1  0.79658000  0.99875600  0.25208400  1
  O  O37  1  0.74503000  0.08304000  0.65699500  1
  O  O38  1  0.52057400  0.32566700  0.82502900  1
  O  O39  1  0.46292600  0.38103500  0.16905600  1
  O  O40  1  0.68050600  0.18866200  0.83136900  1
  O  O41  1  0.68681900  0.35007400  0.97496700  1
  O  O42  1  0.67526000  0.34011100  0.47657500  1
  O  O43  1  0.81197900  0.33115100  0.32150200  1
  O  O44  1  0.61421400  0.53197900  0.67293700  1
  O  O45  1  0.67400100  0.48756800  0.32861500  1
  O  O46  1  0.91769800  0.25774000  0.16600400  1
  O  O47  1  0.99749400  0.20138000  0.75034000  1
  O  O48  1  0.99513000  0.21022900  0.92769200  1
  O  O49  1  0.91748200  0.38094000  0.66884300  1
  O  O50  1  0.81653000  0.48756600  0.82248600  1
  O  O51  1  0.91256800  0.52875200  0.17268700  1
  O  O52  1  0.74660700  0.66270000  0.15627800  1
  O  O53  1  0.77413400  0.77565800  0.93203200  1
  O  O54  1  0.79578700  0.79706100  0.75090400  1
  O  O55  1  0.91267800  0.65489600  0.66380800  1
  O  O56  1  0.98844100  0.78754800  0.42349600  1
  O  O57  1  0.00782400  0.79947700  0.24375500  1
loop_
_geom_bond_atom_site_label_1
_geom_bond_atom_site_label_2
_geom_bond_distance
_geom_bond_site_symmetry_2
Li0 O0 1.938022 1_555
Li0 O27 2.067309 1_555
Li0 O9 2.112899 1_555
Li0 O29 2.117335 1_555
Li1 O7 2.009731 1_555
Li1 O20 2.012469 1_554
Li1 O23 2.101810 1_565
Li1 O14 2.161750 1_555
Li2 O34 2.017918 1_565
Li2 O53 2.047592 1_554
Li2 O52 2.054898 1_555
Li2 O16 2.147462 1_555
Li3 O19 1.991182 1_555
Li3 O17 2.037282 1_545
Li3 O27 2.050810 1_555
Li3 O32 2.150348 1_555
Li4 O35 1.977303 1_555
Li4 O37 2.031963 1_565
Li4 O28 2.043597 1_555
Li4 O22 2.162219 1_555
Li5 O48 1.934809 1_555
Li5 O34 2.081735 1_556
Li5 O40 2.117873 1_555
Li5 O31 2.131597 1_545
Li6 O56 1.923171 1_555
Li6 O28 2.098422 1_555
Li6 O45 2.151919 1_555
Li6 O25 2.158033 1_555
Li7 O7 2.008851 1_656
Li7 O53 2.029812 1_555
Li7 O8 2.110283 1_655
Li7 O50 2.230782 1_555
Li8 O2 1.846416 1_556
Li8 O48 1.973954 1_455
Li8 O20 2.250142 1_545
Li9 O56 2.275433 1_445
Li9 O0 2.312665 1_555
Li9 O19 2.344053 1_555
Li9 O27 2.346601 1_555
Li9 O35 2.350883 1_445
Li9 O28 2.421593 1_445
O0 P13 1.496466 1_455
O1 P1 1.547446 1_555
O1 V4 1.888910 1_455
O2 P8 1.473533 1_555
O3 P0 1.543339 1_555
O3 V2 1.890261 1_555
O4 P0 1.541197 1_555
O4 V5 1.916840 1_555
O5 P3 1.582203 1_555
O5 V4 1.872958 1_455
O6 P2 1.542731 1_555
O6 V4 1.929133 1_455
O7 P15 1.508893 1_455
O8 P5 1.566352 1_555
O8 V5 1.942552 1_555
O9 P4 1.560761 1_555
O9 V2 1.987424 1_555
O10 P1 1.525567 1_555
O10 V3 1.942939 1_555
O11 P4 1.599311 1_555
O11 V5 1.836313 1_555
O12 P3 1.487836 1_555
O13 P4 1.486037 1_555
O14 P3 1.570770 1_555
O14 V0 1.943218 1_555
O15 P7 1.524865 1_555
O15 V2 1.927120 1_555
O16 P3 1.578285 1_555
O16 V3 1.958398 1_555
O17 P2 1.550575 1_555
O17 V0 1.986203 1_555
O18 P6 1.616194 1_565
O18 P5 1.619869 1_555
O19 P6 1.494788 1_555
O20 P5 1.498362 1_555
O21 P5 1.529086 1_555
O21 V1 1.934352 1_565
O22 P4 1.574152 1_555
O22 V1 1.963561 1_565
O23 P8 1.555198 1_555
O23 V0 1.944080 1_545
O24 P9 1.546432 1_555
O24 V0 1.888661 1_555
O25 P9 1.552965 1_555
O25 V3 1.943317 1_555
O26 P1 1.605136 1_555
O26 P8 1.618921 1_555
O27 P1 1.514455 1_555
O28 P14 1.511777 1_555
O29 P6 1.547177 1_555
O29 V2 1.958166 1_555
O30 P6 1.555161 1_555
O30 V1 1.882077 1_555
O31 P7 1.553622 1_555
O31 V1 1.975444 1_565
O32 P11 1.578352 1_555
O32 V0 1.958728 1_545
O33 P10 1.526655 1_555
O33 V0 1.930731 1_545
O34 P10 1.512744 1_555
O35 P9 1.492899 1_555
O36 P9 1.614361 1_555
O36 P10 1.621262 1_565
O37 P13 1.547023 1_555
O37 V1 1.992249 1_555
O38 P12 1.552693 1_555
O38 V2 1.904904 1_555
O39 P8 1.555214 1_555
O39 V3 1.870555 1_555
O40 P12 1.571772 1_555
O40 V1 1.973424 1_555
O41 P12 1.488796 1_555
O42 P11 1.488235 1_555
O43 P11 1.583408 1_555
O43 V4 1.863761 1_555
O44 P14 1.530938 1_555
O44 V2 1.938342 1_555
O45 P11 1.566648 1_555
O45 V3 1.966291 1_555
O46 P10 1.544279 1_555
O46 V4 1.904393 1_555
O47 P13 1.607111 1_555
O47 P0 1.614097 1_655
O48 P0 1.497230 1_655
O49 P13 1.556521 1_555
O49 V5 1.882683 1_655
O50 P12 1.598770 1_555
O50 V5 1.905314 1_655
O51 P15 1.536442 1_555
O51 V4 1.909068 1_555
O52 P15 1.551315 1_555
O52 V3 1.995117 1_555
O53 P7 1.507653 1_555
O54 P14 1.616064 1_555
O54 P7 1.622930 1_555
O55 P14 1.547141 1_555
O55 V5 1.891696 1_655
O56 P2 1.498295 1_655
O57 P15 1.603944 1_455
O57 P2 1.630821 1_555
