# generated using pymatgen
data_Li8Mn6(FeO6)3
_symmetry_space_group_name_H-M   'P 1'
_cell_length_a   8.96609038
_cell_length_b   8.96609071
_cell_length_c   10.16524064
_cell_angle_alpha   88.70768254
_cell_angle_beta   91.29231217
_cell_angle_gamma   59.49653372
_symmetry_Int_Tables_number   1
_chemical_formula_structural   Li8Mn6(FeO6)3
_chemical_formula_sum   'Li16 Mn12 Fe6 O36'
_cell_volume   703.36334945
_cell_formula_units_Z   2
loop_
 _symmetry_equiv_pos_site_id
 _symmetry_equiv_pos_as_xyz
  1  'x, y, z'
loop_
 _atom_site_type_symbol
 _atom_site_label
 _atom_site_symmetry_multiplicity
 _atom_site_fract_x
 _atom_site_fract_y
 _atom_site_fract_z
 _atom_site_occupancy
  Li  Li0  1  0.84164700  0.74082500  0.24542000  1
  Li  Li1  1  0.80556200  0.08734400  0.23080600  1
  Li  Li2  1  0.77526700  0.43291100  0.21999600  1
  Li  Li3  1  0.75202500  0.03891000  0.72101000  1
  Li  Li4  1  0.73375600  0.39140000  0.71999600  1
  Li  Li5  1  0.55251900  0.90627500  0.77338400  1
  Li  Li6  1  0.46172400  0.76896500  0.22830000  1
  Li  Li7  1  0.42584200  0.32502000  0.74542000  1
  Li  Li8  1  0.46205600  0.10355600  0.22905900  1
  Li  Li9  1  0.39770100  0.70494300  0.72830000  1
  Li  Li10  1  0.26039200  0.61414800  0.27338400  1
  Li  Li11  1  0.15276200  0.07030900  0.23649100  1
  Li  Li12  1  0.12775600  0.41464100  0.22101000  1
  Li  Li13  1  0.09635700  0.01390500  0.73649100  1
  Li  Li14  1  0.07932300  0.36110500  0.73080600  1
  Li  Li15  1  0.06311000  0.70461000  0.72905900  1
  Mn  Mn0  1  0.99903400  0.33301600  0.00127300  1
  Mn  Mn1  1  0.83336400  0.50648800  0.50011000  1
  Mn  Mn2  1  0.83365100  0.16763200  0.50127300  1
  Mn  Mn3  1  0.66017900  0.33330200  0.00011000  1
  Mn  Mn4  1  0.67074000  0.00044500  0.00163400  1
  Mn  Mn5  1  0.49845700  0.16395500  0.49796800  1
  Mn  Mn6  1  0.50036200  0.83430600  0.49643700  1
  Mn  Mn7  1  0.33843400  0.00553900  0.99514700  1
  Mn  Mn8  1  0.33236000  0.66630500  0.99643700  1
  Mn  Mn9  1  0.16112800  0.82823300  0.49514700  1
  Mn  Mn10  1  0.16622100  0.49592600  0.50163400  1
  Mn  Mn11  1  0.00271100  0.66821000  0.99796800  1
  Fe  Fe0  1  0.83401800  0.83474400  0.50406500  1
  Fe  Fe1  1  0.67179900  0.66240700  0.98917600  1
  Fe  Fe2  1  0.50426000  0.49486800  0.48917600  1
  Fe  Fe3  1  0.33192200  0.33264900  0.00406500  1
  Fe  Fe4  1  0.16846400  0.16065300  0.49903400  1
  Fe  Fe5  1  0.00601400  0.99820300  0.99903400  1
  O  O0  1  0.96289500  0.58917700  0.60658200  1
  O  O1  1  0.93746600  0.28716400  0.60894600  1
  O  O2  1  0.97040600  0.92325400  0.61692400  1
  O  O3  1  0.88546200  0.53856200  0.11391600  1
  O  O4  1  0.87950300  0.22920000  0.10894600  1
  O  O5  1  0.88083500  0.88229200  0.10810300  1
  O  O6  1  0.75354900  0.44407600  0.89521900  1
  O  O7  1  0.76223300  0.11943300  0.90079500  1
  O  O8  1  0.77598700  0.79339500  0.89622600  1
  O  O9  1  0.72259000  0.41311800  0.39521900  1
  O  O10  1  0.71477200  0.07192900  0.40017800  1
  O  O11  1  0.71946000  0.72237700  0.39848700  1
  O  O12  1  0.62810500  0.28120400  0.61391600  1
  O  O13  1  0.61574800  0.61084600  0.60050100  1
  O  O14  1  0.61389200  0.96066500  0.61100500  1
  O  O15  1  0.57748900  0.20377100  0.10658200  1
  O  O16  1  0.55582100  0.55091900  0.10050100  1
  O  O17  1  0.56151800  0.89019200  0.10215600  1
  O  O18  1  0.45338600  0.10838800  0.89708400  1
  O  O19  1  0.44429000  0.44720700  0.89848700  1
  O  O20  1  0.44817000  0.80303500  0.88519700  1
  O  O21  1  0.38802900  0.03631200  0.38364900  1
  O  O22  1  0.37327100  0.39068000  0.39622600  1
  O  O23  1  0.36363200  0.71849700  0.38519700  1
  O  O24  1  0.28437500  0.28583200  0.60810300  1
  O  O25  1  0.28025000  0.91801000  0.59975200  1
  O  O26  1  0.27647500  0.60514900  0.60215600  1
  O  O27  1  0.24341200  0.19626000  0.11692400  1
  O  O28  1  0.24865600  0.88641600  0.09975200  1
  O  O29  1  0.20600100  0.55277500  0.11100500  1
  O  O30  1  0.12173900  0.12558300  0.89570000  1
  O  O31  1  0.13035400  0.77863800  0.88364900  1
  O  O32  1  0.09473700  0.45189400  0.90017800  1
  O  O33  1  0.04108400  0.04492800  0.39570000  1
  O  O34  1  0.05827800  0.71328100  0.39708400  1
  O  O35  1  0.04723300  0.40443400  0.40079500  1
loop_
_geom_bond_atom_site_label_1
_geom_bond_atom_site_label_2
_geom_bond_distance
_geom_bond_site_symmetry_2
Li0 O11 1.974292 1_555
Li0 O5 2.018770 1_555
Li0 O3 2.154039 1_555
Li0 O34 2.360356 1_655
Li0 O17 2.560295 1_555
Li1 O10 1.952620 1_555
Li1 O5 2.067161 1_545
Li1 O4 2.100879 1_555
Li1 O15 2.126730 1_555
Li1 O33 2.531770 1_655
Li2 O9 1.880416 1_555
Li2 O4 1.972685 1_555
Li2 O3 1.997103 1_555
Li2 O16 2.046247 1_555
Li3 O7 1.997160 1_555
Li3 O2 2.027401 1_545
Li3 O14 2.032611 1_545
Li3 O12 2.127782 1_555
Li4 O6 1.880413 1_555
Li4 O1 1.972679 1_555
Li4 O12 1.997110 1_555
Li4 O13 2.046247 1_555
Li5 O14 1.882089 1_555
Li5 O20 1.975798 1_555
Li5 O18 2.042829 1_565
Li5 O8 2.090375 1_555
Li6 O23 1.989147 1_555
Li6 O28 2.061328 1_555
Li6 O17 2.145336 1_555
Li6 O16 2.170513 1_555
Li7 O19 1.974292 1_555
Li7 O24 2.018770 1_555
Li7 O12 2.154037 1_555
Li7 O18 2.360363 1_555
Li7 O26 2.560295 1_555
Li8 O21 1.919387 1_555
Li8 O27 2.008875 1_555
Li8 O15 2.092929 1_555
Li8 O17 2.133164 1_545
Li9 O20 1.989151 1_555
Li9 O25 2.061322 1_555
Li9 O26 2.145330 1_555
Li9 O13 2.170520 1_555
Li10 O29 1.882093 1_555
Li10 O23 1.975798 1_555
Li10 O34 2.042835 1_555
Li10 O22 2.090376 1_555
Li11 O33 1.990337 1_555
Li11 O28 2.026816 1_545
Li11 O27 2.080288 1_555
Li11 O4 2.437898 1_455
Li11 O21 2.442261 1_555
Li12 O35 1.997158 1_555
Li12 O27 2.027401 1_555
Li12 O29 2.032618 1_555
Li12 O3 2.127782 1_455
Li13 O30 1.990340 1_555
Li13 O25 2.026816 1_545
Li13 O2 2.080295 1_445
Li13 O1 2.437898 1_455
Li13 O31 2.442261 1_545
Li14 O32 1.952614 1_555
Li14 O24 2.067161 1_555
Li14 O1 2.100886 1_455
Li14 O0 2.126724 1_455
Li14 O30 2.531770 1_555
Li15 O31 1.919392 1_555
Li15 O2 2.008875 1_455
Li15 O0 2.092929 1_455
Li15 O26 2.133171 1_555
Mn0 O32 1.961458 1_654
Mn0 O30 1.971607 1_654
Mn0 O3 1.996778 1_555
Mn0 O4 2.057352 1_555
Mn0 O6 2.148931 1_554
Mn0 O27 2.185837 1_655
Mn1 O9 1.913316 1_555
Mn1 O11 1.926744 1_555
Mn1 O35 1.970097 1_655
Mn1 O0 1.980785 1_555
Mn1 O1 1.988513 1_555
Mn1 O13 2.000865 1_555
Mn2 O10 1.961465 1_555
Mn2 O33 1.971606 1_655
Mn2 O12 1.996778 1_555
Mn2 O1 2.057352 1_555
Mn2 O9 2.148937 1_555
Mn2 O2 2.185837 1_545
Mn3 O6 1.913316 1_554
Mn3 O19 1.926744 1_554
Mn3 O7 1.970097 1_554
Mn3 O15 1.980791 1_555
Mn3 O4 1.988513 1_555
Mn3 O16 2.000872 1_555
Mn4 O5 1.916378 1_545
Mn4 O7 1.933632 1_554
Mn4 O15 1.934224 1_555
Mn4 O18 1.951793 1_554
Mn4 O8 1.960059 1_544
Mn4 O17 1.990654 1_545
Mn5 O14 1.910646 1_545
Mn5 O10 1.982419 1_555
Mn5 O22 1.999590 1_555
Mn5 O24 2.038297 1_555
Mn5 O21 2.190653 1_555
Mn5 O12 2.253947 1_555
Mn6 O21 1.900452 1_565
Mn6 O13 1.988556 1_555
Mn6 O11 1.997378 1_555
Mn6 O25 2.046095 1_555
Mn6 O14 2.202918 1_555
Mn6 O23 2.267701 1_555
Mn7 O30 1.922152 1_555
Mn7 O28 1.944116 1_546
Mn7 O20 1.959969 1_545
Mn7 O27 1.961238 1_556
Mn7 O18 1.968774 1_555
Mn7 O17 2.001174 1_546
Mn8 O31 1.900452 1_555
Mn8 O16 1.988563 1_556
Mn8 O19 1.997379 1_555
Mn8 O28 2.046088 1_556
Mn8 O29 2.202918 1_556
Mn8 O20 2.267708 1_555
Mn9 O33 1.922152 1_565
Mn9 O25 1.944103 1_555
Mn9 O23 1.959969 1_555
Mn9 O2 1.961244 1_455
Mn9 O34 1.968780 1_555
Mn9 O26 2.001174 1_555
Mn10 O24 1.916372 1_555
Mn10 O35 1.933626 1_555
Mn10 O0 1.934224 1_455
Mn10 O34 1.951800 1_555
Mn10 O22 1.960059 1_555
Mn10 O26 1.990667 1_555
Mn11 O29 1.910646 1_556
Mn11 O32 1.982426 1_555
Mn11 O8 1.999583 1_455
Mn11 O5 2.038296 1_456
Mn11 O31 2.190652 1_555
Mn11 O3 2.253947 1_456
Fe0 O14 2.059558 1_555
Fe0 O11 2.066751 1_555
Fe0 O10 2.078555 1_565
Fe0 O34 2.083443 1_655
Fe0 O2 2.098646 1_555
Fe0 O0 2.128005 1_555
Fe1 O6 1.985154 1_555
Fe1 O20 2.001273 1_555
Fe1 O3 2.044075 1_556
Fe1 O8 2.061136 1_555
Fe1 O16 2.102016 1_556
Fe1 O17 2.138869 1_556
Fe2 O9 1.985146 1_555
Fe2 O23 2.001273 1_555
Fe2 O12 2.044081 1_555
Fe2 O22 2.061143 1_555
Fe2 O13 2.102016 1_555
Fe2 O26 2.138869 1_555
Fe3 O29 2.059558 1_555
Fe3 O19 2.066757 1_554
Fe3 O32 2.078556 1_554
Fe3 O18 2.083450 1_554
Fe3 O27 2.098653 1_555
Fe3 O15 2.128005 1_555
Fe4 O35 2.096894 1_555
Fe4 O25 2.103677 1_545
Fe4 O21 2.104577 1_555
Fe4 O1 2.145038 1_455
Fe4 O33 2.163900 1_555
Fe4 O24 2.181131 1_555
Fe5 O7 2.096894 1_465
Fe5 O28 2.103669 1_556
Fe5 O31 2.104577 1_555
Fe5 O4 2.145032 1_466
Fe5 O30 2.163900 1_565
Fe5 O5 2.181131 1_456
