# generated using pymatgen
data_Li2FeF4
_symmetry_space_group_name_H-M   'P 1'
_cell_length_a   7.39964900
_cell_length_b   8.91004200
_cell_length_c   9.79552300
_cell_angle_alpha   90.00000000
_cell_angle_beta   90.00000000
_cell_angle_gamma   90.00000000
_symmetry_Int_Tables_number   1
_chemical_formula_structural   Li2FeF4
_chemical_formula_sum   'Li16 Fe8 F32'
_cell_volume   645.83042317
_cell_formula_units_Z   8
loop_
 _symmetry_equiv_pos_site_id
 _symmetry_equiv_pos_as_xyz
  1  'x, y, z'
loop_
 _atom_site_type_symbol
 _atom_site_label
 _atom_site_symmetry_multiplicity
 _atom_site_fract_x
 _atom_site_fract_y
 _atom_site_fract_z
 _atom_site_occupancy
  Li  Li0  1  0.30975500  0.25219400  0.08547900  1
  Li  Li1  1  0.71007000  0.24998400  0.10127900  1
  Li  Li2  1  0.28397100  0.92032900  0.14021900  1
  Li  Li3  1  0.76699000  0.92140000  0.16209800  1
  Li  Li4  1  0.26699000  0.42140000  0.33790200  1
  Li  Li5  1  0.78397100  0.42032900  0.35978100  1
  Li  Li6  1  0.21007000  0.74998400  0.39872100  1
  Li  Li7  1  0.80975500  0.75219400  0.41452100  1
  Li  Li8  1  0.19024500  0.25219400  0.58547900  1
  Li  Li9  1  0.78993000  0.24998400  0.60127900  1
  Li  Li10  1  0.21602900  0.92032900  0.64021900  1
  Li  Li11  1  0.73301000  0.92140000  0.66209800  1
  Li  Li12  1  0.23301000  0.42140000  0.83790200  1
  Li  Li13  1  0.71602900  0.42032900  0.85978100  1
  Li  Li14  1  0.28993000  0.74998400  0.89872100  1
  Li  Li15  1  0.69024500  0.75219400  0.91452100  1
  Fe  Fe0  1  0.97726700  0.57933300  0.11589400  1
  Fe  Fe1  1  0.48038100  0.63892800  0.20215000  1
  Fe  Fe2  1  0.98038100  0.13892800  0.29785000  1
  Fe  Fe3  1  0.47726700  0.07933300  0.38410600  1
  Fe  Fe4  1  0.52273300  0.57933300  0.61589400  1
  Fe  Fe5  1  0.01961900  0.63892800  0.70215000  1
  Fe  Fe6  1  0.51961900  0.13892800  0.79785000  1
  Fe  Fe7  1  0.02273300  0.07933300  0.88410600  1
  F  F0  1  0.51742100  0.18857900  0.99584800  1
  F  F1  1  0.78382200  0.43544700  0.04051500  1
  F  F2  1  0.85553400  0.76896800  0.05466600  1
  F  F3  1  0.89055400  0.09559400  0.08687400  1
  F  F4  1  0.38011400  0.42865200  0.16681800  1
  F  F5  1  0.52272500  0.91025600  0.23446800  1
  F  F6  1  0.23554600  0.11083600  0.21920400  1
  F  F7  1  0.19903600  0.71930800  0.20228300  1
  F  F8  1  0.69903600  0.21930800  0.29771700  1
  F  F9  1  0.73554600  0.61083600  0.28079600  1
  F  F10  1  0.02272500  0.41025600  0.26553200  1
  F  F11  1  0.88011400  0.92865200  0.33318200  1
  F  F12  1  0.39055400  0.59559400  0.41312600  1
  F  F13  1  0.35553400  0.26896800  0.44533400  1
  F  F14  1  0.28382200  0.93544700  0.45948500  1
  F  F15  1  0.01742100  0.68857900  0.50415200  1
  F  F16  1  0.98257900  0.18857900  0.49584800  1
  F  F17  1  0.71617800  0.43544700  0.54051500  1
  F  F18  1  0.64446600  0.76896800  0.55466600  1
  F  F19  1  0.60944600  0.09559400  0.58687400  1
  F  F20  1  0.11988600  0.42865200  0.66681800  1
  F  F21  1  0.97727500  0.91025600  0.73446800  1
  F  F22  1  0.26445400  0.11083600  0.71920400  1
  F  F23  1  0.30096400  0.71930800  0.70228300  1
  F  F24  1  0.80096400  0.21930800  0.79771700  1
  F  F25  1  0.76445400  0.61083600  0.78079600  1
  F  F26  1  0.47727500  0.41025600  0.76553200  1
  F  F27  1  0.61988600  0.92865200  0.83318200  1
  F  F28  1  0.10944600  0.59559400  0.91312600  1
  F  F29  1  0.14446600  0.26896800  0.94533400  1
  F  F30  1  0.21617800  0.93544700  0.95948500  1
  F  F31  1  0.48257900  0.68857900  0.00415200  1
loop_
_geom_bond_atom_site_label_1
_geom_bond_atom_site_label_2
_geom_bond_distance
_geom_bond_site_symmetry_2
F0 Li1 1.843385 1_556
F0 Li0 1.858343 1_556
F0 Fe6 1.989375 1_555
F1 Li1 1.839242 1_555
F1 Li13 1.845007 1_554
F1 Fe0 2.058587 1_555
F2 Li3 1.838849 1_555
F2 Li15 1.844675 1_554
F2 Fe0 2.006504 1_555
F3 Li1 1.922460 1_555
F3 Li3 1.946253 1_545
F3 Fe2 2.204951 1_555
F3 Fe7 2.218714 1_654
F4 Li0 1.837892 1_555
F4 Li4 1.874399 1_555
F4 Fe1 2.044631 1_555
F5 Li3 1.944060 1_555
F5 Li2 1.995395 1_555
F5 Fe3 2.128651 1_565
F5 Fe1 2.458234 1_555
F6 Li0 1.898353 1_555
F6 Li2 1.899543 1_545
F6 Fe2 2.054550 1_455
F6 Fe3 2.426367 1_555
F7 Li6 1.945242 1_555
F7 Li2 1.993153 1_555
F7 Fe1 2.201601 1_555
F7 Fe0 2.228113 1_455
F8 Li1 1.945242 1_555
F8 Li5 1.993153 1_555
F8 Fe2 2.201601 1_555
F8 Fe3 2.228113 1_555
F9 Li7 1.898353 1_555
F9 Li5 1.899543 1_555
F9 Fe1 2.054550 1_555
F9 Fe0 2.426367 1_555
F10 Li4 1.944060 1_555
F10 Li5 1.995395 1_455
F10 Fe0 2.128651 1_455
F10 Fe2 2.458234 1_455
F11 Li7 1.837892 1_555
F11 Li3 1.874399 1_555
F11 Fe2 2.044631 1_565
F12 Li6 1.922460 1_555
F12 Li4 1.946253 1_555
F12 Fe1 2.204951 1_555
F12 Fe4 2.218714 1_555
F13 Li4 1.838849 1_555
F13 Li8 1.844675 1_555
F13 Fe3 2.006504 1_555
F14 Li6 1.839242 1_555
F14 Li10 1.845007 1_555
F14 Fe3 2.058587 1_565
F15 Li6 1.843385 1_555
F15 Li7 1.858343 1_455
F15 Fe5 1.989375 1_555
F16 Li9 1.843385 1_555
F16 Li8 1.858343 1_655
F16 Fe2 1.989375 1_555
F17 Li9 1.839242 1_555
F17 Li5 1.845007 1_555
F17 Fe4 2.058587 1_555
F18 Li11 1.838849 1_555
F18 Li7 1.844675 1_555
F18 Fe4 2.006504 1_555
F19 Li9 1.922460 1_555
F19 Li11 1.946253 1_545
F19 Fe6 2.204951 1_555
F19 Fe3 2.218714 1_555
F20 Li8 1.837892 1_555
F20 Li12 1.874399 1_555
F20 Fe5 2.044631 1_555
F21 Li11 1.944060 1_555
F21 Li10 1.995395 1_655
F21 Fe7 2.128651 1_665
F21 Fe5 2.458234 1_655
F22 Li8 1.898353 1_555
F22 Li10 1.899543 1_545
F22 Fe6 2.054550 1_555
F22 Fe7 2.426367 1_555
F23 Li14 1.945242 1_555
F23 Li10 1.993153 1_555
F23 Fe5 2.201601 1_555
F23 Fe4 2.228113 1_555
F24 Li9 1.945242 1_555
F24 Li13 1.993153 1_555
F24 Fe6 2.201601 1_555
F24 Fe7 2.228113 1_655
F25 Li15 1.898353 1_555
F25 Li13 1.899543 1_555
F25 Fe5 2.054550 1_655
F25 Fe4 2.426367 1_555
F26 Li12 1.944060 1_555
F26 Li13 1.995395 1_555
F26 Fe4 2.128651 1_555
F26 Fe6 2.458234 1_555
F27 Li15 1.837892 1_555
F27 Li11 1.874399 1_555
F27 Fe6 2.044631 1_565
F28 Li14 1.922460 1_555
F28 Li12 1.946253 1_555
F28 Fe5 2.204951 1_555
F28 Fe0 2.218714 1_456
F29 Li12 1.838849 1_555
F29 Li0 1.844675 1_556
F29 Fe7 2.006504 1_555
F30 Li14 1.839242 1_555
F30 Li2 1.845007 1_556
F30 Fe7 2.058587 1_565
F31 Li14 1.843385 1_554
F31 Li15 1.858343 1_554
F31 Fe1 1.989375 1_555
