# generated using pymatgen
data_LiMnOF2
_symmetry_space_group_name_H-M   'P 1'
_cell_length_a   4.98778500
_cell_length_b   8.52261400
_cell_length_c   5.23149200
_cell_angle_alpha   89.99995793
_cell_angle_beta   90.00002244
_cell_angle_gamma   90.00000000
_symmetry_Int_Tables_number   1
_chemical_formula_structural   LiMnOF2
_chemical_formula_sum   'Li4 Mn4 O4 F8'
_cell_volume   222.38531697
_cell_formula_units_Z   4
loop_
 _symmetry_equiv_pos_site_id
 _symmetry_equiv_pos_as_xyz
  1  'x, y, z'
loop_
 _atom_site_type_symbol
 _atom_site_label
 _atom_site_symmetry_multiplicity
 _atom_site_fract_x
 _atom_site_fract_y
 _atom_site_fract_z
 _atom_site_occupancy
  Li  Li0  1  0.00000100  0.21434000  0.74999800  1
  Li  Li1  1  0.00000000  0.82343900  0.24999900  1
  Li  Li2  1  0.49999900  0.71433300  0.24999800  1
  Li  Li3  1  0.50000000  0.32344600  0.74999900  1
  Mn  Mn0  1  0.99999700  0.57271600  0.74999400  1
  Mn  Mn1  1  0.99997600  0.40604200  0.25001800  1
  Mn  Mn2  1  0.50000300  0.07271600  0.24999700  1
  Mn  Mn3  1  0.50002300  0.90606700  0.75001100  1
  O  O0  1  0.18168700  0.41234100  0.56794300  1
  O  O1  1  0.31831200  0.91234400  0.06794300  1
  O  O2  1  0.68169200  0.91234300  0.43205700  1
  O  O3  1  0.81831100  0.41234000  0.93205400  1
  F  F0  1  0.22978200  0.58475200  0.09763000  1
  F  F1  1  0.22875700  0.74463300  0.58524200  1
  F  F2  1  0.27124500  0.24462800  0.08524000  1
  F  F3  1  0.27021100  0.08475500  0.59762800  1
  F  F4  1  0.72979200  0.08475600  0.90236800  1
  F  F5  1  0.72875500  0.24462800  0.41475800  1
  F  F6  1  0.77124300  0.74463200  0.91475700  1
  F  F7  1  0.77021300  0.58475300  0.40236600  1
loop_
_geom_bond_atom_site_label_1
_geom_bond_atom_site_label_2
_geom_bond_distance
_geom_bond_site_symmetry_2
Li0 O0 2.139142 1_555
Li0 O3 2.139147 1_455
Li1 O2 2.000468 1_455
Li1 O1 2.000482 1_555
Li2 O1 2.139211 1_555
Li2 O2 2.139227 1_555
Li3 O3 2.000440 1_555
Li3 O0 2.000453 1_555
Mn0 O0 1.896444 1_655
Mn0 O3 1.896463 1_555
Mn1 O0 1.894896 1_655
Mn1 O3 1.894965 1_554
Mn2 O1 1.896436 1_545
Mn2 O2 1.896452 1_545
Mn3 O1 1.894924 1_556
Mn3 O2 1.894924 1_555
F0 Li2 1.916127 1_555
F0 Mn1 2.066190 1_455
F0 Mn0 2.152118 1_454
F0 Li1 2.467199 1_555
F1 Mn0 2.047321 1_455
F1 Mn3 2.113436 1_555
F1 Li1 2.197461 1_555
F1 Li2 2.230005 1_555
F2 Mn2 2.047295 1_555
F2 Mn1 2.113354 1_455
F2 Li3 2.197480 1_554
F2 Li0 2.229991 1_554
F3 Li0 1.916126 1_555
F3 Mn3 2.066058 1_545
F3 Mn2 2.152117 1_555
F3 Li3 2.467247 1_555
F4 Li0 1.916117 1_655
F4 Mn3 2.065894 1_545
F4 Mn2 2.152100 1_556
F4 Li3 2.467242 1_555
F5 Mn2 2.047288 1_555
F5 Mn1 2.113119 1_555
F5 Li3 2.197480 1_555
F5 Li0 2.229988 1_655
F6 Mn0 2.047323 1_555
F6 Mn3 2.113245 1_555
F6 Li1 2.197460 1_656
F6 Li2 2.229998 1_556
F7 Li2 1.916110 1_555
F7 Mn1 2.065998 1_555
F7 Mn0 2.152081 1_555
F7 Li1 2.467200 1_655
