# generated using pymatgen
data_LiCuPO4
_symmetry_space_group_name_H-M   'P 1'
_cell_length_a   5.29474100
_cell_length_b   8.03778300
_cell_length_c   8.48359217
_cell_angle_alpha   75.81082454
_cell_angle_beta   90.00000000
_cell_angle_gamma   90.00000000
_symmetry_Int_Tables_number   1
_chemical_formula_structural   LiCuPO4
_chemical_formula_sum   'Li4 Cu4 P4 O16'
_cell_volume   350.02967569
_cell_formula_units_Z   4
loop_
 _symmetry_equiv_pos_site_id
 _symmetry_equiv_pos_as_xyz
  1  'x, y, z'
loop_
 _atom_site_type_symbol
 _atom_site_label
 _atom_site_symmetry_multiplicity
 _atom_site_fract_x
 _atom_site_fract_y
 _atom_site_fract_z
 _atom_site_occupancy
  Li  Li0  1  0.86198900  0.03641800  0.07138700  1
  Li  Li1  1  0.32687500  0.49234400  0.28701200  1
  Li  Li2  1  0.13801100  0.03641800  0.57138700  1
  Li  Li3  1  0.67312500  0.49234400  0.78701200  1
  Cu  Cu0  1  0.34665800  0.12198500  0.21140800  1
  Cu  Cu1  1  0.83335700  0.63549200  0.37671200  1
  Cu  Cu2  1  0.65334200  0.12198500  0.71140800  1
  Cu  Cu3  1  0.16664300  0.63549200  0.87671200  1
  P  P0  1  0.66568700  0.75268100  0.00829500  1
  P  P1  1  0.82294000  0.26012500  0.33131100  1
  P  P2  1  0.33431300  0.75268100  0.50829500  1
  P  P3  1  0.17706000  0.26012500  0.83131100  1
  O  O0  1  0.19711000  0.13154900  0.00097300  1
  O  O1  1  0.38731000  0.69887800  0.04152300  1
  O  O2  1  0.70395200  0.17766200  0.19987200  1
  O  O3  1  0.10519200  0.29591500  0.28972800  1
  O  O4  1  0.78715700  0.78481400  0.16616700  1
  O  O5  1  0.67703300  0.42638600  0.33400200  1
  O  O6  1  0.80289000  0.13154900  0.50097300  1
  O  O7  1  0.19140300  0.61480200  0.44376800  1
  O  O8  1  0.28846100  0.93214600  0.39164300  1
  O  O9  1  0.61269000  0.69887800  0.54152300  1
  O  O10  1  0.29604800  0.17766200  0.69987200  1
  O  O11  1  0.89480800  0.29591500  0.78972800  1
  O  O12  1  0.21284300  0.78481400  0.66616700  1
  O  O13  1  0.32296700  0.42638600  0.83400200  1
  O  O14  1  0.80859700  0.61480200  0.94376800  1
  O  O15  1  0.71153900  0.93214600  0.89164300  1
loop_
_geom_bond_atom_site_label_1
_geom_bond_atom_site_label_2
_geom_bond_distance
_geom_bond_site_symmetry_2
Li0 O2 1.945215 1_555
Li0 O0 1.966217 1_655
Li0 O4 2.023902 1_545
Li0 O15 2.070940 1_544
Li1 O5 1.942594 1_555
Li1 O3 1.962950 1_555
Li1 O7 1.973211 1_555
Li1 O1 2.345344 1_555
Li2 O10 1.945215 1_555
Li2 O6 1.966217 1_455
Li2 O12 2.023902 1_545
Li2 O8 2.070940 1_545
Li3 O13 1.942594 1_555
Li3 O11 1.962950 1_555
Li3 O14 1.973211 1_555
Li3 O9 2.345344 1_555
Cu0 O8 1.901951 1_545
Cu0 O0 1.937190 1_555
Cu0 O2 1.940930 1_555
Cu0 O3 2.117984 1_555
Cu1 O4 1.907825 1_555
Cu1 O7 1.974539 1_655
Cu1 O9 1.982129 1_555
Cu1 O5 1.984903 1_555
Cu2 O15 1.901951 1_545
Cu2 O6 1.937190 1_555
Cu2 O10 1.940930 1_555
Cu2 O11 2.117984 1_555
Cu3 O12 1.907825 1_555
Cu3 O14 1.974539 1_455
Cu3 O1 1.982129 1_556
Cu3 O13 1.984903 1_555
O0 P3 1.556207 1_554
O1 P0 1.542465 1_555
O2 P1 1.562682 1_555
O3 P1 1.546233 1_455
O4 P0 1.563240 1_555
O5 P1 1.548606 1_555
O6 P1 1.556207 1_555
O7 P2 1.548497 1_555
O8 P2 1.555398 1_555
O9 P2 1.542465 1_555
O10 P3 1.562682 1_555
O11 P3 1.546233 1_655
O12 P2 1.563240 1_555
O13 P3 1.548606 1_555
O14 P0 1.548497 1_556
O15 P0 1.555398 1_556
