# generated using pymatgen
data_Y2W2O9
_symmetry_space_group_name_H-M   'P 1'
_cell_length_a   5.37801100
_cell_length_b   5.49375300
_cell_length_c   23.76542100
_cell_angle_alpha   90.00000000
_cell_angle_beta   90.00000000
_cell_angle_gamma   90.00000000
_symmetry_Int_Tables_number   1
_chemical_formula_structural   Y2W2O9
_chemical_formula_sum   'Y8 W8 O36'
_cell_volume   702.16039215
_cell_formula_units_Z   4
loop_
 _symmetry_equiv_pos_site_id
 _symmetry_equiv_pos_as_xyz
  1  'x, y, z'
loop_
 _atom_site_type_symbol
 _atom_site_label
 _atom_site_symmetry_multiplicity
 _atom_site_fract_x
 _atom_site_fract_y
 _atom_site_fract_z
 _atom_site_occupancy
  Y  Y0  1  0.27655500  0.88762300  0.29740300  1
  Y  Y1  1  0.77655500  0.88762300  0.20259700  1
  Y  Y2  1  0.27655500  0.61237700  0.70259700  1
  Y  Y3  1  0.77655500  0.61237700  0.79740300  1
  Y  Y4  1  0.72344500  0.38762300  0.29740300  1
  Y  Y5  1  0.22344500  0.38762300  0.20259700  1
  Y  Y6  1  0.72344500  0.11237700  0.70259700  1
  Y  Y7  1  0.22344500  0.11237700  0.79740300  1
  W  W0  1  0.75130800  0.82152800  0.42165000  1
  W  W1  1  0.25130800  0.82152800  0.07835000  1
  W  W2  1  0.75130800  0.67847200  0.57835000  1
  W  W3  1  0.25130800  0.67847200  0.92165000  1
  W  W4  1  0.24869200  0.32152800  0.42165000  1
  W  W5  1  0.74869200  0.32152800  0.07835000  1
  W  W6  1  0.24869200  0.17847200  0.57835000  1
  W  W7  1  0.74869200  0.17847200  0.92165000  1
  O  O0  1  0.54012800  0.98700500  0.09767900  1
  O  O1  1  0.45987200  0.01299500  0.90232100  1
  O  O2  1  0.00572300  0.87272400  0.74050300  1
  O  O3  1  0.44993100  0.92909000  0.56056000  1
  O  O4  1  0.50572300  0.87272400  0.75949700  1
  O  O5  1  0.94993100  0.92909000  0.93944000  1
  O  O6  1  0.63448200  0.77680400  0.34827600  1
  O  O7  1  0.13448200  0.77680400  0.15172400  1
  O  O8  1  0.33881400  0.75000000  0.00000000  1
  O  O9  1  0.83881400  0.75000000  0.50000000  1
  O  O10  1  0.63448200  0.72319600  0.65172400  1
  O  O11  1  0.13448200  0.72319600  0.84827600  1
  O  O12  1  0.44993100  0.57091000  0.43944000  1
  O  O13  1  0.00572300  0.62727600  0.25949700  1
  O  O14  1  0.94993100  0.57091000  0.06056000  1
  O  O15  1  0.50572300  0.62727600  0.24050300  1
  O  O16  1  0.95987200  0.48700500  0.40232100  1
  O  O17  1  0.04012800  0.51299500  0.59767900  1
  O  O18  1  0.45987200  0.48700500  0.09767900  1
  O  O19  1  0.54012800  0.51299500  0.90232100  1
  O  O20  1  0.99427700  0.37272400  0.74050300  1
  O  O21  1  0.55006900  0.42909000  0.56056000  1
  O  O22  1  0.49427700  0.37272400  0.75949700  1
  O  O23  1  0.05006900  0.42909000  0.93944000  1
  O  O24  1  0.36551800  0.27680400  0.34827600  1
  O  O25  1  0.86551800  0.27680400  0.15172400  1
  O  O26  1  0.66118600  0.25000000  0.00000000  1
  O  O27  1  0.16118600  0.25000000  0.50000000  1
  O  O28  1  0.36551800  0.22319600  0.65172400  1
  O  O29  1  0.86551800  0.22319600  0.84827600  1
  O  O30  1  0.55006900  0.07091000  0.43944000  1
  O  O31  1  0.99427700  0.12727600  0.25949700  1
  O  O32  1  0.05006900  0.07091000  0.06056000  1
  O  O33  1  0.49427700  0.12727600  0.24050300  1
  O  O34  1  0.04012800  0.98700500  0.40232100  1
  O  O35  1  0.95987200  0.01299500  0.59767900  1
loop_
_geom_bond_atom_site_label_1
_geom_bond_atom_site_label_2
_geom_bond_distance
_geom_bond_site_symmetry_2
O0 W1 1.857452 1_555
O0 W5 2.201498 1_565
O0 Y1 2.851661 1_555
O1 W7 1.857452 1_555
O1 W3 2.201498 1_545
O1 Y7 2.851661 1_555
O2 Y6 2.202173 1_465
O2 Y7 2.221045 1_565
O2 Y2 2.231310 1_555
O2 Y3 2.322342 1_455
O3 W6 1.796404 1_565
O3 W2 2.168280 1_555
O4 Y7 2.202173 1_565
O4 Y6 2.221045 1_565
O4 Y3 2.231310 1_555
O4 Y2 2.322342 1_555
O5 W7 1.796404 1_565
O5 W3 2.168280 1_655
O6 W0 1.869715 1_555
O6 Y0 2.353243 1_555
O6 Y4 2.502389 1_555
O7 W1 1.869715 1_555
O7 Y1 2.353243 1_455
O7 Y5 2.502389 1_555
O8 W3 1.960359 1_554
O8 W1 1.960359 1_555
O9 W0 1.960359 1_555
O9 W2 1.960359 1_555
O10 W2 1.869715 1_555
O10 Y2 2.353243 1_555
O10 Y6 2.502389 1_565
O11 W3 1.869715 1_555
O11 Y3 2.353243 1_455
O11 Y7 2.502389 1_565
O12 W4 1.796404 1_555
O12 W0 2.168280 1_555
O13 Y4 2.202173 1_455
O13 Y5 2.221045 1_555
O13 Y0 2.231310 1_555
O13 Y1 2.322342 1_455
O14 W5 1.796404 1_555
O14 W1 2.168280 1_655
O15 Y5 2.202173 1_555
O15 Y4 2.221045 1_555
O15 Y1 2.231310 1_555
O15 Y0 2.322342 1_555
O16 W4 1.857452 1_655
O16 W0 2.201498 1_555
O16 Y4 2.851661 1_555
O17 W2 1.857452 1_455
O17 W6 2.201498 1_555
O17 Y2 2.851661 1_555
O18 W5 1.857452 1_555
O18 W1 2.201498 1_555
O18 Y5 2.851661 1_555
O19 W3 1.857452 1_555
O19 W7 2.201498 1_555
O19 Y3 2.851661 1_555
O20 Y2 2.202173 1_655
O20 Y3 2.221045 1_555
O20 Y6 2.231310 1_555
O20 Y7 2.322342 1_655
O21 W2 1.796404 1_555
O21 W6 2.168280 1_555
O22 Y3 2.202173 1_555
O22 Y2 2.221045 1_555
O22 Y7 2.231310 1_555
O22 Y6 2.322342 1_555
O23 W3 1.796404 1_555
O23 W7 2.168280 1_455
O24 W4 1.869715 1_555
O24 Y4 2.353243 1_555
O24 Y0 2.502389 1_545
O25 W5 1.869715 1_555
O25 Y5 2.353243 1_655
O25 Y1 2.502389 1_545
O26 W7 1.960359 1_554
O26 W5 1.960359 1_555
O27 W4 1.960359 1_555
O27 W6 1.960359 1_555
O28 W6 1.869715 1_555
O28 Y6 2.353243 1_555
O28 Y2 2.502389 1_555
O29 W7 1.869715 1_555
O29 Y7 2.353243 1_655
O29 Y3 2.502389 1_555
O30 W0 1.796404 1_545
O30 W4 2.168280 1_555
O31 Y0 2.202173 1_645
O31 Y1 2.221045 1_545
O31 Y4 2.231310 1_555
O31 Y5 2.322342 1_655
O32 W1 1.796404 1_545
O32 W5 2.168280 1_455
O33 Y1 2.202173 1_545
O33 Y0 2.221045 1_545
O33 Y5 2.231310 1_555
O33 Y4 2.322342 1_555
O34 W0 1.857452 1_455
O34 W4 2.201498 1_565
O34 Y0 2.851661 1_555
O35 W6 1.857452 1_655
O35 W2 2.201498 1_545
O35 Y6 2.851661 1_555
