# generated using pymatgen
data_Mn2O3F
_symmetry_space_group_name_H-M   'P 1'
_cell_length_a   5.49565333
_cell_length_b   5.49565333
_cell_length_c   8.74623723
_cell_angle_alpha   87.77982424
_cell_angle_beta   87.77982424
_cell_angle_gamma   74.86922883
_symmetry_Int_Tables_number   1
_chemical_formula_structural   Mn2O3F
_chemical_formula_sum   'Mn8 O12 F4'
_cell_volume   254.69440326
_cell_formula_units_Z   4
loop_
 _symmetry_equiv_pos_site_id
 _symmetry_equiv_pos_as_xyz
  1  'x, y, z'
loop_
 _atom_site_type_symbol
 _atom_site_label
 _atom_site_symmetry_multiplicity
 _atom_site_fract_x
 _atom_site_fract_y
 _atom_site_fract_z
 _atom_site_occupancy
  Mn  Mn0  1  0.62341600  0.62670900  0.87554500  1
  Mn  Mn1  1  0.89186100  0.85734600  0.62586800  1
  Mn  Mn2  1  0.23105600  0.26969000  0.74927700  1
  Mn  Mn3  1  0.48535800  0.51464200  0.50000000  1
  Mn  Mn4  1  0.73031000  0.76894400  0.25072300  1
  Mn  Mn5  1  0.14265400  0.10813900  0.37413200  1
  Mn  Mn6  1  0.37329100  0.37658400  0.12445500  1
  Mn  Mn7  1  0.02753600  0.97246400  0.00000000  1
  O  O0  1  0.93910900  0.55796100  0.75002800  1
  O  O1  1  0.71708600  0.72800900  0.47413000  1
  O  O2  1  0.46900500  0.47418400  0.72061800  1
  O  O3  1  0.22607200  0.21822800  0.97030800  1
  O  O4  1  0.97352400  0.97274800  0.22192500  1
  O  O5  1  0.02725200  0.02647600  0.77807500  1
  O  O6  1  0.52581600  0.53099500  0.27938200  1
  O  O7  1  0.27199100  0.28291400  0.52587000  1
  O  O8  1  0.78177200  0.77392800  0.02969200  1
  O  O9  1  0.19816200  0.80183800  0.50000000  1
  O  O10  1  0.44203900  0.06089100  0.24997200  1
  O  O11  1  0.31265700  0.68734300  0.00000000  1
  F  F0  1  0.54604800  0.96592700  0.74398500  1
  F  F1  1  0.81017600  0.18982400  0.50000000  1
  F  F2  1  0.71973500  0.28026500  0.00000000  1
  F  F3  1  0.03407300  0.45395200  0.25601500  1
loop_
_geom_bond_atom_site_label_1
_geom_bond_atom_site_label_2
_geom_bond_distance
_geom_bond_site_symmetry_2
Mn0 O8 1.942321 1_556
Mn0 O11 1.949241 1_556
Mn0 O2 1.951219 1_555
Mn0 O0 1.974918 1_555
Mn1 O0 1.901085 1_555
Mn1 O1 1.928041 1_555
Mn1 O5 1.929615 1_665
Mn1 O9 1.937246 1_655
Mn2 O2 1.938000 1_555
Mn2 O0 1.938330 1_455
Mn2 O3 1.943074 1_555
Mn2 O7 1.958920 1_555
Mn2 O5 1.959099 1_555
Mn3 O9 1.918793 1_555
Mn3 O2 1.935081 1_555
Mn3 O6 1.935081 1_555
Mn3 O1 1.945416 1_555
Mn3 O7 1.945416 1_555
Mn4 O6 1.938000 1_555
Mn4 O10 1.938330 1_565
Mn4 O8 1.943074 1_555
Mn4 O1 1.958920 1_555
Mn4 O4 1.959099 1_555
Mn5 O10 1.901085 1_555
Mn5 O7 1.928041 1_555
Mn5 O4 1.929615 1_445
Mn5 O9 1.937246 1_545
Mn6 O3 1.942321 1_554
Mn6 O11 1.949241 1_555
Mn6 O6 1.951219 1_555
Mn6 O10 1.974918 1_555
Mn7 O11 1.904930 1_555
Mn7 O8 1.949950 1_455
Mn7 O3 1.949950 1_564
Mn7 O5 1.952173 1_564
Mn7 O4 1.952173 1_455
F0 Mn2 2.068036 1_565
F0 Mn1 2.082962 1_555
F0 Mn0 2.106664 1_555
F1 Mn1 2.050921 1_545
F1 Mn5 2.050921 1_655
F1 Mn3 2.170151 1_555
F2 Mn7 2.056458 1_645
F2 Mn0 2.109021 1_554
F2 Mn6 2.109021 1_555
F3 Mn4 2.068036 1_455
F3 Mn5 2.082962 1_555
F3 Mn6 2.106664 1_555
