# generated using pymatgen
data_K4TiO4
_symmetry_space_group_name_H-M   'P 1'
_cell_length_a   6.60693316
_cell_length_b   10.49563710
_cell_length_c   10.65548830
_cell_angle_alpha   68.49005527
_cell_angle_beta   90.00000000
_cell_angle_gamma   90.00000000
_symmetry_Int_Tables_number   1
_chemical_formula_structural   K4TiO4
_chemical_formula_sum   'K16 Ti4 O16'
_cell_volume   687.43284334
_cell_formula_units_Z   4
loop_
 _symmetry_equiv_pos_site_id
 _symmetry_equiv_pos_as_xyz
  1  'x, y, z'
loop_
 _atom_site_type_symbol
 _atom_site_label
 _atom_site_symmetry_multiplicity
 _atom_site_fract_x
 _atom_site_fract_y
 _atom_site_fract_z
 _atom_site_occupancy
  K  K0  1  0.58413805  0.94054241  0.69638379  1
  K  K1  1  0.10304183  0.83341547  0.58380326  1
  K  K2  1  0.91586195  0.94054241  0.19638379  1
  K  K3  1  0.32522264  0.63181514  0.88946217  1
  K  K4  1  0.79043216  0.56552770  0.79950638  1
  K  K5  1  0.39695817  0.83341547  0.08380326  1
  K  K6  1  0.17477736  0.63181514  0.38946217  1
  K  K7  1  0.29043216  0.43447230  0.70049362  1
  K  K8  1  0.70956784  0.56552770  0.29950638  1
  K  K9  1  0.82522264  0.36818486  0.61053783  1
  K  K10  1  0.60304183  0.16658453  0.91619674  1
  K  K11  1  0.20956784  0.43447230  0.20049362  1
  K  K12  1  0.67477736  0.36818486  0.11053783  1
  K  K13  1  0.08413805  0.05945759  0.80361621  1
  K  K14  1  0.89695817  0.16658453  0.41619674  1
  K  K15  1  0.41586195  0.05945759  0.30361621  1
  Ti  Ti0  1  0.86477163  0.75674758  0.99212865  1
  Ti  Ti1  1  0.63522837  0.75674758  0.49212865  1
  Ti  Ti2  1  0.36477163  0.24325242  0.50787135  1
  Ti  Ti3  1  0.13522837  0.24325242  0.00787135  1
  O  O0  1  0.76154606  0.92438327  0.97042979  1
  O  O1  1  -0.00561349  0.77367038  0.83503340  1
  O  O2  1  0.73845394  0.92438327  0.47042979  1
  O  O3  1  0.46384862  0.69381389  0.63954297  1
  O  O4  1  0.50561349  0.77367038  0.33503340  1
  O  O5  1  0.84829035  0.63633413  0.52345775  1
  O  O6  1  0.03615138  0.69381389  0.13954297  1
  O  O7  1  0.34829035  0.36366587  0.97654225  1
  O  O8  1  0.65170965  0.63633413  0.02345775  1
  O  O9  1  0.96384862  0.30618611  0.86045703  1
  O  O10  1  0.15170965  0.36366587  0.47654225  1
  O  O11  1  0.49438651  0.22632962  0.66496660  1
  O  O12  1  0.53615138  0.30618611  0.36045703  1
  O  O13  1  0.26154606  0.07561673  0.52957021  1
  O  O14  1  0.00561349  0.22632962  0.16496660  1
  O  O15  1  0.23845394  0.07561673  0.02957021  1
loop_
_geom_bond_atom_site_label_1
_geom_bond_atom_site_label_2
_geom_bond_distance
_geom_bond_site_symmetry_2
K0 O2 2.676655 1_555
K0 O13 2.804281 1_565
K0 O11 2.953718 1_565
K0 O3 2.975651 1_555
K0 O0 3.092961 1_555
K0 O1 3.270990 1_655
K1 O13 2.610637 1_565
K1 O1 2.616064 1_555
K1 O2 2.706935 1_455
K1 O3 2.746644 1_555
K1 O5 2.915547 1_455
K2 O0 2.676655 1_554
K2 O15 2.804281 1_665
K2 O14 2.953718 1_665
K2 O6 2.975651 1_655
K2 O2 3.092961 1_555
K2 O4 3.270990 1_555
K3 O1 2.587977 1_555
K3 O8 2.596820 1_556
K3 O7 2.624881 1_555
K3 O3 2.661422 1_555
K4 O1 2.708872 1_655
K4 O3 2.773256 1_555
K4 O5 2.783420 1_555
K4 O9 2.801287 1_555
K4 O8 2.896080 1_556
K5 O15 2.610637 1_565
K5 O4 2.616064 1_555
K5 O0 2.706935 1_554
K5 O6 2.746644 1_555
K5 O8 2.915547 1_555
K6 O4 2.587977 1_555
K6 O5 2.596820 1_455
K6 O10 2.624881 1_555
K6 O6 2.661422 1_555
K7 O11 2.708872 1_555
K7 O9 2.773256 1_455
K7 O7 2.783420 1_555
K7 O3 2.801287 1_555
K7 O10 2.896080 1_555
K8 O4 2.708872 1_555
K8 O6 2.773256 1_655
K8 O8 2.783420 1_555
K8 O12 2.801287 1_555
K8 O5 2.896080 1_555
K9 O11 2.587977 1_555
K9 O10 2.596820 1_655
K9 O5 2.624881 1_555
K9 O9 2.661422 1_555
K10 O0 2.610637 1_545
K10 O11 2.616064 1_555
K10 O15 2.706935 1_556
K10 O9 2.746644 1_555
K10 O7 2.915547 1_555
K11 O14 2.708872 1_555
K11 O12 2.773256 1_555
K11 O10 2.783420 1_555
K11 O6 2.801287 1_555
K11 O7 2.896080 1_554
K12 O14 2.587977 1_655
K12 O7 2.596820 1_554
K12 O8 2.624881 1_555
K12 O12 2.661422 1_555
K13 O15 2.676655 1_556
K13 O0 2.804281 1_445
K13 O1 2.953718 1_545
K13 O9 2.975651 1_455
K13 O13 3.092961 1_555
K13 O11 3.270990 1_555
K14 O2 2.610637 1_545
K14 O14 2.616064 1_655
K14 O13 2.706935 1_655
K14 O12 2.746644 1_555
K14 O10 2.915547 1_655
K15 O13 2.676655 1_555
K15 O2 2.804281 1_545
K15 O4 2.953718 1_545
K15 O12 2.975651 1_555
K15 O15 3.092961 1_555
K15 O14 3.270990 1_555
O0 Ti0 1.820964 1_555
O1 Ti0 1.829999 1_455
O2 Ti1 1.820964 1_555
O3 Ti1 1.850637 1_555
O4 Ti1 1.829999 1_555
O5 Ti1 1.838713 1_555
O6 Ti0 1.850637 1_454
O7 Ti3 1.838713 1_556
O8 Ti0 1.838713 1_554
O9 Ti3 1.850637 1_656
O10 Ti2 1.838713 1_555
O11 Ti2 1.829999 1_555
O12 Ti2 1.850637 1_555
O13 Ti2 1.820964 1_555
O14 Ti3 1.829999 1_555
O15 Ti3 1.820964 1_555
