# generated using pymatgen
data_Li2CoSiO4
_symmetry_space_group_name_H-M   'P 1'
_cell_length_a   5.40540400
_cell_length_b   6.04314100
_cell_length_c   10.73914644
_cell_angle_alpha   86.05518672
_cell_angle_beta   90.00000000
_cell_angle_gamma   90.00000000
_symmetry_Int_Tables_number   1
_chemical_formula_structural   Li2CoSiO4
_chemical_formula_sum   'Li8 Co4 Si4 O16'
_cell_volume   349.96973528
_cell_formula_units_Z   4
loop_
 _symmetry_equiv_pos_site_id
 _symmetry_equiv_pos_as_xyz
  1  'x, y, z'
loop_
 _atom_site_type_symbol
 _atom_site_label
 _atom_site_symmetry_multiplicity
 _atom_site_fract_x
 _atom_site_fract_y
 _atom_site_fract_z
 _atom_site_occupancy
  Li  Li0  1  0.31695400  0.02699900  0.82986400  1
  Li  Li1  1  0.18304600  0.02699900  0.32986400  1
  Li  Li2  1  0.17945700  0.22777400  0.57515700  1
  Li  Li3  1  0.32054300  0.22777400  0.07515700  1
  Li  Li4  1  0.67945700  0.77222600  0.92484300  1
  Li  Li5  1  0.82054300  0.77222600  0.42484300  1
  Li  Li6  1  0.81695400  0.97300100  0.67013600  1
  Li  Li7  1  0.68304600  0.97300100  0.17013600  1
  Co  Co0  1  0.17266800  0.54114600  0.83381000  1
  Co  Co1  1  0.67266800  0.45885400  0.66619000  1
  Co  Co2  1  0.32733200  0.54114600  0.33381000  1
  Co  Co3  1  0.82733200  0.45885400  0.16619000  1
  Si  Si0  1  0.81471800  0.25336600  0.91263500  1
  Si  Si1  1  0.68528200  0.25336600  0.41263500  1
  Si  Si2  1  0.31471800  0.74663400  0.58736500  1
  Si  Si3  1  0.18528200  0.74663400  0.08736500  1
  O  O0  1  0.68505600  0.07257200  0.82898200  1
  O  O1  1  0.81494400  0.07257200  0.32898200  1
  O  O2  1  0.12117800  0.23730300  0.92182700  1
  O  O3  1  0.37882200  0.23730300  0.42182700  1
  O  O4  1  0.81299900  0.25532200  0.55191400  1
  O  O5  1  0.29044500  0.49149600  0.66430600  1
  O  O6  1  0.68700100  0.25532200  0.05191400  1
  O  O7  1  0.20955500  0.49149600  0.16430600  1
  O  O8  1  0.79044500  0.50850400  0.83569400  1
  O  O9  1  0.31299900  0.74467800  0.94808600  1
  O  O10  1  0.70955500  0.50850400  0.33569400  1
  O  O11  1  0.18700100  0.74467800  0.44808600  1
  O  O12  1  0.62117800  0.76269700  0.57817300  1
  O  O13  1  0.87882200  0.76269700  0.07817300  1
  O  O14  1  0.18505600  0.92742800  0.67101800  1
  O  O15  1  0.31494400  0.92742800  0.17101800  1
loop_
_geom_bond_atom_site_label_1
_geom_bond_atom_site_label_2
_geom_bond_distance
_geom_bond_site_symmetry_2
Li0 O2 1.970565 1_555
Li0 O14 1.980305 1_545
Li0 O0 2.008642 1_555
Li0 O9 2.055508 1_545
Li1 O3 1.970565 1_555
Li1 O15 1.980305 1_545
Li1 O1 2.008642 1_455
Li1 O11 2.055508 1_545
Li2 O3 1.965451 1_555
Li2 O4 2.002020 1_455
Li2 O5 2.006577 1_555
Li2 O14 2.024344 1_545
Li3 O2 1.965451 1_554
Li3 O6 2.002020 1_555
Li3 O7 2.006577 1_555
Li3 O15 2.024344 1_545
Li4 O13 1.965451 1_556
Li4 O9 2.002020 1_555
Li4 O8 2.006577 1_555
Li4 O0 2.024344 1_565
Li5 O12 1.965451 1_555
Li5 O11 2.002020 1_655
Li5 O10 2.006577 1_555
Li5 O1 2.024344 1_565
Li6 O12 1.970565 1_555
Li6 O0 1.980305 1_565
Li6 O14 2.008642 1_655
Li6 O4 2.055508 1_565
Li7 O13 1.970565 1_555
Li7 O1 1.980305 1_565
Li7 O15 2.008642 1_555
Li7 O6 2.055508 1_565
Co0 O9 1.949871 1_555
Co0 O5 1.970804 1_555
Co0 O2 2.025740 1_555
Co0 O8 2.075432 1_455
Co1 O4 1.949871 1_555
Co1 O8 1.970804 1_555
Co1 O12 2.025740 1_555
Co1 O5 2.075432 1_555
Co2 O11 1.949871 1_555
Co2 O7 1.970804 1_555
Co2 O3 2.025740 1_555
Co2 O10 2.075432 1_555
Co3 O6 1.949871 1_555
Co3 O10 1.970804 1_555
Co3 O13 2.025740 1_555
Co3 O7 2.075432 1_655
O0 Si0 1.620810 1_555
O1 Si1 1.620810 1_555
O2 Si0 1.661919 1_455
O3 Si1 1.661919 1_555
O4 Si1 1.648151 1_555
O5 Si2 1.703502 1_555
O6 Si0 1.648151 1_554
O7 Si3 1.703502 1_555
O8 Si0 1.703502 1_555
O9 Si3 1.648151 1_556
O10 Si1 1.703502 1_555
O11 Si2 1.648151 1_555
O12 Si2 1.661919 1_555
O13 Si3 1.661919 1_655
O14 Si2 1.620810 1_555
O15 Si3 1.620810 1_555
