# generated using pymatgen
data_Li2Sn(BO3)2
_symmetry_space_group_name_H-M   'P 1'
_cell_length_a   5.26268100
_cell_length_b   8.94113407
_cell_length_c   10.28822542
_cell_angle_alpha   89.67189939
_cell_angle_beta   87.32549973
_cell_angle_gamma   89.18161154
_symmetry_Int_Tables_number   1
_chemical_formula_structural   Li2Sn(BO3)2
_chemical_formula_sum   'Li8 Sn4 B8 O24'
_cell_volume   483.52276955
_cell_formula_units_Z   4
loop_
 _symmetry_equiv_pos_site_id
 _symmetry_equiv_pos_as_xyz
  1  'x, y, z'
loop_
 _atom_site_type_symbol
 _atom_site_label
 _atom_site_symmetry_multiplicity
 _atom_site_fract_x
 _atom_site_fract_y
 _atom_site_fract_z
 _atom_site_occupancy
  Li  Li0  1  0.31640600  0.52000700  0.58223100  1
  Li  Li1  1  0.36692900  0.53997800  0.17915400  1
  Li  Li2  1  0.62776900  0.45479400  0.83475300  1
  Li  Li3  1  0.68792000  0.47202200  0.39176400  1
  Li  Li4  1  0.66627400  0.13780700  0.89308000  1
  Li  Li5  1  0.87575900  0.95751000  0.09972500  1
  Li  Li6  1  0.81018100  0.64680300  0.61738200  1
  Li  Li7  1  0.85975000  0.96658400  0.67823500  1
  Sn  Sn0  1  0.12407300  0.70374800  0.87577200  1
  Sn  Sn1  1  0.36126400  0.18778500  0.63102000  1
  Sn  Sn2  1  0.62141100  0.81572800  0.37087800  1
  Sn  Sn3  1  0.88034800  0.29781600  0.12713900  1
  B  B0  1  0.16719000  0.69493900  0.39094500  1
  B  B1  1  0.15593300  0.35136700  0.86605600  1
  B  B2  1  0.33305400  0.19812000  0.10690300  1
  B  B3  1  0.33344000  0.84383400  0.63121800  1
  B  B4  1  0.65407700  0.15551400  0.36909700  1
  B  B5  1  0.65994300  0.79900200  0.87356300  1
  B  B6  1  0.85084500  0.64977200  0.13421700  1
  B  B7  1  0.83063600  0.31724200  0.62679800  1
  O  O0  1  0.08990500  0.66506100  0.07381000  1
  O  O1  1  0.08526400  0.34793600  0.60778000  1
  O  O2  1  0.12470800  0.10767100  0.09980500  1
  O  O3  1  0.21502700  0.98053600  0.64993400  1
  O  O4  1  0.18899700  0.71705400  0.66549400  1
  O  O5  1  0.26718900  0.34729300  0.13585800  1
  O  O6  1  0.23630200  0.84125400  0.36952000  1
  O  O7  1  0.31816300  0.23155500  0.82788500  1
  O  O8  1  0.26461800  0.49113000  0.85009500  1
  O  O9  1  0.36486000  0.58972700  0.39123500  1
  O  O10  1  0.43039600  0.17543400  0.44093200  1
  O  O11  1  0.41504400  0.84338800  0.88986000  1
  O  O12  1  0.58539000  0.15591900  0.08024000  1
  O  O13  1  0.58792900  0.82982700  0.58429900  1
  O  O14  1  0.65023500  0.42892400  0.61463200  1
  O  O15  1  0.73652300  0.51303500  0.15493100  1
  O  O16  1  0.71604600  0.77625500  0.17649800  1
  O  O17  1  0.74938900  0.17246200  0.66414300  1
  O  O18  1  0.74564400  0.65400300  0.83870700  1
  O  O19  1  0.77796400  0.28185300  0.32100200  1
  O  O20  1  0.75987400  0.01807700  0.33626900  1
  O  O21  1  0.85687400  0.89981800  0.88583200  1
  O  O22  1  0.90988700  0.65840800  0.41507200  1
  O  O23  1  0.90757200  0.33080600  0.91623800  1
loop_
_geom_bond_atom_site_label_1
_geom_bond_atom_site_label_2
_geom_bond_distance
_geom_bond_site_symmetry_2
Li0 O14 1.967610 1_555
Li0 O1 1.983630 1_555
Li0 O4 2.053621 1_555
Li0 O9 2.063646 1_555
Li1 O5 1.870426 1_555
Li1 O15 1.960981 1_555
Li1 O0 2.153567 1_555
Li1 O9 2.228808 1_555
Li2 O18 1.895715 1_555
Li2 O8 1.933300 1_555
Li2 O23 2.039121 1_555
Li2 O14 2.275164 1_555
Li3 O19 1.898588 1_555
Li3 O9 1.986918 1_555
Li3 O22 2.070173 1_555
Li3 O14 2.322695 1_555
Li3 O15 2.463972 1_555
Li4 O12 1.959655 1_556
Li4 O7 2.138476 1_555
Li4 O23 2.177771 1_555
Li4 O21 2.339549 1_545
Li4 O17 2.394661 1_555
Li5 O2 1.889293 1_665
Li5 O16 1.979664 1_555
Li5 O21 2.270107 1_554
Li5 O12 2.338695 1_565
Li5 O20 2.540639 1_565
Li6 O13 2.034195 1_555
Li6 O22 2.124977 1_555
Li6 O14 2.134026 1_555
Li6 O4 2.178386 1_655
Li6 O18 2.287640 1_555
Li7 O3 1.884568 1_655
Li7 O17 1.929011 1_565
Li7 O13 2.160559 1_555
Li7 O21 2.213797 1_555
B0 O6 1.376637 1_555
B0 O9 1.392633 1_555
B0 O22 1.407919 1_455
B1 O8 1.387452 1_555
B1 O23 1.396966 1_455
B1 O7 1.406459 1_555
B2 O2 1.376610 1_555
B2 O12 1.390678 1_555
B2 O5 1.403409 1_555
B3 O3 1.374446 1_555
B3 O13 1.406405 1_555
B3 O4 1.407894 1_555
B4 O10 1.370387 1_555
B4 O20 1.379051 1_555
B4 O19 1.389414 1_555
B5 O11 1.346353 1_555
B5 O21 1.393831 1_555
B5 O18 1.409375 1_555
B6 O15 1.381362 1_555
B6 O0 1.385173 1_655
B6 O16 1.387563 1_555
B7 O1 1.376478 1_655
B7 O14 1.377215 1_555
B7 O17 1.414549 1_555
O0 Sn0 2.064640 1_554
O1 Sn1 2.046076 1_555
O2 Sn3 2.128967 1_455
O3 Sn1 2.021520 1_565
O4 Sn0 2.177239 1_555
O5 Sn3 2.095600 1_455
O6 Sn2 2.036962 1_555
O7 Sn1 2.066516 1_555
O8 Sn0 2.044061 1_555
O9 Sn2 2.448818 1_555
O10 Sn1 1.975885 1_555
O11 Sn0 2.000525 1_555
O12 Sn3 2.094080 1_555
O13 Sn2 2.198765 1_555
O15 Sn3 2.074150 1_555
O16 Sn2 2.069303 1_555
O17 Sn1 2.088888 1_555
O18 Sn0 2.099437 1_655
O19 Sn3 2.046312 1_555
O20 Sn2 1.984225 1_545
O21 Sn0 2.231470 1_655
O22 Sn2 2.118066 1_555
O23 Sn3 2.186417 1_556
