# generated using pymatgen
data_Ba2Ti6N2O11
_symmetry_space_group_name_H-M   'P 1'
_cell_length_a   8.00733093
_cell_length_b   8.00733093
_cell_length_c   9.27685703
_cell_angle_alpha   82.40058656
_cell_angle_beta   82.40058656
_cell_angle_gamma   28.27434338
_symmetry_Int_Tables_number   1
_chemical_formula_structural   Ba2Ti6N2O11
_chemical_formula_sum   'Ba2 Ti6 N2 O11'
_cell_volume   279.12423482
_cell_formula_units_Z   1
loop_
 _symmetry_equiv_pos_site_id
 _symmetry_equiv_pos_as_xyz
  1  'x, y, z'
loop_
 _atom_site_type_symbol
 _atom_site_label
 _atom_site_symmetry_multiplicity
 _atom_site_fract_x
 _atom_site_fract_y
 _atom_site_fract_z
 _atom_site_occupancy
  Ba  Ba0  1  0.54801600  0.54801600  0.22510000  1
  Ba  Ba1  1  0.44839900  0.44839900  0.76403900  1
  Ti  Ti0  1  0.11408800  0.11408800  0.90580900  1
  Ti  Ti1  1  0.17051200  0.17051200  0.56077200  1
  Ti  Ti2  1  0.23904100  0.23904100  0.22847900  1
  Ti  Ti3  1  0.75037100  0.75037100  0.77990500  1
  Ti  Ti4  1  0.83149200  0.83149200  0.44034700  1
  Ti  Ti5  1  0.88361200  0.88361200  0.08783100  1
  N  N0  1  0.63958300  0.63958300  0.88920500  1
  N  N1  1  0.99752800  0.99752800  0.99965300  1
  O  O0  1  0.07420800  0.07420800  0.69681000  1
  O  O1  1  0.13163800  0.13163800  0.38303600  1
  O  O2  1  0.16741600  0.16741600  0.09204800  1
  O  O3  1  0.70212300  0.70212300  0.57147100  1
  O  O4  1  0.75605400  0.75605400  0.24606900  1
  O  O5  1  0.24321100  0.24321100  0.75019300  1
  O  O6  1  0.29786200  0.29786200  0.42938100  1
  O  O7  1  0.35763000  0.35763000  0.11667100  1
  O  O8  1  0.83172300  0.83172300  0.91104600  1
  O  O9  1  0.87478100  0.87478100  0.60865900  1
  O  O10  1  0.92494000  0.92494000  0.29583900  1
loop_
_geom_bond_atom_site_label_1
_geom_bond_atom_site_label_2
_geom_bond_distance
_geom_bond_site_symmetry_2
Ba0 O10 2.750752 1_545
Ba0 O10 2.750752 1_455
Ba0 O2 2.856990 1_565
Ba0 O2 2.856990 1_655
Ba0 O1 2.859540 1_655
Ba0 O1 2.859540 1_565
Ba0 N1 3.043201 1_544
Ba0 N1 3.043201 1_454
Ba0 N0 3.243961 1_554
Ba0 O7 3.250323 1_555
Ba0 O4 3.262979 1_555
Ba1 O9 2.767527 1_455
Ba1 O9 2.767527 1_545
Ba1 O0 2.774664 1_655
Ba1 O0 2.774664 1_565
Ba1 O8 2.879915 1_455
Ba1 O8 2.879915 1_545
Ba1 N1 3.104742 1_545
Ba1 N1 3.104742 1_455
Ba1 O5 3.206538 1_555
Ba1 N0 3.332212 1_555
Ba1 O7 3.380942 1_556
N0 Ti3 1.874141 1_555
N0 Ti0 1.997194 1_565
N0 Ti0 1.997194 1_655
N1 Ti5 1.845010 1_556
N1 Ti0 1.898597 1_665
O0 Ti1 1.820598 1_555
O0 Ti0 2.114292 1_555
O1 Ti1 1.831556 1_555
O1 Ti2 2.045849 1_555
O2 Ti2 1.795296 1_555
O2 Ti0 2.015220 1_554
O3 Ti1 2.022144 1_655
O3 Ti1 2.022144 1_565
O3 Ti3 2.166895 1_555
O3 Ti4 2.202136 1_555
O4 Ti2 1.983211 1_565
O4 Ti2 1.983211 1_655
O4 Ti4 2.279609 1_555
O4 Ti5 2.299092 1_555
O5 Ti3 1.980311 1_545
O5 Ti3 1.980311 1_455
O5 Ti1 2.214406 1_555
O5 Ti0 2.305527 1_555
O6 Ti4 2.030402 1_545
O6 Ti4 2.030402 1_455
O6 Ti1 2.177039 1_555
O6 Ti2 2.184560 1_555
O7 Ti2 1.986575 1_555
O7 Ti5 2.007455 1_455
O7 Ti5 2.007455 1_545
O8 Ti3 1.869591 1_555
O8 Ti5 1.923390 1_556
O9 Ti4 1.782198 1_555
O9 Ti3 2.327951 1_555
O10 Ti4 1.836449 1_555
O10 Ti5 2.115019 1_555
