# generated using pymatgen
data_RbH3(SO4)2
_symmetry_space_group_name_H-M   'P 1'
_cell_length_a   12.64979100
_cell_length_b   7.51364300
_cell_length_c   8.00983589
_cell_angle_alpha   87.82625018
_cell_angle_beta   90.00000000
_cell_angle_gamma   90.00000000
_symmetry_Int_Tables_number   1
_chemical_formula_structural   RbH3(SO4)2
_chemical_formula_sum   'Rb4 H12 S8 O32'
_cell_volume   760.75513616
_cell_formula_units_Z   4
loop_
 _symmetry_equiv_pos_site_id
 _symmetry_equiv_pos_as_xyz
  1  'x, y, z'
loop_
 _atom_site_type_symbol
 _atom_site_label
 _atom_site_symmetry_multiplicity
 _atom_site_fract_x
 _atom_site_fract_y
 _atom_site_fract_z
 _atom_site_occupancy
  Rb  Rb0  1  0.93326400  0.28478400  0.65752300  1
  Rb  Rb1  1  0.43326400  0.71521600  0.84247700  1
  Rb  Rb2  1  0.06673600  0.71521600  0.34247700  1
  Rb  Rb3  1  0.56673600  0.28478400  0.15752300  1
  H  H0  1  0.25374800  0.38135900  0.11977700  1
  H  H1  1  0.75374800  0.61864100  0.38022300  1
  H  H2  1  0.74625200  0.61864100  0.88022300  1
  H  H3  1  0.24625200  0.38135900  0.61977700  1
  H  H4  1  0.66036000  0.98700100  0.72730400  1
  H  H5  1  0.16036000  0.01299900  0.77269600  1
  H  H6  1  0.33964000  0.01299900  0.27269600  1
  H  H7  1  0.83964000  0.98700100  0.22730400  1
  H  H8  1  0.45598100  0.16918400  0.60892200  1
  H  H9  1  0.95598100  0.83081600  0.89107800  1
  H  H10  1  0.54401900  0.83081600  0.39107800  1
  H  H11  1  0.04401900  0.16918400  0.10892200  1
  S  S0  1  0.19460800  0.23434900  0.33583800  1
  S  S1  1  0.69460800  0.76565100  0.16416200  1
  S  S2  1  0.80539200  0.76565100  0.66416200  1
  S  S3  1  0.30539200  0.23434900  0.83583800  1
  S  S4  1  0.61109400  0.26168500  0.66770000  1
  S  S5  1  0.11109400  0.73831500  0.83230000  1
  S  S6  1  0.38890600  0.73831500  0.33230000  1
  S  S7  1  0.88890600  0.26168500  0.16770000  1
  O  O0  1  0.12436900  0.10219800  0.26284200  1
  O  O1  1  0.62436900  0.89780200  0.23715800  1
  O  O2  1  0.87563100  0.89780200  0.73715800  1
  O  O3  1  0.37563100  0.10219800  0.76284200  1
  O  O4  1  0.15261700  0.30793500  0.48931900  1
  O  O5  1  0.65261700  0.69206500  0.01068100  1
  O  O6  1  0.84738300  0.69206500  0.51068100  1
  O  O7  1  0.34738300  0.30793500  0.98931900  1
  O  O8  1  0.30372400  0.16741300  0.35836500  1
  O  O9  1  0.80372400  0.83258700  0.14163500  1
  O  O10  1  0.69627600  0.83258700  0.64163500  1
  O  O11  1  0.19627600  0.16741300  0.85836500  1
  O  O12  1  0.19910400  0.40116800  0.20941100  1
  O  O13  1  0.69910400  0.59883200  0.29058900  1
  O  O14  1  0.80089600  0.59883200  0.79058900  1
  O  O15  1  0.30089600  0.40116800  0.70941100  1
  O  O16  1  0.70304700  0.29278500  0.56451300  1
  O  O17  1  0.20304700  0.70721500  0.93548700  1
  O  O18  1  0.29695300  0.70721500  0.43548700  1
  O  O19  1  0.79695300  0.29278500  0.06451300  1
  O  O20  1  0.57292400  0.40184300  0.76986900  1
  O  O21  1  0.07292400  0.59815700  0.73013100  1
  O  O22  1  0.42707600  0.59815700  0.23013100  1
  O  O23  1  0.92707600  0.40184300  0.26986900  1
  O  O24  1  0.62628400  0.09565400  0.78828600  1
  O  O25  1  0.12628400  0.90434600  0.71171400  1
  O  O26  1  0.37371600  0.90434600  0.21171400  1
  O  O27  1  0.87371600  0.09565400  0.28828600  1
  O  O28  1  0.52181800  0.20398700  0.54202800  1
  O  O29  1  0.02181800  0.79601300  0.95797200  1
  O  O30  1  0.47818200  0.79601300  0.45797200  1
  O  O31  1  0.97818200  0.20398700  0.04202800  1
loop_
_geom_bond_atom_site_label_1
_geom_bond_atom_site_label_2
_geom_bond_distance
_geom_bond_site_symmetry_2
H0 O12 1.011693 1_555
H1 O13 1.011693 1_555
H2 O14 1.011693 1_555
H3 O15 1.011693 1_555
H4 O24 1.058831 1_565
H4 O10 1.443525 1_555
H5 O25 1.058831 1_545
H5 O11 1.443525 1_555
H6 O26 1.058831 1_545
H6 O8 1.443525 1_555
H7 O27 1.058831 1_565
H7 O9 1.443525 1_555
H8 O28 1.019039 1_555
H8 O3 1.661119 1_555
H9 O29 1.019039 1_655
H9 O2 1.661119 1_555
H10 O30 1.019039 1_555
H10 O1 1.661119 1_555
H11 O31 1.019039 1_455
H11 O0 1.661119 1_555
O0 S0 1.470125 1_555
O0 Rb2 3.041723 1_545
O1 S1 1.470125 1_555
O1 Rb3 3.041723 1_565
O2 S2 1.470125 1_555
O2 Rb0 3.041723 1_565
O3 S3 1.470125 1_555
O3 Rb1 3.041723 1_545
O4 S0 1.466537 1_555
O4 Rb0 3.086585 1_455
O4 Rb2 3.413968 1_555
O5 S1 1.466537 1_555
O5 Rb1 3.086585 1_554
O5 Rb3 3.413968 1_555
O6 S2 1.466537 1_555
O6 Rb2 3.086585 1_655
O6 Rb0 3.413968 1_555
O7 S3 1.466537 1_555
O7 Rb3 3.086585 1_556
O7 Rb1 3.413968 1_555
O8 S0 1.477778 1_555
O9 S1 1.477778 1_555
O10 S2 1.477778 1_555
O11 S3 1.477778 1_555
O12 S0 1.582240 1_555
O12 Rb2 3.114230 1_555
O13 S1 1.582240 1_555
O13 Rb3 3.114230 1_555
O14 S2 1.582240 1_555
O14 Rb0 3.114230 1_555
O15 S3 1.582240 1_555
O15 Rb1 3.114230 1_555
O16 S4 1.440859 1_555
O16 Rb0 3.006015 1_555
O17 S5 1.440859 1_555
O17 Rb1 3.006015 1_555
O18 S6 1.440859 1_555
O18 Rb2 3.006015 1_555
O19 S7 1.440859 1_555
O19 Rb3 3.006015 1_555
O20 S4 1.441262 1_555
O20 Rb1 3.017822 1_555
O20 Rb3 3.195911 1_556
O21 S5 1.441262 1_555
O21 Rb0 3.017822 1_455
O21 Rb2 3.195911 1_555
O22 S6 1.441262 1_555
O22 Rb3 3.017822 1_555
O22 Rb1 3.195911 1_554
O23 S7 1.441262 1_555
O23 Rb2 3.017822 1_655
O23 Rb0 3.195911 1_555
O24 S4 1.560346 1_555
O24 Rb3 3.413592 1_556
O25 S5 1.560346 1_555
O25 Rb2 3.413592 1_555
O26 S6 1.560346 1_555
O26 Rb1 3.413592 1_554
O27 S7 1.560346 1_555
O27 Rb0 3.413592 1_555
O28 S4 1.584198 1_555
O28 Rb3 3.167786 1_555
O29 S5 1.584198 1_555
O29 Rb2 3.167786 1_556
O30 S6 1.584198 1_555
O30 Rb1 3.167786 1_555
O31 S7 1.584198 1_555
O31 Rb0 3.167786 1_554
