# generated using pymatgen
data_HfSO6
_symmetry_space_group_name_H-M   'P 1'
_cell_length_a   5.67975600
_cell_length_b   6.83022000
_cell_length_c   11.32074400
_cell_angle_alpha   90.00000000
_cell_angle_beta   90.00000000
_cell_angle_gamma   90.00000000
_symmetry_Int_Tables_number   1
_chemical_formula_structural   HfSO6
_chemical_formula_sum   'Hf4 S4 O24'
_cell_volume   439.17675058
_cell_formula_units_Z   4
loop_
 _symmetry_equiv_pos_site_id
 _symmetry_equiv_pos_as_xyz
  1  'x, y, z'
loop_
 _atom_site_type_symbol
 _atom_site_label
 _atom_site_symmetry_multiplicity
 _atom_site_fract_x
 _atom_site_fract_y
 _atom_site_fract_z
 _atom_site_occupancy
  Hf  Hf0  1  0.25000000  0.33529400  0.57065600  1
  Hf  Hf1  1  0.25000000  0.16470600  0.07065600  1
  Hf  Hf2  1  0.75000000  0.66470600  0.42934400  1
  Hf  Hf3  1  0.75000000  0.83529400  0.92934400  1
  S  S0  1  0.25000000  0.54791100  0.85673600  1
  S  S1  1  0.25000000  0.95208900  0.35673600  1
  S  S2  1  0.75000000  0.45208900  0.14326400  1
  S  S3  1  0.75000000  0.04791100  0.64326400  1
  O  O0  1  0.99931300  0.06643900  0.94581600  1
  O  O1  1  0.50068700  0.43356100  0.44581600  1
  O  O2  1  0.49931300  0.93356100  0.05418400  1
  O  O3  1  0.00068700  0.56643900  0.55418400  1
  O  O4  1  0.00068700  0.93356100  0.05418400  1
  O  O5  1  0.49931300  0.56643900  0.55418400  1
  O  O6  1  0.50068700  0.06643900  0.94581600  1
  O  O7  1  0.99931300  0.43356100  0.44581600  1
  O  O8  1  0.25000000  0.42933700  0.96602500  1
  O  O9  1  0.25000000  0.07066300  0.46602500  1
  O  O10  1  0.75000000  0.57066300  0.03397500  1
  O  O11  1  0.75000000  0.92933700  0.53397500  1
  O  O12  1  0.25000000  0.41658200  0.75379600  1
  O  O13  1  0.25000000  0.08341800  0.25379600  1
  O  O14  1  0.75000000  0.58341800  0.24620400  1
  O  O15  1  0.75000000  0.91658200  0.74620400  1
  O  O16  1  0.03785600  0.67271100  0.85216700  1
  O  O17  1  0.46214400  0.82728900  0.35216700  1
  O  O18  1  0.53785600  0.32728900  0.14783300  1
  O  O19  1  0.96214400  0.17271100  0.64783300  1
  O  O20  1  0.96214400  0.32728900  0.14783300  1
  O  O21  1  0.53785600  0.17271100  0.64783300  1
  O  O22  1  0.46214400  0.67271100  0.85216700  1
  O  O23  1  0.03785600  0.82728900  0.35216700  1
loop_
_geom_bond_atom_site_label_1
_geom_bond_atom_site_label_2
_geom_bond_distance
_geom_bond_site_symmetry_2
Hf0 O1 2.115462 1_555
Hf0 O7 2.115462 1_455
Hf0 O5 2.128956 1_555
Hf0 O3 2.128956 1_555
Hf0 O12 2.146336 1_555
Hf0 O19 2.160921 1_455
Hf0 O21 2.160921 1_555
Hf0 O9 2.161031 1_555
Hf1 O6 2.115462 1_554
Hf1 O0 2.115462 1_454
Hf1 O4 2.128956 1_545
Hf1 O2 2.128956 1_545
Hf1 O13 2.146336 1_555
Hf1 O18 2.160921 1_555
Hf1 O20 2.160921 1_455
Hf1 O8 2.161031 1_554
Hf2 O5 2.115462 1_555
Hf2 O3 2.115462 1_655
Hf2 O7 2.128956 1_555
Hf2 O1 2.128956 1_555
Hf2 O14 2.146336 1_555
Hf2 O17 2.160921 1_555
Hf2 O23 2.160921 1_655
Hf2 O11 2.161031 1_555
Hf3 O2 2.115462 1_556
Hf3 O4 2.115462 1_656
Hf3 O6 2.128956 1_565
Hf3 O0 2.128956 1_565
Hf3 O15 2.146336 1_555
Hf3 O22 2.160921 1_555
Hf3 O16 2.160921 1_655
Hf3 O10 2.161031 1_556
O0 O4 1.526050 1_646
O1 O5 1.526050 1_555
O2 O6 1.526050 1_564
O3 O7 1.526050 1_455
O8 S0 1.478736 1_555
O9 S1 1.478736 1_545
O10 S2 1.478736 1_555
O11 S3 1.478736 1_565
O12 S0 1.470604 1_555
O13 S1 1.470604 1_545
O14 S2 1.470604 1_555
O15 S3 1.470604 1_565
O16 S0 1.476864 1_555
O17 S1 1.476864 1_555
O18 S2 1.476864 1_555
O19 S3 1.476864 1_555
O20 S2 1.476864 1_555
O21 S3 1.476864 1_555
O22 S0 1.476864 1_555
O23 S1 1.476864 1_555
