# generated using pymatgen
data_TmVO3
_symmetry_space_group_name_H-M   'P 1'
_cell_length_a   5.19087594
_cell_length_b   5.62773952
_cell_length_c   7.48654988
_cell_angle_alpha   90.00000000
_cell_angle_beta   90.00000000
_cell_angle_gamma   90.00000000
_symmetry_Int_Tables_number   1
_chemical_formula_structural   TmVO3
_chemical_formula_sum   'Tm4 V4 O12'
_cell_volume   218.70381555
_cell_formula_units_Z   4
loop_
 _symmetry_equiv_pos_site_id
 _symmetry_equiv_pos_as_xyz
  1  'x, y, z'
loop_
 _atom_site_type_symbol
 _atom_site_label
 _atom_site_symmetry_multiplicity
 _atom_site_fract_x
 _atom_site_fract_y
 _atom_site_fract_z
 _atom_site_occupancy
  Tm  Tm0  1  0.02155857  0.92669149  0.25000000  1
  Tm  Tm1  1  0.47844143  0.42669149  0.25000000  1
  Tm  Tm2  1  0.52155857  0.57330851  0.75000000  1
  Tm  Tm3  1  0.97844143  0.07330851  0.75000000  1
  V  V0  1  0.00000000  0.50000000  -0.00000000  1
  V  V1  1  0.00000000  0.50000000  0.50000000  1
  V  V2  1  0.50000000  0.00000000  -0.00000000  1
  V  V3  1  0.50000000  0.00000000  0.50000000  1
  O  O0  1  0.12409720  0.44993994  0.75000000  1
  O  O1  1  0.19113601  0.18790943  0.43886442  1
  O  O2  1  0.19113601  0.18790943  0.06113558  1
  O  O3  1  0.30886399  0.68790943  0.43886442  1
  O  O4  1  0.30886399  0.68790943  0.06113558  1
  O  O5  1  0.37590280  0.94993994  0.75000000  1
  O  O6  1  0.62409720  0.05006006  0.25000000  1
  O  O7  1  0.69113601  0.31209057  0.93886442  1
  O  O8  1  0.69113601  0.31209057  0.56113558  1
  O  O9  1  0.80886399  0.81209057  0.93886442  1
  O  O10  1  0.80886399  0.81209057  0.56113558  1
  O  O11  1  0.87590280  0.55006006  0.25000000  1
loop_
_geom_bond_atom_site_label_1
_geom_bond_atom_site_label_2
_geom_bond_distance
_geom_bond_site_symmetry_2
O0 V0 1.999339 1_556
O0 V1 1.999339 1_555
O0 Tm2 2.176859 1_555
O0 Tm3 2.250398 1_455
O1 V3 1.974409 1_555
O1 V1 2.068499 1_555
O1 Tm0 2.221526 1_545
O1 Tm1 2.455446 1_555
O1 Tm3 2.657200 1_455
O2 V2 1.974409 1_555
O2 V0 2.068499 1_555
O2 Tm0 2.221526 1_545
O2 Tm1 2.455446 1_555
O2 Tm3 2.657200 1_454
O3 V1 1.974409 1_555
O3 V3 2.068499 1_565
O3 Tm1 2.221526 1_555
O3 Tm0 2.455446 1_555
O3 Tm2 2.657200 1_555
O4 V0 1.974409 1_555
O4 V2 2.068499 1_565
O4 Tm1 2.221526 1_555
O4 Tm0 2.455446 1_555
O4 Tm2 2.657200 1_554
O5 V3 1.999339 1_565
O5 V2 1.999339 1_566
O5 Tm3 2.176859 1_465
O5 Tm2 2.250398 1_555
O6 V3 1.999339 1_555
O6 V2 1.999339 1_555
O6 Tm0 2.176859 1_645
O6 Tm1 2.250398 1_555
O7 V0 1.974409 1_656
O7 V2 2.068499 1_556
O7 Tm2 2.221526 1_555
O7 Tm3 2.455446 1_555
O7 Tm1 2.657200 1_556
O8 V1 1.974409 1_655
O8 V3 2.068499 1_555
O8 Tm2 2.221526 1_555
O8 Tm3 2.455446 1_555
O8 Tm1 2.657200 1_555
O9 V2 1.974409 1_566
O9 V0 2.068499 1_656
O9 Tm3 2.221526 1_565
O9 Tm2 2.455446 1_555
O9 Tm0 2.657200 1_656
O10 V3 1.974409 1_565
O10 V1 2.068499 1_655
O10 Tm3 2.221526 1_565
O10 Tm2 2.455446 1_555
O10 Tm0 2.657200 1_655
O11 V1 1.999339 1_655
O11 V0 1.999339 1_655
O11 Tm1 2.176859 1_555
O11 Tm0 2.250398 1_655
