# generated using pymatgen
data_Li4Ti4Cr(Fe2O9)2
_symmetry_space_group_name_H-M   'P 1'
_cell_length_a   2.94463000
_cell_length_b   9.25280600
_cell_length_c   25.24874200
_cell_angle_alpha   90.00000000
_cell_angle_beta   90.00000000
_cell_angle_gamma   90.00000000
_symmetry_Int_Tables_number   1
_chemical_formula_structural   Li4Ti4Cr(Fe2O9)2
_chemical_formula_sum   'Li8 Ti8 Cr2 Fe8 O36'
_cell_volume   687.92950025
_cell_formula_units_Z   2
loop_
 _symmetry_equiv_pos_site_id
 _symmetry_equiv_pos_as_xyz
  1  'x, y, z'
loop_
 _atom_site_type_symbol
 _atom_site_label
 _atom_site_symmetry_multiplicity
 _atom_site_fract_x
 _atom_site_fract_y
 _atom_site_fract_z
 _atom_site_occupancy
  Li  Li0  1  0.00000000  0.19623700  0.98991600  1
  Li  Li1  1  0.00000000  0.19874300  0.18444100  1
  Li  Li2  1  0.00000000  0.30125700  0.68444100  1
  Li  Li3  1  0.00000000  0.30376300  0.48991600  1
  Li  Li4  1  0.00000000  0.69623700  0.51008400  1
  Li  Li5  1  0.00000000  0.69874300  0.31555900  1
  Li  Li6  1  0.00000000  0.80125700  0.81555900  1
  Li  Li7  1  0.00000000  0.80376300  0.01008400  1
  Ti  Ti0  1  0.00000000  0.99830300  0.09955500  1
  Ti  Ti1  1  0.50000000  0.15757600  0.80905700  1
  Ti  Ti2  1  0.50000000  0.34242400  0.30905700  1
  Ti  Ti3  1  0.00000000  0.50169700  0.59955500  1
  Ti  Ti4  1  0.00000000  0.49830300  0.40044500  1
  Ti  Ti5  1  0.50000000  0.65757600  0.69094300  1
  Ti  Ti6  1  0.50000000  0.84242400  0.19094300  1
  Ti  Ti7  1  0.00000000  0.00169700  0.90044500  1
  Cr  Cr0  1  0.00000000  0.00000000  0.50000000  1
  Cr  Cr1  1  0.00000000  0.50000000  0.00000000  1
  Fe  Fe0  1  0.00000000  0.99901900  0.30767200  1
  Fe  Fe1  1  0.50000000  0.15071400  0.58651100  1
  Fe  Fe2  1  0.50000000  0.34928600  0.08651100  1
  Fe  Fe3  1  0.00000000  0.50098100  0.80767200  1
  Fe  Fe4  1  0.00000000  0.49901900  0.19232800  1
  Fe  Fe5  1  0.50000000  0.65071400  0.91348900  1
  Fe  Fe6  1  0.50000000  0.84928600  0.41348900  1
  Fe  Fe7  1  0.00000000  0.00098100  0.69232800  1
  O  O0  1  0.00000000  0.99262500  0.42419400  1
  O  O1  1  0.00000000  0.00737500  0.57580600  1
  O  O2  1  0.50000000  0.06138100  0.94387400  1
  O  O3  1  0.50000000  0.04232800  0.15662300  1
  O  O4  1  0.50000000  0.13279700  0.66564100  1
  O  O5  1  0.00000000  0.10566000  0.75981200  1
  O  O6  1  0.50000000  0.14353500  0.50317200  1
  O  O7  1  0.50000000  0.13769100  0.29390700  1
  O  O8  1  0.00000000  0.18555800  0.85842400  1
  O  O9  1  0.00000000  0.19911500  0.08223500  1
  O  O10  1  0.00000000  0.30088500  0.58223500  1
  O  O11  1  0.00000000  0.31444200  0.35842400  1
  O  O12  1  0.50000000  0.36230900  0.79390700  1
  O  O13  1  0.50000000  0.35646500  0.00317200  1
  O  O14  1  0.00000000  0.39434000  0.25981200  1
  O  O15  1  0.50000000  0.36720300  0.16564100  1
  O  O16  1  0.50000000  0.45767200  0.65662300  1
  O  O17  1  0.50000000  0.43861900  0.44387400  1
  O  O18  1  0.00000000  0.49262500  0.07580600  1
  O  O19  1  0.00000000  0.50737500  0.92419400  1
  O  O20  1  0.50000000  0.56138100  0.55612600  1
  O  O21  1  0.50000000  0.54232800  0.34337700  1
  O  O22  1  0.50000000  0.63279700  0.83435900  1
  O  O23  1  0.00000000  0.60566000  0.74018800  1
  O  O24  1  0.50000000  0.64353500  0.99682800  1
  O  O25  1  0.50000000  0.63769100  0.20609300  1
  O  O26  1  0.00000000  0.68555800  0.64157600  1
  O  O27  1  0.00000000  0.69911500  0.41776500  1
  O  O28  1  0.00000000  0.80088500  0.91776500  1
  O  O29  1  0.00000000  0.81444200  0.14157600  1
  O  O30  1  0.50000000  0.86230900  0.70609300  1
  O  O31  1  0.50000000  0.85646500  0.49682800  1
  O  O32  1  0.00000000  0.89434000  0.24018800  1
  O  O33  1  0.50000000  0.86720300  0.33435900  1
  O  O34  1  0.50000000  0.95767200  0.84337700  1
  O  O35  1  0.50000000  0.93861900  0.05612600  1
loop_
_geom_bond_atom_site_label_1
_geom_bond_atom_site_label_2
_geom_bond_distance
_geom_bond_site_symmetry_2
Li0 O13 2.116061 1_456
Li0 O13 2.116061 1_556
Li0 O2 2.253025 1_455
Li0 O2 2.253025 1_555
Li0 O9 2.331091 1_556
Li1 O3 2.180745 1_555
Li1 O3 2.180745 1_455
Li1 O15 2.196056 1_455
Li1 O15 2.196056 1_555
Li1 O9 2.580575 1_555
Li2 O16 2.180745 1_455
Li2 O16 2.180745 1_555
Li2 O4 2.196056 1_555
Li2 O4 2.196056 1_455
Li2 O10 2.580575 1_555
Li3 O6 2.116061 1_455
Li3 O6 2.116061 1_555
Li3 O17 2.253025 1_555
Li3 O17 2.253025 1_455
Li3 O10 2.331091 1_555
Li4 O31 2.116061 1_555
Li4 O31 2.116061 1_455
Li4 O20 2.253025 1_555
Li4 O20 2.253025 1_455
Li4 O27 2.331091 1_555
Li5 O21 2.180745 1_455
Li5 O21 2.180745 1_555
Li5 O33 2.196056 1_455
Li5 O33 2.196056 1_555
Li5 O27 2.580575 1_555
Li6 O34 2.180745 1_555
Li6 O34 2.180745 1_455
Li6 O22 2.196056 1_455
Li6 O22 2.196056 1_555
Li6 O28 2.580575 1_555
Li7 O24 2.116061 1_454
Li7 O24 2.116061 1_554
Li7 O35 2.253025 1_455
Li7 O35 2.253025 1_555
Li7 O28 2.331091 1_554
Cr0 O0 1.915222 1_545
Cr0 O1 1.915222 1_555
Cr0 O31 1.984434 1_545
Cr0 O6 1.984434 1_455
Cr0 O6 1.984434 1_555
Cr0 O31 1.984434 1_445
Cr1 O18 1.915222 1_555
Cr1 O19 1.915222 1_554
Cr1 O24 1.984434 1_454
Cr1 O24 1.984434 1_554
Cr1 O13 1.984434 1_555
Cr1 O13 1.984434 1_455
Fe0 O32 1.959940 1_555
Fe0 O7 1.983648 1_565
Fe0 O7 1.983648 1_465
Fe0 O33 2.027147 1_555
Fe0 O33 2.027147 1_455
Fe1 O1 1.999952 1_555
Fe1 O1 1.999952 1_655
Fe1 O4 2.004799 1_555
Fe1 O10 2.027335 1_655
Fe1 O10 2.027335 1_555
Fe1 O6 2.105253 1_555
Fe2 O18 1.999952 1_655
Fe2 O18 1.999952 1_555
Fe2 O15 2.004799 1_555
Fe2 O9 2.027335 1_555
Fe2 O9 2.027335 1_655
Fe2 O13 2.105253 1_555
Fe3 O23 1.959940 1_555
Fe3 O12 1.983648 1_455
Fe3 O12 1.983648 1_555
Fe3 O22 2.027147 1_455
Fe3 O22 2.027147 1_555
Fe4 O14 1.959940 1_555
Fe4 O25 1.983648 1_555
Fe4 O25 1.983648 1_455
Fe4 O15 2.027147 1_555
Fe4 O15 2.027147 1_455
Fe5 O19 1.999952 1_555
Fe5 O19 1.999952 1_655
Fe5 O22 2.004799 1_555
Fe5 O28 2.027335 1_555
Fe5 O28 2.027335 1_655
Fe5 O24 2.105253 1_555
Fe6 O0 1.999952 1_655
Fe6 O0 1.999952 1_555
Fe6 O33 2.004799 1_555
Fe6 O27 2.027335 1_655
Fe6 O27 2.027335 1_555
Fe6 O31 2.105253 1_555
Fe7 O5 1.959940 1_555
Fe7 O30 1.983648 1_445
Fe7 O30 1.983648 1_545
Fe7 O4 2.027147 1_455
Fe7 O4 2.027147 1_555
O2 Ti7 1.917044 1_555
O2 Ti7 1.917044 1_655
O3 Ti6 2.042591 1_545
O3 Ti0 2.099959 1_645
O3 Ti0 2.099959 1_545
O5 Ti1 1.986063 1_555
O5 Ti1 1.986063 1_455
O7 Ti2 1.932589 1_555
O8 Ti1 1.946380 1_455
O8 Ti1 1.946380 1_555
O8 Ti7 2.004958 1_555
O9 Ti0 1.908842 1_545
O10 Ti3 1.908842 1_555
O11 Ti2 1.946380 1_555
O11 Ti2 1.946380 1_455
O11 Ti4 2.004958 1_555
O12 Ti1 1.932589 1_555
O14 Ti2 1.986063 1_555
O14 Ti2 1.986063 1_455
O16 Ti5 2.042591 1_555
O16 Ti3 2.099959 1_655
O16 Ti3 2.099959 1_555
O17 Ti4 1.917044 1_655
O17 Ti4 1.917044 1_555
O20 Ti3 1.917044 1_555
O20 Ti3 1.917044 1_655
O21 Ti2 2.042591 1_555
O21 Ti4 2.099959 1_655
O21 Ti4 2.099959 1_555
O23 Ti5 1.986063 1_455
O23 Ti5 1.986063 1_555
O25 Ti6 1.932589 1_555
O26 Ti5 1.946380 1_555
O26 Ti5 1.946380 1_455
O26 Ti3 2.004958 1_555
O27 Ti4 1.908842 1_555
O28 Ti7 1.908842 1_565
O29 Ti6 1.946380 1_555
O29 Ti6 1.946380 1_455
O29 Ti0 2.004958 1_555
O30 Ti5 1.932589 1_555
O32 Ti6 1.986063 1_555
O32 Ti6 1.986063 1_455
O34 Ti1 2.042591 1_565
O34 Ti7 2.099959 1_565
O34 Ti7 2.099959 1_665
O35 Ti0 1.917044 1_555
O35 Ti0 1.917044 1_655
