# generated using pymatgen
data_Li3V2CoO6
_symmetry_space_group_name_H-M   'P 1'
_cell_length_a   15.47634483
_cell_length_b   9.93950004
_cell_length_c   9.93949968
_cell_angle_alpha   17.38315648
_cell_angle_beta   16.56635607
_cell_angle_gamma   16.56636446
_symmetry_Int_Tables_number   1
_chemical_formula_structural   Li3V2CoO6
_chemical_formula_sum   'Li3 V2 Co1 O6'
_cell_volume   111.72971725
_cell_formula_units_Z   1
loop_
 _symmetry_equiv_pos_site_id
 _symmetry_equiv_pos_as_xyz
  1  'x, y, z'
loop_
 _atom_site_type_symbol
 _atom_site_label
 _atom_site_symmetry_multiplicity
 _atom_site_fract_x
 _atom_site_fract_y
 _atom_site_fract_z
 _atom_site_occupancy
  Li  Li0  1  0.16666700  0.50000000  0.50000000  1
  Li  Li1  1  0.50419300  0.49867100  0.49867100  1
  Li  Li2  1  0.82914000  0.50132900  0.50132900  1
  V  V0  1  0.01458500  0.98904100  0.98904100  1
  V  V1  1  0.31874900  0.01095900  0.01095900  1
  Co  Co0  1  0.66666700  0.00000000  0.00000000  1
  O  O0  1  0.22851900  0.26966200  0.26966200  1
  O  O1  1  0.57913600  0.26069100  0.26069100  1
  O  O2  1  0.10481400  0.73033800  0.73033800  1
  O  O3  1  0.93917400  0.23658800  0.23658800  1
  O  O4  1  0.39415900  0.76341200  0.76341200  1
  O  O5  1  0.75419700  0.73930900  0.73930900  1
loop_
_geom_bond_atom_site_label_1
_geom_bond_atom_site_label_2
_geom_bond_distance
_geom_bond_site_symmetry_2
Li0 O3 2.126880 1_456
Li0 O3 2.126881 1_465
Li0 O4 2.126887 1_554
Li0 O4 2.126888 1_545
Li0 O1 2.156186 1_555
Li0 O5 2.156199 1_455
Li1 O2 2.088400 1_555
Li1 O3 2.146691 1_555
Li1 O0 2.181093 1_556
Li1 O0 2.181094 1_565
Li1 O5 2.227276 1_554
Li1 O5 2.227277 1_545
Li2 O0 2.088400 1_655
Li2 O4 2.146691 1_555
Li2 O2 2.181093 1_654
Li2 O2 2.181094 1_645
Li2 O1 2.227276 1_556
Li2 O1 2.227277 1_565
Co0 O2 2.092558 1_644
Co0 O0 2.092570 1_555
Co0 O4 2.121682 1_545
Co0 O4 2.121683 1_554
Co0 O3 2.121688 1_554
Co0 O3 2.121689 1_545
O0 V0 2.030568 1_545
O0 V0 2.030569 1_554
O1 V0 2.036750 1_644
O1 V1 2.061247 1_556
O1 V1 2.061248 1_565
O2 V1 2.030561 1_565
O2 V1 2.030562 1_556
O3 V1 1.912534 1_655
O4 V0 1.912521 1_555
O5 V1 2.036738 1_566
O5 V0 2.061241 1_654
O5 V0 2.061242 1_645
