# generated using pymatgen
data_Tl2Pb2O7
_symmetry_space_group_name_H-M   'P 1'
_cell_length_a   7.68913005
_cell_length_b   7.68913005
_cell_length_c   7.68913005
_cell_angle_alpha   60.00000000
_cell_angle_beta   60.00000000
_cell_angle_gamma   60.00000000
_symmetry_Int_Tables_number   1
_chemical_formula_structural   Tl2Pb2O7
_chemical_formula_sum   'Tl4 Pb4 O14'
_cell_volume   321.45236212
_cell_formula_units_Z   2
loop_
 _symmetry_equiv_pos_site_id
 _symmetry_equiv_pos_as_xyz
  1  'x, y, z'
loop_
 _atom_site_type_symbol
 _atom_site_label
 _atom_site_symmetry_multiplicity
 _atom_site_fract_x
 _atom_site_fract_y
 _atom_site_fract_z
 _atom_site_occupancy
  Tl  Tl0  1  0.62500000  0.62500000  0.12500000  1
  Tl  Tl1  1  0.62500000  0.62500000  0.62500000  1
  Tl  Tl2  1  0.62500000  0.12500000  0.62500000  1
  Tl  Tl3  1  0.12500000  0.62500000  0.62500000  1
  Pb  Pb0  1  0.12500000  0.12500000  0.12500000  1
  Pb  Pb1  1  0.62500000  0.12500000  0.12500000  1
  Pb  Pb2  1  0.12500000  0.62500000  0.12500000  1
  Pb  Pb3  1  0.12500000  0.12500000  0.62500000  1
  O  O0  1  0.02947400  0.47052600  0.47052600  1
  O  O1  1  0.77947400  0.77947400  0.22052600  1
  O  O2  1  0.77947400  0.22052600  0.22052600  1
  O  O3  1  0.02947400  0.02947400  0.47052600  1
  O  O4  1  0.75000000  0.75000000  0.75000000  1
  O  O5  1  0.02947400  0.47052600  0.02947400  1
  O  O6  1  0.47052600  0.02947400  0.47052600  1
  O  O7  1  0.22052600  0.77947400  0.22052600  1
  O  O8  1  0.22052600  0.22052600  0.77947400  1
  O  O9  1  0.77947400  0.22052600  0.77947400  1
  O  O10  1  0.50000000  0.50000000  0.50000000  1
  O  O11  1  0.47052600  0.02947400  0.02947400  1
  O  O12  1  0.47052600  0.47052600  0.02947400  1
  O  O13  1  0.22052600  0.77947400  0.77947400  1
loop_
_geom_bond_atom_site_label_1
_geom_bond_atom_site_label_2
_geom_bond_distance
_geom_bond_site_symmetry_2
O0 Pb2 2.184991 1_555
O0 Pb3 2.184991 1_555
O0 Tl3 2.552796 1_555
O0 Tl1 2.552796 1_455
O1 Pb1 2.184991 1_565
O1 Pb2 2.184991 1_655
O1 Tl0 2.552796 1_555
O1 Tl1 2.552796 1_555
O2 Pb0 2.184991 1_655
O2 Pb1 2.184991 1_555
O2 Tl0 2.552796 1_555
O2 Tl2 2.552796 1_555
O3 Pb0 2.184991 1_555
O3 Pb3 2.184991 1_555
O3 Tl2 2.552796 1_455
O3 Tl3 2.552796 1_545
O4 Tl3 2.354306 1_655
O4 Tl1 2.354306 1_555
O4 Tl0 2.354306 1_556
O4 Tl2 2.354306 1_565
O5 Pb0 2.184991 1_555
O5 Pb2 2.184991 1_555
O5 Tl0 2.552796 1_455
O5 Tl3 2.552796 1_554
O6 Pb3 2.184991 1_555
O6 Pb1 2.184991 1_555
O6 Tl1 2.552796 1_545
O6 Tl2 2.552796 1_555
O7 Pb0 2.184991 1_565
O7 Pb2 2.184991 1_555
O7 Tl3 2.552796 1_555
O7 Tl0 2.552796 1_555
O8 Pb0 2.184991 1_556
O8 Pb3 2.184991 1_555
O8 Tl3 2.552796 1_555
O8 Tl2 2.552796 1_555
O9 Pb1 2.184991 1_556
O9 Pb3 2.184991 1_655
O9 Tl1 2.552796 1_555
O9 Tl2 2.552796 1_555
O10 Tl0 2.354306 1_555
O10 Tl1 2.354306 1_555
O10 Tl2 2.354306 1_555
O10 Tl3 2.354306 1_555
O11 Pb0 2.184991 1_555
O11 Pb1 2.184991 1_555
O11 Tl2 2.552796 1_554
O11 Tl0 2.552796 1_545
O12 Pb2 2.184991 1_555
O12 Pb1 2.184991 1_555
O12 Tl0 2.552796 1_555
O12 Tl1 2.552796 1_554
O13 Pb2 2.184991 1_556
O13 Pb3 2.184991 1_565
O13 Tl3 2.552796 1_555
O13 Tl1 2.552796 1_555
