# generated using pymatgen
data_Mn2Fe3Co(PO4)6
_symmetry_space_group_name_H-M   'P 1'
_cell_length_a   8.53015647
_cell_length_b   8.53015647
_cell_length_c   8.53015577
_cell_angle_alpha   60.55474986
_cell_angle_beta   60.55474986
_cell_angle_gamma   60.55475031
_symmetry_Int_Tables_number   1
_chemical_formula_structural   Mn2Fe3Co(PO4)6
_chemical_formula_sum   'Mn2 Fe3 Co1 P6 O24'
_cell_volume   444.39079911
_cell_formula_units_Z   1
loop_
 _symmetry_equiv_pos_site_id
 _symmetry_equiv_pos_as_xyz
  1  'x, y, z'
loop_
 _atom_site_type_symbol
 _atom_site_label
 _atom_site_symmetry_multiplicity
 _atom_site_fract_x
 _atom_site_fract_y
 _atom_site_fract_z
 _atom_site_occupancy
  Mn  Mn0  1  0.99984900  0.99984900  0.99984900  1
  Mn  Mn1  1  0.50025500  0.50025500  0.50025500  1
  Fe  Fe0  1  0.64618800  0.64618800  0.64618800  1
  Fe  Fe1  1  0.85605800  0.85605800  0.85605800  1
  Fe  Fe2  1  0.35520200  0.35520200  0.35520200  1
  Co  Co0  1  0.14081500  0.14081500  0.14081500  1
  P  P0  1  0.95834500  0.24943200  0.53664200  1
  P  P1  1  0.53664200  0.95834500  0.24943200  1
  P  P2  1  0.24943200  0.53664200  0.95834500  1
  P  P3  1  0.75442400  0.45436400  0.04721800  1
  P  P4  1  0.45436400  0.04721800  0.75442400  1
  P  P5  1  0.04721800  0.75442400  0.45436400  1
  O  O0  1  0.50007300  0.10963100  0.32070400  1
  O  O1  1  0.32070400  0.50007300  0.10963100  1
  O  O2  1  0.10963100  0.32070400  0.50007300  1
  O  O3  1  0.94391300  0.08950200  0.73567300  1
  O  O4  1  0.99488100  0.18544800  0.37910600  1
  O  O5  1  0.75843500  0.41026600  0.55500200  1
  O  O6  1  0.73567300  0.94391300  0.08950200  1
  O  O7  1  0.55500200  0.75843500  0.41026600  1
  O  O8  1  0.81854400  0.61137300  0.00746800  1
  O  O9  1  0.41026600  0.55500200  0.75843500  1
  O  O10  1  0.91754200  0.25522300  0.06243200  1
  O  O11  1  0.61137300  0.00746800  0.81854400  1
  O  O12  1  0.37910600  0.99488100  0.18544800  1
  O  O13  1  0.08950200  0.73567300  0.94391300  1
  O  O14  1  0.59311900  0.43726000  0.24532400  1
  O  O15  1  0.18544800  0.37910600  0.99488100  1
  O  O16  1  0.43726000  0.24532400  0.59311900  1
  O  O17  1  0.25522300  0.06243200  0.91754200  1
  O  O18  1  0.24532400  0.59311900  0.43726000  1
  O  O19  1  0.00746800  0.81854400  0.61137300  1
  O  O20  1  0.06243200  0.91754200  0.25522300  1
  O  O21  1  0.89070800  0.69034700  0.48923600  1
  O  O22  1  0.69034700  0.48923600  0.89070800  1
  O  O23  1  0.48923600  0.89070800  0.69034700  1
loop_
_geom_bond_atom_site_label_1
_geom_bond_atom_site_label_2
_geom_bond_distance
_geom_bond_site_symmetry_2
Mn0 O20 2.189614 1_656
Mn0 O10 2.189614 1_566
Mn0 O17 2.189614 1_665
Mn0 O3 2.212380 1_565
Mn0 O13 2.212380 1_655
Mn0 O6 2.212380 1_556
Mn1 O9 2.157347 1_555
Mn1 O5 2.157348 1_555
Mn1 O7 2.157348 1_555
Mn1 O14 2.163767 1_555
Mn1 O18 2.163767 1_555
Mn1 O16 2.163767 1_555
Fe0 O22 1.953449 1_555
Fe0 O21 1.953450 1_555
Fe0 O23 1.953450 1_555
Fe0 O7 2.117559 1_555
Fe0 O5 2.117559 1_555
Fe0 O9 2.117559 1_555
Fe1 O19 1.930504 1_655
Fe1 O8 1.930504 1_556
Fe1 O11 1.930504 1_565
Fe1 O6 2.069198 1_556
Fe1 O13 2.069198 1_655
Fe1 O3 2.069198 1_565
Fe2 O1 1.924879 1_555
Fe2 O2 1.924879 1_555
Fe2 O0 1.924879 1_555
Fe2 O16 2.090130 1_555
Fe2 O18 2.090130 1_555
Fe2 O14 2.090130 1_555
Co0 O4 1.906148 1_455
Co0 O15 1.906148 1_554
Co0 O12 1.906148 1_545
Co0 O17 1.951877 1_554
Co0 O10 1.951877 1_455
Co0 O20 1.951877 1_545
O0 P1 1.523623 1_545
O1 P2 1.523623 1_554
O2 P0 1.523623 1_455
O3 P0 1.562409 1_555
O4 P0 1.530666 1_555
O5 P0 1.569449 1_555
O6 P1 1.562409 1_555
O7 P1 1.569448 1_555
O8 P3 1.516337 1_555
O9 P2 1.569448 1_555
O10 P3 1.573346 1_555
O11 P4 1.516337 1_555
O12 P1 1.530666 1_555
O13 P2 1.562409 1_555
O14 P3 1.561761 1_555
O15 P2 1.530666 1_555
O16 P4 1.561761 1_555
O17 P4 1.573346 1_555
O18 P5 1.561761 1_555
O19 P5 1.516337 1_555
O20 P5 1.573346 1_555
O21 P5 1.528646 1_655
O22 P3 1.528646 1_556
O23 P4 1.528646 1_565
