# generated using pymatgen
data_Ti4(Ni5O8)3
_symmetry_space_group_name_H-M   'P 1'
_cell_length_a   5.88987561
_cell_length_b   5.88987413
_cell_length_c   14.34284777
_cell_angle_alpha   90.00031904
_cell_angle_beta   89.99971005
_cell_angle_gamma   119.99865276
_symmetry_Int_Tables_number   1
_chemical_formula_structural   Ti4(Ni5O8)3
_chemical_formula_sum   'Ti4 Ni15 O24'
_cell_volume   430.90750014
_cell_formula_units_Z   1
loop_
 _symmetry_equiv_pos_site_id
 _symmetry_equiv_pos_as_xyz
  1  'x, y, z'
loop_
 _atom_site_type_symbol
 _atom_site_label
 _atom_site_symmetry_multiplicity
 _atom_site_fract_x
 _atom_site_fract_y
 _atom_site_fract_z
 _atom_site_occupancy
  Ti  Ti0  1  0.33333605  0.66666876  0.28873545  1
  Ti  Ti1  1  -0.00000291  0.00000020  0.62360131  1
  Ti  Ti2  1  0.00000287  0.99999927  0.37640211  1
  Ti  Ti3  1  0.66666370  0.33333104  0.71126380  1
  Ni  Ni0  1  0.83514773  0.67028481  0.16748996  1
  Ni  Ni1  1  0.50000156  0.49999754  0.99999772  1
  Ni  Ni2  1  0.67027957  0.83514246  0.83251124  1
  Ni  Ni3  1  0.66666991  0.33333352  0.33272967  1
  Ni  Ni4  1  0.32971888  0.16485771  0.16749000  1
  Ni  Ni5  1  -0.00000389  0.49999870  0.99999775  1
  Ni  Ni6  1  0.00000038  0.00000034  -0.00000408  1
  Ni  Ni7  1  0.16485438  0.32971741  0.83251113  1
  Ni  Ni8  1  0.50000294  0.00000437  0.99999775  1
  Ni  Ni9  1  0.83514437  0.16486158  0.16748889  1
  Ni  Ni10  1  0.50000159  0.49999754  0.50000337  1
  Ni  Ni11  1  0.16485473  0.83513690  0.83251238  1
  Ni  Ni12  1  0.33333013  0.66666627  0.66727050  1
  Ni  Ni13  1  -0.00000371  0.49999799  0.50000334  1
  Ni  Ni14  1  0.50000209  0.00000338  0.50000335  1
  O  O0  1  0.50463735  0.49536805  0.24759918  1
  O  O1  1  0.99073910  0.49536875  0.24760055  1
  O  O2  1  0.69900889  0.84950623  0.07509581  1
  O  O3  1  0.00000337  0.00000028  0.24806651  1
  O  O4  1  0.49536173  0.50463366  0.75240112  1
  O  O5  1  0.15049745  0.84950280  0.07509603  1
  O  O6  1  0.15049693  0.30099394  0.07509566  1
  O  O7  1  0.84949915  0.69899600  0.92490018  1
  O  O8  1  0.50463650  0.00926589  0.24760057  1
  O  O9  1  0.66666750  0.33333580  0.08367168  1
  O  O10  1  0.30100266  0.15050052  0.92489998  1
  O  O11  1  0.99999651  0.99999931  0.75194034  1
  O  O12  1  0.00926337  0.50463306  0.75239977  1
  O  O13  1  0.33333314  0.66666494  0.91632870  1
  O  O14  1  0.82873603  0.65747151  0.41790174  1
  O  O15  1  0.49536218  0.99073189  0.75239982  1
  O  O16  1  0.17125467  0.82874321  0.58209516  1
  O  O17  1  0.17125626  0.34251015  0.58209641  1
  O  O18  1  0.84949590  0.15050178  0.92489998  1
  O  O19  1  0.33333287  0.66666755  0.41775936  1
  O  O20  1  0.65748728  0.82874298  0.58209671  1
  O  O21  1  0.66666701  0.33333176  0.58224567  1
  O  O22  1  0.34253040  0.17126609  0.41790149  1
  O  O23  1  0.82873537  0.17126406  0.41790295  1
loop_
_geom_bond_atom_site_label_1
_geom_bond_atom_site_label_2
_geom_bond_distance
_geom_bond_site_symmetry_2
Ni0 O3 2.040630 1_665
Ni0 O1 2.040964 1_555
Ni0 O0 2.040987 1_555
Ni0 O5 2.087983 1_655
Ni0 O2 2.088007 1_555
Ni0 O9 2.097444 1_555
Ni1 O13 2.081115 1_555
Ni1 O9 2.081122 1_556
Ni1 O10 2.087753 1_555
Ni1 O7 2.087755 1_555
Ni1 O6 2.087789 1_556
Ni1 O2 2.087807 1_556
Ni2 O11 2.040592 1_555
Ni2 O15 2.040968 1_555
Ni2 O4 2.040986 1_555
Ni2 O18 2.087970 1_565
Ni2 O7 2.087981 1_555
Ni2 O13 2.097428 1_555
Ni3 O0 2.055056 1_555
Ni3 O8 2.055064 1_555
Ni3 O1 2.055072 1_555
Ni3 O23 2.055699 1_555
Ni3 O14 2.055719 1_555
Ni3 O22 2.055724 1_555
Ni4 O3 2.040631 1_555
Ni4 O8 2.040972 1_555
Ni4 O0 2.040985 1_555
Ni4 O6 2.088001 1_555
Ni4 O5 2.088003 1_545
Ni4 O9 2.097444 1_555
Ni5 O13 2.081140 1_555
Ni5 O9 2.081145 1_456
Ni5 O7 2.087714 1_455
Ni5 O18 2.087745 1_455
Ni5 O6 2.087767 1_556
Ni5 O5 2.087781 1_556
Ni6 O5 1.875476 1_545
Ni6 O2 1.875479 1_445
Ni6 O6 1.875485 1_555
Ni6 O18 1.875489 1_454
Ni6 O10 1.875491 1_554
Ni6 O7 1.875497 1_444
Ni7 O11 2.040594 1_445
Ni7 O12 2.040967 1_555
Ni7 O4 2.040981 1_555
Ni7 O18 2.087969 1_455
Ni7 O10 2.087976 1_555
Ni7 O13 2.097432 1_555
Ni8 O13 2.081149 1_545
Ni8 O9 2.081156 1_556
Ni8 O10 2.087726 1_555
Ni8 O18 2.087729 1_555
Ni8 O2 2.087762 1_546
Ni8 O5 2.087789 1_546
Ni9 O3 2.040640 1_655
Ni9 O1 2.040989 1_555
Ni9 O8 2.040993 1_555
Ni9 O6 2.087983 1_655
Ni9 O2 2.087991 1_545
Ni9 O9 2.097425 1_555
Ni10 O17 2.049377 1_555
Ni10 O20 2.049378 1_555
Ni10 O22 2.049391 1_555
Ni10 O14 2.049403 1_555
Ni10 O21 2.069363 1_555
Ni10 O19 2.069409 1_555
Ni11 O11 2.040596 1_455
Ni11 O12 2.040983 1_555
Ni11 O15 2.040998 1_555
Ni11 O7 2.087943 1_455
Ni11 O10 2.087970 1_565
Ni11 O13 2.097415 1_555
Ni12 O4 2.055045 1_555
Ni12 O15 2.055058 1_555
Ni12 O12 2.055063 1_555
Ni12 O16 2.055788 1_555
Ni12 O17 2.055810 1_555
Ni12 O20 2.055813 1_555
Ni13 O16 2.049367 1_555
Ni13 O17 2.049368 1_555
Ni13 O14 2.049381 1_455
Ni13 O23 2.049391 1_455
Ni13 O21 2.069375 1_455
Ni13 O19 2.069419 1_555
Ni14 O20 2.049362 1_545
Ni14 O16 2.049377 1_545
Ni14 O22 2.049386 1_555
Ni14 O23 2.049390 1_555
Ni14 O21 2.069370 1_555
Ni14 O19 2.069415 1_545
O0 Ti0 1.844437 1_555
O1 Ti0 1.844445 1_655
O3 Ti2 1.840698 1_545
O4 Ti3 1.844454 1_555
O8 Ti0 1.844446 1_545
O11 Ti1 1.840747 1_665
O12 Ti3 1.844463 1_455
O14 Ti2 1.845791 1_655
O15 Ti3 1.844461 1_565
O16 Ti1 1.845719 1_565
O17 Ti1 1.845730 1_555
O19 Ti0 1.850570 1_555
O20 Ti1 1.845727 1_665
O21 Ti3 1.850487 1_555
O22 Ti2 1.845789 1_545
O23 Ti2 1.845780 1_645
