# generated using pymatgen
data_LiCoPO4
_symmetry_space_group_name_H-M   'P 1'
_cell_length_a   10.70056000
_cell_length_b   5.70677500
_cell_length_c   9.91070808
_cell_angle_alpha   88.30664253
_cell_angle_beta   90.00000000
_cell_angle_gamma   90.00000000
_symmetry_Int_Tables_number   1
_chemical_formula_structural   LiCoPO4
_chemical_formula_sum   'Li8 Co8 P8 O32'
_cell_volume   604.93991320
_cell_formula_units_Z   8
loop_
 _symmetry_equiv_pos_site_id
 _symmetry_equiv_pos_as_xyz
  1  'x, y, z'
loop_
 _atom_site_type_symbol
 _atom_site_label
 _atom_site_symmetry_multiplicity
 _atom_site_fract_x
 _atom_site_fract_y
 _atom_site_fract_z
 _atom_site_occupancy
  Li  Li0  1  0.85598500  0.87348200  0.88350200  1
  Li  Li1  1  0.64401500  0.87348200  0.38350200  1
  Li  Li2  1  0.33932500  0.61223900  0.64072600  1
  Li  Li3  1  0.16067500  0.61223900  0.14072600  1
  Li  Li4  1  0.83932500  0.38776100  0.85927400  1
  Li  Li5  1  0.66067500  0.38776100  0.35927400  1
  Li  Li6  1  0.35598500  0.12651800  0.61649800  1
  Li  Li7  1  0.14401500  0.12651800  0.11649800  1
  Co  Co0  1  0.09851300  0.88325500  0.73472300  1
  Co  Co1  1  0.40148700  0.88325500  0.23472300  1
  Co  Co2  1  0.62781400  0.65106900  0.99274800  1
  Co  Co3  1  0.87218600  0.65106900  0.49274800  1
  Co  Co4  1  0.12781400  0.34893100  0.50725200  1
  Co  Co5  1  0.37218600  0.34893100  0.00725200  1
  Co  Co6  1  0.59851300  0.11674500  0.76527700  1
  Co  Co7  1  0.90148700  0.11674500  0.26527700  1
  P  P0  1  0.35863800  0.87250500  0.90933100  1
  P  P1  1  0.14136200  0.87250500  0.40933100  1
  P  P2  1  0.60607700  0.62356100  0.66236200  1
  P  P3  1  0.89392300  0.62356100  0.16236200  1
  P  P4  1  0.10607700  0.37643900  0.83763800  1
  P  P5  1  0.39392300  0.37643900  0.33763800  1
  P  P6  1  0.85863800  0.12749500  0.59066900  1
  P  P7  1  0.64136200  0.12749500  0.09066900  1
  O  O0  1  0.21223300  0.91312000  0.54324900  1
  O  O1  1  0.93667600  0.90081500  0.62232600  1
  O  O2  1  0.28776700  0.91312000  0.04324900  1
  O  O3  1  0.56332400  0.90081500  0.12232600  1
  O  O4  1  0.27286900  0.83367600  0.78835300  1
  O  O5  1  0.52428500  0.85014200  0.65116600  1
  O  O6  1  0.22713100  0.83367600  0.28835300  1
  O  O7  1  0.97571500  0.85014200  0.15116600  1
  O  O8  1  0.44350600  0.65358600  0.92489200  1
  O  O9  1  0.69154300  0.63286100  0.79100100  1
  O  O10  1  0.05649400  0.65358600  0.42489200  1
  O  O11  1  0.68733700  0.61181200  0.53145800  1
  O  O12  1  0.01781100  0.59346000  0.82909300  1
  O  O13  1  0.80845700  0.63286100  0.29100100  1
  O  O14  1  0.81266300  0.61181200  0.03145800  1
  O  O15  1  0.48218900  0.59346000  0.32909300  1
  O  O16  1  0.51781100  0.40654000  0.67090700  1
  O  O17  1  0.18733700  0.38818800  0.96854200  1
  O  O18  1  0.19154300  0.36713900  0.70899900  1
  O  O19  1  0.98218900  0.40654000  0.17090700  1
  O  O20  1  0.31266300  0.38818800  0.46854200  1
  O  O21  1  0.94350600  0.34641400  0.57510800  1
  O  O22  1  0.30845700  0.36713900  0.20899900  1
  O  O23  1  0.55649400  0.34641400  0.07510800  1
  O  O24  1  0.02428500  0.14985800  0.84883400  1
  O  O25  1  0.77286900  0.16632400  0.71164700  1
  O  O26  1  0.47571500  0.14985800  0.34883400  1
  O  O27  1  0.72713100  0.16632400  0.21164700  1
  O  O28  1  0.43667600  0.09918500  0.87767400  1
  O  O29  1  0.71223300  0.08688000  0.95675100  1
  O  O30  1  0.06332400  0.09918500  0.37767400  1
  O  O31  1  0.78776700  0.08688000  0.45675100  1
loop_
_geom_bond_atom_site_label_1
_geom_bond_atom_site_label_2
_geom_bond_distance
_geom_bond_site_symmetry_2
Li0 O29 2.104392 1_565
Li0 O14 2.113193 1_556
Li0 O24 2.411823 1_665
Li0 O12 2.427738 1_655
Li0 O9 2.428311 1_555
Li0 O25 2.513274 1_565
Li1 O31 2.104392 1_565
Li1 O11 2.113193 1_555
Li1 O26 2.411823 1_565
Li1 O15 2.427738 1_555
Li1 O13 2.428311 1_555
Li1 O27 2.513274 1_565
Li2 O4 2.086264 1_555
Li2 O20 2.181103 1_555
Li2 O18 2.204317 1_555
Li2 O16 2.257084 1_555
Li2 O0 2.373399 1_555
Li2 O5 2.404034 1_555
Li3 O6 2.086264 1_555
Li3 O17 2.181103 1_554
Li3 O22 2.204317 1_555
Li3 O19 2.257084 1_455
Li3 O2 2.373399 1_555
Li3 O7 2.404034 1_455
Li4 O25 2.086264 1_555
Li4 O14 2.181103 1_556
Li4 O9 2.204317 1_555
Li4 O12 2.257084 1_655
Li4 O29 2.373399 1_555
Li4 O24 2.404034 1_655
Li5 O27 2.086264 1_555
Li5 O11 2.181103 1_555
Li5 O13 2.204317 1_555
Li5 O15 2.257084 1_555
Li5 O31 2.373399 1_555
Li5 O26 2.404034 1_555
Li6 O0 2.104392 1_545
Li6 O20 2.113193 1_555
Li6 O5 2.411823 1_545
Li6 O16 2.427738 1_555
Li6 O18 2.428311 1_555
Li6 O4 2.513274 1_545
Li7 O2 2.104392 1_545
Li7 O17 2.113193 1_554
Li7 O7 2.411823 1_445
Li7 O19 2.427738 1_455
Li7 O22 2.428311 1_555
Li7 O6 2.513274 1_545
Co0 O4 1.958196 1_555
Co0 O1 2.059913 1_455
Co0 O12 2.064967 1_555
Co0 O24 2.079987 1_565
Co0 O0 2.256490 1_555
Co1 O6 1.958196 1_555
Co1 O3 2.059913 1_555
Co1 O15 2.064967 1_555
Co1 O26 2.079987 1_565
Co1 O2 2.256490 1_555
Co2 O14 2.026013 1_556
Co2 O23 2.046345 1_556
Co2 O3 2.065163 1_556
Co2 O8 2.083617 1_555
Co2 O9 2.118003 1_555
Co3 O11 2.026013 1_555
Co3 O21 2.046345 1_555
Co3 O1 2.065163 1_555
Co3 O10 2.083617 1_655
Co3 O13 2.118003 1_555
Co4 O20 2.026013 1_555
Co4 O10 2.046345 1_555
Co4 O30 2.065163 1_555
Co4 O21 2.083617 1_455
Co4 O18 2.118003 1_555
Co5 O17 2.026013 1_554
Co5 O8 2.046345 1_554
Co5 O28 2.065163 1_554
Co5 O23 2.083617 1_555
Co5 O22 2.118003 1_555
Co6 O25 1.958196 1_555
Co6 O28 2.059913 1_555
Co6 O16 2.064967 1_555
Co6 O5 2.079987 1_545
Co6 O29 2.256490 1_555
Co7 O27 1.958196 1_555
Co7 O30 2.059913 1_655
Co7 O19 2.064967 1_555
Co7 O7 2.079987 1_545
Co7 O31 2.256490 1_555
O0 P1 1.551944 1_555
O1 P6 1.563710 1_565
O2 P0 1.551944 1_554
O3 P7 1.563710 1_565
O4 P0 1.531230 1_555
O5 P2 1.562630 1_555
O6 P1 1.531230 1_555
O7 P3 1.562630 1_555
O8 P0 1.548519 1_555
O9 P2 1.571168 1_555
O10 P1 1.548519 1_555
O11 P2 1.564875 1_555
O12 P4 1.557852 1_555
O13 P3 1.571168 1_555
O14 P3 1.564875 1_555
O15 P5 1.557852 1_555
O16 P2 1.557852 1_555
O17 P4 1.564875 1_555
O18 P4 1.571168 1_555
O19 P3 1.557852 1_555
O20 P5 1.564875 1_555
O21 P6 1.548519 1_555
O22 P5 1.571168 1_555
O23 P7 1.548519 1_555
O24 P4 1.562630 1_555
O25 P6 1.531230 1_555
O26 P5 1.562630 1_555
O27 P7 1.531230 1_555
O28 P0 1.563710 1_545
O29 P7 1.551944 1_556
O30 P1 1.563710 1_545
O31 P6 1.551944 1_555
