# generated using pymatgen
data_LiFe2(PO4)2
_symmetry_space_group_name_H-M   'P 1'
_cell_length_a   4.90712942
_cell_length_b   4.90712942
_cell_length_c   6.26354900
_cell_angle_alpha   90.00000000
_cell_angle_beta   90.00000000
_cell_angle_gamma   111.78841194
_symmetry_Int_Tables_number   1
_chemical_formula_structural   LiFe2(PO4)2
_chemical_formula_sum   'Li1 Fe2 P2 O8'
_cell_volume   140.05089986
_cell_formula_units_Z   1
loop_
 _symmetry_equiv_pos_site_id
 _symmetry_equiv_pos_as_xyz
  1  'x, y, z'
loop_
 _atom_site_type_symbol
 _atom_site_label
 _atom_site_symmetry_multiplicity
 _atom_site_fract_x
 _atom_site_fract_y
 _atom_site_fract_z
 _atom_site_occupancy
  Li  Li0  1  0.16586100  0.83413900  0.50000000  1
  Fe  Fe0  1  0.49983200  0.50016800  0.77154800  1
  Fe  Fe1  1  0.49983200  0.50016800  0.22845200  1
  P  P0  1  0.14815500  0.85184500  0.00000000  1
  P  P1  1  0.84163600  0.15836400  0.50000000  1
  O  O0  1  0.25361800  0.74638200  0.79677300  1
  O  O1  1  0.80366700  0.73173800  0.00000000  1
  O  O2  1  0.26826200  0.19633300  0.00000000  1
  O  O3  1  0.25361800  0.74638200  0.20322700  1
  O  O4  1  0.73550000  0.26450000  0.30085700  1
  O  O5  1  0.73021100  0.81165600  0.50000000  1
  O  O6  1  0.18834400  0.26978900  0.50000000  1
  O  O7  1  0.73550000  0.26450000  0.69914300  1
loop_
_geom_bond_atom_site_label_1
_geom_bond_atom_site_label_2
_geom_bond_distance
_geom_bond_site_symmetry_2
Li0 O0 1.990953 1_555
Li0 O3 1.990953 1_555
Li0 O5 2.099341 1_455
Li0 O6 2.099341 1_565
Fe0 O7 1.968061 1_555
Fe0 O0 2.007023 1_555
Fe0 O1 2.074615 1_556
Fe0 O2 2.074615 1_556
Fe0 O5 2.285716 1_555
Fe0 O6 2.285716 1_555
Fe1 O4 1.968061 1_555
Fe1 O3 2.007023 1_555
Fe1 O1 2.074615 1_555
Fe1 O2 2.074615 1_555
Fe1 O5 2.285716 1_555
Fe1 O6 2.285716 1_555
O0 P0 1.534539 1_556
O1 P0 1.570145 1_655
O2 P0 1.570145 1_545
O3 P0 1.534539 1_555
O4 P1 1.516491 1_555
O5 P1 1.582069 1_565
O6 P1 1.582069 1_455
O7 P1 1.516491 1_555
