# generated using pymatgen
data_V2O3F
_symmetry_space_group_name_H-M   'P 1'
_cell_length_a   5.46697567
_cell_length_b   5.46697567
_cell_length_c   6.94182496
_cell_angle_alpha   73.37766994
_cell_angle_beta   73.37766994
_cell_angle_gamma   75.17266335
_symmetry_Int_Tables_number   1
_chemical_formula_structural   V2O3F
_chemical_formula_sum   'V6 O9 F3'
_cell_volume   187.04298892
_cell_formula_units_Z   3
loop_
 _symmetry_equiv_pos_site_id
 _symmetry_equiv_pos_as_xyz
  1  'x, y, z'
loop_
 _atom_site_type_symbol
 _atom_site_label
 _atom_site_symmetry_multiplicity
 _atom_site_fract_x
 _atom_site_fract_y
 _atom_site_fract_z
 _atom_site_occupancy
  V  V0  1  0.67284914  0.66257400  0.83486207  1
  V  V1  1  0.30082868  0.37111002  0.66584018  1
  V  V2  1  0.62888998  0.69917132  0.33415982  1
  V  V3  1  0.33742600  0.32715086  0.16513793  1
  V  V4  1  0.00682282  0.99317718  0.50000000  1
  V  V5  1  0.04378726  0.95621274  -0.00000000  1
  O  O0  1  0.23533780  0.22825245  0.96332903  1
  O  O1  1  0.57158100  0.56269870  0.63121178  1
  O  O2  1  0.89318484  0.90364210  0.29761361  1
  O  O3  1  0.09635790  0.10681516  0.70238639  1
  O  O4  1  0.77174755  0.76466220  0.03667097  1
  O  O5  1  0.43730130  0.42841900  0.36878822  1
  O  O6  1  0.03198286  0.64322036  0.66559677  1
  O  O7  1  0.35677964  0.96801714  0.33440323  1
  O  O8  1  0.31200860  0.68799140  -0.00000000  1
  F  F0  1  0.62891902  0.03408878  0.66758708  1
  F  F1  1  0.96591122  0.37108098  0.33241292  1
  F  F2  1  0.70828440  0.29171560  -0.00000000  1
loop_
_geom_bond_atom_site_label_1
_geom_bond_atom_site_label_2
_geom_bond_distance
_geom_bond_site_symmetry_2
O0 V3 1.897769 1_556
O0 V1 1.949409 1_555
O0 V5 1.949692 1_546
O1 V0 1.909798 1_555
O1 V2 1.943398 1_555
O1 V1 1.947233 1_555
O2 V4 1.909931 1_655
O2 V5 1.958822 1_655
O2 V2 1.963753 1_555
O3 V4 1.909931 1_545
O3 V5 1.958822 1_546
O3 V1 1.963753 1_555
O4 V0 1.897769 1_554
O4 V2 1.949409 1_555
O4 V5 1.949692 1_655
O5 V3 1.909798 1_555
O5 V1 1.943398 1_555
O5 V2 1.947233 1_555
O6 V1 1.803932 1_555
O6 V4 1.923076 1_555
O6 V0 1.972717 1_455
O7 V2 1.803932 1_555
O7 V4 1.923076 1_555
O7 V3 1.972717 1_565
O8 V5 1.788830 1_555
O8 V3 1.970289 1_555
O8 V0 1.970289 1_554
F0 V0 2.022827 1_545
F0 V4 2.051590 1_645
F0 V1 2.218186 1_555
F1 V3 2.022827 1_655
F1 V4 2.051590 1_645
F1 V2 2.218186 1_555
F2 V3 2.014599 1_555
F2 V0 2.014599 1_554
F2 V5 2.237546 1_645
