# generated using pymatgen
data_Al(CoO2)2
_symmetry_space_group_name_H-M   'P 1'
_cell_length_a   5.81297513
_cell_length_b   5.81297513
_cell_length_c   5.81297513
_cell_angle_alpha   119.59350937
_cell_angle_beta   118.82814703
_cell_angle_gamma   91.37365619
_symmetry_Int_Tables_number   1
_chemical_formula_structural   Al(CoO2)2
_chemical_formula_sum   'Al2 Co4 O8'
_cell_volume   140.49846107
_cell_formula_units_Z   2
loop_
 _symmetry_equiv_pos_site_id
 _symmetry_equiv_pos_as_xyz
  1  'x, y, z'
loop_
 _atom_site_type_symbol
 _atom_site_label
 _atom_site_symmetry_multiplicity
 _atom_site_fract_x
 _atom_site_fract_y
 _atom_site_fract_z
 _atom_site_occupancy
  Al  Al0  1  0.50000000  0.50000000  0.50000000  1
  Al  Al1  1  0.50000000  0.00000000  0.00000000  1
  Co  Co0  1  0.50000000  0.00000000  0.50000000  1
  Co  Co1  1  0.12172800  0.37172800  0.75000000  1
  Co  Co2  1  0.00000000  0.00000000  0.00000000  1
  Co  Co3  1  0.87827200  0.62827200  0.25000000  1
  O  O0  1  0.29323300  0.76152900  0.53170400  1
  O  O1  1  0.72982500  0.76152900  0.96829600  1
  O  O2  1  0.73176800  0.21610700  0.98433900  1
  O  O3  1  0.73176800  0.74742900  0.51566100  1
  O  O4  1  0.26823200  0.25257100  0.48433900  1
  O  O5  1  0.26823200  0.78389300  0.01566100  1
  O  O6  1  0.70676700  0.23847100  0.46829600  1
  O  O7  1  0.27017500  0.23847100  0.03170400  1
loop_
_geom_bond_atom_site_label_1
_geom_bond_atom_site_label_2
_geom_bond_distance
_geom_bond_site_symmetry_2
Al0 O3 1.884567 1_555
Al0 O4 1.884567 1_555
Al0 O7 1.953023 1_555
Al0 O0 1.953023 1_555
Al0 O1 1.953023 1_555
Al0 O6 1.953023 1_555
Al1 O2 1.884567 1_554
Al1 O5 1.884567 1_545
Al1 O1 1.953023 1_544
Al1 O6 1.953023 1_555
Al1 O0 1.953023 1_544
Al1 O7 1.953023 1_555
Co0 O0 1.945838 1_545
Co0 O6 1.945838 1_555
Co0 O2 2.021769 1_555
Co0 O5 2.021769 1_545
Co0 O4 2.021769 1_555
Co0 O3 2.021769 1_545
Co1 O5 1.957019 1_556
Co1 O4 1.957019 1_555
Co1 O6 1.987054 1_455
Co1 O7 1.987054 1_556
Co2 O7 1.945838 1_555
Co2 O1 1.945838 1_444
Co2 O3 2.021769 1_444
Co2 O5 2.021769 1_545
Co2 O4 2.021769 1_555
Co2 O2 2.021769 1_454
Co3 O2 1.957019 1_554
Co3 O3 1.957019 1_555
Co3 O1 1.987054 1_554
Co3 O0 1.987054 1_655
