# generated using pymatgen
data_Al2H10S3O17
_symmetry_space_group_name_H-M   'P 1'
_cell_length_a   10.90979600
_cell_length_b   5.53787100
_cell_length_c   21.06960850
_cell_angle_alpha   81.37066477
_cell_angle_beta   90.00000000
_cell_angle_gamma   90.00000000
_symmetry_Int_Tables_number   1
_chemical_formula_structural   Al2H10S3O17
_chemical_formula_sum   'Al8 H40 S12 O68'
_cell_volume   1258.55309953
_cell_formula_units_Z   4
loop_
 _symmetry_equiv_pos_site_id
 _symmetry_equiv_pos_as_xyz
  1  'x, y, z'
loop_
 _atom_site_type_symbol
 _atom_site_label
 _atom_site_symmetry_multiplicity
 _atom_site_fract_x
 _atom_site_fract_y
 _atom_site_fract_z
 _atom_site_occupancy
  Al  Al0  1  0.00000000  0.50000000  0.50000000  1
  Al  Al1  1  0.50000000  0.50000000  0.50000000  1
  Al  Al2  1  0.23912900  0.10126200  0.81277400  1
  Al  Al3  1  0.73912900  0.89873800  0.68722600  1
  Al  Al4  1  0.26087100  0.10126200  0.31277400  1
  Al  Al5  1  0.00000000  0.50000000  0.00000000  1
  Al  Al6  1  0.50000000  0.50000000  0.00000000  1
  Al  Al7  1  0.76087100  0.89873800  0.18722600  1
  H  H0  1  0.67448200  0.63740900  0.29210300  1
  H  H1  1  0.82469900  0.60360600  0.28844600  1
  H  H2  1  0.87297600  0.13692700  0.76238300  1
  H  H3  1  0.92116400  0.20174300  0.68989400  1
  H  H4  1  0.56132100  0.18997900  0.70284400  1
  H  H5  1  0.43581400  0.18422400  0.59489300  1
  H  H6  1  0.09170300  0.17472900  0.58442800  1
  H  H7  1  0.32469900  0.39639400  0.21155400  1
  H  H8  1  0.60757300  0.07169900  0.77409400  1
  H  H9  1  0.17448200  0.36259100  0.20789700  1
  H  H10  1  0.16462300  0.17905200  0.51903800  1
  H  H11  1  0.38658700  0.10244100  0.52852800  1
  H  H12  1  0.88658700  0.89755900  0.97147200  1
  H  H13  1  0.66462300  0.82094800  0.98096200  1
  H  H14  1  0.10757300  0.92830100  0.72590600  1
  H  H15  1  0.59170300  0.82527100  0.91557200  1
  H  H16  1  0.93581400  0.81577600  0.90510700  1
  H  H17  1  0.62702400  0.13692700  0.26238300  1
  H  H18  1  0.57883600  0.20174300  0.18989400  1
  H  H19  1  0.93867900  0.18997900  0.20284400  1
  H  H20  1  0.06132100  0.81002100  0.79715600  1
  H  H21  1  0.42116400  0.79825700  0.81010600  1
  H  H22  1  0.37297600  0.86307300  0.73761700  1
  H  H23  1  0.06418600  0.18422400  0.09489300  1
  H  H24  1  0.40829700  0.17472900  0.08442800  1
  H  H25  1  0.89242700  0.07169900  0.27409400  1
  H  H26  1  0.33537700  0.17905200  0.01903800  1
  H  H27  1  0.11341300  0.10244100  0.02852800  1
  H  H28  1  0.61341300  0.89755900  0.47147200  1
  H  H29  1  0.83537700  0.82094800  0.48096200  1
  H  H30  1  0.82551800  0.63740900  0.79210300  1
  H  H31  1  0.39242700  0.92830100  0.22590600  1
  H  H32  1  0.67530100  0.60360600  0.78844600  1
  H  H33  1  0.90829700  0.82527100  0.41557200  1
  H  H34  1  0.56418600  0.81577600  0.40510700  1
  H  H35  1  0.43867900  0.81002100  0.29715600  1
  H  H36  1  0.07883600  0.79825700  0.31010600  1
  H  H37  1  0.12702400  0.86307300  0.23761700  1
  H  H38  1  0.17530100  0.39639400  0.71155400  1
  H  H39  1  0.32551800  0.36259100  0.70789700  1
  S  S0  1  0.50524900  0.70781300  0.13370200  1
  S  S1  1  0.00727300  0.65056400  0.14055800  1
  S  S2  1  0.50727300  0.34943600  0.35944200  1
  S  S3  1  0.74695200  0.22067700  0.54675400  1
  S  S4  1  0.00524900  0.29218700  0.36629800  1
  S  S5  1  0.24695200  0.77932300  0.95324600  1
  S  S6  1  0.75304800  0.22067700  0.04675400  1
  S  S7  1  0.99475100  0.70781300  0.63370200  1
  S  S8  1  0.25304800  0.77932300  0.45324600  1
  S  S9  1  0.49272700  0.65056400  0.64055800  1
  S  S10  1  0.99272700  0.34943600  0.85944200  1
  S  S11  1  0.49475100  0.29218700  0.86629800  1
  O  O0  1  0.08901000  0.83307700  0.16176400  1
  O  O1  1  0.75045400  0.67708700  0.26575900  1
  O  O2  1  0.63915100  0.74013100  0.14557300  1
  O  O3  1  0.54564100  0.60405900  0.33218800  1
  O  O4  1  0.87757400  0.68095600  0.15947500  1
  O  O5  1  0.49105000  0.70679000  0.06315800  1
  O  O6  1  0.66803500  0.43168300  0.52159900  1
  O  O7  1  0.01370900  0.67656300  0.06909700  1
  O  O8  1  0.96420200  0.52532400  0.32897100  1
  O  O9  1  0.87540100  0.30990300  0.54809100  1
  O  O10  1  0.11791000  0.28407200  0.54501000  1
  O  O11  1  0.46420200  0.47467600  0.17102900  1
  O  O12  1  0.51370900  0.32343700  0.43090300  1
  O  O13  1  0.56662300  0.08193900  0.85058800  1
  O  O14  1  0.99105000  0.29321000  0.43684200  1
  O  O15  1  0.23611300  0.97698400  0.99237800  1
  O  O16  1  0.44707400  0.20404300  0.54819500  1
  O  O17  1  0.86150300  0.10219900  0.71755300  1
  O  O18  1  0.37757400  0.31904400  0.34052500  1
  O  O19  1  0.04564100  0.39594100  0.16781200  1
  O  O20  1  0.70980100  0.13722400  0.61449300  1
  O  O21  1  0.61613300  0.06549100  0.72716700  1
  O  O22  1  0.13915100  0.25986900  0.35442700  1
  O  O23  1  0.25045400  0.32291300  0.23424100  1
  O  O24  1  0.83196500  0.43168300  0.02159900  1
  O  O25  1  0.11613300  0.93450900  0.77283300  1
  O  O26  1  0.20980100  0.86277600  0.88550700  1
  O  O27  1  0.58901000  0.16692300  0.33823600  1
  O  O28  1  0.36150300  0.89780100  0.78244700  1
  O  O29  1  0.94707400  0.79595700  0.95180500  1
  O  O30  1  0.62459900  0.30990300  0.04809100  1
  O  O31  1  0.73611300  0.02301600  0.50762200  1
  O  O32  1  0.38209000  0.28407200  0.04501000  1
  O  O33  1  0.06662300  0.91806100  0.64941200  1
  O  O34  1  0.93337700  0.08193900  0.35058800  1
  O  O35  1  0.61791000  0.71592800  0.95499000  1
  O  O36  1  0.26388700  0.97698400  0.49237800  1
  O  O37  1  0.37540100  0.69009700  0.95190900  1
  O  O38  1  0.05292600  0.20404300  0.04819500  1
  O  O39  1  0.63849700  0.10219900  0.21755300  1
  O  O40  1  0.41099000  0.83307700  0.66176400  1
  O  O41  1  0.79019900  0.13722400  0.11449300  1
  O  O42  1  0.88386700  0.06549100  0.22716700  1
  O  O43  1  0.16803500  0.56831700  0.97840100  1
  O  O44  1  0.74954600  0.67708700  0.76575900  1
  O  O45  1  0.86084900  0.74013100  0.64557300  1
  O  O46  1  0.38386700  0.93450900  0.27283300  1
  O  O47  1  0.29019900  0.86277600  0.38550700  1
  O  O48  1  0.95435900  0.60405900  0.83218800  1
  O  O49  1  0.62242600  0.68095600  0.65947500  1
  O  O50  1  0.13849700  0.89780100  0.28244700  1
  O  O51  1  0.55292600  0.79595700  0.45180500  1
  O  O52  1  0.76388700  0.02301600  0.00762200  1
  O  O53  1  0.00895000  0.70679000  0.56315800  1
  O  O54  1  0.43337700  0.91806100  0.14941200  1
  O  O55  1  0.48629100  0.67656300  0.56909700  1
  O  O56  1  0.53579800  0.52532400  0.82897100  1
  O  O57  1  0.88209000  0.71592800  0.45499000  1
  O  O58  1  0.12459900  0.69009700  0.45190900  1
  O  O59  1  0.03579800  0.47467600  0.67102900  1
  O  O60  1  0.98629100  0.32343700  0.93090300  1
  O  O61  1  0.33196500  0.56831700  0.47840100  1
  O  O62  1  0.50895000  0.29321000  0.93684200  1
  O  O63  1  0.12242600  0.31904400  0.84052500  1
  O  O64  1  0.45435900  0.39594100  0.66781200  1
  O  O65  1  0.36084900  0.25986900  0.85442700  1
  O  O66  1  0.24954600  0.32291300  0.73424100  1
  O  O67  1  0.91099000  0.16692300  0.83823600  1
loop_
_geom_bond_atom_site_label_1
_geom_bond_atom_site_label_2
_geom_bond_distance
_geom_bond_site_symmetry_2
Al0 O53 1.883895 1_555
Al0 O14 1.883895 1_455
Al0 O57 1.908850 1_455
Al0 O10 1.908850 1_555
Al0 O58 1.913812 1_555
Al0 O9 1.913812 1_455
Al1 O55 1.877522 1_555
Al1 O12 1.877522 1_555
Al1 O16 1.884501 1_555
Al1 O51 1.884501 1_555
Al1 O6 1.912928 1_555
Al1 O61 1.912928 1_555
Al2 O65 1.880542 1_555
Al2 O26 1.894126 1_545
Al2 O25 1.895985 1_545
Al2 O63 1.905019 1_555
Al2 O66 1.909980 1_555
Al2 O28 1.917371 1_545
Al3 O45 1.880542 1_555
Al3 O20 1.894126 1_565
Al3 O21 1.895985 1_565
Al3 O49 1.905019 1_555
Al3 O44 1.909980 1_555
Al3 O17 1.917371 1_565
Al4 O22 1.880542 1_555
Al4 O47 1.894126 1_545
Al4 O46 1.895985 1_545
Al4 O18 1.905019 1_555
Al4 O23 1.909980 1_555
Al4 O50 1.917371 1_545
Al5 O7 1.877522 1_555
Al5 O60 1.877522 1_454
Al5 O38 1.884501 1_555
Al5 O29 1.884501 1_454
Al5 O43 1.912928 1_554
Al5 O24 1.912928 1_455
Al6 O5 1.883895 1_555
Al6 O62 1.883895 1_554
Al6 O35 1.908850 1_554
Al6 O32 1.908850 1_555
Al6 O30 1.913812 1_555
Al6 O37 1.913812 1_554
Al7 O2 1.880542 1_555
Al7 O41 1.894126 1_565
Al7 O42 1.895985 1_565
Al7 O4 1.905019 1_555
Al7 O1 1.909980 1_555
Al7 O39 1.917371 1_565
H0 O1 1.003367 1_555
H0 O3 1.635971 1_555
H1 O1 0.995895 1_555
H2 O17 0.999671 1_555
H2 O67 1.683294 1_555
H3 O17 0.985270 1_555
H4 O21 0.994722 1_555
H4 O64 1.718969 1_555
H5 O16 0.981227 1_555
H6 O10 0.993611 1_555
H7 O23 0.995895 1_555
H8 O21 0.998848 1_555
H8 O13 1.681608 1_555
H9 O23 1.003367 1_555
H9 O19 1.635971 1_555
H10 O10 0.996453 1_555
H11 O16 0.996858 1_555
H12 O29 0.996858 1_555
H13 O35 0.996453 1_555
H14 O25 0.998848 1_555
H14 O33 1.681608 1_555
H15 O35 0.993611 1_555
H16 O29 0.981227 1_555
H17 O39 0.999671 1_555
H17 O27 1.683294 1_555
H18 O39 0.985270 1_555
H19 O42 0.994722 1_555
H19 O19 1.718969 1_655
H20 O25 0.994722 1_555
H20 O48 1.718969 1_455
H21 O28 0.985270 1_555
H22 O28 0.999671 1_555
H22 O40 1.683294 1_555
H23 O38 0.981227 1_555
H24 O32 0.993611 1_555
H25 O42 0.998848 1_555
H25 O34 1.681608 1_555
H26 O32 0.996453 1_555
H27 O38 0.996858 1_555
H28 O51 0.996858 1_555
H29 O57 0.996453 1_555
H30 O44 1.003367 1_555
H30 O48 1.635971 1_555
H31 O46 0.998848 1_555
H31 O54 1.681608 1_555
H32 O44 0.995895 1_555
H33 O57 0.993611 1_555
H34 O51 0.981227 1_555
H35 O46 0.994722 1_555
H35 O3 1.718969 1_555
H36 O50 0.985270 1_555
H37 O50 0.999671 1_555
H37 O0 1.683294 1_555
H38 O66 0.995895 1_555
H39 O66 1.003367 1_555
H39 O64 1.635971 1_555
O0 S1 1.466943 1_555
O2 S0 1.497360 1_555
O3 S2 1.500091 1_555
O4 S1 1.486444 1_655
O5 S0 1.495241 1_555
O6 S3 1.483837 1_555
O7 S1 1.492516 1_555
O8 S4 1.476908 1_655
O9 S3 1.487587 1_555
O11 S0 1.476908 1_555
O12 S2 1.492516 1_555
O13 S11 1.481788 1_555
O14 S4 1.495241 1_655
O15 S5 1.470646 1_555
O18 S2 1.486444 1_555
O19 S1 1.500091 1_555
O20 S3 1.488934 1_555
O22 S4 1.497360 1_555
O24 S6 1.483837 1_555
O26 S5 1.488934 1_555
O27 S2 1.466943 1_555
O30 S6 1.487587 1_555
O31 S3 1.470646 1_555
O33 S7 1.481788 1_455
O34 S4 1.481788 1_655
O36 S8 1.470646 1_555
O37 S5 1.487587 1_555
O40 S9 1.466943 1_555
O41 S6 1.488934 1_555
O43 S5 1.483837 1_555
O45 S7 1.497360 1_555
O47 S8 1.488934 1_555
O48 S10 1.500091 1_555
O49 S9 1.486444 1_555
O52 S6 1.470646 1_555
O53 S7 1.495241 1_455
O54 S0 1.481788 1_555
O55 S9 1.492516 1_555
O56 S11 1.476908 1_555
O58 S8 1.487587 1_555
O59 S7 1.476908 1_455
O60 S10 1.492516 1_555
O61 S8 1.483837 1_555
O62 S11 1.495241 1_555
O63 S10 1.486444 1_455
O64 S9 1.500091 1_555
O65 S11 1.497360 1_555
O67 S10 1.466943 1_555
