# generated using pymatgen
data_Na9Fe10(SiO3)20
_symmetry_space_group_name_H-M   'P 1'
_cell_length_a   9.80899200
_cell_length_b   10.38722803
_cell_length_c   11.26935624
_cell_angle_alpha   94.92037743
_cell_angle_beta   98.33949567
_cell_angle_gamma   99.05196718
_symmetry_Int_Tables_number   1
_chemical_formula_structural   Na9Fe10(SiO3)20
_chemical_formula_sum   'Na9 Fe10 Si20 O60'
_cell_volume   1114.97512239
_cell_formula_units_Z   1
loop_
 _symmetry_equiv_pos_site_id
 _symmetry_equiv_pos_as_xyz
  1  'x, y, z'
loop_
 _atom_site_type_symbol
 _atom_site_label
 _atom_site_symmetry_multiplicity
 _atom_site_fract_x
 _atom_site_fract_y
 _atom_site_fract_z
 _atom_site_occupancy
  Na  Na0  1  0.99049100  0.71304200  0.98143400  1
  Na  Na1  1  0.80898400  0.48761400  0.61847400  1
  Na  Na2  1  0.78979300  0.91282100  0.58058500  1
  Na  Na3  1  0.60879300  0.68829800  0.21889700  1
  Na  Na4  1  0.39169500  0.31185200  0.78198200  1
  Na  Na5  1  0.41154400  0.88848100  0.82002300  1
  Na  Na6  1  0.21031600  0.08827900  0.41876300  1
  Na  Na7  1  0.19013800  0.51099400  0.38043800  1
  Na  Na8  1  0.00801600  0.28775200  0.01891000  1
  Fe  Fe0  1  0.86891000  0.23009000  0.73923300  1
  Fe  Fe1  1  0.72651800  0.16856700  0.45420600  1
  Fe  Fe2  1  0.92897200  0.96992700  0.86024000  1
  Fe  Fe3  1  0.66968500  0.42859600  0.33902400  1
  Fe  Fe4  1  0.53197300  0.36430600  0.06228500  1
  Fe  Fe5  1  0.47077500  0.62981200  0.94130300  1
  Fe  Fe6  1  0.32939200  0.56925100  0.65971300  1
  Fe  Fe7  1  0.27061600  0.83082700  0.54004000  1
  Fe  Fe8  1  0.07018200  0.03067000  0.14040100  1
  Fe  Fe9  1  0.13116500  0.76980500  0.25959800  1
  Si  Si0  1  0.92433800  0.27536200  0.26988300  1
  Si  Si1  1  0.86183900  0.51858500  0.14140500  1
  Si  Si2  1  0.93928800  0.68186200  0.45882000  1
  Si  Si3  1  0.87454100  0.92404900  0.32934600  1
  Si  Si4  1  0.73687700  0.88372000  0.05948500  1
  Si  Si5  1  0.72525700  0.47525900  0.87075500  1
  Si  Si6  1  0.67410700  0.12362000  0.93070500  1
  Si  Si7  1  0.66104100  0.71805200  0.74175700  1
  Si  Si8  1  0.53905700  0.08202200  0.65831500  1
  Si  Si9  1  0.52582300  0.67637900  0.47032700  1
  Si  Si10  1  0.47382800  0.32396100  0.52972700  1
  Si  Si11  1  0.46162800  0.91893000  0.34014400  1
  Si  Si12  1  0.33985400  0.28095600  0.25826700  1
  Si  Si13  1  0.32849800  0.87758100  0.07114100  1
  Si  Si14  1  0.27445500  0.52313100  0.12991300  1
  Si  Si15  1  0.26092500  0.11774200  0.94131600  1
  Si  Si16  1  0.12517700  0.07612900  0.66991300  1
  Si  Si17  1  0.06031100  0.31816100  0.54070700  1
  Si  Si18  1  0.13859100  0.48131800  0.85857000  1
  Si  Si19  1  0.07464900  0.72448000  0.73019200  1
  O  O0  1  0.94940800  0.15596800  0.17848600  1
  O  O1  1  0.94935300  0.40689800  0.19545000  1
  O  O2  1  0.97066000  0.06435300  0.71281400  1
  O  O3  1  0.95198200  0.66373600  0.18235600  1
  O  O4  1  0.85071700  0.04417100  0.42087500  1
  O  O5  1  0.90210500  0.29060700  0.57595600  1
  O  O6  1  0.89630100  0.91027000  0.02425600  1
  O  O7  1  0.95308300  0.70091500  0.60855700  1
  O  O8  1  0.84895600  0.53697100  0.41779100  1
  O  O9  1  0.77284300  0.26862200  0.31621900  1
  O  O10  1  0.82855400  0.13423300  0.88578900  1
  O  O11  1  0.85193800  0.79385200  0.40552900  1
  O  O12  1  0.65730000  0.25008400  0.01709900  1
  O  O13  1  0.84801700  0.50005400  0.99166800  1
  O  O14  1  0.70334200  0.49163100  0.17629400  1
  O  O15  1  0.69747400  0.10986100  0.62303200  1
  O  O16  1  0.75354200  0.89697600  0.20857200  1
  O  O17  1  0.74889400  0.35655000  0.77781900  1
  O  O18  1  0.64885300  0.73688700  0.01761000  1
  O  O19  1  0.74889700  0.60701100  0.79646700  1
  O  O20  1  0.62835200  0.33611100  0.48699400  1
  O  O21  1  0.64834400  0.99083200  0.00044300  1
  O  O22  1  0.75082300  0.86341300  0.78130800  1
  O  O23  1  0.54629200  0.06376300  0.38949300  1
  O  O24  1  0.64715400  0.69839900  0.59206200  1
  O  O25  1  0.49794100  0.31420800  0.22518400  1
  O  O26  1  0.55282000  0.10211500  0.80802000  1
  O  O27  1  0.54956300  0.55691800  0.37835900  1
  O  O28  1  0.55007300  0.80810600  0.39673400  1
  O  O29  1  0.57085300  0.46459800  0.91421400  1
  O  O30  1  0.42887200  0.53495200  0.08678600  1
  O  O31  1  0.45015000  0.19309800  0.60462500  1
  O  O32  1  0.45046300  0.44381600  0.62165600  1
  O  O33  1  0.44818600  0.89461400  0.19220400  1
  O  O34  1  0.50231600  0.69022800  0.77650400  1
  O  O35  1  0.35230000  0.30077500  0.40813100  1
  O  O36  1  0.44914600  0.93626900  0.61897800  1
  O  O37  1  0.24904000  0.13605200  0.21772100  1
  O  O38  1  0.34685800  0.00462600  0.99216300  1
  O  O39  1  0.37119700  0.66480900  0.51340400  1
  O  O40  1  0.24984300  0.39137000  0.20344000  1
  O  O41  1  0.35136200  0.26289000  0.98272200  1
  O  O42  1  0.25043700  0.64240500  0.22210500  1
  O  O43  1  0.24664200  0.10021500  0.79147500  1
  O  O44  1  0.30256400  0.88948100  0.37577100  1
  O  O45  1  0.29725300  0.50900500  0.82368000  1
  O  O46  1  0.15280300  0.50094700  0.00819800  1
  O  O47  1  0.34974700  0.75590900  0.97882800  1
  O  O48  1  0.14888600  0.20734700  0.59547700  1
  O  O49  1  0.17276000  0.86529600  0.11359400  1
  O  O50  1  0.22914700  0.73560100  0.68703600  1
  O  O51  1  0.15043400  0.46361400  0.58159900  1
  O  O52  1  0.04751700  0.29829400  0.39118300  1
  O  O53  1  0.10213900  0.09109000  0.97616400  1
  O  O54  1  0.09799000  0.70937300  0.42407800  1
  O  O55  1  0.14910500  0.95621700  0.57834900  1
  O  O56  1  0.04862900  0.33609700  0.81784300  1
  O  O57  1  0.02968000  0.93561500  0.28717100  1
  O  O58  1  0.05087200  0.59281200  0.80420500  1
  O  O59  1  0.05050100  0.84400200  0.82182900  1
loop_
_geom_bond_atom_site_label_1
_geom_bond_atom_site_label_2
_geom_bond_distance
_geom_bond_site_symmetry_2
Na0 O6 2.416357 1_556
Na0 O49 2.418604 1_656
Na0 O59 2.430421 1_655
Na0 O3 2.432698 1_556
Na0 O13 2.445106 1_555
Na0 O58 2.459162 1_655
Na0 O19 2.919917 1_555
Na0 O46 2.925363 1_656
Na1 O20 2.402578 1_555
Na1 O5 2.407991 1_555
Na1 O17 2.428847 1_555
Na1 O8 2.433954 1_555
Na1 O7 2.454011 1_555
Na1 O19 2.460730 1_555
Na1 O24 2.910419 1_555
Na1 O58 2.925037 1_655
Na2 O15 2.403899 1_565
Na2 O2 2.407818 1_565
Na2 O22 2.431969 1_555
Na2 O4 2.436121 1_565
Na2 O11 2.440936 1_555
Na2 O24 2.460961 1_555
Na2 O28 2.898334 1_555
Na2 O7 2.931155 1_555
Na3 O30 2.411396 1_555
Na3 O14 2.412640 1_555
Na3 O16 2.418822 1_555
Na3 O27 2.429665 1_555
Na3 O18 2.438690 1_555
Na3 O28 2.455499 1_555
Na3 O33 2.863648 1_555
Na3 O11 2.939463 1_555
Na4 O29 2.404926 1_555
Na4 O45 2.414730 1_555
Na4 O41 2.434427 1_555
Na4 O32 2.440078 1_555
Na4 O43 2.443110 1_555
Na4 O31 2.444834 1_555
Na4 O26 2.896344 1_555
Na4 O48 2.934526 1_555
Na5 O34 2.409229 1_555
Na5 O38 2.412000 1_565
Na5 O50 2.426670 1_555
Na5 O36 2.427615 1_555
Na5 O47 2.437473 1_555
Na5 O26 2.449727 1_565
Na5 O21 2.853370 1_556
Na5 O43 2.940536 1_565
Na6 O57 2.409055 1_545
Na6 O44 2.420962 1_545
Na6 O37 2.430373 1_555
Na6 O35 2.439761 1_555
Na6 O55 2.440049 1_545
Na6 O48 2.453302 1_555
Na6 O52 2.911011 1_555
Na6 O31 2.912119 1_555
Na7 O54 2.417879 1_555
Na7 O42 2.422131 1_555
Na7 O39 2.424189 1_555
Na7 O51 2.433135 1_555
Na7 O52 2.444490 1_555
Na7 O40 2.451174 1_555
Na7 O35 2.908856 1_555
Na7 O1 2.911176 1_455
Na8 O53 2.410606 1_554
Na8 O10 2.415063 1_454
Na8 O0 2.431625 1_455
Na8 O56 2.437057 1_554
Na8 O1 2.440212 1_455
Na8 O46 2.457962 1_555
Na8 O13 2.913038 1_454
Na8 O40 2.914010 1_555
Fe0 O17 1.958961 1_555
Fe0 O56 1.968197 1_655
Fe0 O5 2.048088 1_555
Fe0 O10 2.055133 1_555
Fe0 O15 2.126532 1_555
Fe0 O2 2.141828 1_555
Fe1 O23 1.930402 1_555
Fe1 O4 1.959508 1_555
Fe1 O9 2.009557 1_555
Fe1 O15 2.091490 1_555
Fe1 O20 2.147703 1_555
Fe1 O5 2.187472 1_555
Fe2 O22 1.959815 1_555
Fe2 O59 1.965326 1_655
Fe2 O6 2.051567 1_556
Fe2 O2 2.059094 1_565
Fe2 O10 2.119631 1_565
Fe2 O53 2.139490 1_665
Fe3 O8 1.974917 1_555
Fe3 O27 1.976314 1_555
Fe3 O14 2.052885 1_555
Fe3 O20 2.053351 1_555
Fe3 O25 2.092213 1_555
Fe3 O9 2.093417 1_555
Fe4 O12 1.927463 1_555
Fe4 O41 1.960156 1_554
Fe4 O25 2.009788 1_555
Fe4 O29 2.091155 1_554
Fe4 O14 2.146622 1_555
Fe4 O30 2.191346 1_555
Fe5 O18 1.953608 1_556
Fe5 O47 1.960522 1_555
Fe5 O30 2.042778 1_556
Fe5 O34 2.060137 1_555
Fe5 O29 2.128160 1_555
Fe5 O45 2.148696 1_555
Fe6 O32 1.957210 1_555
Fe6 O51 1.959675 1_555
Fe6 O45 2.051982 1_555
Fe6 O39 2.054443 1_555
Fe6 O50 2.139760 1_555
Fe6 O34 2.141609 1_555
Fe7 O36 1.958336 1_555
Fe7 O55 1.960785 1_555
Fe7 O44 2.048911 1_555
Fe7 O50 2.058628 1_555
Fe7 O54 2.137680 1_555
Fe7 O39 2.137691 1_555
Fe8 O0 1.954067 1_455
Fe8 O37 1.955528 1_555
Fe8 O57 2.053233 1_545
Fe8 O53 2.055096 1_554
Fe8 O6 2.141663 1_445
Fe8 O49 2.144166 1_545
Fe9 O42 1.957838 1_555
Fe9 O3 1.960389 1_455
Fe9 O49 2.050587 1_555
Fe9 O54 2.060580 1_555
Fe9 O44 2.123819 1_555
Fe9 O57 2.142720 1_555
O0 Si0 1.615452 1_555
O1 Si1 1.654274 1_555
O1 Si0 1.667749 1_555
O2 Si16 1.646294 1_655
O3 Si1 1.615797 1_555
O4 Si3 1.617493 1_545
O5 Si17 1.645139 1_655
O6 Si4 1.655982 1_555
O7 Si19 1.654460 1_655
O7 Si2 1.665227 1_555
O8 Si2 1.614356 1_555
O9 Si0 1.638423 1_555
O10 Si6 1.656188 1_555
O11 Si2 1.652933 1_555
O11 Si3 1.665900 1_555
O12 Si6 1.611201 1_554
O13 Si5 1.655078 1_555
O13 Si1 1.665110 1_556
O14 Si1 1.645991 1_555
O15 Si8 1.647397 1_555
O16 Si3 1.643453 1_555
O16 Si4 1.655908 1_555
O17 Si5 1.615534 1_555
O18 Si4 1.624305 1_555
O19 Si7 1.653413 1_555
O19 Si5 1.667492 1_555
O20 Si10 1.645367 1_555
O21 Si4 1.642601 1_555
O21 Si6 1.648592 1_564
O22 Si7 1.614408 1_555
O23 Si11 1.609845 1_545
O24 Si9 1.654594 1_555
O24 Si7 1.664812 1_555
O25 Si12 1.638337 1_555
O26 Si6 1.662253 1_555
O26 Si8 1.665138 1_555
O27 Si9 1.615075 1_555
O28 Si11 1.662590 1_555
O28 Si9 1.663146 1_555
O29 Si5 1.648537 1_555
O30 Si14 1.646445 1_555
O31 Si8 1.655631 1_555
O31 Si10 1.663855 1_555
O32 Si10 1.616514 1_555
O33 Si13 1.643033 1_555
O33 Si11 1.647488 1_555
O34 Si7 1.647899 1_555
O35 Si10 1.654081 1_555
O35 Si12 1.667996 1_555
O36 Si8 1.617946 1_565
O37 Si12 1.615499 1_555
O38 Si15 1.645117 1_555
O38 Si13 1.655067 1_546
O39 Si9 1.648270 1_555
O40 Si12 1.660908 1_555
O40 Si14 1.663314 1_555
O41 Si15 1.617463 1_555
O42 Si14 1.616133 1_555
O43 Si16 1.653115 1_555
O43 Si15 1.665772 1_555
O44 Si11 1.655830 1_555
O45 Si18 1.647873 1_555
O46 Si14 1.656176 1_555
O46 Si18 1.663793 1_554
O47 Si13 1.625795 1_556
O48 Si17 1.655822 1_555
O48 Si16 1.663873 1_555
O49 Si13 1.655284 1_555
O50 Si19 1.647686 1_555
O51 Si17 1.618225 1_555
O52 Si0 1.661242 1_455
O52 Si17 1.663896 1_555
O53 Si15 1.648384 1_555
O54 Si2 1.647512 1_455
O55 Si16 1.616481 1_565
O56 Si18 1.615442 1_555
O57 Si3 1.648680 1_455
O58 Si18 1.655077 1_555
O58 Si19 1.665034 1_555
O59 Si19 1.614757 1_555
