# generated using pymatgen
data_BeCrO4
_symmetry_space_group_name_H-M   'P 1'
_cell_length_a   5.27925600
_cell_length_b   8.51696300
_cell_length_c   8.65707386
_cell_angle_alpha   61.40419694
_cell_angle_beta   90.00000000
_cell_angle_gamma   90.00000000
_symmetry_Int_Tables_number   1
_chemical_formula_structural   BeCrO4
_chemical_formula_sum   'Be4 Cr4 O16'
_cell_volume   341.76850871
_cell_formula_units_Z   4
loop_
 _symmetry_equiv_pos_site_id
 _symmetry_equiv_pos_as_xyz
  1  'x, y, z'
loop_
 _atom_site_type_symbol
 _atom_site_label
 _atom_site_symmetry_multiplicity
 _atom_site_fract_x
 _atom_site_fract_y
 _atom_site_fract_z
 _atom_site_occupancy
  Be  Be0  1  0.91544000  0.79513400  0.78792300  1
  Be  Be1  1  0.41544000  0.20486600  0.71207700  1
  Be  Be2  1  0.58456000  0.79513400  0.28792300  1
  Be  Be3  1  0.08456000  0.20486600  0.21207700  1
  Cr  Cr0  1  0.90419000  0.27726100  0.83032100  1
  Cr  Cr1  1  0.40419000  0.72273900  0.66967900  1
  Cr  Cr2  1  0.59581000  0.27726100  0.33032100  1
  Cr  Cr3  1  0.09581000  0.72273900  0.16967900  1
  O  O0  1  0.98509800  0.25789300  0.02617200  1
  O  O1  1  0.37263700  0.51687400  0.80978700  1
  O  O2  1  0.62666900  0.16963500  0.85023200  1
  O  O3  1  0.63176400  0.81500600  0.73914400  1
  O  O4  1  0.87263700  0.48312600  0.69021300  1
  O  O5  1  0.13176400  0.18499400  0.76085600  1
  O  O6  1  0.12666900  0.83036500  0.64976800  1
  O  O7  1  0.48509800  0.74210700  0.47382800  1
  O  O8  1  0.51490200  0.25789300  0.52617200  1
  O  O9  1  0.87333100  0.16963500  0.35023200  1
  O  O10  1  0.86823600  0.81500600  0.23914400  1
  O  O11  1  0.12736300  0.51687400  0.30978700  1
  O  O12  1  0.36823600  0.18499400  0.26085600  1
  O  O13  1  0.37333100  0.83036500  0.14976800  1
  O  O14  1  0.62736300  0.48312600  0.19021300  1
  O  O15  1  0.01490200  0.74210700  0.97382800  1
loop_
_geom_bond_atom_site_label_1
_geom_bond_atom_site_label_2
_geom_bond_distance
_geom_bond_site_symmetry_2
Be0 O15 1.540795 1_655
Be0 O3 1.543163 1_555
Be0 O6 1.555788 1_655
Be1 O8 1.540795 1_555
Be1 O5 1.543163 1_555
Be1 O2 1.555788 1_555
Be2 O7 1.540795 1_555
Be2 O10 1.543163 1_555
Be2 O13 1.555788 1_555
Be3 O0 1.540795 1_455
Be3 O12 1.543163 1_555
Be3 O9 1.555788 1_455
Cr0 O4 1.592916 1_555
Cr0 O0 1.678283 1_556
Cr0 O2 1.692700 1_555
Cr0 O5 1.695571 1_655
Cr1 O1 1.592916 1_555
Cr1 O7 1.678283 1_555
Cr1 O6 1.692700 1_555
Cr1 O3 1.695571 1_555
Cr2 O14 1.592916 1_555
Cr2 O8 1.678283 1_555
Cr2 O9 1.692700 1_555
Cr2 O12 1.695571 1_555
Cr3 O11 1.592916 1_555
Cr3 O15 1.678283 1_554
Cr3 O13 1.692700 1_555
Cr3 O10 1.695571 1_455
