# generated using pymatgen
data_FeOF
_symmetry_space_group_name_H-M   'P 1'
_cell_length_a   3.09183500
_cell_length_b   9.59339100
_cell_length_c   14.26940938
_cell_angle_alpha   89.37154272
_cell_angle_beta   90.00000000
_cell_angle_gamma   90.00000000
_symmetry_Int_Tables_number   1
_chemical_formula_structural   FeOF
_chemical_formula_sum   'Fe12 O12 F12'
_cell_volume   423.22208898
_cell_formula_units_Z   12
loop_
 _symmetry_equiv_pos_site_id
 _symmetry_equiv_pos_as_xyz
  1  'x, y, z'
loop_
 _atom_site_type_symbol
 _atom_site_label
 _atom_site_symmetry_multiplicity
 _atom_site_fract_x
 _atom_site_fract_y
 _atom_site_fract_z
 _atom_site_occupancy
  Fe  Fe0  1  0.00000000  0.99844200  0.98617900  1
  Fe  Fe1  1  0.00000000  0.50099700  0.99314600  1
  Fe  Fe2  1  0.50000000  0.25324700  0.84973100  1
  Fe  Fe3  1  0.50000000  0.78060700  0.82749100  1
  Fe  Fe4  1  0.00000000  0.99438900  0.65931000  1
  Fe  Fe5  1  0.00000000  0.49986400  0.65709800  1
  Fe  Fe6  1  0.50000000  0.75007000  0.51754200  1
  Fe  Fe7  1  0.50000000  0.25133100  0.52152800  1
  Fe  Fe8  1  0.00000000  0.00393400  0.32899300  1
  Fe  Fe9  1  0.00000000  0.49803800  0.32077400  1
  Fe  Fe10  1  0.50000000  0.24601300  0.18116200  1
  Fe  Fe11  1  0.50000000  0.71622900  0.15878600  1
  O  O0  1  0.50000000  0.40637400  0.93459200  1
  O  O1  1  0.50000000  0.90173300  0.93733600  1
  O  O2  1  0.00000000  0.15569000  0.90032200  1
  O  O3  1  0.00000000  0.85576700  0.76404500  1
  O  O4  1  0.50000000  0.40708800  0.60489300  1
  O  O5  1  0.50000000  0.90810100  0.59749100  1
  O  O6  1  0.00000000  0.15219200  0.56578500  1
  O  O7  1  0.00000000  0.65378100  0.56494500  1
  O  O8  1  0.50000000  0.39873300  0.26903400  1
  O  O9  1  0.00000000  0.14465700  0.23618700  1
  O  O10  1  0.00000000  0.65293100  0.23149900  1
  O  O11  1  0.50000000  0.59170500  0.05830100  1
  F  F0  1  0.00000000  0.65871100  0.89034400  1
  F  F1  1  0.00000000  0.35245100  0.76911000  1
  F  F2  1  0.50000000  0.10430100  0.73124800  1
  F  F3  1  0.50000000  0.59770700  0.73266500  1
  F  F4  1  0.00000000  0.34521800  0.43581200  1
  F  F5  1  0.00000000  0.85083800  0.42899000  1
  F  F6  1  0.50000000  0.09118400  0.39878900  1
  F  F7  1  0.50000000  0.59508700  0.39722600  1
  F  F8  1  0.50000000  0.90245200  0.27131900  1
  F  F9  1  0.00000000  0.33589000  0.10528000  1
  F  F10  1  0.00000000  0.84841900  0.10423200  1
  F  F11  1  0.50000000  0.09582600  0.06881500  1
loop_
_geom_bond_atom_site_label_1
_geom_bond_atom_site_label_2
_geom_bond_distance
_geom_bond_site_symmetry_2
Fe0 O2 1.932898 1_565
Fe0 O1 1.936634 1_455
Fe0 O1 1.936634 1_555
Fe1 O0 1.982077 1_455
Fe1 O0 1.982077 1_555
Fe1 O11 2.007296 1_556
Fe1 O11 2.007296 1_456
Fe2 O0 1.913981 1_555
Fe2 O2 1.942189 1_655
Fe2 O2 1.942189 1_555
Fe3 O3 1.927453 1_555
Fe3 O3 1.927453 1_655
Fe3 O1 1.961386 1_555
Fe4 O5 1.967043 1_555
Fe4 O5 1.967043 1_455
Fe4 O3 1.989589 1_555
Fe4 O6 2.007109 1_565
Fe5 O4 1.936878 1_455
Fe5 O4 1.936878 1_555
Fe5 O7 1.966432 1_555
Fe6 O5 1.907312 1_555
Fe6 O7 1.920151 1_555
Fe6 O7 1.920151 1_655
Fe7 O6 1.918347 1_655
Fe7 O6 1.918347 1_555
Fe7 O4 1.920108 1_555
Fe8 O9 1.880704 1_555
Fe9 O10 1.946624 1_555
Fe9 O8 1.964169 1_555
Fe9 O8 1.964169 1_455
Fe10 O8 1.938825 1_555
Fe10 O9 1.983702 1_555
Fe10 O9 1.983702 1_655
Fe11 O11 1.876332 1_555
Fe11 O10 1.954824 1_555
Fe11 O10 1.954824 1_655
F0 Fe1 2.095801 1_555
F0 Fe3 2.130428 1_555
F0 Fe3 2.130428 1_455
F1 Fe5 2.122512 1_555
F1 Fe2 2.143603 1_555
F1 Fe2 2.143603 1_455
F2 Fe4 2.139896 1_545
F2 Fe4 2.139896 1_645
F2 Fe2 2.225567 1_555
F3 Fe5 2.110887 1_655
F3 Fe5 2.110887 1_555
F3 Fe3 2.227492 1_555
F4 Fe7 2.161703 1_555
F4 Fe7 2.161703 1_455
F4 Fe9 2.188869 1_555
F5 Fe8 2.036461 1_565
F5 Fe6 2.212291 1_555
F5 Fe6 2.212291 1_455
F6 Fe8 2.025011 1_555
F6 Fe8 2.025011 1_655
F6 Fe7 2.342404 1_555
F7 Fe9 2.114018 1_555
F7 Fe9 2.114018 1_655
F7 Fe6 2.283449 1_555
F8 Fe8 2.008117 1_565
F8 Fe8 2.008117 1_665
F8 Fe11 2.415176 1_555
F9 Fe10 2.070084 1_455
F9 Fe10 2.070084 1_555
F9 Fe1 2.239092 1_554
F10 Fe11 2.140654 1_555
F10 Fe11 2.140654 1_455
F10 Fe0 2.203609 1_554
F11 Fe0 2.162700 1_644
F11 Fe0 2.162700 1_544
F11 Fe10 2.167162 1_555
