# generated using pymatgen
data_NaCa4Ti4Nb(SiO5)5
_symmetry_space_group_name_H-M   'P 1'
_cell_length_a   5.51448000
_cell_length_b   5.53124527
_cell_length_c   32.86014942
_cell_angle_alpha   91.62706457
_cell_angle_beta   91.53822422
_cell_angle_gamma   105.28628048
_symmetry_Int_Tables_number   1
_chemical_formula_structural   NaCa4Ti4Nb(SiO5)5
_chemical_formula_sum   'Na2 Ca8 Ti8 Nb2 Si10 O50'
_cell_volume   965.83507902
_cell_formula_units_Z   2
loop_
 _symmetry_equiv_pos_site_id
 _symmetry_equiv_pos_as_xyz
  1  'x, y, z'
loop_
 _atom_site_type_symbol
 _atom_site_label
 _atom_site_symmetry_multiplicity
 _atom_site_fract_x
 _atom_site_fract_y
 _atom_site_fract_z
 _atom_site_occupancy
  Na  Na0  1  0.67322100  0.33288400  0.25390000  1
  Na  Na1  1  0.27089600  0.93255400  0.45464300  1
  Ca  Ca0  1  0.07264600  0.72761600  0.04874700  1
  Ca  Ca1  1  0.87029200  0.52678300  0.64983500  1
  Ca  Ca2  1  0.52960300  0.87312100  0.14676600  1
  Ca  Ca3  1  0.47233400  0.12773900  0.84989300  1
  Ca  Ca4  1  0.13214800  0.47067200  0.34624100  1
  Ca  Ca5  1  0.73054000  0.07001700  0.54882200  1
  Ca  Ca6  1  0.32858500  0.67262900  0.74957000  1
  Ca  Ca7  1  0.92921800  0.27391800  0.94909300  1
  Ti  Ti0  1  0.50318100  0.50082400  0.99824900  1
  Ti  Ti1  1  0.30144300  0.30232500  0.09732300  1
  Ti  Ti2  1  0.89611900  0.89347900  0.30093900  1
  Ti  Ti3  1  0.49236600  0.49059000  0.50338200  1
  Ti  Ti4  1  0.29542300  0.29377800  0.60144100  1
  Ti  Ti5  1  0.09725400  0.09907000  0.70030300  1
  Ti  Ti6  1  0.90160300  0.89920300  0.79954500  1
  Ti  Ti7  1  0.70029900  0.70283200  0.89892400  1
  Nb  Nb0  1  0.10326800  0.10967100  0.20034800  1
  Nb  Nb1  1  0.69663400  0.70381900  0.40277300  1
  Si  Si0  1  0.88031200  0.52095800  0.14704500  1
  Si  Si1  1  0.48120100  0.11787500  0.34870600  1
  Si  Si2  1  0.08043100  0.71626300  0.55164300  1
  Si  Si3  1  0.72081100  0.08086600  0.04855800  1
  Si  Si4  1  0.67930000  0.31865700  0.75049300  1
  Si  Si5  1  0.32314000  0.68804600  0.25070900  1
  Si  Si6  1  0.28071800  0.92011100  0.94952300  1
  Si  Si7  1  0.92004300  0.28471000  0.45248600  1
  Si  Si8  1  0.51723500  0.87765300  0.65078000  1
  Si  Si9  1  0.11931900  0.47992300  0.84985200  1
  O  O0  1  0.71397600  0.83826900  0.01787400  1
  O  O1  1  0.14086800  0.56908400  0.12107700  1
  O  O2  1  0.30853400  0.44954600  0.21829900  1
  O  O3  1  0.33105100  0.46771500  0.04858300  1
  O  O4  1  0.64130300  0.51638200  0.11580200  1
  O  O5  1  0.83725000  0.25946000  0.17219300  1
  O  O6  1  0.74834700  0.16342200  0.32501900  1
  O  O7  1  0.90394200  0.04449300  0.42035400  1
  O  O8  1  0.92939200  0.06582500  0.24922900  1
  O  O9  1  0.76684600  0.33753300  0.02188000  1
  O  O10  1  0.24178400  0.11329200  0.31754300  1
  O  O11  1  0.96137400  0.08844900  0.08005500  1
  O  O12  1  0.43490100  0.85597100  0.37419200  1
  O  O13  1  0.27968600  0.13733700  0.14797500  1
  O  O14  1  0.34501100  0.75906400  0.52728500  1
  O  O15  1  0.46234900  0.03513100  0.07507700  1
  O  O16  1  0.50876900  0.63362400  0.62029500  1
  O  O17  1  0.52641300  0.66431000  0.45154000  1
  O  O18  1  0.36293800  0.93456500  0.22155200  1
  O  O19  1  0.83787400  0.70843000  0.52078400  1
  O  O20  1  0.56259500  0.69900800  0.28172000  1
  O  O21  1  0.03219100  0.45929700  0.57877900  1
  O  O22  1  0.87742900  0.73148100  0.34968500  1
  O  O23  1  0.88619400  0.76099900  0.17829700  1
  O  O24  1  0.93710700  0.36372300  0.72384000  1
  O  O25  1  0.06917300  0.64294100  0.27758600  1
  O  O26  1  0.11183600  0.23686000  0.81913500  1
  O  O27  1  0.12846200  0.26541800  0.65124600  1
  O  O28  1  0.95854000  0.53176200  0.42355100  1
  O  O29  1  0.43659100  0.30965000  0.71953100  1
  O  O30  1  0.16103500  0.29679100  0.48326400  1
  O  O31  1  0.63455200  0.06219200  0.77736400  1
  O  O32  1  0.46515100  0.32441300  0.55175800  1
  O  O33  1  0.48430000  0.35855300  0.38001600  1
  O  O34  1  0.53833800  0.96588800  0.92277900  1
  O  O35  1  0.66748500  0.24153800  0.47983500  1
  O  O36  1  0.73111300  0.86729500  0.85010500  1
  O  O37  1  0.56214700  0.13536900  0.62446600  1
  O  O38  1  0.03852800  0.91199400  0.91850100  1
  O  O39  1  0.75928500  0.88564500  0.68203100  1
  O  O40  1  0.23559200  0.66333700  0.97623500  1
  O  O41  1  0.06662000  0.93004200  0.75057300  1
  O  O42  1  0.08508700  0.95879400  0.58275900  1
  O  O43  1  0.25973800  0.83298400  0.67772000  1
  O  O44  1  0.16488300  0.73638900  0.82306100  1
  O  O45  1  0.36074200  0.48775500  0.88109600  1
  O  O46  1  0.66781200  0.53140400  0.94941400  1
  O  O47  1  0.68623400  0.56112500  0.78140100  1
  O  O48  1  0.86157200  0.43503900  0.87660400  1
  O  O49  1  0.28747500  0.16182300  0.98050600  1
loop_
_geom_bond_atom_site_label_1
_geom_bond_atom_site_label_2
_geom_bond_distance
_geom_bond_site_symmetry_2
Na0 O8 2.302222 1_555
Na0 O20 2.425944 1_555
Na0 O25 2.484557 1_655
Na0 O2 2.535771 1_555
Na0 O18 2.587137 1_545
Na0 O6 2.605548 1_555
Na0 O5 2.907576 1_555
Na1 O17 2.301894 1_555
Na1 O30 2.424266 1_565
Na1 O35 2.498140 1_565
Na1 O7 2.515065 1_465
Na1 O28 2.586268 1_455
Na1 O14 2.659004 1_555
Na1 O12 2.872794 1_555
Ca0 O3 2.275370 1_555
Ca0 O0 2.425210 1_455
Ca0 O11 2.445689 1_465
Ca0 O15 2.479764 1_565
Ca0 O9 2.484339 1_455
Ca0 O1 2.608410 1_555
Ca0 O40 2.616609 1_554
Ca1 O27 2.281331 1_655
Ca1 O16 2.411610 1_555
Ca1 O39 2.447501 1_555
Ca1 O37 2.480182 1_555
Ca1 O43 2.491709 1_655
Ca1 O21 2.574173 1_655
Ca1 O24 2.667325 1_555
Ca2 O13 2.257958 1_565
Ca2 O4 2.422552 1_555
Ca2 O23 2.427976 1_555
Ca2 O5 2.460425 1_565
Ca2 O1 2.461178 1_555
Ca2 O15 2.595796 1_565
Ca2 O18 2.690340 1_555
Ca3 O36 2.279416 1_545
Ca3 O26 2.428430 1_555
Ca3 O45 2.441206 1_555
Ca3 O48 2.481363 1_555
Ca3 O44 2.492755 1_545
Ca3 O31 2.616916 1_555
Ca3 O34 2.630008 1_545
Ca4 O22 2.265974 1_455
Ca4 O10 2.391087 1_555
Ca4 O6 2.410565 1_455
Ca4 O33 2.438414 1_555
Ca4 O12 2.470477 1_555
Ca4 O25 2.524408 1_555
Ca4 O28 2.781517 1_455
Ca5 O32 2.284032 1_555
Ca5 O19 2.397525 1_545
Ca5 O14 2.429191 1_545
Ca5 O42 2.449652 1_645
Ca5 O21 2.505094 1_655
Ca5 O35 2.532525 1_555
Ca5 O37 2.724229 1_555
Ca6 O41 2.280271 1_555
Ca6 O29 2.430963 1_555
Ca6 O47 2.435462 1_555
Ca6 O24 2.483893 1_455
Ca6 O31 2.492485 1_565
Ca6 O43 2.598754 1_555
Ca6 O44 2.647208 1_555
Ca7 O46 2.277933 1_555
Ca7 O49 2.434273 1_655
Ca7 O38 2.436390 1_645
Ca7 O34 2.485270 1_545
Ca7 O40 2.486082 1_655
Ca7 O48 2.618292 1_555
Ca7 O9 2.622886 1_556
Nb0 O8 1.881588 1_455
Nb0 O2 1.985576 1_555
Nb0 O13 1.989471 1_555
Nb0 O18 2.046974 1_545
Nb0 O5 2.075059 1_455
Nb0 O23 2.081876 1_445
Nb1 O17 1.867977 1_555
Nb1 O7 1.989544 1_565
Nb1 O22 2.022055 1_555
Nb1 O28 2.041207 1_555
Nb1 O33 2.066444 1_555
Nb1 O12 2.070289 1_555
O0 Si3 1.647151 1_565
O0 Ti0 1.999567 1_554
O1 Si0 1.655456 1_455
O1 Ti1 2.056967 1_555
O2 Si5 1.655471 1_555
O3 Ti1 1.856653 1_555
O3 Ti0 1.918338 1_554
O4 Si0 1.643195 1_555
O4 Ti1 2.002762 1_555
O5 Si0 1.651871 1_555
O6 Si1 1.648195 1_555
O6 Ti2 2.031907 1_545
O7 Si7 1.655676 1_555
O8 Ti2 1.961172 1_545
O9 Si3 1.655612 1_555
O9 Ti0 2.050478 1_554
O10 Si1 1.643363 1_555
O10 Ti2 2.023333 1_445
O11 Si3 1.651446 1_555
O11 Ti1 1.993291 1_655
O12 Si1 1.658463 1_565
O13 Ti1 1.912275 1_555
O14 Si2 1.648262 1_555
O14 Ti3 2.021570 1_555
O15 Si3 1.656467 1_555
O15 Ti1 2.042270 1_555
O16 Si8 1.647744 1_555
O16 Ti4 2.007520 1_555
O17 Ti3 1.968652 1_555
O18 Si5 1.659247 1_555
O19 Si2 1.647232 1_655
O19 Ti3 2.025060 1_555
O20 Si5 1.633329 1_555
O20 Ti2 1.947946 1_555
O21 Si2 1.664763 1_555
O21 Ti4 2.044814 1_555
O22 Ti2 1.849586 1_555
O23 Si0 1.648210 1_555
O24 Si4 1.656121 1_555
O24 Ti5 2.043289 1_655
O25 Si5 1.642658 1_555
O25 Ti2 2.023911 1_455
O26 Si9 1.649088 1_555
O26 Ti6 1.999140 1_445
O27 Ti5 1.868278 1_555
O27 Ti4 1.889466 1_555
O28 Si7 1.657739 1_555
O29 Si4 1.648582 1_555
O29 Ti5 2.000752 1_555
O30 Si7 1.634200 1_455
O30 Ti3 1.945931 1_555
O31 Si4 1.658659 1_555
O31 Ti6 2.047544 1_545
O32 Ti3 1.848621 1_555
O32 Ti4 1.893201 1_555
O33 Si1 1.655395 1_555
O34 Si6 1.656694 1_555
O34 Ti7 2.046287 1_555
O35 Si7 1.645715 1_555
O35 Ti3 2.027310 1_555
O36 Ti7 1.856302 1_555
O36 Ti6 1.920509 1_555
O37 Si8 1.654199 1_545
O37 Ti4 2.039852 1_555
O38 Si6 1.648501 1_555
O38 Ti7 1.996659 1_455
O39 Si8 1.652532 1_555
O39 Ti5 1.991768 1_665
O40 Si6 1.657029 1_555
O40 Ti0 2.046403 1_555
O41 Ti6 1.859876 1_455
O41 Ti5 1.910695 1_565
O42 Si2 1.657791 1_555
O42 Ti4 1.979734 1_565
O43 Si8 1.660098 1_555
O43 Ti5 2.046634 1_565
O44 Si9 1.656916 1_555
O44 Ti6 2.045659 1_455
O45 Si9 1.649865 1_555
O45 Ti7 1.997897 1_555
O46 Ti0 1.854889 1_555
O46 Ti7 1.923425 1_555
O47 Si4 1.650817 1_555
O47 Ti6 1.997619 1_555
O48 Si9 1.657718 1_655
O48 Ti7 2.047148 1_555
O49 Si6 1.649185 1_545
O49 Ti0 1.998864 1_555
