# generated using pymatgen
data_Li3MnV(PO4)3
_symmetry_space_group_name_H-M   'P 1'
_cell_length_a   8.38348500
_cell_length_b   8.41869894
_cell_length_c   9.27458995
_cell_angle_alpha   90.09839179
_cell_angle_beta   116.74923572
_cell_angle_gamma   119.72576208
_symmetry_Int_Tables_number   1
_chemical_formula_structural   Li3MnV(PO4)3
_chemical_formula_sum   'Li6 Mn2 V2 P6 O24'
_cell_volume   485.79812591
_cell_formula_units_Z   2
loop_
 _symmetry_equiv_pos_site_id
 _symmetry_equiv_pos_as_xyz
  1  'x, y, z'
loop_
 _atom_site_type_symbol
 _atom_site_label
 _atom_site_symmetry_multiplicity
 _atom_site_fract_x
 _atom_site_fract_y
 _atom_site_fract_z
 _atom_site_occupancy
  Li  Li0  1  0.60411800  0.67045400  0.86222800  1
  Li  Li1  1  0.96009900  0.26502700  0.90699100  1
  Li  Li2  1  0.79485900  0.26455000  0.59029100  1
  Li  Li3  1  0.80981000  0.07026300  0.14871100  1
  Li  Li4  1  0.05599800  0.73862500  0.11656300  1
  Li  Li5  1  0.39236200  0.32742600  0.13267600  1
  Mn  Mn0  1  0.28547100  0.14041500  0.43838400  1
  Mn  Mn1  1  0.71048200  0.84834400  0.56306200  1
  V  V0  1  0.31164600  0.66298900  0.96091400  1
  V  V1  1  0.68030700  0.34228900  0.03345600  1
  P  P0  1  0.80217200  0.53840500  0.75207900  1
  P  P1  1  0.21363800  0.26471200  0.75742700  1
  P  P2  1  0.50057900  0.95376200  0.75815400  1
  P  P3  1  0.49487000  0.04408900  0.23882800  1
  P  P4  1  0.78924300  0.73949100  0.24392100  1
  P  P5  1  0.19564400  0.46380600  0.24551500  1
  O  O0  1  0.73251900  0.51810800  0.89041700  1
  O  O1  1  0.87465000  0.73949700  0.74142300  1
  O  O2  1  0.99277600  0.50613900  0.82166200  1
  O  O3  1  0.32018400  0.48548200  0.82860300  1
  O  O4  1  0.36910400  0.22188000  0.90441200  1
  O  O5  1  0.67952700  0.15625100  0.90096700  1
  O  O6  1  0.62753600  0.37406000  0.59008200  1
  O  O7  1  0.99214700  0.15904300  0.74322200  1
  O  O8  1  0.20157700  0.22206200  0.59446700  1
  O  O9  1  0.35426800  0.82532200  0.82952600  1
  O  O10  1  0.62772800  0.87096400  0.75924400  1
  O  O11  1  0.37444200  0.97623900  0.59399500  1
  O  O12  1  0.63440400  0.03835100  0.41202200  1
  O  O13  1  0.37590700  0.13387600  0.24204800  1
  O  O14  1  0.64497700  0.16141800  0.16845200  1
  O  O15  1  0.79608700  0.77674300  0.40452100  1
  O  O16  1  0.00391800  0.85700300  0.25086700  1
  O  O17  1  0.38003700  0.61362700  0.40921500  1
  O  O18  1  0.31999500  0.83542000  0.11198800  1
  O  O19  1  0.63465300  0.78513500  0.09870000  1
  O  O20  1  0.69076100  0.51902100  0.17597700  1
  O  O21  1  0.99881100  0.48588000  0.16593800  1
  O  O22  1  0.10942700  0.25478000  0.24747800  1
  O  O23  1  0.26118800  0.47956800  0.10295000  1
loop_
_geom_bond_atom_site_label_1
_geom_bond_atom_site_label_2
_geom_bond_distance
_geom_bond_site_symmetry_2
Li0 O10 1.909264 1_555
Li0 O3 1.960211 1_555
Li0 O0 1.997248 1_555
Li0 O19 2.247207 1_556
Li1 O7 1.943128 1_555
Li1 O5 2.029738 1_555
Li1 O23 2.067532 1_656
Li1 O2 2.114440 1_555
Li2 O12 1.901652 1_555
Li2 O6 2.024285 1_555
Li2 O7 2.210387 1_555
Li2 O2 2.219848 1_555
Li3 O22 1.901545 1_655
Li3 O14 1.952162 1_555
Li3 O19 2.005212 1_545
Li3 O5 2.351010 1_554
Li4 O16 1.911068 1_555
Li4 O18 1.964756 1_555
Li4 O21 2.038712 1_455
Li4 O0 2.252484 1_454
Li5 O13 1.900473 1_555
Li5 O23 2.012714 1_555
Li5 O20 2.028042 1_555
Li5 O4 2.181655 1_554
Mn0 O8 2.110734 1_555
Mn0 O11 2.147041 1_545
Mn0 O6 2.199294 1_555
Mn0 O16 2.234796 1_545
Mn0 O13 2.275404 1_555
Mn0 O22 2.302794 1_555
Mn1 O15 2.101516 1_555
Mn1 O17 2.149059 1_555
Mn1 O1 2.162599 1_555
Mn1 O10 2.257059 1_555
Mn1 O12 2.267836 1_565
Mn1 O7 2.348977 1_565
O0 P0 1.610141 1_555
O0 V1 2.007332 1_556
O1 P0 1.509802 1_555
O2 P0 1.595747 1_555
O2 V0 1.985827 1_655
O3 P1 1.583238 1_555
O3 V0 1.980652 1_555
O4 P1 1.598591 1_555
O4 V1 1.956783 1_556
O5 P2 1.605727 1_545
O5 V1 1.984672 1_556
O6 P0 1.522847 1_555
O7 P1 1.548524 1_655
O8 P1 1.499335 1_555
O9 P2 1.590583 1_555
O9 V0 1.842193 1_555
O10 P2 1.532780 1_555
O11 P2 1.490712 1_555
O12 P3 1.521772 1_555
O13 P3 1.530118 1_555
O14 P3 1.579310 1_555
O14 V1 1.966476 1_555
O15 P4 1.491266 1_555
O16 P4 1.533493 1_455
O17 P5 1.494239 1_555
O18 P3 1.582917 1_565
O18 V0 1.969609 1_554
O19 P4 1.601776 1_555
O19 V0 2.035267 1_554
O20 P4 1.591132 1_555
O20 V1 1.930869 1_555
O21 P5 1.584457 1_655
O21 V1 1.985291 1_555
O22 P5 1.539479 1_555
O23 P5 1.627930 1_555
O23 V0 2.039500 1_554
