# generated using pymatgen
data_Ti2N2O
_symmetry_space_group_name_H-M   'P 1'
_cell_length_a   8.20659400
_cell_length_b   8.21171505
_cell_length_c   8.23203214
_cell_angle_alpha   109.48890628
_cell_angle_beta   109.42581318
_cell_angle_gamma   109.36608263
_symmetry_Int_Tables_number   1
_chemical_formula_structural   Ti2N2O
_chemical_formula_sum   'Ti16 N16 O8'
_cell_volume   427.75162902
_cell_formula_units_Z   8
loop_
 _symmetry_equiv_pos_site_id
 _symmetry_equiv_pos_as_xyz
  1  'x, y, z'
loop_
 _atom_site_type_symbol
 _atom_site_label
 _atom_site_symmetry_multiplicity
 _atom_site_fract_x
 _atom_site_fract_y
 _atom_site_fract_z
 _atom_site_occupancy
  Ti  Ti0  1  0.99708700  0.01132200  0.49917900  1
  Ti  Ti1  1  0.30216500  0.74823000  0.54004300  1
  Ti  Ti2  1  0.94874100  0.69912300  0.73873200  1
  Ti  Ti3  1  0.46686700  0.21502500  0.75394500  1
  Ti  Ti4  1  0.20800000  0.26139400  0.96034100  1
  Ti  Ti5  1  0.74345500  0.95992500  0.70618900  1
  Ti  Ti6  1  0.74991000  0.45098700  0.20830100  1
  Ti  Ti7  1  0.50658700  0.99408200  0.00508300  1
  Ti  Ti8  1  0.24938000  0.53596300  0.79130900  1
  Ti  Ti9  1  0.26066900  0.04892900  0.30224900  1
  Ti  Ti10  1  0.99628900  0.48850000  0.98717500  1
  Ti  Ti11  1  0.50775200  0.51141900  0.51206200  1
  Ti  Ti12  1  0.79043600  0.74814000  0.03915500  1
  Ti  Ti13  1  0.53944200  0.79815300  0.24991800  1
  Ti  Ti14  1  0.03974100  0.28619800  0.25246300  1
  Ti  Ti15  1  0.70660900  0.25070800  0.45756700  1
  N  N0  1  0.99424400  0.04100000  0.26910700  1
  N  N1  1  0.23262300  0.27017300  0.72457700  1
  N  N2  1  0.72521500  0.46134900  0.95475800  1
  N  N3  1  0.96027100  0.45271000  0.72815400  1
  N  N4  1  0.26324100  0.49104600  0.53775300  1
  N  N5  1  0.54495500  0.00900800  0.77317100  1
  N  N6  1  0.73820100  0.51378300  0.45900800  1
  N  N7  1  0.72607400  0.73250300  0.77413000  1
  N  N8  1  0.95302500  0.22697400  0.96099900  1
  N  N9  1  0.27581000  0.53758700  0.05158500  1
  N  N10  1  0.54223100  0.76790500  0.99196300  1
  N  N11  1  0.77206200  0.22398800  0.22860900  1
  N  N12  1  0.44484800  0.98799500  0.22236900  1
  N  N13  1  0.50551700  0.27292800  0.54771400  1
  N  N14  1  0.48625500  0.72457000  0.44770100  1
  N  N15  1  0.77733400  0.04937900  0.50916600  1
  O  O0  1  0.03927000  0.55291700  0.27811800  1
  O  O1  1  0.00843100  0.95512300  0.73130900  1
  O  O2  1  0.22285800  0.94435500  0.48543900  1
  O  O3  1  0.27411100  0.25996600  0.22083600  1
  O  O4  1  0.04908000  0.77542600  0.04092200  1
  O  O5  1  0.45970000  0.23882100  0.01462300  1
  O  O6  1  0.22293800  0.77623600  0.76819500  1
  O  O7  1  0.76857600  0.72615800  0.27608100  1
loop_
_geom_bond_atom_site_label_1
_geom_bond_atom_site_label_2
_geom_bond_distance
_geom_bond_site_symmetry_2
N0 Ti0 1.982267 1_555
N0 Ti14 1.982893 1_655
N0 Ti12 2.086402 1_545
N0 Ti9 2.087138 1_655
N1 Ti0 1.988741 1_455
N1 Ti8 2.008747 1_555
N1 Ti4 2.038962 1_555
N1 Ti3 2.073696 1_555
N2 Ti3 1.978043 1_555
N2 Ti12 2.034781 1_556
N2 Ti6 2.062325 1_556
N2 Ti10 2.075144 1_555
N3 Ti10 1.955844 1_555
N3 Ti2 2.031224 1_555
N3 Ti15 2.051051 1_555
N3 Ti8 2.057550 1_655
N4 Ti1 2.021046 1_555
N4 Ti14 2.040058 1_555
N4 Ti8 2.043963 1_555
N4 Ti11 2.045097 1_555
N5 Ti5 2.001199 1_545
N5 Ti1 2.030599 1_545
N5 Ti3 2.031735 1_555
N5 Ti7 2.071049 1_546
N6 Ti2 1.968550 1_555
N6 Ti6 1.997296 1_555
N6 Ti11 2.073278 1_555
N6 Ti15 2.084141 1_555
N7 Ti11 1.954113 1_555
N7 Ti12 2.014161 1_556
N7 Ti2 2.032805 1_555
N7 Ti5 2.096220 1_555
N8 Ti10 1.979702 1_555
N8 Ti4 2.018587 1_655
N8 Ti5 2.048550 1_545
N8 Ti14 2.087079 1_656
N9 Ti4 1.940615 1_554
N9 Ti10 2.034891 1_454
N9 Ti13 2.043036 1_555
N9 Ti8 2.075536 1_554
N10 Ti7 1.947891 1_556
N10 Ti12 2.015258 1_556
N10 Ti13 2.062912 1_556
N10 Ti8 2.087198 1_555
N11 Ti6 1.986993 1_555
N11 Ti7 1.996052 1_545
N11 Ti14 2.006750 1_655
N11 Ti15 2.089198 1_555
N12 Ti9 1.977503 1_565
N12 Ti13 2.001429 1_555
N12 Ti7 2.025924 1_555
N12 Ti15 2.095296 1_565
N13 Ti9 1.967749 1_555
N13 Ti3 2.001415 1_555
N13 Ti15 2.057033 1_555
N13 Ti11 2.070062 1_555
N14 Ti1 1.938551 1_555
N14 Ti11 2.033939 1_555
N14 Ti13 2.039794 1_555
N14 Ti5 2.069116 1_555
N15 Ti0 1.952439 1_555
N15 Ti15 2.047323 1_555
N15 Ti5 2.051077 1_545
N15 Ti13 2.059540 1_545
O0 Ti6 2.030493 1_455
O0 Ti1 2.044377 1_555
O0 Ti14 2.130540 1_555
O0 Ti10 2.146968 1_454
O1 Ti2 2.021289 1_455
O1 Ti0 2.090877 1_465
O1 Ti5 2.129832 1_455
O1 Ti4 2.147706 1_565
O2 Ti9 2.026442 1_565
O2 Ti1 2.050132 1_555
O2 Ti0 2.126437 1_465
O2 Ti3 2.159101 1_565
O3 Ti4 2.034716 1_554
O3 Ti9 2.040071 1_555
O3 Ti14 2.093805 1_555
O3 Ti11 2.168200 1_555
O4 Ti12 2.053694 1_455
O4 Ti9 2.095766 1_565
O4 Ti10 2.105907 1_454
O4 Ti2 2.124670 1_454
O5 Ti6 2.029397 1_555
O5 Ti4 2.048408 1_554
O5 Ti3 2.111482 1_554
O5 Ti7 2.149623 1_545
O6 Ti2 2.028003 1_455
O6 Ti7 2.076703 1_556
O6 Ti8 2.117362 1_555
O6 Ti1 2.150890 1_555
O7 Ti0 2.073713 1_565
O7 Ti6 2.076782 1_555
O7 Ti12 2.077242 1_555
O7 Ti13 2.117712 1_555
