# generated using pymatgen
data_LiVCrP2(O4F)2
_symmetry_space_group_name_H-M   'P 1'
_cell_length_a   6.88357800
_cell_length_b   7.47945890
_cell_length_c   7.71366603
_cell_angle_alpha   117.05815673
_cell_angle_beta   90.89695422
_cell_angle_gamma   91.25420247
_symmetry_Int_Tables_number   1
_chemical_formula_structural   LiVCrP2(O4F)2
_chemical_formula_sum   'Li2 V2 Cr2 P4 O16 F4'
_cell_volume   353.44140728
_cell_formula_units_Z   2
loop_
 _symmetry_equiv_pos_site_id
 _symmetry_equiv_pos_as_xyz
  1  'x, y, z'
loop_
 _atom_site_type_symbol
 _atom_site_label
 _atom_site_symmetry_multiplicity
 _atom_site_fract_x
 _atom_site_fract_y
 _atom_site_fract_z
 _atom_site_occupancy
  Li  Li0  1  0.84168000  0.41161800  0.22859200  1
  Li  Li1  1  0.15832000  0.58838200  0.77140800  1
  V  V0  1  0.00000000  0.00000000  0.00000000  1
  V  V1  1  0.50000000  0.50000000  0.50000000  1
  Cr  Cr0  1  0.74621000  0.25183200  0.74812200  1
  Cr  Cr1  1  0.25379000  0.74816800  0.25187800  1
  P  P0  1  0.89945100  0.78317300  0.54239900  1
  P  P1  1  0.60332900  0.71845000  0.96330300  1
  P  P2  1  0.39667100  0.28155000  0.03669700  1
  P  P3  1  0.10054900  0.21682700  0.45760100  1
  O  O0  1  0.75255100  0.88730300  0.97362200  1
  O  O1  1  0.78848300  0.96552200  0.57023700  1
  O  O2  1  0.72389800  0.53826400  0.93708800  1
  O  O3  1  0.99513800  0.31974500  0.65216200  1
  O  O4  1  0.75043400  0.60761500  0.51873400  1
  O  O5  1  0.46045600  0.66336400  0.78499200  1
  O  O6  1  0.96213900  0.18222700  0.28262500  1
  O  O7  1  0.50523200  0.18825000  0.84742300  1
  O  O8  1  0.49476800  0.81175000  0.15257700  1
  O  O9  1  0.03786100  0.81777300  0.71737500  1
  O  O10  1  0.53954400  0.33663600  0.21500800  1
  O  O11  1  0.24956600  0.39238500  0.48126600  1
  O  O12  1  0.00486200  0.68025500  0.34783800  1
  O  O13  1  0.27610200  0.46173600  0.06291200  1
  O  O14  1  0.21151700  0.03447800  0.42976300  1
  O  O15  1  0.24744900  0.11269700  0.02637800  1
  F  F0  1  0.89651200  0.22403800  0.96015700  1
  F  F1  1  0.39936500  0.71744600  0.45738700  1
  F  F2  1  0.60063500  0.28255400  0.54261300  1
  F  F3  1  0.10348800  0.77596200  0.03984300  1
loop_
_geom_bond_atom_site_label_1
_geom_bond_atom_site_label_2
_geom_bond_distance
_geom_bond_site_symmetry_2
Li0 O12 2.081432 1_655
Li0 O6 2.122973 1_555
Li0 O10 2.130640 1_555
Li0 O4 2.156811 1_555
Li1 O3 2.081432 1_455
Li1 O9 2.122973 1_555
Li1 O5 2.130640 1_555
Li1 O11 2.156811 1_555
Cr0 F2 1.965109 1_555
Cr0 O7 1.975124 1_555
Cr0 O2 1.979473 1_555
Cr0 O1 1.979828 1_545
Cr0 F0 2.013578 1_555
Cr0 O3 2.021319 1_555
Cr1 F1 1.965109 1_555
Cr1 O8 1.975124 1_555
Cr1 O13 1.979473 1_555
Cr1 O14 1.979828 1_565
Cr1 F3 2.013578 1_555
Cr1 O12 2.021319 1_555
O0 P1 1.582915 1_555
O0 V0 1.850273 1_666
O1 P0 1.507988 1_555
O2 P1 1.533708 1_555
O3 P3 1.542366 1_655
O4 P0 1.589593 1_555
O4 V1 1.861761 1_555
O5 P1 1.566247 1_555
O5 V1 1.997314 1_555
O6 P3 1.558072 1_655
O6 V0 2.002084 1_655
O7 P2 1.518902 1_556
O8 P1 1.518902 1_554
O9 P0 1.558072 1_455
O9 V0 2.002084 1_566
O10 P2 1.566247 1_555
O10 V1 1.997314 1_555
O11 P3 1.589593 1_555
O11 V1 1.861761 1_555
O12 P0 1.542366 1_455
O13 P2 1.533708 1_555
O14 P3 1.507988 1_555
O15 P2 1.582915 1_555
O15 V0 1.850273 1_555
F0 Li0 1.950120 1_556
F0 V0 1.980853 1_656
F1 V1 1.939481 1_555
F2 V1 1.939481 1_555
F3 Li1 1.950120 1_554
F3 V0 1.980853 1_565
