# generated using pymatgen
data_ZnP2H7NO8
_symmetry_space_group_name_H-M   'P 1'
_cell_length_a   13.35839700
_cell_length_b   7.75205500
_cell_length_c   9.47359185
_cell_angle_alpha   55.85893571
_cell_angle_beta   90.00000000
_cell_angle_gamma   90.00000000
_symmetry_Int_Tables_number   1
_chemical_formula_structural   ZnP2H7NO8
_chemical_formula_sum   'Zn4 P8 H28 N4 O32'
_cell_volume   811.96431039
_cell_formula_units_Z   4
loop_
 _symmetry_equiv_pos_site_id
 _symmetry_equiv_pos_as_xyz
  1  'x, y, z'
loop_
 _atom_site_type_symbol
 _atom_site_label
 _atom_site_symmetry_multiplicity
 _atom_site_fract_x
 _atom_site_fract_y
 _atom_site_fract_z
 _atom_site_occupancy
  Zn  Zn0  1  0.00853200  0.84843600  0.25744500  1
  Zn  Zn1  1  0.50853200  0.15156400  0.24255500  1
  Zn  Zn2  1  0.49146800  0.84843600  0.75744500  1
  Zn  Zn3  1  0.99146800  0.15156400  0.74255500  1
  P  P0  1  0.53395800  0.38976800  0.84759400  1
  P  P1  1  0.03395800  0.61023200  0.65240600  1
  P  P2  1  0.83805600  0.13050700  0.01051700  1
  P  P3  1  0.33805600  0.86949300  0.48948300  1
  P  P4  1  0.66194400  0.13050700  0.51051700  1
  P  P5  1  0.16194400  0.86949300  0.98948300  1
  P  P6  1  0.96604200  0.38976800  0.34759400  1
  P  P7  1  0.46604200  0.61023200  0.15240600  1
  H  H0  1  0.76516600  0.65530800  0.38669600  1
  H  H1  1  0.41312600  0.75300200  0.29546600  1
  H  H2  1  0.69432200  0.56990000  0.56074000  1
  H  H3  1  0.30621200  0.31072600  0.96348300  1
  H  H4  1  0.37675900  0.50983200  0.70716100  1
  H  H5  1  0.87675900  0.49016800  0.79283900  1
  H  H6  1  0.80621200  0.68927400  0.53651700  1
  H  H7  1  0.19432200  0.43010000  0.93926000  1
  H  H8  1  0.70666300  0.82874800  0.41396300  1
  H  H9  1  0.67205300  0.08835500  0.04810800  1
  H  H10  1  0.17205300  0.91164500  0.45189200  1
  H  H11  1  0.20666300  0.17125200  0.08603700  1
  H  H12  1  0.73483400  0.65530800  0.88669600  1
  H  H13  1  0.08687400  0.75300200  0.79546600  1
  H  H14  1  0.91312600  0.24699800  0.20453400  1
  H  H15  1  0.26516600  0.34469200  0.11330400  1
  H  H16  1  0.79333700  0.82874800  0.91396300  1
  H  H17  1  0.82794700  0.08835500  0.54810800  1
  H  H18  1  0.32794700  0.91164500  0.95189200  1
  H  H19  1  0.29333700  0.17125200  0.58603700  1
  H  H20  1  0.80567800  0.56990000  0.06074000  1
  H  H21  1  0.19378800  0.31072600  0.46348300  1
  H  H22  1  0.12324100  0.50983200  0.20716100  1
  H  H23  1  0.62324100  0.49016800  0.29283900  1
  H  H24  1  0.69378800  0.68927400  0.03651700  1
  H  H25  1  0.30567800  0.43010000  0.43926000  1
  H  H26  1  0.58687400  0.24699800  0.70453400  1
  H  H27  1  0.23483400  0.34469200  0.61330400  1
  N  N0  1  0.74284100  0.68647400  0.47410100  1
  N  N1  1  0.24284100  0.31352600  0.02589900  1
  N  N2  1  0.75715900  0.68647400  0.97410100  1
  N  N3  1  0.25715900  0.31352600  0.52589900  1
  O  O0  1  0.59316400  0.37448100  0.70968600  1
  O  O1  1  0.06578600  0.39889600  0.68909000  1
  O  O2  1  0.41946200  0.37514600  0.82652500  1
  O  O3  1  0.81646100  0.36566500  0.90409500  1
  O  O4  1  0.11752500  0.94941700  0.09298800  1
  O  O5  1  0.31646100  0.63433500  0.59590500  1
  O  O6  1  0.73639300  0.00567400  0.08708300  1
  O  O7  1  0.91946200  0.62485400  0.67347500  1
  O  O8  1  0.06474900  0.79575800  0.47296500  1
  O  O9  1  0.56578600  0.60110400  0.81091000  1
  O  O10  1  0.40612800  0.92863400  0.33491900  1
  O  O11  1  0.09316400  0.62551900  0.79031400  1
  O  O12  1  0.90612800  0.07136600  0.16508100  1
  O  O13  1  0.56474900  0.20424200  0.02703500  1
  O  O14  1  0.23639300  0.99432600  0.41291700  1
  O  O15  1  0.61752500  0.05058300  0.40701200  1
  O  O16  1  0.38247500  0.94941700  0.59298800  1
  O  O17  1  0.76360700  0.00567400  0.58708300  1
  O  O18  1  0.43525100  0.79575800  0.97296500  1
  O  O19  1  0.09387200  0.92863400  0.83491900  1
  O  O20  1  0.90683600  0.37448100  0.20968600  1
  O  O21  1  0.59387200  0.07136600  0.66508100  1
  O  O22  1  0.43421400  0.39889600  0.18909000  1
  O  O23  1  0.93525100  0.20424200  0.52703500  1
  O  O24  1  0.08053800  0.37514600  0.32652500  1
  O  O25  1  0.26360700  0.99432600  0.91291700  1
  O  O26  1  0.68353900  0.36566500  0.40409500  1
  O  O27  1  0.88247500  0.05058300  0.90701200  1
  O  O28  1  0.18353900  0.63433500  0.09590500  1
  O  O29  1  0.58053800  0.62485400  0.17347500  1
  O  O30  1  0.93421400  0.60110400  0.31091000  1
  O  O31  1  0.40683600  0.62551900  0.29031400  1
loop_
_geom_bond_atom_site_label_1
_geom_bond_atom_site_label_2
_geom_bond_distance
_geom_bond_site_symmetry_2
H0 N0 1.028355 1_555
H1 O31 1.019918 1_555
H1 O10 1.604164 1_555
H2 N0 1.038195 1_555
H3 N1 1.039778 1_556
H4 O2 1.170044 1_555
H4 O5 1.244743 1_555
H5 O7 1.170044 1_555
H5 O3 1.244743 1_555
H6 N0 1.039778 1_555
H7 N1 1.038195 1_556
H8 N0 1.034050 1_555
H9 O6 1.010055 1_555
H9 O13 1.643248 1_555
H10 O14 1.010055 1_555
H10 O8 1.643248 1_555
H11 N1 1.034050 1_555
H12 N2 1.028355 1_555
H13 O11 1.019918 1_555
H13 O19 1.604164 1_555
H14 O20 1.019918 1_555
H14 O12 1.604164 1_555
H15 N1 1.028355 1_555
H16 N2 1.034050 1_555
H17 O17 1.010055 1_555
H17 O23 1.643248 1_555
H18 O25 1.010055 1_555
H18 O18 1.643248 1_555
H19 N3 1.034050 1_555
H20 N2 1.038195 1_554
H21 N3 1.039778 1_555
H22 O24 1.170044 1_555
H22 O28 1.244743 1_555
H23 O29 1.170044 1_555
H23 O26 1.244743 1_555
H24 N2 1.039778 1_554
H25 N3 1.038195 1_555
H26 O0 1.019918 1_555
H26 O21 1.604164 1_555
H27 N3 1.028355 1_555
O0 P0 1.587529 1_555
O1 P1 1.531815 1_555
O1 Zn3 1.956586 1_455
O2 P0 1.554800 1_555
O3 P2 1.536189 1_556
O4 P5 1.542530 1_554
O4 Zn0 1.947056 1_555
O5 P3 1.536189 1_555
O6 P2 1.587143 1_555
O7 P1 1.554800 1_655
O8 P1 1.543750 1_555
O8 Zn0 1.990872 1_555
O9 P0 1.531815 1_555
O9 Zn2 1.956586 1_555
O10 P3 1.558092 1_555
O10 Zn1 1.981450 1_565
O11 P1 1.587529 1_555
O12 P2 1.558092 1_555
O12 Zn0 1.981450 1_645
O13 P0 1.543750 1_554
O13 Zn1 1.990872 1_555
O14 P3 1.587143 1_555
O15 P4 1.542530 1_555
O15 Zn1 1.947056 1_555
O16 P3 1.542530 1_555
O16 Zn2 1.947056 1_555
O17 P4 1.587143 1_555
O18 P7 1.543750 1_556
O18 Zn2 1.990872 1_555
O19 P5 1.558092 1_555
O19 Zn3 1.981450 1_465
O20 P6 1.587529 1_555
O21 P4 1.558092 1_555
O21 Zn2 1.981450 1_545
O22 P7 1.531815 1_555
O22 Zn1 1.956586 1_555
O23 P6 1.543750 1_555
O23 Zn3 1.990872 1_555
O24 P6 1.554800 1_455
O25 P5 1.587143 1_555
O26 P4 1.536189 1_555
O27 P2 1.542530 1_556
O27 Zn3 1.947056 1_555
O28 P5 1.536189 1_554
O29 P7 1.554800 1_555
O30 P6 1.531815 1_555
O30 Zn0 1.956586 1_655
O31 P7 1.587529 1_555
