# generated using pymatgen
data_Mn2OF3
_symmetry_space_group_name_H-M   'P 1'
_cell_length_a   4.87168194
_cell_length_b   4.87168194
_cell_length_c   12.73520100
_cell_angle_alpha   90.00000000
_cell_angle_beta   90.00000000
_cell_angle_gamma   93.41861147
_symmetry_Int_Tables_number   1
_chemical_formula_structural   Mn2OF3
_chemical_formula_sum   'Mn8 O4 F12'
_cell_volume   301.71030678
_cell_formula_units_Z   4
loop_
 _symmetry_equiv_pos_site_id
 _symmetry_equiv_pos_as_xyz
  1  'x, y, z'
loop_
 _atom_site_type_symbol
 _atom_site_label
 _atom_site_symmetry_multiplicity
 _atom_site_fract_x
 _atom_site_fract_y
 _atom_site_fract_z
 _atom_site_occupancy
  Mn  Mn0  1  0.96391900  0.96391900  0.00000000  1
  Mn  Mn1  1  0.02318800  0.02318800  0.24906600  1
  Mn  Mn2  1  0.01622400  0.01622400  0.50000000  1
  Mn  Mn3  1  0.02318800  0.02318800  0.75093400  1
  Mn  Mn4  1  0.48549700  0.48549700  0.62529500  1
  Mn  Mn5  1  0.49540000  0.49540000  0.12485600  1
  Mn  Mn6  1  0.48549700  0.48549700  0.37470500  1
  Mn  Mn7  1  0.49540000  0.49540000  0.87514400  1
  O  O0  1  0.31869700  0.31869700  0.24682000  1
  O  O1  1  0.30697600  0.30697600  0.50000000  1
  O  O2  1  0.31869700  0.31869700  0.75318000  1
  O  O3  1  0.66653600  0.66653600  0.00000000  1
  F  F0  1  0.79419500  0.19588000  0.12520900  1
  F  F1  1  0.81231400  0.20032000  0.37576100  1
  F  F2  1  0.81231400  0.20032000  0.62423900  1
  F  F3  1  0.79419500  0.19588000  0.87479100  1
  F  F4  1  0.27814900  0.27814900  0.00000000  1
  F  F5  1  0.70778100  0.70778100  0.25521300  1
  F  F6  1  0.70165400  0.70165400  0.50000000  1
  F  F7  1  0.70778100  0.70778100  0.74478700  1
  F  F8  1  0.19588000  0.79419500  0.12520900  1
  F  F9  1  0.20032000  0.81231400  0.37576100  1
  F  F10  1  0.20032000  0.81231400  0.62423900  1
  F  F11  1  0.19588000  0.79419500  0.87479100  1
loop_
_geom_bond_atom_site_label_1
_geom_bond_atom_site_label_2
_geom_bond_distance
_geom_bond_site_symmetry_2
Mn0 O3 1.986824 1_555
Mn1 O0 1.974511 1_555
Mn2 O1 1.942522 1_555
Mn3 O2 1.974511 1_555
Mn4 O2 1.973410 1_555
Mn4 O1 1.992150 1_555
Mn5 O0 1.950963 1_555
Mn5 O3 1.958467 1_555
Mn6 O0 1.973410 1_555
Mn6 O1 1.992150 1_555
Mn7 O2 1.950963 1_555
Mn7 O3 1.958467 1_556
F0 Mn5 2.121643 1_555
F0 Mn1 2.133601 1_655
F0 Mn0 2.148190 1_545
F1 Mn2 2.097809 1_655
F1 Mn1 2.123460 1_655
F1 Mn6 2.174638 1_555
F2 Mn2 2.097809 1_655
F2 Mn3 2.123460 1_655
F2 Mn4 2.174638 1_555
F3 Mn7 2.121643 1_555
F3 Mn3 2.133601 1_655
F3 Mn0 2.148190 1_546
F4 Mn0 2.099379 1_445
F4 Mn5 2.152916 1_555
F4 Mn7 2.152916 1_554
F5 Mn1 2.108696 1_665
F5 Mn6 2.126315 1_555
F5 Mn5 2.183884 1_555
F6 Mn2 2.101650 1_665
F6 Mn4 2.152137 1_555
F6 Mn6 2.152137 1_555
F7 Mn3 2.108696 1_665
F7 Mn4 2.126315 1_555
F7 Mn7 2.183884 1_555
F8 Mn5 2.121643 1_555
F8 Mn1 2.133601 1_565
F8 Mn0 2.148190 1_455
F9 Mn2 2.097809 1_565
F9 Mn1 2.123460 1_565
F9 Mn6 2.174638 1_555
F10 Mn2 2.097809 1_565
F10 Mn3 2.123460 1_565
F10 Mn4 2.174638 1_555
F11 Mn7 2.121643 1_555
F11 Mn3 2.133601 1_565
F11 Mn0 2.148190 1_456
