# generated using pymatgen
data_Li4Ti3Cr2Co3O16
_symmetry_space_group_name_H-M   'P 1'
_cell_length_a   5.85483154
_cell_length_b   5.85483154
_cell_length_c   9.57533462
_cell_angle_alpha   89.54772890
_cell_angle_beta   89.54772890
_cell_angle_gamma   60.46115183
_symmetry_Int_Tables_number   1
_chemical_formula_structural   Li4Ti3Cr2Co3O16
_chemical_formula_sum   'Li4 Ti3 Cr2 Co3 O16'
_cell_volume   285.55823349
_cell_formula_units_Z   1
loop_
 _symmetry_equiv_pos_site_id
 _symmetry_equiv_pos_as_xyz
  1  'x, y, z'
loop_
 _atom_site_type_symbol
 _atom_site_label
 _atom_site_symmetry_multiplicity
 _atom_site_fract_x
 _atom_site_fract_y
 _atom_site_fract_z
 _atom_site_occupancy
  Li  Li0  1  0.33074200  0.33074200  0.89041600  1
  Li  Li1  1  0.01097700  0.01097700  0.99412600  1
  Li  Li2  1  0.00666100  0.00666100  0.49838400  1
  Li  Li3  1  0.66371200  0.66371200  0.39674900  1
  Ti  Ti0  1  0.16538500  0.66153500  0.21448700  1
  Ti  Ti1  1  0.66153500  0.16538500  0.21448700  1
  Ti  Ti2  1  0.82796900  0.82796900  0.71681700  1
  Cr  Cr0  1  0.33230200  0.33230200  0.48546100  1
  Cr  Cr1  1  0.66414600  0.66414600  0.98246400  1
  Co  Co0  1  0.16926300  0.16926300  0.21200700  1
  Co  Co1  1  0.33623600  0.82762100  0.70936900  1
  Co  Co2  1  0.82762100  0.33623600  0.70936900  1
  O  O0  1  0.16124400  0.67066300  0.60092600  1
  O  O1  1  0.48014400  0.48014400  0.33693400  1
  O  O2  1  0.33253500  0.33253500  0.10538600  1
  O  O3  1  0.00392000  0.00392000  0.31041300  1
  O  O4  1  0.00139500  0.00139500  0.80777100  1
  O  O5  1  0.67066300  0.16124400  0.60092600  1
  O  O6  1  0.03856700  0.48454000  0.34194300  1
  O  O7  1  0.48454000  0.03856700  0.34194300  1
  O  O8  1  0.83515700  0.83515700  0.10476300  1
  O  O9  1  0.16696600  0.16696600  0.60621700  1
  O  O10  1  0.52424000  0.96155200  0.84148800  1
  O  O11  1  0.96155200  0.52424000  0.84148800  1
  O  O12  1  0.66938600  0.66938600  0.60148100  1
  O  O13  1  0.32848200  0.82892900  0.10292300  1
  O  O14  1  0.51895000  0.51895000  0.83652400  1
  O  O15  1  0.82892900  0.32848200  0.10292300  1
loop_
_geom_bond_atom_site_label_1
_geom_bond_atom_site_label_2
_geom_bond_distance
_geom_bond_site_symmetry_2
Li0 O11 1.941197 1_455
Li0 O10 1.941197 1_545
Li0 O14 1.968272 1_555
Li0 O2 2.058655 1_556
Li1 O4 1.787927 1_555
Li1 O15 1.932964 1_456
Li1 O13 1.932964 1_546
Li1 O8 2.062046 1_446
Li2 O3 1.800352 1_555
Li2 O9 1.930570 1_555
Li2 O5 1.970051 1_455
Li2 O0 1.970051 1_545
Li3 O1 1.948503 1_555
Li3 O12 1.961742 1_555
Li3 O6 1.978127 1_655
Li3 O7 1.978127 1_565
Cr0 O9 2.024772 1_555
Cr0 O7 2.036443 1_555
Cr0 O6 2.036443 1_555
Cr0 O5 2.052008 1_555
Cr0 O0 2.052008 1_555
Cr0 O1 2.054517 1_555
Cr1 O11 2.024632 1_555
Cr1 O10 2.024632 1_555
Cr1 O14 2.036714 1_555
Cr1 O15 2.058077 1_556
Cr1 O13 2.058077 1_556
Cr1 O8 2.098054 1_556
Co0 O3 1.912426 1_555
Co0 O2 1.933940 1_555
Co0 O13 2.028891 1_545
Co0 O15 2.028891 1_455
Co0 O6 2.041892 1_555
Co0 O7 2.041892 1_555
Co1 O4 1.945640 1_565
Co1 O12 1.982826 1_555
Co1 O0 1.983090 1_555
Co1 O9 1.986989 1_565
Co1 O14 1.993088 1_555
Co1 O10 2.077413 1_555
Co2 O4 1.945640 1_655
Co2 O12 1.982826 1_555
Co2 O5 1.983090 1_555
Co2 O9 1.986989 1_655
Co2 O14 1.993088 1_555
Co2 O11 2.077413 1_555
O0 Ti2 2.024119 1_455
O1 Ti0 1.995834 1_555
O1 Ti1 1.995834 1_555
O2 Ti0 1.978980 1_555
O2 Ti1 1.978980 1_555
O3 Ti0 1.975501 1_545
O3 Ti1 1.975501 1_455
O4 Ti2 1.965960 1_445
O5 Ti2 2.024119 1_545
O6 Ti0 1.959347 1_555
O7 Ti1 1.959347 1_555
O8 Ti0 1.988119 1_655
O8 Ti1 1.988119 1_565
O10 Ti2 1.951643 1_555
O11 Ti2 1.951643 1_555
O12 Ti2 1.956066 1_555
O13 Ti0 1.975782 1_555
O15 Ti1 1.975782 1_555
