# generated using pymatgen
data_Ca4Al6O13
_symmetry_space_group_name_H-M   'P 1'
_cell_length_a   7.62453872
_cell_length_b   7.62453872
_cell_length_c   7.62453872
_cell_angle_alpha   109.47122063
_cell_angle_beta   109.47122063
_cell_angle_gamma   109.47122063
_symmetry_Int_Tables_number   1
_chemical_formula_structural   Ca4Al6O13
_chemical_formula_sum   'Ca4 Al6 O13'
_cell_volume   341.20770630
_cell_formula_units_Z   1
loop_
 _symmetry_equiv_pos_site_id
 _symmetry_equiv_pos_as_xyz
  1  'x, y, z'
loop_
 _atom_site_type_symbol
 _atom_site_label
 _atom_site_symmetry_multiplicity
 _atom_site_fract_x
 _atom_site_fract_y
 _atom_site_fract_z
 _atom_site_occupancy
  Ca  Ca0  1  -0.00000000  0.69190836  -0.00000000  1
  Ca  Ca1  1  0.69190836  0.00000000  0.00000000  1
  Ca  Ca2  1  -0.00000000  -0.00000000  0.69190836  1
  Ca  Ca3  1  0.30809164  0.30809164  0.30809164  1
  Al  Al0  1  0.75000000  0.25000000  0.50000000  1
  Al  Al1  1  0.75000000  0.50000000  0.25000000  1
  Al  Al2  1  0.25000000  0.50000000  0.75000000  1
  Al  Al3  1  0.50000000  0.75000000  0.25000000  1
  Al  Al4  1  0.50000000  0.25000000  0.75000000  1
  Al  Al5  1  0.25000000  0.75000000  0.50000000  1
  O  O0  1  0.00000000  -0.00000000  0.00000000  1
  O  O1  1  0.55084105  0.27980600  0.55084105  1
  O  O2  1  0.72019400  0.27103505  0.27103505  1
  O  O3  1  0.27103505  0.27103505  0.72019400  1
  O  O4  1  0.72896495  0.44915895  -0.00000000  1
  O  O5  1  0.00000000  0.44915895  0.72896495  1
  O  O6  1  -0.00000000  0.72896495  0.44915895  1
  O  O7  1  0.27980600  0.55084105  0.55084105  1
  O  O8  1  0.55084105  0.55084105  0.27980600  1
  O  O9  1  0.44915895  0.72896495  -0.00000000  1
  O  O10  1  0.27103505  0.72019400  0.27103505  1
  O  O11  1  0.44915895  -0.00000000  0.72896495  1
  O  O12  1  0.72896495  -0.00000000  0.44915895  1
loop_
_geom_bond_atom_site_label_1
_geom_bond_atom_site_label_2
_geom_bond_distance
_geom_bond_site_symmetry_2
Ca0 O4 2.268539 1_455
Ca0 O5 2.268539 1_554
Ca0 O10 2.268539 1_555
Ca0 O0 2.349057 1_565
Ca1 O11 2.268539 1_554
Ca1 O9 2.268539 1_545
Ca1 O2 2.268539 1_555
Ca1 O0 2.349057 1_655
Ca2 O6 2.268539 1_545
Ca2 O12 2.268539 1_455
Ca2 O3 2.268539 1_555
Ca2 O0 2.349057 1_556
Ca3 O1 2.268539 1_555
Ca3 O8 2.268539 1_555
Ca3 O7 2.268539 1_555
Ca3 O0 2.349057 1_555
Al0 O1 1.752566 1_555
Al0 O5 1.752566 1_655
Al0 O2 1.752566 1_555
Al0 O12 1.752566 1_555
Al1 O8 1.752566 1_555
Al1 O4 1.752566 1_555
Al1 O2 1.752566 1_555
Al1 O6 1.752566 1_655
Al2 O7 1.752566 1_555
Al2 O3 1.752566 1_555
Al2 O9 1.752566 1_556
Al2 O5 1.752566 1_555
Al3 O8 1.752566 1_555
Al3 O10 1.752566 1_555
Al3 O9 1.752566 1_555
Al3 O12 1.752566 1_565
Al4 O1 1.752566 1_555
Al4 O3 1.752566 1_555
Al4 O11 1.752566 1_555
Al4 O4 1.752566 1_556
Al5 O7 1.752566 1_555
Al5 O10 1.752566 1_555
Al5 O6 1.752566 1_555
Al5 O11 1.752566 1_565
