# generated using pymatgen
data_Mn4Si4O13
_symmetry_space_group_name_H-M   'P 1'
_cell_length_a   7.10362400
_cell_length_b   7.81232387
_cell_length_c   10.07163977
_cell_angle_alpha   67.41389581
_cell_angle_beta   84.13943994
_cell_angle_gamma   81.33150525
_symmetry_Int_Tables_number   1
_chemical_formula_structural   Mn4Si4O13
_chemical_formula_sum   'Mn8 Si8 O26'
_cell_volume   509.57132979
_cell_formula_units_Z   2
loop_
 _symmetry_equiv_pos_site_id
 _symmetry_equiv_pos_as_xyz
  1  'x, y, z'
loop_
 _atom_site_type_symbol
 _atom_site_label
 _atom_site_symmetry_multiplicity
 _atom_site_fract_x
 _atom_site_fract_y
 _atom_site_fract_z
 _atom_site_occupancy
  Mn  Mn0  1  0.06112000  0.19810700  0.00282700  1
  Mn  Mn1  1  0.56270200  0.20261800  0.99210800  1
  Mn  Mn2  1  0.57009200  0.55989600  0.62140900  1
  Mn  Mn3  1  0.05130200  0.57400200  0.62039800  1
  Mn  Mn4  1  0.94869800  0.42599800  0.37960200  1
  Mn  Mn5  1  0.42990800  0.44010400  0.37859100  1
  Mn  Mn6  1  0.43729800  0.79738200  0.00789200  1
  Mn  Mn7  1  0.93888000  0.80189300  0.99717300  1
  Si  Si0  1  0.27300700  0.57838300  0.82726100  1
  Si  Si1  1  0.71947100  0.86272800  0.71419500  1
  Si  Si2  1  0.38852000  0.14086600  0.70960800  1
  Si  Si3  1  0.94056000  0.16547800  0.71063500  1
  Si  Si4  1  0.05944000  0.83452200  0.28936500  1
  Si  Si5  1  0.61148000  0.85913400  0.29039200  1
  Si  Si6  1  0.28052900  0.13727200  0.28580500  1
  Si  Si7  1  0.72699300  0.42161700  0.17273900  1
  O  O0  1  0.41335200  0.09085500  0.88134900  1
  O  O1  1  0.88531400  0.11240400  0.88320600  1
  O  O2  1  0.23008500  0.70980000  0.92152600  1
  O  O3  1  0.49287900  0.46267500  0.84045100  1
  O  O4  1  0.10022900  0.44667800  0.84037500  1
  O  O5  1  0.72359600  0.77224800  0.89054400  1
  O  O6  1  0.87604300  0.38455400  0.60372400  1
  O  O7  1  0.44623300  0.34536300  0.60028500  1
  O  O8  1  0.26774900  0.68810500  0.64965600  1
  O  O9  1  0.77303100  0.71256000  0.63668400  1
  O  O10  1  0.16866600  0.13796300  0.68742300  1
  O  O11  1  0.50494700  0.96948900  0.66847500  1
  O  O12  1  0.86508000  0.02329700  0.65167400  1
  O  O13  1  0.13492000  0.97670300  0.34832600  1
  O  O14  1  0.49505300  0.03051100  0.33152500  1
  O  O15  1  0.83133400  0.86203700  0.31257700  1
  O  O16  1  0.22696900  0.28744000  0.36331600  1
  O  O17  1  0.73225100  0.31189500  0.35034400  1
  O  O18  1  0.55376700  0.65463700  0.39971500  1
  O  O19  1  0.12395700  0.61544600  0.39627600  1
  O  O20  1  0.27640400  0.22775200  0.10945600  1
  O  O21  1  0.89977100  0.55332200  0.15962500  1
  O  O22  1  0.50712100  0.53732500  0.15954900  1
  O  O23  1  0.76991500  0.29020000  0.07847400  1
  O  O24  1  0.11468600  0.88759600  0.11679400  1
  O  O25  1  0.58664800  0.90914500  0.11865100  1
loop_
_geom_bond_atom_site_label_1
_geom_bond_atom_site_label_2
_geom_bond_distance
_geom_bond_site_symmetry_2
Mn0 O4 2.038241 1_554
Mn0 O20 2.044240 1_555
Mn0 O1 2.153685 1_454
Mn0 O24 2.240311 1_545
Mn0 O23 2.242283 1_455
Mn1 O3 2.043017 1_555
Mn1 O0 2.097950 1_555
Mn1 O23 2.100881 1_556
Mn1 O25 2.142882 1_546
Mn1 O20 2.266845 1_556
Mn1 O1 2.558378 1_555
Mn2 O9 2.056411 1_555
Mn2 O18 2.074686 1_555
Mn2 O3 2.082312 1_555
Mn2 O7 2.094041 1_555
Mn2 O8 2.267724 1_555
Mn2 O6 2.417149 1_555
Mn3 O8 1.988209 1_555
Mn3 O4 2.092609 1_555
Mn3 O9 2.128680 1_455
Mn3 O6 2.134874 1_455
Mn3 O19 2.171995 1_555
Mn4 O17 1.988209 1_555
Mn4 O21 2.092609 1_555
Mn4 O16 2.128680 1_655
Mn4 O19 2.134874 1_655
Mn4 O6 2.171995 1_555
Mn5 O16 2.056411 1_555
Mn5 O7 2.074686 1_555
Mn5 O22 2.082312 1_555
Mn5 O18 2.094041 1_555
Mn5 O17 2.267724 1_555
Mn5 O19 2.417149 1_555
Mn6 O22 2.043017 1_555
Mn6 O25 2.097950 1_555
Mn6 O2 2.100881 1_554
Mn6 O0 2.142882 1_564
Mn6 O5 2.266845 1_554
Mn6 O24 2.558378 1_555
Mn7 O21 2.038241 1_556
Mn7 O5 2.044240 1_555
Mn7 O24 2.153685 1_656
Mn7 O1 2.240311 1_565
Mn7 O2 2.242283 1_655
O0 Si2 1.642588 1_555
O1 Si3 1.644085 1_555
O2 Si0 1.625928 1_555
O3 Si0 1.672964 1_555
O4 Si0 1.680977 1_555
O5 Si1 1.641685 1_555
O6 Si3 1.657535 1_555
O7 Si2 1.639138 1_555
O8 Si0 1.661946 1_555
O9 Si1 1.624437 1_555
O10 Si2 1.604795 1_555
O10 Si3 1.607090 1_455
O11 Si2 1.634159 1_565
O11 Si1 1.641678 1_555
O12 Si3 1.620231 1_555
O12 Si1 1.640520 1_545
O13 Si4 1.620231 1_555
O13 Si6 1.640520 1_565
O14 Si5 1.634159 1_545
O14 Si6 1.641678 1_555
O15 Si5 1.604795 1_555
O15 Si4 1.607090 1_655
O16 Si6 1.624437 1_555
O17 Si7 1.661946 1_555
O18 Si5 1.639138 1_555
O19 Si4 1.657535 1_555
O20 Si6 1.641685 1_555
O21 Si7 1.680977 1_555
O22 Si7 1.672964 1_555
O23 Si7 1.625928 1_555
O24 Si4 1.644085 1_555
O25 Si5 1.642588 1_555
