# generated using pymatgen
data_Gd2W2O9
_symmetry_space_group_name_H-M   'P 1'
_cell_length_a   9.82959900
_cell_length_b   7.71717100
_cell_length_c   9.28450047
_cell_angle_alpha   71.85247220
_cell_angle_beta   90.00000000
_cell_angle_gamma   90.00000000
_symmetry_Int_Tables_number   1
_chemical_formula_structural   Gd2W2O9
_chemical_formula_sum   'Gd8 W8 O36'
_cell_volume   669.25844742
_cell_formula_units_Z   4
loop_
 _symmetry_equiv_pos_site_id
 _symmetry_equiv_pos_as_xyz
  1  'x, y, z'
loop_
 _atom_site_type_symbol
 _atom_site_label
 _atom_site_symmetry_multiplicity
 _atom_site_fract_x
 _atom_site_fract_y
 _atom_site_fract_z
 _atom_site_occupancy
  Gd  Gd0  1  0.05595500  0.77311200  0.65436300  1
  Gd  Gd1  1  0.45001100  0.71108200  0.57092300  1
  Gd  Gd2  1  0.44404500  0.77311200  0.15436300  1
  Gd  Gd3  1  0.04998900  0.71108200  0.07092300  1
  Gd  Gd4  1  0.95001100  0.28891800  0.92907700  1
  Gd  Gd5  1  0.55595500  0.22688800  0.84563700  1
  Gd  Gd6  1  0.54998900  0.28891800  0.42907700  1
  Gd  Gd7  1  0.94404500  0.22688800  0.34563700  1
  W  W0  1  0.74852300  0.92905300  0.73724200  1
  W  W1  1  0.75147700  0.92905300  0.23724200  1
  W  W2  1  0.27248500  0.42559000  0.96390800  1
  W  W3  1  0.77248500  0.57441000  0.53609200  1
  W  W4  1  0.22751500  0.42559000  0.46390800  1
  W  W5  1  0.72751500  0.57441000  0.03609200  1
  W  W6  1  0.24852300  0.07094700  0.76275800  1
  W  W7  1  0.25147700  0.07094700  0.26275800  1
  O  O0  1  0.38404300  0.99409500  0.90629300  1
  O  O1  1  0.08865300  0.94313000  0.84934300  1
  O  O2  1  0.28168200  0.89544000  0.66438300  1
  O  O3  1  0.11595700  0.99409500  0.40629300  1
  O  O4  1  0.41134700  0.94313000  0.34934300  1
  O  O5  1  0.61850400  0.77294100  0.91976300  1
  O  O6  1  0.86484800  0.73169000  0.86100400  1
  O  O7  1  0.21831800  0.89544000  0.16438300  1
  O  O8  1  0.68208800  0.74144000  0.63899800  1
  O  O9  1  0.88149600  0.77294100  0.41976300  1
  O  O10  1  0.10295300  0.55877900  0.89078800  1
  O  O11  1  0.63515200  0.73169000  0.36100400  1
  O  O12  1  0.40615400  0.50403000  0.81807500  1
  O  O13  1  0.81791200  0.74144000  0.13899800  1
  O  O14  1  0.20448300  0.59670200  0.56702400  1
  O  O15  1  0.70448300  0.40329800  0.93297600  1
  O  O16  1  0.90615400  0.49597000  0.68192500  1
  O  O17  1  0.39704700  0.55877900  0.39078800  1
  O  O18  1  0.60295300  0.44122100  0.60921200  1
  O  O19  1  0.09384600  0.50403000  0.31807500  1
  O  O20  1  0.29551700  0.59670200  0.06702400  1
  O  O21  1  0.79551700  0.40329800  0.43297600  1
  O  O22  1  0.18208800  0.25856000  0.86100200  1
  O  O23  1  0.59384600  0.49597000  0.18192500  1
  O  O24  1  0.36484800  0.26831000  0.63899600  1
  O  O25  1  0.89704700  0.44122100  0.10921200  1
  O  O26  1  0.11850400  0.22705900  0.58023700  1
  O  O27  1  0.31791200  0.25856000  0.36100200  1
  O  O28  1  0.78168200  0.10456000  0.83561700  1
  O  O29  1  0.13515200  0.26831000  0.13899600  1
  O  O30  1  0.38149600  0.22705900  0.08023700  1
  O  O31  1  0.58865300  0.05687000  0.65065700  1
  O  O32  1  0.88404300  0.00590500  0.59370700  1
  O  O33  1  0.71831800  0.10456000  0.33561700  1
  O  O34  1  0.91134700  0.05687000  0.15065700  1
  O  O35  1  0.61595700  0.00590500  0.09370700  1
loop_
_geom_bond_atom_site_label_1
_geom_bond_atom_site_label_2
_geom_bond_distance
_geom_bond_site_symmetry_2
Gd0 O14 2.308706 1_555
Gd0 O10 2.346482 1_555
Gd0 O32 2.402052 1_465
Gd0 O2 2.424386 1_555
Gd0 O3 2.472678 1_555
Gd0 O16 2.543034 1_455
Gd0 O1 2.565452 1_555
Gd0 O6 2.632451 1_455
Gd0 O9 2.772518 1_455
Gd1 O4 2.299708 1_555
Gd1 O17 2.382043 1_555
Gd1 O12 2.391765 1_555
Gd1 O8 2.398038 1_555
Gd1 O18 2.502470 1_555
Gd1 O2 2.506760 1_555
Gd1 O14 2.573919 1_555
Gd1 O11 2.634897 1_555
Gd2 O20 2.308706 1_555
Gd2 O17 2.346482 1_555
Gd2 O35 2.402052 1_565
Gd2 O7 2.424386 1_555
Gd2 O0 2.472678 1_554
Gd2 O23 2.543034 1_555
Gd2 O4 2.565452 1_555
Gd2 O11 2.632451 1_555
Gd2 O5 2.772518 1_554
Gd3 O1 2.299708 1_554
Gd3 O10 2.382043 1_554
Gd3 O19 2.391765 1_555
Gd3 O13 2.398038 1_455
Gd3 O25 2.502470 1_455
Gd3 O7 2.506760 1_555
Gd3 O20 2.573919 1_555
Gd3 O6 2.634897 1_454
Gd4 O34 2.299708 1_556
Gd4 O25 2.382043 1_556
Gd4 O16 2.391765 1_555
Gd4 O22 2.398038 1_655
Gd4 O10 2.502470 1_655
Gd4 O28 2.506760 1_555
Gd4 O15 2.573919 1_555
Gd4 O29 2.634897 1_656
Gd5 O15 2.308706 1_555
Gd5 O18 2.346482 1_555
Gd5 O0 2.402052 1_545
Gd5 O28 2.424386 1_555
Gd5 O35 2.472678 1_556
Gd5 O12 2.543034 1_555
Gd5 O31 2.565452 1_555
Gd5 O24 2.632451 1_555
Gd5 O30 2.772518 1_556
Gd6 O31 2.299708 1_555
Gd6 O18 2.382043 1_555
Gd6 O23 2.391765 1_555
Gd6 O27 2.398038 1_555
Gd6 O17 2.502470 1_555
Gd6 O33 2.506760 1_555
Gd6 O21 2.573919 1_555
Gd6 O24 2.634897 1_555
Gd7 O21 2.308706 1_555
Gd7 O25 2.346482 1_555
Gd7 O3 2.402052 1_645
Gd7 O33 2.424386 1_555
Gd7 O32 2.472678 1_555
Gd7 O19 2.543034 1_655
Gd7 O34 2.565452 1_555
Gd7 O29 2.632451 1_655
Gd7 O26 2.772518 1_655
O0 W6 1.846583 1_565
O1 W6 1.895979 1_565
O2 W6 1.882957 1_565
O3 W7 1.846583 1_565
O4 W7 1.895979 1_565
O5 W5 1.905581 1_556
O5 W0 2.164427 1_555
O6 W0 1.964017 1_555
O6 W5 2.170025 1_556
O7 W7 1.882957 1_565
O8 W3 2.032507 1_555
O8 W0 2.043862 1_555
O9 W3 1.905581 1_555
O9 W1 2.164427 1_555
O10 W2 1.964603 1_555
O11 W1 1.964017 1_555
O11 W3 2.170025 1_555
O12 W2 1.848111 1_555
O13 W5 2.032507 1_555
O13 W1 2.043862 1_555
O14 W4 1.870581 1_555
O15 W5 1.870581 1_556
O16 W3 1.848111 1_555
O17 W4 1.964603 1_555
O18 W3 1.964603 1_555
O19 W4 1.848111 1_555
O20 W2 1.870581 1_554
O21 W3 1.870581 1_555
O22 W2 2.032507 1_555
O22 W6 2.043862 1_555
O23 W5 1.848111 1_555
O24 W6 1.964017 1_555
O24 W4 2.170025 1_555
O25 W5 1.964603 1_555
O26 W4 1.905581 1_555
O26 W6 2.164427 1_555
O27 W4 2.032507 1_555
O27 W7 2.043862 1_555
O28 W0 1.882957 1_545
O29 W7 1.964017 1_555
O29 W2 2.170025 1_554
O30 W2 1.905581 1_554
O30 W7 2.164427 1_555
O31 W0 1.895979 1_545
O32 W0 1.846583 1_545
O33 W1 1.882957 1_545
O34 W1 1.895979 1_545
O35 W1 1.846583 1_545
