# generated using pymatgen
data_Li2FeO2
_symmetry_space_group_name_H-M   'P 1'
_cell_length_a   3.12975515
_cell_length_b   7.59899452
_cell_length_c   7.79802320
_cell_angle_alpha   93.85257738
_cell_angle_beta   90.14361461
_cell_angle_gamma   89.50932755
_symmetry_Int_Tables_number   1
_chemical_formula_structural   Li2FeO2
_chemical_formula_sum   'Li8 Fe4 O8'
_cell_volume   185.03409608
_cell_formula_units_Z   4
loop_
 _symmetry_equiv_pos_site_id
 _symmetry_equiv_pos_as_xyz
  1  'x, y, z'
loop_
 _atom_site_type_symbol
 _atom_site_label
 _atom_site_symmetry_multiplicity
 _atom_site_fract_x
 _atom_site_fract_y
 _atom_site_fract_z
 _atom_site_occupancy
  Li  Li0  1  0.99981000  0.64881400  0.98340000  1
  Li  Li1  1  0.50118800  0.40139300  0.23362700  1
  Li  Li2  1  0.50018800  0.89991500  0.73500000  1
  Li  Li3  1  0.00161400  0.15324400  0.48527500  1
  Li  Li4  1  0.50029400  0.60118500  0.76659800  1
  Li  Li5  1  0.99986600  0.35008900  0.01500300  1
  Li  Li6  1  0.99888900  0.84860500  0.51637300  1
  Li  Li7  1  0.49847900  0.09675300  0.26472900  1
  Fe  Fe0  1  0.00023800  0.50042500  0.49976800  1
  Fe  Fe1  1  0.49982600  0.74956500  0.25021900  1
  Fe  Fe2  1  0.50013600  0.24978400  0.75036500  1
  Fe  Fe3  1  0.99993800  0.00023300  0.99963900  1
  O  O0  1  0.00576300  0.45125400  0.79238700  1
  O  O1  1  0.50481800  0.20211900  0.04230200  1
  O  O2  1  0.50135900  0.69832200  0.54240000  1
  O  O3  1  0.00076600  0.94866800  0.29183300  1
  O  O4  1  0.49436400  0.79874500  0.95761600  1
  O  O5  1  0.99871500  0.55167500  0.20759900  1
  O  O6  1  0.99520700  0.04788300  0.70770100  1
  O  O7  1  0.49933600  0.30133100  0.45816800  1
loop_
_geom_bond_atom_site_label_1
_geom_bond_atom_site_label_2
_geom_bond_distance
_geom_bond_site_symmetry_2
Li0 O5 1.942928 1_556
Li0 O4 1.948544 1_655
Li0 O4 1.959409 1_555
Li0 O0 2.042540 1_655
Li1 O5 1.953780 1_455
Li1 O7 1.955288 1_555
Li1 O5 1.957858 1_555
Li1 O1 2.053122 1_555
Li2 O6 1.942565 1_565
Li2 O4 1.945426 1_555
Li2 O6 1.951289 1_465
Li2 O2 2.072004 1_555
Li3 O7 1.944792 1_455
Li3 O7 1.949674 1_555
Li3 O6 1.958804 1_455
Li3 O3 2.092151 1_545
Li4 O2 1.942913 1_555
Li4 O0 1.948492 1_555
Li4 O0 1.959473 1_655
Li4 O4 2.042566 1_555
Li5 O1 1.942647 1_555
Li5 O0 1.945413 1_654
Li5 O1 1.951224 1_655
Li5 O5 2.071947 1_555
Li6 O2 1.953775 1_655
Li6 O3 1.955285 1_655
Li6 O2 1.957869 1_555
Li6 O6 2.053159 1_565
Li7 O3 1.944803 1_645
Li7 O3 1.949639 1_545
Li7 O1 1.958826 1_555
Li7 O7 2.092146 1_555
Fe0 O2 2.169117 1_455
Fe0 O7 2.174918 1_555
Fe0 O2 2.191444 1_555
Fe0 O7 2.196349 1_455
Fe0 O0 2.336882 1_555
Fe0 O5 2.337023 1_455
Fe1 O5 2.169093 1_555
Fe1 O3 2.174891 1_555
Fe1 O5 2.191375 1_455
Fe1 O3 2.196493 1_655
Fe1 O4 2.336773 1_554
Fe1 O2 2.337103 1_555
Fe2 O0 2.177116 1_555
Fe2 O6 2.181437 1_555
Fe2 O0 2.219684 1_655
Fe2 O6 2.220868 1_455
Fe2 O1 2.329067 1_556
Fe2 O7 2.337768 1_555
Fe3 O4 2.177328 1_645
Fe3 O1 2.181466 1_556
Fe3 O4 2.219660 1_545
Fe3 O1 2.220679 1_656
Fe3 O6 2.329049 1_555
Fe3 O3 2.337777 1_646
