# generated using pymatgen
data_Li2Cu2F7
_symmetry_space_group_name_H-M   'P 1'
_cell_length_a   5.33376600
_cell_length_b   6.44568961
_cell_length_c   8.70513153
_cell_angle_alpha   72.42241618
_cell_angle_beta   74.16912311
_cell_angle_gamma   84.70314357
_symmetry_Int_Tables_number   1
_chemical_formula_structural   Li2Cu2F7
_chemical_formula_sum   'Li4 Cu4 F14'
_cell_volume   274.46946944
_cell_formula_units_Z   2
loop_
 _symmetry_equiv_pos_site_id
 _symmetry_equiv_pos_as_xyz
  1  'x, y, z'
loop_
 _atom_site_type_symbol
 _atom_site_label
 _atom_site_symmetry_multiplicity
 _atom_site_fract_x
 _atom_site_fract_y
 _atom_site_fract_z
 _atom_site_occupancy
  Li  Li0  1  0.09315100  0.41123700  0.26630700  1
  Li  Li1  1  0.54492000  0.24087500  0.35851100  1
  Li  Li2  1  0.45508000  0.75912500  0.64148900  1
  Li  Li3  1  0.90684900  0.58876300  0.73369300  1
  Cu  Cu0  1  0.30376600  0.00689500  0.17085500  1
  Cu  Cu1  1  0.78756700  0.79000500  0.30366000  1
  Cu  Cu2  1  0.21243300  0.20999500  0.69634000  1
  Cu  Cu3  1  0.69623400  0.99310500  0.82914500  1
  F  F0  1  0.40372500  0.28078700  0.15977000  1
  F  F1  1  0.15237500  0.73214200  0.20075300  1
  F  F2  1  0.67376200  0.90825800  0.08807400  1
  F  F3  1  0.93451900  0.08504000  0.26130800  1
  F  F4  1  0.73531700  0.50136700  0.30249200  1
  F  F5  1  0.18243500  0.29907200  0.47084600  1
  F  F6  1  0.44528700  0.88871000  0.39461400  1
  F  F7  1  0.55471300  0.11129000  0.60538600  1
  F  F8  1  0.81756500  0.70092800  0.52915400  1
  F  F9  1  0.26468300  0.49863300  0.69750800  1
  F  F10  1  0.06548100  0.91496000  0.73869200  1
  F  F11  1  0.32623800  0.09174200  0.91192600  1
  F  F12  1  0.84762500  0.26785800  0.79924700  1
  F  F13  1  0.59627500  0.71921300  0.84023000  1
loop_
_geom_bond_atom_site_label_1
_geom_bond_atom_site_label_2
_geom_bond_distance
_geom_bond_site_symmetry_2
Cu0 F0 1.858254 1_555
Cu0 F1 1.930566 1_545
Cu0 F3 1.990692 1_455
Cu0 F2 2.021699 1_545
Cu0 F11 2.124660 1_554
Cu0 F6 2.178078 1_545
Cu1 F4 1.909928 1_555
Cu1 F6 1.914625 1_555
Cu1 F8 1.918885 1_555
Cu1 F1 1.960745 1_655
Cu1 F3 2.015150 1_565
Cu1 F2 2.035578 1_555
Cu2 F9 1.909928 1_555
Cu2 F7 1.914625 1_555
Cu2 F5 1.918885 1_555
Cu2 F12 1.960745 1_455
Cu2 F10 2.015150 1_545
Cu2 F11 2.035578 1_555
Cu3 F13 1.858254 1_555
Cu3 F12 1.930566 1_565
Cu3 F10 1.990692 1_655
Cu3 F11 2.021699 1_565
Cu3 F2 2.124660 1_556
Cu3 F7 2.178078 1_565
F0 Li0 1.920114 1_555
F0 Li1 2.008170 1_555
F1 Li0 2.003318 1_555
F3 Li1 2.282931 1_555
F3 Li0 2.354226 1_655
F4 Li1 1.907460 1_555
F4 Li0 1.912403 1_655
F5 Li0 1.881846 1_555
F5 Li1 1.972606 1_555
F6 Li2 2.070731 1_555
F6 Li1 2.287912 1_565
F7 Li1 2.070731 1_555
F7 Li2 2.287912 1_545
F8 Li3 1.881846 1_555
F8 Li2 1.972606 1_555
F9 Li2 1.907460 1_555
F9 Li3 1.912403 1_455
F10 Li2 2.282931 1_555
F10 Li3 2.354226 1_455
F12 Li3 2.003318 1_555
F13 Li3 1.920114 1_555
F13 Li2 2.008170 1_555
