# generated using pymatgen
data_Li2TiFeO4
_symmetry_space_group_name_H-M   'P 1'
_cell_length_a   5.88180863
_cell_length_b   5.90162993
_cell_length_c   9.27840932
_cell_angle_alpha   89.13168544
_cell_angle_beta   108.27779202
_cell_angle_gamma   94.19006403
_symmetry_Int_Tables_number   1
_chemical_formula_structural   Li2TiFeO4
_chemical_formula_sum   'Li8 Ti4 Fe4 O16'
_cell_volume   304.99728349
_cell_formula_units_Z   4
loop_
 _symmetry_equiv_pos_site_id
 _symmetry_equiv_pos_as_xyz
  1  'x, y, z'
loop_
 _atom_site_type_symbol
 _atom_site_label
 _atom_site_symmetry_multiplicity
 _atom_site_fract_x
 _atom_site_fract_y
 _atom_site_fract_z
 _atom_site_occupancy
  Li  Li0  1  0.87451600  0.75062500  0.25178000  1
  Li  Li1  1  0.37401400  0.24997200  0.25233900  1
  Li  Li2  1  0.13075600  0.74584100  0.75576600  1
  Li  Li3  1  0.63121000  0.24444800  0.75638200  1
  Li  Li4  1  0.52247100  0.98915300  0.03222400  1
  Li  Li5  1  0.02386900  0.48710000  0.03200600  1
  Li  Li6  1  0.72851400  0.00922800  0.46965200  1
  Li  Li7  1  0.22801500  0.50941700  0.46993500  1
  Ti  Ti0  1  0.24468100  0.02947800  0.50043400  1
  Ti  Ti1  1  0.73879900  0.53325400  0.49693100  1
  Ti  Ti2  1  0.52208000  0.46817800  0.01165500  1
  Ti  Ti3  1  0.02447000  0.97072300  0.01140800  1
  Fe  Fe0  1  0.37404300  0.74984400  0.25101000  1
  Fe  Fe1  1  0.62798200  0.74716200  0.75681900  1
  Fe  Fe2  1  0.87459800  0.24953800  0.25153100  1
  Fe  Fe3  1  0.11923100  0.25179200  0.74818300  1
  O  O0  1  0.12196900  0.99926100  0.24638000  1
  O  O1  1  0.62257500  0.49956700  0.24797100  1
  O  O2  1  0.36227300  0.98936000  0.71022600  1
  O  O3  1  0.84452200  0.50432400  0.70980600  1
  O  O4  1  0.99123300  0.74169600  0.49145900  1
  O  O5  1  0.49159100  0.24175000  0.49122700  1
  O  O6  1  0.01508500  0.23593700  0.50290200  1
  O  O7  1  0.51268500  0.73860600  0.50086900  1
  O  O8  1  0.62538900  0.99922600  0.25152900  1
  O  O9  1  0.12443900  0.49983500  0.25170800  1
  O  O10  1  0.89769000  0.01067400  0.79447100  1
  O  O11  1  0.38483000  0.49808500  0.79508300  1
  O  O12  1  0.73461400  0.26252000  0.00115900  1
  O  O13  1  0.23420300  0.76224200  0.00110700  1
  O  O14  1  0.75084300  0.75313700  0.00761400  1
  O  O15  1  0.25482100  0.25212900  0.01230900  1
loop_
_geom_bond_atom_site_label_1
_geom_bond_atom_site_label_2
_geom_bond_distance
_geom_bond_site_symmetry_2
Li0 O0 2.001367 1_655
Li0 O1 2.010066 1_555
Li0 O4 2.112737 1_555
Li0 O8 2.147465 1_555
Li0 O14 2.151420 1_555
Li0 O9 2.161038 1_655
Li1 O0 2.005134 1_545
Li1 O1 2.007359 1_555
Li1 O5 2.105625 1_555
Li1 O15 2.114878 1_555
Li1 O9 2.154072 1_555
Li1 O8 2.168642 1_545
Li2 O2 2.038338 1_555
Li2 O3 2.065262 1_455
Li2 O11 2.113165 1_555
Li2 O13 2.165815 1_556
Li2 O10 2.256080 1_465
Li2 O4 2.329080 1_455
Li3 O3 2.037634 1_555
Li3 O2 2.049043 1_545
Li3 O10 2.106844 1_555
Li3 O12 2.161204 1_556
Li3 O11 2.264798 1_555
Li3 O5 2.336518 1_555
Li4 O8 1.932921 1_555
Li4 O13 2.030856 1_555
Li4 O12 2.039643 1_565
Li4 O14 2.066877 1_555
Li4 O15 2.255438 1_565
Li5 O9 1.937207 1_555
Li5 O12 2.027236 1_455
Li5 O13 2.040640 1_555
Li5 O15 2.059207 1_555
Li5 O14 2.285795 1_455
Li6 O8 1.922420 1_545
Li6 O6 2.020687 1_655
Li6 O7 2.041210 1_545
Li6 O5 2.080350 1_555
Li6 O4 2.252188 1_545
Li7 O9 1.923241 1_555
Li7 O7 2.023557 1_555
Li7 O6 2.048652 1_555
Li7 O4 2.078562 1_455
Li7 O5 2.257019 1_555
Fe0 O9 2.005379 1_555
Fe0 O8 2.007355 1_555
Fe0 O0 2.154956 1_555
Fe0 O1 2.159166 1_555
Fe0 O7 2.204837 1_555
Fe0 O13 2.205821 1_555
Fe1 O11 2.080309 1_555
Fe1 O10 2.089365 1_565
Fe1 O3 2.121439 1_555
Fe1 O2 2.134569 1_555
Fe1 O14 2.209589 1_556
Fe1 O7 2.256239 1_555
Fe2 O8 2.003595 1_545
Fe2 O9 2.005701 1_655
Fe2 O0 2.158873 1_645
Fe2 O1 2.159452 1_555
Fe2 O12 2.210079 1_555
Fe2 O6 2.219039 1_655
Fe3 O10 1.992202 1_455
Fe3 O11 2.000883 1_555
Fe3 O6 2.164942 1_555
Fe3 O3 2.221177 1_455
Fe3 O2 2.285201 1_545
Fe3 O15 2.327188 1_556
O0 Ti3 2.079219 1_555
O0 Ti0 2.244098 1_565
O1 Ti2 2.091584 1_555
O1 Ti1 2.201430 1_555
O2 Ti0 1.867866 1_565
O3 Ti1 1.884652 1_555
O4 Ti1 1.870525 1_555
O4 Ti0 2.161056 1_665
O5 Ti0 1.869360 1_555
O5 Ti1 2.159990 1_555
O6 Ti0 1.889315 1_555
O6 Ti1 2.465759 1_455
O7 Ti1 1.872488 1_555
O7 Ti0 2.413068 1_565
O10 Ti3 1.932090 1_646
O11 Ti2 1.926986 1_556
O12 Ti2 1.829471 1_555
O12 Ti3 2.490698 1_645
O13 Ti3 1.828681 1_555
O13 Ti2 2.491738 1_555
O14 Ti3 1.975917 1_655
O14 Ti2 2.083060 1_555
O15 Ti2 1.951846 1_555
O15 Ti3 2.063584 1_545
