# generated using pymatgen
data_Mg3Mn5(BO4)4
_symmetry_space_group_name_H-M   'P 1'
_cell_length_a   3.24151500
_cell_length_b   9.39438309
_cell_length_c   9.50006414
_cell_angle_alpha   89.99286170
_cell_angle_beta   94.16140341
_cell_angle_gamma   90.17948600
_symmetry_Int_Tables_number   1
_chemical_formula_structural   Mg3Mn5(BO4)4
_chemical_formula_sum   'Mg3 Mn5 B4 O16'
_cell_volume   288.53215188
_cell_formula_units_Z   1
loop_
 _symmetry_equiv_pos_site_id
 _symmetry_equiv_pos_as_xyz
  1  'x, y, z'
loop_
 _atom_site_type_symbol
 _atom_site_label
 _atom_site_symmetry_multiplicity
 _atom_site_fract_x
 _atom_site_fract_y
 _atom_site_fract_z
 _atom_site_occupancy
  Mg  Mg0  1  0.74355600  0.18267400  0.39737300  1
  Mg  Mg1  1  0.25593200  0.81688400  0.60227200  1
  Mg  Mg2  1  0.74170700  0.31674200  0.89793300  1
  Mn  Mn0  1  0.25531800  0.68554200  0.10235400  1
  Mn  Mn1  1  0.24942800  0.06518600  0.11868600  1
  Mn  Mn2  1  0.75491100  0.56251800  0.38367300  1
  Mn  Mn3  1  0.24667500  0.43527800  0.61885900  1
  Mn  Mn4  1  0.75411200  0.93889300  0.87725500  1
  B  B0  1  0.27447500  0.36705900  0.16380200  1
  B  B1  1  0.72841000  0.86969500  0.34003100  1
  B  B2  1  0.27176400  0.13267400  0.66209900  1
  B  B3  1  0.72663600  0.63147300  0.83261600  1
  O  O0  1  0.21560000  0.88769100  0.01236200  1
  O  O1  1  0.26476500  0.36445400  0.02100500  1
  O  O2  1  0.24443800  0.24075800  0.24164800  1
  O  O3  1  0.30927100  0.49673100  0.23789900  1
  O  O4  1  0.69986000  0.99816600  0.26556300  1
  O  O5  1  0.75872100  0.74068800  0.26511500  1
  O  O6  1  0.73402600  0.86658700  0.48268600  1
  O  O7  1  0.77625400  0.38597900  0.48784100  1
  O  O8  1  0.22642700  0.61239200  0.51427500  1
  O  O9  1  0.26581200  0.13633800  0.51957600  1
  O  O10  1  0.24321300  0.25921200  0.74038000  1
  O  O11  1  0.30030100  0.00196000  0.73434800  1
  O  O12  1  0.69632300  0.50057500  0.76189100  1
  O  O13  1  0.75522400  0.75937400  0.75761400  1
  O  O14  1  0.73367300  0.63147200  0.97532100  1
  O  O15  1  0.77317200  0.11300500  0.98552400  1
loop_
_geom_bond_atom_site_label_1
_geom_bond_atom_site_label_2
_geom_bond_distance
_geom_bond_site_symmetry_2
Mg0 O9 2.030376 1_655
Mg0 O9 2.047447 1_555
Mg0 O7 2.093711 1_555
Mg0 O4 2.136773 1_545
Mg0 O2 2.182181 1_555
Mg0 O2 2.337809 1_655
Mg1 O6 2.024015 1_455
Mg1 O6 2.039919 1_555
Mg1 O8 2.094322 1_555
Mg1 O11 2.142618 1_565
Mg1 O13 2.178948 1_555
Mg1 O13 2.333665 1_455
Mg2 O1 2.037228 1_656
Mg2 O1 2.055453 1_556
Mg2 O15 2.086784 1_555
Mg2 O12 2.155904 1_555
Mg2 O10 2.187959 1_555
Mg2 O10 2.352433 1_655
Mn0 O14 2.066943 1_454
Mn0 O0 2.083046 1_555
Mn0 O14 2.096534 1_554
Mn0 O3 2.191722 1_555
Mn0 O5 2.225015 1_555
Mn0 O5 2.370048 1_455
Mn1 O0 1.948308 1_545
Mn1 O15 1.976413 1_454
Mn1 O2 2.022055 1_555
Mn1 O4 2.045748 1_545
Mn1 O15 2.234100 1_554
Mn1 O4 2.422891 1_445
Mn2 O7 1.930029 1_555
Mn2 O8 1.953318 1_655
Mn2 O5 2.017855 1_555
Mn2 O3 2.022574 1_555
Mn2 O8 2.237689 1_555
Mn2 O3 2.428422 1_655
Mn3 O8 1.936686 1_555
Mn3 O7 1.951724 1_455
Mn3 O12 2.013518 1_555
Mn3 O10 2.017426 1_555
Mn3 O7 2.241828 1_555
Mn3 O12 2.400855 1_455
Mn4 O15 1.930739 1_565
Mn4 O0 1.960173 1_656
Mn4 O11 2.018299 1_565
Mn4 O13 2.034001 1_555
Mn4 O0 2.290342 1_556
Mn4 O11 2.381354 1_665
B0 O1 1.354883 1_555
B0 O2 1.404899 1_555
B0 O3 1.407141 1_555
B1 O6 1.354345 1_555
B1 O4 1.398806 1_555
B1 O5 1.412831 1_555
B2 O9 1.353150 1_555
B2 O11 1.406725 1_555
B2 O10 1.409125 1_555
B3 O14 1.354242 1_555
B3 O12 1.401120 1_555
B3 O13 1.403095 1_555
