# generated using pymatgen
data_Li8Fe3Co5O16
_symmetry_space_group_name_H-M   'P 1'
_cell_length_a   2.89597700
_cell_length_b   5.08732400
_cell_length_c   18.95017604
_cell_angle_alpha   85.38636453
_cell_angle_beta   90.00000000
_cell_angle_gamma   90.00000000
_symmetry_Int_Tables_number   1
_chemical_formula_structural   Li8Fe3Co5O16
_chemical_formula_sum   'Li8 Fe3 Co5 O16'
_cell_volume   278.28401044
_cell_formula_units_Z   1
loop_
 _symmetry_equiv_pos_site_id
 _symmetry_equiv_pos_as_xyz
  1  'x, y, z'
loop_
 _atom_site_type_symbol
 _atom_site_label
 _atom_site_symmetry_multiplicity
 _atom_site_fract_x
 _atom_site_fract_y
 _atom_site_fract_z
 _atom_site_occupancy
  Li  Li0  1  0.50000000  0.37498400  0.87221000  1
  Li  Li1  1  0.00000000  0.50000000  0.00000000  1
  Li  Li2  1  0.50000000  0.62501600  0.12779000  1
  Li  Li3  1  0.00000000  0.75069100  0.25299000  1
  Li  Li4  1  0.50000000  0.87533100  0.37787000  1
  Li  Li5  1  0.00000000  0.00000000  0.50000000  1
  Li  Li6  1  0.00000000  0.24930900  0.74701000  1
  Li  Li7  1  0.50000000  0.12466900  0.62213000  1
  Fe  Fe0  1  0.00000000  0.87055900  0.86940200  1
  Fe  Fe1  1  0.00000000  0.12944100  0.13059800  1
  Fe  Fe2  1  0.50000000  0.00000000  0.00000000  1
  Co  Co0  1  0.50000000  0.25408100  0.25552700  1
  Co  Co1  1  0.00000000  0.37594400  0.37779200  1
  Co  Co2  1  0.00000000  0.62405600  0.62220800  1
  Co  Co3  1  0.50000000  0.74591900  0.74447300  1
  Co  Co4  1  0.50000000  0.50000000  0.50000000  1
  O  O0  1  0.50000000  0.30016600  0.06658200  1
  O  O1  1  0.00000000  0.41935300  0.19779500  1
  O  O2  1  0.00000000  0.34338000  0.55842500  1
  O  O3  1  0.00000000  0.58064700  0.80220500  1
  O  O4  1  0.50000000  0.53086100  0.31964500  1
  O  O5  1  0.50000000  0.46913900  0.68035500  1
  O  O6  1  0.50000000  0.69983400  0.93341800  1
  O  O7  1  0.00000000  0.65662000  0.44157500  1
  O  O8  1  0.00000000  0.82735400  0.06353900  1
  O  O9  1  0.50000000  0.78068300  0.56380200  1
  O  O10  1  0.50000000  0.04002000  0.80657800  1
  O  O11  1  0.50000000  0.95998000  0.19342200  1
  O  O12  1  0.00000000  0.90219400  0.68632100  1
  O  O13  1  0.00000000  0.17264600  0.93646100  1
  O  O14  1  0.00000000  0.09780600  0.31367900  1
  O  O15  1  0.50000000  0.21931700  0.43619800  1
loop_
_geom_bond_atom_site_label_1
_geom_bond_atom_site_label_2
_geom_bond_distance
_geom_bond_site_symmetry_2
Li0 O6 2.094013 1_555
Li0 O13 2.106442 1_655
Li0 O13 2.106442 1_555
Li0 O3 2.174387 1_655
Li0 O3 2.174387 1_555
Li0 O10 2.188994 1_555
Li1 O0 2.125047 1_455
Li1 O6 2.125047 1_554
Li1 O0 2.125047 1_555
Li1 O6 2.125047 1_454
Li1 O8 2.132086 1_555
Li1 O13 2.132086 1_554
Li2 O0 2.094013 1_555
Li2 O8 2.106442 1_555
Li2 O8 2.106442 1_655
Li2 O1 2.174387 1_555
Li2 O1 2.174387 1_655
Li2 O11 2.188994 1_555
Li3 O1 2.054016 1_555
Li3 O11 2.076342 1_555
Li3 O11 2.076342 1_455
Li3 O4 2.171544 1_555
Li3 O4 2.171544 1_455
Li3 O14 2.183512 1_565
Li4 O7 2.139150 1_555
Li4 O7 2.139150 1_655
Li4 O15 2.143667 1_565
Li4 O4 2.144646 1_555
Li4 O14 2.153107 1_565
Li4 O14 2.153107 1_665
Li5 O15 2.141576 1_455
Li5 O15 2.141576 1_555
Li5 O9 2.141576 1_445
Li5 O9 2.141576 1_545
Li5 O2 2.142093 1_555
Li5 O7 2.142093 1_545
Li6 O3 2.054016 1_555
Li6 O10 2.076342 1_455
Li6 O10 2.076342 1_555
Li6 O5 2.171544 1_455
Li6 O5 2.171544 1_555
Li6 O12 2.183512 1_545
Li7 O2 2.139150 1_655
Li7 O2 2.139150 1_555
Li7 O9 2.143667 1_545
Li7 O5 2.144646 1_555
Li7 O12 2.153107 1_545
Li7 O12 2.153107 1_645
Fe0 O10 2.022902 1_565
Fe0 O10 2.022902 1_465
Fe0 O3 2.024581 1_555
Fe0 O6 2.037932 1_555
Fe0 O6 2.037932 1_455
Fe0 O13 2.071438 1_565
Fe1 O11 2.022902 1_445
Fe1 O11 2.022902 1_545
Fe1 O1 2.024581 1_555
Fe1 O0 2.037932 1_555
Fe1 O0 2.037932 1_455
Fe1 O8 2.071438 1_545
Fe2 O13 2.036605 1_654
Fe2 O13 2.036605 1_554
Fe2 O8 2.036605 1_545
Fe2 O8 2.036605 1_645
Fe2 O0 2.057621 1_555
Fe2 O6 2.057621 1_544
Co0 O4 1.932416 1_555
Co0 O14 1.949916 1_555
Co0 O14 1.949916 1_655
Co0 O1 1.962786 1_655
Co0 O1 1.962786 1_555
Co0 O11 1.976599 1_545
Co1 O14 1.937739 1_555
Co1 O7 1.943572 1_555
Co1 O4 1.947373 1_555
Co1 O4 1.947373 1_455
Co1 O15 1.953131 1_455
Co1 O15 1.953131 1_555
Co2 O12 1.937739 1_555
Co2 O2 1.943572 1_555
Co2 O5 1.947373 1_555
Co2 O5 1.947373 1_455
Co2 O9 1.953131 1_555
Co2 O9 1.953131 1_455
Co3 O5 1.932416 1_555
Co3 O12 1.949916 1_655
Co3 O12 1.949916 1_555
Co3 O3 1.962786 1_555
Co3 O3 1.962786 1_655
Co3 O10 1.976599 1_565
Co4 O9 1.943845 1_555
Co4 O15 1.943845 1_555
Co4 O2 1.953310 1_655
Co4 O2 1.953310 1_555
Co4 O7 1.953310 1_655
Co4 O7 1.953310 1_555
