# generated using pymatgen
data_Li3Fe2(SiO4)2
_symmetry_space_group_name_H-M   'P 1'
_cell_length_a   5.17006899
_cell_length_b   6.61499570
_cell_length_c   10.56600161
_cell_angle_alpha   89.92055779
_cell_angle_beta   89.44611971
_cell_angle_gamma   90.22513145
_symmetry_Int_Tables_number   1
_chemical_formula_structural   Li3Fe2(SiO4)2
_chemical_formula_sum   'Li6 Fe4 Si4 O16'
_cell_volume   361.33704675
_cell_formula_units_Z   2
loop_
 _symmetry_equiv_pos_site_id
 _symmetry_equiv_pos_as_xyz
  1  'x, y, z'
loop_
 _atom_site_type_symbol
 _atom_site_label
 _atom_site_symmetry_multiplicity
 _atom_site_fract_x
 _atom_site_fract_y
 _atom_site_fract_z
 _atom_site_occupancy
  Li  Li0  1  0.63543300  0.24720900  0.91198800  1
  Li  Li1  1  0.23488000  0.99712400  0.83935600  1
  Li  Li2  1  0.75614400  0.49718100  0.65988100  1
  Li  Li3  1  0.64106900  0.25473300  0.42133300  1
  Li  Li4  1  0.23433400  0.50185100  0.34533200  1
  Li  Li5  1  0.75784300  0.99966100  0.15714400  1
  Fe  Fe0  1  0.23449500  0.51975700  0.82105800  1
  Fe  Fe1  1  0.74643300  0.99043500  0.66794300  1
  Fe  Fe2  1  0.24612200  0.99088900  0.33220100  1
  Fe  Fe3  1  0.75563000  0.51368000  0.16346700  1
  Si  Si0  1  0.74837400  0.74901000  0.91117300  1
  Si  Si1  1  0.25417500  0.24068900  0.59227300  1
  Si  Si2  1  0.74548900  0.74838500  0.41305800  1
  Si  Si3  1  0.25229600  0.25892500  0.09146500  1
  O  O0  1  0.20550400  0.25678600  0.94036600  1
  O  O1  1  0.05915100  0.75774700  0.88683000  1
  O  O2  1  0.61955800  0.95713900  0.85331700  1
  O  O3  1  0.63580300  0.53704400  0.84798400  1
  O  O4  1  0.13194800  0.04478200  0.66153400  1
  O  O5  1  0.13140700  0.44892400  0.64701400  1
  O  O6  1  0.57526200  0.24465000  0.60204900  1
  O  O7  1  0.68752300  0.73827300  0.56134900  1
  O  O8  1  0.20746700  0.23141000  0.43223900  1
  O  O9  1  0.05639700  0.75807300  0.37444400  1
  O  O10  1  0.63253500  0.54221900  0.33815800  1
  O  O11  1  0.61758500  0.95413300  0.34269500  1
  O  O12  1  0.11307200  0.44927800  0.16738400  1
  O  O13  1  0.14341500  0.05453100  0.16550500  1
  O  O14  1  0.57440400  0.27082000  0.11366900  1
  O  O15  1  0.68945900  0.74472100  0.06777100  1
loop_
_geom_bond_atom_site_label_1
_geom_bond_atom_site_label_2
_geom_bond_distance
_geom_bond_site_symmetry_2
Li0 O2 2.018890 1_545
Li0 O3 2.032133 1_555
Li0 O14 2.157141 1_556
Li0 O0 2.241175 1_555
Li1 O1 1.887359 1_555
Li1 O4 1.982861 1_565
Li1 O2 2.014148 1_555
Li1 O0 2.028916 1_565
Li2 O7 1.939117 1_555
Li2 O5 1.970888 1_655
Li2 O6 2.009994 1_555
Li2 O3 2.094185 1_555
Li3 O6 1.937290 1_555
Li3 O10 2.094658 1_555
Li3 O11 2.159573 1_545
Li3 O8 2.248282 1_555
Li4 O9 1.954957 1_555
Li4 O8 2.013435 1_555
Li4 O12 2.017926 1_555
Li4 O10 2.075576 1_555
Li5 O15 1.966456 1_555
Li5 O13 2.027593 1_665
Li5 O14 2.085037 1_565
Li5 O11 2.104610 1_555
Fe0 O1 1.945576 1_555
Fe0 O5 1.976036 1_555
Fe0 O3 2.099621 1_555
Fe0 O0 2.150781 1_555
Fe1 O4 2.024383 1_665
Fe1 O6 2.028831 1_565
Fe1 O7 2.037521 1_555
Fe1 O2 2.070741 1_555
Fe2 O9 1.873756 1_555
Fe2 O13 1.891876 1_565
Fe2 O8 1.921379 1_565
Fe2 O11 1.940980 1_555
Fe3 O15 1.865939 1_555
Fe3 O12 1.898927 1_655
Fe3 O14 1.932789 1_555
Fe3 O10 1.956216 1_555
O0 Si3 1.617121 1_556
O1 Si0 1.625529 1_455
O2 Si0 1.650903 1_555
O3 Si0 1.659584 1_555
O4 Si1 1.611300 1_555
O5 Si1 1.623830 1_555
O6 Si1 1.664355 1_555
O7 Si2 1.593662 1_555
O8 Si1 1.711536 1_555
O9 Si2 1.655534 1_455
O10 Si2 1.683128 1_555
O11 Si2 1.690018 1_555
O12 Si3 1.657068 1_555
O13 Si3 1.655155 1_555
O14 Si3 1.685556 1_555
O15 Si0 1.679700 1_554
