# generated using pymatgen
data_Li2TiMnO4
_symmetry_space_group_name_H-M   'P 1'
_cell_length_a   5.36296938
_cell_length_b   6.01509355
_cell_length_c   10.34608259
_cell_angle_alpha   73.09815144
_cell_angle_beta   80.78288403
_cell_angle_gamma   89.99897516
_symmetry_Int_Tables_number   1
_chemical_formula_structural   Li2TiMnO4
_chemical_formula_sum   'Li8 Ti4 Mn4 O16'
_cell_volume   314.82892238
_cell_formula_units_Z   4
loop_
 _symmetry_equiv_pos_site_id
 _symmetry_equiv_pos_as_xyz
  1  'x, y, z'
loop_
 _atom_site_type_symbol
 _atom_site_label
 _atom_site_symmetry_multiplicity
 _atom_site_fract_x
 _atom_site_fract_y
 _atom_site_fract_z
 _atom_site_occupancy
  Li  Li0  1  0.50000000  0.75000000  0.50000000  1
  Li  Li1  1  0.50000000  0.25000000  0.50000000  1
  Li  Li2  1  0.00000000  0.49999600  0.00000000  1
  Li  Li3  1  0.00000000  0.00000400  0.00000000  1
  Li  Li4  1  0.50000000  0.25000000  0.00000000  1
  Li  Li5  1  0.50000000  0.75000000  0.00000000  1
  Li  Li6  1  0.00000000  0.00000000  0.50000000  1
  Li  Li7  1  0.00000000  0.50000000  0.50000000  1
  Ti  Ti0  1  0.24999600  0.37499800  0.25000400  1
  Ti  Ti1  1  0.24999700  0.87499900  0.25000300  1
  Ti  Ti2  1  0.75000400  0.12500200  0.74999700  1
  Ti  Ti3  1  0.75000400  0.62500100  0.74999700  1
  Mn  Mn0  1  0.24997900  0.87499800  0.75000200  1
  Mn  Mn1  1  0.75001500  0.62500500  0.24998900  1
  Mn  Mn2  1  0.24999700  0.37500500  0.74999900  1
  Mn  Mn3  1  0.75000600  0.12499500  0.25000500  1
  O  O0  1  0.41265500  0.56887100  0.86222100  1
  O  O1  1  0.41265500  0.06888700  0.86222200  1
  O  O2  1  0.91266000  0.31887400  0.36221700  1
  O  O3  1  0.91266000  0.81889000  0.36221800  1
  O  O4  1  0.08734000  0.18112700  0.63778300  1
  O  O5  1  0.08733900  0.68110800  0.63778300  1
  O  O6  1  0.58734500  0.93112900  0.13777900  1
  O  O7  1  0.58734400  0.43111200  0.13777800  1
  O  O8  1  0.35631100  0.06660300  0.36675500  1
  O  O9  1  0.35629600  0.56660200  0.36675700  1
  O  O10  1  0.85629400  0.81660100  0.86675800  1
  O  O11  1  0.85631100  0.31660300  0.86675500  1
  O  O12  1  0.14370600  0.68339800  0.13324200  1
  O  O13  1  0.14368900  0.18339700  0.13324500  1
  O  O14  1  0.64368900  0.43339600  0.63324600  1
  O  O15  1  0.64370500  0.93339800  0.63324300  1
loop_
_geom_bond_atom_site_label_1
_geom_bond_atom_site_label_2
_geom_bond_distance
_geom_bond_site_symmetry_2
Li0 O8 2.221421 1_565
Li0 O14 2.221429 1_555
Li0 O9 2.221694 1_555
Li0 O15 2.221696 1_555
Li0 O3 2.397381 1_555
Li0 O5 2.397389 1_555
Li1 O9 2.221444 1_555
Li1 O15 2.221446 1_545
Li1 O8 2.221671 1_555
Li1 O14 2.221675 1_555
Li1 O2 2.397385 1_555
Li1 O4 2.397385 1_555
Li2 O13 2.221405 1_555
Li2 O10 2.221457 1_454
Li2 O11 2.221655 1_454
Li2 O12 2.221706 1_555
Li2 O0 2.397346 1_554
Li2 O7 2.397347 1_455
Li3 O11 2.221405 1_454
Li3 O12 2.221461 1_545
Li3 O13 2.221655 1_555
Li3 O10 2.221711 1_444
Li3 O1 2.397342 1_554
Li3 O6 2.397346 1_445
Li4 O13 2.132467 1_555
Li4 O11 2.132467 1_554
Li4 O6 2.134093 1_545
Li4 O0 2.134093 1_554
Li4 O7 2.134257 1_555
Li4 O1 2.134263 1_554
Li5 O12 2.132381 1_555
Li5 O10 2.132381 1_554
Li5 O1 2.134157 1_564
Li5 O7 2.134159 1_555
Li5 O6 2.134340 1_555
Li5 O0 2.134340 1_554
Li6 O15 2.132390 1_445
Li6 O8 2.132467 1_555
Li6 O2 2.134116 1_455
Li6 O5 2.134190 1_545
Li6 O3 2.134277 1_445
Li6 O4 2.134358 1_555
Li7 O9 2.132394 1_555
Li7 O14 2.132471 1_455
Li7 O4 2.134112 1_555
Li7 O3 2.134179 1_455
Li7 O5 2.134276 1_555
Li7 O2 2.134354 1_455
Mn0 O4 2.140265 1_565
Mn0 O5 2.140268 1_555
Mn0 O0 2.140355 1_555
Mn0 O1 2.140368 1_565
Mn0 O10 2.230811 1_455
Mn0 O15 2.231011 1_555
Mn1 O6 2.140293 1_555
Mn1 O7 2.140300 1_555
Mn1 O2 2.140323 1_555
Mn1 O3 2.140340 1_555
Mn1 O12 2.230807 1_655
Mn1 O9 2.231011 1_555
Mn2 O5 2.140194 1_555
Mn2 O0 2.140239 1_555
Mn2 O4 2.140239 1_555
Mn2 O1 2.140284 1_555
Mn2 O11 2.230816 1_455
Mn2 O14 2.230833 1_555
Mn3 O3 2.140181 1_545
Mn3 O2 2.140204 1_555
Mn3 O6 2.140278 1_545
Mn3 O7 2.140305 1_555
Mn3 O13 2.230816 1_655
Mn3 O8 2.230836 1_555
O0 Ti3 1.958167 1_555
O1 Ti2 1.958171 1_555
O2 Ti0 1.958064 1_655
O3 Ti1 1.958077 1_655
O4 Ti2 1.958068 1_455
O5 Ti3 1.958064 1_455
O6 Ti1 1.958162 1_555
O7 Ti0 1.958170 1_555
O8 Ti1 2.035338 1_545
O8 Ti0 2.035425 1_555
O9 Ti0 2.035318 1_555
O9 Ti1 2.035414 1_555
O10 Ti3 2.035347 1_555
O10 Ti2 2.035440 1_565
O11 Ti2 2.035361 1_555
O11 Ti3 2.035450 1_555
O12 Ti1 2.035354 1_555
O12 Ti0 2.035440 1_555
O13 Ti0 2.035369 1_555
O13 Ti1 2.035452 1_545
O14 Ti3 2.035337 1_555
O14 Ti2 2.035421 1_555
O15 Ti2 2.035325 1_565
O15 Ti3 2.035414 1_555
