# generated using pymatgen
data_Ti5Mn(PO4)6
_symmetry_space_group_name_H-M   'P 1'
_cell_length_a   8.48757397
_cell_length_b   8.48757397
_cell_length_c   8.48757438
_cell_angle_alpha   62.02662556
_cell_angle_beta   62.02662556
_cell_angle_gamma   62.02662459
_symmetry_Int_Tables_number   1
_chemical_formula_structural   Ti5Mn(PO4)6
_chemical_formula_sum   'Ti5 Mn1 P6 O24'
_cell_volume   451.94521932
_cell_formula_units_Z   1
loop_
 _symmetry_equiv_pos_site_id
 _symmetry_equiv_pos_as_xyz
  1  'x, y, z'
loop_
 _atom_site_type_symbol
 _atom_site_label
 _atom_site_symmetry_multiplicity
 _atom_site_fract_x
 _atom_site_fract_y
 _atom_site_fract_z
 _atom_site_occupancy
  Ti  Ti0  1  0.99992500  0.99992500  0.99992500  1
  Ti  Ti1  1  0.49997600  0.49997600  0.49997600  1
  Ti  Ti2  1  0.85831800  0.85831800  0.85831800  1
  Ti  Ti3  1  0.64478200  0.64478200  0.64478200  1
  Ti  Ti4  1  0.35681700  0.35681700  0.35681700  1
  Mn  Mn0  1  0.14710600  0.14710600  0.14710600  1
  P  P0  1  0.54733700  0.95170700  0.25046200  1
  P  P1  1  0.25046200  0.54733700  0.95170700  1
  P  P2  1  0.04341400  0.74922400  0.45583600  1
  P  P3  1  0.74922400  0.45583600  0.04341400  1
  P  P4  1  0.45583600  0.04341400  0.74922400  1
  P  P5  1  0.95170700  0.25046200  0.54733700  1
  O  O0  1  0.51304500  0.89002400  0.66656400  1
  O  O1  1  0.89002400  0.66656400  0.51304500  1
  O  O2  1  0.74908100  0.93923400  0.09749400  1
  O  O3  1  0.66656400  0.51304500  0.89002400  1
  O  O4  1  0.40229200  0.97843500  0.17946000  1
  O  O5  1  0.57092300  0.75281200  0.40791000  1
  O  O6  1  0.09749400  0.74908100  0.93923400  1
  O  O7  1  0.40791000  0.57092300  0.75281200  1
  O  O8  1  0.00007100  0.82171700  0.61198300  1
  O  O9  1  0.75281200  0.40791000  0.57092300  1
  O  O10  1  0.05056400  0.89560000  0.25765100  1
  O  O11  1  0.82171700  0.61198300  0.00007100  1
  O  O12  1  0.17946000  0.40229200  0.97843500  1
  O  O13  1  0.93923400  0.09749400  0.74908100  1
  O  O14  1  0.24235300  0.59286100  0.44363900  1
  O  O15  1  0.97843500  0.17946000  0.40229200  1
  O  O16  1  0.59286100  0.44363900  0.24235300  1
  O  O17  1  0.89560000  0.25765100  0.05056400  1
  O  O18  1  0.44363900  0.24235300  0.59286100  1
  O  O19  1  0.61198300  0.00007100  0.82171700  1
  O  O20  1  0.31829900  0.49906500  0.11401900  1
  O  O21  1  0.25765100  0.05056400  0.89560000  1
  O  O22  1  0.11401900  0.31829900  0.49906500  1
  O  O23  1  0.49906500  0.11401900  0.31829900  1
loop_
_geom_bond_atom_site_label_1
_geom_bond_atom_site_label_2
_geom_bond_distance
_geom_bond_site_symmetry_2
Mn0 O4 2.023950 1_545
Mn0 O12 2.023950 1_554
Mn0 O15 2.023951 1_455
Mn0 O10 2.269217 1_545
Mn0 O17 2.269217 1_455
Mn0 O21 2.269217 1_554
O0 P4 1.538573 1_565
O0 Ti3 1.897571 1_555
O1 P2 1.538573 1_655
O1 Ti3 1.897571 1_555
O2 P0 1.581831 1_555
O2 Ti2 2.096940 1_554
O2 Ti0 2.111555 1_554
O3 P3 1.538573 1_556
O3 Ti3 1.897571 1_555
O4 P0 1.495302 1_555
O5 P0 1.579018 1_555
O5 Ti3 2.046815 1_555
O5 Ti1 2.185427 1_555
O6 P1 1.581831 1_555
O6 Ti2 2.096940 1_455
O6 Ti0 2.111555 1_455
O7 P1 1.579018 1_555
O7 Ti3 2.046815 1_555
O7 Ti1 2.185428 1_555
O8 P2 1.538058 1_555
O8 Ti2 1.953016 1_455
O9 P5 1.579018 1_555
O9 Ti3 2.046815 1_555
O9 Ti1 2.185427 1_555
O10 P2 1.546331 1_555
O10 Ti0 2.112273 1_454
O11 P3 1.538058 1_555
O11 Ti2 1.953016 1_554
O12 P1 1.495302 1_555
O13 P5 1.581832 1_555
O13 Ti2 2.096940 1_545
O13 Ti0 2.111555 1_545
O14 P2 1.576630 1_555
O14 Ti4 2.094777 1_555
O14 Ti1 2.154390 1_555
O15 P5 1.495302 1_555
O16 P3 1.576630 1_555
O16 Ti4 2.094777 1_555
O16 Ti1 2.154390 1_555
O17 P3 1.546331 1_555
O17 Ti0 2.112273 1_544
O18 P4 1.576630 1_555
O18 Ti4 2.094777 1_555
O18 Ti1 2.154390 1_555
O19 P4 1.538058 1_555
O19 Ti2 1.953016 1_545
O20 P1 1.546145 1_554
O20 Ti4 1.933638 1_555
O21 P4 1.546331 1_555
O21 Ti0 2.112273 1_445
O22 P5 1.546145 1_455
O22 Ti4 1.933638 1_555
O23 P0 1.546145 1_545
O23 Ti4 1.933638 1_555
