# generated using pymatgen
data_Li8Fe(O2F)2
_symmetry_space_group_name_H-M   'P 1'
_cell_length_a   5.64958271
_cell_length_b   5.64958271
_cell_length_c   10.89588900
_cell_angle_alpha   90.00000000
_cell_angle_beta   90.00000000
_cell_angle_gamma   118.23956119
_symmetry_Int_Tables_number   1
_chemical_formula_structural   Li8Fe(O2F)2
_chemical_formula_sum   'Li16 Fe2 O8 F4'
_cell_volume   306.37968296
_cell_formula_units_Z   2
loop_
 _symmetry_equiv_pos_site_id
 _symmetry_equiv_pos_as_xyz
  1  'x, y, z'
loop_
 _atom_site_type_symbol
 _atom_site_label
 _atom_site_symmetry_multiplicity
 _atom_site_fract_x
 _atom_site_fract_y
 _atom_site_fract_z
 _atom_site_occupancy
  Li  Li0  1  0.68485100  0.68485100  0.27632700  1
  Li  Li1  1  0.56890900  0.56890900  0.62340500  1
  Li  Li2  1  0.43109100  0.43109100  0.12340500  1
  Li  Li3  1  0.31514900  0.31514900  0.77632700  1
  Li  Li4  1  0.33134500  0.66101100  0.90295000  1
  Li  Li5  1  0.33898900  0.66865500  0.40295000  1
  Li  Li6  1  0.00620400  0.30527100  0.26346300  1
  Li  Li7  1  0.00608200  0.38241600  0.63778100  1
  Li  Li8  1  0.99391800  0.61758400  0.13778100  1
  Li  Li9  1  0.69472900  0.99379600  0.76346300  1
  Li  Li10  1  0.99379600  0.69472900  0.76346300  1
  Li  Li11  1  0.61758400  0.99391800  0.13778100  1
  Li  Li12  1  0.66865500  0.33898900  0.40295000  1
  Li  Li13  1  0.66101100  0.33134500  0.90295000  1
  Li  Li14  1  0.38241600  0.00608200  0.63778100  1
  Li  Li15  1  0.30527100  0.00620400  0.26346300  1
  Fe  Fe0  1  0.95657500  0.95657500  0.51051600  1
  Fe  Fe1  1  0.04342500  0.04342500  0.01051600  1
  O  O0  1  0.65176400  0.65176400  0.45150300  1
  O  O1  1  0.34823600  0.34823600  0.95150300  1
  O  O2  1  0.33226900  0.67242600  0.71765500  1
  O  O3  1  0.02599500  0.02599500  0.68433400  1
  O  O4  1  0.97400500  0.97400500  0.18433400  1
  O  O5  1  0.32757400  0.66773100  0.21765500  1
  O  O6  1  0.66773100  0.32757400  0.21765500  1
  O  O7  1  0.67242600  0.33226900  0.71765500  1
  F  F0  1  0.01094100  0.34238100  0.44796000  1
  F  F1  1  0.65761900  0.98905900  0.94796000  1
  F  F2  1  0.98905900  0.65761900  0.94796000  1
  F  F3  1  0.34238100  0.01094100  0.44796000  1
loop_
_geom_bond_atom_site_label_1
_geom_bond_atom_site_label_2
_geom_bond_distance
_geom_bond_site_symmetry_2
Li0 O0 1.918319 1_555
Li0 O4 1.953612 1_555
Li0 O5 2.075451 1_555
Li0 O6 2.075451 1_555
Li1 O0 1.933675 1_555
Li1 O2 1.980875 1_555
Li1 O7 1.980875 1_555
Li2 O1 1.933675 1_554
Li2 O6 1.980875 1_555
Li2 O5 1.980875 1_555
Li3 O1 1.918319 1_555
Li3 O3 1.953612 1_555
Li3 O7 2.075451 1_555
Li3 O2 2.075451 1_555
Li4 O1 1.889711 1_555
Li4 O2 2.019911 1_555
Li5 O0 1.889711 1_555
Li5 O5 2.019911 1_555
Li6 O4 1.989181 1_445
Li6 O6 2.037066 1_455
Li6 O5 2.054385 1_555
Li7 O7 1.971192 1_455
Li7 O2 1.995149 1_555
Li7 O3 2.130498 1_555
Li8 O5 1.971192 1_655
Li8 O6 1.995149 1_555
Li8 O4 2.130498 1_555
Li9 O3 1.989181 1_665
Li9 O7 2.037066 1_565
Li9 O2 2.054385 1_555
Li10 O3 1.989181 1_665
Li10 O2 2.037066 1_655
Li10 O7 2.054385 1_555
Li11 O6 1.971192 1_565
Li11 O5 1.995149 1_555
Li11 O4 2.130498 1_555
Li12 O0 1.889711 1_555
Li12 O6 2.019911 1_555
Li13 O1 1.889711 1_555
Li13 O7 2.019911 1_555
Li14 O2 1.971192 1_545
Li14 O7 1.995149 1_555
Li14 O3 2.130498 1_555
Li15 O4 1.989181 1_445
Li15 O5 2.037066 1_545
Li15 O6 2.054385 1_555
Fe0 O0 1.880987 1_555
Fe0 O3 1.936217 1_665
Fe1 O1 1.880987 1_554
Fe1 O4 1.936217 1_445
F0 Li5 1.959663 1_555
F0 Li12 1.986276 1_455
F0 Li6 2.020025 1_555
F0 Li7 2.082192 1_555
F0 Fe0 2.162461 1_445
F1 Li4 1.959663 1_555
F1 Li13 1.986276 1_565
F1 Li9 2.020025 1_555
F1 Li11 2.082192 1_556
F1 Fe1 2.162461 1_666
F2 Li13 1.959663 1_555
F2 Li4 1.986276 1_655
F2 Li10 2.020025 1_555
F2 Li8 2.082192 1_556
F2 Fe1 2.162461 1_666
F3 Li12 1.959663 1_555
F3 Li5 1.986276 1_545
F3 Li15 2.020025 1_555
F3 Li14 2.082192 1_555
F3 Fe0 2.162461 1_445
