# generated using pymatgen
data_LiVOF2
_symmetry_space_group_name_H-M   'P 1'
_cell_length_a   5.60799100
_cell_length_b   5.64447697
_cell_length_c   23.43864976
_cell_angle_alpha   89.78660217
_cell_angle_beta   89.88773627
_cell_angle_gamma   60.23060882
_symmetry_Int_Tables_number   1
_chemical_formula_structural   LiVOF2
_chemical_formula_sum   'Li12 V12 O12 F24'
_cell_volume   644.01463235
_cell_formula_units_Z   12
loop_
 _symmetry_equiv_pos_site_id
 _symmetry_equiv_pos_as_xyz
  1  'x, y, z'
loop_
 _atom_site_type_symbol
 _atom_site_label
 _atom_site_symmetry_multiplicity
 _atom_site_fract_x
 _atom_site_fract_y
 _atom_site_fract_z
 _atom_site_occupancy
  Li  Li0  1  0.99287400  0.67255300  0.62513200  1
  Li  Li1  1  0.32264600  0.00957700  0.62668300  1
  Li  Li2  1  0.33655500  0.99288800  0.12394200  1
  Li  Li3  1  0.35060300  0.66589100  0.37314500  1
  Li  Li4  1  0.33381600  0.66663800  0.87504200  1
  Li  Li5  1  0.99304900  0.33249100  0.87507500  1
  Li  Li6  1  0.99663200  0.66019200  0.12399200  1
  Li  Li7  1  0.67239700  0.33233200  0.12366500  1
  Li  Li8  1  0.65994600  0.34131100  0.62627700  1
  Li  Li9  1  0.65934700  0.99520400  0.87559400  1
  Li  Li10  1  0.67484200  0.99672500  0.37355100  1
  Li  Li11  1  0.00630400  0.33161000  0.37404900  1
  V  V0  1  0.68109200  0.66719900  0.99683300  1
  V  V1  1  0.66754900  0.64700700  0.24410500  1
  V  V2  1  0.00111500  0.98390800  0.73656500  1
  V  V3  1  0.66940700  0.70012500  0.73921000  1
  V  V4  1  0.64863400  0.68462200  0.50049800  1
  V  V5  1  0.31866000  0.34956700  0.51450900  1
  V  V6  1  0.33569100  0.36365500  0.26172800  1
  V  V7  1  0.00393500  0.98151200  0.23530900  1
  V  V8  1  0.32762000  0.32191700  0.76202000  1
  V  V9  1  0.34672200  0.33385300  0.01452900  1
  V  V10  1  0.96554700  0.00200200  0.98835500  1
  V  V11  1  0.03373600  0.96656200  0.48844000  1
  O  O0  1  0.70357900  0.97769200  0.78420500  1
  O  O1  1  0.60899900  0.02928000  0.96470700  1
  O  O2  1  0.98135700  0.69256600  0.03378800  1
  O  O3  1  0.01625100  0.62601400  0.21649500  1
  O  O4  1  0.32218800  0.98604300  0.53544600  1
  O  O5  1  0.32689700  0.03572500  0.71450200  1
  O  O6  1  0.32226600  0.71875000  0.28429900  1
  O  O7  1  0.36869800  0.61093700  0.46530700  1
  O  O8  1  0.70499800  0.32878800  0.03288200  1
  O  O9  1  0.96746400  0.70641800  0.53371700  1
  O  O10  1  0.64251200  0.33557000  0.21478400  1
  O  O11  1  0.03878200  0.62500500  0.71395400  1
  F  F0  1  0.65839900  0.67074100  0.63811400  1
  F  F1  1  0.68545200  0.66494400  0.37709500  1
  F  F2  1  0.01035200  0.99531800  0.39871900  1
  F  F3  1  0.00786800  0.98995800  0.14557600  1
  F  F4  1  0.66046500  0.66847500  0.13068100  1
  F  F5  1  0.66775500  0.65714700  0.88592200  1
  F  F6  1  0.98518400  0.30073300  0.28958000  1
  F  F7  1  0.33033500  0.70721100  0.78931700  1
  F  F8  1  0.01528900  0.35238600  0.46143200  1
  F  F9  1  0.34315700  0.63129600  0.96043500  1
  F  F10  1  0.71809800  0.31210500  0.54034000  1
  F  F11  1  0.62353900  0.35717500  0.71283000  1
  F  F12  1  0.33814600  0.32268100  0.10310000  1
  F  F13  1  0.32161900  0.33873000  0.85107500  1
  F  F14  1  0.99587800  0.99926400  0.89697900  1
  F  F15  1  0.98208300  0.01040200  0.64494500  1
  F  F16  1  0.33122600  0.34245600  0.60314200  1
  F  F17  1  0.34021600  0.33397900  0.35174400  1
  F  F18  1  0.70265700  0.97280700  0.28862600  1
  F  F19  1  0.62102800  0.03713300  0.46031100  1
  F  F20  1  0.95455200  0.32735100  0.78880100  1
  F  F21  1  0.04122100  0.33608100  0.96010200  1
  F  F22  1  0.31103300  0.96660900  0.03842800  1
  F  F23  1  0.35174100  0.03288800  0.21037600  1
loop_
_geom_bond_atom_site_label_1
_geom_bond_atom_site_label_2
_geom_bond_distance
_geom_bond_site_symmetry_2
Li0 O11 2.098049 1_655
Li0 O9 2.149155 1_555
Li1 O5 2.065222 1_555
Li1 O4 2.143173 1_545
Li3 O6 2.097707 1_555
Li3 O7 2.176553 1_555
Li6 O2 2.119696 1_555
Li6 O3 2.174148 1_655
Li7 O8 2.134631 1_555
Li7 O10 2.141380 1_555
Li9 O1 2.103827 1_565
Li9 O0 2.152849 1_555
O0 V3 1.978588 1_555
O0 V2 2.020585 1_655
O0 V8 2.102288 1_565
O1 V9 1.994945 1_556
O1 V10 2.006737 1_555
O1 V0 2.019061 1_545
O2 V0 1.962724 1_554
O2 V10 2.006293 1_564
O2 V9 2.094069 1_655
O3 V6 1.971698 1_555
O3 V1 2.005590 1_455
O3 V7 2.023492 1_555
O4 V4 1.956694 1_555
O4 V11 2.006795 1_555
O4 V5 2.098509 1_565
O5 V8 1.967213 1_555
O5 V3 1.999050 1_545
O5 V2 2.053443 1_545
O6 V1 2.004493 1_555
O6 V7 2.017741 1_555
O6 V6 2.039794 1_555
O7 V4 1.993452 1_555
O7 V5 1.995579 1_555
O7 V11 2.027732 1_555
O8 V10 1.989603 1_554
O8 V0 2.028474 1_554
O8 V9 2.041822 1_555
O9 V11 1.987268 1_655
O9 V4 2.010697 1_555
O9 V5 2.050050 1_655
O10 V1 1.958751 1_555
O10 V6 1.979760 1_555
O10 V7 2.075522 1_645
O11 V3 1.986453 1_455
O11 V2 2.003011 1_555
O11 V8 2.015132 1_555
F0 Li8 1.876821 1_555
F0 Li0 1.904693 1_555
F0 Li1 1.922785 1_565
F0 V3 2.379028 1_555
F1 Li10 1.845472 1_555
F1 Li11 1.849707 1_655
F1 Li3 1.877646 1_555
F2 Li10 1.969190 1_455
F2 Li11 1.971570 1_565
F2 Li3 1.984517 1_555
F2 V11 2.107913 1_555
F3 Li2 1.918750 1_555
F3 Li6 1.961673 1_455
F3 Li7 1.980865 1_465
F3 V7 2.103904 1_555
F4 Li2 1.836733 1_555
F4 Li6 1.868742 1_555
F4 Li7 1.872877 1_555
F5 Li5 1.852740 1_555
F5 Li4 1.864712 1_555
F5 Li9 1.899773 1_555
F5 V0 2.602466 1_555
F6 Li11 1.997036 1_655
F6 V1 2.159611 1_555
F6 V7 2.168905 1_645
F6 V6 2.258880 1_655
F7 Li4 2.020474 1_555
F7 V2 2.123178 1_555
F7 V3 2.216469 1_555
F7 V8 2.276521 1_555
F8 Li11 2.054076 1_555
F8 V5 2.103239 1_555
F8 V4 2.181618 1_455
F8 V11 2.218198 1_545
F9 Li4 2.008877 1_555
F9 V9 2.092271 1_556
F9 V0 2.179317 1_555
F9 V10 2.212601 1_465
F10 Li8 2.034019 1_555
F10 V4 2.149052 1_555
F10 V5 2.227796 1_555
F10 V11 2.235631 1_645
F11 Li8 2.036380 1_555
F11 V8 2.107516 1_555
F11 V3 2.167877 1_555
F11 V2 2.190401 1_645
F12 Li2 1.927080 1_545
F12 Li7 1.963187 1_555
F12 Li6 1.979201 1_455
F12 V9 2.077895 1_555
F13 Li5 1.942458 1_455
F13 Li4 1.969664 1_555
F13 Li9 2.006580 1_545
F13 V8 2.089284 1_555
F14 Li5 1.940308 1_565
F14 Li4 1.962407 1_655
F14 Li9 1.964755 1_555
F14 V10 2.147647 1_565
F15 Li8 1.894740 1_555
F15 Li0 1.935920 1_545
F15 Li1 1.954184 1_655
F15 V2 2.151267 1_645
F16 Li8 1.919500 1_555
F16 Li0 1.957101 1_455
F16 Li1 1.979668 1_555
F16 V5 2.078333 1_555
F17 Li11 1.949619 1_555
F17 Li10 1.963600 1_545
F17 Li3 1.969867 1_555
F17 V6 2.115074 1_555
F18 Li10 1.996154 1_555
F18 V7 2.119539 1_655
F18 V1 2.210008 1_555
F18 V6 2.232921 1_565
F19 Li10 2.052089 1_545
F19 V4 2.133304 1_545
F19 V5 2.153561 1_555
F19 V11 2.244686 1_645
F20 Li5 2.035901 1_555
F20 V8 2.168727 1_655
F20 V2 2.199762 1_645
F20 V3 2.232334 1_555
F21 Li5 2.013196 1_455
F21 V9 2.133031 1_556
F21 V0 2.137756 1_455
F21 V10 2.226826 1_455
F22 Li2 2.020955 1_555
F22 V0 2.152908 1_554
F22 V10 2.189519 1_464
F22 V9 2.248032 1_565
F23 Li2 2.045889 1_545
F23 V1 2.160503 1_545
F23 V7 2.187689 1_545
F23 V6 2.189055 1_555
