# generated using pymatgen
data_Li4Mn5(Fe2O9)2
_symmetry_space_group_name_H-M   'P 1'
_cell_length_a   9.11755047
_cell_length_b   24.90984111
_cell_length_c   2.90992600
_cell_angle_alpha   89.99959143
_cell_angle_beta   89.99994774
_cell_angle_gamma   89.81857850
_symmetry_Int_Tables_number   1
_chemical_formula_structural   Li4Mn5(Fe2O9)2
_chemical_formula_sum   'Li8 Mn10 Fe8 O36'
_cell_volume   660.88957456
_cell_formula_units_Z   2
loop_
 _symmetry_equiv_pos_site_id
 _symmetry_equiv_pos_as_xyz
  1  'x, y, z'
loop_
 _atom_site_type_symbol
 _atom_site_label
 _atom_site_symmetry_multiplicity
 _atom_site_fract_x
 _atom_site_fract_y
 _atom_site_fract_z
 _atom_site_occupancy
  Li  Li0  1  0.17837000  0.99315200  0.00001500  1
  Li  Li1  1  0.20593800  0.20364200  0.99999900  1
  Li  Li2  1  0.29164100  0.70439300  0.99999900  1
  Li  Li3  1  0.32128200  0.49336200  0.00000200  1
  Li  Li4  1  0.67863000  0.50608600  0.99999700  1
  Li  Li5  1  0.71154000  0.29383200  0.99999800  1
  Li  Li6  1  0.79371600  0.79641600  0.00000300  1
  Li  Li7  1  0.82301700  0.00615000  0.00000100  1
  Mn  Mn0  1  0.99933600  0.50001200  0.00000000  1
  Mn  Mn1  1  0.00586900  0.10493200  0.00001700  1
  Mn  Mn2  1  0.14941700  0.80929400  0.49996900  1
  Mn  Mn3  1  0.34920400  0.30902800  0.50000000  1
  Mn  Mn4  1  0.49420500  0.60465000  0.00000100  1
  Mn  Mn5  1  0.49798100  0.99895600  0.00003200  1
  Mn  Mn6  1  0.50619100  0.39508900  0.99999600  1
  Mn  Mn7  1  0.64731800  0.69187000  0.49999600  1
  Mn  Mn8  1  0.85118400  0.19165000  0.50000500  1
  Mn  Mn9  1  0.99208600  0.89534500  0.99996300  1
  Fe  Fe0  1  0.01928600  0.30823800  0.00000300  1
  Fe  Fe1  1  0.14752000  0.58835600  0.49999600  1
  Fe  Fe2  1  0.35103300  0.08845100  0.50002200  1
  Fe  Fe3  1  0.48650800  0.80785100  0.99999200  1
  Fe  Fe4  1  0.51408200  0.19461900  0.00000300  1
  Fe  Fe5  1  0.64821600  0.91153100  0.50000500  1
  Fe  Fe6  1  0.85367400  0.41079000  0.50000300  1
  Fe  Fe7  1  0.98664500  0.69390300  0.99999600  1
  O  O0  1  0.99790100  0.42286300  0.00000300  1
  O  O1  1  0.00294700  0.57827900  0.99999700  1
  O  O2  1  0.04191200  0.94161800  0.49995400  1
  O  O3  1  0.04877300  0.15846200  0.50001200  1
  O  O4  1  0.11823400  0.66836500  0.49999500  1
  O  O5  1  0.10246900  0.76123000  0.99997400  1
  O  O6  1  0.14214900  0.50356000  0.50000000  1
  O  O7  1  0.15216600  0.28271200  0.50000100  1
  O  O8  1  0.18514000  0.85845300  0.99996200  1
  O  O9  1  0.20363700  0.08104700  0.00002200  1
  O  O10  1  0.29804600  0.58150000  0.99999800  1
  O  O11  1  0.31216300  0.35861100  0.99999700  1
  O  O12  1  0.34843100  0.78515300  0.49998600  1
  O  O13  1  0.35561400  0.00191500  0.50003200  1
  O  O14  1  0.39332000  0.26107900  0.00000200  1
  O  O15  1  0.38674400  0.16642200  0.50000900  1
  O  O16  1  0.45265200  0.65879300  0.49999800  1
  O  O17  1  0.45513000  0.44184000  0.49999300  1
  O  O18  1  0.49464500  0.07603000  0.00002400  1
  O  O19  1  0.50326800  0.92099600  0.00001600  1
  O  O20  1  0.54728900  0.55866000  0.50000400  1
  O  O21  1  0.54584400  0.34153000  0.49999900  1
  O  O22  1  0.61727100  0.83300600  0.49999500  1
  O  O23  1  0.60248700  0.73969000  0.99999400  1
  O  O24  1  0.64091100  0.99604500  0.50002600  1
  O  O25  1  0.65103700  0.21699600  0.50000100  1
  O  O26  1  0.68608500  0.64260400  0.99999900  1
  O  O27  1  0.70419200  0.41726200  0.00000100  1
  O  O28  1  0.79659700  0.91853800  0.99999500  1
  O  O29  1  0.81536400  0.14149500  0.00001000  1
  O  O30  1  0.84899200  0.71672700  0.49999400  1
  O  O31  1  0.85705900  0.49644500  0.50000000  1
  O  O32  1  0.89570600  0.23832300  0.00000200  1
  O  O33  1  0.88374300  0.33268800  0.50000200  1
  O  O34  1  0.95213500  0.84121300  0.49996300  1
  O  O35  1  0.95605800  0.05825600  0.50002300  1
loop_
_geom_bond_atom_site_label_1
_geom_bond_atom_site_label_2
_geom_bond_distance
_geom_bond_site_symmetry_2
Li0 O13 2.185910 1_564
Li0 O13 2.185980 1_565
Li0 O9 2.202262 1_565
Li0 O2 2.307016 1_555
Li0 O2 2.307253 1_554
Li1 O14 2.231898 1_556
Li1 O3 2.333882 1_555
Li1 O3 2.333918 1_556
Li1 O15 2.384186 1_555
Li1 O15 2.384215 1_556
Li1 O7 2.496100 1_555
Li1 O7 2.496123 1_556
Li2 O5 2.227984 1_555
Li2 O4 2.330445 1_556
Li2 O4 2.330470 1_555
Li2 O16 2.356199 1_556
Li2 O16 2.356211 1_555
Li2 O12 2.537432 1_556
Li2 O12 2.537458 1_555
Li3 O6 2.201437 1_555
Li3 O6 2.201444 1_554
Li3 O10 2.205034 1_554
Li3 O17 2.289830 1_555
Li3 O17 2.289873 1_554
Li4 O31 2.195151 1_555
Li4 O31 2.195162 1_556
Li4 O27 2.224099 1_556
Li4 O20 2.292598 1_555
Li4 O20 2.292635 1_556
Li5 O32 2.171804 1_556
Li5 O33 2.351260 1_555
Li5 O33 2.351285 1_556
Li5 O21 2.408228 1_555
Li5 O21 2.408240 1_556
Li5 O25 2.468033 1_556
Li5 O25 2.468039 1_555
Li6 O23 2.247711 1_554
Li6 O34 2.336298 1_555
Li6 O34 2.336431 1_554
Li6 O22 2.350827 1_555
Li6 O22 2.350849 1_554
Li6 O30 2.510946 1_555
Li6 O30 2.510992 1_554
Li7 O28 2.196413 1_544
Li7 O24 2.222503 1_544
Li7 O24 2.222594 1_545
Li7 O35 2.298421 1_554
Li7 O35 2.298515 1_555
Mn0 O0 1.921855 1_555
Mn0 O1 1.950001 1_654
Mn0 O31 1.951489 1_555
Mn0 O31 1.951492 1_554
Mn0 O6 1.954720 1_654
Mn0 O6 1.954722 1_655
Mn1 O9 1.896993 1_555
Mn1 O35 1.917901 1_454
Mn1 O35 1.917914 1_455
Mn1 O29 1.958687 1_455
Mn1 O3 2.012771 1_555
Mn1 O3 2.012778 1_554
Mn2 O12 1.909763 1_555
Mn2 O8 1.930026 1_555
Mn2 O8 1.930043 1_554
Mn2 O5 1.933086 1_554
Mn2 O5 1.933094 1_555
Mn2 O34 1.964319 1_455
Mn3 O7 1.914315 1_555
Mn3 O14 1.924124 1_556
Mn3 O14 1.924127 1_555
Mn3 O11 1.937477 1_555
Mn3 O11 1.937477 1_554
Mn3 O21 1.969537 1_555
Mn4 O10 1.880895 1_554
Mn4 O20 1.913129 1_554
Mn4 O20 1.913131 1_555
Mn4 O26 1.991224 1_554
Mn4 O16 2.018958 1_554
Mn4 O16 2.018958 1_555
Mn5 O18 1.920046 1_565
Mn5 O19 1.942417 1_555
Mn5 O13 1.951063 1_565
Mn5 O13 1.951064 1_564
Mn5 O24 1.954427 1_555
Mn5 O24 1.954452 1_554
Mn6 O27 1.889558 1_556
Mn6 O17 1.920005 1_556
Mn6 O17 1.920006 1_555
Mn6 O11 1.991336 1_555
Mn6 O21 2.006120 1_556
Mn6 O21 2.006121 1_555
Mn7 O23 1.923495 1_554
Mn7 O23 1.923499 1_555
Mn7 O26 1.935237 1_554
Mn7 O26 1.935238 1_555
Mn7 O30 1.942083 1_555
Mn7 O16 1.959166 1_555
Mn8 O32 1.906925 1_556
Mn8 O32 1.906926 1_555
Mn8 O25 1.929094 1_555
Mn8 O29 1.946029 1_555
Mn8 O29 1.946037 1_556
Mn8 O3 1.979777 1_655
Mn9 O28 1.871934 1_555
Mn9 O2 1.911850 1_656
Mn9 O2 1.911877 1_655
Mn9 O8 1.983054 1_655
Mn9 O34 2.017651 1_556
Mn9 O34 2.017665 1_555
Fe0 O7 1.996032 1_555
Fe0 O7 1.996046 1_554
Fe0 O33 2.002583 1_454
Fe0 O33 2.002583 1_455
Fe0 O32 2.077272 1_455
Fe1 O1 1.979784 1_555
Fe1 O1 1.979784 1_554
Fe1 O10 2.007023 1_554
Fe1 O10 2.007032 1_555
Fe1 O4 2.009981 1_555
Fe1 O6 2.112977 1_555
Fe2 O15 1.970364 1_555
Fe2 O18 1.981053 1_555
Fe2 O18 1.981060 1_556
Fe2 O9 1.989607 1_556
Fe2 O9 1.989611 1_555
Fe2 O13 2.155870 1_555
Fe3 O22 1.983854 1_555
Fe3 O22 1.983875 1_556
Fe3 O23 1.997402 1_555
Fe3 O12 2.006472 1_556
Fe3 O12 2.006505 1_555
Fe4 O14 1.985317 1_555
Fe4 O15 1.990813 1_554
Fe4 O15 1.990829 1_555
Fe4 O25 1.997815 1_555
Fe4 O25 1.997816 1_554
Fe5 O22 1.977173 1_555
Fe5 O19 1.979138 1_555
Fe5 O19 1.979186 1_556
Fe5 O28 1.994758 1_555
Fe5 O28 1.994797 1_554
Fe5 O24 2.106073 1_555
Fe6 O33 1.963870 1_555
Fe6 O0 1.984709 1_555
Fe6 O0 1.984714 1_556
Fe6 O27 1.999756 1_556
Fe6 O27 1.999764 1_555
Fe6 O31 2.133973 1_555
Fe7 O5 1.984716 1_655
Fe7 O4 1.989019 1_656
Fe7 O4 1.989028 1_655
Fe7 O30 2.002699 1_556
Fe7 O30 2.002703 1_555
