# generated using pymatgen
data_Ga2HgO4
_symmetry_space_group_name_H-M   'P 1'
_cell_length_a   3.02591500
_cell_length_b   9.32092900
_cell_length_c   10.96201400
_cell_angle_alpha   90.00000000
_cell_angle_beta   90.00000000
_cell_angle_gamma   90.00000000
_symmetry_Int_Tables_number   1
_chemical_formula_structural   Ga2HgO4
_chemical_formula_sum   'Ga8 Hg4 O16'
_cell_volume   309.17635761
_cell_formula_units_Z   4
loop_
 _symmetry_equiv_pos_site_id
 _symmetry_equiv_pos_as_xyz
  1  'x, y, z'
loop_
 _atom_site_type_symbol
 _atom_site_label
 _atom_site_symmetry_multiplicity
 _atom_site_fract_x
 _atom_site_fract_y
 _atom_site_fract_z
 _atom_site_occupancy
  Ga  Ga0  1  0.75000000  0.08069500  0.60565800  1
  Ga  Ga1  1  0.75000000  0.06824800  0.11176500  1
  Ga  Ga2  1  0.25000000  0.43175200  0.61176500  1
  Ga  Ga3  1  0.25000000  0.41930500  0.10565800  1
  Ga  Ga4  1  0.75000000  0.58069500  0.89434200  1
  Ga  Ga5  1  0.75000000  0.56824800  0.38823500  1
  Ga  Ga6  1  0.25000000  0.93175200  0.88823500  1
  Ga  Ga7  1  0.25000000  0.91930500  0.39434200  1
  Hg  Hg0  1  0.75000000  0.24300400  0.34683000  1
  Hg  Hg1  1  0.25000000  0.25699600  0.84683000  1
  Hg  Hg2  1  0.75000000  0.74300400  0.15317000  1
  Hg  Hg3  1  0.25000000  0.75699600  0.65317000  1
  O  O0  1  0.25000000  0.02299900  0.71545200  1
  O  O1  1  0.75000000  0.07506400  0.92899400  1
  O  O2  1  0.25000000  0.11247700  0.48166000  1
  O  O3  1  0.25000000  0.20625900  0.14971400  1
  O  O4  1  0.75000000  0.29374100  0.64971400  1
  O  O5  1  0.75000000  0.38752300  0.98166000  1
  O  O6  1  0.25000000  0.42493600  0.42899400  1
  O  O7  1  0.75000000  0.47700100  0.21545200  1
  O  O8  1  0.25000000  0.52299900  0.78454800  1
  O  O9  1  0.75000000  0.57506400  0.57100600  1
  O  O10  1  0.25000000  0.61247700  0.01834000  1
  O  O11  1  0.25000000  0.70625900  0.35028600  1
  O  O12  1  0.75000000  0.79374100  0.85028600  1
  O  O13  1  0.75000000  0.88752300  0.51834000  1
  O  O14  1  0.25000000  0.92493600  0.07100600  1
  O  O15  1  0.75000000  0.97700100  0.28454800  1
loop_
_geom_bond_atom_site_label_1
_geom_bond_atom_site_label_2
_geom_bond_distance
_geom_bond_site_symmetry_2
Ga0 O0 2.006692 1_555
Ga0 O0 2.006692 1_655
Ga0 O13 2.039154 1_545
Ga0 O4 2.043669 1_555
Ga0 O2 2.055336 1_555
Ga0 O2 2.055336 1_655
Ga1 O1 2.004545 1_554
Ga1 O3 2.029013 1_555
Ga1 O3 2.029013 1_655
Ga1 O14 2.067132 1_545
Ga1 O14 2.067132 1_645
Ga1 O15 2.076243 1_545
Ga2 O6 2.004545 1_555
Ga2 O4 2.029013 1_555
Ga2 O4 2.029013 1_455
Ga2 O9 2.067132 1_555
Ga2 O9 2.067132 1_455
Ga2 O8 2.076243 1_555
Ga3 O7 2.006692 1_455
Ga3 O7 2.006692 1_555
Ga3 O10 2.039154 1_555
Ga3 O3 2.043669 1_555
Ga3 O5 2.055336 1_454
Ga3 O5 2.055336 1_554
Ga4 O8 2.006692 1_655
Ga4 O8 2.006692 1_555
Ga4 O5 2.039154 1_555
Ga4 O12 2.043669 1_555
Ga4 O10 2.055336 1_656
Ga4 O10 2.055336 1_556
Ga5 O9 2.004545 1_555
Ga5 O11 2.029013 1_655
Ga5 O11 2.029013 1_555
Ga5 O6 2.067132 1_655
Ga5 O6 2.067132 1_555
Ga5 O7 2.076243 1_555
Ga6 O14 2.004545 1_556
Ga6 O12 2.029013 1_555
Ga6 O12 2.029013 1_455
Ga6 O1 2.067132 1_565
Ga6 O1 2.067132 1_465
Ga6 O0 2.076243 1_565
Ga7 O15 2.006692 1_455
Ga7 O15 2.006692 1_555
Ga7 O2 2.039154 1_565
Ga7 O11 2.043669 1_555
Ga7 O13 2.055336 1_555
Ga7 O13 2.055336 1_455
Hg0 O2 2.440030 1_655
Hg0 O2 2.440030 1_555
Hg0 O6 2.444570 1_655
Hg0 O6 2.444570 1_555
Hg0 O15 2.571678 1_545
Hg0 O7 2.613646 1_555
Hg0 O3 2.659953 1_555
Hg0 O3 2.659953 1_655
Hg1 O5 2.440030 1_455
Hg1 O5 2.440030 1_555
Hg1 O1 2.444570 1_455
Hg1 O1 2.444570 1_555
Hg1 O8 2.571678 1_555
Hg1 O0 2.613646 1_555
Hg1 O4 2.659953 1_555
Hg1 O4 2.659953 1_455
Hg2 O10 2.440030 1_655
Hg2 O10 2.440030 1_555
Hg2 O14 2.444570 1_555
Hg2 O14 2.444570 1_655
Hg2 O7 2.571678 1_555
Hg2 O15 2.613646 1_555
Hg2 O11 2.659953 1_555
Hg2 O11 2.659953 1_655
Hg3 O13 2.440030 1_455
Hg3 O13 2.440030 1_555
Hg3 O9 2.444570 1_555
Hg3 O9 2.444570 1_455
Hg3 O0 2.571678 1_565
Hg3 O8 2.613646 1_555
Hg3 O12 2.659953 1_555
Hg3 O12 2.659953 1_455
