# generated using pymatgen
data_Rb4TiO4
_symmetry_space_group_name_H-M   'P 1'
_cell_length_a   6.85250311
_cell_length_b   11.02038918
_cell_length_c   11.07427060
_cell_angle_alpha   67.89774771
_cell_angle_beta   90.00000000
_cell_angle_gamma   90.00000000
_symmetry_Int_Tables_number   1
_chemical_formula_structural   Rb4TiO4
_chemical_formula_sum   'Rb16 Ti4 O16'
_cell_volume   774.84211099
_cell_formula_units_Z   4
loop_
 _symmetry_equiv_pos_site_id
 _symmetry_equiv_pos_as_xyz
  1  'x, y, z'
loop_
 _atom_site_type_symbol
 _atom_site_label
 _atom_site_symmetry_multiplicity
 _atom_site_fract_x
 _atom_site_fract_y
 _atom_site_fract_z
 _atom_site_occupancy
  Rb  Rb0  1  0.68818611  0.28902139  0.07951857  1
  Rb  Rb1  1  0.17634110  0.39192735  0.12505859  1
  Rb  Rb2  1  0.38903131  0.07428826  0.34082168  1
  Rb  Rb3  1  0.81181389  0.78902139  0.07951857  1
  Rb  Rb4  1  0.32365890  0.89192735  0.12505859  1
  Rb  Rb5  1  0.92261238  0.20552451  0.43269210  1
  Rb  Rb6  1  0.11096869  0.57428826  0.34082168  1
  Rb  Rb7  1  0.42261238  0.29447549  0.56730790  1
  Rb  Rb8  1  0.57738762  0.70552451  0.43269210  1
  Rb  Rb9  1  0.88903131  0.42571174  0.65917832  1
  Rb  Rb10  1  0.07738762  0.79447549  0.56730790  1
  Rb  Rb11  1  0.67634110  0.10807265  0.87494141  1
  Rb  Rb12  1  0.18818611  0.21097861  0.92048143  1
  Rb  Rb13  1  0.61096869  0.92571174  0.65917832  1
  Rb  Rb14  1  0.82365890  0.60807265  0.87494141  1
  Rb  Rb15  1  0.31181389  0.71097861  0.92048143  1
  Ti  Ti0  1  0.62540647  0.48783155  0.25996412  1
  Ti  Ti1  1  0.87459353  0.98783155  0.25996412  1
  Ti  Ti2  1  0.12540647  0.01216845  0.74003588  1
  Ti  Ti3  1  0.37459353  0.51216845  0.74003588  1
  O  O0  1  0.03446948  0.13295109  0.18853525  1
  O  O1  1  0.83186672  0.50516625  0.14809621  1
  O  O2  1  0.49293284  0.33480200  0.28737641  1
  O  O3  1  0.46553052  0.63295109  0.18853525  1
  O  O4  1  0.66813328  0.00516625  0.14809621  1
  O  O5  1  0.72633626  0.47782172  0.41566139  1
  O  O6  1  0.22633626  0.02217828  0.58433861  1
  O  O7  1  0.00706716  0.83480200  0.28737641  1
  O  O8  1  0.99293284  0.16519800  0.71262359  1
  O  O9  1  0.77366374  0.97782172  0.41566139  1
  O  O10  1  0.27366374  0.52217828  0.58433861  1
  O  O11  1  0.33186672  0.99483375  0.85190379  1
  O  O12  1  0.53446948  0.36704891  0.81146475  1
  O  O13  1  0.50706716  0.66519800  0.71262359  1
  O  O14  1  0.16813328  0.49483375  0.85190379  1
  O  O15  1  0.96553052  0.86704891  0.81146475  1
loop_
_geom_bond_atom_site_label_1
_geom_bond_atom_site_label_2
_geom_bond_distance
_geom_bond_site_symmetry_2
O0 Ti1 1.852468 1_445
O0 Rb1 2.841646 1_555
O0 Rb2 2.888732 1_555
O0 Rb0 2.912710 1_455
O0 Rb12 2.956360 1_554
O0 Rb5 3.188318 1_455
O1 Ti0 1.842481 1_555
O1 Rb1 2.726543 1_655
O1 Rb14 2.803263 1_554
O1 Rb0 2.929400 1_555
O1 Rb3 2.931463 1_555
O1 Rb6 3.164927 1_655
O2 Ti0 1.837132 1_555
O2 Rb1 2.735403 1_555
O2 Rb2 2.796596 1_555
O2 Rb0 2.866578 1_555
O2 Rb7 3.000531 1_555
O2 Rb5 3.400521 1_555
O3 Ti0 1.852468 1_555
O3 Rb4 2.841646 1_555
O3 Rb6 2.888732 1_555
O3 Rb3 2.912710 1_555
O3 Rb15 2.956360 1_554
O3 Rb8 3.188318 1_555
O4 Ti1 1.842481 1_545
O4 Rb4 2.726543 1_545
O4 Rb11 2.803263 1_554
O4 Rb3 2.929400 1_545
O4 Rb0 2.931463 1_555
O4 Rb2 3.164927 1_555
O5 Ti0 1.822185 1_555
O5 Rb9 2.771261 1_555
O5 Rb8 2.780368 1_555
O5 Rb6 2.846213 1_655
O5 Rb7 2.946369 1_555
O5 Rb5 3.228557 1_555
O6 Ti2 1.822185 1_555
O6 Rb2 2.771261 1_555
O6 Rb10 2.780368 1_545
O6 Rb13 2.846213 1_545
O6 Rb5 2.946369 1_455
O6 Rb7 3.228557 1_555
O7 Ti1 1.837132 1_455
O7 Rb4 2.735403 1_555
O7 Rb6 2.796596 1_555
O7 Rb3 2.866578 1_455
O7 Rb10 3.000531 1_555
O7 Rb8 3.400521 1_455
O8 Ti2 1.837132 1_655
O8 Rb11 2.735403 1_555
O8 Rb9 2.796596 1_555
O8 Rb12 2.866578 1_655
O8 Rb5 3.000531 1_555
O8 Rb7 3.400521 1_655
O9 Ti1 1.822185 1_555
O9 Rb13 2.771261 1_555
O9 Rb5 2.780368 1_565
O9 Rb2 2.846213 1_565
O9 Rb10 2.946369 1_655
O9 Rb8 3.228557 1_555
O10 Ti3 1.822185 1_555
O10 Rb6 2.771261 1_555
O10 Rb7 2.780368 1_555
O10 Rb9 2.846213 1_455
O10 Rb8 2.946369 1_555
O10 Rb10 3.228557 1_555
O11 Ti2 1.842481 1_565
O11 Rb11 2.726543 1_565
O11 Rb4 2.803263 1_556
O11 Rb12 2.929400 1_565
O11 Rb15 2.931463 1_555
O11 Rb13 3.164927 1_555
O12 Ti3 1.852468 1_555
O12 Rb11 2.841646 1_555
O12 Rb9 2.888732 1_555
O12 Rb12 2.912710 1_555
O12 Rb0 2.956360 1_556
O12 Rb7 3.188318 1_555
O13 Ti3 1.837132 1_555
O13 Rb14 2.735403 1_555
O13 Rb13 2.796596 1_555
O13 Rb15 2.866578 1_555
O13 Rb8 3.000531 1_555
O13 Rb10 3.400521 1_555
O14 Ti3 1.842481 1_555
O14 Rb14 2.726543 1_455
O14 Rb1 2.803263 1_556
O14 Rb15 2.929400 1_555
O14 Rb12 2.931463 1_555
O14 Rb9 3.164927 1_455
O15 Ti2 1.852468 1_665
O15 Rb14 2.841646 1_555
O15 Rb13 2.888732 1_555
O15 Rb15 2.912710 1_655
O15 Rb3 2.956360 1_556
O15 Rb10 3.188318 1_655
