# generated using pymatgen
data_CoAgO3
_symmetry_space_group_name_H-M   'P 1'
_cell_length_a   5.95694083
_cell_length_b   5.95682317
_cell_length_c   5.95650910
_cell_angle_alpha   49.60680160
_cell_angle_beta   49.60418098
_cell_angle_gamma   49.60355886
_symmetry_Int_Tables_number   1
_chemical_formula_structural   CoAgO3
_chemical_formula_sum   'Co2 Ag2 O6'
_cell_volume   112.71986321
_cell_formula_units_Z   2
loop_
 _symmetry_equiv_pos_site_id
 _symmetry_equiv_pos_as_xyz
  1  'x, y, z'
loop_
 _atom_site_type_symbol
 _atom_site_label
 _atom_site_symmetry_multiplicity
 _atom_site_fract_x
 _atom_site_fract_y
 _atom_site_fract_z
 _atom_site_occupancy
  Co  Co0  1  0.16307000  0.16314500  0.16310800  1
  Co  Co1  1  0.83693200  0.83685300  0.83688800  1
  Ag  Ag0  1  0.36229200  0.36227700  0.36227000  1
  Ag  Ag1  1  0.63770800  0.63772400  0.63772800  1
  O  O0  1  0.03923500  0.81789200  0.44085400  1
  O  O1  1  0.55918800  0.96076200  0.18208300  1
  O  O2  1  0.18210000  0.55917700  0.96073500  1
  O  O3  1  0.81789600  0.44082400  0.03927100  1
  O  O4  1  0.44081000  0.03924000  0.81791800  1
  O  O5  1  0.96076800  0.18210500  0.55914600  1
loop_
_geom_bond_atom_site_label_1
_geom_bond_atom_site_label_2
_geom_bond_distance
_geom_bond_site_symmetry_2
Co0 O3 1.866597 1_455
Co0 O4 1.866718 1_554
Co0 O0 1.866993 1_545
Co0 O5 1.874603 1_455
Co0 O2 1.874862 1_554
Co0 O1 1.875110 1_545
Co1 O2 1.866603 1_655
Co1 O1 1.866752 1_556
Co1 O5 1.866993 1_565
Co1 O0 1.874583 1_655
Co1 O3 1.874850 1_556
Co1 O4 1.875112 1_565
Ag0 O3 2.235546 1_555
Ag0 O0 2.235553 1_555
Ag0 O4 2.235565 1_555
Ag0 O1 2.511465 1_545
Ag0 O2 2.511617 1_554
Ag0 O5 2.511692 1_455
Ag1 O1 2.235556 1_555
Ag1 O2 2.235562 1_555
Ag1 O5 2.235566 1_555
Ag1 O4 2.511478 1_565
Ag1 O3 2.511644 1_556
Ag1 O0 2.511696 1_655
