# generated using pymatgen
data_Li2CrFeO4
_symmetry_space_group_name_H-M   'P 1'
_cell_length_a   9.91031277
_cell_length_b   9.91031277
_cell_length_c   5.15944679
_cell_angle_alpha   84.62453424
_cell_angle_beta   84.62453424
_cell_angle_gamma   17.25311732
_symmetry_Int_Tables_number   1
_chemical_formula_structural   Li2CrFeO4
_chemical_formula_sum   'Li4 Cr2 Fe2 O8'
_cell_volume   149.61706067
_cell_formula_units_Z   2
loop_
 _symmetry_equiv_pos_site_id
 _symmetry_equiv_pos_as_xyz
  1  'x, y, z'
loop_
 _atom_site_type_symbol
 _atom_site_label
 _atom_site_symmetry_multiplicity
 _atom_site_fract_x
 _atom_site_fract_y
 _atom_site_fract_z
 _atom_site_occupancy
  Li  Li0  1  0.00000000  0.00000000  0.00000000  1
  Li  Li1  1  0.25112000  0.25112000  0.24438500  1
  Li  Li2  1  0.50000000  0.50000000  0.50000000  1
  Li  Li3  1  0.74888000  0.74888000  0.75561500  1
  Cr  Cr0  1  0.12582800  0.12582800  0.62595300  1
  Cr  Cr1  1  0.87417200  0.87417200  0.37404700  1
  Fe  Fe0  1  0.62570700  0.62570700  0.12614400  1
  Fe  Fe1  1  0.37429300  0.37429300  0.87385600  1
  O  O0  1  0.06849000  0.06849000  0.31524600  1
  O  O1  1  0.81862500  0.81862500  0.06203400  1
  O  O2  1  0.43212700  0.43212700  0.18736100  1
  O  O3  1  0.31983500  0.31983500  0.55831900  1
  O  O4  1  0.68016500  0.68016500  0.44168100  1
  O  O5  1  0.18137500  0.18137500  0.93796600  1
  O  O6  1  0.93151000  0.93151000  0.68475400  1
  O  O7  1  0.56787300  0.56787300  0.81263900  1
loop_
_geom_bond_atom_site_label_1
_geom_bond_atom_site_label_2
_geom_bond_distance
_geom_bond_site_symmetry_2
Li0 O7 2.160907 1_454
Li0 O7 2.160907 1_544
Li0 O2 2.160907 1_545
Li0 O2 2.160907 1_455
Li0 O0 2.204670 1_555
Li0 O6 2.204670 1_444
Li1 O1 2.146831 1_455
Li1 O1 2.146831 1_545
Li1 O5 2.185612 1_554
Li1 O3 2.202290 1_555
Li1 O4 2.216075 1_545
Li1 O4 2.216075 1_455
Li2 O6 2.162686 1_545
Li2 O6 2.162686 1_455
Li2 O0 2.162686 1_655
Li2 O0 2.162686 1_565
Li2 O7 2.185765 1_555
Li2 O2 2.185765 1_555
Li3 O5 2.146831 1_565
Li3 O5 2.146831 1_655
Li3 O1 2.185612 1_556
Li3 O4 2.202290 1_555
Li3 O3 2.216075 1_565
Li3 O3 2.216075 1_655
Cr0 O4 2.013830 1_455
Cr0 O4 2.013830 1_545
Cr0 O5 2.026933 1_555
Cr0 O0 2.042969 1_555
Cr0 O7 2.054243 1_455
Cr0 O7 2.054243 1_545
Cr1 O3 2.013830 1_655
Cr1 O3 2.013830 1_565
Cr1 O1 2.026933 1_555
Cr1 O6 2.042969 1_555
Cr1 O2 2.054243 1_655
Cr1 O2 2.054243 1_565
Fe0 O4 2.029407 1_555
Fe0 O5 2.035092 1_564
Fe0 O5 2.035092 1_654
Fe0 O0 2.052177 1_565
Fe0 O0 2.052177 1_655
Fe0 O7 2.061117 1_554
Fe1 O3 2.029407 1_555
Fe1 O1 2.035092 1_546
Fe1 O1 2.035092 1_456
Fe1 O6 2.052177 1_545
Fe1 O6 2.052177 1_455
Fe1 O2 2.061117 1_556
