# generated using pymatgen
data_LiCoOF2
_symmetry_space_group_name_H-M   'P 1'
_cell_length_a   5.09979900
_cell_length_b   8.89102502
_cell_length_c   9.44460964
_cell_angle_alpha   93.09906978
_cell_angle_beta   90.00000000
_cell_angle_gamma   90.00000000
_symmetry_Int_Tables_number   1
_chemical_formula_structural   LiCoOF2
_chemical_formula_sum   'Li8 Co8 O8 F16'
_cell_volume   427.61536794
_cell_formula_units_Z   8
loop_
 _symmetry_equiv_pos_site_id
 _symmetry_equiv_pos_as_xyz
  1  'x, y, z'
loop_
 _atom_site_type_symbol
 _atom_site_label
 _atom_site_symmetry_multiplicity
 _atom_site_fract_x
 _atom_site_fract_y
 _atom_site_fract_z
 _atom_site_occupancy
  Li  Li0  1  0.18029800  0.16557900  0.99666400  1
  Li  Li1  1  0.16036000  0.82952600  0.79760500  1
  Li  Li2  1  0.33964000  0.32952600  0.29760500  1
  Li  Li3  1  0.31970200  0.66557900  0.49666400  1
  Li  Li4  1  0.67450700  0.35645200  0.99206900  1
  Li  Li5  1  0.66497200  0.66137600  0.79508100  1
  Li  Li6  1  0.83502800  0.16137600  0.29508100  1
  Li  Li7  1  0.82549300  0.85645200  0.49206900  1
  Co  Co0  1  0.19934500  0.46950000  0.80037900  1
  Co  Co1  1  0.22757200  0.13325600  0.58775000  1
  Co  Co2  1  0.27242800  0.63325600  0.08775000  1
  Co  Co3  1  0.30065500  0.96950000  0.30037900  1
  Co  Co4  1  0.65506300  0.01609000  0.80056100  1
  Co  Co5  1  0.65411700  0.33730300  0.56649700  1
  Co  Co6  1  0.84588300  0.83730300  0.06649700  1
  Co  Co7  1  0.84493700  0.51609000  0.30056100  1
  O  O0  1  0.06515100  0.02295000  0.43400900  1
  O  O1  1  0.00500500  0.69311300  0.95372100  1
  O  O2  1  0.15652400  0.82579000  0.17156800  1
  O  O3  1  0.13818800  0.50179400  0.20373800  1
  O  O4  1  0.36181200  0.00179400  0.70373800  1
  O  O5  1  0.34347600  0.32579000  0.67156800  1
  O  O6  1  0.49499500  0.19311300  0.45372100  1
  O  O7  1  0.43484900  0.52295000  0.93400900  1
  F  F0  1  0.01689000  0.33391200  0.92466000  1
  F  F1  1  0.18087900  0.15516000  0.19479300  1
  F  F2  1  0.31912100  0.65516000  0.69479300  1
  F  F3  1  0.48311000  0.83391200  0.42466000  1
  F  F4  1  0.52818000  0.16977900  0.93758100  1
  F  F5  1  0.52854700  0.50003700  0.42733000  1
  F  F6  1  0.54259800  0.84263500  0.93251300  1
  F  F7  1  0.64608900  0.66064700  0.17961700  1
  F  F8  1  0.66920600  0.34173100  0.19441700  1
  F  F9  1  0.66158800  0.98336900  0.19822500  1
  F  F10  1  0.83841200  0.48336900  0.69822500  1
  F  F11  1  0.83079400  0.84173100  0.69441700  1
  F  F12  1  0.85391100  0.16064700  0.67961700  1
  F  F13  1  0.95740200  0.34263500  0.43251300  1
  F  F14  1  0.97145300  0.00003700  0.92733000  1
  F  F15  1  0.97182000  0.66977900  0.43758100  1
loop_
_geom_bond_atom_site_label_1
_geom_bond_atom_site_label_2
_geom_bond_distance
_geom_bond_site_symmetry_2
Li1 O4 2.081865 1_565
Li1 O1 2.113313 1_555
Li2 O3 2.081865 1_555
Li2 O6 2.113313 1_555
Li4 O7 2.018330 1_555
Li5 O7 2.188220 1_555
Li5 O1 2.299107 1_655
Li6 O0 2.188220 1_655
Li6 O6 2.299107 1_555
Li7 O0 2.018330 1_665
Co0 O7 1.787820 1_555
Co0 O5 1.866773 1_555
Co0 F0 1.962101 1_555
Co0 F2 2.066491 1_555
Co0 F10 2.084956 1_455
Co0 O1 2.592512 1_555
Co1 O4 1.781382 1_555
Co1 O0 1.897983 1_555
Co1 O5 1.939041 1_555
Co1 O6 1.954075 1_555
Co1 F12 2.102515 1_455
Co2 O3 1.781382 1_555
Co2 O7 1.897983 1_554
Co2 O2 1.939041 1_555
Co2 O1 1.954075 1_554
Co2 F7 2.102515 1_555
Co3 O0 1.787820 1_565
Co3 O2 1.866773 1_555
Co3 F3 1.962101 1_555
Co3 F1 2.066491 1_565
Co3 F9 2.084956 1_555
Co3 O6 2.592512 1_565
Co4 O4 1.753967 1_555
Co4 F4 1.941494 1_555
Co4 F11 2.010801 1_545
Co4 F14 2.018861 1_555
Co4 F12 2.035627 1_555
Co4 F6 2.113818 1_545
Co5 O6 1.813527 1_555
Co5 O5 1.875084 1_555
Co5 F10 1.985710 1_555
Co5 F13 2.000574 1_555
Co5 F5 2.106358 1_555
Co5 F12 2.197269 1_555
Co6 O1 1.813527 1_654
Co6 O2 1.875084 1_655
Co6 F9 1.985710 1_555
Co6 F6 2.000574 1_554
Co6 F14 2.106358 1_564
Co6 F7 2.197269 1_555
Co7 O3 1.753967 1_655
Co7 F15 1.941494 1_555
Co7 F8 2.010801 1_555
Co7 F5 2.018861 1_555
Co7 F7 2.035627 1_555
Co7 F13 2.113818 1_555
F0 Li4 1.865611 1_455
F0 Li0 1.872687 1_555
F1 Li0 1.878540 1_554
F1 Li2 1.959349 1_555
F1 Li6 2.001358 1_455
F2 Li3 1.878540 1_555
F2 Li1 1.959349 1_555
F2 Li5 2.001358 1_555
F3 Li7 1.865611 1_555
F3 Li3 1.872687 1_555
F4 Li0 1.860796 1_555
F4 Li4 1.866548 1_555
F5 Li3 1.904014 1_555
F5 Li2 2.127607 1_555
F6 Li5 2.108380 1_555
F6 Li1 2.328285 1_555
F8 Li4 1.922811 1_554
F8 Li2 1.948799 1_555
F8 Li6 2.086915 1_555
F9 Li6 1.991844 1_565
F10 Li5 1.991844 1_555
F11 Li7 1.922811 1_555
F11 Li1 1.948799 1_655
F11 Li5 2.086915 1_555
F13 Li6 2.108380 1_555
F13 Li2 2.328285 1_655
F14 Li0 1.904014 1_655
F14 Li1 2.127607 1_645
F15 Li3 1.860796 1_655
F15 Li7 1.866548 1_555
