# generated using pymatgen
data_Ba5Y3F19
_symmetry_space_group_name_H-M   'P 1'
_cell_length_a   11.94569667
_cell_length_b   11.94569667
_cell_length_c   11.94569667
_cell_angle_alpha   97.04726741
_cell_angle_beta   97.04726741
_cell_angle_gamma   138.99250481
_symmetry_Int_Tables_number   1
_chemical_formula_structural   Ba5Y3F19
_chemical_formula_sum   'Ba10 Y6 F38'
_cell_volume   1047.65843899
_cell_formula_units_Z   2
loop_
 _symmetry_equiv_pos_site_id
 _symmetry_equiv_pos_as_xyz
  1  'x, y, z'
loop_
 _atom_site_type_symbol
 _atom_site_label
 _atom_site_symmetry_multiplicity
 _atom_site_fract_x
 _atom_site_fract_y
 _atom_site_fract_z
 _atom_site_occupancy
  Ba  Ba0  1  0.30931100  0.80931100  0.50000000  1
  Ba  Ba1  1  0.73340100  0.55620300  0.30237100  1
  Ba  Ba2  1  0.75383200  0.05620300  0.82280200  1
  Ba  Ba3  1  0.05620300  0.23340100  0.30237100  1
  Ba  Ba4  1  0.43103000  0.73340100  0.17719800  1
  Ba  Ba5  1  0.55620300  0.25383200  0.82280200  1
  Ba  Ba6  1  0.93103000  0.75383200  0.69762900  1
  Ba  Ba7  1  0.25383200  0.43103000  0.69762900  1
  Ba  Ba8  1  0.23340100  0.93103000  0.17719800  1
  Ba  Ba9  1  0.80931100  0.30931100  0.50000000  1
  Y  Y0  1  0.83536500  0.33536500  0.16431000  1
  Y  Y1  1  0.83293800  0.83293800  0.00000000  1
  Y  Y2  1  0.33293800  0.33293800  0.00000000  1
  Y  Y3  1  0.33536500  0.17105400  0.50000000  1
  Y  Y4  1  0.67105400  0.83536500  0.50000000  1
  Y  Y5  1  0.17105400  0.67105400  0.83569000  1
  F  F0  1  0.06964300  0.41215100  0.16338900  1
  F  F1  1  0.91215100  0.56964300  0.16338900  1
  F  F2  1  0.98857200  0.48857200  0.35633800  1
  F  F3  1  0.52159200  0.74244200  0.63028100  1
  F  F4  1  0.61216100  0.24244200  0.22084900  1
  F  F5  1  0.94837700  0.75417900  0.98897000  1
  F  F6  1  0.58580700  0.58580700  0.00000000  1
  F  F7  1  0.08580700  0.08580700  0.00000000  1
  F  F8  1  0.44837700  0.45940700  0.19419800  1
  F  F9  1  0.11216100  0.89131200  0.36971900  1
  F  F10  1  0.13223400  0.63223400  0.64366200  1
  F  F11  1  0.55729900  0.05729900  0.70978300  1
  F  F12  1  0.84751600  0.55729900  0.50000000  1
  F  F13  1  0.95940700  0.94837700  0.19419800  1
  F  F14  1  0.25417900  0.44837700  0.98897000  1
  F  F15  1  0.24244200  0.02159200  0.63028100  1
  F  F16  1  0.75703400  0.72600600  0.50000000  1
  F  F17  1  0.72600600  0.22600600  0.96897300  1
  F  F18  1  0.74876200  0.91215100  0.34250800  1
  F  F19  1  0.24876200  0.90625400  0.83661100  1
  F  F20  1  0.56964300  0.40625400  0.65749200  1
  F  F21  1  0.25703400  0.75703400  0.03102700  1
  F  F22  1  0.22600600  0.25703400  0.50000000  1
  F  F23  1  0.39131200  0.61216100  0.36971900  1
  F  F24  1  0.74244200  0.11216100  0.22084900  1
  F  F25  1  0.75417900  0.76520900  0.80580200  1
  F  F26  1  0.45940700  0.26520900  0.01103000  1
  F  F27  1  0.34751600  0.84751600  0.29021700  1
  F  F28  1  0.05729900  0.34751600  0.50000000  1
  F  F29  1  0.90625400  0.06964300  0.65749200  1
  F  F30  1  0.63223400  0.98857200  0.50000000  1
  F  F31  1  0.26520900  0.25417900  0.80580200  1
  F  F32  1  0.76520900  0.95940700  0.01103000  1
  F  F33  1  0.02159200  0.39131200  0.77915100  1
  F  F34  1  0.48857200  0.13223400  0.50000000  1
  F  F35  1  0.41215100  0.24876200  0.34250800  1
  F  F36  1  0.40625400  0.74876200  0.83661100  1
  F  F37  1  0.89131200  0.52159200  0.77915100  1
loop_
_geom_bond_atom_site_label_1
_geom_bond_atom_site_label_2
_geom_bond_distance
_geom_bond_site_symmetry_2
Ba0 F10 2.631073 1_555
Ba0 F2 2.631073 1_455
Ba0 F11 2.635062 1_565
Ba0 F27 2.635062 1_555
Ba0 F30 2.645566 1_555
Ba0 F34 2.645566 1_565
Ba1 F12 2.570544 1_555
Ba1 F8 2.685417 1_555
Ba1 F16 2.750414 1_555
Ba1 F4 2.767615 1_555
Ba1 F1 2.785592 1_555
Ba1 F35 2.838525 1_555
Ba1 F9 2.850325 1_655
Ba2 F11 2.570544 1_555
Ba2 F32 2.685417 1_546
Ba2 F17 2.750421 1_555
Ba2 F3 2.767613 1_545
Ba2 F29 2.785592 1_555
Ba2 F36 2.838525 1_545
Ba2 F33 2.850324 1_655
Ba3 F28 2.570544 1_555
Ba3 F13 2.685417 1_445
Ba3 F22 2.750414 1_555
Ba3 F24 2.767615 1_455
Ba3 F0 2.785592 1_555
Ba3 F18 2.838525 1_445
Ba3 F23 2.850325 1_555
Ba4 F27 2.570544 1_555
Ba4 F14 2.685417 1_554
Ba4 F21 2.750421 1_555
Ba4 F23 2.767615 1_555
Ba4 F18 2.785592 1_555
Ba4 F0 2.838525 1_555
Ba4 F24 2.850325 1_565
Ba5 F11 2.570544 1_555
Ba5 F26 2.685417 1_556
Ba5 F17 2.750421 1_555
Ba5 F15 2.767613 1_555
Ba5 F20 2.785592 1_555
Ba5 F19 2.838525 1_545
Ba5 F37 2.850324 1_555
Ba6 F12 2.570544 1_555
Ba6 F25 2.685417 1_555
Ba6 F16 2.750414 1_555
Ba6 F37 2.767626 1_555
Ba6 F19 2.785592 1_655
Ba6 F20 2.838525 1_555
Ba6 F15 2.850323 1_665
Ba7 F28 2.570544 1_555
Ba7 F31 2.685417 1_555
Ba7 F22 2.750414 1_555
Ba7 F33 2.767626 1_555
Ba7 F36 2.785592 1_555
Ba7 F29 2.838525 1_455
Ba7 F3 2.850323 1_555
Ba8 F27 2.570544 1_555
Ba8 F5 2.685417 1_454
Ba8 F21 2.750421 1_555
Ba8 F9 2.767615 1_555
Ba8 F35 2.785592 1_565
Ba8 F1 2.838525 1_455
Ba8 F4 2.850325 1_565
Ba9 F30 2.631073 1_545
Ba9 F34 2.631073 1_555
Ba9 F28 2.635062 1_655
Ba9 F12 2.635062 1_555
Ba9 F2 2.645566 1_555
Ba9 F10 2.645566 1_655
F0 Y0 2.193041 1_455
F1 Y0 2.193041 1_555
F2 Y0 2.201250 1_555
F3 Y4 2.226331 1_555
F4 Y0 2.226331 1_555
F5 Y1 2.185506 1_556
F6 Y1 2.068093 1_555
F6 Y2 2.116110 1_555
F7 Y2 2.068093 1_555
F7 Y1 2.116110 1_445
F8 Y2 2.185506 1_555
F9 Y3 2.226324 1_565
F10 Y5 2.201251 1_555
F13 Y1 2.185506 1_555
F14 Y2 2.185506 1_556
F15 Y3 2.226331 1_555
F16 Y4 2.187822 1_555
F17 Y0 2.187800 1_556
F18 Y4 2.193044 1_555
F19 Y5 2.193046 1_555
F20 Y3 2.193044 1_555
F21 Y5 2.187799 1_554
F22 Y3 2.187822 1_555
F23 Y4 2.226324 1_555
F24 Y0 2.226331 1_555
F25 Y1 2.185506 1_556
F26 Y2 2.185506 1_555
F29 Y4 2.193044 1_545
F30 Y4 2.201240 1_555
F31 Y2 2.185506 1_556
F32 Y1 2.185506 1_555
F33 Y5 2.226320 1_555
F34 Y3 2.201240 1_555
F35 Y3 2.193044 1_555
F36 Y5 2.193046 1_555
F37 Y5 2.226320 1_655
