# generated using pymatgen
data_Li4Fe3(NiO4)3
_symmetry_space_group_name_H-M   'P 1'
_cell_length_a   5.90999400
_cell_length_b   5.95663467
_cell_length_c   6.58299717
_cell_angle_alpha   103.42601834
_cell_angle_beta   102.72591991
_cell_angle_gamma   90.68578032
_symmetry_Int_Tables_number   1
_chemical_formula_structural   Li4Fe3(NiO4)3
_chemical_formula_sum   'Li4 Fe3 Ni3 O12'
_cell_volume   219.38788055
_cell_formula_units_Z   1
loop_
 _symmetry_equiv_pos_site_id
 _symmetry_equiv_pos_as_xyz
  1  'x, y, z'
loop_
 _atom_site_type_symbol
 _atom_site_label
 _atom_site_symmetry_multiplicity
 _atom_site_fract_x
 _atom_site_fract_y
 _atom_site_fract_z
 _atom_site_occupancy
  Li  Li0  1  0.82847300  0.83925500  0.34012000  1
  Li  Li1  1  0.17152700  0.16074500  0.65988000  1
  Li  Li2  1  0.50000000  0.50000000  0.00000000  1
  Li  Li3  1  0.00000000  0.50000000  0.00000000  1
  Fe  Fe0  1  0.16641200  0.66941500  0.66517000  1
  Fe  Fe1  1  0.50000000  0.00000000  0.00000000  1
  Fe  Fe2  1  0.83358800  0.33058500  0.33483000  1
  Ni  Ni0  1  0.66496900  0.66998200  0.66356200  1
  Ni  Ni1  1  0.00000000  0.00000000  0.00000000  1
  Ni  Ni2  1  0.33503100  0.33001800  0.33643800  1
  O  O0  1  0.24078900  0.74409100  0.97498800  1
  O  O1  1  0.59691300  0.09507800  0.31173700  1
  O  O2  1  0.73451500  0.77382000  0.98946600  1
  O  O3  1  0.06266900  0.11215200  0.32936000  1
  O  O4  1  0.39560800  0.44844200  0.65777300  1
  O  O5  1  0.93109800  0.43369300  0.65454500  1
  O  O6  1  0.40308700  0.90492200  0.68826300  1
  O  O7  1  0.93733100  0.88784800  0.67064000  1
  O  O8  1  0.26548500  0.22618000  0.01053400  1
  O  O9  1  0.60439200  0.55155800  0.34222700  1
  O  O10  1  0.75921100  0.25590900  0.02501200  1
  O  O11  1  0.06890200  0.56630700  0.34545500  1
loop_
_geom_bond_atom_site_label_1
_geom_bond_atom_site_label_2
_geom_bond_distance
_geom_bond_site_symmetry_2
Li0 O1 2.073485 1_565
Li0 O7 2.078028 1_555
Li0 O3 2.146148 1_665
Li0 O9 2.157684 1_555
Li0 O11 2.173364 1_655
Li0 O2 2.191127 1_554
Li1 O6 2.073485 1_545
Li1 O3 2.078028 1_555
Li1 O7 2.146148 1_445
Li1 O4 2.157684 1_555
Li1 O5 2.173364 1_455
Li1 O8 2.191127 1_556
Li2 O10 2.131033 1_555
Li2 O0 2.131033 1_554
Li2 O9 2.147607 1_555
Li2 O4 2.147607 1_554
Li2 O2 2.151004 1_554
Li2 O8 2.151004 1_555
Li3 O0 2.081128 1_554
Li3 O10 2.081128 1_455
Li3 O11 2.159753 1_555
Li3 O5 2.159753 1_454
Li3 O8 2.278766 1_555
Li3 O2 2.278766 1_454
Fe0 O7 1.889198 1_455
Fe0 O4 1.900440 1_555
Fe0 O6 1.925577 1_555
Fe0 O0 1.931273 1_555
Fe0 O5 1.943005 1_455
Fe0 O11 1.998971 1_555
Fe1 O2 1.945393 1_544
Fe1 O8 1.945393 1_555
Fe1 O1 1.948036 1_555
Fe1 O6 1.948036 1_544
Fe1 O10 2.100956 1_555
Fe1 O0 2.100956 1_544
Fe2 O3 1.889198 1_655
Fe2 O9 1.900440 1_555
Fe2 O1 1.925577 1_555
Fe2 O10 1.931273 1_555
Fe2 O11 1.943005 1_655
Fe2 O5 1.998971 1_555
Ni0 O9 2.016886 1_555
Ni0 O2 2.035568 1_555
Ni0 O7 2.041125 1_555
Ni0 O4 2.043705 1_555
Ni0 O6 2.106514 1_555
Ni0 O5 2.124532 1_555
Ni1 O8 2.034658 1_555
Ni1 O2 2.034658 1_444
Ni1 O7 2.062063 1_444
Ni1 O3 2.062063 1_555
Ni1 O0 2.101067 1_544
Ni1 O10 2.101067 1_455
Ni2 O4 2.016886 1_555
Ni2 O8 2.035568 1_555
Ni2 O3 2.041125 1_555
Ni2 O9 2.043705 1_555
Ni2 O1 2.106514 1_555
Ni2 O11 2.124532 1_555
