# generated using pymatgen
data_Li4VTe(WO6)2
_symmetry_space_group_name_H-M   'P 1'
_cell_length_a   7.57980955
_cell_length_b   7.59621850
_cell_length_c   7.78341186
_cell_angle_alpha   85.85454045
_cell_angle_beta   94.83751600
_cell_angle_gamma   94.25841539
_symmetry_Int_Tables_number   1
_chemical_formula_structural   Li4VTe(WO6)2
_chemical_formula_sum   'Li8 V2 Te2 W4 O24'
_cell_volume   444.33906793
_cell_formula_units_Z   2
loop_
 _symmetry_equiv_pos_site_id
 _symmetry_equiv_pos_as_xyz
  1  'x, y, z'
loop_
 _atom_site_type_symbol
 _atom_site_label
 _atom_site_symmetry_multiplicity
 _atom_site_fract_x
 _atom_site_fract_y
 _atom_site_fract_z
 _atom_site_occupancy
  Li  Li0  1  0.20696500  0.78717500  0.27246400  1
  Li  Li1  1  0.70700200  0.28713000  0.27245700  1
  Li  Li2  1  0.71417700  0.77644200  0.81177200  1
  Li  Li3  1  0.21417000  0.27644600  0.81184800  1
  Li  Li4  1  0.71399500  0.28966800  0.81020700  1
  Li  Li5  1  0.21399600  0.78966000  0.81022200  1
  Li  Li6  1  0.21334400  0.29987200  0.27295700  1
  Li  Li7  1  0.71337500  0.79990000  0.27303400  1
  V  V0  1  0.00411000  0.00922800  0.02143400  1
  V  V1  1  0.50423200  0.50919600  0.02175000  1
  Te  Te0  1  0.98700000  0.51343300  0.51587200  1
  Te  Te1  1  0.48697400  0.01346200  0.51583400  1
  W  W0  1  0.99495700  0.00210200  0.52066500  1
  W  W1  1  0.49632000  0.99769900  0.00320900  1
  W  W2  1  0.99645500  0.49766600  0.00324200  1
  W  W3  1  0.49489500  0.50213200  0.52065500  1
  O  O0  1  0.93828200  0.75602200  0.42232100  1
  O  O1  1  0.43820400  0.25601000  0.42231400  1
  O  O2  1  0.93421300  0.93301900  0.73893100  1
  O  O3  1  0.43411800  0.43306800  0.73880500  1
  O  O4  1  0.75107400  0.94602600  0.04159800  1
  O  O5  1  0.25116400  0.44613000  0.04153900  1
  O  O6  1  0.78205900  0.06818300  0.41129900  1
  O  O7  1  0.28200900  0.56819100  0.41128100  1
  O  O8  1  0.46186400  0.75116100  0.92186300  1
  O  O9  1  0.96177700  0.25118100  0.92182900  1
  O  O10  1  0.55857300  0.07320800  0.75191300  1
  O  O11  1  0.05864200  0.57325600  0.75199100  1
  O  O12  1  0.44845800  0.91119300  0.22311000  1
  O  O13  1  0.94846100  0.41118500  0.22309500  1
  O  O14  1  0.55165100  0.24186100  0.04793800  1
  O  O15  1  0.05168400  0.74180500  0.04799800  1
  O  O16  1  0.24239300  0.90967700  0.55350100  1
  O  O17  1  0.74235500  0.40960800  0.55347500  1
  O  O18  1  0.25172800  0.03628900  0.92937900  1
  O  O19  1  0.75172800  0.53629200  0.92941500  1
  O  O20  1  0.07746400  0.04730300  0.23558900  1
  O  O21  1  0.57759700  0.54734600  0.23583700  1
  O  O22  1  0.10005400  0.22157400  0.56488700  1
  O  O23  1  0.60008200  0.72160200  0.56487200  1
loop_
_geom_bond_atom_site_label_1
_geom_bond_atom_site_label_2
_geom_bond_distance
_geom_bond_site_symmetry_2
Li0 O7 2.008743 1_555
Li0 O12 2.048380 1_555
Li0 O15 2.058274 1_555
Li0 O20 2.260304 1_565
Li0 O0 2.419350 1_455
Li0 O16 2.425074 1_555
Li1 O6 2.008634 1_555
Li1 O13 2.048276 1_555
Li1 O14 2.058725 1_555
Li1 O21 2.260496 1_555
Li1 O1 2.420112 1_555
Li1 O17 2.424854 1_555
Li2 O19 2.009709 1_555
Li2 O2 2.070058 1_555
Li2 O23 2.096761 1_555
Li2 O8 2.150997 1_555
Li2 O4 2.265582 1_556
Li3 O18 2.009436 1_555
Li3 O3 2.070175 1_555
Li3 O22 2.097294 1_555
Li3 O9 2.151154 1_455
Li3 O5 2.265199 1_556
Li4 O10 2.006838 1_555
Li4 O9 2.034038 1_555
Li4 O19 2.139939 1_555
Li4 O17 2.156258 1_555
Li4 O14 2.300095 1_556
Li4 O3 2.460212 1_555
Li5 O11 2.006124 1_555
Li5 O8 2.034690 1_555
Li5 O18 2.139780 1_565
Li5 O16 2.156425 1_555
Li5 O15 2.300268 1_556
Li5 O2 2.459330 1_455
Li6 O1 2.015331 1_555
Li6 O5 2.076387 1_555
Li6 O20 2.136114 1_555
Li6 O13 2.229340 1_455
Li6 O7 2.376875 1_555
Li6 O22 2.512357 1_555
Li7 O0 2.015373 1_555
Li7 O4 2.075884 1_555
Li7 O21 2.135489 1_555
Li7 O12 2.229543 1_555
Li7 O6 2.376425 1_565
Li7 O23 2.511710 1_555
O0 Te0 1.980918 1_555
O0 W0 2.072875 1_565
O1 Te1 1.980652 1_555
O1 W3 2.073170 1_555
O2 W0 1.827740 1_565
O2 V0 2.322220 1_666
O3 W3 1.826949 1_555
O3 V1 2.325503 1_556
O4 V0 1.958785 1_665
O4 W1 1.992575 1_555
O5 V1 1.958427 1_555
O5 W2 1.991937 1_455
O6 W0 1.845950 1_555
O6 Te1 2.440806 1_555
O7 W3 1.845844 1_555
O7 Te0 2.440465 1_455
O8 V1 1.981121 1_556
O8 W1 2.011768 1_556
O9 V0 1.980303 1_656
O9 W2 2.011639 1_556
O10 Te1 1.947488 1_555
O10 W1 2.081015 1_546
O11 Te0 1.948003 1_455
O11 W2 2.080661 1_456
O12 W1 1.843811 1_555
O12 Te1 2.447415 1_565
O13 W2 1.843665 1_555
O13 Te0 2.447747 1_555
O14 W1 1.921002 1_545
O14 V1 2.081061 1_555
O15 W2 1.920781 1_455
O15 V0 2.082036 1_565
O16 Te1 1.996383 1_565
O16 W0 2.040727 1_465
O17 Te0 1.996823 1_555
O17 W3 2.041198 1_555
O18 W1 1.931318 1_546
O18 V0 2.055869 1_556
O19 W2 1.932337 1_556
O19 V1 2.055919 1_556
O20 V0 1.749490 1_555
O20 W0 2.350397 1_455
O21 V1 1.749132 1_555
O21 W3 2.348978 1_555
O22 W0 1.836291 1_455
O22 Te0 2.428948 1_455
O23 W3 1.836509 1_555
O23 Te1 2.429133 1_565
