# generated using pymatgen
data_Li6MnAlO6
_symmetry_space_group_name_H-M   'P 1'
_cell_length_a   5.35379685
_cell_length_b   5.35379685
_cell_length_c   9.79593138
_cell_angle_alpha   88.61453325
_cell_angle_beta   88.61453325
_cell_angle_gamma   116.81658728
_symmetry_Int_Tables_number   1
_chemical_formula_structural   Li6MnAlO6
_chemical_formula_sum   'Li12 Mn2 Al2 O12'
_cell_volume   250.31846708
_cell_formula_units_Z   2
loop_
 _symmetry_equiv_pos_site_id
 _symmetry_equiv_pos_as_xyz
  1  'x, y, z'
loop_
 _atom_site_type_symbol
 _atom_site_label
 _atom_site_symmetry_multiplicity
 _atom_site_fract_x
 _atom_site_fract_y
 _atom_site_fract_z
 _atom_site_occupancy
  Li  Li0  1  0.68403500  0.06003600  0.07847700  1
  Li  Li1  1  0.61953500  0.93193500  0.58078100  1
  Li  Li2  1  0.31529200  0.37329100  0.57321000  1
  Li  Li3  1  0.38046500  0.06806500  0.41921900  1
  Li  Li4  1  0.37329100  0.31529200  0.07321000  1
  Li  Li5  1  0.31596500  0.93996400  0.92152300  1
  Li  Li6  1  0.06806500  0.38046500  0.91921900  1
  Li  Li7  1  0.93193500  0.61953500  0.08078100  1
  Li  Li8  1  0.06003600  0.68403500  0.57847700  1
  Li  Li9  1  0.93996400  0.31596500  0.42152300  1
  Li  Li10  1  0.68470800  0.62670900  0.42679000  1
  Li  Li11  1  0.62670900  0.68470800  0.92679000  1
  Mn  Mn0  1  0.00274700  0.99725300  0.25000000  1
  Mn  Mn1  1  0.99725300  0.00274700  0.75000000  1
  Al  Al0  1  0.66066500  0.33933500  0.75000000  1
  Al  Al1  1  0.33933500  0.66066500  0.25000000  1
  O  O0  1  0.66645000  0.95828300  0.36170600  1
  O  O1  1  0.71843000  0.06370200  0.86683000  1
  O  O2  1  0.31511000  0.37489100  0.37252200  1
  O  O3  1  0.28157000  0.93629800  0.13317000  1
  O  O4  1  0.33355000  0.04171700  0.63829400  1
  O  O5  1  0.37489100  0.31511000  0.87252200  1
  O  O6  1  0.95828300  0.66645000  0.86170600  1
  O  O7  1  0.93629800  0.28157000  0.63317000  1
  O  O8  1  0.06370200  0.71843000  0.36683000  1
  O  O9  1  0.04171700  0.33355000  0.13829400  1
  O  O10  1  0.62510900  0.68489000  0.12747800  1
  O  O11  1  0.68489000  0.62510900  0.62747800  1
loop_
_geom_bond_atom_site_label_1
_geom_bond_atom_site_label_2
_geom_bond_distance
_geom_bond_site_symmetry_2
Li0 O9 1.928822 1_655
Li0 O10 1.933439 1_545
Li0 O3 2.001948 1_545
Li0 O1 2.075835 1_554
Li1 O11 1.876191 1_555
Li1 O4 1.947667 1_565
Li1 O7 1.966623 1_565
Li1 O0 2.148445 1_555
Li2 O4 1.916285 1_555
Li2 O11 1.922025 1_555
Li2 O7 1.931999 1_455
Li2 O2 1.965763 1_555
Li3 O2 1.876191 1_555
Li3 O0 1.947667 1_545
Li3 O8 1.966623 1_545
Li3 O4 2.148445 1_555
Li4 O9 1.916285 1_555
Li4 O10 1.922025 1_555
Li4 O3 1.931999 1_545
Li4 O5 1.965763 1_554
Li5 O6 1.928822 1_455
Li5 O5 1.933439 1_565
Li5 O1 2.001948 1_565
Li5 O3 2.075835 1_556
Li6 O5 1.876191 1_555
Li6 O6 1.947667 1_455
Li6 O1 1.966623 1_455
Li6 O9 2.148445 1_556
Li7 O10 1.876191 1_555
Li7 O9 1.947667 1_655
Li7 O3 1.966623 1_655
Li7 O6 2.148445 1_554
Li8 O4 1.928822 1_565
Li8 O11 1.933439 1_455
Li8 O7 2.001948 1_455
Li8 O8 2.075835 1_555
Li9 O0 1.928822 1_545
Li9 O2 1.933439 1_655
Li9 O8 2.001948 1_655
Li9 O7 2.075835 1_555
Li10 O0 1.916285 1_555
Li10 O2 1.922025 1_555
Li10 O8 1.931999 1_655
Li10 O11 1.965763 1_555
Li11 O6 1.916285 1_555
Li11 O5 1.922025 1_555
Li11 O1 1.931999 1_565
Li11 O10 1.965763 1_556
Mn0 O8 2.004896 1_555
Mn0 O3 2.004896 1_555
Mn0 O0 2.009322 1_455
Mn0 O9 2.009322 1_565
Mn0 O2 2.342774 1_565
Mn0 O10 2.342774 1_455
Mn1 O7 2.004896 1_555
Mn1 O1 2.004896 1_555
Mn1 O6 2.009322 1_545
Mn1 O4 2.009322 1_655
Mn1 O5 2.342774 1_655
Mn1 O11 2.342774 1_545
Al0 O5 1.876913 1_555
Al0 O11 1.876913 1_555
Al0 O7 1.982496 1_555
Al0 O1 1.982496 1_555
Al0 O6 2.112477 1_555
Al0 O4 2.112477 1_555
Al1 O2 1.876913 1_555
Al1 O10 1.876913 1_555
Al1 O3 1.982496 1_555
Al1 O8 1.982496 1_555
Al1 O0 2.112477 1_555
Al1 O9 2.112477 1_555
