# generated using pymatgen
data_Li3Co2(SiO4)2
_symmetry_space_group_name_H-M   'P 1'
_cell_length_a   5.21621866
_cell_length_b   5.21621866
_cell_length_c   6.74235348
_cell_angle_alpha   87.63079680
_cell_angle_beta   87.63079680
_cell_angle_gamma   87.15764853
_symmetry_Int_Tables_number   1
_chemical_formula_structural   Li3Co2(SiO4)2
_chemical_formula_sum   'Li3 Co2 Si2 O8'
_cell_volume   182.92801838
_cell_formula_units_Z   1
loop_
 _symmetry_equiv_pos_site_id
 _symmetry_equiv_pos_as_xyz
  1  'x, y, z'
loop_
 _atom_site_type_symbol
 _atom_site_label
 _atom_site_symmetry_multiplicity
 _atom_site_fract_x
 _atom_site_fract_y
 _atom_site_fract_z
 _atom_site_occupancy
  Li  Li0  1  0.89665900  0.42028200  0.04961800  1
  Li  Li1  1  0.57971800  0.10334100  0.95038200  1
  Li  Li2  1  0.13832300  0.86167700  0.00000000  1
  Co  Co0  1  0.80639700  0.19360300  0.50000000  1
  Co  Co1  1  0.20030700  0.79969300  0.50000000  1
  Si  Si0  1  0.68140600  0.66818700  0.75016200  1
  Si  Si1  1  0.33181300  0.31859400  0.24983800  1
  O  O0  1  0.83249900  0.80749800  0.55324100  1
  O  O1  1  0.72215400  0.35495200  0.75173500  1
  O  O2  1  0.78781500  0.77528300  0.95127600  1
  O  O3  1  0.64504800  0.27784600  0.24826500  1
  O  O4  1  0.37191000  0.76253100  0.73284300  1
  O  O5  1  0.22471700  0.21218500  0.04872400  1
  O  O6  1  0.23746900  0.62809000  0.26715700  1
  O  O7  1  0.19250200  0.16750100  0.44675900  1
loop_
_geom_bond_atom_site_label_1
_geom_bond_atom_site_label_2
_geom_bond_distance
_geom_bond_site_symmetry_2
Li0 O5 1.980417 1_655
Li0 O3 1.984318 1_555
Li0 O2 2.004085 1_554
Li0 O1 2.284074 1_554
Li1 O2 1.980417 1_545
Li1 O1 1.984318 1_555
Li1 O5 2.004085 1_556
Li1 O3 2.284074 1_556
Li2 O5 1.948691 1_565
Li2 O2 1.948691 1_454
Li2 O6 2.197656 1_555
Li2 O4 2.197656 1_554
Co0 O1 1.949868 1_555
Co0 O3 1.949868 1_555
Co0 O7 2.029950 1_655
Co0 O0 2.029950 1_545
Co1 O6 1.837728 1_555
Co1 O4 1.837728 1_555
Co1 O0 1.935959 1_455
Co1 O7 1.935959 1_565
O0 Si0 1.674081 1_555
O1 Si0 1.636838 1_555
O2 Si0 1.616926 1_555
O3 Si1 1.636838 1_555
O4 Si0 1.671569 1_555
O5 Si1 1.616926 1_555
O6 Si1 1.671569 1_555
O7 Si1 1.674081 1_555
