# generated using pymatgen
data_Li3Fe2CuO6
_symmetry_space_group_name_H-M   'P 1'
_cell_length_a   6.68855579
_cell_length_b   6.68855579
_cell_length_c   5.96686729
_cell_angle_alpha   76.48152571
_cell_angle_beta   76.48152571
_cell_angle_gamma   25.73627572
_symmetry_Int_Tables_number   1
_chemical_formula_structural   Li3Fe2CuO6
_chemical_formula_sum   'Li3 Fe2 Cu1 O6'
_cell_volume   112.53102225
_cell_formula_units_Z   1
loop_
 _symmetry_equiv_pos_site_id
 _symmetry_equiv_pos_as_xyz
  1  'x, y, z'
loop_
 _atom_site_type_symbol
 _atom_site_label
 _atom_site_symmetry_multiplicity
 _atom_site_fract_x
 _atom_site_fract_y
 _atom_site_fract_z
 _atom_site_occupancy
  Li  Li0  1  0.00000000  0.00000000  0.00000000  1
  Li  Li1  1  0.66346800  0.66346800  0.66678900  1
  Li  Li2  1  0.33653200  0.33653200  0.33321100  1
  Fe  Fe0  1  0.66510600  0.66510600  0.16882700  1
  Fe  Fe1  1  0.33489400  0.33489400  0.83117300  1
  Cu  Cu0  1  0.00000000  0.00000000  0.50000000  1
  O  O0  1  0.16118800  0.16118800  0.40597000  1
  O  O1  1  0.82970200  0.82970200  0.07213400  1
  O  O2  1  0.83881200  0.83881200  0.59403000  1
  O  O3  1  0.49686700  0.49686700  0.73696800  1
  O  O4  1  0.50313300  0.50313300  0.26303200  1
  O  O5  1  0.17029800  0.17029800  0.92786600  1
loop_
_geom_bond_atom_site_label_1
_geom_bond_atom_site_label_2
_geom_bond_distance
_geom_bond_site_symmetry_2
Li0 O5 2.158508 1_554
Li0 O1 2.158508 1_445
Li0 O4 2.171307 1_545
Li0 O4 2.171307 1_455
Li0 O3 2.171307 1_454
Li0 O3 2.171307 1_544
Li1 O3 2.111760 1_555
Li1 O0 2.159619 1_655
Li1 O0 2.159619 1_565
Li1 O5 2.172590 1_565
Li1 O5 2.172590 1_655
Li1 O2 2.222911 1_555
Li2 O4 2.111760 1_555
Li2 O2 2.159619 1_545
Li2 O2 2.159619 1_455
Li2 O1 2.172590 1_455
Li2 O1 2.172590 1_545
Li2 O0 2.222911 1_555
Fe0 O0 2.046719 1_565
Fe0 O0 2.046719 1_655
Fe0 O4 2.051445 1_555
Fe0 O5 2.060099 1_654
Fe0 O5 2.060099 1_564
Fe0 O1 2.084830 1_555
Fe1 O2 2.046719 1_455
Fe1 O2 2.046719 1_545
Fe1 O3 2.051445 1_555
Fe1 O1 2.060099 1_456
Fe1 O1 2.060099 1_546
Fe1 O5 2.084830 1_555
Cu0 O0 2.041549 1_555
Cu0 O2 2.041549 1_445
Cu0 O3 2.047469 1_545
Cu0 O3 2.047469 1_455
Cu0 O4 2.047469 1_455
Cu0 O4 2.047469 1_545
