# generated using pymatgen
data_Li4Mn3Fe3(SbO8)2
_symmetry_space_group_name_H-M   'P 1'
_cell_length_a   6.00950564
_cell_length_b   6.00950564
_cell_length_c   9.80115848
_cell_angle_alpha   89.35018981
_cell_angle_beta   89.35018981
_cell_angle_gamma   59.88444170
_symmetry_Int_Tables_number   1
_chemical_formula_structural   Li4Mn3Fe3(SbO8)2
_chemical_formula_sum   'Li4 Mn3 Fe3 Sb2 O16'
_cell_volume   306.15506449
_cell_formula_units_Z   1
loop_
 _symmetry_equiv_pos_site_id
 _symmetry_equiv_pos_as_xyz
  1  'x, y, z'
loop_
 _atom_site_type_symbol
 _atom_site_label
 _atom_site_symmetry_multiplicity
 _atom_site_fract_x
 _atom_site_fract_y
 _atom_site_fract_z
 _atom_site_occupancy
  Li  Li0  1  0.66763900  0.66763900  0.09465200  1
  Li  Li1  1  0.99871600  0.99871600  0.01203200  1
  Li  Li2  1  0.99942200  0.99942200  0.51253300  1
  Li  Li3  1  0.33385300  0.33385300  0.59643700  1
  Mn  Mn0  1  0.82977600  0.82977600  0.78947200  1
  Mn  Mn1  1  0.17062400  0.66147300  0.28845000  1
  Mn  Mn2  1  0.66147300  0.17062400  0.28845000  1
  Fe  Fe0  1  0.33940000  0.83153000  0.78620500  1
  Fe  Fe1  1  0.83153000  0.33940000  0.78620500  1
  Fe  Fe2  1  0.17017200  0.17017200  0.28484800  1
  Sb  Sb0  1  0.66633100  0.66633100  0.51529200  1
  Sb  Sb1  1  0.33405800  0.33405800  0.01426500  1
  O  O0  1  0.33531700  0.83813900  0.40576700  1
  O  O1  1  0.51696700  0.51696700  0.65407600  1
  O  O2  1  0.67002400  0.67002400  0.88941000  1
  O  O3  1  0.99467300  0.99467300  0.69967100  1
  O  O4  1  0.99530100  0.99530100  0.20104900  1
  O  O5  1  0.83813900  0.33531700  0.40576700  1
  O  O6  1  0.50945300  0.96360700  0.65125100  1
  O  O7  1  0.96360700  0.50945300  0.65125100  1
  O  O8  1  0.16774100  0.16774100  0.90437700  1
  O  O9  1  0.83341400  0.83341400  0.41035500  1
  O  O10  1  0.03515000  0.47614000  0.15224300  1
  O  O11  1  0.47614000  0.03515000  0.15224300  1
  O  O12  1  0.33917900  0.33917900  0.38570800  1
  O  O13  1  0.17159000  0.66554500  0.90624800  1
  O  O14  1  0.48308200  0.48308200  0.14769800  1
  O  O15  1  0.66554500  0.17159000  0.90624800  1
loop_
_geom_bond_atom_site_label_1
_geom_bond_atom_site_label_2
_geom_bond_distance
_geom_bond_site_symmetry_2
Li0 O14 1.984623 1_555
Li0 O10 1.995933 1_655
Li0 O11 1.995933 1_565
Li0 O2 2.011438 1_554
Li1 O4 1.852461 1_555
Li1 O15 2.024443 1_564
Li1 O13 2.024443 1_654
Li1 O8 2.040489 1_664
Li2 O3 1.834189 1_555
Li2 O9 2.009353 1_555
Li2 O5 2.029983 1_565
Li2 O0 2.029983 1_655
Li3 O6 1.995596 1_545
Li3 O7 1.995596 1_455
Li3 O1 1.996090 1_555
Li3 O12 2.065407 1_555
Mn0 O3 1.919499 1_555
Mn0 O2 1.919628 1_555
Mn0 O13 2.120567 1_655
Mn0 O15 2.120567 1_565
Mn0 O6 2.160676 1_555
Mn0 O7 2.160676 1_555
Mn1 O12 1.922837 1_555
Mn1 O4 1.931045 1_455
Mn1 O9 2.115105 1_455
Mn1 O14 2.129079 1_555
Mn1 O0 2.129972 1_555
Mn1 O10 2.157255 1_555
Mn2 O12 1.922837 1_555
Mn2 O4 1.931045 1_545
Mn2 O9 2.115105 1_545
Mn2 O14 2.129079 1_555
Mn2 O5 2.129972 1_555
Mn2 O11 2.157255 1_555
Fe0 O3 1.988735 1_455
Fe0 O2 2.000272 1_555
Fe0 O6 2.045330 1_555
Fe0 O13 2.086183 1_555
Fe0 O1 2.095039 1_555
Fe0 O8 2.102935 1_565
Fe1 O3 1.988735 1_545
Fe1 O2 2.000272 1_555
Fe1 O7 2.045330 1_555
Fe1 O15 2.086183 1_555
Fe1 O1 2.095039 1_555
Fe1 O8 2.102935 1_655
Fe2 O4 2.007657 1_445
Fe2 O12 2.030023 1_555
Fe2 O10 2.049632 1_555
Fe2 O11 2.049632 1_555
Fe2 O5 2.087296 1_455
Fe2 O0 2.087296 1_545
O0 Sb0 2.034129 1_555
O1 Sb0 2.052990 1_555
O5 Sb0 2.034129 1_555
O6 Sb0 2.047295 1_555
O7 Sb0 2.047295 1_555
O8 Sb1 2.051637 1_556
O9 Sb0 2.009741 1_555
O10 Sb1 2.053418 1_555
O11 Sb1 2.053418 1_555
O13 Sb1 2.016507 1_556
O14 Sb1 2.042634 1_555
O15 Sb1 2.016507 1_556
