# generated using pymatgen
data_LiCoPO4
_symmetry_space_group_name_H-M   'P 1'
_cell_length_a   9.62934500
_cell_length_b   4.78507600
_cell_length_c   6.99269061
_cell_angle_alpha   87.21272618
_cell_angle_beta   90.00000000
_cell_angle_gamma   90.00000000
_symmetry_Int_Tables_number   1
_chemical_formula_structural   LiCoPO4
_chemical_formula_sum   'Li4 Co4 P4 O16'
_cell_volume   321.82205947
_cell_formula_units_Z   4
loop_
 _symmetry_equiv_pos_site_id
 _symmetry_equiv_pos_as_xyz
  1  'x, y, z'
loop_
 _atom_site_type_symbol
 _atom_site_label
 _atom_site_symmetry_multiplicity
 _atom_site_fract_x
 _atom_site_fract_y
 _atom_site_fract_z
 _atom_site_occupancy
  Li  Li0  1  0.31597700  0.77868000  0.26306600  1
  Li  Li1  1  0.72580100  0.27952700  0.27664400  1
  Li  Li2  1  0.22580100  0.72047300  0.72335600  1
  Li  Li3  1  0.81597700  0.22132000  0.73693400  1
  Co  Co0  1  0.01856500  0.75934000  0.05307200  1
  Co  Co1  1  0.07174000  0.28183700  0.42881900  1
  Co  Co2  1  0.57174000  0.71816300  0.57118100  1
  Co  Co3  1  0.51856500  0.24066000  0.94692800  1
  P  P0  1  0.20024000  0.20163800  0.01233200  1
  P  P1  1  0.90600700  0.71843100  0.49144200  1
  P  P2  1  0.40600700  0.28156900  0.50855800  1
  P  P3  1  0.70024000  0.79836200  0.98766800  1
  O  O0  1  0.34931000  0.10042000  0.06571700  1
  O  O1  1  0.18839900  0.52625800  0.00299000  1
  O  O2  1  0.64386600  0.93050200  0.16704800  1
  O  O3  1  0.11021600  0.07461100  0.18670200  1
  O  O4  1  0.92026200  0.58603400  0.28960900  1
  O  O5  1  0.27498000  0.41475200  0.41350800  1
  O  O6  1  0.89382900  0.04318100  0.48192400  1
  O  O7  1  0.53972600  0.38342600  0.40130400  1
  O  O8  1  0.03972600  0.61657400  0.59869600  1
  O  O9  1  0.39382900  0.95681900  0.51807600  1
  O  O10  1  0.77498000  0.58524800  0.58649200  1
  O  O11  1  0.42026200  0.41396600  0.71039100  1
  O  O12  1  0.61021600  0.92538900  0.81329800  1
  O  O13  1  0.14386600  0.06949800  0.83295200  1
  O  O14  1  0.68839900  0.47374200  0.99701000  1
  O  O15  1  0.84931000  0.89958000  0.93428300  1
loop_
_geom_bond_atom_site_label_1
_geom_bond_atom_site_label_2
_geom_bond_distance
_geom_bond_site_symmetry_2
Li0 O5 2.029020 1_555
Li0 O0 2.042306 1_565
Li0 O9 2.148546 1_555
Li0 O3 2.478413 1_565
Li0 O1 2.547385 1_555
Li1 O2 2.030657 1_545
Li1 O7 2.063898 1_555
Li1 O14 2.154114 1_554
Li1 O4 2.382985 1_555
Li1 O6 2.408234 1_555
Li2 O13 2.030657 1_565
Li2 O8 2.063898 1_555
Li2 O1 2.154114 1_556
Li2 O11 2.382985 1_555
Li2 O9 2.408234 1_555
Li3 O10 2.029020 1_555
Li3 O15 2.042306 1_545
Li3 O6 2.148546 1_555
Li3 O12 2.478413 1_545
Li3 O14 2.547385 1_555
Co0 O15 1.934526 1_454
Co0 O3 2.016185 1_565
Co0 O1 2.019669 1_555
Co0 O4 2.046011 1_455
Co0 O13 2.409461 1_564
Co1 O3 2.037208 1_555
Co1 O5 2.058996 1_555
Co1 O8 2.063192 1_555
Co1 O6 2.082241 1_455
Co1 O4 2.248600 1_455
Co2 O12 2.037208 1_555
Co2 O10 2.058996 1_555
Co2 O7 2.063192 1_555
Co2 O9 2.082241 1_555
Co2 O11 2.248600 1_555
Co3 O0 1.934526 1_556
Co3 O12 2.016185 1_545
Co3 O14 2.019669 1_555
Co3 O11 2.046011 1_555
Co3 O2 2.409461 1_546
O0 P0 1.554625 1_555
O1 P0 1.555711 1_555
O2 P3 1.531343 1_554
O3 P0 1.592350 1_555
O4 P1 1.580850 1_555
O5 P2 1.548744 1_555
O6 P1 1.556565 1_545
O7 P2 1.556430 1_555
O8 P1 1.556430 1_455
O9 P2 1.556565 1_565
O10 P1 1.548744 1_555
O11 P2 1.580850 1_555
O12 P3 1.592350 1_555
O13 P0 1.531343 1_556
O14 P3 1.555711 1_555
O15 P3 1.554625 1_555
