# generated using pymatgen
data_Mn7(PO4)6
_symmetry_space_group_name_H-M   'P 1'
_cell_length_a   6.26497719
_cell_length_b   8.12799981
_cell_length_c   9.30758261
_cell_angle_alpha   102.35972854
_cell_angle_beta   108.54170001
_cell_angle_gamma   101.44552157
_symmetry_Int_Tables_number   1
_chemical_formula_structural   Mn7(PO4)6
_chemical_formula_sum   'Mn7 P6 O24'
_cell_volume   420.37501421
_cell_formula_units_Z   1
loop_
 _symmetry_equiv_pos_site_id
 _symmetry_equiv_pos_as_xyz
  1  'x, y, z'
loop_
 _atom_site_type_symbol
 _atom_site_label
 _atom_site_symmetry_multiplicity
 _atom_site_fract_x
 _atom_site_fract_y
 _atom_site_fract_z
 _atom_site_occupancy
  Mn  Mn0  1  0.95891577  0.27123977  0.46993301  1
  Mn  Mn1  1  0.73529621  0.19731957  0.72579041  1
  Mn  Mn2  1  0.36949270  0.44797419  0.10820259  1
  Mn  Mn3  1  0.63050730  0.55202581  0.89179741  1
  Mn  Mn4  1  0.26470379  0.80268043  0.27420959  1
  Mn  Mn5  1  0.04108423  0.72876023  0.53006699  1
  Mn  Mn6  1  -0.00000000  0.00000000  0.00000000  1
  P  P0  1  0.90065700  0.39941438  0.16187755  1
  P  P1  1  0.76374660  0.85571808  0.22811930  1
  P  P2  1  0.40182937  0.23089124  0.37164046  1
  P  P3  1  0.59817063  0.76910876  0.62835954  1
  P  P4  1  0.23625340  0.14428192  0.77188070  1
  P  P5  1  0.09934300  0.60058562  0.83812245  1
  O  O0  1  0.88187211  0.21957550  0.06712660  1
  O  O1  1  0.92249096  0.42333029  0.33437492  1
  O  O2  1  0.79346034  0.04665014  0.29248036  1
  O  O3  1  0.97354960  0.80089738  0.33474586  1
  O  O4  1  0.77907232  0.81226593  0.06227033  1
  O  O5  1  0.68468718  0.46333655  0.08242887  1
  O  O6  1  0.88296782  0.46608928  0.83808004  1
  O  O7  1  0.64546504  0.23976609  0.49324986  1
  O  O8  1  0.74091364  0.72720981  0.52729902  1
  O  O9  1  0.53236998  0.74303965  0.22264514  1
  O  O10  1  0.44015641  0.36600506  0.28640724  1
  O  O11  1  0.28213183  0.04644223  0.24913732  1
  O  O12  1  0.71786817  0.95355777  0.75086268  1
  O  O13  1  0.55984359  0.63399494  0.71359276  1
  O  O14  1  0.46763002  0.25696035  0.77735486  1
  O  O15  1  0.25908636  0.27279019  0.47270098  1
  O  O16  1  0.35453496  0.76023391  0.50675014  1
  O  O17  1  0.11703218  0.53391072  0.16191996  1
  O  O18  1  0.31531282  0.53666345  0.91757113  1
  O  O19  1  0.22092768  0.18773407  0.93772967  1
  O  O20  1  0.02645040  0.19910262  0.66525414  1
  O  O21  1  0.20653966  0.95334986  0.70751964  1
  O  O22  1  0.07750904  0.57666971  0.66562508  1
  O  O23  1  0.11812789  0.78042450  0.93287340  1
loop_
_geom_bond_atom_site_label_1
_geom_bond_atom_site_label_2
_geom_bond_distance
_geom_bond_site_symmetry_2
Mn0 O15 1.870021 1_655
Mn0 O1 1.941323 1_555
Mn0 O20 1.973167 1_655
Mn0 O2 2.001053 1_555
Mn0 O7 2.016021 1_555
Mn0 O22 2.550319 1_655
Mn1 O14 2.003069 1_555
Mn1 O12 2.029827 1_545
Mn1 O20 2.071614 1_655
Mn1 O6 2.079920 1_555
Mn1 O7 2.177701 1_555
Mn2 O10 1.874603 1_555
Mn2 O17 2.007836 1_555
Mn2 O18 2.011144 1_554
Mn2 O5 2.046647 1_555
Mn2 O19 2.168114 1_554
Mn2 O9 2.274098 1_555
Mn3 O13 1.874603 1_555
Mn3 O6 2.007836 1_555
Mn3 O5 2.011144 1_556
Mn3 O18 2.046647 1_555
Mn3 O4 2.168114 1_556
Mn3 O14 2.274098 1_555
Mn4 O9 2.003069 1_555
Mn4 O11 2.029827 1_565
Mn4 O3 2.071614 1_455
Mn4 O17 2.079920 1_555
Mn4 O16 2.177701 1_555
Mn5 O8 1.870021 1_455
Mn5 O22 1.941323 1_555
Mn5 O3 1.973167 1_455
Mn5 O21 2.001053 1_555
Mn5 O16 2.016021 1_555
Mn5 O1 2.550319 1_455
Mn6 O0 2.112855 1_455
Mn6 O23 2.112855 1_544
Mn6 O19 2.151896 1_554
Mn6 O4 2.151896 1_445
Mn6 O12 2.323273 1_444
Mn6 O11 2.323273 1_555
O0 P0 1.497369 1_555
O1 P0 1.533101 1_555
O2 P1 1.489406 1_545
O3 P1 1.582173 1_555
O4 P1 1.546333 1_555
O5 P0 1.566728 1_555
O6 P5 1.563335 1_655
O7 P2 1.561649 1_555
O8 P3 1.522899 1_555
O9 P1 1.532578 1_555
O10 P2 1.510802 1_555
O11 P2 1.545399 1_555
O12 P3 1.545399 1_555
O13 P3 1.510802 1_555
O14 P4 1.532578 1_555
O15 P2 1.522899 1_555
O16 P3 1.561649 1_555
O17 P0 1.563335 1_455
O18 P5 1.566728 1_555
O19 P4 1.546333 1_555
O20 P4 1.582173 1_555
O21 P4 1.489406 1_565
O22 P5 1.533101 1_555
O23 P5 1.497369 1_555
