# generated using pymatgen
data_KV5Co(H8O11)2
_symmetry_space_group_name_H-M   'P 1'
_cell_length_a   8.88515900
_cell_length_b   10.80879726
_cell_length_c   11.20751984
_cell_angle_alpha   65.99263932
_cell_angle_beta   75.40209904
_cell_angle_gamma   71.05185106
_symmetry_Int_Tables_number   1
_chemical_formula_structural   KV5Co(H8O11)2
_chemical_formula_sum   'K2 V10 Co2 H32 O44'
_cell_volume   920.95469737
_cell_formula_units_Z   2
loop_
 _symmetry_equiv_pos_site_id
 _symmetry_equiv_pos_as_xyz
  1  'x, y, z'
loop_
 _atom_site_type_symbol
 _atom_site_label
 _atom_site_symmetry_multiplicity
 _atom_site_fract_x
 _atom_site_fract_y
 _atom_site_fract_z
 _atom_site_occupancy
  K  K0  1  0.32016500  0.91586400  0.77994400  1
  K  K1  1  0.67983500  0.08413600  0.22005600  1
  V  V0  1  0.38424300  0.78357700  0.44863100  1
  V  V1  1  0.69674700  0.73394700  0.24551700  1
  V  V2  1  0.35069400  0.55582000  0.72576700  1
  V  V3  1  0.67328200  0.50371700  0.52243100  1
  V  V4  1  0.36602000  0.72506400  0.19715700  1
  V  V5  1  0.63398000  0.27493600  0.80284300  1
  V  V6  1  0.32671800  0.49628300  0.47756900  1
  V  V7  1  0.64930600  0.44418000  0.27423300  1
  V  V8  1  0.30325300  0.26605300  0.75448300  1
  V  V9  1  0.61575700  0.21642300  0.55136900  1
  Co  Co0  1  0.77465800  0.72817800  0.79298300  1
  Co  Co1  1  0.22534200  0.27182200  0.20701700  1
  H  H0  1  0.64822400  0.98901200  0.81684700  1
  H  H1  1  0.95216000  0.89234800  0.83773000  1
  H  H2  1  0.94745100  0.93657700  0.65562700  1
  H  H3  1  0.60817700  0.87103200  0.95876100  1
  H  H4  1  0.97247900  0.70824000  0.95720300  1
  H  H5  1  0.96117700  0.84073900  0.57573300  1
  H  H6  1  0.67490000  0.89928600  0.55847100  1
  H  H7  1  0.60705600  0.76250900  0.60127500  1
  H  H8  1  0.56437800  0.60066400  0.99906500  1
  H  H9  1  0.91566700  0.75655600  0.41863600  1
  H  H10  1  0.57686200  0.55378700  0.87708900  1
  H  H11  1  0.06740800  0.98450200  0.11761500  1
  H  H12  1  0.86393900  0.49562600  0.71171200  1
  H  H13  1  0.05329400  0.83160300  0.36468000  1
  H  H14  1  0.98434400  0.48675100  0.24879000  1
  H  H15  1  0.87434800  0.59732400  0.03674900  1
  H  H16  1  0.12565200  0.40267600  0.96325100  1
  H  H17  1  0.01565600  0.51324900  0.75121000  1
  H  H18  1  0.94670600  0.16839700  0.63532000  1
  H  H19  1  0.13606100  0.50437400  0.28828800  1
  H  H20  1  0.93259200  0.01549800  0.88238500  1
  H  H21  1  0.42313800  0.44621300  0.12291100  1
  H  H22  1  0.08433300  0.24344400  0.58136400  1
  H  H23  1  0.43562200  0.39933600  0.00093500  1
  H  H24  1  0.39294400  0.23749100  0.39872500  1
  H  H25  1  0.32510000  0.10071400  0.44152900  1
  H  H26  1  0.03882300  0.15926100  0.42426700  1
  H  H27  1  0.02752100  0.29176000  0.04279700  1
  H  H28  1  0.39182300  0.12896800  0.04123900  1
  H  H29  1  0.05254900  0.06342300  0.34437300  1
  H  H30  1  0.04784000  0.10765200  0.16227000  1
  H  H31  1  0.35177600  0.01098800  0.18315300  1
  O  O0  1  0.00923200  0.93086500  0.87179100  1
  O  O1  1  0.64173700  0.89129800  0.86236400  1
  O  O2  1  0.94318900  0.84379300  0.66597400  1
  O  O3  1  0.92139800  0.64692600  0.94569600  1
  O  O4  1  0.94263200  0.84057700  0.41141200  1
  O  O5  1  0.63553000  0.82444700  0.63355900  1
  O  O6  1  0.29253600  0.90572900  0.51208800  1
  O  O7  1  0.59580000  0.62550700  0.90168200  1
  O  O8  1  0.56133600  0.84189800  0.34537300  1
  O  O9  1  0.90460300  0.55974700  0.73064000  1
  O  O10  1  0.82886800  0.82276500  0.16223500  1
  O  O11  1  0.26287600  0.67594600  0.78996000  1
  O  O12  1  0.27868900  0.83712800  0.30411400  1
  O  O13  1  0.52177700  0.64706900  0.58970800  1
  O  O14  1  0.54436100  0.80029600  0.13052200  1
  O  O15  1  0.79288200  0.61298100  0.41436500  1
  O  O16  1  0.26076600  0.63768100  0.55360500  1
  O  O17  1  0.50585200  0.44117800  0.83768200  1
  O  O18  1  0.25685400  0.80828600  0.07805600  1
  O  O19  1  0.51466500  0.59550200  0.38119200  1
  O  O20  1  0.76310600  0.40596600  0.66608600  1
  O  O21  1  0.78190900  0.56524600  0.20429300  1
  O  O22  1  0.21809100  0.43475400  0.79570700  1
  O  O23  1  0.23689400  0.59403400  0.33391400  1
  O  O24  1  0.48533500  0.40449800  0.61880800  1
  O  O25  1  0.74314600  0.19171400  0.92194400  1
  O  O26  1  0.49414800  0.55882200  0.16231800  1
  O  O27  1  0.73923400  0.36231900  0.44639500  1
  O  O28  1  0.20711800  0.38701900  0.58563500  1
  O  O29  1  0.45563900  0.19970400  0.86947800  1
  O  O30  1  0.47822300  0.35293100  0.41029200  1
  O  O31  1  0.72131100  0.16287200  0.69588600  1
  O  O32  1  0.73712400  0.32405400  0.21004000  1
  O  O33  1  0.17113200  0.17723500  0.83776500  1
  O  O34  1  0.09539700  0.44025300  0.26936000  1
  O  O35  1  0.43866400  0.15810200  0.65462700  1
  O  O36  1  0.40420000  0.37449300  0.09831800  1
  O  O37  1  0.70746400  0.09427100  0.48791200  1
  O  O38  1  0.36447000  0.17555300  0.36644100  1
  O  O39  1  0.05736800  0.15942300  0.58858800  1
  O  O40  1  0.07860200  0.35307400  0.05430400  1
  O  O41  1  0.05681100  0.15620700  0.33402600  1
  O  O42  1  0.35826300  0.10870200  0.13763600  1
  O  O43  1  0.99076800  0.06913500  0.12820900  1
loop_
_geom_bond_atom_site_label_1
_geom_bond_atom_site_label_2
_geom_bond_distance
_geom_bond_site_symmetry_2
K0 O0 2.670163 1_555
K0 O11 2.754649 1_555
K0 O35 2.826528 1_565
K0 O5 2.953525 1_555
K0 O33 2.963496 1_565
K0 O18 3.024501 1_556
K0 O1 3.118583 1_555
K0 O6 3.121028 1_555
K0 O7 3.304164 1_555
K0 O39 3.304564 1_565
K1 O43 2.670163 1_555
K1 O32 2.754649 1_555
K1 O8 2.826528 1_545
K1 O38 2.953525 1_555
K1 O10 2.963496 1_545
K1 O25 3.024501 1_554
K1 O42 3.118583 1_555
K1 O37 3.121028 1_555
K1 O36 3.304164 1_555
K1 O4 3.304564 1_545
Co0 O7 2.076178 1_555
Co0 O9 2.097371 1_555
Co0 O1 2.099636 1_555
Co0 O2 2.126858 1_555
Co0 O3 2.135102 1_555
Co0 O5 2.137402 1_555
Co1 O36 2.076178 1_555
Co1 O34 2.097371 1_555
Co1 O42 2.099636 1_555
Co1 O41 2.126858 1_555
Co1 O40 2.135102 1_555
Co1 O38 2.137402 1_555
H0 O1 0.982523 1_555
H1 O0 0.969635 1_655
H2 O2 0.973896 1_555
H3 O1 0.995773 1_555
H4 O3 0.977868 1_555
H5 O2 0.995881 1_555
H6 O5 0.983042 1_555
H7 O5 0.998181 1_555
H7 O13 1.715519 1_555
H8 O7 0.998934 1_555
H8 O26 1.695885 1_556
H9 O4 0.980011 1_555
H10 O7 0.993571 1_555
H10 O17 1.775176 1_555
H11 O43 0.978625 1_465
H12 O9 0.988324 1_555
H13 O4 0.985048 1_455
H14 O34 0.988782 1_655
H15 O3 0.994438 1_554
H16 O40 0.994438 1_556
H17 O9 0.988782 1_455
H18 O39 0.985048 1_655
H19 O34 0.988324 1_555
H20 O0 0.978625 1_645
H21 O36 0.993571 1_555
H21 O26 1.775176 1_555
H22 O39 0.980011 1_555
H23 O36 0.998934 1_555
H23 O17 1.695885 1_554
H24 O38 0.998181 1_555
H24 O30 1.715519 1_555
H25 O38 0.983042 1_555
H26 O41 0.995881 1_555
H27 O40 0.977868 1_555
H28 O42 0.995773 1_555
H29 O41 0.973896 1_555
H30 O43 0.969635 1_455
H31 O42 0.982523 1_555
O6 V0 1.638986 1_555
O8 V0 1.828992 1_555
O8 V1 1.879801 1_555
O10 V1 1.619060 1_555
O11 V2 1.622197 1_555
O12 V0 1.867693 1_555
O12 V4 1.899598 1_555
O13 V3 1.966197 1_555
O13 V0 2.018659 1_555
O13 V2 2.046994 1_555
O14 V4 1.864413 1_555
O14 V1 1.872299 1_555
O15 V3 1.730116 1_555
O15 V1 2.023950 1_555
O16 V6 1.905746 1_555
O16 V0 2.009450 1_555
O16 V2 2.018200 1_555
O17 V2 1.872639 1_555
O17 V5 1.922399 1_555
O18 V4 1.625024 1_555
O19 V3 2.101146 1_555
O19 V6 2.101613 1_555
O19 V7 2.268300 1_555
O19 V0 2.307718 1_555
O19 V1 2.376864 1_555
O19 V4 2.404440 1_555
O20 V3 1.749669 1_555
O20 V5 2.018378 1_555
O21 V7 1.848254 1_555
O21 V1 1.929834 1_555
O22 V2 1.848254 1_555
O22 V8 1.929834 1_555
O23 V6 1.749669 1_555
O23 V4 2.018378 1_555
O24 V6 2.101146 1_555
O24 V3 2.101613 1_555
O24 V2 2.268300 1_555
O24 V9 2.307718 1_555
O24 V8 2.376864 1_555
O24 V5 2.404440 1_555
O25 V5 1.625024 1_555
O26 V7 1.872639 1_555
O26 V4 1.922399 1_555
O27 V3 1.905746 1_555
O27 V9 2.009450 1_555
O27 V7 2.018200 1_555
O28 V6 1.730116 1_555
O28 V8 2.023950 1_555
O29 V5 1.864413 1_555
O29 V8 1.872299 1_555
O30 V6 1.966197 1_555
O30 V9 2.018659 1_555
O30 V7 2.046994 1_555
O31 V9 1.867693 1_555
O31 V5 1.899598 1_555
O32 V7 1.622197 1_555
O33 V8 1.619060 1_555
O35 V9 1.828992 1_555
O35 V8 1.879801 1_555
O37 V9 1.638986 1_555
