# generated using pymatgen
data_Li3Al2FeO6
_symmetry_space_group_name_H-M   'P 1'
_cell_length_a   5.34768900
_cell_length_b   5.85778854
_cell_length_c   7.82028684
_cell_angle_alpha   90.78144548
_cell_angle_beta   98.55855679
_cell_angle_gamma   90.23326098
_symmetry_Int_Tables_number   1
_chemical_formula_structural   Li3Al2FeO6
_chemical_formula_sum   'Li6 Al4 Fe2 O12'
_cell_volume   242.22030462
_cell_formula_units_Z   2
loop_
 _symmetry_equiv_pos_site_id
 _symmetry_equiv_pos_as_xyz
  1  'x, y, z'
loop_
 _atom_site_type_symbol
 _atom_site_label
 _atom_site_symmetry_multiplicity
 _atom_site_fract_x
 _atom_site_fract_y
 _atom_site_fract_z
 _atom_site_occupancy
  Li  Li0  1  0.17629800  0.84307200  0.09439300  1
  Li  Li1  1  0.34717700  0.66352300  0.41968600  1
  Li  Li2  1  0.50222800  0.83458800  0.74424900  1
  Li  Li3  1  0.49777200  0.16541200  0.25575100  1
  Li  Li4  1  0.65282300  0.33647700  0.58031400  1
  Li  Li5  1  0.82370200  0.15692800  0.90560700  1
  Al  Al0  1  0.17525300  0.16774100  0.58916400  1
  Al  Al1  1  0.65802400  0.67210000  0.07793900  1
  Al  Al2  1  0.34197600  0.32790000  0.92206100  1
  Al  Al3  1  0.82474700  0.83225900  0.41083600  1
  Fe  Fe0  1  0.99468600  0.66943500  0.75349800  1
  Fe  Fe1  1  0.00531400  0.33056500  0.24650200  1
  O  O0  1  0.97657000  0.66523000  0.25384700  1
  O  O1  1  0.17304600  0.18753600  0.07459800  1
  O  O2  1  0.14516900  0.85353900  0.58122500  1
  O  O3  1  0.30819300  0.32171200  0.42590700  1
  O  O4  1  0.53238400  0.82785000  0.24522100  1
  O  O5  1  0.34062200  0.64186200  0.92089100  1
  O  O6  1  0.65937800  0.35813800  0.07910900  1
  O  O7  1  0.46761600  0.17215000  0.75477900  1
  O  O8  1  0.69180700  0.67828800  0.57409300  1
  O  O9  1  0.85483100  0.14646100  0.41877500  1
  O  O10  1  0.82695400  0.81246400  0.92540200  1
  O  O11  1  0.02343000  0.33477000  0.74615300  1
loop_
_geom_bond_atom_site_label_1
_geom_bond_atom_site_label_2
_geom_bond_distance
_geom_bond_site_symmetry_2
Li0 O1 2.025778 1_565
Li0 O0 2.050319 1_455
Li0 O5 2.078969 1_554
Li0 O4 2.088315 1_555
Li0 O10 2.127142 1_454
Li1 O3 2.014234 1_555
Li1 O8 2.048314 1_555
Li1 O4 2.049218 1_555
Li1 O2 2.092709 1_555
Li1 O0 2.201237 1_455
Li2 O7 1.988491 1_565
Li2 O8 2.003152 1_555
Li2 O10 2.076996 1_555
Li2 O5 2.078356 1_555
Li2 O2 2.136509 1_555
Li3 O4 1.988491 1_545
Li3 O3 2.003152 1_555
Li3 O1 2.076996 1_555
Li3 O6 2.078356 1_555
Li3 O9 2.136509 1_555
Li4 O8 2.014234 1_555
Li4 O3 2.048314 1_555
Li4 O7 2.049218 1_555
Li4 O9 2.092709 1_555
Li4 O11 2.201237 1_655
Li5 O10 2.025778 1_545
Li5 O11 2.050319 1_655
Li5 O6 2.078969 1_556
Li5 O7 2.088315 1_555
Li5 O1 2.127142 1_656
Al0 O3 1.801453 1_555
Al0 O11 1.842314 1_555
Al0 O2 1.846289 1_545
Al0 O7 1.875788 1_555
Al0 O9 2.010312 1_455
Al1 O4 1.797005 1_555
Al1 O10 1.804599 1_554
Al1 O6 1.839309 1_555
Al1 O5 1.947294 1_554
Al1 O0 2.024963 1_555
Al2 O7 1.797005 1_555
Al2 O1 1.804599 1_556
Al2 O5 1.839309 1_555
Al2 O6 1.947294 1_556
Al2 O11 2.024963 1_555
Al3 O8 1.801453 1_555
Al3 O0 1.842314 1_555
Al3 O9 1.846289 1_565
Al3 O4 1.875788 1_555
Al3 O2 2.010312 1_655
Fe0 O10 1.909996 1_555
Fe0 O11 1.967763 1_655
Fe0 O8 1.980109 1_555
Fe0 O2 1.995221 1_655
Fe0 O5 2.109378 1_655
Fe1 O1 1.909996 1_555
Fe1 O0 1.967763 1_455
Fe1 O3 1.980109 1_555
Fe1 O9 1.995221 1_455
Fe1 O6 2.109378 1_455
