# generated using pymatgen
data_Li5Cu(PO4)2
_symmetry_space_group_name_H-M   'P 1'
_cell_length_a   5.33075000
_cell_length_b   6.21188206
_cell_length_c   9.95261472
_cell_angle_alpha   90.05458698
_cell_angle_beta   90.09321507
_cell_angle_gamma   90.11288745
_symmetry_Int_Tables_number   1
_chemical_formula_structural   Li5Cu(PO4)2
_chemical_formula_sum   'Li10 Cu2 P4 O16'
_cell_volume   329.56956059
_cell_formula_units_Z   2
loop_
 _symmetry_equiv_pos_site_id
 _symmetry_equiv_pos_as_xyz
  1  'x, y, z'
loop_
 _atom_site_type_symbol
 _atom_site_label
 _atom_site_symmetry_multiplicity
 _atom_site_fract_x
 _atom_site_fract_y
 _atom_site_fract_z
 _atom_site_occupancy
  Li  Li0  1  0.15538200  0.00050600  0.74578400  1
  Li  Li1  1  0.15606900  0.00005800  0.24484800  1
  Li  Li2  1  0.32668000  0.75161400  0.49601700  1
  Li  Li3  1  0.32823000  0.75321100  0.99621300  1
  Li  Li4  1  0.67332200  0.74615400  0.24510900  1
  Li  Li5  1  0.67262000  0.74729100  0.74519100  1
  Li  Li6  1  0.84541200  0.49945900  0.99500100  1
  Li  Li7  1  0.67235000  0.25297100  0.74479200  1
  Li  Li8  1  0.67482700  0.25363700  0.24554600  1
  Li  Li9  1  0.32610500  0.25007300  0.49505400  1
  Cu  Cu0  1  0.82679700  0.50008900  0.49711200  1
  Cu  Cu1  1  0.33402400  0.24245500  0.99846500  1
  P  P0  1  0.82458200  0.99589200  0.99936800  1
  P  P1  1  0.82634500  0.99989400  0.49977100  1
  P  P2  1  0.17734000  0.50191700  0.24953700  1
  P  P3  1  0.17539800  0.50299900  0.74905600  1
  O  O0  1  0.81885200  0.99995600  0.65616800  1
  O  O1  1  0.10223600  0.00009900  0.44957100  1
  O  O2  1  0.82053900  0.99992800  0.15596800  1
  O  O3  1  0.09951100  0.98562600  0.94616000  1
  O  O4  1  0.68214600  0.79836700  0.44438900  1
  O  O5  1  0.68150200  0.79290400  0.94742900  1
  O  O6  1  0.31415300  0.70650200  0.19533800  1
  O  O7  1  0.31145100  0.70809200  0.69500500  1
  O  O8  1  0.17853500  0.50961600  0.90574200  1
  O  O9  1  0.89333800  0.50103500  0.70565200  1
  O  O10  1  0.19047400  0.50390200  0.40599700  1
  O  O11  1  0.90114000  0.49985900  0.19859800  1
  O  O12  1  0.30993900  0.29642100  0.69684300  1
  O  O13  1  0.31487800  0.29109400  0.20436500  1
  O  O14  1  0.68263400  0.20139500  0.44497000  1
  O  O15  1  0.70319400  0.20698900  0.94353400  1
loop_
_geom_bond_atom_site_label_1
_geom_bond_atom_site_label_2
_geom_bond_distance
_geom_bond_site_symmetry_2
Li0 O0 2.002141 1_445
Li0 O3 2.019039 1_545
Li0 O7 2.062186 1_545
Li0 O12 2.071729 1_555
Li1 O2 1.994123 1_445
Li1 O13 2.035663 1_555
Li1 O1 2.058101 1_555
Li1 O6 2.069767 1_545
Li2 O10 1.920552 1_555
Li2 O4 1.985020 1_555
Li2 O7 2.000831 1_555
Li2 O1 2.008632 1_565
Li3 O8 1.930693 1_555
Li3 O3 1.955867 1_555
Li3 O5 1.960706 1_555
Li3 O6 2.004720 1_556
Li4 O2 1.971829 1_555
Li4 O6 1.991661 1_555
Li4 O11 2.009406 1_555
Li4 O4 2.009857 1_555
Li5 O0 1.963712 1_555
Li5 O9 1.971471 1_555
Li5 O7 2.002586 1_555
Li5 O5 2.032837 1_555
Li6 O8 1.987816 1_655
Li6 O15 2.032092 1_555
Li6 O11 2.047503 1_556
Li6 O5 2.077733 1_555
Li7 O0 1.965344 1_545
Li7 O9 1.977245 1_555
Li7 O15 2.005323 1_555
Li7 O12 2.008037 1_555
Li8 O2 1.971393 1_545
Li8 O13 1.975675 1_555
Li8 O11 2.002267 1_555
Li8 O14 2.011828 1_555
Li9 O10 1.949255 1_555
Li9 O14 1.989251 1_555
Li9 O1 2.007464 1_555
Li9 O12 2.030581 1_555
Cu0 O14 2.072160 1_555
Cu0 O4 2.075866 1_555
Cu0 O9 2.105043 1_555
Cu0 O10 2.141713 1_655
Cu1 O15 2.055540 1_555
Cu1 O8 2.073328 1_555
Cu1 O13 2.073819 1_556
Cu1 O3 2.089865 1_545
O0 P1 1.557136 1_555
O1 P1 1.554022 1_445
O2 P0 1.558942 1_554
O3 P0 1.560528 1_455
O4 P1 1.566963 1_555
O5 P0 1.559683 1_555
O6 P2 1.561055 1_555
O7 P3 1.561231 1_555
O8 P3 1.559999 1_555
O9 P3 1.563761 1_655
O10 P2 1.558681 1_555
O11 P2 1.556437 1_655
O12 P3 1.560350 1_555
O13 P2 1.567955 1_555
O14 P1 1.566793 1_545
O15 P0 1.565444 1_545
