# generated using pymatgen
data_Li2CuPO4
_symmetry_space_group_name_H-M   'P 1'
_cell_length_a   5.40400000
_cell_length_b   6.21800547
_cell_length_c   10.06759111
_cell_angle_alpha   90.10337612
_cell_angle_beta   90.02128476
_cell_angle_gamma   90.28040741
_symmetry_Int_Tables_number   1
_chemical_formula_structural   Li2CuPO4
_chemical_formula_sum   'Li8 Cu4 P4 O16'
_cell_volume   338.28759246
_cell_formula_units_Z   4
loop_
 _symmetry_equiv_pos_site_id
 _symmetry_equiv_pos_as_xyz
  1  'x, y, z'
loop_
 _atom_site_type_symbol
 _atom_site_label
 _atom_site_symmetry_multiplicity
 _atom_site_fract_x
 _atom_site_fract_y
 _atom_site_fract_z
 _atom_site_occupancy
  Li  Li0  1  0.15520000  0.00157100  0.74623900  1
  Li  Li1  1  0.15495700  0.99970200  0.24613900  1
  Li  Li2  1  0.32674900  0.75294000  0.49661000  1
  Li  Li3  1  0.32874400  0.75378000  0.99584100  1
  Li  Li4  1  0.67204200  0.74840800  0.74525800  1
  Li  Li5  1  0.84542100  0.50013400  0.99637500  1
  Li  Li6  1  0.84482200  0.49898700  0.49610800  1
  Li  Li7  1  0.67343200  0.25169400  0.24527900  1
  Cu  Cu0  1  0.66450200  0.74203600  0.24886500  1
  Cu  Cu1  1  0.66433500  0.25850600  0.74624800  1
  Cu  Cu2  1  0.33826600  0.24350800  0.49722500  1
  Cu  Cu3  1  0.33134800  0.24347800  0.99779100  1
  P  P0  1  0.82809100  0.99714900  0.99946900  1
  P  P1  1  0.82806000  0.99451400  0.49919000  1
  P  P2  1  0.17231600  0.50040000  0.24925800  1
  P  P3  1  0.17179300  0.50934700  0.74953100  1
  O  O0  1  0.83138100  0.99507000  0.65384000  1
  O  O1  1  0.09814700  0.98544600  0.44459800  1
  O  O2  1  0.83108300  0.00404200  0.15401000  1
  O  O3  1  0.09826400  0.98823300  0.94443800  1
  O  O4  1  0.68130500  0.78948200  0.45401000  1
  O  O5  1  0.68355400  0.79655800  0.94715000  1
  O  O6  1  0.29808400  0.70777400  0.19173200  1
  O  O7  1  0.31727400  0.70788200  0.69615100  1
  O  O8  1  0.16927000  0.51306000  0.90406500  1
  O  O9  1  0.90166900  0.51526700  0.69444400  1
  O  O10  1  0.16940800  0.51193100  0.40378000  1
  O  O11  1  0.90202600  0.48694600  0.19469100  1
  O  O12  1  0.29471000  0.29380600  0.70262100  1
  O  O13  1  0.31669200  0.29446400  0.20599100  1
  O  O14  1  0.70376600  0.20309000  0.44398200  1
  O  O15  1  0.70328800  0.21079700  0.95166300  1
loop_
_geom_bond_atom_site_label_1
_geom_bond_atom_site_label_2
_geom_bond_distance
_geom_bond_site_symmetry_2
Li0 O0 1.981703 1_445
Li0 O12 2.013170 1_555
Li0 O3 2.020870 1_545
Li0 O7 2.090195 1_545
Li1 O2 1.980812 1_465
Li1 O1 2.023600 1_555
Li1 O6 2.050298 1_555
Li1 O13 2.067318 1_565
Li2 O10 1.955521 1_555
Li2 O4 1.975703 1_555
Li2 O1 1.977415 1_555
Li2 O7 2.029471 1_555
Li3 O8 1.954124 1_555
Li3 O3 1.991080 1_555
Li3 O5 1.995902 1_555
Li3 O6 2.000119 1_556
Li4 O9 1.979521 1_555
Li4 O0 1.983338 1_555
Li4 O7 1.994383 1_555
Li4 O5 2.054839 1_555
Li5 O8 1.983182 1_655
Li5 O15 2.003157 1_555
Li5 O11 2.021620 1_556
Li5 O5 2.103988 1_555
Li6 O10 1.986787 1_655
Li6 O9 2.022425 1_555
Li6 O14 2.055269 1_555
Li6 O4 2.059438 1_555
Li7 O11 1.977537 1_555
Li7 O13 1.987085 1_555
Li7 O2 1.987392 1_555
Li7 O14 2.030388 1_555
Cu0 O6 2.071642 1_555
Cu0 O4 2.087633 1_555
Cu0 O2 2.090062 1_565
Cu0 O11 2.116186 1_555
Cu1 O12 2.057887 1_555
Cu1 O0 2.091219 1_545
Cu1 O15 2.100377 1_555
Cu1 O9 2.109348 1_555
Cu2 O14 2.063229 1_555
Cu2 O12 2.104267 1_555
Cu2 O1 2.124940 1_545
Cu2 O10 2.126828 1_555
Cu3 O15 2.073949 1_555
Cu3 O3 2.090660 1_545
Cu3 O8 2.118216 1_555
Cu3 O13 2.120913 1_556
O0 P1 1.557047 1_555
O1 P1 1.561034 1_455
O2 P0 1.556444 1_544
O3 P0 1.562993 1_455
O4 P1 1.564906 1_555
O5 P0 1.559169 1_555
O6 P2 1.566664 1_555
O7 P3 1.556940 1_555
O8 P3 1.555981 1_555
O9 P3 1.561985 1_655
O10 P2 1.557275 1_555
O11 P2 1.562154 1_655
O12 P3 1.570717 1_555
O13 P2 1.564031 1_555
O14 P1 1.566192 1_545
O15 P0 1.569126 1_545
