# generated using pymatgen
data_LiFe4(BO3)4
_symmetry_space_group_name_H-M   'P 1'
_cell_length_a   5.22220300
_cell_length_b   9.22219975
_cell_length_c   11.33091244
_cell_angle_alpha   112.87548419
_cell_angle_beta   102.75155371
_cell_angle_gamma   90.94778883
_symmetry_Int_Tables_number   1
_chemical_formula_structural   LiFe4(BO3)4
_chemical_formula_sum   'Li2 Fe8 B8 O24'
_cell_volume   487.18971992
_cell_formula_units_Z   2
loop_
 _symmetry_equiv_pos_site_id
 _symmetry_equiv_pos_as_xyz
  1  'x, y, z'
loop_
 _atom_site_type_symbol
 _atom_site_label
 _atom_site_symmetry_multiplicity
 _atom_site_fract_x
 _atom_site_fract_y
 _atom_site_fract_z
 _atom_site_occupancy
  Li  Li0  1  0.62188400  0.96346700  0.59662300  1
  Li  Li1  1  0.83605000  0.50150100  0.34770500  1
  Fe  Fe0  1  0.65218500  0.64323000  0.62523500  1
  Fe  Fe1  1  0.39179900  0.06601300  0.12063500  1
  Fe  Fe2  1  0.84935300  0.85195400  0.36919800  1
  Fe  Fe3  1  0.09990100  0.43176000  0.87159400  1
  Fe  Fe4  1  0.88963100  0.57119200  0.12263900  1
  Fe  Fe5  1  0.14152600  0.15296500  0.62029500  1
  Fe  Fe6  1  0.35235400  0.34387300  0.37619800  1
  Fe  Fe7  1  0.60625600  0.93076000  0.86867400  1
  B  B0  1  0.64405100  0.30294700  0.61935900  1
  B  B1  1  0.38369200  0.39722500  0.12853600  1
  B  B2  1  0.84675100  0.19229500  0.37391000  1
  B  B3  1  0.11050600  0.10435100  0.86763400  1
  B  B4  1  0.14750000  0.81970000  0.62339500  1
  B  B5  1  0.89247700  0.89439100  0.11903700  1
  B  B6  1  0.35312600  0.67849600  0.37415300  1
  B  B7  1  0.59974300  0.60641300  0.87522200  1
  O  O0  1  0.15218500  0.92022300  0.12647400  1
  O  O1  1  0.29330900  0.28617000  0.17034200  1
  O  O2  1  0.19610600  0.46843700  0.06728100  1
  O  O3  1  0.49753400  0.81377200  0.39802800  1
  O  O4  1  0.47848400  0.55928500  0.40713800  1
  O  O5  1  0.57156600  0.16668900  0.32269100  1
  O  O6  1  0.91887600  0.33045800  0.67156700  1
  O  O7  1  0.64709700  0.43864300  0.15138300  1
  O  O8  1  0.80203500  0.78606000  0.16279000  1
  O  O9  1  0.02096100  0.93606200  0.58523700  1
  O  O10  1  0.00688400  0.68972000  0.60999800  1
  O  O11  1  0.70829900  0.97851300  0.06919000  1
  O  O12  1  0.29894100  0.02986300  0.92552200  1
  O  O13  1  0.98641200  0.31637500  0.36860200  1
  O  O14  1  0.96670700  0.09318100  0.42829200  1
  O  O15  1  0.20421900  0.21337200  0.82386000  1
  O  O16  1  0.34058100  0.57812700  0.86774000  1
  O  O17  1  0.07687300  0.65161400  0.32248200  1
  O  O18  1  0.42587400  0.84648800  0.66924900  1
  O  O19  1  0.52243200  0.40400700  0.56684100  1
  O  O20  1  0.50501500  0.17607400  0.62028700  1
  O  O21  1  0.78497900  0.52189800  0.92547400  1
  O  O22  1  0.69065900  0.71485000  0.83259100  1
  O  O23  1  0.84999100  0.07129100  0.85296900  1
loop_
_geom_bond_atom_site_label_1
_geom_bond_atom_site_label_2
_geom_bond_distance
_geom_bond_site_symmetry_2
Li0 O18 1.978459 1_555
Li0 O20 1.997957 1_565
Li0 O3 2.073951 1_555
Li0 O9 2.129460 1_655
Li1 O13 1.965697 1_555
Li1 O17 1.997115 1_655
Li1 O7 2.065837 1_555
Li1 O4 2.129145 1_555
Fe0 O10 1.953748 1_655
Fe0 O19 2.093283 1_555
Fe0 O22 2.139542 1_555
Fe0 O18 2.183082 1_555
Fe0 O4 2.242539 1_555
Fe1 O0 1.851459 1_545
Fe1 O11 1.956151 1_545
Fe1 O1 1.994339 1_555
Fe1 O12 2.045075 1_554
Fe1 O5 2.086810 1_555
Fe2 O3 1.984752 1_555
Fe2 O14 2.094902 1_565
Fe2 O8 2.129608 1_555
Fe2 O17 2.166879 1_655
Fe2 O9 2.220237 1_655
Fe3 O16 1.848679 1_555
Fe3 O21 1.965272 1_455
Fe3 O15 1.991243 1_555
Fe3 O2 2.050077 1_556
Fe3 O6 2.069337 1_455
Fe4 O7 1.909166 1_555
Fe4 O8 1.940044 1_555
Fe4 O2 1.970835 1_655
Fe4 O21 2.039502 1_554
Fe4 O17 2.080046 1_655
Fe5 O20 1.906657 1_555
Fe5 O9 1.945676 1_545
Fe5 O6 1.997656 1_455
Fe5 O14 2.011107 1_455
Fe5 O15 2.097481 1_555
Fe6 O13 1.902135 1_455
Fe6 O4 1.953597 1_555
Fe6 O5 1.986498 1_555
Fe6 O19 1.992003 1_555
Fe6 O1 2.128621 1_555
Fe7 O23 1.885768 1_565
Fe7 O22 1.949831 1_555
Fe7 O12 1.967987 1_565
Fe7 O18 2.065968 1_555
Fe7 O11 2.078432 1_556
B0 O20 1.371546 1_555
B0 O19 1.382040 1_555
B0 O6 1.403769 1_555
B1 O7 1.361472 1_555
B1 O2 1.395776 1_555
B1 O1 1.398569 1_555
B2 O13 1.374850 1_555
B2 O14 1.376241 1_555
B2 O5 1.404210 1_555
B3 O23 1.348525 1_455
B3 O12 1.399360 1_555
B3 O15 1.405332 1_555
B4 O10 1.333928 1_555
B4 O18 1.413930 1_555
B4 O9 1.425918 1_555
B5 O0 1.351486 1_655
B5 O8 1.392759 1_555
B5 O11 1.404096 1_555
B6 O3 1.347102 1_555
B6 O17 1.409943 1_555
B6 O4 1.418505 1_555
B7 O16 1.351811 1_555
B7 O22 1.385606 1_555
B7 O21 1.412189 1_555
