# generated using pymatgen
data_Na9Ni11O20
_symmetry_space_group_name_H-M   'P 1'
_cell_length_a   6.75327022
_cell_length_b   7.88672554
_cell_length_c   8.00802098
_cell_angle_alpha   115.67306854
_cell_angle_beta   93.67886317
_cell_angle_gamma   89.34839123
_symmetry_Int_Tables_number   1
_chemical_formula_structural   Na9Ni11O20
_chemical_formula_sum   'Na9 Ni11 O20'
_cell_volume   383.55519874
_cell_formula_units_Z   1
loop_
 _symmetry_equiv_pos_site_id
 _symmetry_equiv_pos_as_xyz
  1  'x, y, z'
loop_
 _atom_site_type_symbol
 _atom_site_label
 _atom_site_symmetry_multiplicity
 _atom_site_fract_x
 _atom_site_fract_y
 _atom_site_fract_z
 _atom_site_occupancy
  Na  Na0  1  0.40793170  0.60004456  0.89892524  1
  Na  Na1  1  0.88592723  0.60159536  0.40516541  1
  Na  Na2  1  0.59206830  0.39995544  0.10107476  1
  Na  Na3  1  0.79132622  0.20407223  0.29676547  1
  Na  Na4  1  0.11407277  0.39840464  0.59483459  1
  Na  Na5  1  0.50000000  -0.00000000  -0.00000000  1
  Na  Na6  1  0.30609163  0.19767063  0.79760982  1
  Na  Na7  1  0.69390837  0.80232937  0.20239018  1
  Na  Na8  1  0.20867378  0.79592777  0.70323453  1
  Ni  Ni0  1  -0.00000000  0.50000000  -0.00000000  1
  Ni  Ni1  1  0.50000000  0.50000000  0.50000000  1
  Ni  Ni2  1  0.71209234  0.29962595  0.69847617  1
  Ni  Ni3  1  0.19525675  0.29952043  0.19821499  1
  Ni  Ni4  1  0.90763024  0.10196208  0.89497134  1
  Ni  Ni5  1  0.39809296  0.09988998  0.40172166  1
  Ni  Ni6  1  0.09236976  0.89803792  0.10502866  1
  Ni  Ni7  1  0.60190704  0.90011002  0.59827834  1
  Ni  Ni8  1  -0.00000000  -0.00000000  0.50000000  1
  Ni  Ni9  1  0.80474325  0.70047957  0.80178501  1
  Ni  Ni10  1  0.28790766  0.70037405  0.30152383  1
  O  O0  1  0.55459880  0.66274854  0.36238607  1
  O  O1  1  0.06857482  0.66054585  0.88508770  1
  O  O2  1  0.73552380  0.52287492  0.92582264  1
  O  O3  1  0.26447620  0.47712508  0.07417736  1
  O  O4  1  0.21613065  0.53871482  0.41362761  1
  O  O5  1  0.78386935  0.46128518  0.58637239  1
  O  O6  1  0.64566185  0.15097912  0.82467347  1
  O  O7  1  0.45632813  0.25574150  0.26392959  1
  O  O8  1  0.44540120  0.33725146  0.63761393  1
  O  O9  1  0.93142518  0.33945415  0.11491230  1
  O  O10  1  0.10261175  0.12165793  0.33136633  1
  O  O11  1  0.98010733  0.24728331  0.74328492  1
  O  O12  1  0.70010893  0.06968685  0.47940529  1
  O  O13  1  0.17196448  0.06867831  0.97649937  1
  O  O14  1  0.35433815  0.84902088  0.17532653  1
  O  O15  1  0.29989107  0.93031315  0.52059471  1
  O  O16  1  0.82803552  0.93132169  0.02350063  1
  O  O17  1  0.89738825  0.87834207  0.66863367  1
  O  O18  1  0.01989267  0.75271669  0.25671508  1
  O  O19  1  0.54367187  0.74425850  0.73607041  1
loop_
_geom_bond_atom_site_label_1
_geom_bond_atom_site_label_2
_geom_bond_distance
_geom_bond_site_symmetry_2
Na0 O8 2.244242 1_555
Na0 O14 2.281821 1_556
Na0 O3 2.285312 1_556
Na0 O19 2.301545 1_555
Na0 O2 2.309323 1_555
Na0 O1 2.341050 1_555
Na1 O18 2.245540 1_655
Na1 O4 2.282059 1_655
Na1 O17 2.283443 1_555
Na1 O5 2.311350 1_555
Na1 O0 2.318804 1_555
Na1 O9 2.384268 1_555
Na2 O0 2.244242 1_555
Na2 O6 2.281821 1_554
Na2 O2 2.285312 1_554
Na2 O7 2.301545 1_555
Na2 O3 2.309323 1_555
Na2 O9 2.341050 1_555
Na3 O10 2.229057 1_655
Na3 O12 2.261757 1_555
Na3 O7 2.312766 1_555
Na3 O5 2.330765 1_555
Na3 O16 2.335848 1_545
Na3 O9 2.388098 1_555
Na4 O11 2.245540 1_455
Na4 O5 2.282059 1_455
Na4 O10 2.283443 1_555
Na4 O4 2.311350 1_555
Na4 O8 2.318804 1_555
Na4 O1 2.384268 1_555
Na5 O7 2.234942 1_555
Na5 O19 2.234942 1_544
Na5 O16 2.289965 1_545
Na5 O13 2.289965 1_554
Na5 O6 2.451370 1_554
Na5 O14 2.451370 1_545
Na6 O8 2.266912 1_555
Na6 O11 2.278987 1_455
Na6 O15 2.303480 1_545
Na6 O13 2.314708 1_555
Na6 O6 2.329710 1_555
Na6 O3 2.382848 1_556
Na7 O0 2.266912 1_555
Na7 O18 2.278987 1_655
Na7 O12 2.303480 1_565
Na7 O16 2.314708 1_555
Na7 O14 2.329710 1_555
Na7 O2 2.382848 1_554
Na8 O17 2.229057 1_455
Na8 O15 2.261757 1_555
Na8 O19 2.312766 1_555
Na8 O4 2.330765 1_555
Na8 O13 2.335848 1_565
Na8 O1 2.388098 1_555
Ni0 O3 1.877460 1_555
Ni0 O2 1.877460 1_454
Ni0 O1 1.934449 1_554
Ni0 O9 1.934449 1_455
Ni0 O11 2.153401 1_454
Ni0 O18 2.153401 1_555
Ni1 O19 2.039045 1_555
Ni1 O7 2.039045 1_555
Ni1 O5 2.060637 1_555
Ni1 O4 2.060637 1_555
Ni1 O8 2.070369 1_555
Ni1 O0 2.070369 1_555
Ni2 O8 1.889405 1_555
Ni2 O12 1.897731 1_555
Ni2 O11 1.898210 1_555
Ni2 O2 1.905663 1_555
Ni2 O6 1.921881 1_555
Ni2 O5 1.930815 1_555
Ni3 O7 1.878601 1_555
Ni3 O13 1.913514 1_554
Ni3 O4 1.926007 1_555
Ni3 O9 1.932744 1_455
Ni3 O3 2.108837 1_555
Ni3 O10 2.213072 1_555
Ni4 O17 1.901922 1_545
Ni4 O6 1.908253 1_555
Ni4 O13 1.915747 1_655
Ni4 O9 1.936053 1_556
Ni4 O11 2.079422 1_555
Ni4 O16 2.108827 1_546
Ni5 O8 2.011712 1_555
Ni5 O7 2.031001 1_555
Ni5 O14 2.031080 1_545
Ni5 O10 2.064103 1_555
Ni5 O15 2.083019 1_545
Ni5 O12 2.134997 1_555
Ni6 O10 1.901922 1_565
Ni6 O14 1.908253 1_555
Ni6 O16 1.915747 1_455
Ni6 O1 1.936053 1_554
Ni6 O18 2.079422 1_555
Ni6 O13 2.108827 1_564
Ni7 O0 2.011712 1_555
Ni7 O19 2.031001 1_555
Ni7 O6 2.031080 1_565
Ni7 O17 2.064103 1_555
Ni7 O12 2.083019 1_565
Ni7 O15 2.134997 1_555
Ni8 O11 2.086283 1_455
Ni8 O18 2.086283 1_545
Ni8 O15 2.107425 1_545
Ni8 O12 2.107425 1_455
Ni8 O10 2.117156 1_555
Ni8 O17 2.117156 1_445
Ni9 O19 1.878601 1_555
Ni9 O16 1.913514 1_556
Ni9 O5 1.926007 1_555
Ni9 O1 1.932744 1_655
Ni9 O2 2.108837 1_555
Ni9 O17 2.213072 1_555
Ni10 O0 1.889405 1_555
Ni10 O15 1.897731 1_555
Ni10 O18 1.898210 1_555
Ni10 O3 1.905663 1_555
Ni10 O14 1.921881 1_555
Ni10 O4 1.930815 1_555
