# generated using pymatgen
data_LiMnF4
_symmetry_space_group_name_H-M   'P 1'
_cell_length_a   4.98128800
_cell_length_b   7.52319900
_cell_length_c   7.64202227
_cell_angle_alpha   77.09396478
_cell_angle_beta   90.00000000
_cell_angle_gamma   90.00000000
_symmetry_Int_Tables_number   1
_chemical_formula_structural   LiMnF4
_chemical_formula_sum   'Li4 Mn4 F16'
_cell_volume   279.15168380
_cell_formula_units_Z   4
loop_
 _symmetry_equiv_pos_site_id
 _symmetry_equiv_pos_as_xyz
  1  'x, y, z'
loop_
 _atom_site_type_symbol
 _atom_site_label
 _atom_site_symmetry_multiplicity
 _atom_site_fract_x
 _atom_site_fract_y
 _atom_site_fract_z
 _atom_site_occupancy
  Li  Li0  1  0.24078600  0.16200800  0.14211900  1
  Li  Li1  1  0.25921400  0.66200800  0.14211900  1
  Li  Li2  1  0.74078600  0.33799200  0.85788100  1
  Li  Li3  1  0.75921400  0.83799200  0.85788100  1
  Mn  Mn0  1  0.74968600  0.31783000  0.31606500  1
  Mn  Mn1  1  0.75031400  0.81783000  0.31606500  1
  Mn  Mn2  1  0.24968600  0.18217000  0.68393500  1
  Mn  Mn3  1  0.25031400  0.68217000  0.68393500  1
  F  F0  1  0.57073500  0.30573200  0.09122200  1
  F  F1  1  0.92926500  0.80573200  0.09122200  1
  F  F2  1  0.05588600  0.41448800  0.19839000  1
  F  F3  1  0.44411400  0.91448800  0.19839000  1
  F  F4  1  0.91354900  0.06651500  0.31110200  1
  F  F5  1  0.58645100  0.56651500  0.31110200  1
  F  F6  1  0.44534000  0.20328200  0.44114000  1
  F  F7  1  0.05466000  0.70328200  0.44114000  1
  F  F8  1  0.94534000  0.29671800  0.55886000  1
  F  F9  1  0.55466000  0.79671800  0.55886000  1
  F  F10  1  0.41354900  0.43348500  0.68889800  1
  F  F11  1  0.08645100  0.93348500  0.68889800  1
  F  F12  1  0.55588600  0.08551200  0.80161000  1
  F  F13  1  0.94411400  0.58551200  0.80161000  1
  F  F14  1  0.07073500  0.19426800  0.90877800  1
  F  F15  1  0.42926500  0.69426800  0.90877800  1
loop_
_geom_bond_atom_site_label_1
_geom_bond_atom_site_label_2
_geom_bond_distance
_geom_bond_site_symmetry_2
F0 Li2 1.939820 1_554
F0 Mn0 1.955799 1_555
F0 Li0 1.958029 1_555
F1 Li3 1.939820 1_554
F1 Mn1 1.955799 1_555
F1 Li1 1.958029 1_655
F2 Mn0 1.836251 1_455
F2 Li1 2.078611 1_555
F2 Li0 2.237420 1_555
F3 Mn1 1.836251 1_555
F3 Li0 2.078611 1_565
F3 Li1 2.237420 1_555
F4 Mn1 2.032535 1_545
F4 Mn0 2.067475 1_555
F4 Li0 2.103909 1_655
F5 Mn0 2.032535 1_555
F5 Mn1 2.067475 1_555
F5 Li1 2.103909 1_555
F6 Mn0 1.893847 1_555
F6 Mn2 2.070295 1_555
F7 Mn1 1.893847 1_455
F7 Mn3 2.070295 1_555
F8 Mn2 1.893847 1_655
F8 Mn0 2.070295 1_555
F9 Mn3 1.893847 1_555
F9 Mn1 2.070295 1_555
F10 Mn3 2.032535 1_555
F10 Mn2 2.067475 1_555
F10 Li2 2.103909 1_555
F11 Mn2 2.032535 1_565
F11 Mn3 2.067475 1_555
F11 Li3 2.103909 1_455
F12 Mn2 1.836251 1_555
F12 Li3 2.078611 1_545
F12 Li2 2.237420 1_555
F13 Mn3 1.836251 1_655
F13 Li2 2.078611 1_555
F13 Li3 2.237420 1_555
F14 Li0 1.939820 1_556
F14 Mn2 1.955799 1_555
F14 Li2 1.958029 1_455
F15 Li1 1.939820 1_556
F15 Mn3 1.955799 1_555
F15 Li3 1.958029 1_555
