# generated using pymatgen
data_Zr7VO16
_symmetry_space_group_name_H-M   'P 1'
_cell_length_a   7.25537108
_cell_length_b   7.25329952
_cell_length_c   12.91889191
_cell_angle_alpha   103.58705386
_cell_angle_beta   73.68411526
_cell_angle_gamma   119.99541700
_symmetry_Int_Tables_number   1
_chemical_formula_structural   Zr7VO16
_chemical_formula_sum   'Zr14 V2 O32'
_cell_volume   561.42974432
_cell_formula_units_Z   2
loop_
 _symmetry_equiv_pos_site_id
 _symmetry_equiv_pos_as_xyz
  1  'x, y, z'
loop_
 _atom_site_type_symbol
 _atom_site_label
 _atom_site_symmetry_multiplicity
 _atom_site_fract_x
 _atom_site_fract_y
 _atom_site_fract_z
 _atom_site_occupancy
  Zr  Zr0  1  0.61099400  0.36626000  0.39413600  1
  Zr  Zr1  1  0.61098500  0.86626600  0.89415000  1
  Zr  Zr2  1  0.87367200  0.63110300  0.13353600  1
  Zr  Zr3  1  0.87376100  0.13110800  0.63356400  1
  Zr  Zr4  1  0.12545600  0.37502400  0.37391500  1
  Zr  Zr5  1  0.12548700  0.87509000  0.87392400  1
  Zr  Zr6  1  0.12538500  0.87781000  0.36745400  1
  Zr  Zr7  1  0.12539000  0.37783100  0.86744600  1
  Zr  Zr8  1  0.63504700  0.87775300  0.36745400  1
  Zr  Zr9  1  0.63507000  0.37778900  0.86743400  1
  Zr  Zr10  1  0.88070600  0.12753100  0.12107200  1
  Zr  Zr11  1  0.88077600  0.62756700  0.62107200  1
  Zr  Zr12  1  0.37584300  0.12754900  0.12110300  1
  Zr  Zr13  1  0.37580900  0.62751000  0.62110200  1
  V  V0  1  0.35669000  0.08889500  0.62565600  1
  V  V1  1  0.35652900  0.58884200  0.12569500  1
  O  O0  1  0.42297200  0.01227600  0.41627800  1
  O  O1  1  0.42299100  0.51232100  0.91626200  1
  O  O2  1  0.30674500  0.64774500  0.28432600  1
  O  O3  1  0.30675900  0.14774300  0.78428800  1
  O  O4  1  0.52872700  0.87079400  0.06347700  1
  O  O5  1  0.52872400  0.37079200  0.56344700  1
  O  O6  1  0.92078800  0.01930800  0.42771000  1
  O  O7  1  0.92075800  0.51935200  0.92776700  1
  O  O8  1  0.78804200  0.62859200  0.30237700  1
  O  O9  1  0.78805700  0.12860700  0.80239500  1
  O  O10  1  0.68730300  0.27736500  0.15273700  1
  O  O11  1  0.68731100  0.77735400  0.65275100  1
  O  O12  1  0.05352600  0.89900700  0.04193800  1
  O  O13  1  0.05354800  0.39893400  0.54189000  1
  O  O14  1  0.17391500  0.27310100  0.17520900  1
  O  O15  1  0.17397100  0.77306500  0.67516200  1
  O  O16  1  0.82444400  0.23366300  0.32672100  1
  O  O17  1  0.82446700  0.73368400  0.82673700  1
  O  O18  1  0.33249500  0.23369600  0.32672300  1
  O  O19  1  0.33246600  0.73369700  0.82674100  1
  O  O20  1  0.16751800  0.86603200  0.20448300  1
  O  O21  1  0.16749300  0.36604500  0.70449700  1
  O  O22  1  0.74405200  0.86606000  0.20447300  1
  O  O23  1  0.74410200  0.36609300  0.70447900  1
  O  O24  1  0.09898600  0.49422100  0.08213800  1
  O  O25  1  0.09908200  0.99424300  0.58214100  1
  O  O26  1  0.56296900  0.49432600  0.08218900  1
  O  O27  1  0.56309900  0.99427200  0.58212100  1
  O  O28  1  0.94863900  0.60592700  0.45242300  1
  O  O29  1  0.94863800  0.10592500  0.95244300  1
  O  O30  1  0.45491800  0.60590900  0.45246800  1
  O  O31  1  0.45490700  0.10593700  0.95249500  1
loop_
_geom_bond_atom_site_label_1
_geom_bond_atom_site_label_2
_geom_bond_distance
_geom_bond_site_symmetry_2
O0 Zr6 2.093189 1_545
O0 Zr8 2.093829 1_545
O0 Zr0 2.271308 1_555
O0 V0 2.585889 1_555
O1 Zr7 2.093208 1_555
O1 Zr9 2.093904 1_555
O1 Zr1 2.270979 1_555
O1 V1 2.586515 1_556
O2 V1 1.959540 1_555
O2 Zr4 2.145097 1_555
O2 Zr6 2.495772 1_555
O2 Zr8 2.496490 1_555
O3 V0 1.959526 1_555
O3 Zr5 2.145085 1_545
O3 Zr7 2.496008 1_555
O3 Zr9 2.496689 1_555
O4 V1 2.010658 1_555
O4 Zr1 2.096378 1_554
O4 Zr12 2.490568 1_565
O4 Zr10 2.490921 1_565
O5 V0 2.010285 1_555
O5 Zr0 2.096177 1_555
O5 Zr13 2.490491 1_555
O5 Zr11 2.491515 1_555
O6 Zr8 2.088319 1_545
O6 Zr6 2.088422 1_645
O6 Zr4 2.403514 1_655
O6 Zr3 2.569049 1_555
O7 Zr9 2.088519 1_555
O7 Zr7 2.088813 1_655
O7 Zr5 2.403875 1_655
O7 Zr2 2.567985 1_556
O8 Zr2 2.095246 1_555
O8 Zr0 2.106224 1_555
O8 Zr8 2.443911 1_555
O8 Zr6 2.446084 1_655
O9 Zr3 2.095114 1_555
O9 Zr1 2.106241 1_545
O9 Zr9 2.443983 1_555
O9 Zr7 2.445887 1_655
O10 Zr12 2.075894 1_555
O10 Zr10 2.076255 1_555
O10 Zr2 2.261584 1_555
O11 Zr13 2.076223 1_555
O11 Zr11 2.076353 1_555
O11 Zr3 2.261646 1_565
O12 Zr5 2.071449 1_554
O12 Zr2 2.134601 1_455
O12 Zr10 2.434437 1_465
O12 Zr12 2.435947 1_565
O13 Zr4 2.070969 1_555
O13 Zr3 2.134771 1_455
O13 Zr11 2.434916 1_455
O13 Zr13 2.435994 1_555
O14 Zr10 2.091101 1_455
O14 Zr12 2.091401 1_555
O14 V1 2.141888 1_555
O14 Zr4 2.474079 1_555
O15 Zr11 2.090753 1_455
O15 Zr13 2.090846 1_555
O15 V0 2.142385 1_565
O15 Zr5 2.474843 1_555
O16 Zr4 2.099559 1_655
O16 Zr0 2.102311 1_555
O16 Zr8 2.348302 1_545
O16 Zr10 2.561547 1_555
O17 Zr5 2.099535 1_655
O17 Zr1 2.102426 1_555
O17 Zr9 2.348061 1_555
O17 Zr11 2.561729 1_555
O18 Zr4 2.100090 1_555
O18 Zr0 2.102041 1_555
O18 Zr6 2.348149 1_545
O18 Zr12 2.561217 1_555
O19 Zr5 2.100078 1_555
O19 Zr1 2.102130 1_555
O19 Zr7 2.347920 1_555
O19 Zr13 2.561480 1_555
O20 Zr6 2.028167 1_555
O20 Zr12 2.054632 1_565
O20 Zr2 2.240695 1_455
O21 Zr7 2.027905 1_555
O21 Zr13 2.054472 1_555
O21 Zr3 2.240048 1_455
O22 Zr8 2.028173 1_555
O22 Zr10 2.054386 1_565
O22 Zr2 2.238987 1_555
O23 Zr9 2.027888 1_555
O23 Zr11 2.054432 1_555
O23 Zr3 2.239327 1_555
O24 V1 1.845617 1_555
O24 Zr2 2.191390 1_455
O24 Zr10 2.409264 1_455
O24 Zr7 2.684247 1_554
O25 V0 1.845728 1_565
O25 Zr3 2.191338 1_465
O25 Zr11 2.409178 1_455
O25 Zr6 2.684265 1_555
O26 V1 1.844431 1_555
O26 Zr2 2.191084 1_555
O26 Zr12 2.409761 1_555
O26 Zr9 2.685188 1_554
O27 V0 1.844769 1_565
O27 Zr3 2.191365 1_565
O27 Zr13 2.409879 1_555
O27 Zr8 2.684069 1_555
O28 Zr11 2.080361 1_555
O28 Zr6 2.106188 1_655
O28 Zr0 2.398674 1_555
O28 Zr4 2.469519 1_655
O29 Zr10 2.080115 1_556
O29 Zr7 2.106520 1_655
O29 Zr1 2.398742 1_545
O29 Zr5 2.469292 1_645
O30 Zr13 2.080168 1_555
O30 Zr8 2.106310 1_555
O30 Zr0 2.396845 1_555
O30 Zr4 2.471880 1_555
O31 Zr12 2.079840 1_556
O31 Zr9 2.106700 1_555
O31 Zr1 2.397000 1_545
O31 Zr5 2.471748 1_545
