# generated using pymatgen
data_Li5VF8
_symmetry_space_group_name_H-M   'P 1'
_cell_length_a   5.98928834
_cell_length_b   5.98928834
_cell_length_c   5.98928834
_cell_angle_alpha   122.23191686
_cell_angle_beta   120.70234844
_cell_angle_gamma   87.48243102
_symmetry_Int_Tables_number   1
_chemical_formula_structural   Li5VF8
_chemical_formula_sum   'Li5 V1 F8'
_cell_volume   148.35900189
_cell_formula_units_Z   1
loop_
 _symmetry_equiv_pos_site_id
 _symmetry_equiv_pos_as_xyz
  1  'x, y, z'
loop_
 _atom_site_type_symbol
 _atom_site_label
 _atom_site_symmetry_multiplicity
 _atom_site_fract_x
 _atom_site_fract_y
 _atom_site_fract_z
 _atom_site_occupancy
  Li  Li0  1  0.00000000  0.50000000  0.00000000  1
  Li  Li1  1  0.50000000  0.00000000  0.00000000  1
  Li  Li2  1  0.50000000  0.50000000  0.50000000  1
  Li  Li3  1  0.50000000  0.00000000  0.50000000  1
  Li  Li4  1  0.00000000  0.00000000  0.50000000  1
  V  V0  1  0.00000000  0.00000000  0.00000000  1
  F  F0  1  0.23387700  0.23387700  0.00000000  1
  F  F1  1  0.23839400  0.77076700  0.00916200  1
  F  F2  1  0.76160600  0.22923300  0.99083800  1
  F  F3  1  0.76612300  0.76612300  0.00000000  1
  F  F4  1  0.76160600  0.77076700  0.53237300  1
  F  F5  1  0.72905400  0.22905400  0.50000000  1
  F  F6  1  0.27094600  0.77094600  0.50000000  1
  F  F7  1  0.23839400  0.22923300  0.46762700  1
loop_
_geom_bond_atom_site_label_1
_geom_bond_atom_site_label_2
_geom_bond_distance
_geom_bond_site_symmetry_2
F0 V0 2.024009 1_555
F0 Li2 2.075200 1_555
F0 Li4 2.075200 1_554
F0 Li1 2.075200 1_555
F0 Li0 2.075200 1_555
F1 V0 1.937722 1_565
F1 Li3 2.040163 1_565
F1 Li0 2.167962 1_555
F1 Li1 2.167970 1_565
F2 V0 1.937722 1_656
F2 Li3 2.040163 1_555
F2 Li0 2.167962 1_656
F2 Li1 2.167970 1_556
F3 V0 2.024009 1_665
F3 Li4 2.075200 1_665
F3 Li1 2.075200 1_565
F3 Li0 2.075200 1_655
F3 Li2 2.075200 1_554
F4 V0 1.937722 1_666
F4 Li3 2.040167 1_565
F4 Li4 2.167966 1_665
F4 Li2 2.167966 1_555
F5 Li3 1.982270 1_555
F5 Li2 2.078424 1_555
F5 Li1 2.078424 1_555
F5 Li0 2.078424 1_656
F5 Li4 2.078424 1_655
F6 Li3 1.982270 1_565
F6 Li2 2.078424 1_555
F6 Li0 2.078424 1_555
F6 Li1 2.078424 1_566
F6 Li4 2.078424 1_565
F7 V0 1.937722 1_555
F7 Li3 2.040167 1_555
F7 Li4 2.167966 1_555
F7 Li2 2.167966 1_555
