# generated using pymatgen
data_Li2Cu4S3
_symmetry_space_group_name_H-M   'P 1'
_cell_length_a   7.63374403
_cell_length_b   7.63374403
_cell_length_c   10.00827892
_cell_angle_alpha   72.31003295
_cell_angle_beta   72.31003295
_cell_angle_gamma   28.80663415
_symmetry_Int_Tables_number   1
_chemical_formula_structural   Li2Cu4S3
_chemical_formula_sum   'Li4 Cu8 S6'
_cell_volume   266.84071060
_cell_formula_units_Z   2
loop_
 _symmetry_equiv_pos_site_id
 _symmetry_equiv_pos_as_xyz
  1  'x, y, z'
loop_
 _atom_site_type_symbol
 _atom_site_label
 _atom_site_symmetry_multiplicity
 _atom_site_fract_x
 _atom_site_fract_y
 _atom_site_fract_z
 _atom_site_occupancy
  Li  Li0  1  0.82926600  0.84403500  0.34690800  1
  Li  Li1  1  0.31331200  0.30003300  0.85432800  1
  Li  Li2  1  0.69996700  0.68668800  0.14567200  1
  Li  Li3  1  0.15596500  0.17073400  0.65309200  1
  Cu  Cu0  1  0.49047700  0.47566600  0.38204900  1
  Cu  Cu1  1  0.46976200  0.46956000  0.13331800  1
  Cu  Cu2  1  0.89973300  0.89863000  0.01156200  1
  Cu  Cu3  1  0.90084000  0.89167000  0.60106200  1
  Cu  Cu4  1  0.10833000  0.09916000  0.39893800  1
  Cu  Cu5  1  0.10137000  0.10026700  0.98843800  1
  Cu  Cu6  1  0.53044000  0.53023800  0.86668200  1
  Cu  Cu7  1  0.52433400  0.50952300  0.61795100  1
  S  S0  1  0.97795300  0.96352500  0.77315700  1
  S  S1  1  0.31790600  0.31684600  0.11924600  1
  S  S2  1  0.34111200  0.33262000  0.54187000  1
  S  S3  1  0.66738000  0.65888800  0.45813000  1
  S  S4  1  0.68315400  0.68209400  0.88075400  1
  S  S5  1  0.03647500  0.02204700  0.22684300  1
loop_
_geom_bond_atom_site_label_1
_geom_bond_atom_site_label_2
_geom_bond_distance
_geom_bond_site_symmetry_2
Li0 S3 2.456158 1_555
Li0 S2 2.692789 1_565
Li0 S5 2.722505 1_665
Li0 S2 2.754379 1_655
Li1 S4 2.578487 1_545
Li1 S4 2.612437 1_455
Li1 S1 2.705307 1_556
Li1 S0 2.984441 1_455
Li1 S0 2.987216 1_545
Li2 S1 2.578487 1_655
Li2 S1 2.612437 1_565
Li2 S4 2.705307 1_554
Li2 S5 2.984441 1_565
Li2 S5 2.987216 1_655
Li3 S2 2.456158 1_555
Li3 S3 2.692789 1_455
Li3 S0 2.722505 1_445
Li3 S3 2.754379 1_545
Cu0 S2 2.250142 1_555
Cu0 S5 2.411766 1_655
Cu0 S5 2.412911 1_565
Cu1 S1 2.300007 1_555
Cu1 S5 2.382089 1_565
Cu1 S5 2.424774 1_655
Cu2 S0 2.286758 1_554
Cu2 S1 2.326420 1_655
Cu2 S1 2.326554 1_565
Cu3 S2 2.247100 1_655
Cu3 S2 2.249275 1_565
Cu3 S0 2.317366 1_555
Cu4 S3 2.247100 1_545
Cu4 S3 2.249275 1_455
Cu4 S5 2.317366 1_555
Cu5 S5 2.286758 1_556
Cu5 S4 2.326420 1_545
Cu5 S4 2.326554 1_455
Cu6 S4 2.300007 1_555
Cu6 S0 2.382089 1_455
Cu6 S0 2.424774 1_545
Cu7 S3 2.250142 1_555
Cu7 S0 2.411766 1_545
Cu7 S0 2.412911 1_455
