# generated using pymatgen
data_Mn(SO4)2
_symmetry_space_group_name_H-M   'P 1'
_cell_length_a   8.82086617
_cell_length_b   8.82086617
_cell_length_c   8.82086596
_cell_angle_alpha   55.46644269
_cell_angle_beta   55.46644269
_cell_angle_gamma   55.46644037
_symmetry_Int_Tables_number   1
_chemical_formula_structural   Mn(SO4)2
_chemical_formula_sum   'Mn3 S6 O24'
_cell_volume   434.21783258
_cell_formula_units_Z   3
loop_
 _symmetry_equiv_pos_site_id
 _symmetry_equiv_pos_as_xyz
  1  'x, y, z'
loop_
 _atom_site_type_symbol
 _atom_site_label
 _atom_site_symmetry_multiplicity
 _atom_site_fract_x
 _atom_site_fract_y
 _atom_site_fract_z
 _atom_site_occupancy
  Mn  Mn0  1  0.84779800  0.84779800  0.84779800  1
  Mn  Mn1  1  0.35373400  0.35373400  0.35373400  1
  Mn  Mn2  1  0.15335900  0.15335900  0.15335900  1
  S  S0  1  0.54605700  0.95274200  0.24607000  1
  S  S1  1  0.24607000  0.54605700  0.95274200  1
  S  S2  1  0.95274200  0.24607000  0.54605700  1
  S  S3  1  0.03873200  0.74902400  0.46048300  1
  S  S4  1  0.74902400  0.46048300  0.03873200  1
  S  S5  1  0.46048300  0.03873200  0.74902400  1
  O  O0  1  0.48617000  0.88877700  0.70808200  1
  O  O1  1  0.88877700  0.70808200  0.48617000  1
  O  O2  1  0.66993800  0.00290500  0.02914300  1
  O  O3  1  0.70808200  0.48617000  0.88877700  1
  O  O4  1  0.34469200  0.97586900  0.28347700  1
  O  O5  1  0.63115600  0.75610900  0.36698100  1
  O  O6  1  0.36698100  0.63115600  0.75610900  1
  O  O7  1  0.02914300  0.66993800  0.00290500  1
  O  O8  1  0.75610900  0.36698100  0.63115600  1
  O  O9  1  0.01970400  0.95824900  0.32213900  1
  O  O10  1  0.03218300  0.71561500  0.65383600  1
  O  O11  1  0.71561500  0.65383600  0.03218300  1
  O  O12  1  0.28347700  0.34469200  0.97586900  1
  O  O13  1  0.97586900  0.28347700  0.34469200  1
  O  O14  1  0.00290500  0.02914300  0.66993800  1
  O  O15  1  0.24548600  0.61761700  0.37750500  1
  O  O16  1  0.95824900  0.32213900  0.01970400  1
  O  O17  1  0.61761700  0.37750500  0.24548600  1
  O  O18  1  0.37750500  0.24548600  0.61761700  1
  O  O19  1  0.65383600  0.03218300  0.71561500  1
  O  O20  1  0.29584300  0.52009900  0.10546700  1
  O  O21  1  0.32213900  0.01970400  0.95824900  1
  O  O22  1  0.10546700  0.29584300  0.52009900  1
  O  O23  1  0.52009900  0.10546700  0.29584300  1
loop_
_geom_bond_atom_site_label_1
_geom_bond_atom_site_label_2
_geom_bond_distance
_geom_bond_site_symmetry_2
Mn0 O19 1.971984 1_565
Mn0 O10 1.971984 1_655
Mn0 O11 1.971984 1_556
Mn0 O7 2.023468 1_656
Mn0 O2 2.023468 1_566
Mn0 O14 2.023468 1_665
Mn1 O23 1.996178 1_555
Mn1 O20 1.996178 1_555
Mn1 O22 1.996178 1_555
Mn1 O18 2.044564 1_555
Mn1 O15 2.044564 1_555
Mn1 O17 2.044564 1_555
Mn2 O4 1.944219 1_545
Mn2 O13 1.944219 1_455
Mn2 O12 1.944219 1_554
Mn2 O16 1.993440 1_455
Mn2 O21 1.993440 1_554
Mn2 O9 1.993440 1_545
O0 S5 1.428430 1_565
O1 S3 1.428430 1_655
O2 S0 1.506281 1_545
O3 S4 1.428430 1_556
O4 S0 1.518695 1_555
O5 S0 1.429532 1_555
O6 S1 1.429532 1_555
O7 S1 1.506281 1_554
O8 S2 1.429532 1_555
O9 S3 1.500322 1_555
O10 S3 1.528657 1_555
O11 S4 1.528657 1_555
O12 S1 1.518695 1_555
O13 S2 1.518695 1_555
O14 S2 1.506281 1_455
O15 S3 1.502354 1_555
O16 S4 1.500322 1_555
O17 S4 1.502355 1_555
O18 S5 1.502354 1_555
O19 S5 1.528657 1_555
O20 S1 1.505631 1_554
O21 S5 1.500322 1_555
O22 S2 1.505631 1_455
O23 S0 1.505631 1_545
