# generated using pymatgen
data_Na4Fe2P(CO4)4
_symmetry_space_group_name_H-M   'P 1'
_cell_length_a   9.99942444
_cell_length_b   9.96750341
_cell_length_c   9.77142939
_cell_angle_alpha   60.86347250
_cell_angle_beta   60.53701690
_cell_angle_gamma   58.59951061
_symmetry_Int_Tables_number   1
_chemical_formula_structural   Na4Fe2P(CO4)4
_chemical_formula_sum   'Na8 Fe4 P2 C8 O32'
_cell_volume   688.03912181
_cell_formula_units_Z   2
loop_
 _symmetry_equiv_pos_site_id
 _symmetry_equiv_pos_as_xyz
  1  'x, y, z'
loop_
 _atom_site_type_symbol
 _atom_site_label
 _atom_site_symmetry_multiplicity
 _atom_site_fract_x
 _atom_site_fract_y
 _atom_site_fract_z
 _atom_site_occupancy
  Na  Na0  1  0.96020000  0.53980000  0.96020000  1
  Na  Na1  1  0.54001400  0.95998600  0.95998600  1
  Na  Na2  1  0.29001400  0.70998600  0.70998600  1
  Na  Na3  1  0.71020000  0.28980000  0.71020000  1
  Na  Na4  1  0.53980000  0.96020000  0.53980000  1
  Na  Na5  1  0.95998600  0.54001400  0.54001400  1
  Na  Na6  1  0.70998600  0.29001400  0.29001400  1
  Na  Na7  1  0.28980000  0.71020000  0.28980000  1
  Fe  Fe0  1  0.12500000  0.12500000  0.12500000  1
  Fe  Fe1  1  0.12500000  0.12500000  0.62500000  1
  Fe  Fe2  1  0.12500000  0.62500000  0.12500000  1
  Fe  Fe3  1  0.62500000  0.12500000  0.12500000  1
  P  P0  1  0.50000000  0.50000000  0.50000000  1
  P  P1  1  0.75000000  0.75000000  0.75000000  1
  C  C0  1  0.91664200  0.91332100  0.90327100  1
  C  C1  1  0.33667900  0.33335800  0.98323400  1
  C  C2  1  0.90327100  0.26676600  0.91664200  1
  C  C3  1  0.26676600  0.90327100  0.91332100  1
  C  C4  1  0.98323400  0.34672900  0.33667900  1
  C  C5  1  0.34672900  0.98323400  0.33335800  1
  C  C6  1  0.91332100  0.91664200  0.26676600  1
  C  C7  1  0.33335800  0.33667900  0.34672900  1
  O  O0  1  0.94513200  0.76867100  0.01469300  1
  O  O1  1  0.30815600  0.57013300  0.55977400  1
  O  O2  1  0.03195300  0.94171600  0.76515800  1
  O  O3  1  0.30828400  0.21804700  0.98882800  1
  O  O4  1  0.76515800  0.26117200  0.03195300  1
  O  O5  1  0.22168600  0.48056400  0.97797900  1
  O  O6  1  0.55977400  0.56193700  0.30815600  1
  O  O7  1  0.57013300  0.30815600  0.56193700  1
  O  O8  1  0.31977100  0.97797900  0.48056400  1
  O  O9  1  0.26117200  0.76515800  0.94171600  1
  O  O10  1  0.48132900  0.30486800  0.97849700  1
  O  O11  1  0.56193700  0.55977400  0.57013300  1
  O  O12  1  0.01469300  0.27150300  0.94513200  1
  O  O13  1  0.27150300  0.01469300  0.76867100  1
  O  O14  1  0.76943600  0.02831400  0.93022900  1
  O  O15  1  0.97797900  0.31977100  0.22168600  1
  O  O16  1  0.27202100  0.93022900  0.02831400  1
  O  O17  1  0.48056400  0.22168600  0.31977100  1
  O  O18  1  0.97849700  0.23530700  0.48132900  1
  O  O19  1  0.23530700  0.97849700  0.30486800  1
  O  O20  1  0.68806300  0.69022600  0.67986700  1
  O  O21  1  0.76867100  0.94513200  0.27150300  1
  O  O22  1  0.98882800  0.48484200  0.30828400  1
  O  O23  1  0.93022900  0.27202100  0.76943600  1
  O  O24  1  0.67986700  0.94184400  0.68806300  1
  O  O25  1  0.69022600  0.68806300  0.94184400  1
  O  O26  1  0.02831400  0.76943600  0.27202100  1
  O  O27  1  0.48484200  0.98882800  0.21804700  1
  O  O28  1  0.94171600  0.03195300  0.26117200  1
  O  O29  1  0.21804700  0.30828400  0.48484200  1
  O  O30  1  0.94184400  0.67986700  0.69022600  1
  O  O31  1  0.30486800  0.48132900  0.23530700  1
loop_
_geom_bond_atom_site_label_1
_geom_bond_atom_site_label_2
_geom_bond_distance
_geom_bond_site_symmetry_2
Na0 O30 2.359003 1_555
Na0 O25 2.359003 1_555
Na0 O15 2.440032 1_556
Na0 O5 2.440032 1_655
Na0 O0 2.501243 1_556
Na0 O12 2.501253 1_655
Na1 O24 2.365901 1_555
Na1 O25 2.365901 1_555
Na1 O3 2.432638 1_565
Na1 O27 2.432641 1_556
Na1 O14 2.567155 1_565
Na1 O16 2.567155 1_556
Na2 O11 2.365901 1_555
Na2 O1 2.365901 1_555
Na2 O9 2.432632 1_555
Na2 O2 2.432636 1_555
Na2 O5 2.567155 1_555
Na2 O8 2.567155 1_555
Na3 O11 2.359003 1_555
Na3 O7 2.359003 1_555
Na3 O23 2.440032 1_555
Na3 O14 2.440032 1_555
Na3 O18 2.501248 1_555
Na3 O10 2.501249 1_555
Na4 O20 2.359003 1_555
Na4 O24 2.359003 1_555
Na4 O8 2.440032 1_555
Na4 O17 2.440032 1_565
Na4 O13 2.501248 1_565
Na4 O21 2.501249 1_555
Na5 O20 2.365901 1_555
Na5 O30 2.365901 1_555
Na5 O22 2.432632 1_555
Na5 O29 2.432636 1_655
Na5 O26 2.567155 1_655
Na5 O23 2.567155 1_555
Na6 O7 2.365901 1_555
Na6 O6 2.365901 1_555
Na6 O28 2.432638 1_555
Na6 O4 2.432641 1_555
Na6 O17 2.567155 1_555
Na6 O15 2.567155 1_555
Na7 O6 2.359003 1_555
Na7 O1 2.359003 1_555
Na7 O16 2.440032 1_555
Na7 O26 2.440032 1_555
Na7 O31 2.501243 1_555
Na7 O19 2.501253 1_555
Fe0 O3 2.039640 1_554
Fe0 O28 2.039640 1_455
Fe0 O19 2.041440 1_545
Fe0 O12 2.041440 1_554
Fe0 O15 2.066037 1_455
Fe0 O16 2.066037 1_545
Fe1 O29 2.039639 1_555
Fe1 O2 2.039639 1_545
Fe1 O13 2.041432 1_555
Fe1 O18 2.041432 1_455
Fe1 O23 2.066037 1_455
Fe1 O8 2.066037 1_545
Fe2 O22 2.039634 1_455
Fe2 O9 2.039634 1_554
Fe2 O31 2.041440 1_555
Fe2 O0 2.041440 1_455
Fe2 O5 2.066037 1_554
Fe2 O26 2.066037 1_555
Fe3 O27 2.039631 1_545
Fe3 O4 2.039631 1_555
Fe3 O21 2.041434 1_545
Fe3 O10 2.041434 1_554
Fe3 O17 2.066037 1_555
Fe3 O14 2.066037 1_554
C0 O2 1.291614 1_655
C0 O0 1.301470 1_556
C0 O14 1.305508 1_565
C1 O3 1.291609 1_555
C1 O10 1.301474 1_555
C1 O5 1.305508 1_555
C2 O4 1.291616 1_556
C2 O12 1.301464 1_655
C2 O23 1.305508 1_555
C3 O9 1.291619 1_555
C3 O13 1.301470 1_565
C3 O16 1.305508 1_556
C4 O22 1.291619 1_555
C4 O18 1.301470 1_555
C4 O15 1.305508 1_555
C5 O27 1.291616 1_555
C5 O19 1.301464 1_555
C5 O8 1.305508 1_555
C6 O28 1.291609 1_565
C6 O21 1.301474 1_555
C6 O26 1.305508 1_655
C7 O29 1.291614 1_555
C7 O31 1.301470 1_555
C7 O17 1.305508 1_555
O1 P0 1.551712 1_555
O6 P0 1.551712 1_555
O7 P0 1.551712 1_555
O11 P0 1.551712 1_555
O20 P1 1.551712 1_555
O24 P1 1.551712 1_555
O25 P1 1.551712 1_555
O30 P1 1.551712 1_555
