# generated using pymatgen
data_SrLa3MnO8
_symmetry_space_group_name_H-M   'P 1'
_cell_length_a   6.93433779
_cell_length_b   6.93433779
_cell_length_c   10.88673200
_cell_angle_alpha   90.00000000
_cell_angle_beta   90.00000000
_cell_angle_gamma   134.66042844
_symmetry_Int_Tables_number   1
_chemical_formula_structural   SrLa3MnO8
_chemical_formula_sum   'Sr2 La6 Mn2 O16'
_cell_volume   372.34989327
_cell_formula_units_Z   2
loop_
 _symmetry_equiv_pos_site_id
 _symmetry_equiv_pos_as_xyz
  1  'x, y, z'
loop_
 _atom_site_type_symbol
 _atom_site_label
 _atom_site_symmetry_multiplicity
 _atom_site_fract_x
 _atom_site_fract_y
 _atom_site_fract_z
 _atom_site_occupancy
  Sr  Sr0  1  0.36188700  0.63811300  0.75000000  1
  Sr  Sr1  1  0.63811300  0.36188700  0.25000000  1
  La  La0  1  0.13394200  0.86605800  0.00183800  1
  La  La1  1  0.63460600  0.36539400  0.75000000  1
  La  La2  1  0.86605800  0.13394200  0.99816200  1
  La  La3  1  0.36539400  0.63460600  0.25000000  1
  La  La4  1  0.13394200  0.86605800  0.49816200  1
  La  La5  1  0.86605800  0.13394200  0.50183800  1
  Mn  Mn0  1  0.99935400  0.00064600  0.75000000  1
  Mn  Mn1  1  0.00064600  0.99935400  0.25000000  1
  O  O0  1  0.75700500  0.75262400  0.87230400  1
  O  O1  1  0.15881000  0.84119000  0.75000000  1
  O  O2  1  0.30963900  0.69036100  0.01862000  1
  O  O3  1  0.84125500  0.15874500  0.75000000  1
  O  O4  1  0.24737600  0.24299500  0.87230400  1
  O  O5  1  0.75262400  0.75700500  0.12769600  1
  O  O6  1  0.24299500  0.24737600  0.12769600  1
  O  O7  1  0.69036100  0.30963900  0.98138000  1
  O  O8  1  0.15874500  0.84125500  0.25000000  1
  O  O9  1  0.75262400  0.75700500  0.37230400  1
  O  O10  1  0.30963900  0.69036100  0.48138000  1
  O  O11  1  0.84119000  0.15881000  0.25000000  1
  O  O12  1  0.24299500  0.24737600  0.37230400  1
  O  O13  1  0.75700500  0.75262400  0.62769600  1
  O  O14  1  0.69036100  0.30963900  0.51862000  1
  O  O15  1  0.24737600  0.24299500  0.62769600  1
loop_
_geom_bond_atom_site_label_1
_geom_bond_atom_site_label_2
_geom_bond_distance
_geom_bond_site_symmetry_2
La0 O2 2.255841 1_555
La0 O4 2.559112 1_564
La0 O0 2.559112 1_454
La0 O6 2.574876 1_565
La0 O5 2.574876 1_455
La0 O8 2.720255 1_555
La0 O1 2.760101 1_554
La0 O7 2.777380 1_564
La0 O7 2.777380 1_454
La1 O0 2.549419 1_555
La1 O4 2.549419 1_555
La1 O13 2.549419 1_555
La1 O15 2.549419 1_555
La1 O14 2.618074 1_555
La1 O7 2.618074 1_555
La1 O3 2.644529 1_555
La1 O1 2.690518 1_545
La1 O1 2.690518 1_655
La2 O7 2.255841 1_555
La2 O6 2.559112 1_656
La2 O5 2.559112 1_546
La2 O4 2.574876 1_655
La2 O0 2.574876 1_545
La2 O3 2.720255 1_555
La2 O11 2.760101 1_556
La2 O2 2.777380 1_656
La2 O2 2.777380 1_546
La3 O9 2.549419 1_555
La3 O12 2.549419 1_555
La3 O5 2.549419 1_555
La3 O6 2.549419 1_555
La3 O2 2.618074 1_555
La3 O10 2.618074 1_555
La3 O8 2.644529 1_555
La3 O11 2.690518 1_455
La3 O11 2.690518 1_565
La4 O10 2.255841 1_555
La4 O15 2.559112 1_565
La4 O13 2.559112 1_455
La4 O12 2.574876 1_565
La4 O9 2.574876 1_455
La4 O8 2.720255 1_555
La4 O1 2.760101 1_555
La4 O14 2.777380 1_565
La4 O14 2.777380 1_455
La5 O14 2.255841 1_555
La5 O12 2.559112 1_655
La5 O9 2.559112 1_545
La5 O15 2.574876 1_655
La5 O13 2.574876 1_545
La5 O3 2.720255 1_555
La5 O11 2.760101 1_555
La5 O10 2.777380 1_545
La5 O10 2.777380 1_655
Mn0 O4 1.868637 1_655
Mn0 O0 1.868637 1_545
Mn0 O15 1.868637 1_655
Mn0 O13 1.868637 1_545
Mn0 O3 2.023225 1_555
Mn0 O1 2.040591 1_645
Mn1 O12 1.868637 1_565
Mn1 O9 1.868637 1_455
Mn1 O6 1.868637 1_565
Mn1 O5 1.868637 1_455
Mn1 O8 2.023225 1_555
Mn1 O11 2.040591 1_465
O0 Sr0 2.617602 1_555
O1 Sr0 2.598817 1_555
O2 Sr0 2.999857 1_554
O3 Sr0 2.685639 1_655
O3 Sr0 2.685639 1_545
O4 Sr0 2.617602 1_555
O5 Sr1 2.617602 1_555
O6 Sr1 2.617602 1_555
O7 Sr1 2.999857 1_556
O8 Sr1 2.685639 1_565
O8 Sr1 2.685639 1_455
O9 Sr1 2.617602 1_555
O10 Sr0 2.999857 1_555
O11 Sr1 2.598817 1_555
O12 Sr1 2.617602 1_555
O13 Sr0 2.617602 1_555
O14 Sr1 2.999857 1_555
O15 Sr0 2.617602 1_555
