# generated using pymatgen
data_Ti(SO4)2
_symmetry_space_group_name_H-M   'P 1'
_cell_length_a   8.76691966
_cell_length_b   8.76691891
_cell_length_c   8.76691693
_cell_angle_alpha   56.66527963
_cell_angle_beta   56.66533469
_cell_angle_gamma   56.66534736
_symmetry_Int_Tables_number   1
_chemical_formula_structural   Ti(SO4)2
_chemical_formula_sum   'Ti3 S6 O24'
_cell_volume   439.76459539
_cell_formula_units_Z   3
loop_
 _symmetry_equiv_pos_site_id
 _symmetry_equiv_pos_as_xyz
  1  'x, y, z'
loop_
 _atom_site_type_symbol
 _atom_site_label
 _atom_site_symmetry_multiplicity
 _atom_site_fract_x
 _atom_site_fract_y
 _atom_site_fract_z
 _atom_site_occupancy
  Ti  Ti0  1  0.64239358  0.64239369  0.64239317  1
  Ti  Ti1  1  0.35693243  0.35693244  0.35693218  1
  Ti  Ti2  1  0.14583254  0.14583251  0.14583181  1
  S  S0  1  0.52533246  0.96663985  0.25872286  1
  S  S1  1  0.25872269  0.52533288  0.96663923  1
  S  S2  1  0.96663926  0.25872231  0.52533324  1
  S  S3  1  0.03941029  0.74744388  0.46860220  1
  S  S4  1  0.74744354  0.46860240  0.03941020  1
  S  S5  1  0.46860249  0.03940951  0.74744405  1
  O  O0  1  0.49344468  0.87639812  0.71301187  1
  O  O1  1  0.87639773  0.71301167  0.49344594  1
  O  O2  1  0.66301230  0.00591816  0.06802532  1
  O  O3  1  0.71301137  0.49344574  0.87639801  1
  O  O4  1  0.34038072  0.97937898  0.27256482  1
  O  O5  1  0.59674130  0.76850553  0.39956053  1
  O  O6  1  0.39956195  0.59674068  0.76850496  1
  O  O7  1  0.06802541  0.66301355  0.00591446  1
  O  O8  1  0.76850598  0.39956057  0.59674078  1
  O  O9  1  0.02496672  0.94829086  0.31762711  1
  O  O10  1  0.03584335  0.72011065  0.64438604  1
  O  O11  1  0.72011109  0.64438622  0.03584228  1
  O  O12  1  0.27256561  0.34038095  0.97937831  1
  O  O13  1  0.97937948  0.27256553  0.34038088  1
  O  O14  1  0.00591572  0.06802475  0.66301288  1
  O  O15  1  0.22691410  0.61566708  0.36851519  1
  O  O16  1  0.94828980  0.31762734  0.02496731  1
  O  O17  1  0.61566707  0.36851522  0.22691407  1
  O  O18  1  0.36851777  0.22691411  0.61566622  1
  O  O19  1  0.64438651  0.03583950  0.72011377  1
  O  O20  1  0.35261692  0.46384679  0.10060749  1
  O  O21  1  0.31762600  0.02496716  0.94829062  1
  O  O22  1  0.10060733  0.35261644  0.46384859  1
  O  O23  1  0.46384480  0.10060694  0.35261963  1
loop_
_geom_bond_atom_site_label_1
_geom_bond_atom_site_label_2
_geom_bond_distance
_geom_bond_site_symmetry_2
O0 S5 1.496897 1_565
O0 Ti0 1.964750 1_555
O1 S3 1.496901 1_655
O1 Ti0 1.964745 1_555
O2 S0 1.405973 1_545
O3 S4 1.496899 1_556
O3 Ti0 1.964748 1_555
O4 S0 1.501977 1_555
O4 Ti2 1.959151 1_565
O5 S0 1.493620 1_555
O5 Ti0 1.943702 1_555
O6 S1 1.493623 1_555
O6 Ti0 1.943699 1_555
O7 S1 1.405974 1_554
O8 S2 1.493617 1_555
O8 Ti0 1.943708 1_555
O9 S3 1.498689 1_555
O9 Ti2 1.945911 1_565
O10 S3 1.408097 1_555
O11 S4 1.408096 1_555
O12 S1 1.501974 1_555
O12 Ti2 1.959152 1_556
O13 S2 1.501972 1_555
O13 Ti2 1.959158 1_655
O14 S2 1.405971 1_455
O15 S3 1.499476 1_555
O15 Ti1 1.933670 1_555
O16 S4 1.498687 1_555
O16 Ti2 1.945912 1_655
O17 S4 1.499474 1_555
O17 Ti1 1.933669 1_555
O18 S5 1.499473 1_555
O18 Ti1 1.933671 1_555
O19 S5 1.408097 1_555
O20 S1 1.492201 1_554
O20 Ti1 1.915543 1_555
O21 S5 1.498692 1_555
O21 Ti2 1.945907 1_556
O22 S2 1.492204 1_455
O22 Ti1 1.915547 1_555
O23 S0 1.492205 1_545
O23 Ti1 1.915544 1_555
