# generated using pymatgen
data_Ca2V3Ni2AgO12
_symmetry_space_group_name_H-M   'P 1'
_cell_length_a   10.88681738
_cell_length_b   10.88681738
_cell_length_c   10.88681738
_cell_angle_alpha   109.39029381
_cell_angle_beta   109.39029381
_cell_angle_gamma   109.63319580
_symmetry_Int_Tables_number   1
_chemical_formula_structural   Ca2V3Ni2AgO12
_chemical_formula_sum   'Ca8 V12 Ni8 Ag4 O48'
_cell_volume   993.29515989
_cell_formula_units_Z   4
loop_
 _symmetry_equiv_pos_site_id
 _symmetry_equiv_pos_as_xyz
  1  'x, y, z'
loop_
 _atom_site_type_symbol
 _atom_site_label
 _atom_site_symmetry_multiplicity
 _atom_site_fract_x
 _atom_site_fract_y
 _atom_site_fract_z
 _atom_site_occupancy
  Ca  Ca0  1  0.87500000  0.74799900  0.37299900  1
  Ca  Ca1  1  0.25200100  0.62500000  0.12700100  1
  Ca  Ca2  1  0.49799900  0.12500000  0.87299900  1
  Ca  Ca3  1  0.87500000  0.24799900  0.87299900  1
  Ca  Ca4  1  0.37500000  0.50200100  0.62700100  1
  Ca  Ca5  1  0.75200100  0.62500000  0.62700100  1
  Ca  Ca6  1  0.99799900  0.12500000  0.37299900  1
  Ca  Ca7  1  0.37500000  0.00200100  0.12700100  1
  V  V0  1  0.24877200  0.12500000  0.62377200  1
  V  V1  1  0.50000000  0.50000000  0.00000000  1
  V  V2  1  0.25000000  0.75000000  0.50000000  1
  V  V3  1  0.87500000  0.99877200  0.62377200  1
  V  V4  1  0.87500000  0.49877200  0.12377200  1
  V  V5  1  0.50122800  0.62500000  0.37622800  1
  V  V6  1  0.74877200  0.12500000  0.12377200  1
  V  V7  1  0.37500000  0.25122800  0.37622800  1
  V  V8  1  0.00000000  0.00000000  0.00000000  1
  V  V9  1  0.37500000  0.75122800  0.87622800  1
  V  V10  1  0.75000000  0.25000000  0.50000000  1
  V  V11  1  0.00122800  0.62500000  0.87622800  1
  Ni  Ni0  1  0.62500000  0.37500000  0.25000000  1
  Ni  Ni1  1  0.12500000  0.37500000  0.75000000  1
  Ni  Ni2  1  0.12500000  0.37500000  0.25000000  1
  Ni  Ni3  1  0.62500000  0.87500000  0.75000000  1
  Ni  Ni4  1  0.62500000  0.87500000  0.25000000  1
  Ni  Ni5  1  0.12500000  0.87500000  0.75000000  1
  Ni  Ni6  1  0.12500000  0.87500000  0.25000000  1
  Ni  Ni7  1  0.62500000  0.37500000  0.75000000  1
  Ag  Ag0  1  0.50000000  0.00000000  0.50000000  1
  Ag  Ag1  1  0.00000000  0.50000000  0.50000000  1
  Ag  Ag2  1  0.25000000  0.25000000  0.00000000  1
  Ag  Ag3  1  0.75000000  0.75000000  0.00000000  1
  O  O0  1  0.82998900  0.95978400  0.43905500  1
  O  O1  1  0.43263100  0.17375100  0.66472500  1
  O  O2  1  0.72303200  0.26790100  0.65390500  1
  O  O3  1  0.10906500  0.97927100  0.43905500  1
  O  O4  1  0.63600400  0.68087300  0.15390500  1
  O  O5  1  0.92375100  0.68263100  0.16472500  1
  O  O6  1  0.23209900  0.77696800  0.34609500  1
  O  O7  1  0.11399600  0.76790100  0.54486900  1
  O  O8  1  0.73209400  0.99097400  0.66472500  1
  O  O9  1  0.43087300  0.88600400  0.65390500  1
  O  O10  1  0.51790100  0.36399600  0.04486900  1
  O  O11  1  0.04021600  0.47927100  0.87020500  1
  O  O12  1  0.50902600  0.76790600  0.33527500  1
  O  O13  1  0.72927100  0.35906500  0.93905500  1
  O  O14  1  0.82624900  0.49097400  0.25888000  1
  O  O15  1  0.24097400  0.07624900  0.75888000  1
  O  O16  1  0.02072900  0.45978400  0.12979500  1
  O  O17  1  0.31912700  0.47303200  0.95513100  1
  O  O18  1  0.22303200  0.56912700  0.45513100  1
  O  O19  1  0.92001100  0.85906500  0.62979500  1
  O  O20  1  0.54021600  0.67001100  0.56094500  1
  O  O21  1  0.31736900  0.48209400  0.24112000  1
  O  O22  1  0.60906500  0.17001100  0.12979500  1
  O  O23  1  0.01790600  0.18263100  0.75888000  1
  O  O24  1  0.23209400  0.56736900  0.74112000  1
  O  O25  1  0.64093500  0.57998900  0.37020500  1
  O  O26  1  0.93263100  0.26790600  0.25888000  1
  O  O27  1  0.70978400  0.07998900  0.93905500  1
  O  O28  1  0.32998900  0.89093500  0.87020500  1
  O  O29  1  0.02696800  0.18087300  0.04486900  1
  O  O30  1  0.93087300  0.27696800  0.54486900  1
  O  O31  1  0.22927100  0.29021600  0.37020500  1
  O  O32  1  0.00902600  0.67375100  0.74112000  1
  O  O33  1  0.42375100  0.25902600  0.24112000  1
  O  O34  1  0.52072900  0.39093500  0.56094500  1
  O  O35  1  0.74097400  0.98209400  0.16472500  1
  O  O36  1  0.20978400  0.27072900  0.62979500  1
  O  O37  1  0.73209900  0.38600400  0.45513100  1
  O  O38  1  0.81912700  0.86399600  0.84609500  1
  O  O39  1  0.51790600  0.75902600  0.83527500  1
  O  O40  1  0.13600400  0.98209900  0.95513100  1
  O  O41  1  0.01790100  0.97303200  0.15390500  1
  O  O42  1  0.32624900  0.06736900  0.33527500  1
  O  O43  1  0.61399600  0.06912700  0.34609500  1
  O  O44  1  0.14093500  0.77072900  0.06094500  1
  O  O45  1  0.81736900  0.57624900  0.83527500  1
  O  O46  1  0.52696800  0.48209900  0.84609500  1
  O  O47  1  0.42001100  0.79021600  0.06094500  1
loop_
_geom_bond_atom_site_label_1
_geom_bond_atom_site_label_2
_geom_bond_distance
_geom_bond_site_symmetry_2
Ca0 O5 2.431227 1_555
Ca0 O14 2.431227 1_555
Ca0 O19 2.442464 1_555
Ca0 O0 2.442465 1_555
Ca0 O4 2.537169 1_555
Ca0 O7 2.537169 1_655
Ca0 O25 2.572822 1_555
Ca0 O3 2.572824 1_655
Ca1 O12 2.431227 1_555
Ca1 O21 2.431227 1_555
Ca1 O44 2.442458 1_555
Ca1 O11 2.442465 1_554
Ca1 O6 2.537169 1_555
Ca1 O17 2.537169 1_554
Ca1 O47 2.572830 1_555
Ca1 O16 2.572830 1_555
Ca2 O15 2.431227 1_555
Ca2 O1 2.431227 1_555
Ca2 O22 2.442464 1_556
Ca2 O27 2.442465 1_555
Ca2 O10 2.537169 1_556
Ca2 O9 2.537169 1_545
Ca2 O28 2.572822 1_545
Ca2 O13 2.572824 1_555
Ca3 O23 2.431227 1_655
Ca3 O8 2.431227 1_545
Ca3 O13 2.442458 1_555
Ca3 O16 2.442465 1_656
Ca3 O2 2.537169 1_555
Ca3 O29 2.537169 1_656
Ca3 O11 2.572830 1_655
Ca3 O27 2.572830 1_555
Ca4 O39 2.431227 1_555
Ca4 O24 2.431227 1_555
Ca4 O34 2.442458 1_555
Ca4 O31 2.442465 1_555
Ca4 O18 2.537169 1_555
Ca4 O46 2.537169 1_555
Ca4 O20 2.572830 1_555
Ca4 O36 2.572830 1_555
Ca5 O32 2.431227 1_655
Ca5 O45 2.431227 1_555
Ca5 O25 2.442464 1_555
Ca5 O20 2.442465 1_555
Ca5 O38 2.537169 1_555
Ca5 O37 2.537169 1_555
Ca5 O19 2.572822 1_555
Ca5 O34 2.572824 1_555
Ca6 O26 2.431227 1_555
Ca6 O35 2.431227 1_545
Ca6 O3 2.442458 1_645
Ca6 O36 2.442465 1_655
Ca6 O41 2.537169 1_645
Ca6 O30 2.537169 1_555
Ca6 O31 2.572830 1_655
Ca6 O0 2.572830 1_545
Ca7 O42 2.431227 1_555
Ca7 O33 2.431227 1_555
Ca7 O28 2.442464 1_544
Ca7 O47 2.442465 1_545
Ca7 O43 2.537169 1_555
Ca7 O40 2.537169 1_544
Ca7 O22 2.572822 1_555
Ca7 O44 2.572824 1_545
Ni0 O14 2.079223 1_555
Ni0 O33 2.079223 1_555
Ni0 O37 2.088213 1_555
Ni0 O10 2.088213 1_555
Ni0 O22 2.091154 1_555
Ni0 O25 2.091154 1_555
Ni1 O24 2.079223 1_555
Ni1 O23 2.079223 1_555
Ni1 O17 2.088213 1_555
Ni1 O30 2.088213 1_455
Ni1 O36 2.091159 1_555
Ni1 O11 2.091159 1_555
Ni2 O21 2.079223 1_555
Ni2 O26 2.079223 1_455
Ni2 O18 2.088213 1_555
Ni2 O29 2.088213 1_555
Ni2 O16 2.091159 1_555
Ni2 O31 2.091159 1_555
Ni3 O8 2.079223 1_555
Ni3 O39 2.079223 1_555
Ni3 O38 2.088213 1_555
Ni3 O9 2.088213 1_555
Ni3 O27 2.091159 1_565
Ni3 O20 2.091159 1_555
Ni4 O12 2.079223 1_555
Ni4 O35 2.079223 1_555
Ni4 O43 2.088213 1_565
Ni4 O4 2.088213 1_555
Ni4 O0 2.091159 1_555
Ni4 O47 2.091159 1_555
Ni5 O15 2.079223 1_565
Ni5 O32 2.079223 1_555
Ni5 O40 2.088213 1_555
Ni5 O7 2.088213 1_555
Ni5 O28 2.091154 1_555
Ni5 O19 2.091154 1_455
Ni6 O5 2.079223 1_455
Ni6 O42 2.079223 1_565
Ni6 O41 2.088213 1_555
Ni6 O6 2.088213 1_555
Ni6 O3 2.091166 1_555
Ni6 O44 2.091166 1_555
Ni7 O1 2.079223 1_555
Ni7 O45 2.079223 1_555
Ni7 O46 2.088213 1_555
Ni7 O2 2.088213 1_555
Ni7 O34 2.091166 1_555
Ni7 O13 2.091166 1_555
Ag0 O9 2.550372 1_545
Ag0 O6 2.550372 1_545
Ag0 O2 2.550372 1_555
Ag0 O43 2.550372 1_555
Ag0 O8 2.623982 1_545
Ag0 O1 2.623982 1_555
Ag0 O42 2.623982 1_555
Ag0 O12 2.623982 1_545
Ag1 O30 2.550372 1_455
Ag1 O18 2.550372 1_555
Ag1 O7 2.550372 1_555
Ag1 O37 2.550372 1_455
Ag1 O14 2.623982 1_455
Ag1 O26 2.623982 1_455
Ag1 O24 2.623982 1_555
Ag1 O32 2.623982 1_555
Ag2 O17 2.550372 1_554
Ag2 O10 2.550372 1_555
Ag2 O29 2.550372 1_555
Ag2 O40 2.550372 1_544
Ag2 O21 2.623982 1_555
Ag2 O15 2.623982 1_554
Ag2 O23 2.623982 1_554
Ag2 O33 2.623982 1_555
Ag3 O41 2.550372 1_655
Ag3 O4 2.550372 1_555
Ag3 O46 2.550372 1_554
Ag3 O38 2.550372 1_554
Ag3 O35 2.623982 1_555
Ag3 O5 2.623982 1_555
Ag3 O45 2.623982 1_554
Ag3 O39 2.623982 1_554
O0 V3 1.761662 1_555
O1 V0 1.738802 1_555
O2 V10 1.754956 1_555
O3 V0 1.761664 1_565
O4 V1 1.754956 1_555
O5 V4 1.738802 1_555
O6 V2 1.754956 1_555
O7 V2 1.754956 1_555
O8 V3 1.738802 1_555
O9 V2 1.754956 1_555
O10 V1 1.754956 1_555
O11 V11 1.761662 1_555
O12 V5 1.738802 1_555
O13 V4 1.761664 1_556
O14 V4 1.738802 1_555
O15 V0 1.738802 1_555
O16 V4 1.761662 1_455
O17 V1 1.754956 1_556
O18 V2 1.754956 1_555
O19 V3 1.761673 1_555
O20 V5 1.761662 1_555
O21 V5 1.738802 1_555
O22 V6 1.761673 1_555
O23 V3 1.738802 1_445
O24 V9 1.738802 1_555
O25 V5 1.761673 1_555
O26 V6 1.738802 1_555
O27 V6 1.761662 1_556
O28 V9 1.761673 1_555
O29 V8 1.754956 1_555
O30 V10 1.754956 1_555
O31 V7 1.761662 1_555
O32 V11 1.738802 1_555
O33 V7 1.738802 1_555
O34 V7 1.761664 1_555
O35 V6 1.738802 1_565
O36 V0 1.761662 1_555
O37 V10 1.754956 1_555
O38 V8 1.754956 1_666
O39 V9 1.738802 1_555
O40 V8 1.754956 1_566
O41 V8 1.754956 1_565
O42 V7 1.738802 1_555
O43 V10 1.754956 1_555
O44 V11 1.761664 1_554
O45 V11 1.738802 1_655
O46 V1 1.754956 1_556
O47 V9 1.761662 1_554
