# generated using pymatgen
data_PH9(NO2)2
_symmetry_space_group_name_H-M   'P 1'
_cell_length_a   6.71585000
_cell_length_b   8.10135000
_cell_length_c   10.80436420
_cell_angle_alpha   70.23109126
_cell_angle_beta   90.00000000
_cell_angle_gamma   90.00000000
_symmetry_Int_Tables_number   1
_chemical_formula_structural   PH9(NO2)2
_chemical_formula_sum   'P4 H36 N8 O16'
_cell_volume   553.19336605
_cell_formula_units_Z   4
loop_
 _symmetry_equiv_pos_site_id
 _symmetry_equiv_pos_as_xyz
  1  'x, y, z'
loop_
 _atom_site_type_symbol
 _atom_site_label
 _atom_site_symmetry_multiplicity
 _atom_site_fract_x
 _atom_site_fract_y
 _atom_site_fract_z
 _atom_site_occupancy
  P  P0  1  0.60904600  0.31695700  0.75087800  1
  P  P1  1  0.10904600  0.18304300  0.24912200  1
  P  P2  1  0.39095400  0.68304300  0.24912200  1
  P  P3  1  0.89095400  0.81695700  0.75087800  1
  H  H0  1  0.63213100  0.55005700  0.82168800  1
  H  H1  1  0.13213100  0.94994300  0.17831200  1
  H  H2  1  0.36786900  0.44994300  0.17831200  1
  H  H3  1  0.86786900  0.05005700  0.82168800  1
  H  H4  1  0.33489100  0.91281900  0.47725900  1
  H  H5  1  0.83489100  0.58718100  0.52274100  1
  H  H6  1  0.66510900  0.08718100  0.52274100  1
  H  H7  1  0.16510900  0.41281900  0.47725900  1
  H  H8  1  0.52073100  0.80423300  0.58424600  1
  H  H9  1  0.02073100  0.69576700  0.41575400  1
  H  H10  1  0.47926900  0.19576700  0.41575400  1
  H  H11  1  0.97926900  0.30423300  0.58424600  1
  H  H12  1  0.37954900  0.70221400  0.49786200  1
  H  H13  1  0.87954900  0.79778600  0.50213800  1
  H  H14  1  0.62045100  0.29778600  0.50213800  1
  H  H15  1  0.12045100  0.20221400  0.49786200  1
  H  H16  1  0.27310000  0.75758800  0.62239100  1
  H  H17  1  0.77310000  0.74241200  0.37760900  1
  H  H18  1  0.72690000  0.24241200  0.37760900  1
  H  H19  1  0.22690000  0.25758800  0.62239100  1
  H  H20  1  0.10019300  0.49706600  0.82394100  1
  H  H21  1  0.60019300  0.00293400  0.17605900  1
  H  H22  1  0.89980700  0.50293400  0.17605900  1
  H  H23  1  0.39980700  0.99706600  0.82394100  1
  H  H24  1  0.97698500  0.29858800  0.87534900  1
  H  H25  1  0.47698500  0.20141200  0.12465100  1
  H  H26  1  0.02301500  0.70141200  0.12465100  1
  H  H27  1  0.52301500  0.79858800  0.87534900  1
  H  H28  1  0.22263400  0.31168700  0.83135100  1
  H  H29  1  0.72263400  0.18831300  0.16864900  1
  H  H30  1  0.77736600  0.68831300  0.16864900  1
  H  H31  1  0.27736600  0.81168700  0.83135100  1
  H  H32  1  0.15691200  0.34304300  0.97346700  1
  H  H33  1  0.65691200  0.15695700  0.02653300  1
  H  H34  1  0.84308800  0.65695700  0.02653300  1
  H  H35  1  0.34308800  0.84304300  0.97346700  1
  N  N0  1  0.38034600  0.79332100  0.54684000  1
  N  N1  1  0.88034600  0.70667900  0.45316000  1
  N  N2  1  0.61965400  0.20667900  0.45316000  1
  N  N3  1  0.11965400  0.29332100  0.54684000  1
  N  N4  1  0.11279800  0.36167200  0.87653700  1
  N  N5  1  0.61279800  0.13832800  0.12346300  1
  N  N6  1  0.88720200  0.63832800  0.12346300  1
  N  N7  1  0.38720200  0.86167200  0.87653700  1
  O  O0  1  0.53012000  0.47525800  0.79548200  1
  O  O1  1  0.03012000  0.02474200  0.20451800  1
  O  O2  1  0.46988000  0.52474200  0.20451800  1
  O  O3  1  0.96988000  0.97525800  0.79548200  1
  O  O4  1  0.41563400  0.22229200  0.73621800  1
  O  O5  1  0.91563400  0.27770800  0.26378200  1
  O  O6  1  0.58436600  0.77770800  0.26378200  1
  O  O7  1  0.08436600  0.72229200  0.73621800  1
  O  O8  1  0.72704300  0.38967600  0.62119500  1
  O  O9  1  0.22704300  0.11032400  0.37880500  1
  O  O10  1  0.27295700  0.61032400  0.37880500  1
  O  O11  1  0.77295700  0.88967600  0.62119500  1
  O  O12  1  0.74265100  0.19677000  0.86258600  1
  O  O13  1  0.24265100  0.30323000  0.13741400  1
  O  O14  1  0.25734900  0.80323000  0.13741400  1
  O  O15  1  0.75734900  0.69677000  0.86258600  1
loop_
_geom_bond_atom_site_label_1
_geom_bond_atom_site_label_2
_geom_bond_distance
_geom_bond_site_symmetry_2
H0 O0 1.016259 1_555
H0 O15 1.634144 1_555
H1 O1 1.016259 1_565
H1 O14 1.634144 1_555
H2 O2 1.016259 1_555
H2 O13 1.634144 1_555
H3 O3 1.016259 1_545
H3 O12 1.634144 1_555
H4 N0 1.050357 1_555
H5 N1 1.050357 1_555
H6 N2 1.050357 1_555
H7 N3 1.050357 1_555
H8 N0 1.041249 1_555
H9 N1 1.041249 1_455
H10 N2 1.041249 1_555
H11 N3 1.041249 1_655
H12 N0 1.043572 1_555
H13 N1 1.043572 1_555
H14 N2 1.043572 1_555
H15 N3 1.043572 1_555
H16 N0 1.053103 1_555
H17 N1 1.053103 1_555
H18 N2 1.053103 1_555
H19 N3 1.053103 1_555
H20 N4 1.054315 1_555
H21 N5 1.054315 1_555
H22 N6 1.054315 1_555
H23 N7 1.054315 1_555
H24 N4 1.047719 1_655
H25 N5 1.047719 1_555
H26 N6 1.047719 1_455
H27 N7 1.047719 1_555
H28 N4 1.039315 1_555
H29 N5 1.039315 1_555
H30 N6 1.039315 1_555
H31 N7 1.039315 1_555
H32 N4 1.049000 1_555
H33 N5 1.049000 1_555
H34 N6 1.049000 1_555
H35 N7 1.049000 1_555
O0 P0 1.604980 1_555
O1 P1 1.604980 1_555
O2 P2 1.604980 1_555
O3 P3 1.604980 1_555
O4 P0 1.543575 1_555
O5 P1 1.543575 1_655
O6 P2 1.543575 1_555
O7 P3 1.543575 1_455
O8 P0 1.542682 1_555
O9 P1 1.542682 1_555
O10 P2 1.542682 1_555
O11 P3 1.542682 1_555
O12 P0 1.553991 1_555
O13 P1 1.553991 1_555
O14 P2 1.553991 1_555
O15 P3 1.553991 1_555
