# generated using pymatgen
data_Li3Fe(OF)2
_symmetry_space_group_name_H-M   'P 1'
_cell_length_a   5.11444055
_cell_length_b   7.83277457
_cell_length_c   7.83277360
_cell_angle_alpha   98.56858537
_cell_angle_beta   102.13577243
_cell_angle_gamma   102.13577838
_symmetry_Int_Tables_number   1
_chemical_formula_structural   Li3Fe(OF)2
_chemical_formula_sum   'Li12 Fe4 O8 F8'
_cell_volume   293.72474535
_cell_formula_units_Z   4
loop_
 _symmetry_equiv_pos_site_id
 _symmetry_equiv_pos_as_xyz
  1  'x, y, z'
loop_
 _atom_site_type_symbol
 _atom_site_label
 _atom_site_symmetry_multiplicity
 _atom_site_fract_x
 _atom_site_fract_y
 _atom_site_fract_z
 _atom_site_occupancy
  Li  Li0  1  0.24999800  0.30851600  0.19148500  1
  Li  Li1  1  0.25000400  0.80851500  0.69148400  1
  Li  Li2  1  0.74999700  0.69148500  0.80851600  1
  Li  Li3  1  0.75000300  0.19148400  0.30851600  1
  Li  Li4  1  0.25000100  0.56994000  0.93005900  1
  Li  Li5  1  0.25000000  0.06994100  0.43006000  1
  Li  Li6  1  0.75000100  0.43005800  0.06994000  1
  Li  Li7  1  0.75000000  0.93005900  0.56994200  1
  Li  Li8  1  0.25000000  0.18663600  0.81336300  1
  Li  Li9  1  0.25000000  0.68663400  0.31336500  1
  Li  Li10  1  0.75000000  0.31336400  0.68663500  1
  Li  Li11  1  0.75000000  0.81336600  0.18663400  1
  Fe  Fe0  1  0.25000100  0.95135800  0.04864200  1
  Fe  Fe1  1  0.74999800  0.54864200  0.45136100  1
  Fe  Fe2  1  0.24999400  0.45135600  0.54864400  1
  Fe  Fe3  1  0.74999800  0.04864800  0.95135300  1
  O  O0  1  0.00710000  0.55466000  0.67776900  1
  O  O1  1  0.00709300  0.05466500  0.17776500  1
  O  O2  1  0.49290800  0.82223400  0.94533400  1
  O  O3  1  0.49289900  0.32223200  0.44534000  1
  O  O4  1  0.50710100  0.17776900  0.05466000  1
  O  O5  1  0.50709300  0.67776700  0.55466600  1
  O  O6  1  0.99290600  0.44533500  0.32223300  1
  O  O7  1  0.99290000  0.94534000  0.82223100  1
  F  F0  1  0.00907300  0.68819300  0.06469000  1
  F  F1  1  0.00908300  0.18820100  0.56469200  1
  F  F2  1  0.50907300  0.56469000  0.18819400  1
  F  F3  1  0.50908300  0.06469200  0.68820200  1
  F  F4  1  0.49091800  0.43530800  0.81179800  1
  F  F5  1  0.49092800  0.93530900  0.31180700  1
  F  F6  1  0.99091800  0.31179800  0.93530700  1
  F  F7  1  0.99092800  0.81180600  0.43531000  1
loop_
_geom_bond_atom_site_label_1
_geom_bond_atom_site_label_2
_geom_bond_distance
_geom_bond_site_symmetry_2
Li0 O1 2.085681 1_555
Li0 O3 2.085706 1_555
Li0 O6 2.181246 1_455
Li0 O4 2.181313 1_555
Li1 O2 2.085674 1_555
Li1 O0 2.085713 1_555
Li1 O5 2.181229 1_555
Li1 O7 2.181317 1_455
Li2 O5 2.085676 1_555
Li2 O7 2.085711 1_555
Li2 O2 2.181234 1_555
Li2 O0 2.181313 1_655
Li3 O6 2.085682 1_555
Li3 O4 2.085716 1_555
Li3 O1 2.181250 1_655
Li3 O3 2.181317 1_555
Li4 O0 2.073050 1_555
Li4 O2 2.073095 1_555
Li5 O3 2.073052 1_555
Li5 O1 2.073100 1_555
Li6 O4 2.073041 1_555
Li6 O6 2.073082 1_555
Li7 O7 2.073040 1_555
Li7 O5 2.073081 1_555
Li8 O7 2.082931 1_445
Li8 O4 2.082937 1_556
Li9 O6 2.082935 1_455
Li9 O5 2.082943 1_555
Li10 O0 2.082926 1_655
Li10 O3 2.082927 1_555
Li11 O1 2.082935 1_665
Li11 O2 2.082937 1_554
Fe0 O4 1.960826 1_565
Fe0 O7 1.960829 1_454
Fe0 O1 1.981968 1_565
Fe0 O2 1.981972 1_554
Fe1 O3 1.960812 1_555
Fe1 O0 1.960813 1_655
Fe1 O5 1.981957 1_555
Fe1 O6 1.981991 1_555
Fe2 O6 1.960791 1_455
Fe2 O5 1.960816 1_555
Fe2 O0 1.981907 1_555
Fe2 O3 1.981949 1_555
Fe3 O2 1.960818 1_545
Fe3 O1 1.960822 1_656
Fe3 O4 1.981913 1_556
Fe3 O7 1.981942 1_545
F0 Li4 2.055114 1_554
F0 Li9 2.077675 1_555
F0 Li11 2.104417 1_455
F0 Li2 2.166683 1_454
F0 Li6 2.183284 1_455
F0 Fe0 2.203982 1_555
F1 Li5 2.055101 1_555
F1 Li8 2.077642 1_555
F1 Li10 2.104413 1_455
F1 Li3 2.166685 1_455
F1 Li7 2.183351 1_445
F1 Fe2 2.203885 1_555
F2 Li6 2.055123 1_555
F2 Li11 2.077684 1_555
F2 Li9 2.104408 1_555
F2 Li0 2.166679 1_555
F2 Li4 2.183284 1_554
F2 Fe1 2.203989 1_555
F3 Li7 2.055106 1_545
F3 Li10 2.077653 1_555
F3 Li8 2.104409 1_555
F3 Li1 2.166687 1_545
F3 Li5 2.183349 1_555
F3 Fe3 2.203857 1_555
F4 Li4 2.055105 1_555
F4 Li8 2.077651 1_555
F4 Li10 2.104413 1_555
F4 Li2 2.166687 1_555
F4 Li6 2.183351 1_556
F4 Fe2 2.203903 1_555
F5 Li5 2.055119 1_565
F5 Li9 2.077675 1_555
F5 Li11 2.104408 1_555
F5 Li3 2.166685 1_565
F5 Li7 2.183284 1_555
F5 Fe0 2.203983 1_555
F6 Li6 2.055106 1_556
F6 Li10 2.077653 1_555
F6 Li8 2.104409 1_655
F6 Li0 2.166695 1_656
F6 Li4 2.183347 1_655
F6 Fe3 2.203865 1_555
F7 Li7 2.055119 1_555
F7 Li11 2.077686 1_555
F7 Li9 2.104412 1_655
F7 Li1 2.166681 1_655
F7 Li5 2.183284 1_665
F7 Fe1 2.203987 1_555
