# generated using pymatgen
data_AlPb3OF9
_symmetry_space_group_name_H-M   'P 1'
_cell_length_a   5.75445800
_cell_length_b   5.87068900
_cell_length_c   26.80597941
_cell_angle_alpha   79.25521373
_cell_angle_beta   90.00000000
_cell_angle_gamma   90.00000000
_symmetry_Int_Tables_number   1
_chemical_formula_structural   AlPb3OF9
_chemical_formula_sum   'Al4 Pb12 O4 F36'
_cell_volume   889.69943010
_cell_formula_units_Z   4
loop_
 _symmetry_equiv_pos_site_id
 _symmetry_equiv_pos_as_xyz
  1  'x, y, z'
loop_
 _atom_site_type_symbol
 _atom_site_label
 _atom_site_symmetry_multiplicity
 _atom_site_fract_x
 _atom_site_fract_y
 _atom_site_fract_z
 _atom_site_occupancy
  Al  Al0  1  0.80124900  0.33752900  0.40303900  1
  Al  Al1  1  0.69875100  0.33752900  0.90303900  1
  Al  Al2  1  0.19875100  0.66247100  0.59696100  1
  Al  Al3  1  0.30124900  0.66247100  0.09696100  1
  Pb  Pb0  1  0.28619500  0.84318900  0.42521100  1
  Pb  Pb1  1  0.21380500  0.84318900  0.92521100  1
  Pb  Pb2  1  0.71380500  0.15681100  0.57478900  1
  Pb  Pb3  1  0.78619500  0.15681100  0.07478900  1
  Pb  Pb4  1  0.30160500  0.46978000  0.30906600  1
  Pb  Pb5  1  0.19839500  0.46978000  0.80906600  1
  Pb  Pb6  1  0.69839500  0.53022000  0.69093400  1
  Pb  Pb7  1  0.80160500  0.53022000  0.19093400  1
  Pb  Pb8  1  0.82973900  0.93498400  0.30542000  1
  Pb  Pb9  1  0.67026100  0.93498400  0.80542000  1
  Pb  Pb10  1  0.17026100  0.06501600  0.69458000  1
  Pb  Pb11  1  0.32973900  0.06501600  0.19458000  1
  O  O0  1  0.41679700  0.43281600  0.50110600  1
  O  O1  1  0.08320300  0.43281600  0.00110600  1
  O  O2  1  0.58320300  0.56718400  0.49889400  1
  O  O3  1  0.91679700  0.56718400  0.99889400  1
  F  F0  1  0.63587900  0.09989100  0.37995900  1
  F  F1  1  0.86412100  0.09989100  0.87995900  1
  F  F2  1  0.36412100  0.90010900  0.62004100  1
  F  F3  1  0.13587900  0.90010900  0.12004100  1
  F  F4  1  0.85524200  0.47285300  0.33371500  1
  F  F5  1  0.64475800  0.47285300  0.83371500  1
  F  F6  1  0.14475800  0.52714700  0.66628500  1
  F  F7  1  0.35524200  0.52714700  0.16628500  1
  F  F8  1  0.76809300  0.18998600  0.46653400  1
  F  F9  1  0.73190700  0.18998600  0.96653400  1
  F  F10  1  0.23190700  0.81001400  0.53346600  1
  F  F11  1  0.26809300  0.81001400  0.03346600  1
  F  F12  1  0.96288700  0.58312000  0.41983300  1
  F  F13  1  0.53711300  0.58312000  0.91983300  1
  F  F14  1  0.03711300  0.41688000  0.58016700  1
  F  F15  1  0.46288700  0.41688000  0.08016700  1
  F  F16  1  0.52923800  0.50570200  0.39649700  1
  F  F17  1  0.97076200  0.50570200  0.89649700  1
  F  F18  1  0.47076200  0.49429800  0.60350300  1
  F  F19  1  0.02923800  0.49429800  0.10350300  1
  F  F20  1  0.07723500  0.18347600  0.39410600  1
  F  F21  1  0.42276500  0.18347600  0.89410600  1
  F  F22  1  0.92276500  0.81652400  0.60589400  1
  F  F23  1  0.57723500  0.81652400  0.10589400  1
  F  F24  1  0.06968100  0.75005400  0.24505600  1
  F  F25  1  0.43031900  0.75005400  0.74505600  1
  F  F26  1  0.93031900  0.24994600  0.75494400  1
  F  F27  1  0.56968100  0.24994600  0.25494400  1
  F  F28  1  0.06195600  0.24410100  0.24973400  1
  F  F29  1  0.43804400  0.24410100  0.74973400  1
  F  F30  1  0.93804400  0.75589900  0.75026600  1
  F  F31  1  0.56195600  0.75589900  0.25026600  1
  F  F32  1  0.24828000  0.84926600  0.33659800  1
  F  F33  1  0.25172000  0.84926600  0.83659800  1
  F  F34  1  0.75172000  0.15073400  0.66340200  1
  F  F35  1  0.74828000  0.15073400  0.16340200  1
loop_
_geom_bond_atom_site_label_1
_geom_bond_atom_site_label_2
_geom_bond_distance
_geom_bond_site_symmetry_2
Al0 F8 1.770287 1_555
Al0 F12 1.840812 1_555
Al0 F16 1.841475 1_555
Al0 F20 1.865005 1_655
Al0 F0 1.885861 1_555
Al0 F4 1.905381 1_555
Al1 F9 1.770287 1_555
Al1 F13 1.840812 1_555
Al1 F17 1.841475 1_555
Al1 F21 1.865005 1_555
Al1 F1 1.885861 1_555
Al1 F5 1.905381 1_555
Al2 F10 1.770287 1_555
Al2 F14 1.840812 1_555
Al2 F18 1.841475 1_555
Al2 F22 1.865005 1_455
Al2 F2 1.885861 1_555
Al2 F6 1.905381 1_555
Al3 F11 1.770287 1_555
Al3 F15 1.840812 1_555
Al3 F19 1.841475 1_555
Al3 F23 1.865005 1_555
Al3 F3 1.885861 1_555
Al3 F7 1.905381 1_555
O0 O2 1.235024 1_555
O1 O3 1.235024 1_454
F0 Pb8 2.625903 1_545
F0 Pb0 2.666463 1_545
F1 Pb9 2.625903 1_545
F1 Pb1 2.666463 1_645
F2 Pb10 2.625903 1_565
F2 Pb2 2.666463 1_565
F3 Pb11 2.625903 1_565
F3 Pb3 2.666463 1_465
F4 Pb4 2.653099 1_655
F4 Pb8 2.681429 1_555
F5 Pb5 2.653099 1_555
F5 Pb9 2.681429 1_555
F6 Pb6 2.653099 1_455
F6 Pb10 2.681429 1_555
F7 Pb7 2.653099 1_555
F7 Pb11 2.681429 1_555
F12 Pb0 2.428012 1_655
F13 Pb1 2.428012 1_555
F14 Pb2 2.428012 1_455
F15 Pb3 2.428012 1_555
F16 Pb0 2.653786 1_555
F16 Pb4 2.727163 1_555
F17 Pb1 2.653786 1_655
F17 Pb5 2.727163 1_655
F18 Pb2 2.653786 1_555
F18 Pb6 2.727163 1_555
F19 Pb3 2.653786 1_455
F19 Pb7 2.727163 1_455
F20 Pb0 2.347532 1_545
F21 Pb1 2.347532 1_545
F22 Pb2 2.347532 1_565
F23 Pb3 2.347532 1_565
F24 Pb8 2.521594 1_455
F24 Pb4 2.525852 1_555
F24 Pb11 2.560538 1_565
F24 Pb7 2.616916 1_455
F25 Pb9 2.521594 1_555
F25 Pb5 2.525852 1_555
F25 Pb10 2.560538 1_565
F25 Pb6 2.616916 1_555
F26 Pb10 2.521594 1_655
F26 Pb6 2.525852 1_555
F26 Pb9 2.560538 1_545
F26 Pb5 2.616916 1_655
F27 Pb11 2.521594 1_555
F27 Pb7 2.525852 1_555
F27 Pb8 2.560538 1_545
F27 Pb4 2.616916 1_555
F28 Pb11 2.499054 1_555
F28 Pb8 2.509391 1_445
F28 Pb7 2.561869 1_455
F28 Pb4 2.640522 1_555
F29 Pb10 2.499054 1_555
F29 Pb9 2.509391 1_545
F29 Pb6 2.561869 1_555
F29 Pb5 2.640522 1_555
F30 Pb9 2.499054 1_555
F30 Pb10 2.509391 1_665
F30 Pb5 2.561869 1_655
F30 Pb6 2.640522 1_555
F31 Pb8 2.499054 1_555
F31 Pb11 2.509391 1_565
F31 Pb4 2.561869 1_555
F31 Pb7 2.640522 1_555
F32 Pb0 2.378992 1_555
F32 Pb4 2.493030 1_555
F32 Pb8 2.568203 1_455
F33 Pb1 2.378992 1_555
F33 Pb5 2.493030 1_555
F33 Pb9 2.568203 1_555
F34 Pb2 2.378992 1_555
F34 Pb6 2.493030 1_555
F34 Pb10 2.568203 1_655
F35 Pb3 2.378992 1_555
F35 Pb7 2.493030 1_555
F35 Pb11 2.568203 1_555
