# generated using pymatgen
data_Sr5Nb4O15
_symmetry_space_group_name_H-M   'P 1'
_cell_length_a   5.70798068
_cell_length_b   5.70798009
_cell_length_c   23.05444753
_cell_angle_alpha   90.00001273
_cell_angle_beta   90.00000822
_cell_angle_gamma   120.00000096
_symmetry_Int_Tables_number   1
_chemical_formula_structural   Sr5Nb4O15
_chemical_formula_sum   'Sr10 Nb8 O30'
_cell_volume   650.50447811
_cell_formula_units_Z   2
loop_
 _symmetry_equiv_pos_site_id
 _symmetry_equiv_pos_as_xyz
  1  'x, y, z'
loop_
 _atom_site_type_symbol
 _atom_site_label
 _atom_site_symmetry_multiplicity
 _atom_site_fract_x
 _atom_site_fract_y
 _atom_site_fract_z
 _atom_site_occupancy
  Sr  Sr0  1  0.33333287  0.66666673  0.14102422  1
  Sr  Sr1  1  0.33333391  0.66666666  0.47062151  1
  Sr  Sr2  1  0.00000076  0.00000046  0.25000009  1
  Sr  Sr3  1  -0.00000011  -0.00000005  0.75000055  1
  Sr  Sr4  1  0.33333338  0.66666642  0.64101189  1
  Sr  Sr5  1  0.33333321  0.66666657  0.97063903  1
  Sr  Sr6  1  0.66666623  0.33333343  0.02937911  1
  Sr  Sr7  1  0.66666723  0.33333348  0.35897386  1
  Sr  Sr8  1  0.66666685  0.33333360  0.52936170  1
  Sr  Sr9  1  0.66666678  0.33333307  0.85899322  1
  Nb  Nb0  1  0.33333401  0.66666680  0.30283694  1
  Nb  Nb1  1  0.99999597  -0.00000224  0.09038899  1
  Nb  Nb2  1  0.00000054  0.00000005  0.40960487  1
  Nb  Nb3  1  -0.00000001  0.00000006  0.59037624  1
  Nb  Nb4  1  0.00000037  0.00000054  0.90962016  1
  Nb  Nb5  1  0.33333353  0.66666676  0.80284729  1
  Nb  Nb6  1  0.66666629  0.33333306  0.19715915  1
  Nb  Nb7  1  0.66666723  0.33333327  0.69715711  1
  O  O0  1  0.09965018  0.76581935  0.55518295  1
  O  O1  1  0.11524180  0.78444235  0.34627318  1
  O  O2  1  0.00000299  0.54681898  0.75000321  1
  O  O3  1  -0.00000224  0.45317281  0.24999906  1
  O  O4  1  0.21555070  0.88474308  0.84628525  1
  O  O5  1  0.23417933  0.90034091  0.05519765  1
  O  O6  1  0.09965888  0.33383954  0.05519772  1
  O  O7  1  0.11525714  0.33080721  0.84628514  1
  O  O8  1  0.21555844  0.33079943  0.34627312  1
  O  O9  1  0.23418139  0.33383097  0.55518300  1
  O  O10  1  0.33382540  0.23417430  0.94481665  1
  O  O11  1  0.66616863  0.90034982  0.55518298  1
  O  O12  1  0.66920148  0.88475903  0.34627316  1
  O  O13  1  0.33079834  0.21555396  0.15372435  1
  O  O14  1  0.45318254  0.45318554  0.75000296  1
  O  O15  1  0.54682658  0.54682424  0.24999908  1
  O  O16  1  0.66919261  0.78444952  0.84628517  1
  O  O17  1  0.33080859  0.11525877  0.65371850  1
  O  O18  1  0.33384039  0.09965305  0.44480064  1
  O  O19  1  0.66615695  0.76581889  0.05519701  1
  O  O20  1  0.76581336  0.66616077  0.44480065  1
  O  O21  1  0.78445065  0.66919186  0.65371841  1
  O  O22  1  0.45317512  0.00000201  0.24999910  1
  O  O23  1  0.54681529  -0.00000190  0.75000342  1
  O  O24  1  0.88475596  0.66920180  0.15372415  1
  O  O25  1  0.90034873  0.66617492  0.94481649  1
  O  O26  1  0.76582631  0.09965168  0.94481653  1
  O  O27  1  0.78444595  0.11524329  0.15372441  1
  O  O28  1  0.88474168  0.21554937  0.65371851  1
  O  O29  1  0.90034778  0.23418677  0.44480062  1
loop_
_geom_bond_atom_site_label_1
_geom_bond_atom_site_label_2
_geom_bond_distance
_geom_bond_site_symmetry_2
Nb0 O8 1.959921 1_555
Nb0 O12 1.959922 1_555
Nb0 O1 1.959923 1_555
Nb0 O15 2.066503 1_555
Nb0 O22 2.066505 1_565
Nb0 O3 2.066508 1_555
Nb1 O19 1.878558 1_545
Nb1 O5 1.878562 1_645
Nb1 O6 1.878562 1_655
Nb1 O27 2.210866 1_555
Nb1 O24 2.210868 1_545
Nb1 O13 2.210892 1_655
Nb2 O29 1.878606 1_455
Nb2 O20 1.878607 1_445
Nb2 O18 1.878608 1_555
Nb2 O1 2.210826 1_545
Nb2 O12 2.210827 1_445
Nb2 O8 2.210829 1_555
Nb3 O0 1.878543 1_545
Nb3 O9 1.878543 1_555
Nb3 O11 1.878545 1_445
Nb3 O28 2.211009 1_455
Nb3 O21 2.211010 1_445
Nb3 O17 2.211013 1_555
Nb4 O10 1.878544 1_555
Nb4 O26 1.878544 1_455
Nb4 O25 1.878545 1_445
Nb4 O7 2.210897 1_555
Nb4 O4 2.210899 1_545
Nb4 O16 2.210900 1_445
Nb5 O16 1.959896 1_555
Nb5 O4 1.959898 1_555
Nb5 O7 1.959898 1_555
Nb5 O23 2.066564 1_565
Nb5 O2 2.066564 1_555
Nb5 O14 2.066565 1_555
Nb6 O13 1.959904 1_555
Nb6 O27 1.959910 1_555
Nb6 O24 1.959910 1_555
Nb6 O15 2.066515 1_555
Nb6 O22 2.066516 1_555
Nb6 O3 2.066517 1_655
Nb7 O28 1.959901 1_555
Nb7 O17 1.959902 1_555
Nb7 O21 1.959904 1_555
Nb7 O23 2.066612 1_555
Nb7 O2 2.066612 1_655
Nb7 O14 2.066613 1_555
O0 Sr8 2.540764 1_455
O0 Sr1 2.579735 1_555
O0 Sr4 2.601887 1_555
O1 Sr7 2.584359 1_455
O1 Sr2 2.771681 1_565
O2 Sr3 2.586757 1_565
O3 Sr2 2.586707 1_555
O4 Sr9 2.584442 1_565
O4 Sr3 2.771913 1_565
O5 Sr6 2.540778 1_565
O5 Sr5 2.579655 1_554
O5 Sr0 2.601815 1_555
O6 Sr6 2.540778 1_455
O6 Sr5 2.579654 1_554
O6 Sr0 2.601812 1_555
O7 Sr9 2.584444 1_455
O7 Sr3 2.771909 1_555
O8 Sr7 2.584360 1_555
O8 Sr2 2.771678 1_555
O9 Sr8 2.540762 1_555
O9 Sr1 2.579734 1_555
O9 Sr4 2.601884 1_555
O10 Sr5 2.540791 1_555
O10 Sr6 2.579763 1_556
O10 Sr9 2.601805 1_555
O11 Sr8 2.540765 1_565
O11 Sr1 2.579730 1_555
O11 Sr4 2.601885 1_555
O12 Sr7 2.584358 1_565
O12 Sr2 2.771681 1_665
O13 Sr0 2.584379 1_555
O13 Sr2 2.771723 1_555
O14 Sr3 2.586766 1_555
O15 Sr2 2.586715 1_665
O16 Sr9 2.584445 1_555
O16 Sr3 2.771911 1_665
O17 Sr4 2.584448 1_545
O17 Sr3 2.771866 1_555
O18 Sr1 2.540754 1_545
O18 Sr8 2.579698 1_555
O18 Sr7 2.601822 1_555
O19 Sr6 2.540776 1_555
O19 Sr5 2.579630 1_554
O19 Sr0 2.601815 1_555
O20 Sr1 2.540750 1_555
O20 Sr8 2.579701 1_555
O20 Sr7 2.601823 1_555
O21 Sr4 2.584447 1_555
O21 Sr3 2.771865 1_665
O22 Sr2 2.586706 1_555
O23 Sr3 2.586764 1_655
O24 Sr0 2.584373 1_655
O24 Sr2 2.771729 1_665
O25 Sr5 2.540794 1_655
O25 Sr6 2.579769 1_556
O25 Sr9 2.601802 1_555
O26 Sr5 2.540796 1_545
O26 Sr6 2.579768 1_556
O26 Sr9 2.601800 1_555
O27 Sr0 2.584376 1_545
O27 Sr2 2.771722 1_655
O28 Sr4 2.584446 1_655
O28 Sr3 2.771863 1_655
O29 Sr1 2.540753 1_655
O29 Sr8 2.579703 1_555
O29 Sr7 2.601823 1_555
