# generated using pymatgen
data_Li6Nb3Fe3O16
_symmetry_space_group_name_H-M   'P 1'
_cell_length_a   6.09022801
_cell_length_b   6.09022801
_cell_length_c   10.09495746
_cell_angle_alpha   89.18814540
_cell_angle_beta   89.18814540
_cell_angle_gamma   60.60010316
_symmetry_Int_Tables_number   1
_chemical_formula_structural   Li6Nb3Fe3O16
_chemical_formula_sum   'Li6 Nb3 Fe3 O16'
_cell_volume   326.16570953
_cell_formula_units_Z   1
loop_
 _symmetry_equiv_pos_site_id
 _symmetry_equiv_pos_as_xyz
  1  'x, y, z'
loop_
 _atom_site_type_symbol
 _atom_site_label
 _atom_site_symmetry_multiplicity
 _atom_site_fract_x
 _atom_site_fract_y
 _atom_site_fract_z
 _atom_site_occupancy
  Li  Li0  1  0.65879800  0.65879800  0.50100500  1
  Li  Li1  1  0.67120300  0.67120300  0.11045300  1
  Li  Li2  1  0.00513400  0.00513400  0.99503400  1
  Li  Li3  1  0.00888800  0.00888800  0.49924800  1
  Li  Li4  1  0.33648800  0.33648800  0.99365000  1
  Li  Li5  1  0.33251300  0.33251300  0.62398500  1
  Nb  Nb0  1  0.82160700  0.82160700  0.78094500  1
  Nb  Nb1  1  0.16643800  0.66088900  0.28617000  1
  Nb  Nb2  1  0.66088900  0.16643800  0.28617000  1
  Fe  Fe0  1  0.32570200  0.83182300  0.78285700  1
  Fe  Fe1  1  0.83182300  0.32570200  0.78285700  1
  Fe  Fe2  1  0.16493500  0.16493500  0.27995200  1
  O  O0  1  0.30328900  0.84516200  0.38757100  1
  O  O1  1  0.51898400  0.51898400  0.68949900  1
  O  O2  1  0.68345200  0.68345200  0.90914300  1
  O  O3  1  0.99125000  0.99125000  0.67788600  1
  O  O4  1  0.99399200  0.99399200  0.17705400  1
  O  O5  1  0.84516200  0.30328900  0.38757100  1
  O  O6  1  0.50665800  0.96803300  0.67878100  1
  O  O7  1  0.96803300  0.50665800  0.67878100  1
  O  O8  1  0.14977600  0.14977600  0.87638100  1
  O  O9  1  0.84451900  0.84451900  0.39544700  1
  O  O10  1  0.03228300  0.48939800  0.17728900  1
  O  O11  1  0.48939800  0.03228300  0.17728900  1
  O  O12  1  0.33971800  0.33971800  0.40045500  1
  O  O13  1  0.16210400  0.69787000  0.88895800  1
  O  O14  1  0.48873800  0.48873800  0.17860600  1
  O  O15  1  0.69787000  0.16210400  0.88895800  1
loop_
_geom_bond_atom_site_label_1
_geom_bond_atom_site_label_2
_geom_bond_distance
_geom_bond_site_symmetry_2
Li0 O9 2.209518 1_555
Li0 O5 2.215404 1_555
Li0 O0 2.215404 1_555
Li0 O1 2.385566 1_555
Li0 O6 2.441622 1_555
Li0 O7 2.441622 1_555
Li1 O14 2.027856 1_555
Li1 O2 2.034184 1_554
Li1 O11 2.036508 1_565
Li1 O10 2.036508 1_655
Li2 O4 1.839296 1_446
Li2 O8 1.920616 1_555
Li2 O15 1.958001 1_455
Li2 O13 1.958001 1_545
Li3 O3 1.809827 1_445
Li3 O5 1.923347 1_455
Li3 O0 1.923347 1_545
Li3 O9 2.036053 1_445
Li4 O15 2.181701 1_555
Li4 O13 2.181701 1_555
Li4 O8 2.309400 1_555
Li4 O11 2.448265 1_556
Li4 O10 2.448265 1_556
Li4 O14 2.479502 1_556
Li5 O7 2.007139 1_455
Li5 O6 2.007139 1_545
Li5 O1 2.079810 1_555
Li5 O12 2.256555 1_555
Nb0 O2 1.929786 1_555
Nb0 O7 1.971972 1_555
Nb0 O6 1.971972 1_555
Nb0 O3 2.050446 1_555
Nb0 O13 2.136257 1_655
Nb0 O15 2.136257 1_565
Nb1 O10 1.965265 1_555
Nb1 O0 1.994249 1_555
Nb1 O14 2.020532 1_555
Nb1 O9 2.032833 1_455
Nb1 O12 2.052945 1_555
Nb1 O4 2.075933 1_455
Nb2 O11 1.965265 1_555
Nb2 O5 1.994249 1_555
Nb2 O14 2.020532 1_555
Nb2 O9 2.032833 1_545
Nb2 O12 2.052945 1_555
Nb2 O4 2.075933 1_545
Fe0 O13 1.883747 1_555
Fe0 O1 1.929086 1_555
Fe0 O8 1.942978 1_565
Fe0 O6 1.961280 1_555
Fe0 O3 2.074815 1_455
Fe0 O2 2.302598 1_555
Fe1 O15 1.883747 1_555
Fe1 O1 1.929086 1_555
Fe1 O8 1.942978 1_655
Fe1 O7 1.961280 1_555
Fe1 O3 2.074815 1_545
Fe1 O2 2.302598 1_555
Fe2 O10 2.007452 1_555
Fe2 O11 2.007452 1_555
Fe2 O0 2.009444 1_545
Fe2 O5 2.009444 1_455
Fe2 O4 2.090963 1_445
Fe2 O12 2.220778 1_555
