# generated using pymatgen
data_Li2MnSnO4
_symmetry_space_group_name_H-M   'P 1'
_cell_length_a   6.22322045
_cell_length_b   6.27979447
_cell_length_c   6.22322388
_cell_angle_alpha   119.73266411
_cell_angle_beta   90.10882532
_cell_angle_gamma   119.54832947
_symmetry_Int_Tables_number   1
_chemical_formula_structural   Li2MnSnO4
_chemical_formula_sum   'Li4 Mn2 Sn2 O8'
_cell_volume   173.66626626
_cell_formula_units_Z   2
loop_
 _symmetry_equiv_pos_site_id
 _symmetry_equiv_pos_as_xyz
  1  'x, y, z'
loop_
 _atom_site_type_symbol
 _atom_site_label
 _atom_site_symmetry_multiplicity
 _atom_site_fract_x
 _atom_site_fract_y
 _atom_site_fract_z
 _atom_site_occupancy
  Li  Li0  1  0.49999900  0.99999900  0.99999800  1
  Li  Li1  1  0.50000000  0.50000000  0.49999900  1
  Li  Li2  1  0.99999900  0.49999900  0.49999800  1
  Li  Li3  1  0.49999900  0.99999900  0.49999800  1
  Mn  Mn0  1  0.00000500  0.00000600  0.50001000  1
  Mn  Mn1  1  0.99999300  0.49999800  0.00001600  1
  Sn  Sn0  1  0.50000200  0.49999700  0.99999600  1
  Sn  Sn1  1  0.00000400  0.00000200  0.00000000  1
  O  O0  1  0.23077500  0.99272600  0.23220000  1
  O  O1  1  0.73947700  0.50727300  0.23804700  1
  O  O2  1  0.26052400  0.49272800  0.76195200  1
  O  O3  1  0.76922300  0.00727300  0.76779400  1
  O  O4  1  0.74234300  0.97945800  0.23082700  1
  O  O5  1  0.75137000  0.52054100  0.76288400  1
  O  O6  1  0.24863100  0.47946000  0.23711300  1
  O  O7  1  0.25765400  0.02054000  0.76916700  1
loop_
_geom_bond_atom_site_label_1
_geom_bond_atom_site_label_2
_geom_bond_distance
_geom_bond_site_symmetry_2
Li0 O4 2.173055 1_556
Li0 O7 2.173068 1_565
Li0 O0 2.212810 1_556
Li0 O3 2.212818 1_565
Li0 O2 2.278500 1_555
Li0 O1 2.278513 1_566
Li1 O5 2.173055 1_555
Li1 O6 2.173059 1_555
Li1 O1 2.212823 1_555
Li1 O2 2.212823 1_555
Li1 O3 2.278507 1_565
Li1 O0 2.278513 1_545
Li2 O5 2.254846 1_555
Li2 O6 2.254855 1_655
Li2 O1 2.329165 1_555
Li2 O2 2.329178 1_655
Li2 O7 2.334796 1_665
Li2 O4 2.334797 1_545
Li3 O7 2.254842 1_565
Li3 O4 2.254846 1_555
Li3 O3 2.329160 1_565
Li3 O0 2.329173 1_555
Li3 O6 2.334788 1_555
Li3 O5 2.334801 1_565
Mn0 O3 2.200052 1_455
Mn0 O0 2.200121 1_545
Mn0 O2 2.213332 1_555
Mn0 O1 2.213386 1_445
Mn0 O7 2.228199 1_555
Mn0 O4 2.228313 1_445
Mn1 O1 2.199976 1_555
Mn1 O2 2.200180 1_654
Mn1 O3 2.213344 1_554
Mn1 O0 2.213365 1_655
Mn1 O6 2.228208 1_655
Mn1 O5 2.228313 1_554
O0 Sn1 2.067615 1_565
O1 Sn0 2.067628 1_554
O2 Sn0 2.067641 1_555
O3 Sn1 2.067663 1_656
O4 Sn0 2.150926 1_554
O4 Sn1 2.154027 1_665
O5 Sn1 2.150927 1_666
O5 Sn0 2.153991 1_555
O6 Sn1 2.150913 1_555
O6 Sn0 2.154025 1_554
O7 Sn0 2.150909 1_555
O7 Sn1 2.154003 1_556
