# generated using pymatgen
data_Li4Ni5SnO12
_symmetry_space_group_name_H-M   'P 1'
_cell_length_a   5.04452210
_cell_length_b   5.04452210
_cell_length_c   10.04394205
_cell_angle_alpha   89.10880074
_cell_angle_beta   89.10880074
_cell_angle_gamma   118.98991515
_symmetry_Int_Tables_number   1
_chemical_formula_structural   Li4Ni5SnO12
_chemical_formula_sum   'Li4 Ni5 Sn1 O12'
_cell_volume   223.46108906
_cell_formula_units_Z   1
loop_
 _symmetry_equiv_pos_site_id
 _symmetry_equiv_pos_as_xyz
  1  'x, y, z'
loop_
 _atom_site_type_symbol
 _atom_site_label
 _atom_site_symmetry_multiplicity
 _atom_site_fract_x
 _atom_site_fract_y
 _atom_site_fract_z
 _atom_site_occupancy
  Li  Li0  1  0.65576100  0.15234100  0.74745500  1
  Li  Li1  1  0.84765900  0.34423900  0.25254500  1
  Li  Li2  1  0.15234100  0.65576100  0.74745500  1
  Li  Li3  1  0.34423900  0.84765900  0.25254500  1
  Ni  Ni0  1  0.83761800  0.16238200  0.50000000  1
  Ni  Ni1  1  0.33598100  0.66401900  0.00000000  1
  Ni  Ni2  1  0.66401900  0.33598100  0.00000000  1
  Ni  Ni3  1  0.16238200  0.83761800  0.50000000  1
  Ni  Ni4  1  0.50000000  0.50000000  0.50000000  1
  Sn  Sn0  1  0.00000000  0.00000000  0.00000000  1
  O  O0  1  0.66746600  0.02828500  0.11209900  1
  O  O1  1  0.97171500  0.33253400  0.88790100  1
  O  O2  1  0.50589000  0.14285700  0.39845500  1
  O  O3  1  0.14285700  0.50589000  0.39845500  1
  O  O4  1  0.85714300  0.49411000  0.60154500  1
  O  O5  1  0.13728800  0.13728800  0.59665800  1
  O  O6  1  0.49411000  0.85714300  0.60154500  1
  O  O7  1  0.02828500  0.66746600  0.11209900  1
  O  O8  1  0.35025000  0.35025000  0.10224600  1
  O  O9  1  0.33253400  0.97171500  0.88790100  1
  O  O10  1  0.64975000  0.64975000  0.89775400  1
  O  O11  1  0.86271200  0.86271200  0.40334200  1
loop_
_geom_bond_atom_site_label_1
_geom_bond_atom_site_label_2
_geom_bond_distance
_geom_bond_site_symmetry_2
Li0 O9 1.981692 1_545
Li0 O6 1.989526 1_545
Li0 O1 2.015432 1_555
Li0 O4 2.080751 1_555
Li1 O7 1.981692 1_655
Li1 O3 1.989526 1_655
Li1 O0 2.015432 1_555
Li1 O2 2.080751 1_555
Li2 O1 1.981692 1_455
Li2 O4 1.989526 1_455
Li2 O9 2.015432 1_555
Li2 O6 2.080751 1_555
Li3 O0 1.981692 1_565
Li3 O2 1.989526 1_565
Li3 O7 2.015432 1_555
Li3 O3 2.080751 1_555
Ni0 O11 1.863078 1_545
Ni0 O5 1.863078 1_655
Ni0 O3 1.929698 1_655
Ni0 O6 1.929698 1_545
Ni0 O2 1.935633 1_555
Ni0 O4 1.935633 1_555
Ni1 O10 1.904543 1_554
Ni1 O8 1.904543 1_555
Ni1 O9 1.910407 1_554
Ni1 O7 1.910407 1_555
Ni1 O0 2.141255 1_565
Ni1 O1 2.141255 1_454
Ni2 O10 1.904543 1_554
Ni2 O8 1.904543 1_555
Ni2 O1 1.910407 1_554
Ni2 O0 1.910407 1_555
Ni2 O7 2.141255 1_655
Ni2 O9 2.141255 1_544
Ni3 O11 1.863078 1_455
Ni3 O5 1.863078 1_565
Ni3 O2 1.929698 1_565
Ni3 O4 1.929698 1_455
Ni3 O6 1.935633 1_555
Ni3 O3 1.935633 1_555
Ni4 O11 2.069436 1_555
Ni4 O5 2.069436 1_555
Ni4 O2 2.096432 1_555
Ni4 O6 2.096432 1_555
Ni4 O3 2.096432 1_555
Ni4 O4 2.096432 1_555
O0 Sn0 2.068869 1_655
O1 Sn0 2.068869 1_656
O7 Sn0 2.068869 1_565
O8 Sn0 2.094053 1_555
O9 Sn0 2.068869 1_566
O10 Sn0 2.094053 1_666
