# generated using pymatgen
data_Na2Ni2O5
_symmetry_space_group_name_H-M   'P 1'
_cell_length_a   4.96277500
_cell_length_b   6.44538933
_cell_length_c   6.99207755
_cell_angle_alpha   110.71938655
_cell_angle_beta   95.78496465
_cell_angle_gamma   105.69767097
_symmetry_Int_Tables_number   1
_chemical_formula_structural   Na2Ni2O5
_chemical_formula_sum   'Na4 Ni4 O10'
_cell_volume   196.53367437
_cell_formula_units_Z   2
loop_
 _symmetry_equiv_pos_site_id
 _symmetry_equiv_pos_as_xyz
  1  'x, y, z'
loop_
 _atom_site_type_symbol
 _atom_site_label
 _atom_site_symmetry_multiplicity
 _atom_site_fract_x
 _atom_site_fract_y
 _atom_site_fract_z
 _atom_site_occupancy
  Na  Na0  1  0.20029500  0.39217200  0.40742200  1
  Na  Na1  1  0.56360400  0.69425700  0.20414500  1
  Na  Na2  1  0.84706700  0.10895900  0.60051700  1
  Na  Na3  1  0.98187600  0.49917400  0.01118300  1
  Ni  Ni0  1  0.40198500  0.80544000  0.80111900  1
  Ni  Ni1  1  0.99801800  0.99698000  0.99631500  1
  Ni  Ni2  1  0.80249100  0.60233000  0.60135800  1
  Ni  Ni3  1  0.59614000  0.19850700  0.19725300  1
  O  O0  1  0.09726500  0.90649500  0.72746100  1
  O  O1  1  0.10328800  0.52072200  0.71108100  1
  O  O2  1  0.30156500  0.89246100  0.07114600  1
  O  O3  1  0.29322100  0.28585400  0.09303600  1
  O  O4  1  0.52912600  0.74143000  0.55009700  1
  O  O5  1  0.70290800  0.69399400  0.87212600  1
  O  O6  1  0.56369200  0.28569500  0.47719700  1
  O  O7  1  0.70113700  0.10773700  0.92495800  1
  O  O8  1  0.84428200  0.51188800  0.31902000  1
  O  O9  1  0.86555200  0.05467600  0.24476400  1
loop_
_geom_bond_atom_site_label_1
_geom_bond_atom_site_label_2
_geom_bond_distance
_geom_bond_site_symmetry_2
Na0 O1 2.145556 1_555
Na0 O6 2.165814 1_555
Na0 O9 2.167546 1_455
Na0 O4 2.195618 1_555
Na0 O3 2.196337 1_555
Na0 O8 2.225785 1_455
Na1 O9 2.299208 1_565
Na1 O8 2.301215 1_555
Na1 O4 2.358834 1_555
Na1 O2 2.384059 1_555
Na1 O3 2.400979 1_555
Na1 O5 2.487712 1_554
Na2 O6 2.310044 1_555
Na2 O4 2.345175 1_545
Na2 O0 2.346641 1_645
Na2 O9 2.401210 1_555
Na2 O1 2.404588 1_655
Na2 O7 2.451830 1_555
Na3 O1 2.280606 1_654
Na3 O8 2.303839 1_555
Na3 O7 2.349944 1_554
Na3 O5 2.443784 1_554
Na3 O2 2.460938 1_655
Na3 O3 2.476600 1_655
Ni0 O1 1.866488 1_555
Ni0 O4 1.871011 1_555
Ni0 O0 1.894668 1_555
Ni0 O5 1.917319 1_555
Ni0 O2 1.928552 1_556
Ni0 O7 1.931840 1_565
Ni1 O9 1.869129 1_566
Ni1 O3 1.871793 1_666
Ni1 O7 1.897972 1_565
Ni1 O2 1.906987 1_656
Ni1 O0 1.919087 1_655
Ni1 O5 1.925804 1_555
Ni2 O6 1.885031 1_555
Ni2 O4 1.886875 1_555
Ni2 O1 1.890297 1_655
Ni2 O8 1.900972 1_555
Ni2 O0 1.930248 1_655
Ni2 O5 1.932040 1_555
Ni3 O6 1.872777 1_555
Ni3 O8 1.883364 1_555
Ni3 O9 1.885872 1_555
Ni3 O3 1.906656 1_555
Ni3 O2 1.937711 1_545
Ni3 O7 1.953321 1_554
