# generated using pymatgen
data_Li3Fe(NiO2)4
_symmetry_space_group_name_H-M   'P 1'
_cell_length_a   5.87466508
_cell_length_b   5.87466447
_cell_length_c   5.92484087
_cell_angle_alpha   89.27303501
_cell_angle_beta   59.66063073
_cell_angle_gamma   59.77739690
_symmetry_Int_Tables_number   1
_chemical_formula_structural   Li3Fe(NiO2)4
_chemical_formula_sum   'Li3 Fe1 Ni4 O8'
_cell_volume   144.26400376
_cell_formula_units_Z   1
loop_
 _symmetry_equiv_pos_site_id
 _symmetry_equiv_pos_as_xyz
  1  'x, y, z'
loop_
 _atom_site_type_symbol
 _atom_site_label
 _atom_site_symmetry_multiplicity
 _atom_site_fract_x
 _atom_site_fract_y
 _atom_site_fract_z
 _atom_site_occupancy
  Li  Li0  1  0.00000000  0.00000000  0.50000000  1
  Li  Li1  1  0.50000000  0.00000000  0.50000000  1
  Li  Li2  1  0.50000000  0.50000000  0.50000000  1
  Fe  Fe0  1  0.50000000  0.50000000  0.00000000  1
  Ni  Ni0  1  0.00000000  0.50000000  0.50000000  1
  Ni  Ni1  1  0.00000000  0.00000000  0.00000000  1
  Ni  Ni2  1  0.50000000  0.00000000  0.00000000  1
  Ni  Ni3  1  0.00000000  0.50000000  0.00000000  1
  O  O0  1  0.47998600  0.25925200  0.77926600  1
  O  O1  1  0.98808900  0.25572100  0.75511100  1
  O  O2  1  0.50061100  0.74319900  0.75511100  1
  O  O3  1  0.97546900  0.75099100  0.77552200  1
  O  O4  1  0.02453100  0.24900900  0.22447800  1
  O  O5  1  0.49938900  0.25680100  0.24488900  1
  O  O6  1  0.01191100  0.74427900  0.24488900  1
  O  O7  1  0.52001400  0.74074800  0.22073400  1
loop_
_geom_bond_atom_site_label_1
_geom_bond_atom_site_label_2
_geom_bond_distance
_geom_bond_site_symmetry_2
Li0 O1 2.095538 1_455
Li0 O6 2.095538 1_545
Li0 O7 2.159473 1_545
Li0 O0 2.159473 1_455
Li0 O3 2.177031 1_445
Li0 O4 2.177031 1_555
Li1 O1 2.121958 1_455
Li1 O6 2.121958 1_645
Li1 O5 2.121962 1_555
Li1 O2 2.121962 1_545
Li1 O0 2.181346 1_555
Li1 O7 2.181346 1_545
Li2 O2 2.095539 1_555
Li2 O5 2.095539 1_555
Li2 O0 2.159473 1_555
Li2 O7 2.159473 1_555
Li2 O4 2.177031 1_655
Li2 O3 2.177031 1_455
Fe0 O2 2.023296 1_554
Fe0 O5 2.023296 1_555
Fe0 O6 2.023300 1_555
Fe0 O1 2.023300 1_554
Fe0 O7 2.023405 1_555
Fe0 O0 2.023405 1_554
Ni0 O5 2.070768 1_555
Ni0 O2 2.070768 1_455
Ni0 O6 2.070772 1_555
Ni0 O1 2.070772 1_455
Ni0 O3 2.114046 1_455
Ni0 O4 2.114046 1_555
Ni1 O1 2.075657 1_454
Ni1 O6 2.075657 1_545
Ni1 O2 2.075661 1_544
Ni1 O5 2.075661 1_455
Ni1 O4 2.093992 1_555
Ni1 O3 2.093992 1_444
Ni2 O3 1.973252 1_544
Ni2 O4 1.973252 1_555
Ni2 O7 1.992062 1_545
Ni2 O0 1.992062 1_554
Ni2 O5 2.103799 1_555
Ni2 O2 2.103799 1_544
Ni3 O4 1.973252 1_555
Ni3 O3 1.973252 1_454
Ni3 O0 1.992062 1_554
Ni3 O7 1.992062 1_455
Ni3 O6 2.103799 1_555
Ni3 O1 2.103799 1_454
