# generated using pymatgen
data_Na6Co2B4SO16
_symmetry_space_group_name_H-M   'P 1'
_cell_length_a   9.78172772
_cell_length_b   9.78172772
_cell_length_c   9.78172772
_cell_angle_alpha   60.00000000
_cell_angle_beta   60.00000000
_cell_angle_gamma   60.00000000
_symmetry_Int_Tables_number   1
_chemical_formula_structural   Na6Co2B4SO16
_chemical_formula_sum   'Na12 Co4 B8 S2 O32'
_cell_volume   661.80754054
_cell_formula_units_Z   2
loop_
 _symmetry_equiv_pos_site_id
 _symmetry_equiv_pos_as_xyz
  1  'x, y, z'
loop_
 _atom_site_type_symbol
 _atom_site_label
 _atom_site_symmetry_multiplicity
 _atom_site_fract_x
 _atom_site_fract_y
 _atom_site_fract_z
 _atom_site_occupancy
  Na  Na0  1  0.21830700  0.21830700  0.78169300  1
  Na  Na1  1  0.78169300  0.21830700  0.21830700  1
  Na  Na2  1  0.21830700  0.78169300  0.21830700  1
  Na  Na3  1  0.78169300  0.21830700  0.78169300  1
  Na  Na4  1  0.46830700  0.46830700  0.03169300  1
  Na  Na5  1  0.03169300  0.46830700  0.46830700  1
  Na  Na6  1  0.21830700  0.78169300  0.78169300  1
  Na  Na7  1  0.78169300  0.78169300  0.21830700  1
  Na  Na8  1  0.46830700  0.03169300  0.46830700  1
  Na  Na9  1  0.03169300  0.46830700  0.03169300  1
  Na  Na10  1  0.03169300  0.03169300  0.46830700  1
  Na  Na11  1  0.46830700  0.03169300  0.03169300  1
  Co  Co0  1  0.62500000  0.12500000  0.62500000  1
  Co  Co1  1  0.12500000  0.62500000  0.62500000  1
  Co  Co2  1  0.62500000  0.62500000  0.12500000  1
  Co  Co3  1  0.62500000  0.62500000  0.62500000  1
  B  B0  1  0.41577600  0.41577600  0.41577600  1
  B  B1  1  0.75267200  0.41577600  0.41577600  1
  B  B2  1  0.41577600  0.41577600  0.75267200  1
  B  B3  1  0.41577600  0.75267200  0.41577600  1
  B  B4  1  0.83422400  0.49732800  0.83422400  1
  B  B5  1  0.83422400  0.83422400  0.49732800  1
  B  B6  1  0.49732800  0.83422400  0.83422400  1
  B  B7  1  0.83422400  0.83422400  0.83422400  1
  S  S0  1  0.25000000  0.25000000  0.25000000  1
  S  S1  1  0.00000000  0.00000000  0.00000000  1
  O  O0  1  0.18751000  0.18751000  0.18751000  1
  O  O1  1  0.18751000  0.18751000  0.43747000  1
  O  O2  1  0.43747000  0.18751000  0.18751000  1
  O  O3  1  0.18751000  0.43747000  0.18751000  1
  O  O4  1  0.44584500  0.25794700  0.53407700  1
  O  O5  1  0.53407700  0.44584500  0.25794700  1
  O  O6  1  0.76213100  0.25794700  0.44584500  1
  O  O7  1  0.25794700  0.53407700  0.44584500  1
  O  O8  1  0.53407700  0.25794700  0.76213100  1
  O  O9  1  0.25794700  0.44584500  0.76213100  1
  O  O10  1  0.76213100  0.53407700  0.25794700  1
  O  O11  1  0.76213100  0.44584500  0.53407700  1
  O  O12  1  0.44584500  0.76213100  0.25794700  1
  O  O13  1  0.44584500  0.53407700  0.76213100  1
  O  O14  1  0.25794700  0.76213100  0.53407700  1
  O  O15  1  0.71592300  0.48786900  0.80415500  1
  O  O16  1  0.53407700  0.76213100  0.44584500  1
  O  O17  1  0.99205300  0.48786900  0.71592300  1
  O  O18  1  0.80415500  0.71592300  0.48786900  1
  O  O19  1  0.80415500  0.48786900  0.99205300  1
  O  O20  1  0.48786900  0.80415500  0.71592300  1
  O  O21  1  0.48786900  0.71592300  0.99205300  1
  O  O22  1  0.99205300  0.80415500  0.48786900  1
  O  O23  1  0.71592300  0.99205300  0.48786900  1
  O  O24  1  0.99205300  0.71592300  0.80415500  1
  O  O25  1  0.48786900  0.99205300  0.80415500  1
  O  O26  1  0.71592300  0.80415500  0.99205300  1
  O  O27  1  0.80415500  0.99205300  0.71592300  1
  O  O28  1  0.06249000  0.81253000  0.06249000  1
  O  O29  1  0.06249000  0.06249000  0.81253000  1
  O  O30  1  0.81253000  0.06249000  0.06249000  1
  O  O31  1  0.06249000  0.06249000  0.06249000  1
loop_
_geom_bond_atom_site_label_1
_geom_bond_atom_site_label_2
_geom_bond_distance
_geom_bond_site_symmetry_2
Na0 O4 2.345996 1_555
Na0 O9 2.345996 1_555
Na0 O29 2.478040 1_555
Na0 O31 2.478040 1_556
Na0 O25 2.481214 1_545
Na0 O17 2.481214 1_455
Na1 O6 2.345996 1_555
Na1 O5 2.345996 1_555
Na1 O30 2.478040 1_555
Na1 O31 2.478040 1_655
Na1 O23 2.481214 1_545
Na1 O19 2.481214 1_554
Na2 O7 2.345996 1_555
Na2 O12 2.345996 1_555
Na2 O28 2.478040 1_555
Na2 O31 2.478040 1_565
Na2 O21 2.481214 1_554
Na2 O22 2.481214 1_455
Na3 O11 2.345996 1_555
Na3 O8 2.345996 1_555
Na3 O29 2.478040 1_655
Na3 O30 2.478040 1_556
Na3 O15 2.481214 1_555
Na3 O27 2.481214 1_545
Na4 O21 2.345996 1_554
Na4 O15 2.345996 1_554
Na4 O2 2.478040 1_555
Na4 O3 2.478040 1_555
Na4 O13 2.481214 1_554
Na4 O5 2.481214 1_555
Na5 O18 2.345996 1_455
Na5 O17 2.345996 1_455
Na5 O3 2.478040 1_555
Na5 O1 2.478040 1_555
Na5 O11 2.481214 1_455
Na5 O7 2.481214 1_555
Na6 O13 2.345996 1_555
Na6 O14 2.345996 1_555
Na6 O29 2.478040 1_565
Na6 O28 2.478040 1_556
Na6 O20 2.481214 1_555
Na6 O24 2.481214 1_455
Na7 O10 2.345996 1_555
Na7 O16 2.345996 1_555
Na7 O30 2.478040 1_565
Na7 O28 2.478040 1_655
Na7 O18 2.481214 1_555
Na7 O26 2.481214 1_554
Na8 O23 2.345996 1_545
Na8 O20 2.345996 1_545
Na8 O1 2.478040 1_555
Na8 O2 2.478040 1_555
Na8 O16 2.481214 1_545
Na8 O4 2.481214 1_555
Na9 O24 2.345996 1_454
Na9 O19 2.345996 1_454
Na9 O0 2.478040 1_555
Na9 O3 2.478040 1_555
Na9 O9 2.481214 1_554
Na9 O10 2.481214 1_455
Na10 O27 2.345996 1_445
Na10 O22 2.345996 1_445
Na10 O0 2.478040 1_555
Na10 O1 2.478040 1_555
Na10 O14 2.481214 1_545
Na10 O6 2.481214 1_455
Na11 O26 2.345996 1_544
Na11 O25 2.345996 1_544
Na11 O0 2.478040 1_555
Na11 O2 2.478040 1_555
Na11 O12 2.481214 1_545
Na11 O8 2.481214 1_554
Co0 O27 1.917360 1_545
Co0 O8 1.917360 1_555
Co0 O25 1.917360 1_545
Co0 O4 1.917360 1_555
Co0 O6 1.917360 1_555
Co0 O23 1.917360 1_545
Co1 O24 1.917360 1_455
Co1 O7 1.917360 1_555
Co1 O14 1.917360 1_555
Co1 O9 1.917360 1_555
Co1 O22 1.917360 1_455
Co1 O17 1.917360 1_455
Co2 O26 1.917360 1_554
Co2 O5 1.917360 1_555
Co2 O12 1.917360 1_555
Co2 O10 1.917360 1_555
Co2 O19 1.917360 1_554
Co2 O21 1.917360 1_554
Co3 O20 1.917360 1_555
Co3 O15 1.917360 1_555
Co3 O18 1.917360 1_555
Co3 O16 1.917360 1_555
Co3 O11 1.917360 1_555
Co3 O13 1.917360 1_555
B0 O5 1.381593 1_555
B0 O7 1.381593 1_555
B0 O4 1.381593 1_555
B1 O6 1.381593 1_555
B1 O10 1.381593 1_555
B1 O11 1.381593 1_555
B2 O9 1.381593 1_555
B2 O8 1.381593 1_555
B2 O13 1.381593 1_555
B3 O12 1.381593 1_555
B3 O14 1.381593 1_555
B3 O16 1.381593 1_555
B4 O17 1.381593 1_555
B4 O15 1.381593 1_555
B4 O19 1.381593 1_555
B5 O22 1.381593 1_555
B5 O23 1.381593 1_555
B5 O18 1.381593 1_555
B6 O25 1.381593 1_555
B6 O21 1.381593 1_555
B6 O20 1.381593 1_555
B7 O27 1.381593 1_555
B7 O24 1.381593 1_555
B7 O26 1.381593 1_555
O0 S0 1.497276 1_555
O1 S0 1.497276 1_555
O2 S0 1.497276 1_555
O3 S0 1.497276 1_555
O28 S1 1.497276 1_565
O29 S1 1.497276 1_556
O30 S1 1.497276 1_655
O31 S1 1.497276 1_555
