# generated using pymatgen
data_Li3Fe(PO4)2
_symmetry_space_group_name_H-M   'P 1'
_cell_length_a   4.88038600
_cell_length_b   9.08468600
_cell_length_c   14.79660778
_cell_angle_alpha   76.36684589
_cell_angle_beta   90.00000000
_cell_angle_gamma   90.00000000
_symmetry_Int_Tables_number   1
_chemical_formula_structural   Li3Fe(PO4)2
_chemical_formula_sum   'Li12 Fe4 P8 O32'
_cell_volume   637.54995776
_cell_formula_units_Z   4
loop_
 _symmetry_equiv_pos_site_id
 _symmetry_equiv_pos_as_xyz
  1  'x, y, z'
loop_
 _atom_site_type_symbol
 _atom_site_label
 _atom_site_symmetry_multiplicity
 _atom_site_fract_x
 _atom_site_fract_y
 _atom_site_fract_z
 _atom_site_occupancy
  Li  Li0  1  0.74637500  0.89202000  0.92350300  1
  Li  Li1  1  0.75362500  0.89202000  0.42350300  1
  Li  Li2  1  0.34719600  0.73371300  0.50918400  1
  Li  Li3  1  0.15280400  0.73371300  0.00918400  1
  Li  Li4  1  0.86413400  0.60023300  0.65437400  1
  Li  Li5  1  0.63586600  0.60023300  0.15437400  1
  Li  Li6  1  0.36413400  0.39976700  0.84562600  1
  Li  Li7  1  0.13586600  0.39976700  0.34562600  1
  Li  Li8  1  0.65280400  0.26628700  0.49081600  1
  Li  Li9  1  0.84719600  0.26628700  0.99081600  1
  Li  Li10  1  0.24637500  0.10798000  0.57649700  1
  Li  Li11  1  0.25362500  0.10798000  0.07649700  1
  Fe  Fe0  1  0.20859800  0.81067400  0.79273800  1
  Fe  Fe1  1  0.29140200  0.81067400  0.29273800  1
  Fe  Fe2  1  0.70859800  0.18932600  0.70726200  1
  Fe  Fe3  1  0.79140200  0.18932600  0.20726200  1
  P  P0  1  0.75044700  0.93249000  0.62760300  1
  P  P1  1  0.74955300  0.93249000  0.12760300  1
  P  P2  1  0.77390000  0.59385300  0.85661600  1
  P  P3  1  0.72610000  0.59385300  0.35661600  1
  P  P4  1  0.27390000  0.40614700  0.64338400  1
  P  P5  1  0.22610000  0.40614700  0.14338400  1
  P  P6  1  0.25044700  0.06751000  0.87239700  1
  P  P7  1  0.24955300  0.06751000  0.37239700  1
  O  O0  1  0.52602100  0.96723700  0.69672100  1
  O  O1  1  0.97397900  0.96723700  0.19672100  1
  O  O2  1  0.35480900  0.90224900  0.91596800  1
  O  O3  1  0.14519100  0.90224900  0.41596800  1
  O  O4  1  0.63786800  0.84871900  0.55793800  1
  O  O5  1  0.86213200  0.84871900  0.05793800  1
  O  O6  1  0.99774700  0.84039800  0.67678500  1
  O  O7  1  0.50225300  0.84039800  0.17678500  1
  O  O8  1  0.50304200  0.67256900  0.81379600  1
  O  O9  1  0.93085700  0.71665700  0.89799600  1
  O  O10  1  0.99695800  0.67256900  0.31379600  1
  O  O11  1  0.56914300  0.71665700  0.39799600  1
  O  O12  1  0.18790600  0.55100400  0.57359800  1
  O  O13  1  0.31209400  0.55100400  0.07359800  1
  O  O14  1  0.97472200  0.56423100  0.78410200  1
  O  O15  1  0.47472200  0.43576900  0.71589800  1
  O  O16  1  0.52527800  0.56423100  0.28410200  1
  O  O17  1  0.02527800  0.43576900  0.21589800  1
  O  O18  1  0.68790600  0.44899600  0.92640200  1
  O  O19  1  0.81209400  0.44899600  0.42640200  1
  O  O20  1  0.43085700  0.28334300  0.60200400  1
  O  O21  1  0.00304200  0.32743100  0.68620400  1
  O  O22  1  0.06914300  0.28334300  0.10200400  1
  O  O23  1  0.49695800  0.32743100  0.18620400  1
  O  O24  1  0.49774700  0.15960200  0.82321500  1
  O  O25  1  0.00225300  0.15960200  0.32321500  1
  O  O26  1  0.13786800  0.15128100  0.94206200  1
  O  O27  1  0.36213200  0.15128100  0.44206200  1
  O  O28  1  0.85480900  0.09775100  0.58403200  1
  O  O29  1  0.64519100  0.09775100  0.08403200  1
  O  O30  1  0.02602100  0.03276300  0.80327900  1
  O  O31  1  0.47397900  0.03276300  0.30327900  1
loop_
_geom_bond_atom_site_label_1
_geom_bond_atom_site_label_2
_geom_bond_distance
_geom_bond_site_symmetry_2
Li0 O2 1.915222 1_555
Li0 O9 1.942815 1_555
Li0 O5 2.015408 1_556
Li0 O30 2.364263 1_665
Li1 O3 1.915222 1_655
Li1 O11 1.942815 1_555
Li1 O4 2.015408 1_555
Li1 O31 2.364263 1_565
Li2 O12 1.876725 1_555
Li2 O4 1.994921 1_555
Li2 O11 2.006035 1_555
Li2 O3 2.055011 1_555
Li3 O13 1.876725 1_555
Li3 O5 1.994921 1_455
Li3 O9 2.006035 1_454
Li3 O2 2.055011 1_554
Li4 O14 1.946000 1_555
Li4 O12 2.092211 1_655
Li4 O6 2.374152 1_555
Li4 O15 2.455955 1_555
Li4 O21 2.504642 1_655
Li4 O4 2.613994 1_555
Li5 O16 1.946000 1_555
Li5 O13 2.092211 1_555
Li5 O7 2.374152 1_555
Li5 O17 2.455955 1_655
Li5 O23 2.504642 1_555
Li5 O5 2.613994 1_555
Li6 O15 1.946000 1_555
Li6 O18 2.092211 1_555
Li6 O24 2.374152 1_555
Li6 O14 2.455955 1_455
Li6 O8 2.504642 1_555
Li6 O26 2.613994 1_555
Li7 O17 1.946000 1_555
Li7 O19 2.092211 1_455
Li7 O25 2.374152 1_555
Li7 O16 2.455955 1_555
Li7 O10 2.504642 1_455
Li7 O27 2.613994 1_555
Li8 O19 1.876725 1_555
Li8 O27 1.994921 1_555
Li8 O20 2.006035 1_555
Li8 O28 2.055011 1_555
Li9 O18 1.876725 1_555
Li9 O26 1.994921 1_655
Li9 O22 2.006035 1_656
Li9 O29 2.055011 1_556
Li10 O28 1.915222 1_455
Li10 O20 1.942815 1_555
Li10 O27 2.015408 1_555
Li10 O0 2.364263 1_545
Li11 O29 1.915222 1_555
Li11 O22 1.942815 1_555
Li11 O26 2.015408 1_554
Li11 O1 2.364263 1_445
Fe0 O8 1.884646 1_555
Fe0 O6 1.963948 1_455
Fe0 O9 2.089364 1_455
Fe0 O30 2.244411 1_565
Fe0 O2 2.289348 1_555
Fe0 O0 2.342805 1_555
Fe0 O14 2.542928 1_455
Fe1 O10 1.884646 1_455
Fe1 O7 1.963948 1_555
Fe1 O11 2.089364 1_555
Fe1 O31 2.244411 1_565
Fe1 O3 2.289348 1_555
Fe1 O1 2.342805 1_455
Fe1 O16 2.542928 1_555
Fe2 O21 1.884646 1_655
Fe2 O24 1.963948 1_555
Fe2 O20 2.089364 1_555
Fe2 O0 2.244411 1_545
Fe2 O28 2.289348 1_555
Fe2 O30 2.342805 1_655
Fe2 O15 2.542928 1_555
Fe3 O23 1.884646 1_555
Fe3 O25 1.963948 1_655
Fe3 O22 2.089364 1_655
Fe3 O1 2.244411 1_545
Fe3 O29 2.289348 1_555
Fe3 O31 2.342805 1_555
Fe3 O17 2.542928 1_655
O0 P0 1.580323 1_555
O1 P1 1.580323 1_555
O2 P6 1.572515 1_565
O3 P7 1.572515 1_565
O4 P0 1.520991 1_555
O5 P1 1.520991 1_555
O6 P0 1.548927 1_555
O7 P1 1.548927 1_555
O8 P2 1.564170 1_555
O9 P2 1.590069 1_555
O10 P3 1.564170 1_555
O11 P3 1.590069 1_555
O12 P4 1.527615 1_555
O13 P5 1.527615 1_555
O14 P2 1.523271 1_555
O15 P4 1.523271 1_555
O16 P3 1.523271 1_555
O17 P5 1.523271 1_555
O18 P2 1.527615 1_555
O19 P3 1.527615 1_555
O20 P4 1.590069 1_555
O21 P4 1.564170 1_555
O22 P5 1.590069 1_555
O23 P5 1.564170 1_555
O24 P6 1.548927 1_555
O25 P7 1.548927 1_555
O26 P6 1.520991 1_555
O27 P7 1.520991 1_555
O28 P0 1.572515 1_545
O29 P1 1.572515 1_545
O30 P6 1.580323 1_555
O31 P7 1.580323 1_555
