# generated using pymatgen
data_Mn2Si(H2O3)2
_symmetry_space_group_name_H-M   'P 1'
_cell_length_a   5.41219600
_cell_length_b   7.30311100
_cell_length_c   12.88743600
_cell_angle_alpha   90.00000000
_cell_angle_beta   90.00000000
_cell_angle_gamma   90.00000000
_symmetry_Int_Tables_number   1
_chemical_formula_structural   Mn2Si(H2O3)2
_chemical_formula_sum   'Mn8 Si4 H16 O24'
_cell_volume   509.38709602
_cell_formula_units_Z   4
loop_
 _symmetry_equiv_pos_site_id
 _symmetry_equiv_pos_as_xyz
  1  'x, y, z'
loop_
 _atom_site_type_symbol
 _atom_site_label
 _atom_site_symmetry_multiplicity
 _atom_site_fract_x
 _atom_site_fract_y
 _atom_site_fract_z
 _atom_site_occupancy
  Mn  Mn0  1  0.99978700  0.17624800  0.68789900  1
  Mn  Mn1  1  0.49978700  0.82375200  0.31210100  1
  Mn  Mn2  1  0.49978700  0.17624800  0.81210100  1
  Mn  Mn3  1  0.99978700  0.82375200  0.18789900  1
  Mn  Mn4  1  0.97872100  0.83047600  0.45893400  1
  Mn  Mn5  1  0.47872100  0.16952400  0.54106600  1
  Mn  Mn6  1  0.47872100  0.83047600  0.04106600  1
  Mn  Mn7  1  0.97872100  0.16952400  0.95893400  1
  Si  Si0  1  0.18535500  0.21512300  0.31414000  1
  Si  Si1  1  0.68535500  0.78487700  0.68586000  1
  Si  Si2  1  0.68535500  0.21512300  0.18586000  1
  Si  Si3  1  0.18535500  0.78487700  0.81414000  1
  H  H0  1  0.74928200  0.11027000  0.38148500  1
  H  H1  1  0.24928200  0.88973000  0.61851500  1
  H  H2  1  0.24928200  0.11027000  0.11851500  1
  H  H3  1  0.74928200  0.88973000  0.88148500  1
  H  H4  1  0.35190600  0.54846600  0.18321200  1
  H  H5  1  0.85190600  0.45153400  0.81678800  1
  H  H6  1  0.85190600  0.54846600  0.31678800  1
  H  H7  1  0.35190600  0.45153400  0.68321200  1
  H  H8  1  0.29895000  0.52018300  0.43484000  1
  H  H9  1  0.79895000  0.47981700  0.56516000  1
  H  H10  1  0.79895000  0.52018300  0.06516000  1
  H  H11  1  0.29895000  0.47981700  0.93484000  1
  H  H12  1  0.47239300  0.66555500  0.49973400  1
  H  H13  1  0.97239300  0.33444500  0.50026600  1
  H  H14  1  0.97239300  0.66555500  0.00026600  1
  H  H15  1  0.47239300  0.33444500  0.99973400  1
  O  O0  1  0.17348400  0.99209400  0.31783500  1
  O  O1  1  0.67348400  0.00790600  0.68216500  1
  O  O2  1  0.67348400  0.99209400  0.18216500  1
  O  O3  1  0.17348400  0.00790600  0.81783500  1
  O  O4  1  0.67411500  0.01653600  0.42542200  1
  O  O5  1  0.17411600  0.98346400  0.57457800  1
  O  O6  1  0.17411600  0.01653600  0.07457800  1
  O  O7  1  0.67411500  0.98346400  0.92542200  1
  O  O8  1  0.34719000  0.68198900  0.17735700  1
  O  O9  1  0.84719000  0.31801100  0.82264300  1
  O  O10  1  0.84719000  0.68198900  0.32264300  1
  O  O11  1  0.34719000  0.31801100  0.67735700  1
  O  O12  1  0.33461600  0.65691500  0.44671600  1
  O  O13  1  0.83461600  0.34308500  0.55328400  1
  O  O14  1  0.83461600  0.65691500  0.05328400  1
  O  O15  1  0.33461600  0.34308500  0.94671600  1
  O  O16  1  0.22769100  0.31189700  0.42638300  1
  O  O17  1  0.72769100  0.68810300  0.57361700  1
  O  O18  1  0.72769100  0.31189700  0.07361700  1
  O  O19  1  0.22769100  0.68810300  0.92638300  1
  O  O20  1  0.90831100  0.28519000  0.26814100  1
  O  O21  1  0.40831100  0.71481000  0.73185900  1
  O  O22  1  0.40831100  0.28519000  0.23185900  1
  O  O23  1  0.90831100  0.71481000  0.76814100  1
loop_
_geom_bond_atom_site_label_1
_geom_bond_atom_site_label_2
_geom_bond_distance
_geom_bond_site_symmetry_2
Mn0 O11 2.150704 1_655
Mn0 O1 2.153078 1_555
Mn0 O9 2.183896 1_555
Mn0 O5 2.237244 1_645
Mn0 O3 2.280202 1_655
Mn0 O13 2.300733 1_555
Mn1 O10 2.150704 1_555
Mn1 O0 2.153078 1_555
Mn1 O8 2.183896 1_555
Mn1 O4 2.237242 1_565
Mn1 O2 2.280202 1_555
Mn1 O12 2.300733 1_555
Mn2 O9 2.150704 1_555
Mn2 O3 2.153078 1_555
Mn2 O11 2.183896 1_555
Mn2 O7 2.237242 1_545
Mn2 O1 2.280202 1_555
Mn2 O15 2.300733 1_555
Mn3 O8 2.150704 1_655
Mn3 O2 2.153078 1_555
Mn3 O10 2.183896 1_555
Mn3 O6 2.237244 1_665
Mn3 O0 2.280202 1_655
Mn3 O14 2.300733 1_555
Mn4 O5 2.141922 1_655
Mn4 O4 2.179621 1_565
Mn4 O10 2.183531 1_555
Mn4 O17 2.260833 1_555
Mn4 O12 2.311187 1_655
Mn4 O0 2.410571 1_655
Mn5 O4 2.141919 1_555
Mn5 O5 2.179617 1_545
Mn5 O11 2.183531 1_555
Mn5 O16 2.260833 1_555
Mn5 O13 2.311187 1_555
Mn5 O1 2.410571 1_555
Mn6 O7 2.141919 1_554
Mn6 O6 2.179617 1_565
Mn6 O8 2.183531 1_555
Mn6 O19 2.260833 1_554
Mn6 O14 2.311187 1_555
Mn6 O2 2.410571 1_555
Mn7 O6 2.141922 1_656
Mn7 O7 2.179621 1_545
Mn7 O9 2.183531 1_555
Mn7 O18 2.260833 1_556
Mn7 O15 2.311187 1_655
Mn7 O3 2.410571 1_655
H0 O4 0.977104 1_555
H1 O5 0.977102 1_555
H2 O6 0.977102 1_555
H3 O7 0.977104 1_555
H4 O8 0.978381 1_555
H5 O9 0.978381 1_555
H6 O10 0.978381 1_555
H7 O11 0.978381 1_555
H8 O12 1.028507 1_555
H8 O16 1.573046 1_555
H9 O13 1.028507 1_555
H9 O17 1.573046 1_555
H10 O14 1.028507 1_555
H10 O18 1.573046 1_555
H11 O15 1.028507 1_555
H11 O19 1.573046 1_555
H12 O12 1.013344 1_555
H12 O17 1.686086 1_555
H13 O13 1.013344 1_555
H13 O16 1.686086 1_655
H14 O14 1.013344 1_555
H14 O19 1.686086 1_654
H15 O15 1.013344 1_555
H15 O18 1.686086 1_556
O0 Si0 1.630768 1_565
O1 Si1 1.630768 1_545
O2 Si2 1.630768 1_565
O3 Si3 1.630768 1_545
O16 Si0 1.626171 1_555
O17 Si1 1.626171 1_555
O18 Si2 1.626171 1_555
O19 Si3 1.626171 1_555
O20 Si2 1.685928 1_555
O20 Si0 1.691602 1_655
O21 Si3 1.685928 1_555
O21 Si1 1.691602 1_555
O22 Si0 1.685928 1_555
O22 Si2 1.691602 1_555
O23 Si1 1.685928 1_555
O23 Si3 1.691602 1_655
