# generated using pymatgen
data_Li7Mn8(BO3)8
_symmetry_space_group_name_H-M   'P 1'
_cell_length_a   5.19167977
_cell_length_b   9.02484220
_cell_length_c   11.19998135
_cell_angle_alpha   111.76848112
_cell_angle_beta   102.78585076
_cell_angle_gamma   89.21406038
_symmetry_Int_Tables_number   1
_chemical_formula_structural   Li7Mn8(BO3)8
_chemical_formula_sum   'Li7 Mn8 B8 O24'
_cell_volume   473.90412047
_cell_formula_units_Z   1
loop_
 _symmetry_equiv_pos_site_id
 _symmetry_equiv_pos_as_xyz
  1  'x, y, z'
loop_
 _atom_site_type_symbol
 _atom_site_label
 _atom_site_symmetry_multiplicity
 _atom_site_fract_x
 _atom_site_fract_y
 _atom_site_fract_z
 _atom_site_occupancy
  Li  Li0  1  0.97005955  0.96787327  0.09159782  1
  Li  Li1  1  0.72799372  0.75674661  0.33600022  1
  Li  Li2  1  0.46933517  0.45880825  0.06791577  1
  Li  Li3  1  0.70796072  0.71317839  0.58722488  1
  Li  Li4  1  0.24634910  0.26598772  0.35440522  1
  Li  Li5  1  0.20799950  0.21339034  0.59673902  1
  Li  Li6  1  0.02462660  0.99554130  0.84058130  1
  Mn  Mn0  1  0.75057141  0.43637302  0.36596074  1
  Mn  Mn1  1  0.72901867  0.05730093  0.62105351  1
  Mn  Mn2  1  0.47033280  0.14571564  0.11666982  1
  Mn  Mn3  1  0.53003507  0.83656650  0.86888274  1
  Mn  Mn4  1  0.25818698  0.93867716  0.37242281  1
  Mn  Mn5  1  0.98329783  0.64669485  0.12190385  1
  Mn  Mn6  1  0.22912969  0.55075264  0.62428722  1
  Mn  Mn7  1  0.01045993  0.35093042  0.86450426  1
  B  B0  1  0.97055926  0.31619080  0.12542034  1
  B  B1  1  0.76482678  0.10676527  0.37393050  1
  B  B2  1  0.47608781  0.81240868  0.12522589  1
  B  B3  1  0.71907993  0.38607119  0.61456994  1
  B  B4  1  0.52308563  0.18040639  0.87186546  1
  B  B5  1  0.26124627  0.60863688  0.37315581  1
  B  B6  1  0.23645653  0.88906968  0.62895973  1
  B  B7  1  0.04166267  0.69737285  0.88427918  1
  O  O0  1  0.98042555  0.88441634  0.64167087  1
  O  O1  1  0.72226916  0.34787356  0.15332382  1
  O  O2  1  0.89506224  0.28730945  0.65772926  1
  O  O3  1  0.58898672  0.91253137  0.07916746  1
  O  O4  1  0.60304264  0.68468189  0.14103139  1
  O  O5  1  0.82135835  0.50423747  0.58230497  1
  O  O6  1  0.94590015  0.58967017  0.92928524  1
  O  O7  1  0.92792915  0.83983777  0.89941429  1
  O  O8  1  0.66466469  0.98686786  0.40554617  1
  O  O9  1  0.59482269  0.20527432  0.32998067  1
  O  O10  1  0.76525976  0.15073288  0.83548873  1
  O  O11  1  0.52921909  0.63350576  0.39122678  1
  O  O12  1  0.45537645  0.36272228  0.60132159  1
  O  O13  1  0.23189782  0.84495984  0.15886109  1
  O  O14  1  0.41140018  0.78359241  0.66146764  1
  O  O15  1  0.32430496  0.99884555  0.58390177  1
  O  O16  1  0.09283454  0.41918391  0.08419000  1
  O  O17  1  0.09288281  0.18716148  0.14099864  1
  O  O18  1  0.40355592  0.31686906  0.87967557  1
  O  O19  1  0.40601749  0.06576390  0.90465566  1
  O  O20  1  0.15720363  0.49286658  0.40584817  1
  O  O21  1  0.08884791  0.70519312  0.32436866  1
  O  O22  1  0.25575548  0.66109349  0.82885940  1
  O  O23  1  0.03225200  0.12759778  0.38909715  1
loop_
_geom_bond_atom_site_label_1
_geom_bond_atom_site_label_2
_geom_bond_distance
_geom_bond_site_symmetry_2
Li0 O17 1.922405 1_665
Li0 O13 1.941937 1_655
Li0 O7 1.992451 1_554
Li0 O3 2.009118 1_555
Li1 O11 1.873204 1_555
Li1 O21 1.944832 1_655
Li1 O8 1.980586 1_555
Li1 O4 1.985784 1_555
Li2 O1 1.939076 1_555
Li2 O4 1.963901 1_555
Li2 O18 1.972968 1_554
Li2 O16 2.051111 1_555
Li3 O14 1.900960 1_555
Li3 O0 1.933974 1_555
Li3 O5 1.952480 1_555
Li3 O11 2.035406 1_555
Li4 O23 1.880293 1_555
Li4 O9 1.931014 1_555
Li4 O20 1.988874 1_555
Li4 O17 2.182933 1_555
Li4 O12 2.548438 1_555
Li5 O12 1.853472 1_555
Li5 O2 1.916946 1_455
Li5 O15 1.983466 1_545
Li5 O23 2.141260 1_555
Li6 O7 1.874391 1_455
Li6 O10 1.936902 1_465
Li6 O19 1.976215 1_565
Li6 O0 2.035776 1_455
Mn0 O11 2.068893 1_555
Mn0 O20 2.087925 1_655
Mn0 O9 2.108253 1_555
Mn0 O1 2.183734 1_555
Mn0 O5 2.211935 1_555
Mn1 O0 2.066226 1_545
Mn1 O15 2.084916 1_545
Mn1 O2 2.116762 1_555
Mn1 O10 2.194702 1_555
Mn1 O8 2.202824 1_545
Mn2 O17 2.048125 1_555
Mn2 O3 2.099512 1_545
Mn2 O1 2.116646 1_555
Mn2 O19 2.157657 1_554
Mn2 O9 2.188138 1_555
Mn3 O22 1.997320 1_555
Mn3 O7 2.016583 1_555
Mn3 O19 2.077643 1_565
Mn3 O14 2.134358 1_555
Mn3 O3 2.144686 1_556
Mn4 O23 2.030675 1_565
Mn4 O8 2.083061 1_555
Mn4 O21 2.122006 1_555
Mn4 O15 2.171189 1_555
Mn4 O13 2.193917 1_555
Mn5 O6 1.987578 1_554
Mn5 O16 2.036827 1_655
Mn5 O4 2.043256 1_555
Mn5 O21 2.071477 1_655
Mn5 O13 2.077571 1_655
Mn6 O12 2.020091 1_555
Mn6 O5 2.077611 1_455
Mn6 O22 2.105150 1_555
Mn6 O14 2.171547 1_555
Mn6 O20 2.247398 1_555
Mn7 O18 2.038723 1_555
Mn7 O6 2.051670 1_455
Mn7 O10 2.105940 1_455
Mn7 O2 2.112096 1_455
Mn7 O16 2.243571 1_556
B0 O17 1.367883 1_655
B0 O1 1.393906 1_555
B0 O16 1.394450 1_655
B1 O23 1.367810 1_655
B1 O9 1.386516 1_555
B1 O8 1.395622 1_545
B2 O4 1.368713 1_555
B2 O3 1.385721 1_555
B2 O13 1.398036 1_555
B3 O12 1.354830 1_555
B3 O5 1.391447 1_555
B3 O2 1.401636 1_555
B4 O18 1.353746 1_555
B4 O10 1.398231 1_555
B4 O19 1.404494 1_555
B5 O11 1.370072 1_555
B5 O20 1.379941 1_555
B5 O21 1.405102 1_555
B6 O0 1.370624 1_455
B6 O15 1.388986 1_555
B6 O14 1.396640 1_555
B7 O22 1.368411 1_555
B7 O7 1.375606 1_455
B7 O6 1.390549 1_455
