# generated using pymatgen
data_Ba14Ir8(PdO11)3
_symmetry_space_group_name_H-M   'P 1'
_cell_length_a   10.28328038
_cell_length_b   10.27262313
_cell_length_c   30.58291619
_cell_angle_alpha   90.00000001
_cell_angle_beta   89.97850105
_cell_angle_gamma   119.96572156
_symmetry_Int_Tables_number   1
_chemical_formula_structural   Ba14Ir8(PdO11)3
_chemical_formula_sum   'Ba42 Ir24 Pd9 O99'
_cell_volume   2798.80360997
_cell_formula_units_Z   3
loop_
 _symmetry_equiv_pos_site_id
 _symmetry_equiv_pos_as_xyz
  1  'x, y, z'
loop_
 _atom_site_type_symbol
 _atom_site_label
 _atom_site_symmetry_multiplicity
 _atom_site_fract_x
 _atom_site_fract_y
 _atom_site_fract_z
 _atom_site_occupancy
  Ba  Ba0  1  0.65689288  0.00698030  0.00015731  1
  Ba  Ba1  1  0.34310712  0.35008742  0.99984269  1
  Ba  Ba2  1  0.00000000  0.63778611  0.00000000  1
  Ba  Ba3  1  0.33399525  0.02472759  0.92947231  1
  Ba  Ba4  1  0.68908892  0.66600482  0.92946749  1
  Ba  Ba5  1  0.98929602  0.32044991  0.93077673  1
  Ba  Ba6  1  0.66600475  0.69073234  0.07052769  1
  Ba  Ba7  1  0.01070398  0.33115389  0.06922327  1
  Ba  Ba8  1  0.31091108  0.97691590  0.07053251  1
  Ba  Ba9  1  0.32631510  0.33019055  0.85783165  1
  Ba  Ba10  1  0.99503938  0.66195266  0.85438671  1
  Ba  Ba11  1  0.67082940  0.99912585  0.85802526  1
  Ba  Ba12  1  0.67368490  0.00387545  0.14216835  1
  Ba  Ba13  1  0.32917060  0.32829645  0.14197474  1
  Ba  Ba14  1  0.00496062  0.66691328  0.14561329  1
  Ba  Ba15  1  0.67598628  0.66966906  0.78139739  1
  Ba  Ba16  1  0.00512182  0.33837443  0.78798041  1
  Ba  Ba17  1  0.33274087  0.00131963  0.78408172  1
  Ba  Ba18  1  0.32401372  0.99368279  0.21860261  1
  Ba  Ba19  1  0.66725913  0.66857876  0.21591828  1
  Ba  Ba20  1  0.99487818  0.33325261  0.21201959  1
  Ba  Ba21  1  0.31203461  0.33504576  0.71113398  1
  Ba  Ba22  1  0.00701689  0.67720266  0.71016198  1
  Ba  Ba23  1  0.66730603  0.97629006  0.71123558  1
  Ba  Ba24  1  0.68796539  0.02301115  0.28886602  1
  Ba  Ba25  1  0.33269397  0.30898403  0.28876442  1
  Ba  Ba26  1  0.99298311  0.67018577  0.28983802  1
  Ba  Ba27  1  0.35554777  0.99836981  0.64049801  1
  Ba  Ba28  1  0.65782314  0.65395568  0.64080196  1
  Ba  Ba29  1  0.99777631  0.36033705  0.64093914  1
  Ba  Ba30  1  0.64445223  0.64282204  0.35950199  1
  Ba  Ba31  1  0.00222369  0.36256074  0.35906086  1
  Ba  Ba32  1  0.34217686  0.99613254  0.35919804  1
  Ba  Ba33  1  0.33695131  0.31223794  0.57021058  1
  Ba  Ba34  1  0.98285927  0.66709423  0.56992162  1
  Ba  Ba35  1  0.68116056  0.01164800  0.57060523  1
  Ba  Ba36  1  0.66304869  0.97528664  0.42978942  1
  Ba  Ba37  1  0.31883944  0.33048744  0.42939477  1
  Ba  Ba38  1  0.01714073  0.68423496  0.43007838  1
  Ba  Ba39  1  0.66844546  0.66731428  0.50181158  1
  Ba  Ba40  1  1.00000000  0.33719354  0.50000000  1
  Ba  Ba41  1  0.33155454  0.99886882  0.49818842  1
  Ir  Ir0  1  0.66220406  0.33219455  0.88942238  1
  Ir  Ir1  1  0.33779594  0.66999049  0.11057762  1
  Ir  Ir2  1  0.67239305  0.33784174  0.61209378  1
  Ir  Ir3  1  0.32760695  0.66544869  0.38790622  1
  Ir  Ir4  1  0.98926949  0.99470984  0.54432539  1
  Ir  Ir5  1  0.01073051  0.00544035  0.45567461  1
  Ir  Ir6  1  0.66570732  0.33115009  0.52394879  1
  Ir  Ir7  1  0.33429268  0.66544277  0.47605121  1
  Ir  Ir8  1  0.33399349  0.66960973  0.66862413  1
  Ir  Ir9  1  0.66600651  0.33561624  0.33137587  1
  Ir  Ir10  1  0.00008051  0.99943702  0.90332017  1
  Ir  Ir11  1  0.99991949  0.99935651  0.09667983  1
  Ir  Ir12  1  0.00217069  0.00036384  0.81910168  1
  Ir  Ir13  1  0.99782931  0.99819315  0.18089832  1
  Ir  Ir14  1  0.67021132  0.33205122  0.97290761  1
  Ir  Ir15  1  0.32978868  0.66183989  0.02709239  1
  Ir  Ir16  1  0.32763082  0.66094203  0.83705500  1
  Ir  Ir17  1  0.67236918  0.33331120  0.16294500  1
  Ir  Ir18  1  0.99468718  0.99297018  0.73556288  1
  Ir  Ir19  1  0.00531282  0.99828300  0.26443712  1
  Ir  Ir20  1  0.67130530  0.33900851  0.80384393  1
  Ir  Ir21  1  0.32869470  0.66770320  0.19615607  1
  Ir  Ir22  1  0.33457859  0.66727133  0.75262583  1
  Ir  Ir23  1  0.66542141  0.33269273  0.24737417  1
  Pd  Pd0  1  0.00000000  0.97885140  1.00000000  1
  Pd  Pd1  1  0.40499398  0.74042354  0.93240154  1
  Pd  Pd2  1  0.59500602  0.33542956  0.06759846  1
  Pd  Pd3  1  0.59870241  0.26398021  0.70800273  1
  Pd  Pd4  1  0.40129759  0.66527781  0.29199727  1
  Pd  Pd5  1  0.06418372  0.06660336  0.64019506  1
  Pd  Pd6  1  0.93581628  0.00241964  0.35980494  1
  Pd  Pd7  1  0.66619576  0.31378964  0.42749011  1
  Pd  Pd8  1  0.33380424  0.64759388  0.57250989  1
  O  O0  1  0.32687769  0.81487141  0.98481932  1
  O  O1  1  0.49116463  0.67623192  0.98512315  1
  O  O2  1  0.16962448  0.48964910  0.99376601  1
  O  O3  1  0.67312231  0.48799372  0.01518068  1
  O  O4  1  0.83037552  0.32002462  0.00623399  1
  O  O5  1  0.50883537  0.18506728  0.01487685  1
  O  O6  1  0.81467402  0.32510990  0.84872098  1
  O  O7  1  0.50509197  0.17935046  0.84775315  1
  O  O8  1  0.66834203  0.49170179  0.84832630  1
  O  O9  1  0.18532598  0.51043588  0.15127902  1
  O  O10  1  0.33165797  0.82335975  0.15167370  1
  O  O11  1  0.49490803  0.67425850  0.15224685  1
  O  O12  1  0.99308126  0.14425682  0.69272018  1
  O  O13  1  0.14959013  0.00244550  0.69265767  1
  O  O14  1  0.82871645  0.81943293  0.70391977  1
  O  O15  1  0.00691874  0.15117556  0.30727982  1
  O  O16  1  0.17128355  0.99071648  0.29608023  1
  O  O17  1  0.85040987  0.85285537  0.30734233  1
  O  O18  1  0.67703383  0.18950556  0.65578968  1
  O  O19  1  0.51409952  0.32650938  0.65450601  1
  O  O20  1  0.83325461  0.51139925  0.64522416  1
  O  O21  1  0.32296617  0.51247172  0.34421032  1
  O  O22  1  0.16674539  0.67814463  0.35477584  1
  O  O23  1  0.48590048  0.81240986  0.34549399  1
  O  O24  1  0.49794067  0.82416841  0.63128557  1
  O  O25  1  0.32464994  0.51284435  0.62756642  1
  O  O26  1  0.18608666  0.68312902  0.62961701  1
  O  O27  1  0.50205933  0.32622773  0.36871443  1
  O  O28  1  0.81391334  0.49704235  0.37038299  1
  O  O29  1  0.67535006  0.18819441  0.37243358  1
  O  O30  1  0.82980384  0.34149242  0.56738800  1
  O  O31  1  0.51169089  0.16757548  0.56834668  1
  O  O32  1  0.65700769  0.48174882  0.56727369  1
  O  O33  1  0.17019616  0.51168858  0.43261200  1
  O  O34  1  0.34299231  0.82474113  0.43272631  1
  O  O35  1  0.48830911  0.65588459  0.43165332  1
  O  O36  1  0.99851908  0.15147606  0.58758475  1
  O  O37  1  0.14068122  0.99484501  0.58710146  1
  O  O38  1  0.81696720  0.82895679  0.57571703  1
  O  O39  1  0.00148092  0.15295698  0.41241525  1
  O  O40  1  0.18303280  0.01198959  0.42428297  1
  O  O41  1  0.85931878  0.85416378  0.41289854  1
  O  O42  1  0.32869360  0.51504156  0.51754169  1
  O  O43  1  0.18090662  0.67202337  0.51310714  1
  O  O44  1  0.48956613  0.81984993  0.51429093  1
  O  O45  1  0.67130640  0.18634797  0.48245831  1
  O  O46  1  0.51043387  0.33028380  0.48570907  1
  O  O47  1  0.81909338  0.49111675  0.48689286  1
  O  O48  1  0.00000000  0.84944760  0.50000000  1
  O  O49  1  0.84923983  0.00398668  0.49758632  1
  O  O50  1  0.15076017  0.15474686  0.50241368  1
  O  O51  1  0.84194755  0.99239467  0.94157317  1
  O  O52  1  0.15100240  0.15913034  0.94178071  1
  O  O53  1  0.00785634  0.85243263  0.94462964  1
  O  O54  1  0.15805245  0.15044712  0.05842683  1
  O  O55  1  0.99214366  0.84457629  0.05537036  1
  O  O56  1  0.84899760  0.00812794  0.05821929  1
  O  O57  1  0.99552940  0.15385405  0.86008743  1
  O  O58  1  0.16204760  0.00322794  0.85961563  1
  O  O59  1  0.84310431  0.83983347  0.85944489  1
  O  O60  1  0.00447060  0.15832465  0.13991257  1
  O  O61  1  0.15689569  0.99672916  0.14055511  1
  O  O62  1  0.83795240  0.84118034  0.14038437  1
  O  O63  1  0.83132553  0.48851665  0.92913769  1
  O  O64  1  0.65822487  0.16912368  0.92916726  1
  O  O65  1  0.50834275  0.34412404  0.93062294  1
  O  O66  1  0.16867447  0.65719113  0.07086231  1
  O  O67  1  0.49165725  0.83578129  0.06937706  1
  O  O68  1  0.34177513  0.51089881  0.07083274  1
  O  O69  1  0.33255981  0.81386804  0.87983568  1
  O  O70  1  0.47841623  0.66608129  0.88017158  1
  O  O71  1  0.15994652  0.49516365  0.86788499  1
  O  O72  1  0.66744019  0.48130822  0.12016432  1
  O  O73  1  0.84005348  0.33521713  0.13211501  1
  O  O74  1  0.52158377  0.18766505  0.11982842  1
  O  O75  1  0.84055119  0.99736552  0.77948470  1
  O  O76  1  0.15961508  0.15972436  0.77806374  1
  O  O77  1  0.00622287  0.84386710  0.77916864  1
  O  O78  1  0.15944881  0.15681433  0.22051530  1
  O  O79  1  0.99377713  0.83764423  0.22083136  1
  O  O80  1  0.84038492  0.00010928  0.22193626  1
  O  O81  1  0.66390980  0.18628772  0.76133693  1
  O  O82  1  0.52419971  0.33783648  0.75991545  1
  O  O83  1  0.83864715  0.49926531  0.77204749  1
  O  O84  1  0.33609020  0.52237792  0.23866307  1
  O  O85  1  0.16135285  0.66061816  0.22795251  1
  O  O86  1  0.47580029  0.81363677  0.24008455  1
  O  O87  1  0.49068302  0.82317885  0.79427529  1
  O  O88  1  0.32929182  0.50593027  0.79294103  1
  O  O89  1  0.18223274  0.67396237  0.79336396  1
  O  O90  1  0.50931698  0.33249583  0.20572471  1
  O  O91  1  0.81776726  0.49172963  0.20663604  1
  O  O92  1  0.67070818  0.17663844  0.20705897  1
  O  O93  1  0.34144148  0.83115985  0.71211733  1
  O  O94  1  0.48727636  0.65623522  0.71144540  1
  O  O95  1  0.16850312  0.51091649  0.71176967  1
  O  O96  1  0.65855852  0.48971837  0.28788267  1
  O  O97  1  0.83149688  0.34241337  0.28823033  1
  O  O98  1  0.51272364  0.16895886  0.28855460  1
loop_
_geom_bond_atom_site_label_1
_geom_bond_atom_site_label_2
_geom_bond_distance
_geom_bond_site_symmetry_2
Ba0 O56 2.652377 1_555
Ba0 O51 2.671350 1_544
Ba0 O64 2.732275 1_554
Ba0 O67 2.733795 1_545
Ba0 O4 2.797802 1_555
Ba0 O5 2.940988 1_555
Ba0 O1 2.979272 1_544
Ba0 O0 2.990366 1_544
Ba1 O52 2.652377 1_555
Ba1 O54 2.671350 1_556
Ba1 O68 2.732275 1_556
Ba1 O65 2.733795 1_555
Ba1 O2 2.797802 1_555
Ba1 O1 2.940988 1_555
Ba1 O5 2.979272 1_556
Ba1 O3 2.990366 1_556
Ba2 O66 2.720733 1_555
Ba2 O63 2.720733 1_454
Ba2 O55 2.749178 1_455
Ba2 O53 2.749178 1_554
Ba2 O2 2.836556 1_554
Ba2 O4 2.836556 1_455
Ba2 O3 2.951950 1_455
Ba2 O0 2.951950 1_554
Ba3 O69 2.639057 1_545
Ba3 O58 2.711508 1_555
Ba3 O0 2.712958 1_545
Ba3 O65 2.846841 1_555
Ba3 O52 2.860745 1_555
Ba3 O64 2.894191 1_555
Ba3 O53 2.943534 1_545
Ba3 O7 3.011572 1_555
Ba3 O5 3.132547 1_556
Ba4 O70 2.640145 1_555
Ba4 O1 2.694758 1_555
Ba4 O59 2.730435 1_555
Ba4 O63 2.850935 1_555
Ba4 O65 2.872239 1_555
Ba4 O53 2.890977 1_655
Ba4 O51 2.930060 1_555
Ba4 O8 3.004727 1_555
Ba4 O3 3.153118 1_556
Ba5 O71 2.617515 1_655
Ba5 O2 2.636977 1_655
Ba5 O57 2.777795 1_555
Ba5 O4 2.825993 1_556
Ba5 O52 2.894454 1_655
Ba5 O63 2.902391 1_555
Ba5 O51 2.942851 1_545
Ba5 O64 2.953440 1_555
Ba5 O6 3.100588 1_555
Ba6 O72 2.639057 1_555
Ba6 O62 2.711508 1_555
Ba6 O3 2.712958 1_555
Ba6 O67 2.846841 1_555
Ba6 O56 2.860745 1_565
Ba6 O68 2.894191 1_555
Ba6 O55 2.943534 1_555
Ba6 O11 3.011572 1_555
Ba6 O1 3.132547 1_554
Ba7 O73 2.617515 1_455
Ba7 O4 2.636977 1_455
Ba7 O60 2.777795 1_555
Ba7 O2 2.825993 1_554
Ba7 O56 2.894454 1_455
Ba7 O66 2.902391 1_555
Ba7 O54 2.942851 1_555
Ba7 O68 2.953440 1_555
Ba7 O9 3.100588 1_555
Ba8 O74 2.640145 1_565
Ba8 O5 2.694758 1_565
Ba8 O61 2.730435 1_555
Ba8 O66 2.850935 1_555
Ba8 O67 2.872239 1_555
Ba8 O55 2.890977 1_455
Ba8 O54 2.930060 1_565
Ba8 O10 3.004727 1_555
Ba8 O0 3.153118 1_554
Ba9 O88 2.672684 1_555
Ba9 O65 2.866285 1_555
Ba9 O58 2.910301 1_555
Ba9 O57 2.949777 1_455
Ba9 O7 2.953147 1_555
Ba9 O71 2.964689 1_555
Ba9 O76 2.993456 1_555
Ba9 O8 3.062267 1_555
Ba9 O70 3.070587 1_555
Ba9 O52 3.124323 1_555
Ba10 O89 2.638876 1_655
Ba10 O63 2.869763 1_555
Ba10 O8 2.917272 1_555
Ba10 O77 2.929558 1_655
Ba10 O59 2.942083 1_555
Ba10 O71 2.980725 1_655
Ba10 O6 3.005410 1_555
Ba10 O83 3.006443 1_555
Ba10 O58 3.041581 1_665
Ba10 O69 3.111092 1_655
Ba10 O53 3.347507 1_655
Ba11 O87 2.675379 1_555
Ba11 O64 2.833046 1_565
Ba11 O57 2.894415 1_565
Ba11 O6 2.921348 1_565
Ba11 O59 2.951924 1_555
Ba11 O75 2.973949 1_555
Ba11 O70 3.052089 1_555
Ba11 O69 3.090625 1_555
Ba11 O7 3.095723 1_565
Ba11 O51 3.123272 1_555
Ba12 O92 2.672684 1_555
Ba12 O67 2.866285 1_545
Ba12 O62 2.910301 1_545
Ba12 O60 2.949777 1_655
Ba12 O11 2.953147 1_545
Ba12 O73 2.964689 1_555
Ba12 O80 2.993456 1_555
Ba12 O10 3.062267 1_545
Ba12 O74 3.070587 1_555
Ba12 O56 3.124323 1_555
Ba13 O90 2.675379 1_555
Ba13 O68 2.833046 1_555
Ba13 O60 2.894415 1_555
Ba13 O9 2.921348 1_555
Ba13 O61 2.951924 1_545
Ba13 O78 2.973949 1_555
Ba13 O74 3.052089 1_555
Ba13 O72 3.090625 1_555
Ba13 O11 3.095723 1_555
Ba13 O54 3.123272 1_555
Ba14 O91 2.638876 1_455
Ba14 O66 2.869763 1_555
Ba14 O10 2.917272 1_555
Ba14 O79 2.929558 1_455
Ba14 O61 2.942083 1_555
Ba14 O73 2.980725 1_455
Ba14 O9 3.005410 1_555
Ba14 O85 3.006443 1_555
Ba14 O62 3.041581 1_455
Ba14 O72 3.111092 1_455
Ba14 O55 3.347507 1_455
Ba15 O8 2.719283 1_555
Ba15 O14 2.833990 1_555
Ba15 O94 2.845551 1_555
Ba15 O75 2.916904 1_555
Ba15 O77 2.944202 1_655
Ba15 O59 2.951014 1_555
Ba15 O83 2.978005 1_555
Ba15 O82 3.028762 1_555
Ba15 O87 3.045348 1_555
Ba15 O88 3.110108 1_555
Ba16 O6 2.652445 1_455
Ba16 O57 2.877296 1_455
Ba16 O88 2.892513 1_555
Ba16 O95 2.901545 1_555
Ba16 O71 2.922665 1_555
Ba16 O83 2.954115 1_455
Ba16 O76 2.982636 1_555
Ba16 O89 2.992762 1_555
Ba16 O75 3.046480 1_445
Ba16 O81 3.153144 1_455
Ba17 O7 2.653729 1_555
Ba17 O93 2.839617 1_545
Ba17 O58 2.906728 1_555
Ba17 O77 2.913391 1_545
Ba17 O89 2.930005 1_545
Ba17 O76 2.957268 1_555
Ba17 O87 3.008882 1_545
Ba17 O81 3.037405 1_555
Ba17 O82 3.093969 1_555
Ba17 O13 3.375011 1_555
Ba18 O10 2.719283 1_555
Ba18 O16 2.833990 1_555
Ba18 O98 2.845551 1_565
Ba18 O78 2.916904 1_565
Ba18 O79 2.944202 1_455
Ba18 O61 2.951014 1_555
Ba18 O85 2.978005 1_555
Ba18 O86 3.028762 1_555
Ba18 O90 3.045348 1_565
Ba18 O92 3.110108 1_565
Ba19 O11 2.653729 1_555
Ba19 O96 2.839617 1_555
Ba19 O62 2.906728 1_555
Ba19 O79 2.913391 1_555
Ba19 O91 2.930005 1_555
Ba19 O80 2.957268 1_565
Ba19 O90 3.008882 1_555
Ba19 O84 3.037405 1_555
Ba19 O86 3.093969 1_555
Ba19 O17 3.375011 1_555
Ba20 O9 2.652445 1_655
Ba20 O60 2.877296 1_655
Ba20 O92 2.892513 1_555
Ba20 O97 2.901544 1_555
Ba20 O73 2.922665 1_555
Ba20 O85 2.954115 1_655
Ba20 O80 2.982636 1_555
Ba20 O91 2.992762 1_555
Ba20 O78 3.046480 1_655
Ba20 O84 3.153144 1_655
Ba21 O82 2.631831 1_555
Ba21 O76 2.658531 1_555
Ba21 O19 2.739332 1_555
Ba21 O95 2.847221 1_555
Ba21 O94 2.862567 1_555
Ba21 O12 2.914756 1_455
Ba21 O88 3.010260 1_555
Ba21 O13 3.013737 1_555
Ba21 O25 3.106065 1_555
Ba22 O83 2.599423 1_455
Ba22 O20 2.645823 1_455
Ba22 O77 2.720135 1_555
Ba22 O14 2.865198 1_455
Ba22 O95 2.917487 1_555
Ba22 O13 2.950433 1_565
Ba22 O93 2.983009 1_555
Ba22 O26 3.057287 1_555
Ba22 O89 3.128211 1_555
Ba23 O81 2.660422 1_565
Ba23 O75 2.682321 1_555
Ba23 O18 2.731983 1_565
Ba23 O14 2.841298 1_555
Ba23 O94 2.855974 1_555
Ba23 O93 2.908883 1_555
Ba23 O24 2.956045 1_555
Ba23 O12 2.957165 1_565
Ba23 O87 3.060231 1_555
Ba24 O86 2.631831 1_545
Ba24 O80 2.658531 1_555
Ba24 O23 2.739332 1_545
Ba24 O97 2.847221 1_555
Ba24 O98 2.862567 1_555
Ba24 O15 2.914756 1_655
Ba24 O92 3.010260 1_555
Ba24 O17 3.013737 1_545
Ba24 O29 3.106065 1_555
Ba25 O84 2.660422 1_555
Ba25 O78 2.682321 1_555
Ba25 O21 2.731983 1_555
Ba25 O16 2.841298 1_545
Ba25 O98 2.855974 1_555
Ba25 O96 2.908883 1_555
Ba25 O27 2.956045 1_555
Ba25 O15 2.957165 1_555
Ba25 O90 3.060231 1_555
Ba26 O85 2.599423 1_655
Ba26 O22 2.645823 1_655
Ba26 O79 2.720135 1_555
Ba26 O16 2.865198 1_655
Ba26 O97 2.917487 1_555
Ba26 O17 2.950433 1_555
Ba26 O96 2.983009 1_555
Ba26 O28 3.057287 1_555
Ba26 O91 3.128211 1_555
Ba27 O13 2.667964 1_565
Ba27 O37 2.733660 1_555
Ba27 O93 2.742239 1_555
Ba27 O31 2.770887 1_565
Ba27 O26 2.827975 1_555
Ba27 O24 2.836031 1_555
Ba27 O18 2.918886 1_565
Ba27 O19 2.952079 1_565
Ba28 O14 2.592757 1_555
Ba28 O38 2.632611 1_555
Ba28 O94 2.789652 1_555
Ba28 O20 2.838413 1_555
Ba28 O32 2.858562 1_555
Ba28 O19 2.950923 1_555
Ba28 O24 2.952516 1_555
Ba28 O25 3.007182 1_555
Ba29 O36 2.698584 1_555
Ba29 O12 2.707428 1_555
Ba29 O95 2.730823 1_655
Ba29 O30 2.783844 1_555
Ba29 O20 2.812477 1_555
Ba29 O18 2.895055 1_555
Ba29 O26 2.906906 1_655
Ba29 O25 2.942551 1_655
Ba30 O17 2.667964 1_555
Ba30 O41 2.733660 1_555
Ba30 O96 2.742239 1_555
Ba30 O35 2.770887 1_555
Ba30 O28 2.827975 1_555
Ba30 O27 2.836031 1_555
Ba30 O21 2.918886 1_555
Ba30 O23 2.952079 1_555
Ba31 O39 2.698584 1_555
Ba31 O15 2.707428 1_555
Ba31 O97 2.730823 1_455
Ba31 O33 2.783844 1_555
Ba31 O22 2.812477 1_555
Ba31 O21 2.895055 1_555
Ba31 O28 2.906906 1_455
Ba31 O29 2.942551 1_455
Ba32 O16 2.592757 1_555
Ba32 O40 2.632611 1_565
Ba32 O98 2.789652 1_565
Ba32 O22 2.838413 1_555
Ba32 O34 2.858562 1_555
Ba32 O23 2.950923 1_555
Ba32 O27 2.952516 1_565
Ba32 O29 3.007182 1_565
Ba33 O42 2.668119 1_555
Ba33 O50 2.736970 1_555
Ba33 O25 2.756783 1_555
Ba33 O31 2.847442 1_555
Ba33 O32 2.854311 1_555
Ba33 O37 2.897658 1_545
Ba33 O36 3.062446 1_455
Ba33 O46 3.092201 1_555
Ba33 O19 3.118137 1_555
Ba34 O43 2.657748 1_655
Ba34 O26 2.717829 1_655
Ba34 O20 2.787084 1_555
Ba34 O48 2.789764 1_655
Ba34 O30 2.900334 1_555
Ba34 O32 2.913182 1_555
Ba34 O38 2.922269 1_555
Ba34 O37 2.964427 1_655
Ba34 O47 3.084454 1_555
Ba35 O44 2.618128 1_545
Ba35 O24 2.659965 1_545
Ba35 O49 2.848412 1_555
Ba35 O38 2.848716 1_545
Ba35 O36 2.881268 1_555
Ba35 O31 2.897608 1_555
Ba35 O30 2.941624 1_555
Ba35 O18 3.194424 1_555
Ba35 O45 3.268044 1_555
Ba36 O45 2.668119 1_565
Ba36 O49 2.736970 1_565
Ba36 O29 2.756783 1_565
Ba36 O35 2.847442 1_555
Ba36 O34 2.854311 1_555
Ba36 O41 2.897658 1_555
Ba36 O39 3.062446 1_665
Ba36 O44 3.092201 1_555
Ba36 O23 3.118137 1_555
Ba37 O46 2.618128 1_555
Ba37 O27 2.659965 1_555
Ba37 O50 2.848412 1_555
Ba37 O40 2.848716 1_555
Ba37 O39 2.881268 1_555
Ba37 O35 2.897609 1_555
Ba37 O33 2.941623 1_555
Ba37 O21 3.194424 1_555
Ba37 O42 3.268044 1_555
Ba38 O47 2.657748 1_455
Ba38 O28 2.717829 1_455
Ba38 O22 2.787084 1_555
Ba38 O48 2.789764 1_555
Ba38 O33 2.900334 1_555
Ba38 O34 2.913182 1_555
Ba38 O40 2.922269 1_565
Ba38 O41 2.964427 1_455
Ba38 O43 3.084454 1_555
Ba39 O32 2.726085 1_555
Ba39 O38 2.769065 1_555
Ba39 O35 2.799044 1_555
Ba39 O47 2.946989 1_555
Ba39 O48 2.958975 1_655
Ba39 O44 2.977150 1_555
Ba39 O49 3.001836 1_565
Ba39 O46 3.041428 1_555
Ba39 O42 3.069850 1_555
Ba39 O41 3.341169 1_555
Ba40 O30 2.717897 1_555
Ba40 O33 2.717897 1_655
Ba40 O50 2.970560 1_655
Ba40 O49 2.970560 1_555
Ba40 O45 2.980414 1_555
Ba40 O42 2.980414 1_655
Ba40 O47 3.010093 1_555
Ba40 O43 3.010093 1_655
Ba40 O39 3.284172 1_655
Ba40 O36 3.284172 1_555
Ba41 O34 2.726085 1_555
Ba41 O40 2.769065 1_565
Ba41 O31 2.799044 1_565
Ba41 O43 2.946989 1_555
Ba41 O48 2.958975 1_555
Ba41 O46 2.977150 1_565
Ba41 O50 3.001836 1_565
Ba41 O44 3.041428 1_555
Ba41 O45 3.069850 1_565
Ba41 O37 3.341169 1_555
Ir0 O6 2.031145 1_555
Ir0 O8 2.040863 1_555
Ir0 O7 2.041316 1_555
Ir0 O64 2.053489 1_555
Ir0 O63 2.071297 1_555
Ir0 O65 2.073223 1_555
Ir1 O9 2.031145 1_555
Ir1 O10 2.040863 1_555
Ir1 O11 2.041315 1_555
Ir1 O68 2.053489 1_555
Ir1 O66 2.071297 1_555
Ir1 O67 2.073223 1_555
Ir2 O20 1.999183 1_555
Ir2 O19 2.038325 1_555
Ir2 O18 2.045181 1_555
Ir2 O32 2.079210 1_555
Ir2 O30 2.104428 1_555
Ir2 O31 2.166662 1_555
Ir3 O22 1.999183 1_555
Ir3 O23 2.038325 1_555
Ir3 O21 2.045182 1_555
Ir3 O34 2.079210 1_555
Ir3 O33 2.104428 1_555
Ir3 O35 2.166662 1_555
Ir4 O38 1.986266 1_555
Ir4 O37 2.033490 1_655
Ir4 O36 2.049350 1_565
Ir4 O48 2.059353 1_655
Ir4 O49 2.065052 1_565
Ir4 O50 2.091552 1_665
Ir5 O40 1.986266 1_555
Ir5 O41 2.033490 1_445
Ir5 O39 2.049350 1_555
Ir5 O48 2.059353 1_545
Ir5 O50 2.065052 1_555
Ir5 O49 2.091552 1_455
Ir6 O47 1.970273 1_555
Ir6 O46 1.975978 1_555
Ir6 O45 1.977770 1_555
Ir6 O32 2.072473 1_555
Ir6 O30 2.108618 1_555
Ir6 O31 2.124958 1_555
Ir7 O43 1.970273 1_555
Ir7 O44 1.975978 1_555
Ir7 O42 1.977770 1_555
Ir7 O34 2.072473 1_555
Ir7 O33 2.108618 1_555
Ir7 O35 2.124958 1_555
Ir8 O26 1.992018 1_555
Ir8 O24 1.997930 1_555
Ir8 O25 2.006192 1_555
Ir8 O93 2.098178 1_555
Ir8 O94 2.106272 1_555
Ir8 O95 2.126424 1_555
Ir9 O28 1.992018 1_555
Ir9 O27 1.997930 1_555
Ir9 O29 2.006192 1_555
Ir9 O96 2.098178 1_555
Ir9 O98 2.106272 1_555
Ir9 O97 2.126424 1_555
Ir10 O51 1.974642 1_455
Ir10 O52 1.985279 1_565
Ir10 O53 2.000912 1_555
Ir10 O57 2.083462 1_465
Ir10 O59 2.110008 1_455
Ir10 O58 2.120295 1_565
Ir11 O54 1.974642 1_665
Ir11 O56 1.985279 1_565
Ir11 O55 2.000912 1_555
Ir11 O60 2.083462 1_665
Ir11 O61 2.110008 1_655
Ir11 O62 2.120295 1_555
Ir12 O77 2.035828 1_545
Ir12 O57 2.041929 1_455
Ir12 O75 2.044866 1_445
Ir12 O58 2.047489 1_555
Ir12 O59 2.054550 1_445
Ir12 O76 2.056011 1_555
Ir13 O79 2.035828 1_555
Ir13 O60 2.041929 1_665
Ir13 O78 2.044866 1_665
Ir13 O62 2.047489 1_555
Ir13 O61 2.054550 1_655
Ir13 O80 2.056011 1_565
Ir14 O4 1.992800 1_556
Ir14 O5 2.043650 1_556
Ir14 O3 2.047107 1_556
Ir14 O64 2.097604 1_555
Ir14 O63 2.111490 1_555
Ir14 O65 2.160150 1_555
Ir15 O2 1.992800 1_554
Ir15 O1 2.043650 1_554
Ir15 O0 2.047107 1_554
Ir15 O68 2.097604 1_555
Ir15 O66 2.111490 1_555
Ir15 O67 2.160150 1_555
Ir16 O71 1.956478 1_555
Ir16 O70 2.016332 1_555
Ir16 O69 2.025528 1_555
Ir16 O89 2.059156 1_555
Ir16 O88 2.093627 1_555
Ir16 O87 2.123082 1_555
Ir17 O73 1.956478 1_555
Ir17 O74 2.016332 1_555
Ir17 O72 2.025528 1_555
Ir17 O91 2.059157 1_555
Ir17 O92 2.093627 1_555
Ir17 O90 2.123082 1_555
Ir18 O14 1.997305 1_555
Ir18 O13 2.027847 1_665
Ir18 O12 2.039106 1_565
Ir18 O77 2.078511 1_655
Ir18 O75 2.094892 1_555
Ir18 O76 2.144688 1_665
Ir19 O16 1.997305 1_555
Ir19 O17 2.027847 1_455
Ir19 O15 2.039106 1_565
Ir19 O79 2.078511 1_455
Ir19 O78 2.094892 1_565
Ir19 O80 2.144688 1_465
Ir20 O83 1.945707 1_555
Ir20 O81 2.009455 1_555
Ir20 O82 2.019086 1_555
Ir20 O6 2.071091 1_555
Ir20 O8 2.087994 1_555
Ir20 O7 2.147688 1_555
Ir21 O85 1.945707 1_555
Ir21 O84 2.009455 1_555
Ir21 O86 2.019086 1_555
Ir21 O9 2.071091 1_555
Ir21 O10 2.087994 1_555
Ir21 O11 2.147688 1_555
Ir22 O89 2.029127 1_555
Ir22 O88 2.044514 1_555
Ir22 O87 2.048815 1_555
Ir22 O94 2.059361 1_555
Ir22 O93 2.062864 1_555
Ir22 O95 2.078232 1_555
Ir23 O91 2.029127 1_555
Ir23 O92 2.044514 1_555
Ir23 O90 2.048815 1_555
Ir23 O98 2.059361 1_555
Ir23 O96 2.062864 1_555
Ir23 O97 2.078232 1_555
O0 Pd1 2.100663 1_555
O1 Pd1 2.098712 1_555
O3 Pd2 2.100663 1_555
O5 Pd2 2.098712 1_555
O12 Pd5 2.081618 1_655
O13 Pd5 2.087892 1_555
O15 Pd6 2.081618 1_455
O17 Pd6 2.087892 1_565
O18 Pd3 2.097294 1_555
O19 Pd3 2.098949 1_555
O21 Pd4 2.097294 1_555
O23 Pd4 2.098949 1_555
O24 Pd8 2.512774 1_555
O25 Pd8 2.151700 1_555
O26 Pd8 2.458228 1_555
O27 Pd7 2.512774 1_555
O28 Pd7 2.458228 1_555
O29 Pd7 2.151700 1_555
O36 Pd5 2.096150 1_655
O37 Pd5 2.092151 1_565
O39 Pd6 2.096150 1_455
O41 Pd6 2.092151 1_565
O42 Pd8 2.147444 1_555
O43 Pd8 2.496360 1_555
O44 Pd8 2.456311 1_555
O45 Pd7 2.147444 1_555
O46 Pd7 2.456311 1_555
O47 Pd7 2.496360 1_555
O51 Pd0 2.466149 1_655
O52 Pd0 2.477158 1_545
O53 Pd0 2.159928 1_555
O54 Pd0 2.466149 1_544
O55 Pd0 2.159928 1_654
O56 Pd0 2.477158 1_644
O69 Pd1 2.066582 1_555
O70 Pd1 2.068789 1_555
O72 Pd2 2.066582 1_555
O74 Pd2 2.068789 1_555
O81 Pd3 2.069438 1_555
O82 Pd3 2.064688 1_555
O84 Pd4 2.069438 1_555
O86 Pd4 2.064688 1_555
