# generated using pymatgen
data_LiCuPO4
_symmetry_space_group_name_H-M   'P 1'
_cell_length_a   5.65704400
_cell_length_b   7.59471900
_cell_length_c   8.03025000
_cell_angle_alpha   90.00000000
_cell_angle_beta   90.00000000
_cell_angle_gamma   90.00000000
_symmetry_Int_Tables_number   1
_chemical_formula_structural   LiCuPO4
_chemical_formula_sum   'Li4 Cu4 P4 O16'
_cell_volume   345.00892711
_cell_formula_units_Z   4
loop_
 _symmetry_equiv_pos_site_id
 _symmetry_equiv_pos_as_xyz
  1  'x, y, z'
loop_
 _atom_site_type_symbol
 _atom_site_label
 _atom_site_symmetry_multiplicity
 _atom_site_fract_x
 _atom_site_fract_y
 _atom_site_fract_z
 _atom_site_occupancy
  Li  Li0  1  0.71467300  0.94956100  0.76868800  1
  Li  Li1  1  0.21467300  0.55043900  0.26868800  1
  Li  Li2  1  0.71467300  0.44956100  0.73131200  1
  Li  Li3  1  0.21467300  0.05043900  0.23131200  1
  Cu  Cu0  1  0.21895300  0.22006000  0.57865800  1
  Cu  Cu1  1  0.71895300  0.27994000  0.07865800  1
  Cu  Cu2  1  0.21895300  0.72006000  0.92134200  1
  Cu  Cu3  1  0.71895300  0.77994000  0.42134200  1
  P  P0  1  0.72392300  0.19060700  0.44937900  1
  P  P1  1  0.22392300  0.30939300  0.94937900  1
  P  P2  1  0.72392300  0.69060700  0.05062100  1
  P  P3  1  0.22392300  0.80939300  0.55062100  1
  O  O0  1  0.68574600  0.00837200  0.53459600  1
  O  O1  1  0.48510700  0.28828900  0.42976000  1
  O  O2  1  0.84846300  0.16882200  0.27687300  1
  O  O3  1  0.88413500  0.29988600  0.57041000  1
  O  O4  1  0.38413500  0.20011400  0.07041000  1
  O  O5  1  0.34846300  0.33117800  0.77687300  1
  O  O6  1  0.98510700  0.21171100  0.92976000  1
  O  O7  1  0.18574600  0.49162800  0.03459600  1
  O  O8  1  0.68574600  0.50837200  0.96540400  1
  O  O9  1  0.48510700  0.78828900  0.07024000  1
  O  O10  1  0.84846300  0.66882200  0.22312700  1
  O  O11  1  0.88413500  0.79988600  0.92959000  1
  O  O12  1  0.38413500  0.70011400  0.42959000  1
  O  O13  1  0.34846300  0.83117800  0.72312700  1
  O  O14  1  0.98510700  0.71171100  0.57024000  1
  O  O15  1  0.18574600  0.99162800  0.46540400  1
loop_
_geom_bond_atom_site_label_1
_geom_bond_atom_site_label_2
_geom_bond_distance
_geom_bond_site_symmetry_2
Li0 O0 1.939069 1_565
Li0 O11 1.969943 1_555
Li0 O13 2.287797 1_555
Li1 O7 1.939069 1_555
Li1 O12 1.969943 1_555
Li1 O10 2.287797 1_455
Li2 O8 1.939069 1_555
Li2 O3 1.969943 1_555
Li2 O5 2.287797 1_555
Li3 O15 1.939069 1_545
Li3 O4 1.969943 1_555
Li3 O2 2.287797 1_455
Cu0 O5 1.944868 1_555
Cu0 O15 1.967791 1_545
Cu0 O3 1.989842 1_455
Cu0 O1 1.991268 1_555
Cu1 O2 1.944868 1_555
Cu1 O8 1.967791 1_554
Cu1 O4 1.989842 1_555
Cu1 O6 1.991268 1_554
Cu2 O13 1.944868 1_555
Cu2 O7 1.967791 1_556
Cu2 O11 1.989842 1_455
Cu2 O9 1.991268 1_556
Cu3 O10 1.944868 1_555
Cu3 O0 1.967791 1_565
Cu3 O12 1.989842 1_555
Cu3 O14 1.991268 1_555
O0 P0 1.558990 1_555
O1 P0 1.549312 1_555
O2 P0 1.562913 1_555
O3 P0 1.566793 1_555
O4 P1 1.566793 1_554
O5 P1 1.562913 1_555
O6 P1 1.549312 1_655
O7 P1 1.558990 1_554
O8 P2 1.558990 1_556
O9 P2 1.549312 1_555
O10 P2 1.562913 1_555
O11 P2 1.566793 1_556
O12 P3 1.566793 1_555
O13 P3 1.562913 1_555
O14 P3 1.549312 1_655
O15 P3 1.558990 1_555
