# generated using pymatgen
data_V3O5F
_symmetry_space_group_name_H-M   'P 1'
_cell_length_a   4.58448200
_cell_length_b   5.50301354
_cell_length_c   7.65269160
_cell_angle_alpha   87.08522761
_cell_angle_beta   89.07980690
_cell_angle_gamma   88.64423764
_symmetry_Int_Tables_number   1
_chemical_formula_structural   V3O5F
_chemical_formula_sum   'V6 O10 F2'
_cell_volume   192.74058175
_cell_formula_units_Z   2
loop_
 _symmetry_equiv_pos_site_id
 _symmetry_equiv_pos_as_xyz
  1  'x, y, z'
loop_
 _atom_site_type_symbol
 _atom_site_label
 _atom_site_symmetry_multiplicity
 _atom_site_fract_x
 _atom_site_fract_y
 _atom_site_fract_z
 _atom_site_occupancy
  V  V0  1  0.50000000  0.50000000  0.50000000  1
  V  V1  1  0.49151300  0.16042300  0.82751900  1
  V  V2  1  0.50848700  0.83957700  0.17248100  1
  V  V3  1  0.00000000  0.00000000  0.50000000  1
  V  V4  1  0.98204600  0.33108600  0.14981400  1
  V  V5  1  0.01795400  0.66891400  0.85018600  1
  O  O0  1  0.79752700  0.03333500  0.26197100  1
  O  O1  1  0.79797400  0.37071700  0.93256600  1
  O  O2  1  0.70185400  0.86918700  0.93018200  1
  O  O3  1  0.68814400  0.19959000  0.60226900  1
  O  O4  1  0.70775800  0.53002200  0.26747100  1
  O  O5  1  0.31185600  0.80041000  0.39773100  1
  O  O6  1  0.29814600  0.13081300  0.06981800  1
  O  O7  1  0.29224200  0.46997800  0.73252900  1
  O  O8  1  0.20202600  0.62928300  0.06743400  1
  O  O9  1  0.20247300  0.96666500  0.73802900  1
  F  F0  1  0.80901200  0.69679700  0.60823100  1
  F  F1  1  0.19098800  0.30320300  0.39176900  1
loop_
_geom_bond_atom_site_label_1
_geom_bond_atom_site_label_2
_geom_bond_distance
_geom_bond_site_symmetry_2
O0 V2 1.879377 1_545
O0 V4 2.009051 1_555
O0 V3 2.055633 1_655
O1 V4 1.877013 1_556
O1 V5 2.014945 1_655
O1 V1 2.041379 1_555
O2 V5 1.911544 1_655
O2 V1 1.984651 1_565
O2 V2 2.043019 1_556
O3 V1 1.936995 1_555
O3 V3 1.959615 1_655
O3 V0 1.977892 1_555
O4 V4 1.894504 1_555
O4 V0 2.006019 1_555
O4 V2 2.021539 1_555
O5 V2 1.936995 1_555
O5 V3 1.959615 1_565
O5 V0 1.977892 1_555
O6 V4 1.911544 1_455
O6 V2 1.984651 1_545
O6 V1 2.043019 1_554
O7 V5 1.894504 1_555
O7 V0 2.006019 1_555
O7 V1 2.021539 1_555
O8 V5 1.877013 1_554
O8 V4 2.014945 1_455
O8 V2 2.041379 1_555
O9 V1 1.879377 1_565
O9 V5 2.009051 1_555
O9 V3 2.055633 1_565
F0 V0 2.016752 1_555
F0 V3 2.035175 1_665
F0 V5 2.095392 1_655
F1 V0 2.016752 1_555
F1 V3 2.035175 1_555
F1 V4 2.095392 1_455
