# generated using pymatgen
data_Mn6O5F7
_symmetry_space_group_name_H-M   'P 1'
_cell_length_a   4.64884000
_cell_length_b   5.70497975
_cell_length_c   7.95124372
_cell_angle_alpha   86.92211851
_cell_angle_beta   89.12974736
_cell_angle_gamma   88.68444698
_symmetry_Int_Tables_number   1
_chemical_formula_structural   Mn6O5F7
_chemical_formula_sum   'Mn6 O5 F7'
_cell_volume   210.49893852
_cell_formula_units_Z   1
loop_
 _symmetry_equiv_pos_site_id
 _symmetry_equiv_pos_as_xyz
  1  'x, y, z'
loop_
 _atom_site_type_symbol
 _atom_site_label
 _atom_site_symmetry_multiplicity
 _atom_site_fract_x
 _atom_site_fract_y
 _atom_site_fract_z
 _atom_site_occupancy
  Mn  Mn0  1  0.49660100  0.49976800  0.00542100  1
  Mn  Mn1  1  0.52675000  0.81033500  0.64774900  1
  Mn  Mn2  1  0.50071800  0.17071800  0.33747500  1
  Mn  Mn3  1  0.00059500  0.34800400  0.69713900  1
  Mn  Mn4  1  0.97920200  0.66396300  0.31375600  1
  Mn  Mn5  1  0.00496100  0.99609100  0.99664800  1
  O  O0  1  0.81678500  0.71502400  0.09157500  1
  O  O1  1  0.69137200  0.52594100  0.78061300  1
  O  O2  1  0.69628600  0.87884500  0.41971100  1
  O  O3  1  0.31602500  0.46366600  0.23423800  1
  O  O4  1  0.19306400  0.28092400  0.90783300  1
  F  F0  1  0.79641200  0.36264400  0.45794000  1
  F  F1  1  0.79208700  0.03047900  0.77003100  1
  F  F2  1  0.71894100  0.19907800  0.10930500  1
  F  F3  1  0.28846200  0.14229500  0.57738100  1
  F  F4  1  0.29121700  0.79880600  0.87837100  1
  F  F5  1  0.17512400  0.63899800  0.54876400  1
  F  F6  1  0.21539900  0.97442200  0.22605200  1
loop_
_geom_bond_atom_site_label_1
_geom_bond_atom_site_label_2
_geom_bond_distance
_geom_bond_site_symmetry_2
Mn0 O1 1.991407 1_554
Mn0 O3 1.994637 1_555
Mn0 O4 2.090508 1_554
Mn0 O0 2.097179 1_555
Mn1 O2 1.989023 1_555
Mn1 O1 2.029188 1_555
Mn2 O2 1.964285 1_545
Mn2 O3 2.003083 1_555
Mn3 O1 1.874530 1_455
Mn3 O4 1.927321 1_555
Mn4 O0 1.936761 1_555
Mn4 O2 1.986362 1_555
Mn4 O3 2.030443 1_655
Mn5 O0 1.954614 1_456
Mn5 O4 1.956313 1_565
F0 Mn2 2.056138 1_555
F0 Mn3 2.135289 1_655
F0 Mn4 2.194834 1_555
F1 Mn5 2.066862 1_645
F1 Mn1 2.069523 1_545
F1 Mn3 2.123146 1_655
F2 Mn5 1.978876 1_644
F2 Mn2 2.065650 1_555
F2 Mn0 2.117952 1_555
F3 Mn3 2.020910 1_555
F3 Mn2 2.134400 1_555
F3 Mn1 2.221593 1_545
F4 Mn5 1.982172 1_555
F4 Mn1 2.120186 1_555
F4 Mn0 2.147566 1_556
F5 Mn4 2.087753 1_455
F5 Mn1 2.107621 1_555
F5 Mn3 2.151413 1_555
F6 Mn2 2.002198 1_565
F6 Mn5 2.079405 1_554
F6 Mn4 2.182297 1_455
