# generated using pymatgen
data_LiFe2O2F3
_symmetry_space_group_name_H-M   'P 1'
_cell_length_a   5.81220567
_cell_length_b   5.81220567
_cell_length_c   7.21103532
_cell_angle_alpha   70.61674228
_cell_angle_beta   70.61674228
_cell_angle_gamma   54.54663489
_symmetry_Int_Tables_number   1
_chemical_formula_structural   LiFe2O2F3
_chemical_formula_sum   'Li2 Fe4 O4 F6'
_cell_volume   184.08231521
_cell_formula_units_Z   2
loop_
 _symmetry_equiv_pos_site_id
 _symmetry_equiv_pos_as_xyz
  1  'x, y, z'
loop_
 _atom_site_type_symbol
 _atom_site_label
 _atom_site_symmetry_multiplicity
 _atom_site_fract_x
 _atom_site_fract_y
 _atom_site_fract_z
 _atom_site_occupancy
  Li  Li0  1  0.00040400  0.99254800  0.25193200  1
  Li  Li1  1  0.00745200  0.99959600  0.74806800  1
  Fe  Fe0  1  0.37363200  0.38936300  0.44999400  1
  Fe  Fe1  1  0.39759700  0.36497900  0.95076300  1
  Fe  Fe2  1  0.61063700  0.62636800  0.55000600  1
  Fe  Fe3  1  0.63502100  0.60240300  0.04923700  1
  O  O0  1  0.28328600  0.54623600  0.68999400  1
  O  O1  1  0.55730400  0.27303200  0.18918400  1
  O  O2  1  0.45376400  0.71671400  0.31000600  1
  O  O3  1  0.72696800  0.44269600  0.81081600  1
  F  F0  1  0.96106700  0.64018700  0.40950400  1
  F  F1  1  0.35981300  0.03893300  0.59049600  1
  F  F2  1  0.65179200  0.95245300  0.91127000  1
  F  F3  1  0.04754700  0.34820800  0.08873000  1
  F  F4  1  0.80992600  0.19007400  0.50000000  1
  F  F5  1  0.20151900  0.79848100  0.00000000  1
loop_
_geom_bond_atom_site_label_1
_geom_bond_atom_site_label_2
_geom_bond_distance
_geom_bond_site_symmetry_2
Li0 O1 2.215471 1_465
Li0 O2 2.252788 1_555
Li1 O3 2.215471 1_465
Li1 O0 2.252788 1_555
Fe0 O1 1.951388 1_555
Fe0 O0 1.997745 1_555
Fe0 O2 2.072919 1_555
Fe1 O0 1.946688 1_555
Fe1 O1 1.994260 1_556
Fe1 O3 2.074971 1_555
Fe2 O3 1.951388 1_555
Fe2 O2 1.997745 1_555
Fe2 O0 2.072919 1_555
Fe3 O2 1.946688 1_555
Fe3 O3 1.994260 1_554
Fe3 O1 2.074971 1_555
F0 Fe2 1.986808 1_555
F0 Fe0 2.021718 1_655
F0 Li0 2.088963 1_655
F1 Fe0 1.986808 1_555
F1 Fe2 2.021718 1_545
F1 Li1 2.088963 1_545
F2 Fe3 1.990192 1_556
F2 Fe1 2.019226 1_565
F2 Li1 2.135768 1_655
F3 Fe1 1.990192 1_554
F3 Fe3 2.019226 1_455
F3 Li0 2.135768 1_545
F4 Li1 2.077925 1_645
F4 Li0 2.077925 1_645
F4 Fe0 2.196448 1_555
F4 Fe2 2.196448 1_555
F5 Li0 2.088079 1_555
F5 Li1 2.088079 1_554
F5 Fe1 2.183426 1_554
F5 Fe3 2.183426 1_555
