# generated using pymatgen
data_Li4Mn3O6F
_symmetry_space_group_name_H-M   'P 1'
_cell_length_a   4.44843200
_cell_length_b   8.75364252
_cell_length_c   7.70772852
_cell_angle_alpha   111.98586196
_cell_angle_beta   106.77261482
_cell_angle_gamma   75.28096462
_symmetry_Int_Tables_number   1
_chemical_formula_structural   Li4Mn3O6F
_chemical_formula_sum   'Li8 Mn6 O12 F2'
_cell_volume   262.84162979
_cell_formula_units_Z   2
loop_
 _symmetry_equiv_pos_site_id
 _symmetry_equiv_pos_as_xyz
  1  'x, y, z'
loop_
 _atom_site_type_symbol
 _atom_site_label
 _atom_site_symmetry_multiplicity
 _atom_site_fract_x
 _atom_site_fract_y
 _atom_site_fract_z
 _atom_site_occupancy
  Li  Li0  1  0.57006200  0.14801500  0.28818400  1
  Li  Li1  1  0.07012400  0.64796600  0.78818500  1
  Li  Li2  1  0.85849100  0.70914400  0.42610100  1
  Li  Li3  1  0.35851500  0.20917600  0.92610200  1
  Li  Li4  1  0.14464800  0.27900000  0.56834500  1
  Li  Li5  1  0.64462600  0.77898300  0.06837700  1
  Li  Li6  1  0.78382400  0.07814800  0.64585100  1
  Li  Li7  1  0.28389300  0.57815000  0.14589200  1
  Mn  Mn0  1  0.71443900  0.42859000  0.85711100  1
  Mn  Mn1  1  0.00139600  0.99613900  0.99902100  1
  Mn  Mn2  1  0.42715000  0.86102200  0.71526200  1
  Mn  Mn3  1  0.21422100  0.92854800  0.35713000  1
  Mn  Mn4  1  0.50139400  0.49620600  0.49910800  1
  Mn  Mn5  1  0.92711300  0.36093100  0.21515500  1
  O  O0  1  0.64523700  0.29839900  0.58873900  1
  O  O1  1  0.14522200  0.79833100  0.08879000  1
  O  O2  1  0.28335800  0.05883300  0.62551100  1
  O  O3  1  0.78347700  0.55875200  0.12553200  1
  O  O4  1  0.07018100  0.12978800  0.27025300  1
  O  O5  1  0.57020700  0.62984000  0.77026800  1
  O  O6  1  0.35834000  0.72734400  0.44406300  1
  O  O7  1  0.85840500  0.22728900  0.94404400  1
  O  O8  1  0.49395800  0.99179000  0.97982800  1
  O  O9  1  0.99395800  0.49174200  0.47979100  1
  O  O10  1  0.93450500  0.86534200  0.73446000  1
  O  O11  1  0.43448700  0.36542100  0.23450800  1
  F  F0  1  0.71432300  0.92855800  0.35719700  1
  F  F1  1  0.21444300  0.42855200  0.85719500  1
loop_
_geom_bond_atom_site_label_1
_geom_bond_atom_site_label_2
_geom_bond_distance
_geom_bond_site_symmetry_2
Li0 O11 2.004731 1_555
Li0 O0 2.169003 1_555
Li0 O8 2.229532 1_544
Li0 O4 2.230386 1_655
Li0 O4 2.230638 1_555
Li1 O10 2.004660 1_455
Li1 O1 2.169269 1_556
Li1 O9 2.229762 1_455
Li1 O5 2.230373 1_555
Li1 O5 2.230559 1_455
Li2 O9 2.004749 1_555
Li2 O3 2.169106 1_555
Li2 O10 2.229491 1_555
Li2 O6 2.230365 1_655
Li2 O6 2.230653 1_555
Li3 O8 2.004747 1_545
Li3 O2 2.169135 1_555
Li3 O11 2.229882 1_556
Li3 O7 2.230356 1_555
Li3 O7 2.230578 1_455
Li4 O2 2.040551 1_555
Li4 O9 2.106318 1_455
Li4 O4 2.151358 1_555
Li4 O0 2.231343 1_455
Li4 O0 2.232149 1_555
Li5 O3 2.041041 1_555
Li5 O8 2.106823 1_554
Li5 O5 2.151314 1_554
Li5 O1 2.231451 1_555
Li5 O1 2.232009 1_655
Li6 O0 2.041048 1_555
Li6 O10 2.107075 1_545
Li6 O7 2.151825 1_555
Li6 O2 2.231483 1_555
Li6 O2 2.231901 1_655
Li7 O1 2.040429 1_555
Li7 O11 2.106482 1_555
Li7 O6 2.151804 1_555
Li7 O3 2.231444 1_455
Li7 O3 2.232026 1_555
Mn0 O0 1.928225 1_555
Mn0 O3 1.928471 1_556
Mn0 O5 2.005961 1_555
Mn0 O7 2.006768 1_555
Mn1 O10 1.905891 1_455
Mn1 O4 1.953015 1_566
Mn1 O1 1.991215 1_556
Mn1 O7 2.123848 1_465
Mn1 O8 2.228195 1_555
Mn1 O8 2.228335 1_455
Mn2 O8 1.905861 1_555
Mn2 O6 1.952872 1_555
Mn2 O2 1.991159 1_565
Mn2 O5 2.124220 1_555
Mn2 O10 2.227894 1_555
Mn2 O10 2.228642 1_455
Mn3 O1 1.928079 1_555
Mn3 O2 1.928470 1_565
Mn3 O6 2.005985 1_555
Mn3 O4 2.006030 1_565
Mn4 O11 1.906106 1_555
Mn4 O5 1.952540 1_555
Mn4 O0 1.990590 1_555
Mn4 O6 2.123995 1_555
Mn4 O9 2.228273 1_555
Mn4 O9 2.228355 1_455
Mn5 O9 1.906383 1_555
Mn5 O7 1.952254 1_554
Mn5 O3 1.990667 1_555
Mn5 O4 2.124228 1_655
Mn5 O11 2.228072 1_655
Mn5 O11 2.228585 1_555
F0 Li2 2.079326 1_555
F0 Li0 2.080110 1_565
F0 Li6 2.094665 1_565
F0 Li5 2.095636 1_555
F0 Mn3 2.223889 1_655
F0 Mn3 2.224543 1_555
F1 Li3 2.079024 1_555
F1 Li1 2.079744 1_555
F1 Li7 2.094944 1_556
F1 Li4 2.095764 1_555
F1 Mn0 2.223963 1_455
F1 Mn0 2.224470 1_555
