# generated using pymatgen
data_Fe6O5F7
_symmetry_space_group_name_H-M   'P 1'
_cell_length_a   5.66615200
_cell_length_b   5.70557475
_cell_length_c   7.40923659
_cell_angle_alpha   72.75917785
_cell_angle_beta   71.99228371
_cell_angle_gamma   73.37660293
_symmetry_Int_Tables_number   1
_chemical_formula_structural   Fe6O5F7
_chemical_formula_sum   'Fe6 O5 F7'
_cell_volume   212.51739099
_cell_formula_units_Z   1
loop_
 _symmetry_equiv_pos_site_id
 _symmetry_equiv_pos_as_xyz
  1  'x, y, z'
loop_
 _atom_site_type_symbol
 _atom_site_label
 _atom_site_symmetry_multiplicity
 _atom_site_fract_x
 _atom_site_fract_y
 _atom_site_fract_z
 _atom_site_occupancy
  Fe  Fe0  1  0.32028700  0.30068800  0.16274000  1
  Fe  Fe1  1  0.63782800  0.69019500  0.33223600  1
  Fe  Fe2  1  0.37606100  0.32149000  0.69078600  1
  Fe  Fe3  1  0.67077800  0.69268400  0.82109400  1
  Fe  Fe4  1  0.00251900  0.00131300  0.50192300  1
  Fe  Fe5  1  0.99233300  0.99261200  0.99470400  1
  O  O0  1  0.35958600  0.97763000  0.33072500  1
  O  O1  1  0.76867400  0.77085200  0.03516500  1
  O  O2  1  0.21794600  0.21971500  0.97035900  1
  O  O3  1  0.57592600  0.57230200  0.62601300  1
  O  O4  1  0.64562400  0.02889600  0.66934200  1
  F  F0  1  0.04380200  0.61413100  0.67493500  1
  F  F1  1  0.11122500  0.10644600  0.70885600  1
  F  F2  1  0.42713500  0.43223500  0.36715000  1
  F  F3  1  0.89832800  0.90038400  0.28696000  1
  F  F4  1  0.96275200  0.38809800  0.32272500  1
  F  F5  1  0.30414100  0.68346700  0.00311900  1
  F  F6  1  0.68505700  0.30686200  0.00116700  1
loop_
_geom_bond_atom_site_label_1
_geom_bond_atom_site_label_2
_geom_bond_distance
_geom_bond_site_symmetry_2
Fe0 O0 1.890188 1_545
Fe0 O2 1.906870 1_554
Fe1 O0 1.922474 1_555
Fe1 O3 2.026917 1_555
Fe1 O1 2.047429 1_555
Fe2 O4 1.921815 1_555
Fe2 O3 1.935131 1_555
Fe2 O2 1.966685 1_555
Fe3 O4 1.904846 1_565
Fe3 O1 2.031541 1_556
Fe3 O3 2.032191 1_555
Fe4 O4 2.008863 1_455
Fe4 O0 2.019651 1_545
Fe5 O1 1.937648 1_556
Fe5 O2 2.003082 1_665
F0 Fe3 2.042416 1_455
F0 Fe2 2.137259 1_555
F0 Fe4 2.188415 1_565
F1 Fe5 1.978385 1_445
F1 Fe4 2.104856 1_555
F1 Fe2 2.146387 1_555
F2 Fe1 2.060834 1_555
F2 Fe0 2.173561 1_555
F2 Fe2 2.238377 1_555
F3 Fe5 2.005327 1_554
F3 Fe1 2.048800 1_555
F3 Fe4 2.129889 1_665
F4 Fe0 2.011341 1_655
F4 Fe1 2.131093 1_555
F4 Fe4 2.201661 1_655
F5 Fe3 2.103691 1_554
F5 Fe5 2.111012 1_454
F5 Fe0 2.144365 1_555
F6 Fe0 2.047691 1_555
F6 Fe5 2.112256 1_544
F6 Fe3 2.203715 1_554
