# generated using pymatgen
data_K4Ti3Mn(PO4)6
_symmetry_space_group_name_H-M   'P 1'
_cell_length_a   10.02292900
_cell_length_b   10.05369500
_cell_length_c   10.05663861
_cell_angle_alpha   89.96755952
_cell_angle_beta   90.00000000
_cell_angle_gamma   90.00000000
_symmetry_Int_Tables_number   1
_chemical_formula_structural   K4Ti3Mn(PO4)6
_chemical_formula_sum   'K8 Ti6 Mn2 P12 O48'
_cell_volume   1013.38187899
_cell_formula_units_Z   2
loop_
 _symmetry_equiv_pos_site_id
 _symmetry_equiv_pos_as_xyz
  1  'x, y, z'
loop_
 _atom_site_type_symbol
 _atom_site_label
 _atom_site_symmetry_multiplicity
 _atom_site_fract_x
 _atom_site_fract_y
 _atom_site_fract_z
 _atom_site_occupancy
  K  K0  1  0.06394200  0.19033100  0.06254700  1
  K  K1  1  0.79696200  0.05197500  0.71146800  1
  K  K2  1  0.29696200  0.94802500  0.28853200  1
  K  K3  1  0.56394200  0.80966900  0.93745300  1
  K  K4  1  0.93215500  0.67784700  0.43072600  1
  K  K5  1  0.20340600  0.54185000  0.80613700  1
  K  K6  1  0.70340600  0.45815000  0.19386300  1
  K  K7  1  0.43215500  0.32215300  0.56927400  1
  Ti  Ti0  1  0.41524900  0.16683300  0.91272000  1
  Ti  Ti1  1  0.63980100  0.10847800  0.35716900  1
  Ti  Ti2  1  0.13980100  0.89152200  0.64283100  1
  Ti  Ti3  1  0.91524900  0.83316700  0.08728000  1
  Ti  Ti4  1  0.58815800  0.65992300  0.58782200  1
  Ti  Ti5  1  0.08815800  0.34007700  0.41217800  1
  Mn  Mn0  1  0.35507800  0.60502600  0.14619800  1
  Mn  Mn1  1  0.85507800  0.39497400  0.85380200  1
  P  P0  1  0.13246900  0.20851400  0.72330600  1
  P  P1  1  0.72386700  0.11612800  0.04329300  1
  P  P2  1  0.95897400  0.02472000  0.37268300  1
  P  P3  1  0.45897400  0.97528000  0.62731700  1
  P  P4  1  0.22386700  0.88387200  0.95670700  1
  P  P5  1  0.63246900  0.79148600  0.27669400  1
  P  P6  1  0.87701300  0.71080300  0.77044600  1
  P  P7  1  0.26974400  0.62791100  0.46267500  1
  P  P8  1  0.03992300  0.52061400  0.12690000  1
  P  P9  1  0.53992300  0.47938600  0.87310000  1
  P  P10  1  0.76974400  0.37208900  0.53732500  1
  P  P11  1  0.37701300  0.28919700  0.22955400  1
  O  O0  1  0.35657000  0.24593900  0.08219000  1
  O  O1  1  0.79853400  0.21421400  0.95703600  1
  O  O2  1  0.27032700  0.22611000  0.79286000  1
  O  O3  1  0.47187900  0.18617000  0.29930800  1
  O  O4  1  0.72489000  0.16277500  0.19182800  1
  O  O5  1  0.00512900  0.17027200  0.35231800  1
  O  O6  1  0.57610500  0.09668600  0.99862900  1
  O  O7  1  0.08864700  0.05971700  0.72485900  1
  O  O8  1  0.47947500  0.05102400  0.75983100  1
  O  O9  1  0.54750800  0.04825900  0.52329800  1
  O  O10  1  0.81172500  0.02203500  0.42044900  1
  O  O11  1  0.29448700  0.02112300  0.96914600  1
  O  O12  1  0.79448700  0.97887700  0.03085400  1
  O  O13  1  0.31172500  0.97796500  0.57955100  1
  O  O14  1  0.04750800  0.95174100  0.47670200  1
  O  O15  1  0.97947500  0.94897600  0.24016900  1
  O  O16  1  0.58864700  0.94028300  0.27514100  1
  O  O17  1  0.07610500  0.90331400  0.00137100  1
  O  O18  1  0.50512900  0.82972800  0.64768200  1
  O  O19  1  0.22489000  0.83722500  0.80817200  1
  O  O20  1  0.97187900  0.81383000  0.70069200  1
  O  O21  1  0.77032700  0.77389000  0.20714000  1
  O  O22  1  0.29853400  0.78578600  0.04296400  1
  O  O23  1  0.85657000  0.75406100  0.91781000  1
  O  O24  1  0.65047200  0.74714900  0.42372800  1
  O  O25  1  0.19854600  0.72515300  0.56204200  1
  O  O26  1  0.74108600  0.72693800  0.69635900  1
  O  O27  1  0.53196800  0.70884300  0.20072900  1
  O  O28  1  0.25678900  0.68317400  0.32288600  1
  O  O29  1  0.99929700  0.67128000  0.14590200  1
  O  O30  1  0.41773700  0.60892100  0.50563500  1
  O  O31  1  0.93499600  0.57213600  0.75692800  1
  O  O32  1  0.53026300  0.54574900  0.73047800  1
  O  O33  1  0.43794800  0.55151600  0.95770800  1
  O  O34  1  0.18098300  0.50917000  0.07331900  1
  O  O35  1  0.69789900  0.50847600  0.51731300  1
  O  O36  1  0.19789900  0.49152400  0.48268700  1
  O  O37  1  0.68098300  0.49083000  0.92668100  1
  O  O38  1  0.93794800  0.44848400  0.04229200  1
  O  O39  1  0.03026300  0.45425100  0.26952200  1
  O  O40  1  0.43499600  0.42786400  0.24307200  1
  O  O41  1  0.91773700  0.39107900  0.49436500  1
  O  O42  1  0.49929700  0.32872000  0.85409800  1
  O  O43  1  0.75678900  0.31682600  0.67711400  1
  O  O44  1  0.03196800  0.29115700  0.79927100  1
  O  O45  1  0.24108600  0.27306200  0.30364100  1
  O  O46  1  0.69854600  0.27484700  0.43795800  1
  O  O47  1  0.15047200  0.25285100  0.57627200  1
loop_
_geom_bond_atom_site_label_1
_geom_bond_atom_site_label_2
_geom_bond_distance
_geom_bond_site_symmetry_2
K0 O44 2.852606 1_554
K0 O1 2.873978 1_454
K0 O38 2.893387 1_455
K0 O17 2.953295 1_545
K0 O5 2.979865 1_555
K0 O0 2.992345 1_555
K0 O11 3.019530 1_554
K0 O45 3.118519 1_555
K0 O15 3.128990 1_445
K1 O43 2.714882 1_555
K1 O7 2.927675 1_655
K1 O10 2.945999 1_555
K1 O1 2.960434 1_555
K1 O20 2.969521 1_545
K1 O9 3.135888 1_555
K1 O8 3.219118 1_555
K1 O12 3.294639 1_546
K1 O26 3.319030 1_545
K2 O28 2.714882 1_555
K2 O16 2.927675 1_555
K2 O13 2.945999 1_555
K2 O22 2.960434 1_555
K2 O3 2.969521 1_565
K2 O14 3.135888 1_555
K2 O15 3.219118 1_455
K2 O11 3.294639 1_564
K2 O45 3.319030 1_565
K3 O27 2.852606 1_556
K3 O22 2.873978 1_556
K3 O33 2.893387 1_555
K3 O6 2.953295 1_565
K3 O18 2.979865 1_555
K3 O23 2.992345 1_555
K3 O12 3.019530 1_556
K3 O26 3.118519 1_555
K3 O8 3.128990 1_565
K4 O24 2.908832 1_555
K4 O21 2.935407 1_555
K4 O39 2.941532 1_655
K4 O29 2.943140 1_555
K4 O41 2.956438 1_555
K4 O25 3.016601 1_655
K4 O14 3.022339 1_655
K4 O35 3.028018 1_555
K4 O20 3.066387 1_555
K5 O34 2.716095 1_556
K5 O31 2.752256 1_455
K5 O33 2.803451 1_555
K5 O19 2.977489 1_555
K5 O44 3.051217 1_555
K5 O25 3.069096 1_555
K5 O2 3.247265 1_555
K5 O36 3.292680 1_555
K5 O32 3.363485 1_555
K6 O37 2.716095 1_554
K6 O40 2.752256 1_555
K6 O38 2.803451 1_555
K6 O4 2.977489 1_555
K6 O27 3.051217 1_555
K6 O46 3.069096 1_555
K6 O21 3.247265 1_555
K6 O35 3.292680 1_555
K6 O39 3.363485 1_655
K7 O47 2.908832 1_555
K7 O2 2.935407 1_555
K7 O32 2.941532 1_555
K7 O42 2.943140 1_555
K7 O30 2.956438 1_555
K7 O46 3.016601 1_555
K7 O9 3.022339 1_555
K7 O36 3.028018 1_555
K7 O3 3.066387 1_555
Mn0 O34 2.124034 1_555
Mn0 O27 2.129358 1_555
Mn0 O33 2.138615 1_554
Mn0 O22 2.167830 1_555
Mn0 O28 2.178693 1_555
Mn0 O40 2.182019 1_555
Mn1 O37 2.124034 1_555
Mn1 O44 2.129358 1_655
Mn1 O38 2.138615 1_556
Mn1 O1 2.167830 1_555
Mn1 O43 2.178693 1_555
Mn1 O31 2.182019 1_555
O0 P11 1.558248 1_555
O0 Ti0 1.970935 1_554
O1 P1 1.511301 1_556
O2 P0 1.558818 1_555
O2 Ti0 1.979189 1_555
O3 P11 1.571063 1_555
O3 Ti1 1.944456 1_555
O4 P1 1.565938 1_555
O4 Ti1 1.946566 1_555
O5 P2 1.548213 1_455
O5 Ti5 1.992617 1_555
O6 P1 1.559950 1_556
O6 Ti0 1.960212 1_555
O7 P0 1.559176 1_555
O7 Ti2 1.950481 1_545
O8 P3 1.548938 1_545
O8 Ti0 2.033738 1_555
O9 P3 1.555369 1_545
O9 Ti1 2.003082 1_555
O10 P2 1.552304 1_555
O10 Ti1 2.031994 1_555
O11 P4 1.555931 1_545
O11 Ti0 1.982954 1_555
O12 P1 1.555931 1_565
O12 Ti3 1.982954 1_555
O13 P3 1.552304 1_555
O13 Ti2 2.031994 1_555
O14 P2 1.555369 1_465
O14 Ti2 2.003082 1_555
O15 P2 1.548938 1_565
O15 Ti3 2.033738 1_555
O16 P5 1.559176 1_555
O16 Ti1 1.950481 1_565
O17 P4 1.559950 1_554
O17 Ti3 1.960212 1_455
O18 P3 1.548213 1_555
O18 Ti4 1.992617 1_555
O19 P4 1.565938 1_555
O19 Ti2 1.946566 1_555
O20 P6 1.571063 1_555
O20 Ti2 1.944456 1_655
O21 P5 1.558818 1_555
O21 Ti3 1.979189 1_555
O22 P4 1.511301 1_554
O23 P6 1.558248 1_555
O23 Ti3 1.970935 1_556
O24 P5 1.554659 1_555
O24 Ti4 1.969962 1_555
O25 P7 1.569945 1_555
O25 Ti2 1.950895 1_555
O26 P6 1.561217 1_555
O26 Ti4 1.998903 1_555
O27 P5 1.513065 1_555
O28 P7 1.516891 1_555
O29 P8 1.580227 1_655
O29 Ti3 1.924859 1_555
O30 P7 1.556682 1_555
O30 Ti4 1.965760 1_555
O31 P6 1.516575 1_555
O32 P9 1.584503 1_555
O32 Ti4 1.926306 1_555
O33 P9 1.514999 1_555
O34 P8 1.517428 1_555
O35 P10 1.561698 1_555
O35 Ti4 2.008028 1_555
O36 P7 1.561698 1_555
O36 Ti5 2.008028 1_555
O37 P9 1.517428 1_555
O38 P8 1.514999 1_655
O39 P8 1.584503 1_555
O39 Ti5 1.926306 1_555
O40 P11 1.516575 1_555
O41 P10 1.556682 1_555
O41 Ti5 1.965760 1_655
O42 P9 1.580227 1_555
O42 Ti0 1.924859 1_555
O43 P10 1.516891 1_555
O44 P0 1.513065 1_555
O45 P11 1.561217 1_555
O45 Ti5 1.998903 1_555
O46 P10 1.569945 1_555
O46 Ti1 1.950895 1_555
O47 P0 1.554659 1_555
O47 Ti5 1.969962 1_555
