# generated using pymatgen
data_EuY2O4
_symmetry_space_group_name_H-M   'P 1'
_cell_length_a   10.16602503
_cell_length_b   11.99776971
_cell_length_c   3.42186960
_cell_angle_alpha   89.83659985
_cell_angle_beta   90.19810852
_cell_angle_gamma   90.18368408
_symmetry_Int_Tables_number   1
_chemical_formula_structural   EuY2O4
_chemical_formula_sum   'Eu4 Y8 O16'
_cell_volume   417.35783553
_cell_formula_units_Z   4
loop_
 _symmetry_equiv_pos_site_id
 _symmetry_equiv_pos_as_xyz
  1  'x, y, z'
loop_
 _atom_site_type_symbol
 _atom_site_label
 _atom_site_symmetry_multiplicity
 _atom_site_fract_x
 _atom_site_fract_y
 _atom_site_fract_z
 _atom_site_occupancy
  Eu  Eu0  1  0.24425200  0.35134000  0.75522900  1
  Eu  Eu1  1  0.25314100  0.84819900  0.24778600  1
  Eu  Eu2  1  0.74592300  0.14947600  0.75603300  1
  Eu  Eu3  1  0.75452000  0.64998300  0.25638300  1
  Y  Y0  1  0.07497700  0.11274800  0.74968900  1
  Y  Y1  1  0.07824300  0.60940000  0.75468100  1
  Y  Y2  1  0.42068100  0.10918400  0.25072600  1
  Y  Y3  1  0.42659700  0.61244800  0.24876600  1
  Y  Y4  1  0.57376600  0.38661800  0.75120400  1
  Y  Y5  1  0.57911800  0.88977300  0.75534800  1
  Y  Y6  1  0.91937400  0.38967400  0.25346100  1
  Y  Y7  1  0.92560300  0.88752500  0.25138800  1
  O  O0  1  0.02057400  0.71727300  0.25441500  1
  O  O1  1  0.07962500  0.92298600  0.74876600  1
  O  O2  1  0.12379700  0.47642100  0.25428800  1
  O  O3  1  0.20938000  0.17748600  0.25040200  1
  O  O4  1  0.29103600  0.67337800  0.74978600  1
  O  O5  1  0.37345800  0.97691700  0.75293900  1
  O  O6  1  0.41973600  0.42243800  0.25347700  1
  O  O7  1  0.48383800  0.21475600  0.75083600  1
  O  O8  1  0.51832100  0.78354200  0.25513400  1
  O  O9  1  0.58031700  0.57689600  0.75143000  1
  O  O10  1  0.62716600  0.02184000  0.25492900  1
  O  O11  1  0.70763600  0.32407900  0.25118200  1
  O  O12  1  0.79159000  0.82333700  0.75270600  1
  O  O13  1  0.87320700  0.52283200  0.75264300  1
  O  O14  1  0.92154300  0.07678800  0.24884100  1
  O  O15  1  0.97867100  0.28251700  0.75304200  1
loop_
_geom_bond_atom_site_label_1
_geom_bond_atom_site_label_2
_geom_bond_distance
_geom_bond_site_symmetry_2
Eu0 O2 2.583122 1_555
Eu0 O2 2.590125 1_556
Eu0 O6 2.606632 1_556
Eu0 O6 2.619375 1_555
Eu0 O3 2.706805 1_556
Eu0 O3 2.733525 1_555
Eu0 O15 2.820807 1_455
Eu0 O7 2.940049 1_555
Eu1 O5 2.595304 1_554
Eu1 O1 2.610192 1_554
Eu1 O5 2.618678 1_555
Eu1 O1 2.625892 1_555
Eu1 O4 2.734698 1_555
Eu1 O4 2.735286 1_554
Eu1 O8 2.807617 1_555
Eu1 O0 2.834462 1_555
Eu2 O10 2.589293 1_556
Eu2 O10 2.594535 1_555
Eu2 O14 2.602406 1_556
Eu2 O14 2.645791 1_555
Eu2 O11 2.727762 1_556
Eu2 O11 2.739378 1_555
Eu2 O7 2.779486 1_555
Eu2 O15 2.849971 1_555
Eu3 O13 2.578679 1_555
Eu3 O9 2.603286 1_555
Eu3 O13 2.606817 1_554
Eu3 O9 2.620744 1_554
Eu3 O12 2.713474 1_555
Eu3 O12 2.723486 1_554
Eu3 O0 2.820175 1_655
Eu3 O8 2.891035 1_555
O0 Y1 2.221363 1_555
O0 Y1 2.228757 1_554
O0 Y7 2.262102 1_455
O1 Y0 2.277374 1_565
O1 Y7 2.347514 1_455
O1 Y7 2.366637 1_456
O2 Y6 2.321230 1_455
O2 Y1 2.380406 1_554
O2 Y1 2.391157 1_555
O3 Y2 2.301542 1_555
O3 Y0 2.321729 1_554
O3 Y0 2.321832 1_555
O4 Y1 2.293186 1_555
O4 Y3 2.309120 1_556
O4 Y3 2.324393 1_555
O5 Y5 2.340570 1_555
O5 Y2 2.378039 1_566
O5 Y2 2.384802 1_565
O6 Y3 2.280552 1_555
O6 Y4 2.349275 1_555
O6 Y4 2.370182 1_554
O7 Y2 2.220949 1_556
O7 Y2 2.223673 1_555
O7 Y4 2.252861 1_555
O8 Y5 2.218347 1_554
O8 Y5 2.221784 1_555
O8 Y3 2.252017 1_555
O9 Y4 2.283672 1_555
O9 Y3 2.355214 1_556
O9 Y3 2.358837 1_555
O10 Y2 2.349156 1_555
O10 Y5 2.380507 1_545
O10 Y5 2.382513 1_544
O11 Y6 2.289515 1_555
O11 Y4 2.307656 1_554
O11 Y4 2.317896 1_555
O12 Y5 2.304826 1_555
O12 Y7 2.312083 1_556
O12 Y7 2.322456 1_555
O13 Y1 2.325849 1_655
O13 Y6 2.386024 1_556
O13 Y6 2.390866 1_555
O14 Y7 2.271233 1_545
O14 Y0 2.353256 1_655
O14 Y0 2.355089 1_654
O15 Y6 2.219002 1_555
O15 Y6 2.230054 1_556
O15 Y0 2.262835 1_655
