# generated using pymatgen
data_NaV5O10
_symmetry_space_group_name_H-M   'P 1'
_cell_length_a   5.61303100
_cell_length_b   5.71149670
_cell_length_c   7.13283166
_cell_angle_alpha   83.33819362
_cell_angle_beta   111.03765437
_cell_angle_gamma   115.51031780
_symmetry_Int_Tables_number   1
_chemical_formula_structural   NaV5O10
_chemical_formula_sum   'Na1 V5 O10'
_cell_volume   192.41813905
_cell_formula_units_Z   1
loop_
 _symmetry_equiv_pos_site_id
 _symmetry_equiv_pos_as_xyz
  1  'x, y, z'
loop_
 _atom_site_type_symbol
 _atom_site_label
 _atom_site_symmetry_multiplicity
 _atom_site_fract_x
 _atom_site_fract_y
 _atom_site_fract_z
 _atom_site_occupancy
  Na  Na0  1  0.55731900  0.98187100  0.26876900  1
  V  V0  1  0.98091700  0.00474000  0.00588300  1
  V  V1  1  0.19889400  0.48635200  0.40094100  1
  V  V2  1  0.64428700  0.51360700  0.16134400  1
  V  V3  1  0.41685600  0.00279000  0.77176800  1
  V  V4  1  0.77438900  0.50246800  0.62962200  1
  O  O0  1  0.41298000  0.21259600  0.01125800  1
  O  O1  1  0.82455000  0.36107900  0.42100800  1
  O  O2  1  0.01472900  0.68615900  0.16675900  1
  O  O3  1  0.59084200  0.79504100  0.98722600  1
  O  O4  1  0.07681500  0.19609500  0.21409000  1
  O  O5  1  0.40206500  0.31896100  0.62572400  1
  O  O6  1  0.57949000  0.63031700  0.37199000  1
  O  O7  1  0.99653300  0.80231900  0.78000000  1
  O  O8  1  0.81051000  0.21313900  0.80669600  1
  O  O9  1  0.31882500  0.79246500  0.57692600  1
loop_
_geom_bond_atom_site_label_1
_geom_bond_atom_site_label_2
_geom_bond_distance
_geom_bond_site_symmetry_2
Na0 O6 2.096586 1_555
Na0 O1 2.167477 1_565
Na0 O0 2.248626 1_565
Na0 O3 2.479590 1_554
Na0 O2 2.630780 1_555
Na0 O4 2.790092 1_665
Na0 O9 2.847309 1_555
O0 V2 1.814920 1_555
O0 V0 2.180883 1_455
O0 V3 2.208751 1_554
O1 V4 1.928991 1_555
O1 V1 1.960790 1_655
O1 V2 2.062165 1_555
O2 V2 1.866104 1_455
O2 V0 2.078528 1_465
O2 V1 2.120191 1_555
O3 V0 1.953236 1_566
O3 V2 1.975064 1_556
O3 V3 2.054494 1_565
O4 V0 1.727913 1_455
O4 V1 1.967897 1_555
O5 V4 1.882866 1_555
O5 V3 1.995892 1_555
O5 V1 2.013941 1_555
O6 V2 1.915121 1_555
O6 V4 2.010053 1_555
O6 V1 2.011671 1_555
O7 V4 1.806898 1_555
O7 V0 2.135673 1_566
O7 V3 2.153540 1_665
O8 V3 1.943042 1_555
O8 V0 1.990679 1_556
O8 V4 1.996900 1_555
O9 V3 1.716467 1_565
O9 V1 1.993587 1_555
