# generated using pymatgen
data_LuP5O14
_symmetry_space_group_name_H-M   'P 1'
_cell_length_a   8.76049900
_cell_length_b   8.93554200
_cell_length_c   12.80245100
_cell_angle_alpha   90.00000000
_cell_angle_beta   90.00000000
_cell_angle_gamma   90.00000000
_symmetry_Int_Tables_number   1
_chemical_formula_structural   LuP5O14
_chemical_formula_sum   'Lu4 P20 O56'
_cell_volume   1002.17339028
_cell_formula_units_Z   4
loop_
 _symmetry_equiv_pos_site_id
 _symmetry_equiv_pos_as_xyz
  1  'x, y, z'
loop_
 _atom_site_type_symbol
 _atom_site_label
 _atom_site_symmetry_multiplicity
 _atom_site_fract_x
 _atom_site_fract_y
 _atom_site_fract_z
 _atom_site_occupancy
  Lu  Lu0  1  0.02172600  0.06095200  0.25000000  1
  Lu  Lu1  1  0.47827400  0.56095200  0.75000000  1
  Lu  Lu2  1  0.52172600  0.43904800  0.25000000  1
  Lu  Lu3  1  0.97827400  0.93904800  0.75000000  1
  P  P0  1  0.00513600  0.29749500  0.58341000  1
  P  P1  1  0.00513600  0.29749500  0.91659000  1
  P  P2  1  0.06912300  0.51350300  0.75000000  1
  P  P3  1  0.25439300  0.27538000  0.06846900  1
  P  P4  1  0.25439300  0.27538000  0.43153100  1
  P  P5  1  0.24560700  0.77538000  0.56846900  1
  P  P6  1  0.24560700  0.77538000  0.93153100  1
  P  P7  1  0.43087700  0.01350300  0.25000000  1
  P  P8  1  0.49486400  0.79749500  0.41659000  1
  P  P9  1  0.49486400  0.79749500  0.08341000  1
  P  P10  1  0.50513600  0.20250500  0.91659000  1
  P  P11  1  0.50513600  0.20250500  0.58341000  1
  P  P12  1  0.56912300  0.98649700  0.75000000  1
  P  P13  1  0.75439300  0.22462000  0.06846900  1
  P  P14  1  0.75439300  0.22462000  0.43153100  1
  P  P15  1  0.74560700  0.72462000  0.56846900  1
  P  P16  1  0.74560700  0.72462000  0.93153100  1
  P  P17  1  0.93087700  0.48649700  0.25000000  1
  P  P18  1  0.99486400  0.70250500  0.08341000  1
  P  P19  1  0.99486400  0.70250500  0.41659000  1
  O  O0  1  0.99808900  0.84810800  0.13748900  1
  O  O1  1  0.99808900  0.84810800  0.36251100  1
  O  O2  1  0.03176900  0.67499700  0.75000000  1
  O  O3  1  0.02770100  0.56134400  0.15375400  1
  O  O4  1  0.02770100  0.56134400  0.34624600  1
  O  O5  1  0.11755700  0.67896400  0.50498800  1
  O  O6  1  0.11755700  0.67896400  0.99501200  1
  O  O7  1  0.15317200  0.16267900  0.11903000  1
  O  O8  1  0.15317200  0.16267900  0.38097000  1
  O  O9  1  0.16140500  0.34568700  0.53020300  1
  O  O10  1  0.16140500  0.34568700  0.96979700  1
  O  O11  1  0.17186800  0.89917200  0.62735400  1
  O  O12  1  0.17186800  0.89917200  0.87264600  1
  O  O13  1  0.22840400  0.45376800  0.75000000  1
  O  O14  1  0.27159600  0.95376800  0.25000000  1
  O  O15  1  0.32813200  0.39917200  0.12735400  1
  O  O16  1  0.32813200  0.39917200  0.37264600  1
  O  O17  1  0.33859500  0.84568700  0.03020300  1
  O  O18  1  0.33859500  0.84568700  0.46979700  1
  O  O19  1  0.34682800  0.66267900  0.61903000  1
  O  O20  1  0.34682800  0.66267900  0.88097000  1
  O  O21  1  0.38244300  0.17896400  0.00498800  1
  O  O22  1  0.38244300  0.17896400  0.49501200  1
  O  O23  1  0.47229900  0.06134400  0.65375400  1
  O  O24  1  0.47229900  0.06134400  0.84624600  1
  O  O25  1  0.46823100  0.17499700  0.25000000  1
  O  O26  1  0.50191100  0.34810800  0.63748900  1
  O  O27  1  0.50191100  0.34810800  0.86251100  1
  O  O28  1  0.49808900  0.65189200  0.13748900  1
  O  O29  1  0.49808900  0.65189200  0.36251100  1
  O  O30  1  0.53176900  0.82500300  0.75000000  1
  O  O31  1  0.52770100  0.93865600  0.15375400  1
  O  O32  1  0.52770100  0.93865600  0.34624600  1
  O  O33  1  0.61755700  0.82103600  0.50498800  1
  O  O34  1  0.61755700  0.82103600  0.99501200  1
  O  O35  1  0.65317200  0.33732100  0.11903000  1
  O  O36  1  0.65317200  0.33732100  0.38097000  1
  O  O37  1  0.66140500  0.15431300  0.53020300  1
  O  O38  1  0.66140500  0.15431300  0.96979700  1
  O  O39  1  0.67186800  0.60082800  0.62735400  1
  O  O40  1  0.67186800  0.60082800  0.87264600  1
  O  O41  1  0.72840400  0.04623200  0.75000000  1
  O  O42  1  0.77159600  0.54623200  0.25000000  1
  O  O43  1  0.82813200  0.10082800  0.12735400  1
  O  O44  1  0.82813200  0.10082800  0.37264600  1
  O  O45  1  0.83859500  0.65431300  0.03020300  1
  O  O46  1  0.83859500  0.65431300  0.46979700  1
  O  O47  1  0.84682800  0.83732100  0.88097000  1
  O  O48  1  0.84682800  0.83732100  0.61903000  1
  O  O49  1  0.88244300  0.32103600  0.00498800  1
  O  O50  1  0.88244300  0.32103600  0.49501200  1
  O  O51  1  0.97229900  0.43865600  0.65375400  1
  O  O52  1  0.97229900  0.43865600  0.84624600  1
  O  O53  1  0.96823100  0.32500300  0.25000000  1
  O  O54  1  0.00191100  0.15189200  0.63748900  1
  O  O55  1  0.00191100  0.15189200  0.86251100  1
loop_
_geom_bond_atom_site_label_1
_geom_bond_atom_site_label_2
_geom_bond_distance
_geom_bond_site_symmetry_2
Lu0 O8 2.227943 1_555
Lu0 O7 2.227943 1_555
Lu0 O44 2.338534 1_455
Lu0 O43 2.338534 1_455
Lu0 O14 2.389339 1_545
Lu0 O0 2.394747 1_445
Lu0 O1 2.394747 1_445
Lu0 O53 2.405531 1_455
Lu1 O20 2.227943 1_555
Lu1 O19 2.227943 1_555
Lu1 O39 2.338534 1_555
Lu1 O40 2.338534 1_555
Lu1 O13 2.389339 1_555
Lu1 O26 2.394747 1_555
Lu1 O27 2.394747 1_555
Lu1 O30 2.405531 1_555
Lu2 O36 2.227943 1_555
Lu2 O35 2.227943 1_555
Lu2 O15 2.338534 1_555
Lu2 O16 2.338534 1_555
Lu2 O42 2.389339 1_555
Lu2 O28 2.394747 1_555
Lu2 O29 2.394747 1_555
Lu2 O25 2.405531 1_555
Lu3 O47 2.227943 1_555
Lu3 O48 2.227943 1_555
Lu3 O12 2.338534 1_655
Lu3 O11 2.338534 1_655
Lu3 O41 2.389339 1_565
Lu3 O54 2.394747 1_665
Lu3 O55 2.394747 1_665
Lu3 O2 2.405531 1_655
O0 P18 1.474058 1_555
O1 P19 1.474058 1_555
O2 P2 1.479676 1_555
O3 P18 1.576323 1_455
O3 P17 1.638615 1_455
O4 P19 1.576323 1_455
O4 P17 1.638615 1_455
O5 P19 1.574905 1_455
O5 P5 1.631297 1_555
O6 P18 1.574905 1_456
O6 P6 1.631297 1_555
O7 P3 1.489786 1_555
O8 P4 1.489786 1_555
O9 P0 1.588580 1_555
O9 P4 1.629131 1_555
O10 P1 1.588580 1_555
O10 P3 1.629131 1_556
O11 P5 1.486335 1_555
O12 P6 1.486335 1_555
O13 P2 1.493986 1_555
O14 P7 1.493986 1_565
O15 P3 1.486335 1_555
O16 P4 1.486335 1_555
O17 P9 1.588580 1_555
O17 P6 1.629131 1_554
O18 P8 1.588580 1_555
O18 P5 1.629131 1_555
O19 P5 1.489786 1_555
O20 P6 1.489786 1_555
O21 P10 1.574905 1_554
O21 P3 1.631297 1_555
O22 P11 1.574905 1_555
O22 P4 1.631297 1_555
O23 P11 1.576323 1_555
O23 P12 1.638615 1_545
O24 P10 1.576323 1_555
O24 P12 1.638615 1_545
O25 P7 1.479676 1_555
O26 P11 1.474058 1_555
O27 P10 1.474058 1_555
O28 P9 1.474058 1_555
O29 P8 1.474058 1_555
O30 P12 1.479676 1_555
O31 P9 1.576323 1_555
O31 P7 1.638615 1_565
O32 P8 1.576323 1_555
O32 P7 1.638615 1_565
O33 P8 1.574905 1_555
O33 P15 1.631297 1_555
O34 P9 1.574905 1_556
O34 P16 1.631297 1_555
O35 P13 1.489786 1_555
O36 P14 1.489786 1_555
O37 P11 1.588580 1_555
O37 P14 1.629131 1_555
O38 P10 1.588580 1_555
O38 P13 1.629131 1_556
O39 P15 1.486335 1_555
O40 P16 1.486335 1_555
O41 P12 1.493986 1_545
O42 P17 1.493986 1_555
O43 P13 1.486335 1_555
O44 P14 1.486335 1_555
O45 P18 1.588580 1_555
O45 P16 1.629131 1_554
O46 P19 1.588580 1_555
O46 P15 1.629131 1_555
O47 P16 1.489786 1_555
O48 P15 1.489786 1_555
O49 P1 1.574905 1_654
O49 P13 1.631297 1_555
O50 P0 1.574905 1_655
O50 P14 1.631297 1_555
O51 P0 1.576323 1_655
O51 P2 1.638615 1_655
O52 P1 1.576323 1_655
O52 P2 1.638615 1_655
O53 P17 1.479676 1_555
O54 P0 1.474058 1_555
O55 P1 1.474058 1_555
