# generated using pymatgen
data_NbFe3Cu2(PO4)6
_symmetry_space_group_name_H-M   'P 1'
_cell_length_a   8.65130373
_cell_length_b   8.65130389
_cell_length_c   8.65130419
_cell_angle_alpha   60.19655586
_cell_angle_beta   60.19655549
_cell_angle_gamma   60.19655225
_symmetry_Int_Tables_number   1
_chemical_formula_structural   NbFe3Cu2(PO4)6
_chemical_formula_sum   'Nb1 Fe3 Cu2 P6 O24'
_cell_volume   459.89468776
_cell_formula_units_Z   1
loop_
 _symmetry_equiv_pos_site_id
 _symmetry_equiv_pos_as_xyz
  1  'x, y, z'
loop_
 _atom_site_type_symbol
 _atom_site_label
 _atom_site_symmetry_multiplicity
 _atom_site_fract_x
 _atom_site_fract_y
 _atom_site_fract_z
 _atom_site_occupancy
  Nb  Nb0  1  0.85813500  0.85813500  0.85813500  1
  Fe  Fe0  1  0.14547200  0.14547200  0.14547200  1
  Fe  Fe1  1  0.35594800  0.35594800  0.35594800  1
  Fe  Fe2  1  0.64473300  0.64473300  0.64473300  1
  Cu  Cu0  1  0.00606600  0.00606600  0.00606600  1
  Cu  Cu1  1  0.50047200  0.50047200  0.50047200  1
  P  P0  1  0.04555400  0.74770800  0.45116900  1
  P  P1  1  0.45116900  0.04555400  0.74770800  1
  P  P2  1  0.74770800  0.45116900  0.04555400  1
  P  P3  1  0.25719500  0.53623200  0.95674700  1
  P  P4  1  0.53623200  0.95674700  0.25719500  1
  P  P5  1  0.95674700  0.25719500  0.53623200  1
  O  O0  1  0.11594900  0.30939100  0.50564500  1
  O  O1  1  0.30939100  0.50564500  0.11594900  1
  O  O2  1  0.05938400  0.91446400  0.26255400  1
  O  O3  1  0.50564500  0.11594900  0.30939100  1
  O  O4  1  0.99732000  0.80981300  0.61769000  1
  O  O5  1  0.23721100  0.58607100  0.44581600  1
  O  O6  1  0.26255400  0.05938400  0.91446400  1
  O  O7  1  0.44581600  0.23721100  0.58607100  1
  O  O8  1  0.19172500  0.38312100  0.99425800  1
  O  O9  1  0.58607100  0.44581600  0.23721100  1
  O  O10  1  0.08904900  0.73294400  0.93871900  1
  O  O11  1  0.38312100  0.99425800  0.19172500  1
  O  O12  1  0.61769000  0.99732000  0.80981300  1
  O  O13  1  0.91446400  0.26255400  0.05938400  1
  O  O14  1  0.41585500  0.55672700  0.76167800  1
  O  O15  1  0.80981300  0.61769000  0.99732000  1
  O  O16  1  0.55672700  0.76167800  0.41585500  1
  O  O17  1  0.73294400  0.93871900  0.08904900  1
  O  O18  1  0.76167800  0.41585500  0.55672700  1
  O  O19  1  0.99425800  0.19172500  0.38312100  1
  O  O20  1  0.49393100  0.88446500  0.69078900  1
  O  O21  1  0.93871900  0.08904900  0.73294400  1
  O  O22  1  0.69078900  0.49393100  0.88446500  1
  O  O23  1  0.88446500  0.69078900  0.49393100  1
loop_
_geom_bond_atom_site_label_1
_geom_bond_atom_site_label_2
_geom_bond_distance
_geom_bond_site_symmetry_2
Nb0 O12 1.955998 1_555
Nb0 O15 1.955998 1_555
Nb0 O4 1.955998 1_555
Nb0 O10 2.032971 1_655
Nb0 O21 2.032971 1_565
Nb0 O17 2.032971 1_556
Fe0 O11 1.929338 1_545
Fe0 O8 1.929339 1_554
Fe0 O19 1.929339 1_455
Fe0 O13 2.071754 1_455
Fe0 O2 2.071754 1_545
Fe0 O6 2.071754 1_554
Fe1 O3 1.946870 1_555
Fe1 O0 1.946870 1_555
Fe1 O1 1.946870 1_555
Fe1 O5 2.082077 1_555
Fe1 O9 2.082077 1_555
Fe1 O7 2.082077 1_555
Fe2 O20 1.943526 1_555
Fe2 O23 1.943526 1_555
Fe2 O22 1.943526 1_555
Fe2 O18 2.065318 1_555
Fe2 O14 2.065318 1_555
Fe2 O16 2.065318 1_555
Cu0 O13 2.161162 1_455
Cu0 O6 2.161162 1_554
Cu0 O2 2.161162 1_545
Cu0 O10 2.388400 1_544
Cu0 O17 2.388400 1_445
Cu0 O21 2.388400 1_454
Cu1 O18 2.230244 1_555
Cu1 O16 2.230244 1_555
Cu1 O14 2.230244 1_555
Cu1 O5 2.237203 1_555
Cu1 O7 2.237203 1_555
Cu1 O9 2.237203 1_555
O0 P5 1.519233 1_455
O1 P3 1.519233 1_554
O2 P0 1.547794 1_555
O3 P4 1.519233 1_545
O4 P0 1.577081 1_655
O5 P0 1.545977 1_555
O6 P1 1.547794 1_555
O7 P1 1.545977 1_555
O8 P3 1.522003 1_555
O9 P2 1.545977 1_555
O10 P3 1.592925 1_555
O11 P4 1.522003 1_555
O12 P1 1.577081 1_565
O13 P2 1.547794 1_555
O14 P3 1.550917 1_555
O15 P2 1.577081 1_556
O16 P4 1.550917 1_555
O17 P4 1.592925 1_555
O18 P5 1.550917 1_555
O19 P5 1.522003 1_555
O20 P1 1.519911 1_565
O21 P5 1.592925 1_555
O22 P2 1.519911 1_556
O23 P0 1.519911 1_655
