# generated using pymatgen
data_Li6FeCoP2(CO7)2
_symmetry_space_group_name_H-M   'P 1'
_cell_length_a   6.41546100
_cell_length_b   4.98670900
_cell_length_c   8.39748036
_cell_angle_alpha   85.41030094
_cell_angle_beta   90.00000000
_cell_angle_gamma   90.00000000
_symmetry_Int_Tables_number   1
_chemical_formula_structural   Li6FeCoP2(CO7)2
_chemical_formula_sum   'Li6 Fe1 Co1 P2 C2 O14'
_cell_volume   267.79101020
_cell_formula_units_Z   1
loop_
 _symmetry_equiv_pos_site_id
 _symmetry_equiv_pos_as_xyz
  1  'x, y, z'
loop_
 _atom_site_type_symbol
 _atom_site_label
 _atom_site_symmetry_multiplicity
 _atom_site_fract_x
 _atom_site_fract_y
 _atom_site_fract_z
 _atom_site_occupancy
  Li  Li0  1  0.50000000  0.76435500  0.09586200  1
  Li  Li1  1  0.27097200  0.24797000  0.27622700  1
  Li  Li2  1  0.72902800  0.24797000  0.27622700  1
  Li  Li3  1  0.77190200  0.75139900  0.72367000  1
  Li  Li4  1  0.22809800  0.75139900  0.72367000  1
  Li  Li5  1  0.00000000  0.23681700  0.90365000  1
  Fe  Fe0  1  0.50000000  0.20416900  0.67037600  1
  Co  Co0  1  0.00000000  0.79406200  0.33450800  1
  P  P0  1  0.50000000  0.71910600  0.41405200  1
  P  P1  1  0.00000000  0.28003400  0.58662100  1
  C  C0  1  0.00000000  0.70188000  0.03653100  1
  C  C1  1  0.50000000  0.29865000  0.96250900  1
  O  O0  1  0.00000000  0.94939500  0.07296000  1
  O  O1  1  0.50000000  0.35875100  0.11003700  1
  O  O2  1  0.00000000  0.51027700  0.15216100  1
  O  O3  1  0.31268900  0.82539800  0.30892900  1
  O  O4  1  0.68731100  0.82539800  0.30892900  1
  O  O5  1  0.00000000  0.17441900  0.41850200  1
  O  O6  1  0.50000000  0.40544300  0.43527900  1
  O  O7  1  0.00000000  0.59395100  0.56632700  1
  O  O8  1  0.50000000  0.82782900  0.58109500  1
  O  O9  1  0.18813700  0.17515000  0.69087200  1
  O  O10  1  0.81186300  0.17515000  0.69087200  1
  O  O11  1  0.50000000  0.48831000  0.84633400  1
  O  O12  1  0.00000000  0.64090900  0.88934100  1
  O  O13  1  0.50000000  0.05180400  0.92445600  1
loop_
_geom_bond_atom_site_label_1
_geom_bond_atom_site_label_2
_geom_bond_distance
_geom_bond_site_symmetry_2
Li0 O13 1.948414 1_564
Li0 O1 2.016598 1_555
Li0 O4 2.196635 1_555
Li0 O3 2.196635 1_555
Li1 O1 2.070830 1_555
Li1 O3 2.120119 1_545
Li1 O5 2.124593 1_555
Li1 O6 2.174243 1_555
Li1 O2 2.366516 1_555
Li2 O1 2.070830 1_555
Li2 O4 2.120119 1_545
Li2 O5 2.124593 1_655
Li2 O6 2.174243 1_555
Li2 O2 2.366516 1_655
Li3 O12 2.063444 1_655
Li3 O10 2.124553 1_565
Li3 O8 2.132731 1_555
Li3 O7 2.160944 1_655
Li3 O11 2.368295 1_555
Li4 O12 2.063444 1_555
Li4 O9 2.124553 1_565
Li4 O8 2.132731 1_555
Li4 O7 2.160944 1_555
Li4 O11 2.368295 1_555
Li5 O0 1.936399 1_546
Li5 O12 2.009048 1_555
Li5 O9 2.198174 1_555
Li5 O10 2.198174 1_455
Fe0 O9 2.012351 1_555
Fe0 O10 2.012351 1_555
Fe0 O8 2.075880 1_545
Fe0 O11 2.127456 1_555
Fe0 O6 2.141924 1_555
Fe0 O13 2.206861 1_555
Co0 O3 2.022226 1_555
Co0 O4 2.022226 1_455
Co0 O5 2.075859 1_565
Co0 O7 2.115308 1_555
Co0 O2 2.166610 1_555
Co0 O0 2.269727 1_555
C0 O0 1.295172 1_555
C0 O12 1.296281 1_554
C0 O2 1.306631 1_555
C1 O13 1.296263 1_555
C1 O1 1.297701 1_556
C1 O11 1.303297 1_555
O3 P0 1.558652 1_555
O4 P0 1.558652 1_555
O5 P1 1.545798 1_555
O6 P0 1.560034 1_555
O7 P1 1.561046 1_555
O8 P0 1.543808 1_555
O9 P1 1.556758 1_555
O10 P1 1.556758 1_655
