# generated using pymatgen
data_Tb2Zr2O7
_symmetry_space_group_name_H-M   'P 1'
_cell_length_a   7.35064500
_cell_length_b   7.35064500
_cell_length_c   12.68643500
_cell_angle_alpha   90.00000000
_cell_angle_beta   90.00000000
_cell_angle_gamma   90.00000000
_symmetry_Int_Tables_number   1
_chemical_formula_structural   Tb2Zr2O7
_chemical_formula_sum   'Tb8 Zr8 O28'
_cell_volume   685.47322650
_cell_formula_units_Z   4
loop_
 _symmetry_equiv_pos_site_id
 _symmetry_equiv_pos_as_xyz
  1  'x, y, z'
loop_
 _atom_site_type_symbol
 _atom_site_label
 _atom_site_symmetry_multiplicity
 _atom_site_fract_x
 _atom_site_fract_y
 _atom_site_fract_z
 _atom_site_occupancy
  Tb  Tb0  1  0.13771800  0.62712800  0.13491600  1
  Tb  Tb1  1  0.12712800  0.36228200  0.88491600  1
  Tb  Tb2  1  0.37287200  0.86228200  0.36508400  1
  Tb  Tb3  1  0.36228200  0.12712800  0.11508400  1
  Tb  Tb4  1  0.63771800  0.87287200  0.61508400  1
  Tb  Tb5  1  0.62712800  0.13771800  0.86508400  1
  Tb  Tb6  1  0.87287200  0.63771800  0.38491600  1
  Tb  Tb7  1  0.86228200  0.37287200  0.63491600  1
  Zr  Zr0  1  0.10015400  0.87001800  0.59503200  1
  Zr  Zr1  1  0.12998200  0.89984600  0.90496800  1
  Zr  Zr2  1  0.37001800  0.39984600  0.34503200  1
  Zr  Zr3  1  0.39984600  0.37001800  0.65496800  1
  Zr  Zr4  1  0.60015400  0.62998200  0.15496800  1
  Zr  Zr5  1  0.62998200  0.60015400  0.84503200  1
  Zr  Zr6  1  0.87001800  0.10015400  0.40496800  1
  Zr  Zr7  1  0.89984600  0.12998200  0.09503200  1
  O  O0  1  0.06925800  0.90684800  0.41499400  1
  O  O1  1  0.08543700  0.32715600  0.07379400  1
  O  O2  1  0.09315200  0.93074200  0.08500600  1
  O  O3  1  0.15581500  0.63816800  0.95492300  1
  O  O4  1  0.17284400  0.58543700  0.32379400  1
  O  O5  1  0.13816800  0.34418500  0.70492300  1
  O  O6  1  0.15092700  0.84907300  0.75000000  1
  O  O7  1  0.34907300  0.34907300  0.50000000  1
  O  O8  1  0.36183200  0.84418500  0.54507700  1
  O  O9  1  0.32715600  0.08543700  0.92620600  1
  O  O10  1  0.34418500  0.13816800  0.29507700  1
  O  O11  1  0.40684800  0.43074200  0.16499400  1
  O  O12  1  0.41456300  0.82715600  0.17620600  1
  O  O13  1  0.43074200  0.40684800  0.83500600  1
  O  O14  1  0.56925800  0.59315200  0.33500600  1
  O  O15  1  0.58543700  0.17284400  0.67620600  1
  O  O16  1  0.59315200  0.56925800  0.66499400  1
  O  O17  1  0.65581500  0.86183200  0.79507700  1
  O  O18  1  0.67284400  0.91456300  0.42620600  1
  O  O19  1  0.63816800  0.15581500  0.04507700  1
  O  O20  1  0.65092700  0.65092700  0.00000000  1
  O  O21  1  0.84907300  0.15092700  0.25000000  1
  O  O22  1  0.86183200  0.65581500  0.20492300  1
  O  O23  1  0.82715600  0.41456300  0.82379400  1
  O  O24  1  0.84418500  0.36183200  0.45492300  1
  O  O25  1  0.90684800  0.06925800  0.58500600  1
  O  O26  1  0.91456300  0.67284400  0.57379400  1
  O  O27  1  0.93074200  0.09315200  0.91499400  1
loop_
_geom_bond_atom_site_label_1
_geom_bond_atom_site_label_2
_geom_bond_distance
_geom_bond_site_symmetry_2
O0 Zr6 2.044526 1_465
O0 Zr0 2.311214 1_555
O0 Tb2 2.342857 1_555
O0 Tb6 2.478522 1_455
O1 Zr7 2.008558 1_455
O1 Tb0 2.368741 1_555
O1 Tb1 2.429465 1_554
O1 Tb3 2.564655 1_555
O2 Zr7 2.044526 1_465
O2 Zr1 2.311214 1_554
O2 Tb0 2.342857 1_555
O2 Tb3 2.478522 1_565
O3 Zr1 2.034099 1_555
O3 Tb1 2.223915 1_555
O3 Tb0 2.288780 1_556
O4 Zr2 2.008558 1_555
O4 Tb6 2.368741 1_455
O4 Tb0 2.429465 1_555
O4 Tb2 2.564655 1_555
O5 Zr3 2.034099 1_555
O5 Tb7 2.223915 1_455
O5 Tb1 2.288780 1_555
O6 Zr1 2.007016 1_555
O6 Zr0 2.007016 1_555
O7 Zr2 2.007016 1_555
O7 Zr3 2.007016 1_555
O8 Zr0 2.034099 1_555
O8 Tb4 2.223915 1_555
O8 Tb2 2.288780 1_555
O9 Zr1 2.008558 1_545
O9 Tb5 2.368741 1_555
O9 Tb3 2.429465 1_556
O9 Tb1 2.564655 1_555
O10 Zr2 2.034099 1_555
O10 Tb2 2.223915 1_545
O10 Tb3 2.288780 1_555
O11 Zr4 2.044526 1_555
O11 Zr2 2.311214 1_555
O11 Tb3 2.342857 1_555
O11 Tb0 2.478522 1_555
O12 Zr4 2.008558 1_555
O12 Tb3 2.368741 1_565
O12 Tb2 2.429465 1_555
O12 Tb0 2.564655 1_555
O13 Zr5 2.044526 1_555
O13 Zr3 2.311214 1_555
O13 Tb1 2.342857 1_555
O13 Tb5 2.478522 1_555
O14 Zr2 2.044526 1_555
O14 Zr4 2.311214 1_555
O14 Tb6 2.342857 1_555
O14 Tb2 2.478522 1_555
O15 Zr3 2.008558 1_555
O15 Tb4 2.368741 1_545
O15 Tb5 2.429465 1_555
O15 Tb7 2.564655 1_555
O16 Zr3 2.044526 1_555
O16 Zr5 2.311214 1_555
O16 Tb4 2.342857 1_555
O16 Tb7 2.478522 1_555
O17 Zr5 2.034099 1_555
O17 Tb5 2.223915 1_565
O17 Tb4 2.288780 1_555
O18 Zr6 2.008558 1_565
O18 Tb2 2.368741 1_555
O18 Tb4 2.429465 1_555
O18 Tb6 2.564655 1_555
O19 Zr7 2.034099 1_555
O19 Tb3 2.223915 1_555
O19 Tb5 2.288780 1_554
O20 Zr5 2.007016 1_554
O20 Zr4 2.007016 1_555
O21 Zr7 2.007016 1_555
O21 Zr6 2.007016 1_555
O22 Zr4 2.034099 1_555
O22 Tb0 2.223915 1_655
O22 Tb6 2.288780 1_555
O23 Zr5 2.008558 1_555
O23 Tb1 2.368741 1_655
O23 Tb7 2.429465 1_555
O23 Tb5 2.564655 1_555
O24 Zr6 2.034099 1_555
O24 Tb6 2.223915 1_555
O24 Tb7 2.288780 1_555
O25 Zr0 2.044526 1_645
O25 Zr6 2.311214 1_555
O25 Tb7 2.342857 1_555
O25 Tb4 2.478522 1_545
O26 Zr0 2.008558 1_655
O26 Tb7 2.368741 1_555
O26 Tb6 2.429465 1_555
O26 Tb4 2.564655 1_555
O27 Zr1 2.044526 1_645
O27 Zr7 2.311214 1_556
O27 Tb5 2.342857 1_555
O27 Tb1 2.478522 1_655
