# generated using pymatgen
data_Na3Ni2P2(CO7)2
_symmetry_space_group_name_H-M   'P 1'
_cell_length_a   6.44060700
_cell_length_b   8.91950999
_cell_length_c   10.31440113
_cell_angle_alpha   88.20601332
_cell_angle_beta   89.77135846
_cell_angle_gamma   89.11833899
_symmetry_Int_Tables_number   1
_chemical_formula_structural   Na3Ni2P2(CO7)2
_chemical_formula_sum   'Na6 Ni4 P4 C4 O28'
_cell_volume   592.16781026
_cell_formula_units_Z   2
loop_
 _symmetry_equiv_pos_site_id
 _symmetry_equiv_pos_as_xyz
  1  'x, y, z'
loop_
 _atom_site_type_symbol
 _atom_site_label
 _atom_site_symmetry_multiplicity
 _atom_site_fract_x
 _atom_site_fract_y
 _atom_site_fract_z
 _atom_site_occupancy
  Na  Na0  1  0.01389800  0.74836200  0.87532500  1
  Na  Na1  1  0.48608600  0.75014300  0.87949100  1
  Na  Na2  1  0.45238600  0.73144700  0.37756500  1
  Na  Na3  1  0.97911300  0.26134900  0.63208400  1
  Na  Na4  1  0.97427300  0.25525400  0.11409900  1
  Na  Na5  1  0.73472100  0.08583400  0.39370400  1
  Ni  Ni0  1  0.75337300  0.65686500  0.60735500  1
  Ni  Ni1  1  0.75364700  0.65526300  0.11210100  1
  Ni  Ni2  1  0.26220100  0.34172100  0.89112700  1
  Ni  Ni3  1  0.25500500  0.34266700  0.39092600  1
  P  P0  1  0.25146400  0.57243500  0.64182700  1
  P  P1  1  0.25251200  0.56951100  0.13843100  1
  P  P2  1  0.75375000  0.42681500  0.85851800  1
  P  P3  1  0.75183600  0.42784300  0.35984600  1
  C  C0  1  0.74763600  0.92697700  0.64202100  1
  C  C1  1  0.74998000  0.92427400  0.14485800  1
  C  C2  1  0.25119300  0.07354400  0.85648500  1
  C  C3  1  0.24832000  0.07366800  0.35384100  1
  O  O0  1  0.24603700  0.93534200  0.83836200  1
  O  O1  1  0.25070200  0.93642600  0.33380600  1
  O  O2  1  0.74018700  0.86867800  0.52826700  1
  O  O3  1  0.75133400  0.86628100  0.03068400  1
  O  O4  1  0.74592400  0.82730900  0.73728800  1
  O  O5  1  0.73992000  0.82315000  0.23873200  1
  O  O6  1  0.06363800  0.67918400  0.61642100  1
  O  O7  1  0.43763900  0.67258100  0.60473800  1
  O  O8  1  0.06582400  0.67340500  0.10059700  1
  O  O9  1  0.43864700  0.67089400  0.10201900  1
  O  O10  1  0.75285200  0.57541300  0.93214500  1
  O  O11  1  0.74450600  0.57410400  0.43300000  1
  O  O12  1  0.25838900  0.53473500  0.79157000  1
  O  O13  1  0.25608000  0.53107400  0.28607300  1
  O  O14  1  0.76231600  0.46920800  0.71116000  1
  O  O15  1  0.76529400  0.46741700  0.21220700  1
  O  O16  1  0.24266600  0.42704300  0.56749200  1
  O  O17  1  0.24901100  0.42207200  0.06576600  1
  O  O18  1  0.56991000  0.32578600  0.89282900  1
  O  O19  1  0.94322200  0.32466400  0.89311400  1
  O  O20  1  0.56634300  0.32343400  0.38872400  1
  O  O21  1  0.93648700  0.32051500  0.39779500  1
  O  O22  1  0.25645700  0.17472600  0.76311200  1
  O  O23  1  0.24564400  0.17619300  0.26129600  1
  O  O24  1  0.25247700  0.13139600  0.96997000  1
  O  O25  1  0.25133700  0.12909700  0.46889900  1
  O  O26  1  0.75741900  0.06506400  0.65625300  1
  O  O27  1  0.75881100  0.06116600  0.16604700  1
loop_
_geom_bond_atom_site_label_1
_geom_bond_atom_site_label_2
_geom_bond_distance
_geom_bond_site_symmetry_2
Na0 O0 2.279157 1_555
Na0 O4 2.328345 1_455
Na0 O10 2.359078 1_455
Na0 O8 2.420695 1_556
Na0 O3 2.561820 1_456
Na0 O12 2.618489 1_555
Na0 O6 2.775764 1_555
Na1 O0 2.276347 1_555
Na1 O4 2.319128 1_555
Na1 O10 2.355404 1_555
Na1 O9 2.400128 1_556
Na1 O3 2.569118 1_556
Na1 O12 2.621253 1_555
Na2 O1 2.261345 1_555
Na2 O7 2.387007 1_555
Na2 O11 2.390270 1_555
Na2 O13 2.422379 1_555
Na2 O5 2.470066 1_555
Na2 O2 2.749954 1_555
Na2 O9 2.911463 1_555
Na3 O26 2.283162 1_555
Na3 O16 2.348598 1_655
Na3 O22 2.350660 1_655
Na3 O14 2.461330 1_555
Na3 O21 2.472767 1_555
Na3 O25 2.708441 1_655
Na3 O19 2.776225 1_555
Na4 O27 2.284664 1_555
Na4 O19 2.351615 1_554
Na4 O17 2.370881 1_655
Na4 O23 2.402782 1_655
Na4 O15 2.539166 1_555
Na4 O24 2.581023 1_654
Na5 O2 2.347181 1_545
Na5 O20 2.364934 1_555
Na5 O27 2.369528 1_555
Na5 O21 2.482297 1_555
Na5 O26 2.712944 1_555
Na5 O5 2.877065 1_545
Ni0 O14 1.958734 1_555
Ni0 O11 1.966607 1_555
Ni0 O6 2.014065 1_655
Ni0 O2 2.034971 1_555
Ni0 O7 2.036420 1_555
Ni0 O4 2.057775 1_555
Ni1 O15 1.940996 1_555
Ni1 O10 2.008855 1_554
Ni1 O5 2.018330 1_555
Ni1 O8 2.022306 1_655
Ni1 O9 2.034285 1_555
Ni1 O3 2.036737 1_555
Ni2 O17 1.960426 1_556
Ni2 O12 1.976652 1_555
Ni2 O18 1.984849 1_555
Ni2 O22 2.022053 1_555
Ni2 O24 2.022942 1_555
Ni2 O19 2.062350 1_455
Ni3 O13 1.969838 1_555
Ni3 O16 1.993038 1_555
Ni3 O20 2.009997 1_555
Ni3 O23 2.030735 1_555
Ni3 O25 2.044865 1_555
Ni3 O21 2.064689 1_455
C0 O26 1.247521 1_565
C0 O2 1.299523 1_555
C0 O4 1.304412 1_555
C1 O27 1.249323 1_565
C1 O3 1.300919 1_555
C1 O5 1.304566 1_555
C2 O0 1.253522 1_545
C2 O24 1.294026 1_555
C2 O22 1.299785 1_555
C3 O1 1.247667 1_545
C3 O25 1.300158 1_555
C3 O23 1.301041 1_555
O6 P0 1.546003 1_555
O7 P0 1.545945 1_555
O8 P1 1.550344 1_555
O9 P1 1.550634 1_555
O10 P2 1.547980 1_555
O11 P3 1.527394 1_555
O12 P0 1.571032 1_555
O13 P1 1.550630 1_555
O14 P2 1.555679 1_555
O15 P3 1.554762 1_555
O16 P0 1.528951 1_555
O17 P1 1.534424 1_555
O18 P2 1.532565 1_555
O19 P2 1.547764 1_555
O20 P3 1.548324 1_555
O21 P3 1.558598 1_555
