# generated using pymatgen
data_Li5Mn3Nb2O10
_symmetry_space_group_name_H-M   'P 1'
_cell_length_a   5.35486313
_cell_length_b   8.12538444
_cell_length_c   10.63694544
_cell_angle_alpha   107.97638512
_cell_angle_beta   79.89936872
_cell_angle_gamma   108.22847117
_symmetry_Int_Tables_number   1
_chemical_formula_structural   Li5Mn3Nb2O10
_chemical_formula_sum   'Li10 Mn6 Nb4 O20'
_cell_volume   416.53704042
_cell_formula_units_Z   2
loop_
 _symmetry_equiv_pos_site_id
 _symmetry_equiv_pos_as_xyz
  1  'x, y, z'
loop_
 _atom_site_type_symbol
 _atom_site_label
 _atom_site_symmetry_multiplicity
 _atom_site_fract_x
 _atom_site_fract_y
 _atom_site_fract_z
 _atom_site_occupancy
  Li  Li0  1  0.49999100  0.50029800  0.49999000  1
  Li  Li1  1  0.50002900  0.49969400  0.99998700  1
  Li  Li2  1  0.22827600  0.40163800  0.24441800  1
  Li  Li3  1  0.22730100  0.40165400  0.74457900  1
  Li  Li4  1  0.77269600  0.59834700  0.75542600  1
  Li  Li5  1  0.77174200  0.59833800  0.25554800  1
  Li  Li6  1  0.38477800  0.78043600  0.74211300  1
  Li  Li7  1  0.38446100  0.78043600  0.24254500  1
  Li  Li8  1  0.61549700  0.21954800  0.25741500  1
  Li  Li9  1  0.61524800  0.21955100  0.75787400  1
  Mn  Mn0  1  0.99987400  0.00003400  0.25008700  1
  Mn  Mn1  1  0.69248000  0.89906600  0.50385100  1
  Mn  Mn2  1  0.30755400  0.10089600  0.99613600  1
  Mn  Mn3  1  0.99997700  0.99999000  0.75006400  1
  Mn  Mn4  1  0.69177700  0.89758900  0.00385400  1
  Mn  Mn5  1  0.30825300  0.10241900  0.49611900  1
  Nb  Nb0  1  0.09506000  0.68462700  0.49311000  1
  Nb  Nb1  1  0.09591800  0.68571700  0.99328800  1
  Nb  Nb2  1  0.90408900  0.31432500  0.50675300  1
  Nb  Nb3  1  0.90497100  0.31539600  0.00689500  1
  O  O0  1  0.04913300  0.83925900  0.87925000  1
  O  O1  1  0.04833500  0.83978900  0.38022500  1
  O  O2  1  0.95167300  0.16021000  0.11976200  1
  O  O3  1  0.95087200  0.16072600  0.62073300  1
  O  O4  1  0.32733900  0.92691300  0.61656800  1
  O  O5  1  0.32673900  0.92681300  0.11769200  1
  O  O6  1  0.67317500  0.07320000  0.38233300  1
  O  O7  1  0.67265600  0.07308000  0.88342400  1
  O  O8  1  0.15237800  0.54425400  0.61850700  1
  O  O9  1  0.15273300  0.54398200  0.11863700  1
  O  O10  1  0.84729300  0.45601000  0.38135500  1
  O  O11  1  0.84765100  0.45574600  0.88148500  1
  O  O12  1  0.22329200  0.25634600  0.38145200  1
  O  O13  1  0.22303200  0.25617600  0.88123500  1
  O  O14  1  0.77699500  0.74381700  0.61875900  1
  O  O15  1  0.77671300  0.74367600  0.11854800  1
  O  O16  1  0.42110000  0.65154400  0.38145600  1
  O  O17  1  0.42169900  0.65187900  0.88166800  1
  O  O18  1  0.57830300  0.34813600  0.61833600  1
  O  O19  1  0.57891700  0.34844500  0.11852300  1
loop_
_geom_bond_atom_site_label_1
_geom_bond_atom_site_label_2
_geom_bond_distance
_geom_bond_site_symmetry_2
Li0 O10 2.120338 1_555
Li0 O8 2.120524 1_555
Li0 O16 2.178646 1_555
Li0 O18 2.181598 1_555
Li0 O12 2.233719 1_555
Li0 O14 2.233738 1_555
Li1 O9 2.120373 1_556
Li1 O11 2.120485 1_555
Li1 O19 2.178675 1_556
Li1 O17 2.181568 1_555
Li1 O13 2.233642 1_555
Li1 O15 2.233903 1_556
Li2 O12 2.132579 1_555
Li2 O16 2.168737 1_555
Li2 O9 2.174651 1_555
Li2 O19 2.184976 1_555
Li2 O2 2.250738 1_455
Li2 O10 2.367119 1_455
Li3 O13 2.131382 1_555
Li3 O17 2.173042 1_555
Li3 O8 2.177262 1_555
Li3 O18 2.188767 1_555
Li3 O3 2.244572 1_455
Li3 O11 2.360585 1_455
Li4 O14 2.131387 1_555
Li4 O18 2.172973 1_555
Li4 O11 2.177235 1_555
Li4 O17 2.188773 1_555
Li4 O0 2.244428 1_655
Li4 O8 2.360783 1_655
Li5 O15 2.132574 1_555
Li5 O19 2.168613 1_555
Li5 O10 2.174794 1_555
Li5 O16 2.185065 1_555
Li5 O1 2.250900 1_655
Li5 O9 2.367007 1_655
Li6 O8 2.117211 1_555
Li6 O17 2.126744 1_555
Li6 O4 2.156064 1_555
Li6 O0 2.184991 1_555
Li6 O14 2.324794 1_555
Li6 O7 2.569676 1_565
Li7 O9 2.118331 1_555
Li7 O16 2.122264 1_555
Li7 O5 2.150074 1_555
Li7 O1 2.190782 1_555
Li7 O15 2.327737 1_555
Li7 O6 2.565562 1_565
Li8 O10 2.118667 1_555
Li8 O19 2.122002 1_555
Li8 O6 2.150350 1_555
Li8 O2 2.190825 1_555
Li8 O12 2.327754 1_555
Li8 O5 2.565252 1_545
Li9 O11 2.117298 1_555
Li9 O18 2.126802 1_555
Li9 O7 2.155999 1_555
Li9 O3 2.184927 1_555
Li9 O13 2.324828 1_555
Li9 O4 2.569696 1_545
Mn0 O6 2.159632 1_555
Mn0 O5 2.161146 1_645
Mn0 O12 2.225420 1_655
Mn0 O15 2.225949 1_545
Mn0 O1 2.264685 1_645
Mn0 O2 2.265287 1_555
Mn1 O4 2.144501 1_555
Mn1 O14 2.189274 1_555
Mn1 O1 2.212844 1_655
Mn1 O6 2.225008 1_565
Mn1 O16 2.251810 1_555
Mn1 O3 2.260943 1_565
Mn2 O7 2.144250 1_555
Mn2 O13 2.189439 1_555
Mn2 O2 2.213050 1_456
Mn2 O5 2.224758 1_546
Mn2 O19 2.251844 1_556
Mn2 O0 2.260915 1_545
Mn3 O7 2.167082 1_565
Mn3 O4 2.167839 1_655
Mn3 O13 2.223249 1_665
Mn3 O14 2.223667 1_555
Mn3 O0 2.261167 1_655
Mn3 O3 2.262333 1_565
Mn4 O5 2.150880 1_555
Mn4 O15 2.179790 1_555
Mn4 O0 2.221083 1_654
Mn4 O7 2.224765 1_564
Mn4 O17 2.240088 1_554
Mn4 O2 2.265044 1_565
Mn5 O6 2.150142 1_555
Mn5 O12 2.179725 1_555
Mn5 O3 2.221178 1_455
Mn5 O4 2.224959 1_545
Mn5 O18 2.240185 1_555
Mn5 O1 2.265081 1_545
Nb0 O16 1.974894 1_555
Nb0 O14 2.058088 1_455
Nb0 O10 2.066970 1_455
Nb0 O1 2.081118 1_555
Nb0 O8 2.115642 1_555
Nb0 O4 2.143016 1_555
Nb1 O17 1.975011 1_555
Nb1 O15 2.058205 1_456
Nb1 O11 2.074154 1_455
Nb1 O0 2.080118 1_555
Nb1 O9 2.122715 1_556
Nb1 O5 2.138980 1_556
Nb2 O18 1.974823 1_555
Nb2 O12 2.058431 1_655
Nb2 O8 2.073817 1_655
Nb2 O3 2.080005 1_555
Nb2 O10 2.122783 1_555
Nb2 O6 2.139382 1_555
Nb3 O19 1.974781 1_555
Nb3 O13 2.058193 1_654
Nb3 O9 2.066770 1_655
Nb3 O2 2.081077 1_555
Nb3 O11 2.115615 1_554
Nb3 O7 2.143286 1_554
