# generated using pymatgen
data_Sr20FeCo9(MoO6)10
_symmetry_space_group_name_H-M   'P 1'
_cell_length_a   9.78391500
_cell_length_b   11.29307453
_cell_length_c   12.73807851
_cell_angle_alpha   102.76824791
_cell_angle_beta   97.86662698
_cell_angle_gamma   106.64675317
_symmetry_Int_Tables_number   1
_chemical_formula_structural   Sr20FeCo9(MoO6)10
_chemical_formula_sum   'Sr20 Fe1 Co9 Mo10 O60'
_cell_volume   1284.57140255
_cell_formula_units_Z   1
loop_
 _symmetry_equiv_pos_site_id
 _symmetry_equiv_pos_as_xyz
  1  'x, y, z'
loop_
 _atom_site_type_symbol
 _atom_site_label
 _atom_site_symmetry_multiplicity
 _atom_site_fract_x
 _atom_site_fract_y
 _atom_site_fract_z
 _atom_site_occupancy
  Sr  Sr0  1  0.94891800  0.27483900  0.15067200  1
  Sr  Sr1  1  0.55005000  0.47491100  0.35122900  1
  Sr  Sr2  1  0.15048500  0.67602500  0.55091600  1
  Sr  Sr3  1  0.75032200  0.87554100  0.74940800  1
  Sr  Sr4  1  0.34903800  0.07365800  0.94923500  1
  Sr  Sr5  1  0.65099400  0.42536300  0.05083700  1
  Sr  Sr6  1  0.24945500  0.62500400  0.25101300  1
  Sr  Sr7  1  0.84964100  0.82541300  0.45031600  1
  Sr  Sr8  1  0.44890900  0.02443100  0.64973400  1
  Sr  Sr9  1  0.04960700  0.22485400  0.84940600  1
  Sr  Sr10  1  0.95039300  0.77514600  0.15059400  1
  Sr  Sr11  1  0.55109100  0.97556900  0.35026600  1
  Sr  Sr12  1  0.15035900  0.17458700  0.54968400  1
  Sr  Sr13  1  0.75054500  0.37499600  0.74898700  1
  Sr  Sr14  1  0.34900600  0.57463700  0.94916300  1
  Sr  Sr15  1  0.65096200  0.92634200  0.05076500  1
  Sr  Sr16  1  0.24967800  0.12445900  0.25059200  1
  Sr  Sr17  1  0.84951500  0.32397500  0.44908400  1
  Sr  Sr18  1  0.44995000  0.52508900  0.64877100  1
  Sr  Sr19  1  0.05108200  0.72516100  0.84932800  1
  Fe  Fe0  1  0.00000000  0.00000000  0.00000000  1
  Co  Co0  1  0.60074600  0.20023200  0.20009400  1
  Co  Co1  1  0.19990400  0.39981600  0.39999100  1
  Co  Co2  1  0.39925400  0.79976800  0.79990600  1
  Co  Co3  1  0.60079200  0.70055300  0.20031200  1
  Co  Co4  1  0.00000000  0.50000000  0.00000000  1
  Co  Co5  1  0.19889000  0.90031000  0.40007400  1
  Co  Co6  1  0.80111000  0.09969000  0.59992600  1
  Co  Co7  1  0.39920800  0.29944700  0.79968800  1
  Co  Co8  1  0.80009600  0.60018400  0.60000900  1
  Mo  Mo0  1  0.30098000  0.35078700  0.10038700  1
  Mo  Mo1  1  0.90024300  0.54996800  0.29991200  1
  Mo  Mo2  1  0.49993200  0.75037000  0.49998800  1
  Mo  Mo3  1  0.09988800  0.94998300  0.69896100  1
  Mo  Mo4  1  0.69980700  0.15070000  0.89986700  1
  Mo  Mo5  1  0.30019300  0.84930000  0.10013300  1
  Mo  Mo6  1  0.90011200  0.05001700  0.30103900  1
  Mo  Mo7  1  0.50006800  0.24963000  0.50001200  1
  Mo  Mo8  1  0.09975700  0.45003200  0.70008800  1
  Mo  Mo9  1  0.69902000  0.64921300  0.89961300  1
  O  O0  1  0.65242300  0.17377000  0.04373300  1
  O  O1  1  0.25089200  0.37334800  0.24380800  1
  O  O2  1  0.85197500  0.57413600  0.44438400  1
  O  O3  1  0.45197400  0.77385200  0.64407200  1
  O  O4  1  0.05006600  0.97509100  0.85007100  1
  O  O5  1  0.42357200  0.25239100  0.14101200  1
  O  O6  1  0.02408800  0.45258900  0.34079800  1
  O  O7  1  0.62433500  0.65252800  0.54105300  1
  O  O8  1  0.22581900  0.85231700  0.74317500  1
  O  O9  1  0.82756800  0.05326600  0.94233200  1
  O  O10  1  0.13273300  0.18765400  0.04401900  1
  O  O11  1  0.73385000  0.39112100  0.24345100  1
  O  O12  1  0.33402700  0.59120600  0.44441500  1
  O  O13  1  0.93507300  0.79182100  0.64607800  1
  O  O14  1  0.53659800  0.99091700  0.84528000  1
  O  O15  1  0.94854100  0.52551400  0.15416200  1
  O  O16  1  0.54823600  0.72550500  0.35442000  1
  O  O17  1  0.74905600  0.12592400  0.75529700  1
  O  O18  1  0.14898200  0.92552800  0.55352000  1
  O  O19  1  0.34764800  0.32539100  0.95493600  1
  O  O20  1  0.06477300  0.70651900  0.35385000  1
  O  O21  1  0.46521100  0.50771200  0.15475700  1
  O  O22  1  0.66464000  0.90704100  0.55468300  1
  O  O23  1  0.26486100  0.10806800  0.75627300  1
  O  O24  1  0.86611200  0.30779600  0.95533100  1
  O  O25  1  0.77512300  0.64601300  0.25757000  1
  O  O26  1  0.17554800  0.44460400  0.05821100  1
  O  O27  1  0.97401400  0.04781900  0.65894200  1
  O  O28  1  0.37521500  0.84652100  0.45779400  1
  O  O29  1  0.57634600  0.24725700  0.85873000  1
  O  O30  1  0.25094400  0.87407600  0.24470300  1
  O  O31  1  0.65235200  0.67460900  0.04506400  1
  O  O32  1  0.85101800  0.07447200  0.44648000  1
  O  O33  1  0.45176400  0.27449500  0.64558000  1
  O  O34  1  0.05145900  0.47448600  0.84583800  1
  O  O35  1  0.42365400  0.75274300  0.14127000  1
  O  O36  1  0.62478500  0.15347900  0.54220600  1
  O  O37  1  0.22487700  0.35398700  0.74243000  1
  O  O38  1  0.02598600  0.95218100  0.34105800  1
  O  O39  1  0.82445200  0.55539600  0.94178900  1
  O  O40  1  0.13388800  0.69220400  0.04466900  1
  O  O41  1  0.73513900  0.89193200  0.24372700  1
  O  O42  1  0.33536000  0.09295900  0.44531700  1
  O  O43  1  0.93522700  0.29348100  0.64615000  1
  O  O44  1  0.53478900  0.49228800  0.84524300  1
  O  O45  1  0.94993400  0.02490900  0.14992900  1
  O  O46  1  0.54802600  0.22614800  0.35592800  1
  O  O47  1  0.14802500  0.42586400  0.55561600  1
  O  O48  1  0.74910800  0.62665200  0.75619200  1
  O  O49  1  0.34757700  0.82623000  0.95626700  1
  O  O50  1  0.46340200  0.00908300  0.15472000  1
  O  O51  1  0.06492700  0.20817900  0.35392200  1
  O  O52  1  0.66597300  0.40879400  0.55558500  1
  O  O53  1  0.26615000  0.60887900  0.75654900  1
  O  O54  1  0.86726700  0.81234600  0.95598100  1
  O  O55  1  0.17243200  0.94673400  0.05766800  1
  O  O56  1  0.77418100  0.14768300  0.25682500  1
  O  O57  1  0.37566500  0.34747200  0.45894700  1
  O  O58  1  0.97591200  0.54741100  0.65920200  1
  O  O59  1  0.57642800  0.74760900  0.85898800  1
loop_
_geom_bond_atom_site_label_1
_geom_bond_atom_site_label_2
_geom_bond_distance
_geom_bond_site_symmetry_2
Fe0 O45 2.015937 1_455
Fe0 O4 2.015937 1_544
Fe0 O9 2.045762 1_454
Fe0 O55 2.045762 1_545
Fe0 O54 2.047076 1_444
Fe0 O10 2.047076 1_555
Co0 O56 2.045630 1_555
Co0 O11 2.077622 1_555
Co0 O5 2.083764 1_555
Co0 O50 2.091301 1_555
Co0 O46 2.098098 1_555
Co0 O0 2.100261 1_555
Co1 O57 2.072597 1_555
Co1 O6 2.076928 1_555
Co1 O12 2.084438 1_555
Co1 O51 2.088308 1_555
Co1 O47 2.092166 1_555
Co1 O1 2.095343 1_555
Co2 O8 2.045630 1_555
Co2 O53 2.077622 1_555
Co2 O59 2.083764 1_555
Co2 O14 2.091301 1_555
Co2 O3 2.098098 1_555
Co2 O49 2.100261 1_555
Co3 O25 2.068928 1_555
Co3 O16 2.076573 1_555
Co3 O35 2.083512 1_555
Co3 O41 2.085592 1_555
Co3 O31 2.086318 1_555
Co3 O21 2.101098 1_555
Co4 O15 2.072771 1_455
Co4 O34 2.072771 1_554
Co4 O26 2.088824 1_555
Co4 O39 2.088824 1_454
Co4 O40 2.090959 1_555
Co4 O24 2.090959 1_454
Co5 O38 2.045565 1_555
Co5 O18 2.057890 1_555
Co5 O28 2.082382 1_555
Co5 O30 2.089805 1_555
Co5 O42 2.102138 1_565
Co5 O20 2.105148 1_555
Co6 O27 2.045565 1_555
Co6 O32 2.057890 1_555
Co6 O36 2.082382 1_555
Co6 O17 2.089805 1_555
Co6 O22 2.102138 1_545
Co6 O43 2.105148 1_555
Co7 O37 2.068928 1_555
Co7 O33 2.076573 1_555
Co7 O29 2.083512 1_555
Co7 O23 2.085592 1_555
Co7 O19 2.086318 1_555
Co7 O44 2.101098 1_555
Co8 O7 2.072597 1_555
Co8 O58 2.076928 1_555
Co8 O52 2.084438 1_555
Co8 O13 2.088308 1_555
Co8 O2 2.092166 1_555
Co8 O48 2.095343 1_555
Mo0 O21 1.929635 1_555
Mo0 O26 1.932163 1_555
Mo0 O1 1.937402 1_555
Mo0 O5 1.946549 1_555
Mo0 O19 1.948127 1_554
Mo0 O10 1.993361 1_555
Mo1 O20 1.928405 1_655
Mo1 O2 1.942661 1_555
Mo1 O6 1.947473 1_655
Mo1 O25 1.950517 1_555
Mo1 O11 1.954880 1_555
Mo1 O15 1.958245 1_555
Mo2 O22 1.930529 1_555
Mo2 O3 1.936725 1_555
Mo2 O28 1.947929 1_555
Mo2 O12 1.954006 1_555
Mo2 O16 1.956077 1_555
Mo2 O7 1.956447 1_555
Mo3 O13 1.940352 1_455
Mo3 O23 1.943138 1_565
Mo3 O18 1.957728 1_555
Mo3 O27 1.963158 1_465
Mo3 O8 1.978630 1_555
Mo3 O4 2.029247 1_555
Mo4 O0 1.931803 1_556
Mo4 O29 1.938211 1_555
Mo4 O24 1.942031 1_555
Mo4 O14 1.944211 1_545
Mo4 O17 1.947854 1_555
Mo4 O9 1.982891 1_555
Mo5 O49 1.931803 1_554
Mo5 O35 1.938211 1_555
Mo5 O40 1.942031 1_555
Mo5 O50 1.944211 1_565
Mo5 O30 1.947854 1_555
Mo5 O55 1.982891 1_555
Mo6 O51 1.940352 1_655
Mo6 O41 1.943138 1_545
Mo6 O32 1.957728 1_555
Mo6 O38 1.963158 1_645
Mo6 O56 1.978630 1_555
Mo6 O45 2.029247 1_555
Mo7 O42 1.930529 1_555
Mo7 O46 1.936725 1_555
Mo7 O36 1.947929 1_555
Mo7 O52 1.954006 1_555
Mo7 O33 1.956077 1_555
Mo7 O57 1.956447 1_555
Mo8 O43 1.928405 1_455
Mo8 O47 1.942661 1_555
Mo8 O58 1.947473 1_455
Mo8 O37 1.950517 1_555
Mo8 O53 1.954880 1_555
Mo8 O34 1.958245 1_555
Mo9 O44 1.929635 1_555
Mo9 O39 1.932163 1_555
Mo9 O48 1.937402 1_555
Mo9 O59 1.946549 1_555
Mo9 O31 1.948127 1_556
Mo9 O54 1.993361 1_555
O0 Sr15 2.811407 1_545
O0 Sr0 2.812030 1_555
O0 Sr5 2.826764 1_555
O0 Sr4 2.834713 1_554
O1 Sr0 2.819236 1_455
O1 Sr6 2.827255 1_555
O1 Sr16 2.827770 1_555
O1 Sr1 2.835733 1_555
O2 Sr1 2.818884 1_555
O2 Sr2 2.827521 1_655
O2 Sr7 2.828699 1_555
O2 Sr17 2.832221 1_555
O3 Sr2 2.815118 1_555
O3 Sr18 2.817608 1_555
O3 Sr3 2.822407 1_555
O3 Sr8 2.823634 1_565
O4 Sr4 2.809359 1_565
O4 Sr3 2.820122 1_455
O4 Sr19 2.823272 1_555
O4 Sr9 2.823763 1_565
O5 Sr4 2.657643 1_554
O5 Sr16 2.657714 1_555
O5 Sr5 3.047500 1_555
O5 Sr1 3.058350 1_555
O6 Sr0 2.636927 1_455
O6 Sr17 2.653041 1_455
O6 Sr6 3.029178 1_555
O6 Sr2 3.062820 1_555
O7 Sr1 2.634043 1_555
O7 Sr18 2.640418 1_555
O7 Sr7 3.039098 1_555
O7 Sr3 3.045900 1_555
O8 Sr19 2.626354 1_555
O8 Sr2 2.648497 1_555
O8 Sr4 3.016339 1_565
O8 Sr8 3.043335 1_565
O9 Sr15 2.656568 1_546
O9 Sr3 2.661024 1_545
O9 Sr9 3.030070 1_655
O9 Sr0 3.035440 1_556
O10 Sr9 2.662245 1_554
O10 Sr0 2.672359 1_455
O10 Sr4 3.027733 1_554
O10 Sr16 3.035818 1_555
O11 Sr5 2.623175 1_555
O11 Sr1 2.662806 1_555
O11 Sr0 3.021049 1_555
O11 Sr17 3.045475 1_555
O12 Sr6 2.634027 1_555
O12 Sr2 2.657192 1_555
O12 Sr18 3.025915 1_555
O12 Sr1 3.031329 1_555
O13 Sr3 2.640847 1_555
O13 Sr7 2.662711 1_555
O13 Sr19 3.017385 1_655
O13 Sr2 3.032989 1_655
O14 Sr4 2.663594 1_565
O14 Sr8 2.664875 1_565
O14 Sr3 3.019649 1_555
O14 Sr15 3.023995 1_556
O15 Sr5 2.809473 1_555
O15 Sr6 2.819584 1_655
O15 Sr0 2.822470 1_555
O15 Sr10 2.824426 1_555
O16 Sr6 2.820077 1_555
O16 Sr7 2.821302 1_555
O16 Sr1 2.826458 1_555
O16 Sr11 2.828386 1_555
O17 Sr9 2.809444 1_655
O17 Sr3 2.815605 1_545
O17 Sr13 2.827584 1_555
O17 Sr8 2.838122 1_555
O18 Sr8 2.809491 1_565
O18 Sr2 2.814794 1_555
O18 Sr12 2.820061 1_565
O18 Sr7 2.824163 1_455
O19 Sr9 2.820408 1_555
O19 Sr14 2.828207 1_555
O19 Sr4 2.831672 1_555
O19 Sr5 2.837881 1_556
O20 Sr6 2.626066 1_555
O20 Sr2 2.663547 1_555
O20 Sr10 3.024418 1_455
O20 Sr7 3.056297 1_455
O21 Sr5 2.646530 1_555
O21 Sr1 2.665874 1_555
O21 Sr14 3.045407 1_554
O21 Sr6 3.050670 1_555
O22 Sr7 2.639388 1_555
O22 Sr3 2.640735 1_555
O22 Sr11 3.033936 1_555
O22 Sr8 3.044943 1_565
O23 Sr4 2.631028 1_555
O23 Sr8 2.655790 1_555
O23 Sr9 3.027521 1_555
O23 Sr12 3.048497 1_555
O24 Sr9 2.643657 1_655
O24 Sr0 2.648898 1_556
O24 Sr5 3.043107 1_556
O24 Sr13 3.053328 1_555
O25 Sr10 2.647527 1_555
O25 Sr7 2.670065 1_555
O25 Sr5 3.018114 1_555
O25 Sr1 3.050647 1_555
O26 Sr14 2.661789 1_554
O26 Sr6 2.676415 1_555
O26 Sr9 3.030612 1_554
O26 Sr0 3.042467 1_455
O27 Sr9 2.635886 1_655
O27 Sr12 2.661961 1_655
O27 Sr3 3.024034 1_545
O27 Sr7 3.043810 1_545
O28 Sr8 2.655275 1_565
O28 Sr11 2.655495 1_555
O28 Sr6 3.024347 1_555
O28 Sr2 3.040838 1_555
O29 Sr5 2.657200 1_556
O29 Sr13 2.659861 1_555
O29 Sr8 3.050705 1_555
O29 Sr4 3.053089 1_555
O30 Sr10 2.809444 1_455
O30 Sr16 2.815605 1_565
O30 Sr6 2.827584 1_555
O30 Sr11 2.838122 1_555
O31 Sr10 2.820408 1_555
O31 Sr5 2.828207 1_555
O31 Sr15 2.831672 1_555
O31 Sr14 2.837881 1_554
O32 Sr11 2.809491 1_545
O32 Sr17 2.814794 1_555
O32 Sr7 2.820061 1_545
O32 Sr12 2.824163 1_655
O33 Sr13 2.820077 1_555
O33 Sr12 2.821302 1_555
O33 Sr18 2.826458 1_555
O33 Sr8 2.828386 1_555
O34 Sr14 2.809473 1_555
O34 Sr13 2.819584 1_455
O34 Sr19 2.822470 1_555
O34 Sr9 2.824426 1_555
O35 Sr14 2.657200 1_554
O35 Sr6 2.659861 1_555
O35 Sr11 3.050705 1_555
O35 Sr15 3.053089 1_555
O36 Sr11 2.655275 1_545
O36 Sr8 2.655495 1_555
O36 Sr13 3.024347 1_555
O36 Sr17 3.040838 1_555
O37 Sr9 2.647527 1_555
O37 Sr12 2.670065 1_555
O37 Sr14 3.018114 1_555
O37 Sr18 3.050647 1_555
O38 Sr10 2.635886 1_455
O38 Sr7 2.661961 1_455
O38 Sr16 3.024034 1_565
O38 Sr12 3.043810 1_565
O39 Sr5 2.661789 1_556
O39 Sr13 2.676415 1_555
O39 Sr10 3.030612 1_556
O39 Sr19 3.042467 1_655
O40 Sr10 2.643657 1_455
O40 Sr19 2.648898 1_554
O40 Sr14 3.043107 1_554
O40 Sr6 3.053328 1_555
O41 Sr15 2.631028 1_555
O41 Sr11 2.655790 1_555
O41 Sr10 3.027521 1_555
O41 Sr7 3.048497 1_555
O42 Sr12 2.639388 1_555
O42 Sr16 2.640735 1_555
O42 Sr8 3.033936 1_555
O42 Sr11 3.044943 1_545
O43 Sr13 2.626066 1_555
O43 Sr17 2.663547 1_555
O43 Sr9 3.024418 1_655
O43 Sr12 3.056297 1_655
O44 Sr14 2.646530 1_555
O44 Sr18 2.665874 1_555
O44 Sr5 3.045407 1_556
O44 Sr13 3.050670 1_555
O45 Sr15 2.809359 1_545
O45 Sr16 2.820122 1_655
O45 Sr0 2.823272 1_555
O45 Sr10 2.823763 1_545
O46 Sr17 2.815118 1_555
O46 Sr1 2.817608 1_555
O46 Sr16 2.822407 1_555
O46 Sr11 2.823634 1_545
O47 Sr18 2.818884 1_555
O47 Sr17 2.827521 1_455
O47 Sr12 2.828699 1_555
O47 Sr2 2.832221 1_555
O48 Sr19 2.819236 1_655
O48 Sr13 2.827255 1_555
O48 Sr3 2.827770 1_555
O48 Sr18 2.835733 1_555
O49 Sr4 2.811407 1_565
O49 Sr19 2.812030 1_555
O49 Sr14 2.826764 1_555
O49 Sr15 2.834713 1_556
O50 Sr15 2.663594 1_545
O50 Sr11 2.664875 1_545
O50 Sr16 3.019649 1_555
O50 Sr4 3.023995 1_554
O51 Sr16 2.640847 1_555
O51 Sr12 2.662711 1_555
O51 Sr0 3.017385 1_455
O51 Sr17 3.032989 1_455
O52 Sr13 2.634027 1_555
O52 Sr17 2.657192 1_555
O52 Sr1 3.025915 1_555
O52 Sr18 3.031329 1_555
O53 Sr14 2.623175 1_555
O53 Sr18 2.662806 1_555
O53 Sr19 3.021049 1_555
O53 Sr2 3.045475 1_555
O54 Sr10 2.662245 1_556
O54 Sr19 2.672359 1_655
O54 Sr15 3.027733 1_556
O54 Sr3 3.035818 1_555
O55 Sr4 2.656568 1_564
O55 Sr16 2.661024 1_565
O55 Sr10 3.030070 1_455
O55 Sr19 3.035440 1_554
O56 Sr0 2.626354 1_555
O56 Sr17 2.648497 1_555
O56 Sr15 3.016339 1_545
O56 Sr11 3.043335 1_545
O57 Sr18 2.634043 1_555
O57 Sr1 2.640418 1_555
O57 Sr12 3.039098 1_555
O57 Sr16 3.045900 1_555
O58 Sr19 2.636927 1_655
O58 Sr2 2.653041 1_655
O58 Sr13 3.029178 1_555
O58 Sr17 3.062820 1_555
O59 Sr15 2.657643 1_556
O59 Sr3 2.657714 1_555
O59 Sr14 3.047500 1_555
O59 Sr18 3.058350 1_555
