# generated using pymatgen
data_Li2NbVO4
_symmetry_space_group_name_H-M   'P 1'
_cell_length_a   6.08416132
_cell_length_b   6.08416132
_cell_length_c   6.08416132
_cell_angle_alpha   122.09645028
_cell_angle_beta   117.26432554
_cell_angle_gamma   90.60492429
_symmetry_Int_Tables_number   1
_chemical_formula_structural   Li2NbVO4
_chemical_formula_sum   'Li4 Nb2 V2 O8'
_cell_volume   159.66128389
_cell_formula_units_Z   2
loop_
 _symmetry_equiv_pos_site_id
 _symmetry_equiv_pos_as_xyz
  1  'x, y, z'
loop_
 _atom_site_type_symbol
 _atom_site_label
 _atom_site_symmetry_multiplicity
 _atom_site_fract_x
 _atom_site_fract_y
 _atom_site_fract_z
 _atom_site_occupancy
  Li  Li0  1  0.50000000  0.00000000  0.00000000  1
  Li  Li1  1  0.00000000  0.50000000  0.50000000  1
  Li  Li2  1  0.50000000  0.50000000  0.50000000  1
  Li  Li3  1  0.50000000  0.50000000  0.00000000  1
  Nb  Nb0  1  0.00000000  0.00000000  0.50000000  1
  Nb  Nb1  1  0.00000000  0.50000000  0.00000000  1
  V  V0  1  0.50000000  0.00000000  0.50000000  1
  V  V1  1  0.00000000  0.00000000  0.00000000  1
  O  O0  1  0.74667200  0.74902000  0.99765200  1
  O  O1  1  0.23689900  0.74001400  0.00311400  1
  O  O2  1  0.25136800  0.74902000  0.50234800  1
  O  O3  1  0.23689900  0.23378500  0.49688600  1
  O  O4  1  0.76310100  0.76621500  0.50311400  1
  O  O5  1  0.74863200  0.25098000  0.49765200  1
  O  O6  1  0.76310100  0.25998600  0.99688600  1
  O  O7  1  0.25332800  0.25098000  0.00234800  1
loop_
_geom_bond_atom_site_label_1
_geom_bond_atom_site_label_2
_geom_bond_distance
_geom_bond_site_symmetry_2
Li0 O5 2.151551 1_555
Li0 O2 2.151551 1_544
Li0 O0 2.151551 1_544
Li0 O7 2.151551 1_555
Li0 O6 2.251889 1_554
Li0 O1 2.251889 1_545
Li1 O2 2.131355 1_555
Li1 O5 2.131355 1_455
Li1 O1 2.177822 1_556
Li1 O6 2.177822 1_454
Li1 O3 2.177822 1_555
Li1 O4 2.177822 1_455
Li2 O5 2.151551 1_555
Li2 O2 2.151551 1_555
Li2 O0 2.151551 1_555
Li2 O7 2.151551 1_555
Li2 O4 2.251894 1_555
Li2 O3 2.251894 1_555
Li3 O0 2.131355 1_554
Li3 O7 2.131355 1_555
Li3 O4 2.177822 1_555
Li3 O3 2.177822 1_554
Li3 O6 2.177827 1_554
Li3 O1 2.177827 1_555
Nb0 O3 2.027645 1_555
Nb0 O4 2.027645 1_445
Nb0 O2 2.173332 1_545
Nb0 O0 2.173332 1_444
Nb0 O7 2.173332 1_556
Nb0 O5 2.173332 1_455
Nb1 O1 2.027649 1_555
Nb1 O6 2.027649 1_454
Nb1 O5 2.173332 1_454
Nb1 O7 2.173332 1_555
Nb1 O2 2.173332 1_555
Nb1 O0 2.173332 1_454
O0 V1 2.148130 1_666
O1 V1 2.152869 1_565
O1 V0 2.152874 1_565
O2 V0 2.148130 1_565
O3 V1 2.152874 1_555
O3 V0 2.152874 1_555
O4 V0 2.152874 1_565
O4 V1 2.152874 1_666
O5 V0 2.148130 1_555
O6 V1 2.152869 1_656
O6 V0 2.152874 1_555
O7 V1 2.148130 1_555
