# generated using pymatgen
data_Li3VPCO7
_symmetry_space_group_name_H-M   'P 1'
_cell_length_a   8.16390338
_cell_length_b   8.16399003
_cell_length_c   8.63793137
_cell_angle_alpha   90.93493034
_cell_angle_beta   89.05813972
_cell_angle_gamma   73.91717978
_symmetry_Int_Tables_number   1
_chemical_formula_structural   Li3VPCO7
_chemical_formula_sum   'Li12 V4 P4 C4 O28'
_cell_volume   552.98076669
_cell_formula_units_Z   4
loop_
 _symmetry_equiv_pos_site_id
 _symmetry_equiv_pos_as_xyz
  1  'x, y, z'
loop_
 _atom_site_type_symbol
 _atom_site_label
 _atom_site_symmetry_multiplicity
 _atom_site_fract_x
 _atom_site_fract_y
 _atom_site_fract_z
 _atom_site_occupancy
  Li  Li0  1  0.50648100  0.78146800  0.11731600  1
  Li  Li1  1  0.00641200  0.28151300  0.11727400  1
  Li  Li2  1  0.53130900  0.25636900  0.88268200  1
  Li  Li3  1  0.03140800  0.75644200  0.88266700  1
  Li  Li4  1  0.32918700  0.11880700  0.30329400  1
  Li  Li5  1  0.82919400  0.61878200  0.30327300  1
  Li  Li6  1  0.86875400  0.07923900  0.69676300  1
  Li  Li7  1  0.36876900  0.57922500  0.69673000  1
  Li  Li8  1  0.75126800  0.97907900  0.36743100  1
  Li  Li9  1  0.25114100  0.47919700  0.36741900  1
  Li  Li10  1  0.22911200  0.00115300  0.63260100  1
  Li  Li11  1  0.72915100  0.50116300  0.63261400  1
  V  V0  1  0.10851400  0.87121400  0.24555900  1
  V  V1  1  0.12116800  0.35817600  0.75413900  1
  V  V2  1  0.60812800  0.37094100  0.24571300  1
  V  V3  1  0.62102900  0.85818400  0.75439800  1
  P  P0  1  0.47201300  0.76047800  0.41938200  1
  P  P1  1  0.97198000  0.26052500  0.41933300  1
  P  P2  1  0.51052400  0.22196400  0.58066100  1
  P  P3  1  0.01051200  0.72205000  0.58061500  1
  C  C0  1  0.77775900  0.01245400  0.03774000  1
  C  C1  1  0.27774900  0.51244700  0.03770200  1
  C  C2  1  0.26242900  0.02780300  0.96226900  1
  C  C3  1  0.76238700  0.52771600  0.96229800  1
  O  O0  1  0.91790900  0.89294800  0.06007900  1
  O  O1  1  0.41779700  0.39281700  0.06008700  1
  O  O2  1  0.14292300  0.16786900  0.93987200  1
  O  O3  1  0.64292300  0.66785000  0.93994800  1
  O  O4  1  0.28875600  0.97304900  0.10555700  1
  O  O5  1  0.78855000  0.47289400  0.10555300  1
  O  O6  1  0.72286300  0.03867600  0.89449500  1
  O  O7  1  0.22290700  0.53863800  0.89444200  1
  O  O8  1  0.69059900  0.10282600  0.14891700  1
  O  O9  1  0.19066100  0.60294500  0.14883900  1
  O  O10  1  0.35278400  0.94050500  0.85109700  1
  O  O11  1  0.85278800  0.44051700  0.85112800  1
  O  O12  1  0.44471200  0.60309400  0.33412000  1
  O  O13  1  0.94474700  0.10311500  0.33406100  1
  O  O14  1  0.35321300  0.19458500  0.66602000  1
  O  O15  1  0.85314000  0.69471100  0.66591700  1
  O  O16  1  0.61380600  0.81187400  0.32630000  1
  O  O17  1  0.11378500  0.31195500  0.32627900  1
  O  O18  1  0.56185600  0.36381800  0.67369100  1
  O  O19  1  0.06186100  0.86386700  0.67369700  1
  O  O20  1  0.46847600  0.26282700  0.40773900  1
  O  O21  1  0.96867800  0.76293200  0.40764200  1
  O  O22  1  0.51288200  0.71860700  0.59233800  1
  O  O23  1  0.01287600  0.21858100  0.59228500  1
  O  O24  1  0.30269300  0.90841700  0.41446400  1
  O  O25  1  0.80258100  0.40837700  0.41445300  1
  O  O26  1  0.65842500  0.05262800  0.58558400  1
  O  O27  1  0.15842400  0.55268000  0.58552400  1
loop_
_geom_bond_atom_site_label_1
_geom_bond_atom_site_label_2
_geom_bond_distance
_geom_bond_site_symmetry_2
Li0 O3 1.942558 1_554
Li0 O4 2.021600 1_555
Li0 O16 2.060564 1_555
Li0 O12 2.519307 1_555
Li1 O2 1.943091 1_554
Li1 O5 2.021454 1_455
Li1 O17 2.060975 1_555
Li1 O13 2.519028 1_455
Li2 O1 1.942581 1_556
Li2 O6 2.021348 1_555
Li2 O18 2.061239 1_555
Li2 O14 2.517133 1_555
Li3 O0 1.942798 1_456
Li3 O7 2.021688 1_555
Li3 O19 2.060814 1_555
Li3 O15 2.518459 1_455
Li4 O17 2.015006 1_555
Li4 O24 2.042542 1_545
Li4 O20 2.056547 1_555
Li4 O4 2.147602 1_545
Li5 O16 2.014710 1_555
Li5 O25 2.043013 1_555
Li5 O21 2.058165 1_555
Li5 O5 2.148663 1_555
Li6 O19 2.014720 1_645
Li6 O26 2.042554 1_555
Li6 O23 2.057457 1_655
Li6 O6 2.148394 1_555
Li7 O18 2.014803 1_555
Li7 O27 2.042602 1_555
Li7 O22 2.057314 1_555
Li7 O7 2.148183 1_555
Li8 O16 2.023623 1_555
Li8 O26 2.037139 1_565
Li8 O13 2.117598 1_565
Li8 O8 2.155082 1_565
Li8 O21 2.165595 1_555
Li9 O17 2.023241 1_555
Li9 O27 2.036382 1_555
Li9 O12 2.117396 1_555
Li9 O9 2.155415 1_555
Li9 O20 2.166482 1_555
Li10 O19 2.022755 1_545
Li10 O24 2.036837 1_545
Li10 O14 2.117733 1_555
Li10 O10 2.154718 1_545
Li10 O23 2.166282 1_555
Li11 O18 2.023381 1_555
Li11 O25 2.036922 1_555
Li11 O15 2.117802 1_555
Li11 O11 2.154734 1_555
Li11 O22 2.166454 1_555
C0 O8 1.279242 1_555
C0 O0 1.301213 1_545
C0 O6 1.323409 1_554
C1 O9 1.279186 1_555
C1 O1 1.301237 1_555
C1 O7 1.323374 1_554
C2 O10 1.279584 1_545
C2 O2 1.300839 1_555
C2 O4 1.323448 1_546
C3 O11 1.279415 1_555
C3 O3 1.300967 1_555
C3 O5 1.323238 1_556
O0 V0 2.226670 1_655
O1 V2 2.225937 1_555
O2 V1 2.226472 1_555
O3 V3 2.225350 1_555
O4 V0 2.229580 1_555
O5 V2 2.231966 1_555
O6 V3 2.231714 1_545
O7 V1 2.232049 1_555
O8 V2 2.246969 1_555
O9 V0 2.247791 1_555
O10 V3 2.247497 1_555
O11 V1 2.249356 1_655
O12 P0 1.541491 1_555
O12 V2 2.115064 1_555
O13 P1 1.541502 1_555
O13 V0 2.114951 1_645
O14 P2 1.541512 1_555
O14 V1 2.114104 1_555
O15 P3 1.541588 1_655
O15 V3 2.115175 1_555
O16 P0 1.553081 1_555
O17 P1 1.553172 1_455
O18 P2 1.553110 1_555
O19 P3 1.553161 1_555
O20 P2 1.558815 1_555
O20 V2 2.140816 1_555
O21 P3 1.558959 1_655
O21 V0 2.142875 1_655
O22 P0 1.558851 1_555
O22 V3 2.140934 1_555
O23 P1 1.558960 1_455
O23 V1 2.140544 1_555
O24 P0 1.565218 1_555
O24 V0 2.249953 1_555
O25 P1 1.565258 1_555
O25 V2 2.251309 1_555
O26 P2 1.565147 1_555
O26 V3 2.251433 1_545
O27 P3 1.565374 1_555
O27 V1 2.250307 1_555
