# generated using pymatgen
data_Li2V3FeO8
_symmetry_space_group_name_H-M   'P 1'
_cell_length_a   8.41990200
_cell_length_b   8.41990200
_cell_length_c   8.52910100
_cell_angle_alpha   90.00000000
_cell_angle_beta   90.00000000
_cell_angle_gamma   90.00000000
_symmetry_Int_Tables_number   1
_chemical_formula_structural   Li2V3FeO8
_chemical_formula_sum   'Li8 V12 Fe4 O32'
_cell_volume   604.66848047
_cell_formula_units_Z   4
loop_
 _symmetry_equiv_pos_site_id
 _symmetry_equiv_pos_as_xyz
  1  'x, y, z'
loop_
 _atom_site_type_symbol
 _atom_site_label
 _atom_site_symmetry_multiplicity
 _atom_site_fract_x
 _atom_site_fract_y
 _atom_site_fract_z
 _atom_site_occupancy
  Li  Li0  1  0.49618900  0.74721300  0.87287300  1
  Li  Li1  1  0.25278700  0.50381100  0.62712700  1
  Li  Li2  1  0.75278700  0.99618900  0.62287300  1
  Li  Li3  1  0.99618900  0.75278700  0.37712700  1
  Li  Li4  1  0.50381100  0.25278700  0.37287300  1
  Li  Li5  1  0.74721300  0.49618900  0.12712700  1
  Li  Li6  1  0.24721300  0.00381100  0.12287300  1
  Li  Li7  1  0.00381100  0.24721300  0.87712700  1
  V  V0  1  0.87393000  0.62113500  0.75083100  1
  V  V1  1  0.63144200  0.36855800  0.75000000  1
  V  V2  1  0.37886500  0.12607000  0.74916900  1
  V  V3  1  0.87886500  0.37393000  0.50083100  1
  V  V4  1  0.13144200  0.13144200  0.50000000  1
  V  V5  1  0.37393000  0.87886500  0.49916900  1
  V  V6  1  0.12607000  0.37886500  0.25083100  1
  V  V7  1  0.36855800  0.63144200  0.25000000  1
  V  V8  1  0.62113500  0.87393000  0.24916900  1
  V  V9  1  0.12113500  0.62607000  0.00083100  1
  V  V10  1  0.86855800  0.86855800  0.00000000  1
  V  V11  1  0.62607000  0.12113500  0.99916900  1
  Fe  Fe0  1  0.12546600  0.87453400  0.75000000  1
  Fe  Fe1  1  0.62546600  0.62546600  0.50000000  1
  Fe  Fe2  1  0.87453400  0.12546600  0.25000000  1
  Fe  Fe3  1  0.37453400  0.37453400  0.00000000  1
  O  O0  1  0.10595700  0.62995800  0.76405000  1
  O  O1  1  0.88883300  0.85902900  0.76228500  1
  O  O2  1  0.61810300  0.12420400  0.76672100  1
  O  O3  1  0.64983800  0.61796200  0.73899000  1
  O  O4  1  0.38203800  0.35016200  0.76101000  1
  O  O5  1  0.87579600  0.38189700  0.73327900  1
  O  O6  1  0.14097100  0.11116700  0.73771500  1
  O  O7  1  0.37004200  0.89404300  0.73595000  1
  O  O8  1  0.87004200  0.60595700  0.51405000  1
  O  O9  1  0.64097100  0.38883300  0.51228500  1
  O  O10  1  0.37579600  0.11810300  0.51672100  1
  O  O11  1  0.88203800  0.14983800  0.48899000  1
  O  O12  1  0.14983800  0.88203800  0.51101000  1
  O  O13  1  0.11810300  0.37579600  0.48327900  1
  O  O14  1  0.38883300  0.64097100  0.48771500  1
  O  O15  1  0.60595700  0.87004200  0.48595000  1
  O  O16  1  0.89404300  0.37004200  0.26405000  1
  O  O17  1  0.11116700  0.14097100  0.26228500  1
  O  O18  1  0.38189700  0.87579600  0.26672100  1
  O  O19  1  0.35016200  0.38203800  0.23899000  1
  O  O20  1  0.61796200  0.64983800  0.26101000  1
  O  O21  1  0.12420400  0.61810300  0.23327900  1
  O  O22  1  0.85902900  0.88883300  0.23771500  1
  O  O23  1  0.62995800  0.10595700  0.23595000  1
  O  O24  1  0.12995800  0.39404300  0.01405000  1
  O  O25  1  0.35902900  0.61116700  0.01228500  1
  O  O26  1  0.62420400  0.88189700  0.01672100  1
  O  O27  1  0.11796200  0.85016200  0.98899000  1
  O  O28  1  0.85016200  0.11796200  0.01101000  1
  O  O29  1  0.88189700  0.62420400  0.98327900  1
  O  O30  1  0.61116700  0.35902900  0.98771500  1
  O  O31  1  0.39404300  0.12995800  0.98595000  1
loop_
_geom_bond_atom_site_label_1
_geom_bond_atom_site_label_2
_geom_bond_distance
_geom_bond_site_symmetry_2
Li0 O26 1.988239 1_556
Li0 O7 2.005094 1_555
Li0 O25 2.014882 1_556
Li0 O3 2.040093 1_555
Li1 O13 1.988239 1_555
Li1 O0 2.005094 1_555
Li1 O14 2.014882 1_555
Li1 O4 2.040093 1_555
Li2 O2 1.988239 1_565
Li2 O15 2.005094 1_555
Li2 O1 2.014882 1_555
Li2 O11 2.040093 1_565
Li3 O21 1.988239 1_655
Li3 O8 2.005094 1_555
Li3 O22 2.014882 1_555
Li3 O12 2.040093 1_655
Li4 O10 1.988239 1_555
Li4 O23 2.005094 1_555
Li4 O9 2.014882 1_555
Li4 O19 2.040093 1_555
Li5 O29 1.988239 1_554
Li5 O16 2.005094 1_555
Li5 O30 2.014882 1_554
Li5 O20 2.040093 1_555
Li6 O18 1.988239 1_545
Li6 O31 2.005094 1_554
Li6 O17 2.014882 1_555
Li6 O27 2.040093 1_544
Li7 O5 1.988239 1_455
Li7 O24 2.005094 1_556
Li7 O6 2.014882 1_555
Li7 O28 2.040093 1_456
Fe0 O6 1.999447 1_565
Fe0 O1 1.999447 1_455
Fe0 O27 2.049647 1_555
Fe0 O12 2.049647 1_555
Fe0 O0 2.069320 1_555
Fe0 O7 2.069320 1_555
Fe1 O9 1.999447 1_555
Fe1 O14 1.999447 1_555
Fe1 O20 2.049647 1_555
Fe1 O3 2.049647 1_555
Fe1 O15 2.069320 1_555
Fe1 O8 2.069320 1_555
Fe2 O17 1.999447 1_655
Fe2 O22 1.999447 1_545
Fe2 O28 2.049647 1_555
Fe2 O11 2.049647 1_555
Fe2 O23 2.069320 1_555
Fe2 O16 2.069320 1_555
Fe3 O25 1.999447 1_555
Fe3 O30 1.999447 1_554
Fe3 O4 2.049647 1_554
Fe3 O19 2.049647 1_555
Fe3 O31 2.069320 1_554
Fe3 O24 2.069320 1_555
O0 V0 1.958305 1_455
O0 V9 2.023833 1_556
O1 V0 2.009347 1_555
O1 V10 2.036251 1_556
O2 V11 1.983875 1_555
O2 V2 2.019977 1_555
O2 V1 2.065430 1_555
O3 V0 1.889722 1_555
O3 V1 2.107755 1_555
O4 V2 1.889722 1_555
O4 V1 2.107755 1_555
O5 V3 1.983875 1_555
O5 V0 2.019977 1_555
O5 V1 2.065430 1_555
O6 V2 2.009347 1_555
O6 V4 2.036251 1_555
O7 V2 1.958305 1_565
O7 V5 2.023833 1_555
O8 V3 1.958305 1_555
O8 V0 2.023833 1_555
O9 V3 2.009347 1_555
O9 V1 2.036251 1_555
O10 V2 1.983875 1_555
O10 V5 2.019977 1_545
O10 V4 2.065430 1_555
O11 V3 1.889722 1_555
O11 V4 2.107755 1_655
O12 V5 1.889722 1_555
O12 V4 2.107755 1_565
O13 V6 1.983875 1_555
O13 V3 2.019977 1_455
O13 V4 2.065430 1_555
O14 V5 2.009347 1_555
O14 V7 2.036251 1_555
O15 V5 1.958305 1_555
O15 V8 2.023833 1_555
O16 V6 1.958305 1_655
O16 V3 2.023833 1_555
O17 V6 2.009347 1_555
O17 V4 2.036251 1_555
O18 V5 1.983875 1_555
O18 V8 2.019977 1_555
O18 V7 2.065430 1_555
O19 V6 1.889722 1_555
O19 V7 2.107755 1_555
O20 V8 1.889722 1_555
O20 V7 2.107755 1_555
O21 V9 1.983875 1_555
O21 V6 2.019977 1_555
O21 V7 2.065430 1_555
O22 V8 2.009347 1_555
O22 V10 2.036251 1_555
O23 V8 1.958305 1_545
O23 V11 2.023833 1_554
O24 V9 1.958305 1_555
O24 V6 2.023833 1_555
O25 V9 2.009347 1_555
O25 V7 2.036251 1_555
O26 V8 1.983875 1_555
O26 V11 2.019977 1_564
O26 V10 2.065430 1_555
O27 V9 1.889722 1_556
O27 V10 2.107755 1_456
O28 V11 1.889722 1_554
O28 V10 2.107755 1_545
O29 V0 1.983875 1_555
O29 V9 2.019977 1_656
O29 V10 2.065430 1_556
O30 V11 2.009347 1_555
O30 V1 2.036251 1_555
O31 V11 1.958305 1_555
O31 V2 2.023833 1_555
