# generated using pymatgen
data_Li2VH2OF5
_symmetry_space_group_name_H-M   'P 1'
_cell_length_a   5.73862763
_cell_length_b   10.05290191
_cell_length_c   9.42276202
_cell_angle_alpha   72.13386706
_cell_angle_beta   79.55944328
_cell_angle_gamma   105.99931348
_symmetry_Int_Tables_number   1
_chemical_formula_structural   Li2VH2OF5
_chemical_formula_sum   'Li8 V4 H8 O4 F20'
_cell_volume   475.89545704
_cell_formula_units_Z   4
loop_
 _symmetry_equiv_pos_site_id
 _symmetry_equiv_pos_as_xyz
  1  'x, y, z'
loop_
 _atom_site_type_symbol
 _atom_site_label
 _atom_site_symmetry_multiplicity
 _atom_site_fract_x
 _atom_site_fract_y
 _atom_site_fract_z
 _atom_site_occupancy
  Li  Li0  1  0.28013500  0.86909600  0.12874100  1
  Li  Li1  1  0.28015400  0.36909600  0.62867800  1
  Li  Li2  1  0.25936900  0.60873900  0.88901800  1
  Li  Li3  1  0.25972800  0.10878000  0.38877900  1
  Li  Li4  1  0.74025500  0.39121100  0.11126500  1
  Li  Li5  1  0.74047500  0.89117000  0.61109500  1
  Li  Li6  1  0.71987300  0.13095100  0.87130800  1
  Li  Li7  1  0.71988100  0.63088900  0.37128100  1
  V  V0  1  0.77120100  0.26060900  0.48934200  1
  V  V1  1  0.22874500  0.23935700  0.01066600  1
  V  V2  1  0.77112700  0.76073300  0.98928000  1
  V  V3  1  0.22883800  0.73936900  0.51064800  1
  H  H0  1  0.14095600  0.52579300  0.31476300  1
  H  H1  1  0.14091500  0.02589700  0.81451900  1
  H  H2  1  0.78875000  0.59971900  0.74074200  1
  H  H3  1  0.78889800  0.09973900  0.24078300  1
  H  H4  1  0.21108400  0.40014900  0.25923600  1
  H  H5  1  0.21127100  0.90013600  0.75934300  1
  H  H6  1  0.85940000  0.47412200  0.68540200  1
  H  H7  1  0.85920100  0.97415300  0.18519300  1
  O  O0  1  0.08626600  0.41816700  0.33179900  1
  O  O1  1  0.08643000  0.91823500  0.83174200  1
  O  O2  1  0.91392000  0.58173100  0.66844900  1
  O  O3  1  0.91390100  0.08175200  0.16831500  1
  F  F0  1  0.47463600  0.61275400  0.13743800  1
  F  F1  1  0.47499700  0.11253600  0.63738900  1
  F  F2  1  0.52477700  0.38743000  0.86244600  1
  F  F3  1  0.52496600  0.88747400  0.36221400  1
  F  F4  1  0.59596300  0.90922100  0.96221200  1
  F  F5  1  0.59586000  0.40902400  0.46215800  1
  F  F6  1  0.05305800  0.38759600  0.98381200  1
  F  F7  1  0.05312100  0.88760300  0.48385700  1
  F  F8  1  0.94674800  0.61239600  0.01621000  1
  F  F9  1  0.94688900  0.11236500  0.51628400  1
  F  F10  1  0.40414600  0.09098300  0.03787400  1
  F  F11  1  0.40419700  0.59091900  0.53775100  1
  F  F12  1  0.65700900  0.70797500  0.81815900  1
  F  F13  1  0.65702300  0.20771600  0.31829400  1
  F  F14  1  0.11046200  0.18454800  0.84160200  1
  F  F15  1  0.10999300  0.68449100  0.34167500  1
  F  F16  1  0.88967800  0.81542600  0.15845600  1
  F  F17  1  0.88944500  0.31541400  0.65842300  1
  F  F18  1  0.34307600  0.29232400  0.18165700  1
  F  F19  1  0.34318100  0.79221400  0.68170000  1
loop_
_geom_bond_atom_site_label_1
_geom_bond_atom_site_label_2
_geom_bond_distance
_geom_bond_site_symmetry_2
H0 O0 0.991401 1_555
H1 O1 0.991359 1_545
H2 O2 0.991232 1_555
H3 O3 0.991613 1_555
H4 O0 0.991660 1_555
H5 O1 0.991279 1_555
H6 O2 0.991432 1_555
H7 O3 0.991485 1_565
O0 V0 1.996832 1_455
O1 V2 1.997394 1_455
O2 V3 1.997439 1_655
O3 V1 1.996618 1_655
F0 V2 1.877885 1_554
F1 V0 1.876921 1_555
F2 V1 1.876924 1_556
F3 V3 1.878010 1_555
F4 Li6 1.985419 1_565
F4 V2 1.997549 1_555
F4 Li0 2.021810 1_556
F5 Li7 1.986605 1_555
F5 V0 1.997661 1_555
F5 Li1 2.021839 1_555
F6 Li4 1.986776 1_456
F6 V1 1.997651 1_556
F6 Li2 2.022185 1_555
F7 Li5 1.984934 1_455
F7 V3 1.997741 1_555
F7 Li3 2.022800 1_565
F8 Li2 1.985035 1_654
F8 V2 1.998199 1_554
F8 Li4 2.022732 1_555
F9 Li3 1.987023 1_655
F9 V0 1.997689 1_555
F9 Li5 2.022724 1_545
F10 Li0 1.986802 1_545
F10 V1 1.997562 1_555
F10 Li6 2.022048 1_554
F11 Li1 1.986235 1_555
F11 V3 1.998042 1_555
F11 Li7 2.021369 1_555
F12 V2 2.006508 1_555
F12 Li5 2.097180 1_555
F12 Li2 2.105310 1_555
F13 V0 2.006568 1_555
F13 Li4 2.098821 1_555
F13 Li3 2.103391 1_555
F14 V1 2.006604 1_556
F14 Li6 2.099299 1_455
F14 Li1 2.104198 1_555
F15 V3 2.007406 1_555
F15 Li7 2.096763 1_455
F15 Li0 2.104641 1_555
F16 V2 2.007726 1_554
F16 Li0 2.098493 1_655
F16 Li7 2.103616 1_555
F17 V0 2.006647 1_555
F17 Li1 2.099851 1_655
F17 Li6 2.103551 1_555
F18 V1 2.006726 1_555
F18 Li3 2.099502 1_555
F18 Li4 2.102779 1_555
F19 V3 2.006779 1_555
F19 Li2 2.099793 1_555
F19 Li5 2.103373 1_555
