# generated using pymatgen
data_Rb6Co2O7
_symmetry_space_group_name_H-M   'P 1'
_cell_length_a   9.68276348
_cell_length_b   9.68276348
_cell_length_c   10.01862700
_cell_angle_alpha   90.00000000
_cell_angle_beta   90.00000000
_cell_angle_gamma   119.99999643
_symmetry_Int_Tables_number   1
_chemical_formula_structural   Rb6Co2O7
_chemical_formula_sum   'Rb12 Co4 O14'
_cell_volume   813.46243424
_cell_formula_units_Z   2
loop_
 _symmetry_equiv_pos_site_id
 _symmetry_equiv_pos_as_xyz
  1  'x, y, z'
loop_
 _atom_site_type_symbol
 _atom_site_label
 _atom_site_symmetry_multiplicity
 _atom_site_fract_x
 _atom_site_fract_y
 _atom_site_fract_z
 _atom_site_occupancy
  Rb  Rb0  1  0.33854300  0.96822000  0.87580700  1
  Rb  Rb1  1  0.35205400  0.96222300  0.37311100  1
  Rb  Rb2  1  0.03178000  0.37032400  0.87580700  1
  Rb  Rb3  1  0.03777700  0.38983100  0.37311100  1
  Rb  Rb4  1  0.37032400  0.33854300  0.12419300  1
  Rb  Rb5  1  0.38983100  0.35205400  0.62688900  1
  Rb  Rb6  1  0.61016900  0.64794600  0.37311100  1
  Rb  Rb7  1  0.62967600  0.66145700  0.87580700  1
  Rb  Rb8  1  0.96222300  0.61016900  0.62688900  1
  Rb  Rb9  1  0.96822000  0.62967600  0.12419300  1
  Rb  Rb10  1  0.64794600  0.03777700  0.62688900  1
  Rb  Rb11  1  0.66145700  0.03178000  0.12419300  1
  Co  Co0  1  0.33333300  0.66666700  0.68427300  1
  Co  Co1  1  0.33333300  0.66666700  0.06461800  1
  Co  Co2  1  0.66666700  0.33333300  0.31572700  1
  Co  Co3  1  0.66666700  0.33333300  0.93538200  1
  O  O0  1  0.16971500  0.48012600  0.12145800  1
  O  O1  1  0.17486500  0.47569300  0.62728300  1
  O  O2  1  0.30082800  0.82513500  0.62728300  1
  O  O3  1  0.31041100  0.83028500  0.12145800  1
  O  O4  1  0.33333300  0.66666700  0.87340100  1
  O  O5  1  0.51987400  0.68958900  0.12145800  1
  O  O6  1  0.52430700  0.69917200  0.62728300  1
  O  O7  1  0.47569300  0.30082800  0.37271700  1
  O  O8  1  0.48012600  0.31041100  0.87854200  1
  O  O9  1  0.66666700  0.33333300  0.12659900  1
  O  O10  1  0.68958900  0.16971500  0.87854200  1
  O  O11  1  0.69917200  0.17486500  0.37271700  1
  O  O12  1  0.82513500  0.52430700  0.37271700  1
  O  O13  1  0.83028500  0.51987400  0.87854200  1
loop_
_geom_bond_atom_site_label_1
_geom_bond_atom_site_label_2
_geom_bond_distance
_geom_bond_site_symmetry_2
Co0 O2 1.806212 1_555
Co0 O1 1.806218 1_555
Co0 O6 1.806221 1_555
Co0 O4 1.894803 1_555
Co1 O3 1.798637 1_555
Co1 O0 1.798643 1_555
Co1 O5 1.798647 1_555
Co1 O4 1.915732 1_554
Co2 O11 1.806212 1_555
Co2 O12 1.806218 1_555
Co2 O7 1.806221 1_555
Co2 O9 1.894803 1_555
Co3 O10 1.798637 1_555
Co3 O13 1.798643 1_555
Co3 O8 1.798647 1_555
Co3 O9 1.915732 1_556
O0 Rb2 2.747932 1_554
O0 Rb3 2.763344 1_555
O0 Rb4 2.883782 1_555
O0 Rb9 2.954545 1_455
O1 Rb2 2.783226 1_555
O1 Rb3 2.798933 1_555
O1 Rb5 2.873601 1_555
O1 Rb8 2.935264 1_455
O2 Rb0 2.783227 1_555
O2 Rb1 2.798933 1_555
O2 Rb8 2.873601 1_455
O2 Rb10 2.935264 1_565
O3 Rb0 2.747934 1_554
O3 Rb1 2.763344 1_555
O3 Rb9 2.883775 1_455
O3 Rb11 2.954553 1_565
O4 Rb7 2.895073 1_555
O4 Rb0 2.895073 1_555
O4 Rb2 2.895073 1_555
O5 Rb7 2.747929 1_554
O5 Rb6 2.763344 1_555
O5 Rb11 2.883774 1_565
O5 Rb4 2.954553 1_555
O6 Rb7 2.783223 1_555
O6 Rb6 2.798933 1_555
O6 Rb10 2.873601 1_565
O6 Rb5 2.935264 1_555
O7 Rb4 2.783223 1_555
O7 Rb5 2.798933 1_555
O7 Rb1 2.873601 1_545
O7 Rb6 2.935264 1_555
O8 Rb4 2.747929 1_556
O8 Rb5 2.763344 1_555
O8 Rb0 2.883774 1_545
O8 Rb7 2.954553 1_555
O9 Rb4 2.895073 1_555
O9 Rb11 2.895073 1_555
O9 Rb9 2.895073 1_555
O10 Rb11 2.747934 1_556
O10 Rb10 2.763344 1_555
O10 Rb2 2.883775 1_655
O10 Rb0 2.954553 1_545
O11 Rb11 2.783227 1_555
O11 Rb10 2.798933 1_555
O11 Rb3 2.873601 1_655
O11 Rb1 2.935264 1_545
O12 Rb9 2.783226 1_555
O12 Rb8 2.798933 1_555
O12 Rb6 2.873601 1_555
O12 Rb3 2.935264 1_655
O13 Rb9 2.747932 1_556
O13 Rb8 2.763344 1_555
O13 Rb7 2.883782 1_555
O13 Rb2 2.954545 1_655
