# generated using pymatgen
data_LiCuTeO4
_symmetry_space_group_name_H-M   'P 1'
_cell_length_a   6.18464900
_cell_length_b   6.18464900
_cell_length_c   8.63654100
_cell_angle_alpha   90.00000000
_cell_angle_beta   90.00000000
_cell_angle_gamma   90.00000000
_symmetry_Int_Tables_number   1
_chemical_formula_structural   LiCuTeO4
_chemical_formula_sum   'Li4 Cu4 Te4 O16'
_cell_volume   330.34668496
_cell_formula_units_Z   4
loop_
 _symmetry_equiv_pos_site_id
 _symmetry_equiv_pos_as_xyz
  1  'x, y, z'
loop_
 _atom_site_type_symbol
 _atom_site_label
 _atom_site_symmetry_multiplicity
 _atom_site_fract_x
 _atom_site_fract_y
 _atom_site_fract_z
 _atom_site_occupancy
  Li  Li0  1  0.00000000  0.20981500  0.00000000  1
  Li  Li1  1  0.00000000  0.79018500  0.50000000  1
  Li  Li2  1  0.20981500  0.00000000  0.25000000  1
  Li  Li3  1  0.79018500  0.00000000  0.75000000  1
  Cu  Cu0  1  0.24614500  0.24614500  0.62500000  1
  Cu  Cu1  1  0.24614500  0.75385500  0.87500000  1
  Cu  Cu2  1  0.75385500  0.24614500  0.37500000  1
  Cu  Cu3  1  0.75385500  0.75385500  0.12500000  1
  Te  Te0  1  0.22667400  0.50000000  0.25000000  1
  Te  Te1  1  0.50000000  0.22667400  0.00000000  1
  Te  Te2  1  0.50000000  0.77332600  0.50000000  1
  Te  Te3  1  0.77332600  0.50000000  0.75000000  1
  O  O0  1  0.02487500  0.26568000  0.25066000  1
  O  O1  1  0.02487500  0.73432000  0.24934000  1
  O  O2  1  0.26568000  0.02487500  0.99934000  1
  O  O3  1  0.26568000  0.97512500  0.50066000  1
  O  O4  1  0.26851300  0.48364800  0.01630900  1
  O  O5  1  0.26851300  0.51635200  0.48369100  1
  O  O6  1  0.48364800  0.26851300  0.23369100  1
  O  O7  1  0.48364800  0.73148700  0.26630900  1
  O  O8  1  0.51635200  0.26851300  0.76630900  1
  O  O9  1  0.51635200  0.73148700  0.73369100  1
  O  O10  1  0.73148700  0.51635200  0.51630900  1
  O  O11  1  0.73148700  0.48364800  0.98369100  1
  O  O12  1  0.73432000  0.02487500  0.00066000  1
  O  O13  1  0.73432000  0.97512500  0.49934000  1
  O  O14  1  0.97512500  0.26568000  0.74934000  1
  O  O15  1  0.97512500  0.73432000  0.75066000  1
loop_
_geom_bond_atom_site_label_1
_geom_bond_atom_site_label_2
_geom_bond_distance
_geom_bond_site_symmetry_2
Li0 O2 2.002046 1_554
Li0 O12 2.002046 1_455
Li0 O0 2.197625 1_555
Li0 O14 2.197625 1_454
Li0 O4 2.376084 1_555
Li0 O11 2.376084 1_454
Li1 O13 2.002046 1_455
Li1 O3 2.002046 1_555
Li1 O15 2.197625 1_455
Li1 O1 2.197625 1_555
Li1 O5 2.376084 1_555
Li1 O10 2.376084 1_455
Li2 O1 2.002046 1_545
Li2 O0 2.002046 1_555
Li2 O2 2.197625 1_554
Li2 O3 2.197625 1_545
Li2 O6 2.376084 1_555
Li2 O7 2.376084 1_545
Li3 O14 2.002046 1_555
Li3 O15 2.002046 1_545
Li3 O13 2.197625 1_545
Li3 O12 2.197625 1_556
Li3 O9 2.376084 1_545
Li3 O8 2.376084 1_555
Cu0 O14 1.994320 1_455
Cu0 O3 1.994320 1_545
Cu0 O5 2.073948 1_555
Cu0 O8 2.073948 1_555
Cu1 O2 1.994320 1_565
Cu1 O15 1.994320 1_455
Cu1 O4 2.073948 1_556
Cu1 O9 2.073948 1_555
Cu2 O0 1.994320 1_655
Cu2 O13 1.994320 1_545
Cu2 O6 2.073948 1_555
Cu2 O10 2.073948 1_555
Cu3 O12 1.994320 1_565
Cu3 O1 1.994320 1_655
Cu3 O11 2.073948 1_554
Cu3 O7 2.073948 1_555
O0 Te0 1.912543 1_555
O1 Te0 1.912543 1_555
O2 Te1 1.912543 1_556
O3 Te2 1.912543 1_555
O4 Te0 2.037313 1_555
O4 Te1 2.143680 1_555
O5 Te0 2.037313 1_555
O5 Te2 2.143680 1_555
O6 Te1 2.037313 1_555
O6 Te0 2.143680 1_555
O7 Te2 2.037313 1_555
O7 Te0 2.143680 1_555
O8 Te1 2.037313 1_556
O8 Te3 2.143680 1_555
O9 Te2 2.037313 1_555
O9 Te3 2.143680 1_555
O10 Te3 2.037313 1_555
O10 Te2 2.143680 1_555
O11 Te3 2.037313 1_555
O11 Te1 2.143680 1_556
O12 Te1 1.912543 1_555
O13 Te2 1.912543 1_555
O14 Te3 1.912543 1_555
O15 Te3 1.912543 1_555
