# generated using pymatgen
data_GdTa7O19
_symmetry_space_group_name_H-M   'P 1'
_cell_length_a   6.26968123
_cell_length_b   6.26968123
_cell_length_c   20.13418900
_cell_angle_alpha   90.00000000
_cell_angle_beta   90.00000000
_cell_angle_gamma   119.99999191
_symmetry_Int_Tables_number   1
_chemical_formula_structural   GdTa7O19
_chemical_formula_sum   'Gd2 Ta14 O38'
_cell_volume   685.41835382
_cell_formula_units_Z   2
loop_
 _symmetry_equiv_pos_site_id
 _symmetry_equiv_pos_as_xyz
  1  'x, y, z'
loop_
 _atom_site_type_symbol
 _atom_site_label
 _atom_site_symmetry_multiplicity
 _atom_site_fract_x
 _atom_site_fract_y
 _atom_site_fract_z
 _atom_site_occupancy
  Gd  Gd0  1  0.66666700  0.33333300  0.50000000  1
  Gd  Gd1  1  0.66666700  0.33333300  0.00000000  1
  Ta  Ta0  1  0.69364500  0.02674800  0.65555700  1
  Ta  Ta1  1  0.69364500  0.02674800  0.84444300  1
  Ta  Ta2  1  0.97325200  0.30635500  0.15555700  1
  Ta  Ta3  1  0.97325200  0.30635500  0.34444300  1
  Ta  Ta4  1  0.69364500  0.66689700  0.34444300  1
  Ta  Ta5  1  0.69364500  0.66689700  0.15555700  1
  Ta  Ta6  1  0.00000000  0.00000000  0.00000000  1
  Ta  Ta7  1  0.00000000  0.00000000  0.50000000  1
  Ta  Ta8  1  0.97325200  0.66689700  0.65555700  1
  Ta  Ta9  1  0.97325200  0.66689700  0.84444300  1
  Ta  Ta10  1  0.33310300  0.30635500  0.65555700  1
  Ta  Ta11  1  0.33310300  0.30635500  0.84444300  1
  Ta  Ta12  1  0.33310300  0.02674800  0.34444300  1
  Ta  Ta13  1  0.33310300  0.02674800  0.15555700  1
  O  O0  1  0.33329600  0.42025700  0.15327400  1
  O  O1  1  0.33329600  0.42025700  0.34672600  1
  O  O2  1  0.37547000  0.29292500  0.75000000  1
  O  O3  1  0.57974300  0.66670400  0.84672600  1
  O  O4  1  0.57974300  0.66670400  0.65327400  1
  O  O5  1  0.37547000  0.08254500  0.25000000  1
  O  O6  1  0.33329600  0.91303900  0.65327400  1
  O  O7  1  0.33329600  0.91303900  0.84672600  1
  O  O8  1  0.70707500  0.62453000  0.25000000  1
  O  O9  1  0.66666700  0.33333300  0.63127500  1
  O  O10  1  0.66666700  0.33333300  0.36872500  1
  O  O11  1  0.66666700  0.33333300  0.13127500  1
  O  O12  1  0.66666700  0.33333300  0.86872500  1
  O  O13  1  0.91745500  0.62453000  0.75000000  1
  O  O14  1  0.57974300  0.91303900  0.15327400  1
  O  O15  1  0.57974300  0.91303900  0.34672600  1
  O  O16  1  0.70707500  0.08254500  0.75000000  1
  O  O17  1  0.76202700  0.04785900  0.55606700  1
  O  O18  1  0.76202700  0.04785900  0.94393300  1
  O  O19  1  0.08696100  0.66670400  0.15327400  1
  O  O20  1  0.08696100  0.66670400  0.34672600  1
  O  O21  1  0.91745500  0.29292500  0.25000000  1
  O  O22  1  0.95214100  0.23797300  0.05606700  1
  O  O23  1  0.95214100  0.23797300  0.44393300  1
  O  O24  1  0.08696100  0.42025700  0.65327400  1
  O  O25  1  0.08696100  0.42025700  0.84672600  1
  O  O26  1  0.76202700  0.71416800  0.05606700  1
  O  O27  1  0.76202700  0.71416800  0.44393300  1
  O  O28  1  0.00000000  0.00000000  0.83331600  1
  O  O29  1  0.00000000  0.00000000  0.16668400  1
  O  O30  1  0.00000000  0.00000000  0.33331600  1
  O  O31  1  0.00000000  0.00000000  0.66668400  1
  O  O32  1  0.95214100  0.71416800  0.94393300  1
  O  O33  1  0.95214100  0.71416800  0.55606700  1
  O  O34  1  0.28583200  0.23797300  0.94393300  1
  O  O35  1  0.28583200  0.23797300  0.55606700  1
  O  O36  1  0.28583200  0.04785900  0.44393300  1
  O  O37  1  0.28583200  0.04785900  0.05606700  1
loop_
_geom_bond_atom_site_label_1
_geom_bond_atom_site_label_2
_geom_bond_distance
_geom_bond_site_symmetry_2
Gd0 O17 2.430099 1_555
Gd0 O23 2.430099 1_555
Gd0 O33 2.430103 1_555
Gd0 O36 2.430103 1_555
Gd0 O35 2.430105 1_555
Gd0 O27 2.430105 1_555
Gd0 O10 2.643116 1_555
Gd0 O9 2.643116 1_555
Gd1 O18 2.430099 1_554
Gd1 O22 2.430099 1_555
Gd1 O32 2.430103 1_554
Gd1 O37 2.430103 1_555
Gd1 O34 2.430105 1_554
Gd1 O26 2.430105 1_555
Gd1 O11 2.643116 1_555
Gd1 O12 2.643116 1_554
O0 Ta2 1.998931 1_455
O0 Ta5 2.001001 1_555
O0 Ta13 2.466999 1_555
O1 Ta3 1.998931 1_455
O1 Ta4 2.001001 1_555
O1 Ta12 2.466999 1_555
O2 Ta11 1.927652 1_555
O2 Ta10 1.927652 1_555
O3 Ta1 1.998931 1_565
O3 Ta11 2.001001 1_555
O3 Ta9 2.466999 1_555
O4 Ta0 1.998931 1_565
O4 Ta10 2.001001 1_555
O4 Ta8 2.466999 1_555
O5 Ta12 1.927652 1_555
O5 Ta13 1.927652 1_555
O6 Ta8 1.998931 1_455
O6 Ta0 2.001001 1_565
O6 Ta10 2.466999 1_565
O7 Ta9 1.998931 1_455
O7 Ta1 2.001001 1_565
O7 Ta11 2.466999 1_565
O8 Ta4 1.927652 1_555
O8 Ta5 1.927652 1_555
O9 Ta0 2.070645 1_555
O9 Ta8 2.070649 1_555
O9 Ta10 2.070651 1_555
O10 Ta3 2.070645 1_555
O10 Ta12 2.070649 1_555
O10 Ta4 2.070651 1_555
O11 Ta2 2.070645 1_555
O11 Ta13 2.070649 1_555
O11 Ta5 2.070651 1_555
O12 Ta1 2.070645 1_555
O12 Ta9 2.070649 1_555
O12 Ta11 2.070651 1_555
O13 Ta8 1.927652 1_555
O13 Ta9 1.927652 1_555
O14 Ta5 1.998931 1_555
O14 Ta13 2.001001 1_565
O14 Ta2 2.467000 1_565
O15 Ta4 1.998931 1_555
O15 Ta12 2.001001 1_565
O15 Ta3 2.467000 1_565
O16 Ta0 1.927652 1_555
O16 Ta1 1.927652 1_555
O17 Ta7 2.009520 1_655
O17 Ta0 2.038920 1_555
O18 Ta6 2.009520 1_656
O18 Ta1 2.038920 1_555
O19 Ta13 1.998931 1_565
O19 Ta2 2.001001 1_455
O19 Ta5 2.466999 1_455
O20 Ta12 1.998931 1_565
O20 Ta3 2.001001 1_455
O20 Ta4 2.466999 1_455
O21 Ta3 1.927652 1_555
O21 Ta2 1.927652 1_555
O22 Ta6 2.009520 1_655
O22 Ta2 2.038920 1_555
O23 Ta7 2.009520 1_655
O23 Ta3 2.038920 1_555
O24 Ta10 1.998931 1_555
O24 Ta8 2.001001 1_455
O24 Ta0 2.467000 1_455
O25 Ta11 1.998931 1_555
O25 Ta9 2.001001 1_455
O25 Ta1 2.467000 1_455
O26 Ta6 2.009521 1_665
O26 Ta5 2.038920 1_555
O27 Ta7 2.009521 1_665
O27 Ta4 2.038920 1_555
O28 Ta1 2.022301 1_455
O28 Ta9 2.022301 1_445
O28 Ta11 2.022301 1_555
O29 Ta2 2.022301 1_455
O29 Ta13 2.022301 1_555
O29 Ta5 2.022301 1_445
O30 Ta3 2.022301 1_455
O30 Ta12 2.022301 1_555
O30 Ta4 2.022301 1_445
O31 Ta0 2.022301 1_455
O31 Ta8 2.022301 1_445
O31 Ta10 2.022301 1_555
O32 Ta6 2.009521 1_666
O32 Ta9 2.038920 1_555
O33 Ta7 2.009521 1_665
O33 Ta8 2.038920 1_555
O34 Ta6 2.009521 1_556
O34 Ta11 2.038920 1_555
O35 Ta7 2.009521 1_555
O35 Ta10 2.038920 1_555
O36 Ta7 2.009521 1_555
O36 Ta12 2.038920 1_555
O37 Ta6 2.009521 1_555
O37 Ta13 2.038920 1_555
