# generated using pymatgen
data_Sr7Bi23O40
_symmetry_space_group_name_H-M   'P 1'
_cell_length_a   14.09425369
_cell_length_b   14.09425369
_cell_length_c   6.92548501
_cell_angle_alpha   85.25387510
_cell_angle_beta   85.25387510
_cell_angle_gamma   90.88669523
_symmetry_Int_Tables_number   1
_chemical_formula_structural   Sr7Bi23O40
_chemical_formula_sum   'Sr7 Bi23 O40'
_cell_volume   1365.97020128
_cell_formula_units_Z   1
loop_
 _symmetry_equiv_pos_site_id
 _symmetry_equiv_pos_as_xyz
  1  'x, y, z'
loop_
 _atom_site_type_symbol
 _atom_site_label
 _atom_site_symmetry_multiplicity
 _atom_site_fract_x
 _atom_site_fract_y
 _atom_site_fract_z
 _atom_site_occupancy
  Sr  Sr0  1  0.70172100  0.29827900  0.00000000  1
  Sr  Sr1  1  0.29827900  0.70172100  0.00000000  1
  Sr  Sr2  1  0.59950500  0.40049500  0.50000000  1
  Sr  Sr3  1  0.90113600  0.09886400  0.00000000  1
  Sr  Sr4  1  0.09886400  0.90113600  0.00000000  1
  Sr  Sr5  1  0.40049500  0.59950500  0.50000000  1
  Sr  Sr6  1  0.00000000  0.00000000  0.50000000  1
  Bi  Bi0  1  0.50000000  0.50000000  0.00000000  1
  Bi  Bi1  1  0.85502300  0.46548600  0.61968400  1
  Bi  Bi2  1  0.84098300  0.84098300  0.87344800  1
  Bi  Bi3  1  0.80013600  0.19986400  0.50000000  1
  Bi  Bi4  1  0.44094600  0.23839500  0.89376300  1
  Bi  Bi5  1  0.64314100  0.03427200  0.88126500  1
  Bi  Bi6  1  0.53451400  0.14497700  0.38031600  1
  Bi  Bi7  1  0.66272400  0.66272400  0.62070100  1
  Bi  Bi8  1  0.23839500  0.44094600  0.89376300  1
  Bi  Bi9  1  0.46548600  0.85502300  0.61968400  1
  Bi  Bi10  1  0.03427200  0.64314100  0.88126500  1
  Bi  Bi11  1  0.05992800  0.26424600  0.60132700  1
  Bi  Bi12  1  0.76160500  0.55905400  0.10623700  1
  Bi  Bi13  1  0.73575400  0.94007200  0.39867300  1
  Bi  Bi14  1  0.33727600  0.33727600  0.37929900  1
  Bi  Bi15  1  0.55905400  0.76160500  0.10623700  1
  Bi  Bi16  1  0.15901700  0.15901700  0.12655200  1
  Bi  Bi17  1  0.19986400  0.80013600  0.50000000  1
  Bi  Bi18  1  0.14497700  0.53451400  0.38031600  1
  Bi  Bi19  1  0.26424600  0.05992800  0.60132700  1
  Bi  Bi20  1  0.35685900  0.96572800  0.11873500  1
  Bi  Bi21  1  0.94007200  0.73575400  0.39867300  1
  Bi  Bi22  1  0.96572800  0.35685900  0.11873500  1
  O  O0  1  0.85963300  0.44241300  0.95930300  1
  O  O1  1  0.74959400  0.13962300  0.82874100  1
  O  O2  1  0.54134600  0.35015300  0.86644500  1
  O  O3  1  0.66296200  0.66296200  0.96505300  1
  O  O4  1  0.75530100  0.35361900  0.64373900  1
  O  O5  1  0.74854900  0.56031400  0.43245800  1
  O  O6  1  0.43968600  0.25145100  0.56754200  1
  O  O7  1  0.44241300  0.85963300  0.95930300  1
  O  O8  1  0.85427100  0.85427100  0.51054700  1
  O  O9  1  0.55653200  0.55653200  0.67146900  1
  O  O10  1  0.35015300  0.54134600  0.86644500  1
  O  O11  1  0.06271900  0.25042500  0.92586800  1
  O  O12  1  0.86037700  0.25040600  0.17125900  1
  O  O13  1  0.64638100  0.24469900  0.35626100  1
  O  O14  1  0.35361900  0.75530100  0.64373900  1
  O  O15  1  0.64984700  0.45865400  0.13355500  1
  O  O16  1  0.25042500  0.06271900  0.92586800  1
  O  O17  1  0.94429000  0.16738600  0.62908800  1
  O  O18  1  0.44346800  0.44346800  0.32853100  1
  O  O19  1  0.14572900  0.14572900  0.48945300  1
  O  O20  1  0.13962300  0.74959400  0.82874100  1
  O  O21  1  0.83261400  0.05571000  0.37091200  1
  O  O22  1  0.25145100  0.43968600  0.56754200  1
  O  O23  1  0.56031400  0.74854900  0.43245800  1
  O  O24  1  0.55758700  0.14036700  0.04069700  1
  O  O25  1  0.61822500  0.04388200  0.55508700  1
  O  O26  1  0.16738600  0.94429000  0.62908800  1
  O  O27  1  0.04388200  0.61822500  0.55508700  1
  O  O28  1  0.38177500  0.95611800  0.44491300  1
  O  O29  1  0.33703800  0.33703800  0.03494700  1
  O  O30  1  0.24469900  0.64638100  0.35626100  1
  O  O31  1  0.95611800  0.38177500  0.44491300  1
  O  O32  1  0.45865400  0.64984700  0.13355500  1
  O  O33  1  0.94636400  0.94636400  0.84596200  1
  O  O34  1  0.74957500  0.93728100  0.07413200  1
  O  O35  1  0.25040600  0.86037700  0.17125900  1
  O  O36  1  0.05571000  0.83261400  0.37091200  1
  O  O37  1  0.14036700  0.55758700  0.04069700  1
  O  O38  1  0.93728100  0.74957500  0.07413200  1
  O  O39  1  0.05363600  0.05363600  0.15403800  1
loop_
_geom_bond_atom_site_label_1
_geom_bond_atom_site_label_2
_geom_bond_distance
_geom_bond_site_symmetry_2
Bi0 O18 2.413870 1_555
Bi0 O9 2.413870 1_554
Bi0 O15 2.434689 1_555
Bi0 O32 2.434689 1_555
Bi0 O10 2.434689 1_554
Bi0 O2 2.434689 1_554
Bi1 O4 2.082866 1_555
Bi1 O31 2.211383 1_555
Bi1 O0 2.354012 1_555
Bi1 O5 2.411820 1_555
Bi2 O33 2.070367 1_555
Bi2 O38 2.345958 1_556
Bi2 O34 2.345958 1_556
Bi2 O8 2.495954 1_555
Bi3 O21 2.323443 1_555
Bi3 O17 2.323443 1_555
Bi3 O1 2.409290 1_555
Bi3 O12 2.409290 1_555
Bi3 O4 2.526201 1_555
Bi3 O13 2.526201 1_555
Bi4 O2 2.087266 1_555
Bi4 O6 2.253060 1_555
Bi4 O29 2.254939 1_556
Bi4 O24 2.400312 1_556
Bi5 O1 2.083161 1_555
Bi5 O24 2.240056 1_556
Bi5 O25 2.307942 1_555
Bi5 O34 2.448679 1_546
Bi6 O13 2.082866 1_555
Bi6 O25 2.211383 1_555
Bi6 O24 2.354012 1_555
Bi6 O6 2.411820 1_555
Bi7 O9 2.088140 1_555
Bi7 O23 2.313146 1_555
Bi7 O5 2.313146 1_555
Bi7 O3 2.385364 1_555
Bi8 O10 2.087266 1_555
Bi8 O22 2.253060 1_555
Bi8 O29 2.254939 1_556
Bi8 O37 2.400312 1_556
Bi9 O14 2.082866 1_555
Bi9 O28 2.211383 1_555
Bi9 O7 2.354012 1_555
Bi9 O23 2.411820 1_555
Bi10 O20 2.083161 1_555
Bi10 O37 2.240056 1_556
Bi10 O27 2.307942 1_555
Bi10 O38 2.448679 1_456
Bi11 O17 2.095913 1_455
Bi11 O19 2.230381 1_555
Bi11 O11 2.243576 1_555
Bi11 O31 2.469501 1_455
Bi12 O15 2.087266 1_555
Bi12 O5 2.253060 1_555
Bi12 O3 2.254939 1_554
Bi12 O0 2.400312 1_554
Bi13 O21 2.095913 1_565
Bi13 O8 2.230381 1_555
Bi13 O34 2.243576 1_555
Bi13 O25 2.469501 1_565
Bi14 O18 2.088140 1_555
Bi14 O6 2.313146 1_555
Bi14 O22 2.313146 1_555
Bi14 O29 2.385364 1_555
Bi15 O32 2.087266 1_555
Bi15 O23 2.253060 1_555
Bi15 O3 2.254939 1_554
Bi15 O7 2.400312 1_554
Bi16 O39 2.070367 1_555
Bi16 O11 2.345958 1_554
Bi16 O16 2.345958 1_554
Bi16 O19 2.495954 1_555
Bi17 O36 2.323443 1_555
Bi17 O26 2.323443 1_555
Bi17 O20 2.409290 1_555
Bi17 O35 2.409290 1_555
Bi17 O14 2.526201 1_555
Bi17 O30 2.526201 1_555
Bi18 O30 2.082866 1_555
Bi18 O27 2.211383 1_555
Bi18 O37 2.354012 1_555
Bi18 O22 2.411820 1_555
Bi19 O26 2.095913 1_545
Bi19 O19 2.230381 1_555
Bi19 O16 2.243576 1_555
Bi19 O28 2.469501 1_545
Bi20 O35 2.083161 1_555
Bi20 O7 2.240056 1_554
Bi20 O28 2.307942 1_555
Bi20 O16 2.448679 1_564
Bi21 O36 2.095913 1_655
Bi21 O8 2.230381 1_555
Bi21 O38 2.243576 1_555
Bi21 O27 2.469501 1_655
Bi22 O12 2.083161 1_555
Bi22 O0 2.240056 1_554
Bi22 O31 2.307942 1_555
Bi22 O11 2.448679 1_654
O0 Sr0 2.970069 1_556
O1 Sr3 2.577423 1_556
O1 Sr0 2.686159 1_556
O2 Sr0 2.604710 1_556
O2 Sr2 2.637349 1_555
O4 Sr2 2.558690 1_555
O4 Sr0 2.573150 1_556
O5 Sr2 3.036785 1_555
O6 Sr2 3.036785 1_555
O7 Sr1 2.970069 1_556
O8 Sr6 2.874450 1_665
O9 Sr5 2.639692 1_555
O9 Sr2 2.639692 1_555
O10 Sr1 2.604710 1_556
O10 Sr5 2.637349 1_555
O11 Sr3 3.080203 1_456
O12 Sr3 2.577423 1_555
O12 Sr0 2.686159 1_555
O13 Sr2 2.558690 1_555
O13 Sr0 2.573150 1_555
O14 Sr5 2.558690 1_555
O14 Sr1 2.573150 1_556
O15 Sr0 2.604710 1_555
O15 Sr2 2.637349 1_555
O16 Sr4 3.080203 1_546
O17 Sr3 2.685860 1_556
O17 Sr6 2.696605 1_655
O18 Sr2 2.639692 1_555
O18 Sr5 2.639692 1_555
O19 Sr6 2.874450 1_555
O20 Sr4 2.577423 1_556
O20 Sr1 2.686159 1_556
O21 Sr3 2.685860 1_555
O21 Sr6 2.696605 1_655
O22 Sr5 3.036785 1_555
O23 Sr5 3.036785 1_555
O24 Sr0 2.970069 1_555
O26 Sr4 2.685860 1_556
O26 Sr6 2.696605 1_565
O30 Sr5 2.558690 1_555
O30 Sr1 2.573150 1_555
O32 Sr1 2.604710 1_555
O32 Sr5 2.637349 1_555
O33 Sr6 2.503279 1_665
O33 Sr4 2.544308 1_656
O33 Sr3 2.544308 1_566
O34 Sr3 3.080203 1_565
O35 Sr4 2.577423 1_555
O35 Sr1 2.686159 1_555
O36 Sr4 2.685860 1_555
O36 Sr6 2.696605 1_565
O37 Sr1 2.970069 1_555
O38 Sr4 3.080203 1_655
O39 Sr6 2.503279 1_555
O39 Sr3 2.544308 1_455
O39 Sr4 2.544308 1_545
