# generated using pymatgen
data_Li4Co3Ni3(WO8)2
_symmetry_space_group_name_H-M   'P 1'
_cell_length_a   5.92442302
_cell_length_b   5.92442302
_cell_length_c   9.74358534
_cell_angle_alpha   89.64957810
_cell_angle_beta   89.64957810
_cell_angle_gamma   60.14856861
_symmetry_Int_Tables_number   1
_chemical_formula_structural   Li4Co3Ni3(WO8)2
_chemical_formula_sum   'Li4 Co3 Ni3 W2 O16'
_cell_volume   296.60531340
_cell_formula_units_Z   1
loop_
 _symmetry_equiv_pos_site_id
 _symmetry_equiv_pos_as_xyz
  1  'x, y, z'
loop_
 _atom_site_type_symbol
 _atom_site_label
 _atom_site_symmetry_multiplicity
 _atom_site_fract_x
 _atom_site_fract_y
 _atom_site_fract_z
 _atom_site_occupancy
  Li  Li0  1  0.66361800  0.66361800  0.90444900  1
  Li  Li1  1  0.00547400  0.00547400  0.98896000  1
  Li  Li2  1  0.00463400  0.00463400  0.49042600  1
  Li  Li3  1  0.33066600  0.33066600  0.40380500  1
  Co  Co0  1  0.83213800  0.34601300  0.21896800  1
  Co  Co1  1  0.34601300  0.83213800  0.21896800  1
  Co  Co2  1  0.17455400  0.17455400  0.72139700  1
  Ni  Ni0  1  0.83014200  0.83014200  0.21152800  1
  Ni  Ni1  1  0.66045000  0.16850200  0.71472700  1
  Ni  Ni2  1  0.16850200  0.66045000  0.71472700  1
  W  W0  1  0.67038900  0.67038900  0.49045700  1
  W  W1  1  0.33944900  0.33944900  0.98859200  1
  O  O0  1  0.82374500  0.34599700  0.58707100  1
  O  O1  1  0.51861000  0.51861000  0.35147900  1
  O  O2  1  0.65449600  0.65449600  0.11088000  1
  O  O3  1  0.00805400  0.00805400  0.29727400  1
  O  O4  1  0.01572200  0.01572200  0.79652700  1
  O  O5  1  0.34599700  0.82374500  0.58707100  1
  O  O6  1  0.96074900  0.51621400  0.34983400  1
  O  O7  1  0.51621400  0.96074900  0.34983400  1
  O  O8  1  0.17447000  0.17447000  0.08798100  1
  O  O9  1  0.83039600  0.83039600  0.58551100  1
  O  O10  1  0.47583100  0.03620700  0.85095000  1
  O  O11  1  0.03620700  0.47583100  0.85095000  1
  O  O12  1  0.31547800  0.31547800  0.61366600  1
  O  O13  1  0.65809600  0.16738900  0.08555900  1
  O  O14  1  0.47989500  0.47989500  0.85059500  1
  O  O15  1  0.16738900  0.65809600  0.08555900  1
loop_
_geom_bond_atom_site_label_1
_geom_bond_atom_site_label_2
_geom_bond_distance
_geom_bond_site_symmetry_2
Li0 O14 1.959127 1_555
Li0 O11 1.982483 1_655
Li0 O10 1.982483 1_565
Li0 O2 2.012891 1_556
Li1 O4 1.877188 1_555
Li1 O8 1.989279 1_556
Li1 O13 2.015825 1_456
Li1 O15 2.015825 1_546
Li2 O3 1.882072 1_555
Li2 O0 1.994643 1_455
Li2 O5 1.994643 1_545
Li2 O9 2.006698 1_445
Li3 O6 1.973970 1_455
Li3 O7 1.973970 1_545
Li3 O1 1.989939 1_555
Li3 O12 2.049623 1_555
Co0 O3 1.894964 1_655
Co0 O2 1.905802 1_555
Co0 O6 2.003913 1_555
Co0 O1 2.063692 1_555
Co0 O8 2.169637 1_655
Co0 O13 2.234325 1_555
Co1 O3 1.894964 1_565
Co1 O2 1.905802 1_555
Co1 O7 2.003913 1_555
Co1 O1 2.063692 1_555
Co1 O8 2.169637 1_565
Co1 O15 2.234325 1_555
Co2 O12 1.780003 1_555
Co2 O4 1.780848 1_555
Co2 O11 2.002396 1_555
Co2 O10 2.002396 1_555
Co2 O0 2.231519 1_455
Co2 O5 2.231519 1_545
Ni0 O3 2.011834 1_665
Ni0 O2 2.056786 1_555
Ni0 O6 2.103146 1_555
Ni0 O7 2.103146 1_555
Ni0 O15 2.120222 1_655
Ni0 O13 2.120222 1_565
Ni1 O4 1.999943 1_655
Ni1 O12 2.036495 1_555
Ni1 O14 2.085233 1_555
Ni1 O10 2.096488 1_555
Ni1 O0 2.137945 1_555
Ni1 O9 2.149149 1_545
Ni2 O4 1.999943 1_565
Ni2 O12 2.036495 1_555
Ni2 O14 2.085233 1_555
Ni2 O11 2.096488 1_555
Ni2 O5 2.137945 1_555
Ni2 O9 2.149149 1_455
O0 W0 1.911853 1_555
O1 W0 2.070159 1_555
O5 W0 1.911853 1_555
O6 W0 2.023143 1_555
O7 W0 2.023143 1_555
O8 W1 1.943276 1_554
O9 W0 1.889721 1_555
O10 W1 2.061592 1_555
O11 W1 2.061592 1_555
O13 W1 1.894698 1_554
O14 W1 1.963265 1_555
O15 W1 1.894698 1_554
