# generated using pymatgen
data_Li2CuSiO4
_symmetry_space_group_name_H-M   'P 1'
_cell_length_a   5.00786200
_cell_length_b   6.30464600
_cell_length_c   10.64197900
_cell_angle_alpha   90.00000000
_cell_angle_beta   90.00000000
_cell_angle_gamma   90.00000000
_symmetry_Int_Tables_number   1
_chemical_formula_structural   Li2CuSiO4
_chemical_formula_sum   'Li8 Cu4 Si4 O16'
_cell_volume   335.99704400
_cell_formula_units_Z   4
loop_
 _symmetry_equiv_pos_site_id
 _symmetry_equiv_pos_as_xyz
  1  'x, y, z'
loop_
 _atom_site_type_symbol
 _atom_site_label
 _atom_site_symmetry_multiplicity
 _atom_site_fract_x
 _atom_site_fract_y
 _atom_site_fract_z
 _atom_site_occupancy
  Li  Li0  1  0.18122800  0.99845400  0.58879100  1
  Li  Li1  1  0.31877200  0.99845400  0.08879100  1
  Li  Li2  1  0.31877200  0.50154600  0.08879100  1
  Li  Li3  1  0.18122800  0.50154600  0.58879100  1
  Li  Li4  1  0.68122800  0.49845400  0.91120900  1
  Li  Li5  1  0.81877200  0.49845400  0.41120900  1
  Li  Li6  1  0.68122800  0.00154600  0.91120900  1
  Li  Li7  1  0.81877200  0.00154600  0.41120900  1
  Cu  Cu0  1  0.68527100  0.25000000  0.65622700  1
  Cu  Cu1  1  0.81472900  0.25000000  0.15622700  1
  Cu  Cu2  1  0.31472900  0.75000000  0.34377300  1
  Cu  Cu3  1  0.18527100  0.75000000  0.84377300  1
  Si  Si0  1  0.17053700  0.25000000  0.82952500  1
  Si  Si1  1  0.32946300  0.25000000  0.32952500  1
  Si  Si2  1  0.67053700  0.75000000  0.67047500  1
  Si  Si3  1  0.82946300  0.75000000  0.17047500  1
  O  O0  1  0.77821000  0.96385400  0.59590000  1
  O  O1  1  0.72179000  0.96385400  0.09590000  1
  O  O2  1  0.27645100  0.25000000  0.68264000  1
  O  O3  1  0.65871700  0.25000000  0.33111100  1
  O  O4  1  0.84128300  0.25000000  0.83111100  1
  O  O5  1  0.22354900  0.25000000  0.18264000  1
  O  O6  1  0.72179000  0.53614600  0.09590000  1
  O  O7  1  0.77821000  0.53614600  0.59590000  1
  O  O8  1  0.22179000  0.46385400  0.40410000  1
  O  O9  1  0.27821000  0.46385400  0.90410000  1
  O  O10  1  0.72354900  0.75000000  0.31736000  1
  O  O11  1  0.77645100  0.75000000  0.81736000  1
  O  O12  1  0.34128300  0.75000000  0.66888900  1
  O  O13  1  0.15871700  0.75000000  0.16888900  1
  O  O14  1  0.22179000  0.03614600  0.40410000  1
  O  O15  1  0.27821000  0.03614600  0.90410000  1
loop_
_geom_bond_atom_site_label_1
_geom_bond_atom_site_label_2
_geom_bond_distance
_geom_bond_site_symmetry_2
Li0 O2 1.933904 1_565
Li0 O12 1.955172 1_555
Li0 O14 1.990185 1_565
Li0 O0 2.031422 1_455
Li1 O5 1.933904 1_565
Li1 O13 1.955172 1_555
Li1 O15 1.990185 1_564
Li1 O1 2.031422 1_555
Li2 O5 1.933904 1_555
Li2 O13 1.955172 1_555
Li2 O9 1.990185 1_554
Li2 O6 2.031422 1_555
Li3 O2 1.933904 1_555
Li3 O12 1.955172 1_555
Li3 O8 1.990185 1_555
Li3 O7 2.031422 1_455
Li4 O11 1.933904 1_555
Li4 O4 1.955172 1_555
Li4 O6 1.990185 1_556
Li4 O9 2.031422 1_555
Li5 O10 1.933904 1_555
Li5 O3 1.955172 1_555
Li5 O7 1.990185 1_555
Li5 O8 2.031422 1_655
Li6 O11 1.933904 1_545
Li6 O4 1.955172 1_555
Li6 O1 1.990185 1_546
Li6 O15 2.031422 1_555
Li7 O10 1.933904 1_545
Li7 O3 1.955172 1_555
Li7 O0 1.990185 1_545
Li7 O14 2.031422 1_655
Cu0 O0 1.970629 1_545
Cu0 O7 1.970629 1_555
Cu0 O4 2.018451 1_555
Cu0 O2 2.066520 1_555
Cu1 O1 1.970629 1_545
Cu1 O6 1.970629 1_555
Cu1 O3 2.018451 1_555
Cu1 O5 2.066520 1_655
Cu2 O8 1.970629 1_555
Cu2 O14 1.970629 1_565
Cu2 O13 2.018451 1_555
Cu2 O10 2.066520 1_555
Cu3 O9 1.970629 1_555
Cu3 O15 1.970629 1_565
Cu3 O12 2.018451 1_555
Cu3 O11 2.066520 1_455
O0 Si2 1.654821 1_555
O1 Si3 1.654821 1_555
O2 Si0 1.650683 1_555
O3 Si1 1.648945 1_555
O4 Si0 1.648945 1_655
O5 Si1 1.650683 1_555
O6 Si3 1.654821 1_555
O7 Si2 1.654821 1_555
O8 Si1 1.654821 1_555
O9 Si0 1.654821 1_555
O10 Si3 1.650683 1_555
O11 Si2 1.650683 1_555
O12 Si2 1.648945 1_555
O13 Si3 1.648945 1_455
O14 Si1 1.654821 1_555
O15 Si0 1.654821 1_555
