# generated using pymatgen
data_Co(IO3)2
_symmetry_space_group_name_H-M   'P 1'
_cell_length_a   5.23792000
_cell_length_b   7.07798100
_cell_length_c   14.77395400
_cell_angle_alpha   90.00000000
_cell_angle_beta   90.00000000
_cell_angle_gamma   90.00000000
_symmetry_Int_Tables_number   1
_chemical_formula_structural   Co(IO3)2
_chemical_formula_sum   'Co4 I8 O24'
_cell_volume   547.72806719
_cell_formula_units_Z   4
loop_
 _symmetry_equiv_pos_site_id
 _symmetry_equiv_pos_as_xyz
  1  'x, y, z'
loop_
 _atom_site_type_symbol
 _atom_site_label
 _atom_site_symmetry_multiplicity
 _atom_site_fract_x
 _atom_site_fract_y
 _atom_site_fract_z
 _atom_site_occupancy
  Co  Co0  1  0.75000000  0.62358500  0.50000000  1
  Co  Co1  1  0.25000000  0.37641500  0.50000000  1
  Co  Co2  1  0.25000000  0.87641500  0.00000000  1
  Co  Co3  1  0.75000000  0.12358500  0.00000000  1
  I  I0  1  0.23025600  0.78096700  0.64759600  1
  I  I1  1  0.73025600  0.21903300  0.64759600  1
  I  I2  1  0.73025600  0.71903300  0.85240400  1
  I  I3  1  0.23025600  0.28096700  0.85240400  1
  I  I4  1  0.76974400  0.71903300  0.14759600  1
  I  I5  1  0.26974400  0.28096700  0.14759600  1
  I  I6  1  0.26974400  0.78096700  0.35240400  1
  I  I7  1  0.76974400  0.21903300  0.35240400  1
  O  O0  1  0.90851300  0.39966200  0.57900600  1
  O  O1  1  0.40851300  0.60033800  0.57900600  1
  O  O2  1  0.93743200  0.82099400  0.57966800  1
  O  O3  1  0.43743200  0.17900600  0.57966800  1
  O  O4  1  0.10771200  0.13252000  0.76212700  1
  O  O5  1  0.60771200  0.86748000  0.76212700  1
  O  O6  1  0.10771200  0.63252000  0.73787300  1
  O  O7  1  0.60771200  0.36748000  0.73787300  1
  O  O8  1  0.43743200  0.67900600  0.92033200  1
  O  O9  1  0.93743200  0.32099400  0.92033200  1
  O  O10  1  0.90851300  0.89966200  0.92099400  1
  O  O11  1  0.40851300  0.10033800  0.92099400  1
  O  O12  1  0.59148700  0.89966200  0.07900600  1
  O  O13  1  0.09148700  0.10033800  0.07900600  1
  O  O14  1  0.06256800  0.67900600  0.07966800  1
  O  O15  1  0.56256800  0.32099400  0.07966800  1
  O  O16  1  0.39228800  0.63252000  0.26212700  1
  O  O17  1  0.89228800  0.36748000  0.26212700  1
  O  O18  1  0.89228800  0.86748000  0.23787300  1
  O  O19  1  0.39228800  0.13252000  0.23787300  1
  O  O20  1  0.56256800  0.82099400  0.42033200  1
  O  O21  1  0.06256800  0.17900600  0.42033200  1
  O  O22  1  0.09148700  0.60033800  0.42099400  1
  O  O23  1  0.59148700  0.39966200  0.42099400  1
loop_
_geom_bond_atom_site_label_1
_geom_bond_atom_site_label_2
_geom_bond_distance
_geom_bond_site_symmetry_2
Co0 O2 2.074012 1_555
Co0 O20 2.074012 1_555
Co0 O0 2.136298 1_555
Co0 O23 2.136298 1_555
Co0 O1 2.142168 1_555
Co0 O22 2.142168 1_655
Co1 O3 2.074012 1_555
Co1 O21 2.074012 1_555
Co1 O1 2.136298 1_555
Co1 O22 2.136298 1_555
Co1 O0 2.142168 1_455
Co1 O23 2.142168 1_555
Co2 O8 2.074012 1_554
Co2 O14 2.074012 1_555
Co2 O13 2.136298 1_565
Co2 O11 2.136298 1_564
Co2 O12 2.142168 1_555
Co2 O10 2.142168 1_454
Co3 O9 2.074012 1_554
Co3 O15 2.074012 1_555
Co3 O10 2.136298 1_544
Co3 O12 2.136298 1_545
Co3 O11 2.142168 1_554
Co3 O13 2.142168 1_655
I0 O6 1.815178 1_555
I0 O2 1.854701 1_455
I0 O1 1.879678 1_555
I1 O7 1.815178 1_555
I1 O3 1.854701 1_555
I1 O0 1.879678 1_555
I2 O5 1.815178 1_555
I2 O8 1.854701 1_555
I2 O10 1.879678 1_555
I3 O4 1.815178 1_555
I3 O9 1.854701 1_455
I3 O11 1.879678 1_555
I4 O18 1.815178 1_555
I4 O14 1.854701 1_655
I4 O12 1.879678 1_555
I5 O19 1.815178 1_555
I5 O15 1.854701 1_555
I5 O13 1.879678 1_555
I6 O16 1.815178 1_555
I6 O20 1.854701 1_555
I6 O22 1.879678 1_555
I7 O17 1.815178 1_555
I7 O21 1.854701 1_655
I7 O23 1.879678 1_555
