# generated using pymatgen
data_TiBi2O5
_symmetry_space_group_name_H-M   'P 1'
_cell_length_a   8.40090487
_cell_length_b   8.40090487
_cell_length_c   5.51813373
_cell_angle_alpha   90.00000000
_cell_angle_beta   90.00000000
_cell_angle_gamma   141.19168905
_symmetry_Int_Tables_number   1
_chemical_formula_structural   TiBi2O5
_chemical_formula_sum   'Ti2 Bi4 O10'
_cell_volume   244.07074507
_cell_formula_units_Z   2
loop_
 _symmetry_equiv_pos_site_id
 _symmetry_equiv_pos_as_xyz
  1  'x, y, z'
loop_
 _atom_site_type_symbol
 _atom_site_label
 _atom_site_symmetry_multiplicity
 _atom_site_fract_x
 _atom_site_fract_y
 _atom_site_fract_z
 _atom_site_occupancy
  Ti  Ti0  1  0.19105440  0.19105440  0.76947087  1
  Ti  Ti1  1  0.80894560  0.80894560  0.26947087  1
  Bi  Bi0  1  0.54111493  0.88083053  0.73307544  1
  Bi  Bi1  1  0.11916947  0.45888507  0.23307544  1
  Bi  Bi2  1  0.88083053  0.54111493  0.73307544  1
  Bi  Bi3  1  0.45888507  0.11916947  0.23307544  1
  O  O0  1  0.25482029  0.44523139  0.84154790  1
  O  O1  1  0.55476861  0.74517971  0.34154790  1
  O  O2  1  0.26961285  0.76851508  0.01149196  1
  O  O3  1  0.23148492  0.73038715  0.51149196  1
  O  O4  1  0.73038715  0.23148492  0.51149196  1
  O  O5  1  0.76851508  0.26961285  0.01149196  1
  O  O6  1  0.44523139  0.25482029  0.84154790  1
  O  O7  1  0.74517971  0.55476861  0.34154790  1
  O  O8  1  0.91179038  0.91179038  0.94954754  1
  O  O9  1  0.08820962  0.08820962  0.44954754  1
loop_
_geom_bond_atom_site_label_1
_geom_bond_atom_site_label_2
_geom_bond_distance
_geom_bond_site_symmetry_2
Bi0 O3 2.175988 1_555
Bi0 O2 2.258077 1_556
Bi0 O4 2.324039 1_565
Bi0 O0 2.411930 1_555
Bi0 O1 2.486625 1_555
Bi0 O5 2.636890 1_566
Bi1 O2 2.175988 1_555
Bi1 O3 2.258077 1_555
Bi1 O5 2.324039 1_455
Bi1 O1 2.411930 1_555
Bi1 O0 2.486625 1_554
Bi1 O4 2.636890 1_455
Bi2 O4 2.175988 1_555
Bi2 O5 2.258077 1_556
Bi2 O3 2.324039 1_655
Bi2 O6 2.411930 1_555
Bi2 O7 2.486625 1_555
Bi2 O2 2.636890 1_656
Bi3 O5 2.175988 1_555
Bi3 O4 2.258077 1_555
Bi3 O2 2.324039 1_545
Bi3 O7 2.411930 1_555
Bi3 O6 2.486625 1_554
Bi3 O3 2.636890 1_545
O0 Ti0 1.794998 1_555
O1 Ti1 1.794998 1_555
O6 Ti0 1.794998 1_555
O7 Ti1 1.794998 1_555
O8 Ti0 1.848644 1_665
O8 Ti1 1.856378 1_556
O9 Ti1 1.848644 1_445
O9 Ti0 1.856378 1_555
