# generated using pymatgen
data_H4CS(NO)3
_symmetry_space_group_name_H-M   'P 1'
_cell_length_a   6.90575653
_cell_length_b   6.90575653
_cell_length_c   11.81135579
_cell_angle_alpha   81.17482240
_cell_angle_beta   81.17482240
_cell_angle_gamma   73.14852518
_symmetry_Int_Tables_number   1
_chemical_formula_structural   H4CS(NO)3
_chemical_formula_sum   'H16 C4 S4 N12 O12'
_cell_volume   529.16124436
_cell_formula_units_Z   4
loop_
 _symmetry_equiv_pos_site_id
 _symmetry_equiv_pos_as_xyz
  1  'x, y, z'
loop_
 _atom_site_type_symbol
 _atom_site_label
 _atom_site_symmetry_multiplicity
 _atom_site_fract_x
 _atom_site_fract_y
 _atom_site_fract_z
 _atom_site_occupancy
  H  H0  1  0.97092000  0.70857400  0.79367900  1
  H  H1  1  0.29142600  0.02908000  0.70632100  1
  H  H2  1  0.02908000  0.29142600  0.20632100  1
  H  H3  1  0.70857400  0.97092000  0.29367900  1
  H  H4  1  0.84405300  0.74692300  0.93286800  1
  H  H5  1  0.25307700  0.15594700  0.56713200  1
  H  H6  1  0.15594700  0.25307700  0.06713200  1
  H  H7  1  0.74692300  0.84405300  0.43286800  1
  H  H8  1  0.96302000  0.24171100  0.91726700  1
  H  H9  1  0.75828900  0.03698000  0.58273300  1
  H  H10  1  0.03698000  0.75828900  0.08273300  1
  H  H11  1  0.24171100  0.96302000  0.41726700  1
  H  H12  1  0.74597900  0.29995000  0.54644200  1
  H  H13  1  0.70005000  0.25402100  0.95355800  1
  H  H14  1  0.25402100  0.70005000  0.45355800  1
  H  H15  1  0.29995000  0.74597900  0.04644200  1
  C  C0  1  0.84997900  0.27993100  0.08444200  1
  C  C1  1  0.72006900  0.15002100  0.41555800  1
  C  C2  1  0.15002100  0.72006900  0.91555800  1
  C  C3  1  0.27993100  0.84997900  0.58444200  1
  S  S0  1  0.61331900  0.32068100  0.17600500  1
  S  S1  1  0.67931900  0.38668100  0.32399500  1
  S  S2  1  0.38668100  0.67931900  0.82399500  1
  S  S3  1  0.32068100  0.61331900  0.67600500  1
  N  N0  1  0.02065000  0.27796400  0.12174000  1
  N  N1  1  0.72203600  0.97935000  0.37826000  1
  N  N2  1  0.97935000  0.72203600  0.87826000  1
  N  N3  1  0.27796400  0.02065000  0.62174000  1
  N  N4  1  0.83621500  0.25646900  0.97719100  1
  N  N5  1  0.74353100  0.16378500  0.52280900  1
  N  N6  1  0.16378500  0.74353100  0.02280900  1
  N  N7  1  0.25646900  0.83621500  0.47719100  1
  N  N8  1  0.40931200  0.17916600  0.87680900  1
  N  N9  1  0.82083400  0.59068800  0.62319100  1
  N  N10  1  0.59068800  0.82083400  0.12319100  1
  N  N11  1  0.17916600  0.40931200  0.37680900  1
  O  O0  1  0.57361600  0.13718200  0.81251400  1
  O  O1  1  0.86281800  0.42638400  0.68748600  1
  O  O2  1  0.42638400  0.86281800  0.18748600  1
  O  O3  1  0.13718200  0.57361600  0.31251400  1
  O  O4  1  0.24306800  0.17483700  0.84349000  1
  O  O5  1  0.82516300  0.75693200  0.65651000  1
  O  O6  1  0.75693200  0.82516300  0.15651000  1
  O  O7  1  0.17483700  0.24306800  0.34349000  1
  O  O8  1  0.40427400  0.23065700  0.97716400  1
  O  O9  1  0.76934300  0.59572600  0.52283600  1
  O  O10  1  0.59572600  0.76934300  0.02283600  1
  O  O11  1  0.23065700  0.40427400  0.47716400  1
loop_
_geom_bond_atom_site_label_1
_geom_bond_atom_site_label_2
_geom_bond_distance
_geom_bond_site_symmetry_2
H0 N2 1.029342 1_555
H1 N3 1.029342 1_555
H2 N0 1.029342 1_555
H3 N1 1.029342 1_555
H4 N2 1.036593 1_555
H5 N3 1.036593 1_555
H6 N0 1.036593 1_555
H7 N1 1.036593 1_555
H8 N4 1.028776 1_555
H9 N5 1.028776 1_555
H10 N6 1.028776 1_555
H11 N7 1.028776 1_555
H12 N5 1.026457 1_555
H13 N4 1.026457 1_555
H14 N7 1.026457 1_555
H15 N6 1.026457 1_555
C0 N0 1.315898 1_655
C0 N4 1.322449 1_554
C0 S0 1.790024 1_555
C1 N1 1.315898 1_545
C1 N5 1.322449 1_555
C1 S1 1.790024 1_555
C2 N2 1.315898 1_455
C2 N6 1.322449 1_556
C2 S2 1.790024 1_555
C3 N3 1.315898 1_565
C3 N7 1.322449 1_555
C3 S3 1.790024 1_555
S0 S1 2.019949 1_555
S2 S3 2.019949 1_555
N8 O0 1.249247 1_555
N8 O4 1.279026 1_555
N8 O8 1.281467 1_555
N9 O1 1.249247 1_555
N9 O5 1.279026 1_555
N9 O9 1.281467 1_555
N10 O2 1.249247 1_555
N10 O6 1.279026 1_555
N10 O10 1.281467 1_555
N11 O3 1.249247 1_555
N11 O7 1.279026 1_555
N11 O11 1.281467 1_555
