# generated using pymatgen
data_Ta9PO25
_symmetry_space_group_name_H-M   'P 1'
_cell_length_a   11.21513065
_cell_length_b   11.21512517
_cell_length_c   11.21509722
_cell_angle_alpha   91.67753232
_cell_angle_beta   91.67759269
_cell_angle_gamma   160.29681594
_symmetry_Int_Tables_number   1
_chemical_formula_structural   Ta9PO25
_chemical_formula_sum   'Ta9 P1 O25'
_cell_volume   468.57546043
_cell_formula_units_Z   1
loop_
 _symmetry_equiv_pos_site_id
 _symmetry_equiv_pos_as_xyz
  1  'x, y, z'
loop_
 _atom_site_type_symbol
 _atom_site_label
 _atom_site_symmetry_multiplicity
 _atom_site_fract_x
 _atom_site_fract_y
 _atom_site_fract_z
 _atom_site_occupancy
  Ta  Ta0  1  0.00003099  0.00003082  -0.00000175  1
  Ta  Ta1  1  0.11500583  0.78841880  0.88680981  1
  Ta  Ta2  1  0.88261076  0.66975976  0.55710460  1
  Ta  Ta3  1  0.67449526  0.11739120  0.78714919  1
  Ta  Ta4  1  0.21157907  0.09838864  0.32658525  1
  Ta  Ta5  1  0.77180428  0.88499510  0.67341296  1
  Ta  Ta6  1  0.33024087  0.88734499  0.21285040  1
  Ta  Ta7  1  0.11265071  0.32550134  0.44289488  1
  Ta  Ta8  1  0.90160520  0.22819145  0.11318988  1
  P  P0  1  0.74999963  0.24999987  0.50000046  1
  O  O0  1  0.50000665  0.50000700  0.00000032  1
  O  O1  1  0.05690934  0.88756679  0.93869207  1
  O  O2  1  0.80805647  0.76332199  0.60440937  1
  O  O3  1  0.62298209  0.25605246  0.86042571  1
  O  O4  1  0.99843554  0.72876452  0.71163893  1
  O  O5  1  0.79634826  0.19193827  0.95526422  1
  O  O6  1  0.34512915  0.14512423  0.51090684  1
  O  O7  1  0.16577566  0.65486941  0.79999489  1
  O  O8  1  0.74394700  0.60437139  0.36693001  1
  O  O9  1  0.58481174  0.09625294  0.61609774  1
  O  O10  1  0.90374415  0.51984283  0.48855982  1
  O  O11  1  0.11243171  0.05112367  0.16934339  1
  O  O12  1  0.71320539  0.00156536  0.73032764  1
  O  O13  1  0.27123252  0.98287208  0.26967267  1
  O  O14  1  0.88177706  0.94308506  0.83065611  1
  O  O15  1  0.03128298  0.41518347  0.51144201  1
  O  O16  1  0.48015861  0.96871789  0.38390134  1
  O  O17  1  0.23744338  0.37701858  0.63307096  1
  O  O18  1  0.85487392  0.36578024  0.20000463  1
  O  O19  1  0.63421517  0.83421996  0.48909396  1
  O  O20  1  0.23667947  0.84109003  0.04473576  1
  O  O21  1  0.01712182  0.28679239  0.28836160  1
  O  O22  1  0.39562348  0.76255355  0.13957437  1
  O  O23  1  0.15891053  0.20364491  0.39559214  1
  O  O24  1  0.94887633  0.11821901  0.06130780  1
loop_
_geom_bond_atom_site_label_1
_geom_bond_atom_site_label_2
_geom_bond_distance
_geom_bond_site_symmetry_2
O0 Ta0 1.918775 1_555
O0 Ta0 1.918968 1_665
O1 Ta1 1.829764 1_555
O1 Ta0 1.990068 1_566
O2 Ta5 1.904600 1_555
O2 Ta2 1.930548 1_555
O3 Ta1 1.987738 1_655
O3 Ta1 1.995115 1_545
O3 Ta3 2.252132 1_555
O4 Ta2 1.819744 1_555
O4 Ta1 2.035198 1_655
O5 Ta8 1.904600 1_556
O5 Ta3 1.930529 1_555
O6 Ta2 1.961251 1_445
O6 Ta2 2.020138 1_555
O6 Ta4 2.251316 1_555
O7 Ta3 1.961263 1_565
O7 Ta3 2.020127 1_455
O7 Ta1 2.251300 1_555
O8 Ta4 1.987745 1_555
O8 Ta4 1.995122 1_665
O8 Ta2 2.252123 1_555
O9 P0 1.535746 1_555
O9 Ta3 2.039458 1_555
O10 P0 1.535752 1_555
O10 Ta2 2.039450 1_555
O11 Ta4 1.829732 1_555
O11 Ta0 1.990099 1_555
O12 Ta3 1.819772 1_555
O12 Ta5 2.035181 1_545
O13 Ta6 1.819770 1_555
O13 Ta4 2.035183 1_565
O14 Ta5 1.829746 1_555
O14 Ta0 1.990069 1_666
O15 P0 1.535764 1_455
O15 Ta7 2.039455 1_555
O16 P0 1.535749 1_565
O16 Ta6 2.039451 1_555
O17 Ta5 1.987737 1_445
O17 Ta5 1.995114 1_555
O17 Ta7 2.252138 1_555
O18 Ta6 1.961259 1_655
O18 Ta6 2.020132 1_545
O18 Ta8 2.251308 1_555
O19 Ta7 1.961258 1_555
O19 Ta7 2.020139 1_665
O19 Ta5 2.251288 1_555
O20 Ta1 1.904597 1_554
O20 Ta6 1.930528 1_555
O21 Ta7 1.819733 1_555
O21 Ta8 2.035205 1_455
O22 Ta8 1.987742 1_565
O22 Ta8 1.995119 1_455
O22 Ta6 2.252126 1_555
O23 Ta4 1.904610 1_555
O23 Ta7 1.930539 1_555
O24 Ta8 1.829754 1_555
O24 Ta0 1.990086 1_655
