# generated using pymatgen
data_Li5La3Nb2O12
_symmetry_space_group_name_H-M   'P 1'
_cell_length_a   11.20195691
_cell_length_b   11.20195691
_cell_length_c   12.83429151
_cell_angle_alpha   54.64921301
_cell_angle_beta   54.64921301
_cell_angle_gamma   70.77545801
_symmetry_Int_Tables_number   1
_chemical_formula_structural   Li5La3Nb2O12
_chemical_formula_sum   'Li20 La12 Nb8 O48'
_cell_volume   1071.33687319
_cell_formula_units_Z   4
loop_
 _symmetry_equiv_pos_site_id
 _symmetry_equiv_pos_as_xyz
  1  'x, y, z'
loop_
 _atom_site_type_symbol
 _atom_site_label
 _atom_site_symmetry_multiplicity
 _atom_site_fract_x
 _atom_site_fract_y
 _atom_site_fract_z
 _atom_site_occupancy
  Li  Li0  1  0.51409300  0.67192500  0.59372200  1
  Li  Li1  1  0.78841900  0.57666600  0.38702100  1
  Li  Li2  1  0.70904200  0.92476600  0.25247000  1
  Li  Li3  1  0.92476600  0.70904200  0.75247000  1
  Li  Li4  1  0.43973200  0.19980400  0.11294300  1
  Li  Li5  1  0.32299600  0.46913300  0.92172500  1
  Li  Li6  1  0.10565100  0.75930700  0.44270100  1
  Li  Li7  1  0.75930700  0.10565100  0.94270100  1
  Li  Li8  1  0.24593900  0.89345300  0.05286400  1
  Li  Li9  1  0.39195400  0.75440300  0.81747800  1
  Li  Li10  1  0.89345300  0.24593900  0.55286400  1
  Li  Li11  1  0.04574600  0.18333900  0.70599000  1
  Li  Li12  1  0.67192500  0.51409300  0.09372200  1
  Li  Li13  1  0.18333900  0.04574600  0.20599000  1
  Li  Li14  1  0.29097600  0.07150600  0.74966600  1
  Li  Li15  1  0.57666600  0.78841900  0.88702100  1
  Li  Li16  1  0.07150600  0.29097600  0.24966600  1
  Li  Li17  1  0.19980400  0.43973200  0.61294300  1
  Li  Li18  1  0.46913300  0.32299600  0.42172500  1
  Li  Li19  1  0.75440300  0.39195400  0.31747800  1
  La  La0  1  0.37171300  0.87020300  0.38172800  1
  La  La1  1  0.75431200  0.75306000  0.10688800  1
  La  La2  1  0.75306000  0.75431200  0.60688800  1
  La  La3  1  0.11654200  0.62408000  0.13066900  1
  La  La4  1  0.12522200  0.86796000  0.74840100  1
  La  La5  1  0.86796000  0.12522200  0.24840100  1
  La  La6  1  0.63070400  0.37115400  0.74955100  1
  La  La7  1  0.37115400  0.63070400  0.24955100  1
  La  La8  1  0.87020300  0.37171300  0.88172800  1
  La  La9  1  0.25351200  0.24876800  0.37764000  1
  La  La10  1  0.24876800  0.25351200  0.87764000  1
  La  La11  1  0.62408000  0.11654200  0.63066900  1
  Nb  Nb0  1  0.49605400  0.50179300  0.50280600  1
  Nb  Nb1  1  0.00746800  0.49822700  0.99532900  1
  Nb  Nb2  1  0.50320300  0.00204000  0.99680600  1
  Nb  Nb3  1  0.00204000  0.50320300  0.49680600  1
  Nb  Nb4  1  0.50179300  0.49605400  0.00280600  1
  Nb  Nb5  1  0.00307800  0.99474500  0.00491900  1
  Nb  Nb6  1  0.99474500  0.00307800  0.50491900  1
  Nb  Nb7  1  0.49822700  0.00746800  0.49532900  1
  O  O0  1  0.42552100  0.47580300  0.69817400  1
  O  O1  1  0.51966000  0.58446100  0.79906200  1
  O  O2  1  0.38384700  0.82865500  0.59599900  1
  O  O3  1  0.19633100  0.09922300  0.32113900  1
  O  O4  1  0.59021100  0.69857700  0.38903100  1
  O  O5  1  0.79718300  0.57994200  0.53012400  1
  O  O6  1  0.91311700  0.52815500  0.17459900  1
  O  O7  1  0.97333800  0.59101000  0.61107200  1
  O  O8  1  0.59101000  0.97333800  0.11107200  1
  O  O9  1  0.46649400  0.08098900  0.33016100  1
  O  O10  1  0.69652500  0.91885000  0.41035800  1
  O  O11  1  0.91885000  0.69652500  0.91035800  1
  O  O12  1  0.40785000  0.19529200  0.98119300  1
  O  O13  1  0.30797300  0.39873600  0.11535500  1
  O  O14  1  0.89885000  0.80184700  0.17146000  1
  O  O15  1  0.17488200  0.61439500  0.91883400  1
  O  O16  1  0.11907800  0.67295500  0.29963300  1
  O  O17  1  0.67295500  0.11907800  0.79963300  1
  O  O18  1  0.82751600  0.11039700  0.08054100  1
  O  O19  1  0.11039700  0.82751600  0.58054100  1
  O  O20  1  0.32643500  0.61645800  0.46891500  1
  O  O21  1  0.61645800  0.32643500  0.96891500  1
  O  O22  1  0.93391900  0.98538800  0.89461000  1
  O  O23  1  0.98538800  0.93391900  0.39461000  1
  O  O24  1  0.03342500  0.08870100  0.58622500  1
  O  O25  1  0.08870100  0.03342500  0.08622500  1
  O  O26  1  0.38751400  0.67559300  0.01301500  1
  O  O27  1  0.18248200  0.88285700  0.92483200  1
  O  O28  1  0.88285700  0.18248200  0.42483200  1
  O  O29  1  0.67559300  0.38751400  0.51301500  1
  O  O30  1  0.32162900  0.88716700  0.20305400  1
  O  O31  1  0.88716700  0.32162900  0.70305400  1
  O  O32  1  0.82865500  0.38384700  0.09599900  1
  O  O33  1  0.69857700  0.59021100  0.88903100  1
  O  O34  1  0.09922300  0.19633100  0.82113900  1
  O  O35  1  0.09352000  0.30063700  0.08631700  1
  O  O36  1  0.30063700  0.09352000  0.58631700  1
  O  O37  1  0.57994200  0.79718300  0.03012400  1
  O  O38  1  0.41466400  0.02445700  0.88557800  1
  O  O39  1  0.02445700  0.41466400  0.38557800  1
  O  O40  1  0.52815500  0.91311700  0.67459900  1
  O  O41  1  0.08098900  0.46649400  0.83016100  1
  O  O42  1  0.19529200  0.40785000  0.48119300  1
  O  O43  1  0.80184700  0.89885000  0.67146000  1
  O  O44  1  0.39873600  0.30797300  0.61535500  1
  O  O45  1  0.61439500  0.17488200  0.41883400  1
  O  O46  1  0.47580300  0.42552100  0.19817400  1
  O  O47  1  0.58446100  0.51966000  0.29906200  1
loop_
_geom_bond_atom_site_label_1
_geom_bond_atom_site_label_2
_geom_bond_distance
_geom_bond_site_symmetry_2
Li0 O2 1.880193 1_555
Li0 O0 2.023970 1_555
Li0 O4 2.094192 1_555
Li0 O1 2.251931 1_555
Li1 O5 1.916557 1_555
Li1 O29 2.033633 1_555
Li1 O4 2.184751 1_555
Li1 O14 2.359315 1_555
Li1 O6 2.546934 1_555
Li1 O39 2.665923 1_655
Li2 O10 1.911076 1_555
Li2 O18 2.018285 1_565
Li2 O14 2.160621 1_555
Li2 O4 2.376208 1_555
Li2 O8 2.549061 1_555
Li3 O11 1.911076 1_555
Li3 O19 2.018285 1_655
Li3 O43 2.160621 1_555
Li3 O33 2.376208 1_555
Li3 O7 2.549061 1_555
Li4 O12 1.949076 1_554
Li4 O21 1.982120 1_554
Li4 O13 2.237469 1_555
Li4 O3 2.439724 1_555
Li4 O9 2.458469 1_555
Li4 O8 2.549566 1_545
Li5 O15 1.904067 1_555
Li5 O13 2.040019 1_556
Li5 O1 2.123260 1_555
Li5 O0 2.356244 1_555
Li5 O35 2.632614 1_556
Li6 O7 1.959685 1_455
Li6 O23 1.962558 1_455
Li6 O19 2.327231 1_555
Li6 O30 2.436878 1_555
Li6 O16 2.443310 1_555
Li6 O20 2.554252 1_555
Li7 O8 1.959685 1_546
Li7 O22 1.962558 1_545
Li7 O18 2.327231 1_556
Li7 O31 2.436878 1_555
Li7 O17 2.443310 1_555
Li7 O21 2.554252 1_555
Li8 O38 1.954593 1_564
Li8 O25 1.956961 1_565
Li8 O27 2.202812 1_554
Li8 O30 2.476742 1_555
Li8 O16 2.490431 1_555
Li8 O26 2.586400 1_555
Li9 O40 1.904639 1_555
Li9 O1 2.015525 1_555
Li9 O26 2.097762 1_556
Li9 O27 2.409240 1_555
Li9 O2 2.508606 1_555
Li9 O15 2.560302 1_555
Li10 O39 1.954593 1_655
Li10 O24 1.956961 1_655
Li10 O28 2.202812 1_555
Li10 O31 2.476742 1_555
Li10 O17 2.490431 1_555
Li10 O29 2.586400 1_555
Li11 O31 1.937646 1_455
Li11 O34 1.973533 1_555
Li11 O22 2.110707 1_445
Li11 O24 2.394384 1_555
Li11 O42 2.498133 1_555
Li11 O36 2.519056 1_555
Li12 O32 1.880193 1_555
Li12 O46 2.023970 1_555
Li12 O33 2.094192 1_554
Li12 O47 2.251931 1_555
Li13 O30 1.937646 1_545
Li13 O3 1.973533 1_555
Li13 O23 2.110707 1_445
Li13 O25 2.394384 1_555
Li13 O12 2.498133 1_554
Li13 O35 2.519056 1_555
Li14 O36 1.903811 1_555
Li14 O27 2.007269 1_545
Li14 O34 2.153330 1_555
Li14 O44 2.420608 1_555
Li14 O38 2.547979 1_555
Li14 O40 2.654590 1_545
Li15 O37 1.916557 1_556
Li15 O26 2.033633 1_556
Li15 O33 2.184751 1_555
Li15 O43 2.359315 1_555
Li15 O40 2.546934 1_555
Li15 O38 2.665923 1_565
Li16 O35 1.903811 1_555
Li16 O28 2.007269 1_455
Li16 O3 2.153330 1_555
Li16 O13 2.420608 1_555
Li16 O39 2.547979 1_555
Li16 O6 2.654590 1_455
Li17 O42 1.949076 1_555
Li17 O20 1.982120 1_555
Li17 O44 2.237469 1_555
Li17 O34 2.439724 1_555
Li17 O41 2.458469 1_555
Li17 O7 2.549566 1_455
Li18 O45 1.904067 1_555
Li18 O44 2.040019 1_555
Li18 O47 2.123260 1_555
Li18 O46 2.356244 1_555
Li18 O36 2.632614 1_555
Li19 O6 1.904639 1_555
Li19 O47 2.015525 1_555
Li19 O29 2.097762 1_555
Li19 O28 2.409240 1_555
Li19 O32 2.508606 1_555
Li19 O45 2.560302 1_555
La0 O9 2.483979 1_565
La0 O19 2.484958 1_555
La0 O20 2.490180 1_555
La0 O30 2.554156 1_555
La0 O4 2.579502 1_555
La0 O2 2.589884 1_555
La0 O8 2.605103 1_555
La0 O3 2.680716 1_565
La1 O11 2.420840 1_554
La1 O37 2.461267 1_555
La1 O14 2.503296 1_555
La1 O8 2.550506 1_555
La1 O6 2.563395 1_555
La1 O47 2.631128 1_555
La1 O22 2.672866 1_554
La1 O4 2.709776 1_555
La2 O10 2.420840 1_555
La2 O5 2.461267 1_555
La2 O43 2.503296 1_555
La2 O7 2.550506 1_555
La2 O40 2.563395 1_555
La2 O1 2.631128 1_555
La2 O23 2.672866 1_555
La2 O33 2.709776 1_555
La3 O15 2.463553 1_554
La3 O39 2.465353 1_555
La3 O6 2.467801 1_455
La3 O27 2.493627 1_554
La3 O16 2.541354 1_555
La3 O26 2.582288 1_555
La3 O14 2.591780 1_455
La3 O13 2.744229 1_555
La4 O2 2.451978 1_555
La4 O11 2.469188 1_455
La4 O22 2.488083 1_455
La4 O15 2.517947 1_555
La4 O24 2.520052 1_565
La4 O19 2.543050 1_555
La4 O36 2.651453 1_565
La4 O27 2.784790 1_555
La5 O32 2.451978 1_555
La5 O10 2.469188 1_545
La5 O23 2.488083 1_545
La5 O45 2.517947 1_555
La5 O25 2.520052 1_655
La5 O18 2.543050 1_555
La5 O35 2.651453 1_655
La5 O28 2.784790 1_555
La6 O17 2.445883 1_555
La6 O5 2.460120 1_555
La6 O21 2.470534 1_555
La6 O0 2.485317 1_555
La6 O31 2.503404 1_555
La6 O1 2.558428 1_555
La6 O12 2.612425 1_555
La6 O29 2.674476 1_555
La7 O16 2.445883 1_555
La7 O37 2.460120 1_555
La7 O20 2.470534 1_555
La7 O46 2.485317 1_555
La7 O30 2.503404 1_555
La7 O47 2.558428 1_555
La7 O42 2.612425 1_555
La7 O26 2.674476 1_555
La8 O41 2.483979 1_655
La8 O18 2.484958 1_556
La8 O21 2.490180 1_555
La8 O31 2.554156 1_555
La8 O33 2.579502 1_555
La8 O32 2.589884 1_556
La8 O7 2.605103 1_555
La8 O34 2.680716 1_655
La9 O36 2.473405 1_555
La9 O24 2.485813 1_555
La9 O13 2.506123 1_555
La9 O9 2.507151 1_555
La9 O42 2.517842 1_555
La9 O3 2.528285 1_555
La9 O46 2.599780 1_555
La9 O39 2.612280 1_555
La10 O35 2.473405 1_556
La10 O25 2.485813 1_556
La10 O44 2.506123 1_555
La10 O41 2.507151 1_555
La10 O12 2.517842 1_555
La10 O34 2.528285 1_555
La10 O0 2.599780 1_555
La10 O38 2.612280 1_555
La11 O45 2.463553 1_555
La11 O38 2.465353 1_555
La11 O40 2.467801 1_545
La11 O28 2.493627 1_555
La11 O17 2.541354 1_555
La11 O29 2.582288 1_555
La11 O43 2.591780 1_545
La11 O44 2.744229 1_555
Nb0 O0 2.002600 1_555
Nb0 O44 2.023937 1_555
Nb0 O29 2.028834 1_555
Nb0 O4 2.031782 1_555
Nb0 O20 2.037629 1_555
Nb0 O47 2.094485 1_555
Nb1 O41 1.989273 1_555
Nb1 O35 2.024490 1_556
Nb1 O32 2.025590 1_456
Nb1 O11 2.026429 1_455
Nb1 O15 2.042670 1_555
Nb1 O6 2.090086 1_456
Nb2 O17 1.993220 1_555
Nb2 O12 2.022473 1_555
Nb2 O8 2.033928 1_546
Nb2 O38 2.035712 1_555
Nb2 O37 2.044182 1_546
Nb2 O30 2.086064 1_546
Nb3 O16 1.993220 1_555
Nb3 O42 2.022473 1_555
Nb3 O7 2.033928 1_455
Nb3 O39 2.035712 1_555
Nb3 O5 2.044182 1_455
Nb3 O31 2.086064 1_455
Nb4 O46 2.002600 1_555
Nb4 O13 2.023937 1_555
Nb4 O26 2.028834 1_555
Nb4 O33 2.031782 1_554
Nb4 O21 2.037629 1_554
Nb4 O1 2.094485 1_554
Nb5 O14 2.007525 1_455
Nb5 O18 2.014066 1_465
Nb5 O27 2.026792 1_554
Nb5 O22 2.027275 1_454
Nb5 O25 2.037562 1_565
Nb5 O34 2.078773 1_564
Nb6 O43 2.007525 1_545
Nb6 O19 2.014066 1_645
Nb6 O28 2.026792 1_555
Nb6 O23 2.027275 1_545
Nb6 O24 2.037562 1_655
Nb6 O3 2.078773 1_655
Nb7 O9 1.989273 1_555
Nb7 O36 2.024490 1_555
Nb7 O2 2.025590 1_545
Nb7 O10 2.026429 1_545
Nb7 O45 2.042670 1_555
Nb7 O40 2.090086 1_545
