# generated using pymatgen
data_Li2Cr3SnO8
_symmetry_space_group_name_H-M   'P 1'
_cell_length_a   8.50299129
_cell_length_b   8.50382136
_cell_length_c   8.49239710
_cell_angle_alpha   90.01644348
_cell_angle_beta   90.00599194
_cell_angle_gamma   90.02925588
_symmetry_Int_Tables_number   1
_chemical_formula_structural   Li2Cr3SnO8
_chemical_formula_sum   'Li8 Cr12 Sn4 O32'
_cell_volume   614.06745272
_cell_formula_units_Z   4
loop_
 _symmetry_equiv_pos_site_id
 _symmetry_equiv_pos_as_xyz
  1  'x, y, z'
loop_
 _atom_site_type_symbol
 _atom_site_label
 _atom_site_symmetry_multiplicity
 _atom_site_fract_x
 _atom_site_fract_y
 _atom_site_fract_z
 _atom_site_occupancy
  Li  Li0  1  0.00112900  0.00115200  0.00086400  1
  Li  Li1  1  0.24748200  0.24710300  0.24730800  1
  Li  Li2  1  0.25247700  0.75290900  0.74728000  1
  Li  Li3  1  0.49882700  0.99891800  0.50086600  1
  Li  Li4  1  0.50137100  0.49876200  0.99901600  1
  Li  Li5  1  0.74752200  0.25285200  0.75279700  1
  Li  Li6  1  0.75254500  0.74714400  0.25277400  1
  Li  Li7  1  0.99877000  0.50116900  0.49907000  1
  Cr  Cr0  1  0.11631200  0.13550600  0.62582700  1
  Cr  Cr1  1  0.12640600  0.38357100  0.86482500  1
  Cr  Cr2  1  0.13537000  0.62609100  0.11672000  1
  Cr  Cr3  1  0.36493400  0.37390900  0.61698900  1
  Cr  Cr4  1  0.37354200  0.61634200  0.36463600  1
  Cr  Cr5  1  0.38358500  0.86450100  0.12592500  1
  Cr  Cr6  1  0.61633400  0.36467100  0.37414100  1
  Cr  Cr7  1  0.62625100  0.11654600  0.13525100  1
  Cr  Cr8  1  0.63487000  0.87407600  0.88298400  1
  Cr  Cr9  1  0.86509200  0.12602400  0.38311500  1
  Cr  Cr10  1  0.87364300  0.88340400  0.63526500  1
  Cr  Cr11  1  0.88359900  0.63532000  0.87416200  1
  Sn  Sn0  1  0.12360000  0.87597300  0.37566900  1
  Sn  Sn1  1  0.37625300  0.12405400  0.87567300  1
  Sn  Sn2  1  0.62366600  0.62400600  0.62441900  1
  Sn  Sn3  1  0.87641900  0.37591800  0.12443400  1
  O  O0  1  0.10231600  0.12291600  0.39024700  1
  O  O1  1  0.10929500  0.89802700  0.62265700  1
  O  O2  1  0.11115100  0.61097500  0.88895400  1
  O  O3  1  0.12846800  0.14821000  0.86060300  1
  O  O4  1  0.12313400  0.39045600  0.10234000  1
  O  O5  1  0.13379400  0.36582500  0.63427500  1
  O  O6  1  0.13900100  0.62821000  0.35213100  1
  O  O7  1  0.14807600  0.86070600  0.12810500  1
  O  O8  1  0.35183700  0.13928900  0.62814100  1
  O  O9  1  0.36096400  0.37176000  0.85236700  1
  O  O10  1  0.36621900  0.63415400  0.13416100  1
  O  O11  1  0.37694100  0.60952900  0.60238200  1
  O  O12  1  0.37142900  0.85176200  0.36069500  1
  O  O13  1  0.38903900  0.38905000  0.38909400  1
  O  O14  1  0.39061600  0.10211600  0.12264800  1
  O  O15  1  0.39769600  0.87715400  0.89028700  1
  O  O16  1  0.60227600  0.37709100  0.60975700  1
  O  O17  1  0.60934000  0.60204700  0.37744000  1
  O  O18  1  0.61096700  0.88909200  0.11084600  1
  O  O19  1  0.62857100  0.35188300  0.13944200  1
  O  O20  1  0.62299100  0.10957600  0.89752600  1
  O  O21  1  0.63399100  0.13427400  0.36567000  1
  O  O22  1  0.63902400  0.87173500  0.64775300  1
  O  O23  1  0.64804300  0.63937500  0.87189100  1
  O  O24  1  0.85198300  0.36067300  0.37196300  1
  O  O25  1  0.86090100  0.12824400  0.14773400  1
  O  O26  1  0.86594400  0.86572000  0.86584700  1
  O  O27  1  0.87691400  0.89046000  0.39763700  1
  O  O28  1  0.87147300  0.64811000  0.63942500  1
  O  O29  1  0.88895300  0.11105000  0.61100300  1
  O  O30  1  0.89073400  0.39790500  0.87741500  1
  O  O31  1  0.89792300  0.62284800  0.10969600  1
loop_
_geom_bond_atom_site_label_1
_geom_bond_atom_site_label_2
_geom_bond_distance
_geom_bond_site_symmetry_2
Li0 O26 1.989983 1_444
Li0 O25 2.036254 1_455
Li0 O3 2.038344 1_554
Li0 O7 2.038941 1_545
Li1 O0 2.027841 1_555
Li1 O4 2.030173 1_555
Li1 O14 2.030572 1_555
Li1 O13 2.086410 1_555
Li2 O15 2.028200 1_555
Li2 O11 2.030174 1_555
Li2 O1 2.031566 1_555
Li2 O2 2.085210 1_555
Li3 O21 1.990902 1_565
Li3 O22 2.036827 1_555
Li3 O12 2.038124 1_555
Li3 O8 2.038720 1_565
Li4 O10 1.991068 1_556
Li4 O9 2.034792 1_555
Li4 O23 2.037210 1_555
Li4 O19 2.038148 1_556
Li5 O20 2.028845 1_555
Li5 O16 2.029501 1_555
Li5 O30 2.030236 1_555
Li5 O29 2.085974 1_555
Li6 O27 2.028463 1_555
Li6 O31 2.030421 1_555
Li6 O17 2.031142 1_555
Li6 O18 2.088324 1_555
Li7 O5 1.990740 1_655
Li7 O6 2.036132 1_655
Li7 O24 2.036642 1_555
Li7 O28 2.038270 1_555
Cr0 O29 1.948335 1_455
Cr0 O5 1.965438 1_555
Cr0 O3 1.999365 1_555
Cr0 O8 2.003003 1_555
Cr0 O0 2.006987 1_555
Cr0 O1 2.020501 1_545
Cr1 O2 1.948960 1_555
Cr1 O5 1.964700 1_555
Cr1 O9 1.999833 1_555
Cr1 O3 2.001865 1_555
Cr1 O30 2.010537 1_455
Cr1 O4 2.018100 1_556
Cr2 O2 1.949389 1_554
Cr2 O10 1.969629 1_555
Cr2 O6 1.999515 1_555
Cr2 O7 2.000302 1_555
Cr2 O4 2.010122 1_555
Cr2 O31 2.020058 1_455
Cr3 O13 1.950503 1_555
Cr3 O5 1.972037 1_555
Cr3 O9 1.999301 1_555
Cr3 O8 2.000486 1_555
Cr3 O11 2.010085 1_555
Cr3 O16 2.019225 1_555
Cr4 O13 1.948564 1_555
Cr4 O10 1.964164 1_555
Cr4 O6 1.999716 1_555
Cr4 O12 2.002349 1_555
Cr4 O17 2.011664 1_555
Cr4 O11 2.020085 1_555
Cr5 O18 1.948826 1_555
Cr5 O10 1.965578 1_555
Cr5 O12 1.999413 1_555
Cr5 O7 2.002862 1_555
Cr5 O15 2.007651 1_554
Cr5 O14 2.021689 1_565
Cr6 O13 1.948033 1_555
Cr6 O21 1.966372 1_555
Cr6 O19 1.998814 1_555
Cr6 O24 2.004114 1_555
Cr6 O16 2.007278 1_555
Cr6 O17 2.019696 1_555
Cr7 O18 1.949511 1_545
Cr7 O21 1.963659 1_555
Cr7 O25 2.000453 1_555
Cr7 O19 2.001657 1_555
Cr7 O14 2.010132 1_555
Cr7 O20 2.019895 1_554
Cr8 O18 1.949916 1_556
Cr8 O26 1.971533 1_555
Cr8 O22 1.998085 1_555
Cr8 O23 2.001245 1_555
Cr8 O20 2.009012 1_565
Cr8 O15 2.017831 1_555
Cr9 O29 1.950105 1_555
Cr9 O21 1.971897 1_555
Cr9 O25 1.999358 1_555
Cr9 O24 2.000850 1_555
Cr9 O27 2.009589 1_545
Cr9 O0 2.018203 1_655
Cr10 O29 1.951137 1_565
Cr10 O26 1.965098 1_555
Cr10 O22 2.000205 1_555
Cr10 O28 2.001296 1_555
Cr10 O1 2.010405 1_655
Cr10 O27 2.019134 1_555
Cr11 O2 1.950063 1_655
Cr11 O26 1.966388 1_555
Cr11 O28 1.999129 1_555
Cr11 O23 2.003336 1_555
Cr11 O31 2.006779 1_556
Cr11 O30 2.020074 1_555
O0 Sn0 2.111434 1_545
O1 Sn0 2.109362 1_555
O3 Sn1 2.120863 1_555
O4 Sn3 2.109775 1_455
O6 Sn0 2.120452 1_555
O7 Sn0 2.116664 1_555
O8 Sn1 2.116358 1_555
O9 Sn1 2.119837 1_555
O11 Sn2 2.109741 1_555
O12 Sn0 2.121251 1_555
O14 Sn1 2.109275 1_554
O15 Sn1 2.111273 1_565
O16 Sn2 2.111130 1_555
O17 Sn2 2.109189 1_555
O19 Sn3 2.121083 1_555
O20 Sn1 2.109845 1_555
O22 Sn2 2.119845 1_555
O23 Sn2 2.115802 1_555
O24 Sn3 2.116385 1_555
O25 Sn3 2.119552 1_555
O27 Sn0 2.109528 1_655
O28 Sn2 2.120759 1_555
O30 Sn3 2.109674 1_556
O31 Sn3 2.111451 1_555
