# generated using pymatgen
data_La2Ce2O7
_symmetry_space_group_name_H-M   'P 1'
_cell_length_a   7.90359801
_cell_length_b   7.90359801
_cell_length_c   7.90359801
_cell_angle_alpha   60.00000000
_cell_angle_beta   60.00000000
_cell_angle_gamma   60.00000000
_symmetry_Int_Tables_number   1
_chemical_formula_structural   La2Ce2O7
_chemical_formula_sum   'La4 Ce4 O14'
_cell_volume   349.10778384
_cell_formula_units_Z   2
loop_
 _symmetry_equiv_pos_site_id
 _symmetry_equiv_pos_as_xyz
  1  'x, y, z'
loop_
 _atom_site_type_symbol
 _atom_site_label
 _atom_site_symmetry_multiplicity
 _atom_site_fract_x
 _atom_site_fract_y
 _atom_site_fract_z
 _atom_site_occupancy
  La  La0  1  0.12500000  0.62500000  0.62500000  1
  La  La1  1  0.62500000  0.62500000  0.62500000  1
  La  La2  1  0.62500000  0.12500000  0.62500000  1
  La  La3  1  0.62500000  0.62500000  0.12500000  1
  Ce  Ce0  1  0.12500000  0.62500000  0.12500000  1
  Ce  Ce1  1  0.12500000  0.12500000  0.62500000  1
  Ce  Ce2  1  0.12500000  0.12500000  0.12500000  1
  Ce  Ce3  1  0.62500000  0.12500000  0.12500000  1
  O  O0  1  0.50000000  0.50000000  0.50000000  1
  O  O1  1  0.75000000  0.75000000  0.75000000  1
  O  O2  1  0.21935036  0.78064964  0.78064964  1
  O  O3  1  0.78064964  0.21935036  0.78064964  1
  O  O4  1  0.21935036  0.21935036  0.78064964  1
  O  O5  1  0.21935036  0.78064964  0.21935036  1
  O  O6  1  0.78064964  0.78064964  0.21935036  1
  O  O7  1  0.46935036  0.03064964  0.03064964  1
  O  O8  1  0.78064964  0.21935036  0.21935036  1
  O  O9  1  0.03064964  0.46935036  0.03064964  1
  O  O10  1  0.46935036  0.03064964  0.46935036  1
  O  O11  1  0.03064964  0.03064964  0.46935036  1
  O  O12  1  0.46935036  0.46935036  0.03064964  1
  O  O13  1  0.03064964  0.46935036  0.46935036  1
loop_
_geom_bond_atom_site_label_1
_geom_bond_atom_site_label_2
_geom_bond_distance
_geom_bond_site_symmetry_2
La0 O0 2.419973 1_555
La0 O1 2.419973 1_455
La0 O13 2.632665 1_555
La0 O9 2.632665 1_556
La0 O11 2.632665 1_565
La0 O5 2.632665 1_555
La0 O4 2.632665 1_555
La0 O2 2.632665 1_555
La1 O0 2.419973 1_555
La1 O1 2.419973 1_555
La1 O13 2.632665 1_655
La1 O10 2.632665 1_565
La1 O2 2.632665 1_555
La1 O12 2.632665 1_556
La1 O3 2.632665 1_555
La1 O6 2.632665 1_555
La2 O1 2.419973 1_545
La2 O0 2.419973 1_555
La2 O10 2.632665 1_555
La2 O8 2.632665 1_555
La2 O11 2.632665 1_655
La2 O4 2.632665 1_555
La2 O7 2.632665 1_556
La2 O3 2.632665 1_555
La3 O0 2.419973 1_555
La3 O1 2.419973 1_554
La3 O12 2.632665 1_555
La3 O8 2.632665 1_555
La3 O7 2.632665 1_565
La3 O5 2.632665 1_555
La3 O9 2.632665 1_655
La3 O6 2.632665 1_555
Ce0 O2 2.239718 1_554
Ce0 O9 2.239718 1_555
Ce0 O12 2.239718 1_555
Ce0 O13 2.239718 1_555
Ce0 O6 2.239718 1_455
Ce0 O5 2.239718 1_555
Ce1 O2 2.239718 1_545
Ce1 O4 2.239718 1_555
Ce1 O13 2.239718 1_555
Ce1 O10 2.239718 1_555
Ce1 O11 2.239718 1_555
Ce1 O3 2.239718 1_455
Ce2 O5 2.239718 1_545
Ce2 O4 2.239718 1_554
Ce2 O11 2.239718 1_555
Ce2 O9 2.239718 1_555
Ce2 O8 2.239718 1_455
Ce2 O7 2.239718 1_555
Ce3 O7 2.239718 1_555
Ce3 O3 2.239718 1_554
Ce3 O12 2.239718 1_555
Ce3 O6 2.239718 1_545
Ce3 O10 2.239718 1_555
Ce3 O8 2.239718 1_555
