# generated using pymatgen
data_TiFe3Co2(PO4)6
_symmetry_space_group_name_H-M   'P 1'
_cell_length_a   8.44931698
_cell_length_b   8.44931698
_cell_length_c   8.44931723
_cell_angle_alpha   61.52437952
_cell_angle_beta   61.52437952
_cell_angle_gamma   61.52437745
_symmetry_Int_Tables_number   1
_chemical_formula_structural   TiFe3Co2(PO4)6
_chemical_formula_sum   'Ti1 Fe3 Co2 P6 O24'
_cell_volume   441.12292287
_cell_formula_units_Z   1
loop_
 _symmetry_equiv_pos_site_id
 _symmetry_equiv_pos_as_xyz
  1  'x, y, z'
loop_
 _atom_site_type_symbol
 _atom_site_label
 _atom_site_symmetry_multiplicity
 _atom_site_fract_x
 _atom_site_fract_y
 _atom_site_fract_z
 _atom_site_occupancy
  Ti  Ti0  1  0.85554000  0.85554000  0.85554000  1
  Fe  Fe0  1  0.35536500  0.35536500  0.35536500  1
  Fe  Fe1  1  0.14562000  0.14562000  0.14562000  1
  Fe  Fe2  1  0.64416700  0.64416700  0.64416700  1
  Co  Co0  1  0.00208700  0.00208700  0.00208700  1
  Co  Co1  1  0.50086200  0.50086200  0.50086200  1
  P  P0  1  0.74878200  0.04666900  0.45266800  1
  P  P1  1  0.04666900  0.45266800  0.74878200  1
  P  P2  1  0.45266800  0.74878200  0.04666900  1
  P  P3  1  0.54604100  0.25029400  0.95332900  1
  P  P4  1  0.95332900  0.54604100  0.25029400  1
  P  P5  1  0.25029400  0.95332900  0.54604100  1
  O  O0  1  0.89074000  0.49552400  0.67846100  1
  O  O1  1  0.49552400  0.67846100  0.89074000  1
  O  O2  1  0.67846100  0.89074000  0.49552400  1
  O  O3  1  0.90724700  0.06063100  0.25466400  1
  O  O4  1  0.82087300  0.99455600  0.61569200  1
  O  O5  1  0.59387400  0.24570800  0.44493700  1
  O  O6  1  0.06063100  0.25466400  0.90724700  1
  O  O7  1  0.24570800  0.44493700  0.59387400  1
  O  O8  1  0.39100700  0.17875200  0.99493800  1
  O  O9  1  0.44493700  0.59387400  0.24570800  1
  O  O10  1  0.74730400  0.09059800  0.93734800  1
  O  O11  1  0.99493800  0.39100700  0.17875200  1
  O  O12  1  0.99455500  0.61569200  0.82087300  1
  O  O13  1  0.25466400  0.90724700  0.06063100  1
  O  O14  1  0.56161600  0.40615700  0.75259500  1
  O  O15  1  0.61569200  0.82087300  0.99455600  1
  O  O16  1  0.75259500  0.56161600  0.40615700  1
  O  O17  1  0.93734800  0.74730400  0.09059800  1
  O  O18  1  0.40615700  0.75259500  0.56161600  1
  O  O19  1  0.17875200  0.99493800  0.39100700  1
  O  O20  1  0.09059800  0.93734800  0.74730400  1
  O  O21  1  0.31696500  0.11043900  0.50795000  1
  O  O22  1  0.50795000  0.31696500  0.11043900  1
  O  O23  1  0.11043900  0.50795000  0.31696500  1
loop_
_geom_bond_atom_site_label_1
_geom_bond_atom_site_label_2
_geom_bond_distance
_geom_bond_site_symmetry_2
Fe0 O23 1.935796 1_555
Fe0 O21 1.935796 1_555
Fe0 O22 1.935796 1_555
Fe0 O5 2.120765 1_555
Fe0 O9 2.120765 1_555
Fe0 O7 2.120765 1_555
Fe1 O11 1.922123 1_455
Fe1 O8 1.922123 1_554
Fe1 O19 1.922123 1_545
Fe1 O13 2.097582 1_545
Fe1 O3 2.097582 1_455
Fe1 O6 2.097582 1_554
Fe2 O0 1.932696 1_555
Fe2 O2 1.932696 1_555
Fe2 O1 1.932696 1_555
Fe2 O18 2.083605 1_555
Fe2 O14 2.083606 1_555
Fe2 O16 2.083606 1_555
Co0 O13 2.106928 1_545
Co0 O6 2.106928 1_554
Co0 O3 2.106928 1_455
Co0 O10 2.165733 1_454
Co0 O17 2.165733 1_445
Co0 O20 2.165733 1_544
Co1 O18 2.110525 1_555
Co1 O16 2.110525 1_555
Co1 O14 2.110525 1_555
Co1 O5 2.119056 1_555
Co1 O7 2.119056 1_555
Co1 O9 2.119056 1_555
O0 P1 1.518658 1_655
O1 P2 1.518658 1_556
O2 P0 1.518658 1_565
O3 P0 1.559475 1_555
O4 P0 1.558273 1_565
O4 Ti0 1.881619 1_555
O5 P0 1.556746 1_555
O6 P1 1.559475 1_555
O7 P1 1.556746 1_555
O8 P3 1.522559 1_555
O9 P2 1.556746 1_555
O10 P3 1.580338 1_555
O10 Ti0 2.057417 1_545
O11 P4 1.522559 1_555
O12 P1 1.558271 1_655
O12 Ti0 1.881618 1_555
O13 P2 1.559475 1_555
O14 P3 1.565502 1_555
O15 P2 1.558273 1_556
O15 Ti0 1.881619 1_555
O16 P4 1.565502 1_555
O17 P4 1.580338 1_555
O17 Ti0 2.057417 1_554
O18 P5 1.565502 1_555
O19 P5 1.522559 1_555
O20 P5 1.580338 1_555
O20 Ti0 2.057417 1_455
O21 P5 1.521805 1_545
O22 P3 1.521805 1_554
O23 P4 1.521805 1_455
