# generated using pymatgen
data_Li2Mn3F8
_symmetry_space_group_name_H-M   'P 1'
_cell_length_a   11.83055400
_cell_length_b   6.70596100
_cell_length_c   8.92802993
_cell_angle_alpha   83.12685398
_cell_angle_beta   90.00000000
_cell_angle_gamma   90.00000000
_symmetry_Int_Tables_number   1
_chemical_formula_structural   Li2Mn3F8
_chemical_formula_sum   'Li8 Mn12 F32'
_cell_volume   703.21711889
_cell_formula_units_Z   4
loop_
 _symmetry_equiv_pos_site_id
 _symmetry_equiv_pos_as_xyz
  1  'x, y, z'
loop_
 _atom_site_type_symbol
 _atom_site_label
 _atom_site_symmetry_multiplicity
 _atom_site_fract_x
 _atom_site_fract_y
 _atom_site_fract_z
 _atom_site_occupancy
  Li  Li0  1  0.61357800  0.10657300  0.06977200  1
  Li  Li1  1  0.88642200  0.60657300  0.06977200  1
  Li  Li2  1  0.42280300  0.30507300  0.40385600  1
  Li  Li3  1  0.07719700  0.80507300  0.40385600  1
  Li  Li4  1  0.92280300  0.19492700  0.59614400  1
  Li  Li5  1  0.57719700  0.69492700  0.59614400  1
  Li  Li6  1  0.11357800  0.39342700  0.93022800  1
  Li  Li7  1  0.38642200  0.89342700  0.93022800  1
  Mn  Mn0  1  0.39183400  0.35671900  0.06267900  1
  Mn  Mn1  1  0.10816600  0.85671900  0.06267900  1
  Mn  Mn2  1  0.09060300  0.31992100  0.26586600  1
  Mn  Mn3  1  0.40939700  0.81992100  0.26586600  1
  Mn  Mn4  1  0.69686300  0.35481900  0.34277900  1
  Mn  Mn5  1  0.80313700  0.85481900  0.34277900  1
  Mn  Mn6  1  0.19686300  0.14518100  0.65722100  1
  Mn  Mn7  1  0.30313700  0.64518100  0.65722100  1
  Mn  Mn8  1  0.59060300  0.18007900  0.73413400  1
  Mn  Mn9  1  0.90939700  0.68007900  0.73413400  1
  Mn  Mn10  1  0.89183400  0.14328100  0.93732100  1
  Mn  Mn11  1  0.60816600  0.64328100  0.93732100  1
  F  F0  1  0.58279400  0.38688100  0.10045500  1
  F  F1  1  0.21583300  0.36370200  0.09579500  1
  F  F2  1  0.95613400  0.34047700  0.09365100  1
  F  F3  1  0.91720600  0.88688100  0.10045500  1
  F  F4  1  0.28416700  0.86370200  0.09579500  1
  F  F5  1  0.54386600  0.84047700  0.09365100  1
  F  F6  1  0.71804400  0.08970100  0.22392800  1
  F  F7  1  0.09518300  0.02104800  0.25327700  1
  F  F8  1  0.78195600  0.58970100  0.22392800  1
  F  F9  1  0.41539100  0.12530100  0.25646000  1
  F  F10  1  0.40481700  0.52104800  0.25327700  1
  F  F11  1  0.08460900  0.62530100  0.25646000  1
  F  F12  1  0.80658500  0.15391800  0.46978000  1
  F  F13  1  0.56654000  0.25672600  0.49555000  1
  F  F14  1  0.69341500  0.65391800  0.46978000  1
  F  F15  1  0.93346000  0.75672600  0.49555000  1
  F  F16  1  0.06654000  0.24327400  0.50445000  1
  F  F17  1  0.30658500  0.34608200  0.53022000  1
  F  F18  1  0.43346000  0.74327400  0.50445000  1
  F  F19  1  0.19341500  0.84608200  0.53022000  1
  F  F20  1  0.91539100  0.37469900  0.74354000  1
  F  F21  1  0.59518300  0.47895200  0.74672300  1
  F  F22  1  0.58460900  0.87469900  0.74354000  1
  F  F23  1  0.21804400  0.41029900  0.77607200  1
  F  F24  1  0.90481700  0.97895200  0.74672300  1
  F  F25  1  0.28195600  0.91029900  0.77607200  1
  F  F26  1  0.45613400  0.15952300  0.90634900  1
  F  F27  1  0.71583300  0.13629800  0.90420500  1
  F  F28  1  0.08279400  0.11311900  0.89954500  1
  F  F29  1  0.04386600  0.65952300  0.90634900  1
  F  F30  1  0.78416700  0.63629800  0.90420500  1
  F  F31  1  0.41720600  0.61311900  0.89954500  1
loop_
_geom_bond_atom_site_label_1
_geom_bond_atom_site_label_2
_geom_bond_distance
_geom_bond_site_symmetry_2
F0 Li0 1.965789 1_555
F0 Mn11 2.137376 1_554
F0 Mn0 2.296694 1_555
F0 Mn4 2.537060 1_555
F1 Li6 1.902026 1_554
F1 Mn0 2.104385 1_555
F1 Mn2 2.116600 1_555
F2 Li1 1.954167 1_555
F2 Mn10 2.171904 1_554
F2 Mn2 2.205241 1_655
F2 Li6 2.366508 1_654
F3 Li1 1.965789 1_555
F3 Mn10 2.137376 1_564
F3 Mn1 2.296694 1_655
F3 Mn5 2.537060 1_555
F4 Li7 1.902026 1_554
F4 Mn1 2.104385 1_555
F4 Mn3 2.116600 1_555
F5 Li0 1.954167 1_565
F5 Mn11 2.171904 1_554
F5 Mn3 2.205241 1_555
F5 Li7 2.366508 1_554
F6 Li0 1.843145 1_555
F6 Mn5 2.054343 1_545
F6 Mn4 2.191138 1_555
F7 Li3 1.866609 1_545
F7 Mn2 2.021491 1_555
F7 Mn1 2.140664 1_545
F8 Li1 1.843145 1_555
F8 Mn4 2.054343 1_555
F8 Mn5 2.191138 1_555
F9 Li2 1.890098 1_555
F9 Mn3 2.040754 1_545
F9 Mn0 2.199222 1_555
F10 Li2 1.866609 1_555
F10 Mn3 2.021491 1_555
F10 Mn0 2.140664 1_555
F11 Li3 1.890098 1_555
F11 Mn2 2.040754 1_555
F11 Mn1 2.199222 1_555
F12 Li4 1.820190 1_555
F12 Mn4 2.102397 1_555
F12 Mn5 2.419642 1_545
F13 Li2 1.898271 1_555
F13 Mn4 2.110791 1_555
F13 Mn8 2.149523 1_555
F14 Li5 1.820190 1_555
F14 Mn5 2.102397 1_555
F14 Mn4 2.419642 1_555
F15 Li3 1.898271 1_655
F15 Mn5 2.110791 1_555
F15 Mn9 2.149523 1_555
F16 Li4 1.898271 1_455
F16 Mn6 2.110791 1_555
F16 Mn2 2.149523 1_555
F17 Li2 1.820190 1_555
F17 Mn6 2.102397 1_555
F17 Mn7 2.419642 1_555
F18 Li5 1.898271 1_555
F18 Mn7 2.110791 1_555
F18 Mn3 2.149523 1_555
F19 Li3 1.820190 1_555
F19 Mn7 2.102397 1_555
F19 Mn6 2.419642 1_565
F20 Li4 1.890098 1_555
F20 Mn9 2.040754 1_555
F20 Mn10 2.199222 1_555
F21 Li5 1.866609 1_555
F21 Mn8 2.021491 1_555
F21 Mn11 2.140664 1_555
F22 Li5 1.890098 1_555
F22 Mn8 2.040754 1_565
F22 Mn11 2.199222 1_555
F23 Li6 1.843145 1_555
F23 Mn7 2.054343 1_555
F23 Mn6 2.191138 1_555
F24 Li4 1.866609 1_565
F24 Mn9 2.021491 1_555
F24 Mn10 2.140664 1_565
F25 Li7 1.843145 1_555
F25 Mn6 2.054343 1_565
F25 Mn7 2.191138 1_555
F26 Li7 1.954167 1_545
F26 Mn0 2.171904 1_556
F26 Mn8 2.205241 1_555
F26 Li0 2.366508 1_556
F27 Li0 1.902026 1_556
F27 Mn10 2.104385 1_555
F27 Mn8 2.116600 1_555
F28 Li6 1.965789 1_555
F28 Mn1 2.137376 1_546
F28 Mn10 2.296694 1_455
F28 Mn6 2.537060 1_555
F29 Li6 1.954167 1_555
F29 Mn1 2.171904 1_556
F29 Mn9 2.205241 1_455
F29 Li1 2.366508 1_456
F30 Li1 1.902026 1_556
F30 Mn11 2.104385 1_555
F30 Mn9 2.116600 1_555
F31 Li7 1.965789 1_555
F31 Mn0 2.137376 1_556
F31 Mn11 2.296694 1_555
F31 Mn7 2.537060 1_555
