# generated using pymatgen
data_Fe2CoO4
_symmetry_space_group_name_H-M   'P 1'
_cell_length_a   5.97248976
_cell_length_b   5.97248976
_cell_length_c   5.97248976
_cell_angle_alpha   60.00000000
_cell_angle_beta   60.00000000
_cell_angle_gamma   60.00000000
_symmetry_Int_Tables_number   1
_chemical_formula_structural   Fe2CoO4
_chemical_formula_sum   'Fe4 Co2 O8'
_cell_volume   150.64379355
_cell_formula_units_Z   2
loop_
 _symmetry_equiv_pos_site_id
 _symmetry_equiv_pos_as_xyz
  1  'x, y, z'
loop_
 _atom_site_type_symbol
 _atom_site_label
 _atom_site_symmetry_multiplicity
 _atom_site_fract_x
 _atom_site_fract_y
 _atom_site_fract_z
 _atom_site_occupancy
  Fe  Fe0  1  0.87500000  0.37500000  0.37500000  1
  Fe  Fe1  1  0.37500000  0.87500000  0.37500000  1
  Fe  Fe2  1  0.37500000  0.37500000  0.87500000  1
  Fe  Fe3  1  0.37500000  0.37500000  0.37500000  1
  Co  Co0  1  0.75000000  0.75000000  0.75000000  1
  Co  Co1  1  0.00000000  0.00000000  0.00000000  1
  O  O0  1  0.59733280  0.13422240  0.13422240  1
  O  O1  1  0.13422240  0.59733280  0.13422240  1
  O  O2  1  0.13422240  0.13422240  0.59733280  1
  O  O3  1  0.13422240  0.13422240  0.13422240  1
  O  O4  1  0.15266720  0.61577760  0.61577760  1
  O  O5  1  0.61577760  0.15266720  0.61577760  1
  O  O6  1  0.61577760  0.61577760  0.15266720  1
  O  O7  1  0.61577760  0.61577760  0.61577760  1
loop_
_geom_bond_atom_site_label_1
_geom_bond_atom_site_label_2
_geom_bond_distance
_geom_bond_site_symmetry_2
Fe0 O6 2.036680 1_555
Fe0 O3 2.036680 1_655
Fe0 O5 2.036680 1_555
Fe0 O7 2.036680 1_555
Fe0 O1 2.036680 1_655
Fe0 O2 2.036680 1_655
Fe1 O6 2.036680 1_555
Fe1 O3 2.036680 1_565
Fe1 O4 2.036680 1_555
Fe1 O2 2.036680 1_565
Fe1 O7 2.036680 1_555
Fe1 O0 2.036680 1_565
Fe2 O5 2.036680 1_555
Fe2 O3 2.036680 1_556
Fe2 O4 2.036680 1_555
Fe2 O7 2.036680 1_555
Fe2 O1 2.036680 1_556
Fe2 O0 2.036680 1_556
Fe3 O2 2.036680 1_555
Fe3 O1 2.036680 1_555
Fe3 O0 2.036680 1_555
Fe3 O6 2.036680 1_555
Fe3 O4 2.036680 1_555
Fe3 O5 2.036680 1_555
Co0 O7 1.963614 1_555
Co0 O4 1.963614 1_655
Co0 O5 1.963614 1_565
Co0 O6 1.963614 1_556
Co1 O3 1.963614 1_555
Co1 O1 1.963614 1_545
Co1 O0 1.963614 1_455
Co1 O2 1.963614 1_554
