# generated using pymatgen
data_NaHoO2
_symmetry_space_group_name_H-M   'P 1'
_cell_length_a   8.19982404
_cell_length_b   8.19982404
_cell_length_c   5.97676499
_cell_angle_alpha   59.89017273
_cell_angle_beta   120.10982727
_cell_angle_gamma   73.89310024
_symmetry_Int_Tables_number   1
_chemical_formula_structural   NaHoO2
_chemical_formula_sum   'Na4 Ho4 O8'
_cell_volume   212.67165244
_cell_formula_units_Z   4
loop_
 _symmetry_equiv_pos_site_id
 _symmetry_equiv_pos_as_xyz
  1  'x, y, z'
loop_
 _atom_site_type_symbol
 _atom_site_label
 _atom_site_symmetry_multiplicity
 _atom_site_fract_x
 _atom_site_fract_y
 _atom_site_fract_z
 _atom_site_occupancy
  Na  Na0  1  0.69422543  0.69422543  0.75000000  1
  Na  Na1  1  0.93017830  0.93017830  0.75000000  1
  Na  Na2  1  0.06982170  0.06982170  0.25000000  1
  Na  Na3  1  0.30577457  0.30577457  0.25000000  1
  Ho  Ho0  1  0.18271755  0.18271755  0.75000000  1
  Ho  Ho1  1  0.44313885  0.44313885  0.75000000  1
  Ho  Ho2  1  0.81728245  0.81728245  0.25000000  1
  Ho  Ho3  1  0.55686115  0.55686115  0.25000000  1
  O  O0  1  0.20728046  0.66882122  0.74915510  1
  O  O1  1  0.43862259  0.93468749  0.79468905  1
  O  O2  1  0.33117878  0.79271954  0.24915510  1
  O  O3  1  0.06531251  0.56137741  0.29468905  1
  O  O4  1  0.93468749  0.43862259  0.70531095  1
  O  O5  1  0.66882122  0.20728046  0.75084490  1
  O  O6  1  0.56137741  0.06531251  0.20531095  1
  O  O7  1  0.79271954  0.33117878  0.25084490  1
loop_
_geom_bond_atom_site_label_1
_geom_bond_atom_site_label_2
_geom_bond_distance
_geom_bond_site_symmetry_2
Na0 O6 2.389074 1_565
Na0 O3 2.389074 1_656
Na0 O7 2.403025 1_556
Na0 O2 2.403025 1_555
Na0 O4 2.673755 1_555
Na0 O1 2.673755 1_555
Na1 O6 2.369601 1_565
Na1 O3 2.369601 1_656
Na1 O7 2.389600 1_565
Na1 O2 2.389600 1_656
Na1 O5 2.660104 1_565
Na1 O0 2.660104 1_655
Na2 O1 2.369601 1_545
Na2 O4 2.369601 1_454
Na2 O5 2.389600 1_454
Na2 O0 2.389600 1_545
Na2 O7 2.660104 1_455
Na2 O2 2.660104 1_545
Na3 O4 2.389074 1_454
Na3 O1 2.389074 1_545
Na3 O5 2.403025 1_555
Na3 O0 2.403025 1_554
Na3 O3 2.673755 1_555
Na3 O6 2.673755 1_555
Ho0 O1 2.266177 1_545
Ho0 O4 2.266177 1_455
Ho0 O3 2.282184 1_555
Ho0 O6 2.282184 1_556
Ho0 O7 2.287550 1_455
Ho0 O2 2.287550 1_546
Ho1 O5 2.271546 1_555
Ho1 O0 2.271546 1_555
Ho1 O3 2.274000 1_555
Ho1 O6 2.274000 1_556
Ho1 O7 2.278972 1_556
Ho1 O2 2.278972 1_555
Ho2 O6 2.266177 1_565
Ho2 O3 2.266177 1_655
Ho2 O1 2.282184 1_554
Ho2 O4 2.282184 1_555
Ho2 O0 2.287550 1_655
Ho2 O5 2.287550 1_564
Ho3 O2 2.271546 1_555
Ho3 O7 2.271546 1_555
Ho3 O1 2.274000 1_554
Ho3 O4 2.274000 1_555
Ho3 O0 2.278972 1_554
Ho3 O5 2.278972 1_555
