# generated using pymatgen
data_Li3MnV(PO4)3
_symmetry_space_group_name_H-M   'P 1'
_cell_length_a   8.40032900
_cell_length_b   8.42630283
_cell_length_c   9.27432440
_cell_angle_alpha   90.26484692
_cell_angle_beta   116.79301258
_cell_angle_gamma   119.77794391
_symmetry_Int_Tables_number   1
_chemical_formula_structural   Li3MnV(PO4)3
_chemical_formula_sum   'Li6 Mn2 V2 P6 O24'
_cell_volume   485.99504333
_cell_formula_units_Z   2
loop_
 _symmetry_equiv_pos_site_id
 _symmetry_equiv_pos_as_xyz
  1  'x, y, z'
loop_
 _atom_site_type_symbol
 _atom_site_label
 _atom_site_symmetry_multiplicity
 _atom_site_fract_x
 _atom_site_fract_y
 _atom_site_fract_z
 _atom_site_occupancy
  Li  Li0  1  0.60106800  0.66906100  0.85811700  1
  Li  Li1  1  0.93887200  0.26657500  0.87223600  1
  Li  Li2  1  0.20692900  0.73653500  0.40996300  1
  Li  Li3  1  0.81068700  0.07301800  0.14964700  1
  Li  Li4  1  0.04273600  0.74524900  0.08623700  1
  Li  Li5  1  0.38586800  0.31956100  0.13170200  1
  Mn  Mn0  1  0.29821900  0.15235000  0.44362400  1
  Mn  Mn1  1  0.72447300  0.86131800  0.56892800  1
  V  V0  1  0.31199900  0.66295400  0.96308400  1
  V  V1  1  0.67947100  0.34166800  0.03252400  1
  P  P0  1  0.80176000  0.54037200  0.75143100  1
  P  P1  1  0.21467600  0.26451400  0.75749600  1
  P  P2  1  0.50167600  0.95272400  0.76135100  1
  P  P3  1  0.50407000  0.04635100  0.24633100  1
  P  P4  1  0.78770700  0.73525800  0.24357100  1
  P  P5  1  0.19256800  0.46025500  0.24358500  1
  O  O0  1  0.73523900  0.52009800  0.89473700  1
  O  O1  1  0.87676700  0.74380400  0.74893700  1
  O  O2  1  0.99815100  0.51692100  0.83443800  1
  O  O3  1  0.31601600  0.48511900  0.83155100  1
  O  O4  1  0.38096100  0.22710900  0.90007000  1
  O  O5  1  0.68101200  0.15820400  0.89765000  1
  O  O6  1  0.62165300  0.38210300  0.58921500  1
  O  O7  1  0.00512800  0.14759400  0.75485600  1
  O  O8  1  0.20543200  0.22976600  0.59458900  1
  O  O9  1  0.35006700  0.82572900  0.82507400  1
  O  O10  1  0.62457400  0.86859100  0.75691800  1
  O  O11  1  0.36884900  0.96605800  0.59025500  1
  O  O12  1  0.62886800  0.02550700  0.41299200  1
  O  O13  1  0.37172300  0.12441400  0.24042200  1
  O  O14  1  0.65131600  0.16745300  0.17520500  1
  O  O15  1  0.79943800  0.77911100  0.40583000  1
  O  O16  1  0.00969800  0.83962400  0.25846200  1
  O  O17  1  0.36807500  0.62027500  0.40864700  1
  O  O18  1  0.32776200  0.83498500  0.11069000  1
  O  O19  1  0.64425600  0.79124700  0.09995900  1
  O  O20  1  0.67655400  0.51360600  0.17329800  1
  O  O21  1  0.00004500  0.48985400  0.17349000  1
  O  O22  1  0.11179600  0.25568300  0.25492200  1
  O  O23  1  0.25730100  0.47327800  0.10521300  1
loop_
_geom_bond_atom_site_label_1
_geom_bond_atom_site_label_2
_geom_bond_distance
_geom_bond_site_symmetry_2
Li0 O10 1.896985 1_555
Li0 O3 1.993729 1_555
Li0 O0 2.006305 1_555
Li0 O19 2.257517 1_556
Li1 O7 1.894839 1_655
Li1 O2 1.985353 1_555
Li1 O5 2.019652 1_555
Li1 O23 2.232567 1_656
Li2 O11 1.921766 1_555
Li2 O17 2.030835 1_555
Li2 O16 2.194514 1_555
Li2 O21 2.254837 1_555
Li3 O22 1.900761 1_655
Li3 O14 1.955551 1_555
Li3 O19 1.978925 1_545
Li3 O5 2.379262 1_554
Li4 O16 1.966674 1_555
Li4 O18 2.016562 1_555
Li4 O0 2.095515 1_454
Li4 O21 2.219423 1_555
Li5 O13 1.914160 1_555
Li5 O20 1.991003 1_555
Li5 O23 2.014377 1_555
Li5 O4 2.257494 1_554
Mn0 O6 2.096874 1_555
Mn0 O8 2.115130 1_555
Mn0 O11 2.209731 1_545
Mn0 O22 2.273986 1_555
Mn0 O13 2.275427 1_555
Mn0 O16 2.372589 1_545
Mn1 O15 2.108739 1_555
Mn1 O12 2.173849 1_565
Mn1 O1 2.179990 1_555
Mn1 O7 2.235668 1_665
Mn1 O10 2.262045 1_555
Mn1 O17 2.284337 1_555
O0 P0 1.638502 1_555
O0 V1 1.992693 1_556
O1 P0 1.508854 1_555
O2 P0 1.591728 1_555
O2 V0 1.953628 1_655
O3 P1 1.594092 1_555
O3 V0 1.950682 1_555
O4 P1 1.604665 1_555
O4 V1 1.880547 1_556
O5 P2 1.592912 1_545
O5 V1 1.992814 1_556
O6 P0 1.502063 1_555
O7 P1 1.519254 1_555
O8 P1 1.497328 1_555
O9 P2 1.564309 1_555
O9 V0 1.889806 1_555
O10 P2 1.528088 1_555
O11 P2 1.518392 1_555
O12 P3 1.497839 1_555
O13 P3 1.530841 1_555
O14 P3 1.579394 1_555
O14 V1 1.979197 1_555
O15 P4 1.495261 1_555
O16 P4 1.551677 1_455
O17 P5 1.518823 1_555
O18 P3 1.620998 1_565
O18 V0 1.902741 1_554
O19 P4 1.603807 1_555
O19 V0 2.089567 1_554
O20 P4 1.578876 1_555
O20 V1 1.962344 1_555
O21 P5 1.598327 1_555
O21 V1 1.997794 1_455
O22 P5 1.532029 1_555
O23 P5 1.589267 1_555
O23 V0 2.083068 1_554
