# generated using pymatgen
data_LiFeBO3
_symmetry_space_group_name_H-M   'P 1'
_cell_length_a   3.18378900
_cell_length_b   8.97963087
_cell_length_c   9.73133468
_cell_angle_alpha   90.06831791
_cell_angle_beta   89.70016116
_cell_angle_gamma   91.58854058
_symmetry_Int_Tables_number   1
_chemical_formula_structural   LiFeBO3
_chemical_formula_sum   'Li4 Fe4 B4 O12'
_cell_volume   278.10067669
_cell_formula_units_Z   4
loop_
 _symmetry_equiv_pos_site_id
 _symmetry_equiv_pos_as_xyz
  1  'x, y, z'
loop_
 _atom_site_type_symbol
 _atom_site_label
 _atom_site_symmetry_multiplicity
 _atom_site_fract_x
 _atom_site_fract_y
 _atom_site_fract_z
 _atom_site_occupancy
  Li  Li0  1  0.24414100  0.12412200  0.71153100  1
  Li  Li1  1  0.25796200  0.37541800  0.21126500  1
  Li  Li2  1  0.74182600  0.62458300  0.78874000  1
  Li  Li3  1  0.75610600  0.87594200  0.28844700  1
  Fe  Fe0  1  0.74972900  0.21082900  0.94322700  1
  Fe  Fe1  1  0.25033100  0.78901600  0.05675300  1
  Fe  Fe2  1  0.74833300  0.29024800  0.44216000  1
  Fe  Fe3  1  0.25161700  0.70974200  0.55785100  1
  B  B0  1  0.25663200  0.11050000  0.20712500  1
  B  B1  1  0.24115900  0.38916000  0.70663200  1
  B  B2  1  0.75877800  0.61084200  0.29339200  1
  B  B3  1  0.74338500  0.88951200  0.79287000  1
  O  O0  1  0.73477300  0.04212800  0.79563200  1
  O  O1  1  0.76378700  0.45794100  0.29622400  1
  O  O2  1  0.23599500  0.54206800  0.70379300  1
  O  O3  1  0.26552500  0.95789800  0.20437600  1
  O  O4  1  0.23971700  0.18675000  0.33098200  1
  O  O5  1  0.24045800  0.31362100  0.83111200  1
  O  O6  1  0.76027100  0.68636300  0.16888400  1
  O  O7  1  0.76076300  0.81328800  0.66901900  1
  O  O8  1  0.26427200  0.19808200  0.08690800  1
  O  O9  1  0.24787800  0.30179500  0.58675100  1
  O  O10  1  0.75149100  0.69822400  0.41324400  1
  O  O11  1  0.73507300  0.80192600  0.91308100  1
loop_
_geom_bond_atom_site_label_1
_geom_bond_atom_site_label_2
_geom_bond_distance
_geom_bond_site_symmetry_2
Li0 O0 1.931463 1_555
Li0 O0 1.939904 1_455
Li0 O9 2.005853 1_555
Li0 O5 2.060603 1_555
Li1 O1 1.938466 1_455
Li1 O1 1.942289 1_555
Li1 O8 1.999397 1_555
Li1 O4 2.056542 1_555
Li2 O2 1.938372 1_655
Li2 O2 1.942229 1_555
Li2 O11 1.999394 1_555
Li2 O7 2.056844 1_555
Li3 O3 1.931066 1_555
Li3 O3 1.939794 1_655
Li3 O10 2.006223 1_555
Li3 O6 2.061137 1_555
Fe0 O8 2.079639 1_556
Fe0 O0 2.086044 1_555
Fe0 O5 2.094747 1_655
Fe0 O8 2.164839 1_656
Fe0 O5 2.185224 1_555
Fe1 O11 2.077953 1_554
Fe1 O3 2.087415 1_555
Fe1 O6 2.092746 1_455
Fe1 O11 2.166626 1_454
Fe1 O6 2.186361 1_555
Fe2 O1 2.070510 1_555
Fe2 O9 2.124775 1_555
Fe2 O9 2.129326 1_655
Fe2 O4 2.131270 1_655
Fe2 O4 2.142191 1_555
Fe3 O2 2.070426 1_555
Fe3 O10 2.123477 1_555
Fe3 O7 2.130163 1_455
Fe3 O10 2.130808 1_455
Fe3 O7 2.143579 1_555
B0 O3 1.371613 1_545
B0 O4 1.387026 1_555
B0 O8 1.410155 1_555
B1 O2 1.373924 1_555
B1 O5 1.389008 1_555
B1 O9 1.405473 1_555
B2 O1 1.373840 1_555
B2 O6 1.389128 1_555
B2 O10 1.405373 1_555
B3 O0 1.371698 1_565
B3 O7 1.386931 1_555
B3 O11 1.410123 1_555
