# generated using pymatgen
data_Lu4(B2O5)3
_symmetry_space_group_name_H-M   'P 1'
_cell_length_a   6.18111826
_cell_length_b   6.18111826
_cell_length_c   18.67674792
_cell_angle_alpha   84.18370468
_cell_angle_beta   84.18370468
_cell_angle_gamma   41.43492569
_symmetry_Int_Tables_number   1
_chemical_formula_structural   Lu4(B2O5)3
_chemical_formula_sum   'Lu8 B12 O30'
_cell_volume   469.43738064
_cell_formula_units_Z   2
loop_
 _symmetry_equiv_pos_site_id
 _symmetry_equiv_pos_as_xyz
  1  'x, y, z'
loop_
 _atom_site_type_symbol
 _atom_site_label
 _atom_site_symmetry_multiplicity
 _atom_site_fract_x
 _atom_site_fract_y
 _atom_site_fract_z
 _atom_site_occupancy
  Lu  Lu0  1  0.65721700  0.06816600  0.30176600  1
  Lu  Lu1  1  0.66904000  0.06287900  0.09970000  1
  Lu  Lu2  1  0.06816600  0.65721700  0.80176600  1
  Lu  Lu3  1  0.06287900  0.66904000  0.59970000  1
  Lu  Lu4  1  0.93712100  0.33096000  0.40030000  1
  Lu  Lu5  1  0.93183400  0.34278300  0.19823400  1
  Lu  Lu6  1  0.33096000  0.93712100  0.90030000  1
  Lu  Lu7  1  0.34278300  0.93183400  0.69823400  1
  B  B0  1  0.19741700  0.60898300  0.41294000  1
  B  B1  1  0.20371600  0.65857300  0.19412800  1
  B  B2  1  0.64189700  0.02080000  0.47456200  1
  B  B3  1  0.60898300  0.19741700  0.91294000  1
  B  B4  1  0.65857300  0.20371600  0.69412800  1
  B  B5  1  0.02080000  0.64189700  0.97456200  1
  B  B6  1  0.97920000  0.35810300  0.02543800  1
  B  B7  1  0.34142700  0.79628400  0.30587200  1
  B  B8  1  0.39101700  0.80258300  0.08706000  1
  B  B9  1  0.35810300  0.97920000  0.52543800  1
  B  B10  1  0.79628400  0.34142700  0.80587200  1
  B  B11  1  0.80258300  0.39101700  0.58706000  1
  O  O0  1  0.15702100  0.81261000  0.12105500  1
  O  O1  1  0.54565900  0.28697700  0.42870400  1
  O  O2  1  0.53463700  0.33318500  0.19668500  1
  O  O3  1  0.99679400  0.74950900  0.48074200  1
  O  O4  1  0.81261000  0.15702100  0.62105500  1
  O  O5  1  0.28697700  0.54565900  0.92870400  1
  O  O6  1  0.07144400  0.56454800  0.36129700  1
  O  O7  1  0.33318500  0.53463700  0.69668500  1
  O  O8  1  0.74950900  0.99679400  0.98074200  1
  O  O9  1  0.94797700  0.68414800  0.20415400  1
  O  O10  1  0.09129300  0.49279200  0.04994200  1
  O  O11  1  0.50720800  0.90870700  0.45005800  1
  O  O12  1  0.56454800  0.07144400  0.86129700  1
  O  O13  1  0.68414800  0.94797700  0.70415400  1
  O  O14  1  0.31585200  0.05202300  0.29584600  1
  O  O15  1  0.43545200  0.92855600  0.13870300  1
  O  O16  1  0.49279200  0.09129300  0.54994200  1
  O  O17  1  0.90870700  0.50720800  0.95005800  1
  O  O18  1  0.05202300  0.31585200  0.79584600  1
  O  O19  1  0.25049100  0.00320600  0.01925800  1
  O  O20  1  0.66681500  0.46536300  0.30331500  1
  O  O21  1  0.92855600  0.43545200  0.63870300  1
  O  O22  1  0.71302300  0.45434100  0.07129600  1
  O  O23  1  0.18739000  0.84297900  0.37894500  1
  O  O24  1  0.12978500  0.87021500  0.25000000  1
  O  O25  1  0.00320600  0.25049100  0.51925800  1
  O  O26  1  0.46536300  0.66681500  0.80331500  1
  O  O27  1  0.45434100  0.71302300  0.57129600  1
  O  O28  1  0.84297900  0.18739000  0.87894500  1
  O  O29  1  0.87021500  0.12978500  0.75000000  1
loop_
_geom_bond_atom_site_label_1
_geom_bond_atom_site_label_2
_geom_bond_distance
_geom_bond_site_symmetry_2
Lu0 O14 2.199901 1_555
Lu0 O2 2.213130 1_555
Lu0 O24 2.296197 1_645
Lu0 O6 2.325249 1_645
Lu0 O9 2.450381 1_545
Lu0 O20 2.503022 1_555
Lu0 O1 2.616398 1_555
Lu0 O6 2.641597 1_555
Lu1 O15 2.183195 1_545
Lu1 O0 2.184603 1_645
Lu1 O2 2.233812 1_555
Lu1 O8 2.237351 1_544
Lu1 O9 2.441906 1_545
Lu1 O10 2.544530 1_645
Lu1 O10 2.573156 1_555
Lu1 O22 2.628138 1_555
Lu2 O18 2.199901 1_555
Lu2 O7 2.213130 1_555
Lu2 O29 2.296197 1_465
Lu2 O12 2.325249 1_465
Lu2 O13 2.450381 1_455
Lu2 O26 2.503022 1_555
Lu2 O5 2.616398 1_555
Lu2 O12 2.641597 1_555
Lu3 O21 2.183195 1_455
Lu3 O4 2.184603 1_465
Lu3 O7 2.233812 1_555
Lu3 O3 2.237351 1_455
Lu3 O13 2.441906 1_455
Lu3 O16 2.544530 1_465
Lu3 O16 2.573156 1_555
Lu3 O27 2.628138 1_555
Lu4 O6 2.183195 1_655
Lu4 O23 2.184603 1_645
Lu4 O20 2.233812 1_555
Lu4 O25 2.237351 1_655
Lu4 O14 2.441906 1_655
Lu4 O11 2.544530 1_645
Lu4 O11 2.573156 1_555
Lu4 O1 2.628138 1_555
Lu5 O9 2.199901 1_555
Lu5 O20 2.213130 1_555
Lu5 O24 2.296197 1_645
Lu5 O15 2.325249 1_645
Lu5 O14 2.450381 1_655
Lu5 O2 2.503022 1_555
Lu5 O22 2.616398 1_555
Lu5 O15 2.641597 1_555
Lu6 O12 2.183195 1_565
Lu6 O28 2.184603 1_465
Lu6 O26 2.233812 1_555
Lu6 O19 2.237351 1_566
Lu6 O18 2.441906 1_565
Lu6 O17 2.544530 1_465
Lu6 O17 2.573156 1_555
Lu6 O5 2.628138 1_555
Lu7 O13 2.199901 1_555
Lu7 O26 2.213130 1_555
Lu7 O29 2.296197 1_465
Lu7 O21 2.325249 1_465
Lu7 O18 2.450381 1_565
Lu7 O7 2.503022 1_555
Lu7 O27 2.616398 1_555
Lu7 O21 2.641597 1_555
B0 O6 1.462404 1_555
B0 O3 1.478315 1_455
B0 O23 1.478631 1_555
B0 O1 1.505759 1_555
B1 O2 1.436372 1_555
B1 O9 1.459504 1_455
B1 O0 1.502280 1_555
B1 O24 1.514181 1_555
B2 O3 1.460779 1_545
B2 O1 1.464413 1_555
B2 O16 1.510144 1_555
B2 O11 1.545639 1_545
B3 O12 1.462404 1_555
B3 O8 1.478315 1_545
B3 O28 1.478631 1_555
B3 O5 1.505759 1_555
B4 O7 1.436372 1_555
B4 O13 1.459504 1_545
B4 O4 1.502280 1_555
B4 O29 1.514181 1_555
B5 O8 1.460779 1_455
B5 O5 1.464413 1_555
B5 O10 1.510144 1_556
B5 O17 1.545639 1_455
B6 O19 1.460779 1_655
B6 O22 1.464413 1_555
B6 O17 1.510144 1_554
B6 O10 1.545639 1_655
B7 O20 1.436372 1_555
B7 O14 1.459504 1_565
B7 O23 1.502280 1_555
B7 O24 1.514181 1_555
B8 O15 1.462404 1_555
B8 O19 1.478315 1_565
B8 O0 1.478631 1_555
B8 O22 1.505759 1_555
B9 O25 1.460779 1_565
B9 O27 1.464413 1_555
B9 O11 1.510144 1_555
B9 O16 1.545639 1_565
B10 O26 1.436372 1_555
B10 O18 1.459504 1_655
B10 O28 1.502280 1_555
B10 O29 1.514181 1_555
B11 O21 1.462404 1_555
B11 O25 1.478315 1_655
B11 O4 1.478631 1_555
B11 O27 1.505759 1_555
