# generated using pymatgen
data_LiCr3(P3O10)2
_symmetry_space_group_name_H-M   'P 1'
_cell_length_a   8.53928879
_cell_length_b   8.53928879
_cell_length_c   12.59326700
_cell_angle_alpha   90.00000000
_cell_angle_beta   90.00000000
_cell_angle_gamma   106.64519536
_symmetry_Int_Tables_number   1
_chemical_formula_structural   LiCr3(P3O10)2
_chemical_formula_sum   'Li2 Cr6 P12 O40'
_cell_volume   879.81479229
_cell_formula_units_Z   2
loop_
 _symmetry_equiv_pos_site_id
 _symmetry_equiv_pos_as_xyz
  1  'x, y, z'
loop_
 _atom_site_type_symbol
 _atom_site_label
 _atom_site_symmetry_multiplicity
 _atom_site_fract_x
 _atom_site_fract_y
 _atom_site_fract_z
 _atom_site_occupancy
  Li  Li0  1  0.10745700  0.10745700  0.00000000  1
  Li  Li1  1  0.60745700  0.60745700  0.50000000  1
  Cr  Cr0  1  0.38861300  0.38861300  0.00000000  1
  Cr  Cr1  1  0.76998000  0.32403600  0.78254100  1
  Cr  Cr2  1  0.82403600  0.26998000  0.28254100  1
  Cr  Cr3  1  0.32403600  0.76998000  0.21745900  1
  Cr  Cr4  1  0.26998000  0.82403600  0.71745900  1
  Cr  Cr5  1  0.88861300  0.88861300  0.50000000  1
  P  P0  1  0.40362500  0.13366800  0.30401100  1
  P  P1  1  0.13366800  0.40362500  0.69598900  1
  P  P2  1  0.36409200  0.22778500  0.78351100  1
  P  P3  1  0.22778500  0.36409200  0.21648900  1
  P  P4  1  0.37150800  0.75364500  0.94919900  1
  P  P5  1  0.25364500  0.87150800  0.44919900  1
  P  P6  1  0.87150800  0.25364500  0.55080100  1
  P  P7  1  0.75364500  0.37150800  0.05080100  1
  P  P8  1  0.90362500  0.63366800  0.19598900  1
  P  P9  1  0.63366800  0.90362500  0.80401100  1
  P  P10  1  0.86409200  0.72778500  0.71648900  1
  P  P11  1  0.72778500  0.86409200  0.28351100  1
  O  O0  1  0.00609500  0.32107600  0.77711400  1
  O  O1  1  0.32107600  0.00609500  0.22288600  1
  O  O2  1  0.34955500  0.06344300  0.73706800  1
  O  O3  1  0.06344300  0.34955500  0.26293200  1
  O  O4  1  0.06011900  0.35712600  0.57828000  1
  O  O5  1  0.35712600  0.06011900  0.42172000  1
  O  O6  1  0.27263100  0.22293600  0.89288900  1
  O  O7  1  0.22293600  0.27263100  0.10711100  1
  O  O8  1  0.31811100  0.27778500  0.30207200  1
  O  O9  1  0.27778500  0.31811100  0.69792800  1
  O  O10  1  0.71034300  0.08330300  0.80131600  1
  O  O11  1  0.21034300  0.58330300  0.69868400  1
  O  O12  1  0.08330300  0.71034300  0.19868400  1
  O  O13  1  0.58330300  0.21034300  0.30131600  1
  O  O14  1  0.33825300  0.53791500  0.20240900  1
  O  O15  1  0.53791500  0.33825300  0.79759100  1
  O  O16  1  0.03791500  0.83825300  0.70240900  1
  O  O17  1  0.83825300  0.03791500  0.29759100  1
  O  O18  1  0.36600600  0.57245500  0.92713000  1
  O  O19  1  0.07245500  0.86600600  0.42713000  1
  O  O20  1  0.86600600  0.07245500  0.57287000  1
  O  O21  1  0.57245500  0.36600600  0.07287000  1
  O  O22  1  0.30515700  0.75477200  0.37455300  1
  O  O23  1  0.80515700  0.25477200  0.12544700  1
  O  O24  1  0.75477200  0.30515700  0.62544700  1
  O  O25  1  0.25477200  0.80515700  0.87455300  1
  O  O26  1  0.29462200  0.84654200  0.56184100  1
  O  O27  1  0.79462200  0.34654200  0.93815900  1
  O  O28  1  0.84654200  0.29462200  0.43815900  1
  O  O29  1  0.34654200  0.79462200  0.06184100  1
  O  O30  1  0.82107600  0.50609500  0.27711400  1
  O  O31  1  0.50609500  0.82107600  0.72288600  1
  O  O32  1  0.84955500  0.56344300  0.76293200  1
  O  O33  1  0.56344300  0.84955500  0.23706800  1
  O  O34  1  0.56011900  0.85712600  0.92172000  1
  O  O35  1  0.85712600  0.56011900  0.07828000  1
  O  O36  1  0.72293600  0.77263100  0.39288900  1
  O  O37  1  0.77263100  0.72293600  0.60711100  1
  O  O38  1  0.77778500  0.81811100  0.80207200  1
  O  O39  1  0.81811100  0.77778500  0.19792800  1
loop_
_geom_bond_atom_site_label_1
_geom_bond_atom_site_label_2
_geom_bond_distance
_geom_bond_site_symmetry_2
Li0 O6 1.996118 1_554
Li0 O7 1.996118 1_555
Li1 O37 1.996118 1_555
Li1 O36 1.996118 1_555
Cr0 O18 1.875508 1_554
Cr0 O21 1.875508 1_555
Cr0 O6 1.999801 1_554
Cr0 O7 1.999801 1_555
Cr1 O27 1.974493 1_555
Cr1 O32 1.976438 1_555
Cr1 O10 1.985286 1_555
Cr1 O24 1.986111 1_555
Cr1 O0 2.024793 1_655
Cr1 O15 2.028670 1_555
Cr2 O28 1.974493 1_555
Cr2 O3 1.976438 1_655
Cr2 O13 1.985286 1_555
Cr2 O23 1.986111 1_555
Cr2 O30 2.024793 1_555
Cr2 O17 2.028670 1_555
Cr3 O29 1.974493 1_555
Cr3 O33 1.976438 1_555
Cr3 O12 1.985286 1_555
Cr3 O22 1.986111 1_555
Cr3 O1 2.024793 1_565
Cr3 O14 2.028670 1_555
Cr4 O26 1.974493 1_555
Cr4 O2 1.976438 1_565
Cr4 O11 1.985286 1_555
Cr4 O25 1.986111 1_555
Cr4 O31 2.024793 1_555
Cr4 O16 2.028670 1_555
Cr5 O20 1.875508 1_565
Cr5 O19 1.875508 1_655
Cr5 O37 1.999801 1_555
Cr5 O36 1.999801 1_555
O0 P1 1.512431 1_555
O1 P0 1.512431 1_555
O2 P2 1.492351 1_555
O3 P3 1.492351 1_555
O4 P1 1.614492 1_555
O4 P6 1.636855 1_455
O5 P0 1.614492 1_555
O5 P5 1.636855 1_545
O6 P2 1.578123 1_555
O7 P3 1.578123 1_555
O8 P0 1.600993 1_555
O8 P3 1.620295 1_555
O9 P1 1.600993 1_555
O9 P2 1.620295 1_555
O10 P9 1.486093 1_545
O11 P1 1.486093 1_555
O12 P8 1.486093 1_455
O13 P0 1.486093 1_555
O14 P3 1.523928 1_555
O15 P2 1.523928 1_555
O16 P10 1.523928 1_455
O17 P11 1.523928 1_545
O18 P4 1.559402 1_555
O19 P5 1.559402 1_555
O20 P6 1.559402 1_555
O21 P7 1.559402 1_555
O22 P5 1.523830 1_555
O23 P7 1.523830 1_555
O24 P6 1.523830 1_555
O25 P4 1.523830 1_555
O26 P5 1.490925 1_555
O27 P7 1.490925 1_556
O28 P6 1.490925 1_555
O29 P4 1.490925 1_554
O30 P8 1.512431 1_555
O31 P9 1.512431 1_555
O32 P10 1.492351 1_555
O33 P11 1.492351 1_555
O34 P9 1.614492 1_555
O34 P4 1.636855 1_555
O35 P8 1.614492 1_555
O35 P7 1.636855 1_555
O36 P11 1.578123 1_555
O37 P10 1.578123 1_555
O38 P9 1.600993 1_555
O38 P10 1.620295 1_555
O39 P8 1.600993 1_555
O39 P11 1.620295 1_555
