# generated using pymatgen
data_Li7V2P7O24
_symmetry_space_group_name_H-M   'P 1'
_cell_length_a   5.20355300
_cell_length_b   11.73612800
_cell_length_c   15.18928997
_cell_angle_alpha   83.20519378
_cell_angle_beta   90.00000000
_cell_angle_gamma   90.00000000
_symmetry_Int_Tables_number   1
_chemical_formula_structural   Li7V2P7O24
_chemical_formula_sum   'Li14 V4 P14 O48'
_cell_volume   921.08805121
_cell_formula_units_Z   2
loop_
 _symmetry_equiv_pos_site_id
 _symmetry_equiv_pos_as_xyz
  1  'x, y, z'
loop_
 _atom_site_type_symbol
 _atom_site_label
 _atom_site_symmetry_multiplicity
 _atom_site_fract_x
 _atom_site_fract_y
 _atom_site_fract_z
 _atom_site_occupancy
  Li  Li0  1  0.26038200  0.48374000  0.04966300  1
  Li  Li1  1  0.20811900  0.11646800  0.13558400  1
  Li  Li2  1  0.73961800  0.98374000  0.04966300  1
  Li  Li3  1  0.79188100  0.61646800  0.13558400  1
  Li  Li4  1  0.84183900  0.43725300  0.40872900  1
  Li  Li5  1  0.15816100  0.93725300  0.40872900  1
  Li  Li6  1  0.28835700  0.25000000  0.50000000  1
  Li  Li7  1  0.71164300  0.75000000  0.50000000  1
  Li  Li8  1  0.84183900  0.06274700  0.59127100  1
  Li  Li9  1  0.15816100  0.56274700  0.59127100  1
  Li  Li10  1  0.20811900  0.38353200  0.86441600  1
  Li  Li11  1  0.26038200  0.01626000  0.95033700  1
  Li  Li12  1  0.79188100  0.88353200  0.86441600  1
  Li  Li13  1  0.73961800  0.51626000  0.95033700  1
  V  V0  1  0.36247400  0.31086700  0.27852000  1
  V  V1  1  0.63752600  0.81086700  0.27852000  1
  V  V2  1  0.36247400  0.18913300  0.72148000  1
  V  V3  1  0.63752600  0.68913300  0.72148000  1
  P  P0  1  0.56800600  0.25000000  0.00000000  1
  P  P1  1  0.43199400  0.75000000  0.00000000  1
  P  P2  1  0.87597300  0.34213300  0.14072300  1
  P  P3  1  0.12402700  0.84213300  0.14072300  1
  P  P4  1  0.61118000  0.04757900  0.27838200  1
  P  P5  1  0.38882000  0.54757900  0.27838200  1
  P  P6  1  0.84989900  0.19652000  0.39160900  1
  P  P7  1  0.15010100  0.69652000  0.39160900  1
  P  P8  1  0.84989900  0.30348000  0.60839100  1
  P  P9  1  0.15010100  0.80348000  0.60839100  1
  P  P10  1  0.61118000  0.45242100  0.72161800  1
  P  P11  1  0.38882000  0.95242100  0.72161800  1
  P  P12  1  0.87597300  0.15786700  0.85927700  1
  P  P13  1  0.12402700  0.65786700  0.85927700  1
  O  O0  1  0.42336800  0.13749400  0.01497300  1
  O  O1  1  0.57663200  0.63749400  0.01497300  1
  O  O2  1  0.76159400  0.24447100  0.08199100  1
  O  O3  1  0.89348800  0.45541900  0.08016900  1
  O  O4  1  0.23840600  0.74447100  0.08199100  1
  O  O5  1  0.10651200  0.95541900  0.08016900  1
  O  O6  1  0.13439400  0.28486300  0.16788600  1
  O  O7  1  0.71627400  0.98441100  0.20366900  1
  O  O8  1  0.69707500  0.34766100  0.21743500  1
  O  O9  1  0.86560600  0.78486300  0.16788600  1
  O  O10  1  0.28372600  0.48441100  0.20366900  1
  O  O11  1  0.40838700  0.13854000  0.24942400  1
  O  O12  1  0.30292500  0.84766100  0.21743500  1
  O  O13  1  0.59161300  0.63854000  0.24942400  1
  O  O14  1  0.85989700  0.11043600  0.31452500  1
  O  O15  1  0.14010300  0.61043600  0.31452500  1
  O  O16  1  0.03230100  0.29677900  0.35967300  1
  O  O17  1  0.47963900  0.45416700  0.35172100  1
  O  O18  1  0.56539000  0.23491200  0.39648800  1
  O  O19  1  0.96769900  0.79677900  0.35967300  1
  O  O20  1  0.52036100  0.95416700  0.35172100  1
  O  O21  1  0.43461000  0.73491200  0.39648800  1
  O  O22  1  0.95292500  0.12682900  0.47428600  1
  O  O23  1  0.04707500  0.62682900  0.47428600  1
  O  O24  1  0.95292500  0.37317100  0.52571400  1
  O  O25  1  0.04707500  0.87317100  0.52571400  1
  O  O26  1  0.56539000  0.26508800  0.60351200  1
  O  O27  1  0.47963900  0.04583300  0.64827900  1
  O  O28  1  0.03230100  0.20322100  0.64032700  1
  O  O29  1  0.43461000  0.76508800  0.60351200  1
  O  O30  1  0.52036100  0.54583300  0.64827900  1
  O  O31  1  0.96769900  0.70322100  0.64032700  1
  O  O32  1  0.85989700  0.38956400  0.68547500  1
  O  O33  1  0.14010300  0.88956400  0.68547500  1
  O  O34  1  0.40838700  0.36146000  0.75057600  1
  O  O35  1  0.69707500  0.15233900  0.78256500  1
  O  O36  1  0.59161300  0.86146000  0.75057600  1
  O  O37  1  0.71627400  0.51558900  0.79633100  1
  O  O38  1  0.13439400  0.21513700  0.83211400  1
  O  O39  1  0.30292500  0.65233900  0.78256500  1
  O  O40  1  0.28372600  0.01558900  0.79633100  1
  O  O41  1  0.86560600  0.71513700  0.83211400  1
  O  O42  1  0.89348800  0.04458100  0.91983100  1
  O  O43  1  0.76159400  0.25552900  0.91800900  1
  O  O44  1  0.10651200  0.54458100  0.91983100  1
  O  O45  1  0.23840600  0.75552900  0.91800900  1
  O  O46  1  0.42336800  0.36250600  0.98502700  1
  O  O47  1  0.57663200  0.86250600  0.98502700  1
loop_
_geom_bond_atom_site_label_1
_geom_bond_atom_site_label_2
_geom_bond_distance
_geom_bond_site_symmetry_2
Li0 O3 1.983331 1_455
Li0 O46 2.009507 1_554
Li0 O44 2.169499 1_554
Li0 O10 2.343337 1_555
Li0 O1 2.452930 1_555
Li1 O11 2.061318 1_555
Li1 O6 2.126767 1_555
Li1 O0 2.136507 1_555
Li1 O5 2.221920 1_545
Li2 O5 1.983331 1_655
Li2 O47 2.009507 1_554
Li2 O42 2.169499 1_564
Li2 O7 2.343337 1_555
Li2 O0 2.452930 1_565
Li3 O13 2.061318 1_555
Li3 O9 2.126767 1_555
Li3 O1 2.136507 1_555
Li3 O3 2.221920 1_555
Li4 O24 1.934158 1_555
Li4 O17 2.073820 1_555
Li4 O16 2.132154 1_655
Li5 O25 1.934158 1_555
Li5 O20 2.073820 1_555
Li5 O19 2.132154 1_455
Li6 O18 2.155774 1_555
Li6 O26 2.155774 1_555
Li6 O24 2.328588 1_455
Li6 O22 2.328588 1_455
Li6 O16 2.518522 1_555
Li6 O28 2.518522 1_555
Li7 O21 2.155774 1_555
Li7 O29 2.155774 1_555
Li7 O25 2.328588 1_655
Li7 O23 2.328588 1_655
Li7 O31 2.518522 1_555
Li7 O19 2.518522 1_555
Li8 O22 1.934158 1_555
Li8 O27 2.073820 1_555
Li8 O28 2.132154 1_655
Li9 O23 1.934158 1_555
Li9 O30 2.073820 1_555
Li9 O31 2.132154 1_455
Li10 O34 2.061318 1_555
Li10 O38 2.126767 1_555
Li10 O46 2.136507 1_555
Li10 O44 2.221920 1_555
Li11 O42 1.983331 1_455
Li11 O0 2.009507 1_556
Li11 O5 2.169499 1_546
Li11 O40 2.343337 1_555
Li11 O47 2.452930 1_545
Li12 O36 2.061318 1_555
Li12 O41 2.126767 1_555
Li12 O47 2.136507 1_555
Li12 O42 2.221920 1_565
Li13 O44 1.983331 1_655
Li13 O1 2.009507 1_556
Li13 O3 2.169499 1_556
Li13 O37 2.343337 1_555
Li13 O46 2.452930 1_555
O0 P0 1.513452 1_555
O1 P1 1.513452 1_555
O2 P0 1.597128 1_555
O2 P2 1.644913 1_555
O3 P2 1.527284 1_555
O4 P1 1.597128 1_555
O4 P3 1.644913 1_555
O5 P3 1.527284 1_555
O6 P2 1.537726 1_455
O6 V0 2.108784 1_555
O7 P4 1.528263 1_565
O7 V1 2.249639 1_555
O8 P2 1.498791 1_555
O8 V0 1.996001 1_555
O9 P3 1.537726 1_655
O9 V1 2.108784 1_555
O10 P5 1.528263 1_555
O10 V0 2.249639 1_555
O11 P4 1.528241 1_555
O11 V0 2.134059 1_555
O12 P3 1.498791 1_555
O12 V1 1.996001 1_555
O13 P5 1.528241 1_555
O13 V1 2.134059 1_555
O14 P4 1.617529 1_555
O14 P6 1.635298 1_555
O15 P5 1.617529 1_555
O15 P7 1.635298 1_555
O16 P6 1.544545 1_455
O16 V0 2.109580 1_555
O17 P5 1.541798 1_555
O17 V0 2.208811 1_555
O18 P6 1.551826 1_555
O18 V0 2.177678 1_555
O19 P7 1.544545 1_655
O19 V1 2.109580 1_555
O20 P4 1.541798 1_565
O20 V1 2.208811 1_555
O21 P7 1.551826 1_555
O21 V1 2.177678 1_555
O22 P6 1.513396 1_555
O23 P7 1.513396 1_555
O24 P8 1.513396 1_555
O25 P9 1.513396 1_555
O26 P8 1.551826 1_555
O26 V2 2.177678 1_555
O27 P11 1.541798 1_545
O27 V2 2.208811 1_555
O28 P8 1.544545 1_455
O28 V2 2.109580 1_555
O29 P9 1.551826 1_555
O29 V3 2.177678 1_555
O30 P10 1.541798 1_555
O30 V3 2.208811 1_555
O31 P9 1.544545 1_655
O31 V3 2.109580 1_555
O32 P10 1.617529 1_555
O32 P8 1.635298 1_555
O33 P11 1.617529 1_555
O33 P9 1.635298 1_555
O34 P10 1.528241 1_555
O34 V2 2.134059 1_555
O35 P12 1.498791 1_555
O35 V2 1.996001 1_555
O36 P11 1.528241 1_555
O36 V3 2.134059 1_555
O37 P10 1.528263 1_555
O37 V3 2.249639 1_555
O38 P12 1.537726 1_455
O38 V2 2.108784 1_555
O39 P13 1.498791 1_555
O39 V3 1.996001 1_555
O40 P11 1.528263 1_545
O40 V2 2.249639 1_555
O41 P13 1.537726 1_655
O41 V3 2.108784 1_555
O42 P12 1.527284 1_555
O43 P0 1.597128 1_556
O43 P12 1.644913 1_555
O44 P13 1.527284 1_555
O45 P1 1.597128 1_556
O45 P13 1.644913 1_555
O46 P0 1.513452 1_556
O47 P1 1.513452 1_556
