# generated using pymatgen
data_ZnTe2O5
_symmetry_space_group_name_H-M   'P 1'
_cell_length_a   8.81033500
_cell_length_b   8.81033500
_cell_length_c   12.93115500
_cell_angle_alpha   90.00000000
_cell_angle_beta   90.00000000
_cell_angle_gamma   90.00000000
_symmetry_Int_Tables_number   1
_chemical_formula_structural   ZnTe2O5
_chemical_formula_sum   'Zn8 Te16 O40'
_cell_volume   1003.74214978
_cell_formula_units_Z   8
loop_
 _symmetry_equiv_pos_site_id
 _symmetry_equiv_pos_as_xyz
  1  'x, y, z'
loop_
 _atom_site_type_symbol
 _atom_site_label
 _atom_site_symmetry_multiplicity
 _atom_site_fract_x
 _atom_site_fract_y
 _atom_site_fract_z
 _atom_site_occupancy
  Zn  Zn0  1  0.50000000  0.00000000  0.00000000  1
  Zn  Zn1  1  0.50000000  0.00000000  0.75000000  1
  Zn  Zn2  1  0.50000000  0.00000000  0.25000000  1
  Zn  Zn3  1  0.50000000  0.00000000  0.50000000  1
  Zn  Zn4  1  0.00000000  0.50000000  0.75000000  1
  Zn  Zn5  1  0.00000000  0.50000000  0.00000000  1
  Zn  Zn6  1  0.00000000  0.50000000  0.25000000  1
  Zn  Zn7  1  0.00000000  0.50000000  0.50000000  1
  Te  Te0  1  0.28666100  0.31866900  0.13388600  1
  Te  Te1  1  0.28666100  0.68133100  0.36611400  1
  Te  Te2  1  0.31866900  0.71333900  0.86611400  1
  Te  Te3  1  0.31866900  0.28666100  0.63388600  1
  Te  Te4  1  0.68133100  0.28666100  0.86611400  1
  Te  Te5  1  0.68133100  0.71333900  0.63388600  1
  Te  Te6  1  0.71333900  0.31866900  0.36611400  1
  Te  Te7  1  0.71333900  0.68133100  0.13388600  1
  Te  Te8  1  0.78666100  0.81866900  0.36611400  1
  Te  Te9  1  0.78666100  0.18133100  0.13388600  1
  Te  Te10  1  0.81866900  0.78666100  0.86611400  1
  Te  Te11  1  0.81866900  0.21333900  0.63388600  1
  Te  Te12  1  0.18133100  0.78666100  0.63388600  1
  Te  Te13  1  0.18133100  0.21333900  0.86611400  1
  Te  Te14  1  0.21333900  0.81866900  0.13388600  1
  Te  Te15  1  0.21333900  0.18133100  0.36611400  1
  O  O0  1  0.26916500  0.87516300  0.29808500  1
  O  O1  1  0.26916500  0.12483700  0.20191500  1
  O  O2  1  0.30131200  0.19868800  0.00000000  1
  O  O3  1  0.30131200  0.80131200  0.50000000  1
  O  O4  1  0.35868600  0.92605500  0.88317500  1
  O  O5  1  0.35868600  0.07394500  0.61682500  1
  O  O6  1  0.37516300  0.23083500  0.79808500  1
  O  O7  1  0.37516300  0.76916500  0.70191500  1
  O  O8  1  0.42605500  0.85868600  0.11682500  1
  O  O9  1  0.42605500  0.14131400  0.38317500  1
  O  O10  1  0.57394500  0.85868600  0.38317500  1
  O  O11  1  0.57394500  0.14131400  0.11682500  1
  O  O12  1  0.62483700  0.76916500  0.79808500  1
  O  O13  1  0.62483700  0.23083500  0.70191500  1
  O  O14  1  0.64131400  0.07394500  0.88317500  1
  O  O15  1  0.64131400  0.92605500  0.61682500  1
  O  O16  1  0.69868800  0.80131200  0.00000000  1
  O  O17  1  0.69868800  0.19868800  0.50000000  1
  O  O18  1  0.73083500  0.87516300  0.20191500  1
  O  O19  1  0.73083500  0.12483700  0.29808500  1
  O  O20  1  0.76916500  0.37516300  0.20191500  1
  O  O21  1  0.76916500  0.62483700  0.29808500  1
  O  O22  1  0.80131200  0.30131200  0.00000000  1
  O  O23  1  0.80131200  0.69868800  0.50000000  1
  O  O24  1  0.85868600  0.42605500  0.61682500  1
  O  O25  1  0.85868600  0.57394500  0.88317500  1
  O  O26  1  0.87516300  0.26916500  0.79808500  1
  O  O27  1  0.87516300  0.73083500  0.70191500  1
  O  O28  1  0.92605500  0.35868600  0.38317500  1
  O  O29  1  0.92605500  0.64131400  0.11682500  1
  O  O30  1  0.07394500  0.35868600  0.11682500  1
  O  O31  1  0.07394500  0.64131400  0.38317500  1
  O  O32  1  0.12483700  0.26916500  0.70191500  1
  O  O33  1  0.12483700  0.73083500  0.79808500  1
  O  O34  1  0.14131400  0.42605500  0.88317500  1
  O  O35  1  0.14131400  0.57394500  0.61682500  1
  O  O36  1  0.19868800  0.30131200  0.50000000  1
  O  O37  1  0.19868800  0.69868800  0.00000000  1
  O  O38  1  0.23083500  0.37516300  0.29808500  1
  O  O39  1  0.23083500  0.62483700  0.20191500  1
loop_
_geom_bond_atom_site_label_1
_geom_bond_atom_site_label_2
_geom_bond_distance
_geom_bond_site_symmetry_2
O0 Te1 1.927160 1_555
O0 Te14 2.235616 1_555
O0 Zn2 2.394240 1_565
O1 Te0 1.927160 1_555
O1 Te15 2.235616 1_555
O1 Zn2 2.394240 1_555
O2 Te13 2.032601 1_554
O2 Te0 2.032601 1_555
O2 Zn0 2.475592 1_555
O3 Te12 2.032601 1_555
O3 Te1 2.032601 1_555
O3 Zn3 2.475592 1_565
O4 Te2 1.919693 1_555
O4 Zn0 2.063170 1_566
O4 Zn1 2.222647 1_565
O5 Te3 1.919693 1_555
O5 Zn3 2.063170 1_555
O5 Zn1 2.222647 1_555
O6 Te13 1.927160 1_555
O6 Te3 2.235616 1_555
O6 Zn1 2.394240 1_555
O7 Te12 1.927160 1_555
O7 Te2 2.235616 1_555
O7 Zn1 2.394240 1_565
O8 Te14 1.919693 1_555
O8 Zn0 2.063170 1_565
O8 Zn2 2.222647 1_565
O9 Te15 1.919693 1_555
O9 Zn3 2.063170 1_555
O9 Zn2 2.222647 1_555
O10 Te8 1.919693 1_555
O10 Zn3 2.063170 1_565
O10 Zn2 2.222647 1_565
O11 Te9 1.919693 1_555
O11 Zn0 2.063170 1_555
O11 Zn2 2.222647 1_555
O12 Te10 1.927160 1_555
O12 Te5 2.235616 1_555
O12 Zn1 2.394240 1_565
O13 Te11 1.927160 1_555
O13 Te4 2.235616 1_555
O13 Zn1 2.394240 1_555
O14 Te4 1.919693 1_555
O14 Zn0 2.063170 1_556
O14 Zn1 2.222647 1_555
O15 Te5 1.919693 1_555
O15 Zn3 2.063170 1_565
O15 Zn1 2.222647 1_565
O16 Te10 2.032601 1_554
O16 Te7 2.032601 1_555
O16 Zn0 2.475592 1_565
O17 Te11 2.032601 1_555
O17 Te6 2.032601 1_555
O17 Zn3 2.475592 1_555
O18 Te7 1.927160 1_555
O18 Te8 2.235616 1_555
O18 Zn2 2.394240 1_565
O19 Te6 1.927160 1_555
O19 Te9 2.235616 1_555
O19 Zn2 2.394240 1_555
O20 Te9 1.927160 1_555
O20 Te6 2.235616 1_555
O20 Zn6 2.394240 1_655
O21 Te8 1.927160 1_555
O21 Te7 2.235616 1_555
O21 Zn6 2.394240 1_655
O22 Te4 2.032601 1_554
O22 Te9 2.032601 1_555
O22 Zn5 2.475592 1_655
O23 Te5 2.032601 1_555
O23 Te8 2.032601 1_555
O23 Zn7 2.475592 1_655
O24 Te11 1.919693 1_555
O24 Zn7 2.063170 1_655
O24 Zn4 2.222647 1_655
O25 Te10 1.919693 1_555
O25 Zn5 2.063170 1_656
O25 Zn4 2.222647 1_655
O26 Te4 1.927160 1_555
O26 Te11 2.235616 1_555
O26 Zn4 2.394240 1_655
O27 Te5 1.927160 1_555
O27 Te10 2.235616 1_555
O27 Zn4 2.394240 1_655
O28 Te6 1.919693 1_555
O28 Zn7 2.063170 1_655
O28 Zn6 2.222647 1_655
O29 Te7 1.919693 1_555
O29 Zn5 2.063170 1_655
O29 Zn6 2.222647 1_655
O30 Te0 1.919693 1_555
O30 Zn5 2.063170 1_555
O30 Zn6 2.222647 1_555
O31 Te1 1.919693 1_555
O31 Zn7 2.063170 1_555
O31 Zn6 2.222647 1_555
O32 Te3 1.927160 1_555
O32 Te13 2.235616 1_555
O32 Zn4 2.394240 1_555
O33 Te2 1.927160 1_555
O33 Te12 2.235616 1_555
O33 Zn4 2.394240 1_555
O34 Te13 1.919693 1_555
O34 Zn5 2.063170 1_556
O34 Zn4 2.222647 1_555
O35 Te12 1.919693 1_555
O35 Zn7 2.063170 1_555
O35 Zn4 2.222647 1_555
O36 Te3 2.032601 1_555
O36 Te15 2.032601 1_555
O36 Zn7 2.475592 1_555
O37 Te2 2.032601 1_554
O37 Te14 2.032601 1_555
O37 Zn5 2.475592 1_555
O38 Te15 1.927160 1_555
O38 Te0 2.235616 1_555
O38 Zn6 2.394240 1_555
O39 Te14 1.927160 1_555
O39 Te1 2.235616 1_555
O39 Zn6 2.394240 1_555
