# generated using pymatgen
data_ZnFeH4O2F5
_symmetry_space_group_name_H-M   'P 1'
_cell_length_a   7.44399883
_cell_length_b   7.44399883
_cell_length_c   7.44399883
_cell_angle_alpha   128.09812352
_cell_angle_beta   118.50722086
_cell_angle_gamma   84.59014137
_symmetry_Int_Tables_number   1
_chemical_formula_structural   ZnFeH4O2F5
_chemical_formula_sum   'Zn2 Fe2 H8 O4 F10'
_cell_volume   273.04272858
_cell_formula_units_Z   2
loop_
 _symmetry_equiv_pos_site_id
 _symmetry_equiv_pos_as_xyz
  1  'x, y, z'
loop_
 _atom_site_type_symbol
 _atom_site_label
 _atom_site_symmetry_multiplicity
 _atom_site_fract_x
 _atom_site_fract_y
 _atom_site_fract_z
 _atom_site_occupancy
  Zn  Zn0  1  0.25218700  0.49235200  0.24016500  1
  Zn  Zn1  1  0.74781300  0.98797800  0.24016500  1
  Fe  Fe0  1  0.75054200  0.99176600  0.74230800  1
  Fe  Fe1  1  0.24945800  0.99176600  0.24122400  1
  H  H0  1  0.26470500  0.77081900  0.71469600  1
  H  H1  1  0.94387700  0.44999100  0.71469600  1
  H  H2  1  0.43775600  0.19591000  0.96689400  1
  H  H3  1  0.77098400  0.52913800  0.96689400  1
  H  H4  1  0.56224400  0.52913800  0.75815400  1
  H  H5  1  0.22901600  0.19591000  0.75815400  1
  H  H6  1  0.05612300  0.77081900  0.50611400  1
  H  H7  1  0.73529500  0.44999100  0.50611400  1
  O  O0  1  0.80832100  0.34641300  0.53809200  1
  O  O1  1  0.31471800  0.26054900  0.94583200  1
  O  O2  1  0.68528200  0.63111400  0.94583200  1
  O  O3  1  0.19167900  0.72977100  0.53809200  1
  F  F0  1  0.00000000  0.90630100  0.90630100  1
  F  F1  1  0.66537600  0.06881400  0.98820400  1
  F  F2  1  0.91939000  0.32282800  0.98820400  1
  F  F3  1  0.58389100  0.65922600  0.49424500  1
  F  F4  1  0.83501800  0.91035400  0.49424500  1
  F  F5  1  0.50000000  0.07123100  0.57123100  1
  F  F6  1  0.16498200  0.65922600  0.07533500  1
  F  F7  1  0.41610900  0.91035400  0.07533500  1
  F  F8  1  0.08061000  0.06881400  0.40343800  1
  F  F9  1  0.33462400  0.32282800  0.40343800  1
loop_
_geom_bond_atom_site_label_1
_geom_bond_atom_site_label_2
_geom_bond_distance
_geom_bond_site_symmetry_2
H0 O3 0.985194 1_555
H1 O0 0.985194 1_555
H2 O1 0.983818 1_555
H3 O2 0.983822 1_555
H4 O2 0.983822 1_555
H5 O1 0.983824 1_555
H6 O3 0.985194 1_555
H7 O0 0.985194 1_555
O0 Zn1 2.052190 1_545
O1 Zn0 2.037480 1_556
O2 Zn1 2.037479 1_556
O3 Zn0 2.052190 1_555
F0 Fe1 1.978665 1_556
F0 Fe0 1.978665 1_455
F1 Fe0 1.955770 1_545
F1 Zn1 2.116838 1_546
F2 Fe0 1.955770 1_545
F2 Zn0 2.116838 1_656
F3 Fe0 1.956572 1_555
F3 Zn0 2.106781 1_555
F4 Fe0 1.956567 1_555
F4 Zn1 2.106782 1_555
F5 Fe0 1.975984 1_545
F5 Fe1 1.975984 1_545
F6 Fe1 1.956571 1_555
F6 Zn0 2.106781 1_555
F7 Fe1 1.956572 1_555
F7 Zn1 2.106781 1_555
F8 Fe1 1.955770 1_545
F8 Zn1 2.116838 1_445
F9 Fe1 1.955770 1_545
F9 Zn0 2.116838 1_555
