# generated using pymatgen
data_Li2CuNi(PO4)2
_symmetry_space_group_name_H-M   'P 1'
_cell_length_a   10.04400117
_cell_length_b   6.03663114
_cell_length_c   4.74276584
_cell_angle_alpha   89.97542331
_cell_angle_beta   91.54762336
_cell_angle_gamma   90.00285604
_symmetry_Int_Tables_number   1
_chemical_formula_structural   Li2CuNi(PO4)2
_chemical_formula_sum   'Li4 Cu2 Ni2 P4 O16'
_cell_volume   287.45812413
_cell_formula_units_Z   2
loop_
 _symmetry_equiv_pos_site_id
 _symmetry_equiv_pos_as_xyz
  1  'x, y, z'
loop_
 _atom_site_type_symbol
 _atom_site_label
 _atom_site_symmetry_multiplicity
 _atom_site_fract_x
 _atom_site_fract_y
 _atom_site_fract_z
 _atom_site_occupancy
  Li  Li0  1  0.00002900  0.00002800  0.00002800  1
  Li  Li1  1  0.00002600  0.49997800  0.00001200  1
  Li  Li2  1  0.49999300  0.00001400  0.50000000  1
  Li  Li3  1  0.49996700  0.50001100  0.50003900  1
  Cu  Cu0  1  0.28112700  0.24954700  0.95514200  1
  Cu  Cu1  1  0.71898300  0.75022400  0.04446700  1
  Ni  Ni0  1  0.22158800  0.74998600  0.48327400  1
  Ni  Ni1  1  0.77838600  0.25002400  0.51670900  1
  P  P0  1  0.09663100  0.24994000  0.41654900  1
  P  P1  1  0.40713200  0.75004600  0.92494100  1
  P  P2  1  0.59289200  0.25002800  0.07508100  1
  P  P3  1  0.90334500  0.75008600  0.58345700  1
  O  O0  1  0.04939400  0.74998700  0.70212200  1
  O  O1  1  0.10359000  0.24997000  0.74450400  1
  O  O2  1  0.16440000  0.04208900  0.28590000  1
  O  O3  1  0.16454100  0.45767700  0.28558600  1
  O  O4  1  0.33537700  0.54829600  0.77772800  1
  O  O5  1  0.33531600  0.95200900  0.77789200  1
  O  O6  1  0.40291600  0.75003500  0.24776900  1
  O  O7  1  0.44788200  0.24998200  0.18754600  1
  O  O8  1  0.55213600  0.75008700  0.81246400  1
  O  O9  1  0.59709100  0.25002300  0.75221000  1
  O  O10  1  0.66473200  0.04797600  0.22217600  1
  O  O11  1  0.66466400  0.45181500  0.22220900  1
  O  O12  1  0.83541000  0.54226000  0.71448200  1
  O  O13  1  0.83549300  0.95779200  0.71430000  1
  O  O14  1  0.89638400  0.75004800  0.25551300  1
  O  O15  1  0.95057200  0.25004200  0.29790100  1
loop_
_geom_bond_atom_site_label_1
_geom_bond_atom_site_label_2
_geom_bond_distance
_geom_bond_site_symmetry_2
Li0 O2 2.123131 1_555
Li0 O13 2.124096 1_444
Li0 O0 2.135456 1_544
Li0 O15 2.135467 1_455
Li0 O1 2.212124 1_554
Li0 O14 2.212586 1_445
Li1 O3 2.123413 1_555
Li1 O12 2.124042 1_454
Li1 O15 2.134286 1_455
Li1 O0 2.134384 1_554
Li1 O1 2.213147 1_554
Li1 O14 2.213764 1_455
Li2 O6 2.144142 1_545
Li2 O9 2.144308 1_555
Li2 O5 2.161986 1_545
Li2 O10 2.162235 1_555
Li2 O8 2.168619 1_545
Li2 O7 2.168687 1_555
Li3 O9 2.143579 1_555
Li3 O6 2.143666 1_555
Li3 O4 2.161098 1_555
Li3 O11 2.162287 1_555
Li3 O7 2.169859 1_555
Li3 O8 2.170026 1_555
Cu0 O7 1.980016 1_556
Cu0 O1 2.020280 1_555
Cu0 O5 2.062793 1_545
Cu0 O4 2.068977 1_555
Cu0 O2 2.345478 1_556
Cu0 O3 2.346680 1_556
Cu1 O8 1.979768 1_554
Cu1 O14 2.020004 1_555
Cu1 O10 2.064994 1_565
Cu1 O11 2.068023 1_555
Cu1 O13 2.342793 1_554
Cu1 O12 2.343834 1_554
Ni0 O0 2.040961 1_555
Ni0 O2 2.070059 1_565
Ni0 O3 2.072041 1_555
Ni0 O4 2.156697 1_555
Ni0 O5 2.158623 1_555
Ni0 O6 2.162043 1_555
Ni1 O15 2.040791 1_555
Ni1 O13 2.070964 1_545
Ni1 O12 2.071785 1_555
Ni1 O11 2.156834 1_555
Ni1 O10 2.158073 1_555
Ni1 O9 2.161749 1_555
O0 P3 1.556918 1_455
O1 P0 1.555097 1_555
O2 P0 1.563688 1_555
O3 P0 1.563895 1_555
O4 P1 1.569591 1_555
O5 P1 1.570118 1_555
O6 P1 1.532826 1_554
O7 P2 1.564548 1_555
O8 P1 1.564512 1_555
O9 P2 1.533020 1_556
O10 P2 1.570737 1_555
O11 P2 1.569666 1_555
O12 P3 1.564559 1_555
O13 P3 1.563734 1_555
O14 P3 1.555045 1_555
O15 P0 1.556985 1_655
