# generated using pymatgen
data_Li2Cu2(SO4)3
_symmetry_space_group_name_H-M   'P 1'
_cell_length_a   7.91179390
_cell_length_b   7.91179390
_cell_length_c   9.24374038
_cell_angle_alpha   64.97664732
_cell_angle_beta   64.97664732
_cell_angle_gamma   63.95343203
_symmetry_Int_Tables_number   1
_chemical_formula_structural   Li2Cu2(SO4)3
_chemical_formula_sum   'Li4 Cu4 S6 O24'
_cell_volume   450.61512921
_cell_formula_units_Z   2
loop_
 _symmetry_equiv_pos_site_id
 _symmetry_equiv_pos_as_xyz
  1  'x, y, z'
loop_
 _atom_site_type_symbol
 _atom_site_label
 _atom_site_symmetry_multiplicity
 _atom_site_fract_x
 _atom_site_fract_y
 _atom_site_fract_z
 _atom_site_occupancy
  Li  Li0  1  0.67455400  0.85960100  0.04957700  1
  Li  Li1  1  0.85960100  0.67455400  0.54957700  1
  Li  Li2  1  0.14039900  0.32544600  0.45042300  1
  Li  Li3  1  0.32544600  0.14039900  0.95042300  1
  Cu  Cu0  1  0.36327200  0.86918500  0.47666700  1
  Cu  Cu1  1  0.86918500  0.36327200  0.97666700  1
  Cu  Cu2  1  0.13081500  0.63672800  0.02333300  1
  Cu  Cu3  1  0.63672800  0.13081500  0.52333300  1
  S  S0  1  0.75207600  0.54288400  0.32658600  1
  S  S1  1  0.54288400  0.75207600  0.82658600  1
  S  S2  1  0.04830500  0.95169500  0.25000000  1
  S  S3  1  0.95169500  0.04830500  0.75000000  1
  S  S4  1  0.45711600  0.24792400  0.17341400  1
  S  S5  1  0.24792400  0.45711600  0.67341400  1
  O  O0  1  0.85370200  0.96125500  0.38614700  1
  O  O1  1  0.96125500  0.85370200  0.88614700  1
  O  O2  1  0.86865800  0.49525400  0.43544800  1
  O  O3  1  0.60510400  0.74622900  0.31560600  1
  O  O4  1  0.87466600  0.55961000  0.14650200  1
  O  O5  1  0.49525400  0.86865800  0.93544800  1
  O  O6  1  0.20435200  0.91519300  0.31466500  1
  O  O7  1  0.65356000  0.39751700  0.37892900  1
  O  O8  1  0.74622900  0.60510400  0.81560600  1
  O  O9  1  0.55961000  0.87466600  0.64650200  1
  O  O10  1  0.91519300  0.20435200  0.81466500  1
  O  O11  1  0.60248300  0.34644000  0.12107100  1
  O  O12  1  0.39751700  0.65356000  0.87892900  1
  O  O13  1  0.08480700  0.79564800  0.18533500  1
  O  O14  1  0.44039000  0.12533400  0.35349800  1
  O  O15  1  0.25377100  0.39489600  0.18439400  1
  O  O16  1  0.34644000  0.60248300  0.62107100  1
  O  O17  1  0.79564800  0.08480700  0.68533500  1
  O  O18  1  0.50474600  0.13134200  0.06455200  1
  O  O19  1  0.12533400  0.44039000  0.85349800  1
  O  O20  1  0.39489600  0.25377100  0.68439400  1
  O  O21  1  0.13134200  0.50474600  0.56455200  1
  O  O22  1  0.03874500  0.14629800  0.11385300  1
  O  O23  1  0.14629800  0.03874500  0.61385300  1
loop_
_geom_bond_atom_site_label_1
_geom_bond_atom_site_label_2
_geom_bond_distance
_geom_bond_site_symmetry_2
Li0 O18 2.001061 1_565
Li0 O5 2.059937 1_554
Li0 O1 2.120707 1_554
Li0 O3 2.139487 1_555
Li0 O4 2.245817 1_555
Li1 O21 2.001061 1_655
Li1 O2 2.059937 1_555
Li1 O0 2.120707 1_555
Li1 O8 2.139487 1_555
Li1 O9 2.245817 1_555
Li2 O2 2.001061 1_455
Li2 O21 2.059937 1_555
Li2 O23 2.120707 1_555
Li2 O15 2.139487 1_555
Li2 O14 2.245817 1_555
Li3 O5 2.001061 1_545
Li3 O18 2.059937 1_556
Li3 O22 2.120707 1_556
Li3 O20 2.139487 1_555
Li3 O19 2.245817 1_555
Cu0 O23 1.982376 1_565
Cu0 O16 1.991383 1_555
Cu0 O3 2.001132 1_555
Cu0 O14 2.078920 1_565
Cu0 O6 2.164652 1_555
Cu1 O22 1.982376 1_656
Cu1 O11 1.991383 1_556
Cu1 O8 2.001132 1_555
Cu1 O19 2.078920 1_655
Cu1 O10 2.164652 1_555
Cu2 O1 1.982376 1_454
Cu2 O12 1.991383 1_554
Cu2 O15 2.001132 1_555
Cu2 O4 2.078920 1_455
Cu2 O13 2.164652 1_555
Cu3 O0 1.982376 1_545
Cu3 O7 1.991383 1_555
Cu3 O20 2.001132 1_555
Cu3 O9 2.078920 1_545
Cu3 O17 2.164652 1_555
O0 S2 1.516293 1_655
O1 S3 1.516293 1_565
O2 S0 1.471246 1_555
O3 S0 1.506501 1_555
O4 S0 1.513201 1_555
O5 S1 1.471246 1_555
O6 S2 1.459495 1_555
O7 S0 1.470321 1_555
O8 S1 1.506501 1_555
O9 S1 1.513201 1_555
O10 S3 1.459495 1_555
O11 S4 1.470321 1_555
O12 S1 1.470321 1_555
O13 S2 1.459495 1_555
O14 S4 1.513201 1_555
O15 S4 1.506501 1_555
O16 S5 1.470321 1_555
O17 S3 1.459495 1_555
O18 S4 1.471246 1_555
O19 S5 1.513201 1_555
O20 S5 1.506501 1_555
O21 S5 1.471246 1_555
O22 S2 1.516293 1_545
O23 S3 1.516293 1_455
