# generated using pymatgen
data_LiFe2OF3
_symmetry_space_group_name_H-M   'P 1'
_cell_length_a   6.18579200
_cell_length_b   6.26786100
_cell_length_c   8.56716200
_cell_angle_alpha   90.00000000
_cell_angle_beta   90.00000000
_cell_angle_gamma   90.00000000
_symmetry_Int_Tables_number   1
_chemical_formula_structural   LiFe2OF3
_chemical_formula_sum   'Li4 Fe8 O4 F12'
_cell_volume   332.16330153
_cell_formula_units_Z   4
loop_
 _symmetry_equiv_pos_site_id
 _symmetry_equiv_pos_as_xyz
  1  'x, y, z'
loop_
 _atom_site_type_symbol
 _atom_site_label
 _atom_site_symmetry_multiplicity
 _atom_site_fract_x
 _atom_site_fract_y
 _atom_site_fract_z
 _atom_site_occupancy
  Li  Li0  1  0.25689700  0.50000000  0.00000000  1
  Li  Li1  1  0.50000000  0.23884300  0.75000000  1
  Li  Li2  1  0.50000000  0.76115700  0.25000000  1
  Li  Li3  1  0.74310300  0.50000000  0.50000000  1
  Fe  Fe0  1  0.00000000  0.24178600  0.75000000  1
  Fe  Fe1  1  0.00000000  0.75821400  0.25000000  1
  Fe  Fe2  1  0.26111400  0.22528600  0.35785200  1
  Fe  Fe3  1  0.26111400  0.77471400  0.64214800  1
  Fe  Fe4  1  0.25848500  0.00000000  0.00000000  1
  Fe  Fe5  1  0.74151500  0.00000000  0.50000000  1
  Fe  Fe6  1  0.73888600  0.22528600  0.14214800  1
  Fe  Fe7  1  0.73888600  0.77471400  0.85785200  1
  O  O0  1  0.24991800  0.02695300  0.76893800  1
  O  O1  1  0.24991800  0.97304700  0.23106200  1
  O  O2  1  0.75008200  0.97304700  0.26893800  1
  O  O3  1  0.75008200  0.02695300  0.73106200  1
  F  F0  1  0.01709500  0.27135100  0.00617700  1
  F  F1  1  0.01709500  0.72864900  0.99382300  1
  F  F2  1  0.24603600  0.51581700  0.24193000  1
  F  F3  1  0.24603600  0.48418300  0.75807000  1
  F  F4  1  0.49174200  0.27224900  0.99338300  1
  F  F5  1  0.49174200  0.72775100  0.00661700  1
  F  F6  1  0.50825800  0.27224900  0.50661700  1
  F  F7  1  0.50825800  0.72775100  0.49338300  1
  F  F8  1  0.75396400  0.51581700  0.25807000  1
  F  F9  1  0.75396400  0.48418300  0.74193000  1
  F  F10  1  0.98290500  0.27135100  0.49382300  1
  F  F11  1  0.98290500  0.72864900  0.50617700  1
loop_
_geom_bond_atom_site_label_1
_geom_bond_atom_site_label_2
_geom_bond_distance
_geom_bond_site_symmetry_2
Li1 O3 2.045296 1_555
Li1 O0 2.045296 1_555
Li2 O1 2.045296 1_555
Li2 O2 2.045296 1_555
Fe0 O3 2.056559 1_455
Fe0 O0 2.056559 1_555
Fe1 O2 2.056559 1_455
Fe1 O1 2.056559 1_555
Fe2 O1 1.919440 1_545
Fe3 O0 1.919440 1_565
Fe4 O1 1.987448 1_545
Fe4 O0 1.987448 1_554
Fe5 O3 1.987448 1_555
Fe5 O2 1.987448 1_545
Fe6 O2 1.919440 1_545
Fe7 O3 1.919440 1_565
F0 Li0 2.063265 1_555
F0 Fe6 2.098087 1_455
F0 Fe0 2.205056 1_554
F0 Fe4 2.263868 1_555
F1 Li0 2.063265 1_556
F1 Fe7 2.098087 1_455
F1 Fe1 2.205056 1_556
F1 Fe4 2.263868 1_566
F2 Li0 2.076110 1_555
F2 Fe2 2.076310 1_555
F2 Fe1 2.151592 1_555
F2 Li2 2.199413 1_555
F3 Li0 2.076110 1_556
F3 Fe3 2.076310 1_555
F3 Fe0 2.151592 1_555
F3 Li1 2.199413 1_555
F4 Fe6 2.012002 1_556
F4 Li0 2.037485 1_556
F4 Li1 2.096211 1_555
F4 Fe4 2.235393 1_556
F5 Fe7 2.012002 1_554
F5 Li0 2.037485 1_555
F5 Li2 2.096211 1_555
F5 Fe4 2.235393 1_565
F6 Fe2 2.012002 1_555
F6 Li3 2.037485 1_555
F6 Li1 2.096211 1_555
F6 Fe5 2.235393 1_555
F7 Fe3 2.012002 1_555
F7 Li3 2.037485 1_555
F7 Li2 2.096211 1_555
F7 Fe5 2.235393 1_565
F8 Li3 2.076110 1_555
F8 Fe6 2.076310 1_555
F8 Fe1 2.151592 1_655
F8 Li2 2.199413 1_555
F9 Li3 2.076110 1_555
F9 Fe7 2.076310 1_555
F9 Fe0 2.151592 1_655
F9 Li1 2.199413 1_555
F10 Li3 2.063265 1_555
F10 Fe2 2.098087 1_655
F10 Fe0 2.205056 1_655
F10 Fe5 2.263868 1_555
F11 Li3 2.063265 1_555
F11 Fe3 2.098087 1_655
F11 Fe1 2.205056 1_655
F11 Fe5 2.263868 1_565
