# generated using pymatgen
data_Y6TeO12
_symmetry_space_group_name_H-M   'P 1'
_cell_length_a   6.44578796
_cell_length_b   6.44578729
_cell_length_c   6.44578750
_cell_angle_alpha   98.68908557
_cell_angle_beta   98.68909663
_cell_angle_gamma   98.68909322
_symmetry_Int_Tables_number   1
_chemical_formula_structural   Y6TeO12
_chemical_formula_sum   'Y6 Te1 O12'
_cell_volume   257.52133442
_cell_formula_units_Z   1
loop_
 _symmetry_equiv_pos_site_id
 _symmetry_equiv_pos_as_xyz
  1  'x, y, z'
loop_
 _atom_site_type_symbol
 _atom_site_label
 _atom_site_symmetry_multiplicity
 _atom_site_fract_x
 _atom_site_fract_y
 _atom_site_fract_z
 _atom_site_occupancy
  Y  Y0  1  0.39114990  0.85596976  0.68589276  1
  Y  Y1  1  0.31410724  0.60885010  0.14403024  1
  Y  Y2  1  0.14403024  0.31410724  0.60885010  1
  Y  Y3  1  0.85596976  0.68589276  0.39114990  1
  Y  Y4  1  0.68589276  0.39114990  0.85596976  1
  Y  Y5  1  0.60885010  0.14403024  0.31410724  1
  Te  Te0  1  0.00000000  0.00000000  0.00000000  1
  O  O0  1  0.03319520  0.92920888  0.70437592  1
  O  O1  1  0.29562408  0.96680480  0.07079112  1
  O  O2  1  0.17697271  0.59326766  0.43260698  1
  O  O3  1  0.56739302  0.82302729  0.40673234  1
  O  O4  1  0.07079112  0.29562408  0.96680480  1
  O  O5  1  0.40673234  0.56739302  0.82302729  1
  O  O6  1  0.59326766  0.43260698  0.17697271  1
  O  O7  1  0.92920888  0.70437592  0.03319520  1
  O  O8  1  0.43260698  0.17697271  0.59326766  1
  O  O9  1  0.82302729  0.40673234  0.56739302  1
  O  O10  1  0.70437592  0.03319520  0.92920888  1
  O  O11  1  0.96680480  0.07079112  0.29562408  1
loop_
_geom_bond_atom_site_label_1
_geom_bond_atom_site_label_2
_geom_bond_distance
_geom_bond_site_symmetry_2
O0 Te0 1.942940 1_566
O0 Y3 2.376155 1_455
O0 Y0 2.440463 1_555
O0 Y2 2.665276 1_565
O1 Te0 1.942940 1_565
O1 Y5 2.376155 1_565
O1 Y1 2.440463 1_555
O1 Y0 2.665276 1_554
O2 Y1 2.185828 1_555
O2 Y3 2.227894 1_455
O2 Y2 2.269051 1_555
O2 Y0 2.283871 1_555
O3 Y3 2.185828 1_555
O3 Y5 2.227894 1_565
O3 Y0 2.269051 1_555
O3 Y1 2.283871 1_555
O4 Te0 1.942940 1_556
O4 Y1 2.376155 1_556
O4 Y2 2.440463 1_555
O4 Y4 2.665276 1_455
O5 Y0 2.185828 1_555
O5 Y1 2.227894 1_556
O5 Y4 2.269051 1_555
O5 Y2 2.283871 1_555
O6 Y5 2.185828 1_555
O6 Y4 2.227894 1_554
O6 Y1 2.269051 1_555
O6 Y3 2.283871 1_555
O7 Te0 1.942940 1_665
O7 Y4 2.376155 1_554
O7 Y3 2.440463 1_555
O7 Y1 2.665276 1_655
O8 Y2 2.185828 1_555
O8 Y0 2.227894 1_545
O8 Y5 2.269051 1_555
O8 Y4 2.283871 1_555
O9 Y4 2.185828 1_555
O9 Y2 2.227894 1_655
O9 Y3 2.269051 1_555
O9 Y5 2.283871 1_555
O10 Te0 1.942940 1_656
O10 Y0 2.376155 1_545
O10 Y4 2.440463 1_555
O10 Y5 2.665276 1_556
O11 Te0 1.942940 1_655
O11 Y2 2.376155 1_655
O11 Y5 2.440463 1_555
O11 Y3 2.665276 1_545
