# generated using pymatgen
data_LiMn2(SO4)3
_symmetry_space_group_name_H-M   'P 1'
_cell_length_a   8.83485040
_cell_length_b   8.83485040
_cell_length_c   8.83485147
_cell_angle_alpha   59.42299367
_cell_angle_beta   59.42299367
_cell_angle_gamma   59.42299338
_symmetry_Int_Tables_number   1
_chemical_formula_structural   LiMn2(SO4)3
_chemical_formula_sum   'Li2 Mn4 S6 O24'
_cell_volume   481.21940849
_cell_formula_units_Z   2
loop_
 _symmetry_equiv_pos_site_id
 _symmetry_equiv_pos_as_xyz
  1  'x, y, z'
loop_
 _atom_site_type_symbol
 _atom_site_label
 _atom_site_symmetry_multiplicity
 _atom_site_fract_x
 _atom_site_fract_y
 _atom_site_fract_z
 _atom_site_occupancy
  Li  Li0  1  0.00000000  0.00000000  0.00000000  1
  Li  Li1  1  0.50000000  0.50000000  0.50000000  1
  Mn  Mn0  1  0.35515900  0.35515900  0.35515900  1
  Mn  Mn1  1  0.14484100  0.14484100  0.14484100  1
  Mn  Mn2  1  0.64484100  0.64484100  0.64484100  1
  Mn  Mn3  1  0.85515900  0.85515900  0.85515900  1
  S  S0  1  0.75000000  0.04645800  0.45354200  1
  S  S1  1  0.95354200  0.54645800  0.25000000  1
  S  S2  1  0.54645800  0.25000000  0.95354200  1
  S  S3  1  0.45354200  0.75000000  0.04645800  1
  S  S4  1  0.04645800  0.45354200  0.75000000  1
  S  S5  1  0.25000000  0.95354200  0.54645800  1
  O  O0  1  0.90660300  0.05938300  0.27099900  1
  O  O1  1  0.72900100  0.09339700  0.94061700  1
  O  O2  1  0.89747700  0.49106800  0.69200000  1
  O  O3  1  0.00893200  0.60252300  0.80800000  1
  O  O4  1  0.59339700  0.22900100  0.44061700  1
  O  O5  1  0.77099900  0.55938300  0.40660300  1
  O  O6  1  0.94061700  0.72900100  0.09339700  1
  O  O7  1  0.19200000  0.99106800  0.39747700  1
  O  O8  1  0.50893200  0.30800000  0.10252300  1
  O  O9  1  0.30800000  0.10252300  0.50893200  1
  O  O10  1  0.39747700  0.19200000  0.99106800  1
  O  O11  1  0.55938300  0.40660300  0.77099900  1
  O  O12  1  0.44061700  0.59339700  0.22900100  1
  O  O13  1  0.69200000  0.89747700  0.49106800  1
  O  O14  1  0.60252300  0.80800000  0.00893200  1
  O  O15  1  0.80800000  0.00893200  0.60252300  1
  O  O16  1  0.49106800  0.69200000  0.89747700  1
  O  O17  1  0.05938300  0.27099900  0.90660300  1
  O  O18  1  0.22900100  0.44061700  0.59339700  1
  O  O19  1  0.40660300  0.77099900  0.55938300  1
  O  O20  1  0.10252300  0.50893200  0.30800000  1
  O  O21  1  0.99106800  0.39747700  0.19200000  1
  O  O22  1  0.27099900  0.90660300  0.05938300  1
  O  O23  1  0.09339700  0.94061700  0.72900100  1
loop_
_geom_bond_atom_site_label_1
_geom_bond_atom_site_label_2
_geom_bond_distance
_geom_bond_site_symmetry_2
Li0 O17 2.348626 1_554
Li0 O6 2.348626 1_445
Li0 O22 2.348626 1_545
Li0 O1 2.348626 1_454
Li0 O0 2.348626 1_455
Li0 O23 2.348626 1_544
Li1 O5 2.348626 1_555
Li1 O18 2.348626 1_555
Li1 O19 2.348626 1_555
Li1 O4 2.348626 1_555
Li1 O11 2.348626 1_555
Li1 O12 2.348626 1_555
Mn0 O9 2.070339 1_555
Mn0 O20 2.070339 1_555
Mn0 O8 2.070339 1_555
Mn0 O12 2.148570 1_555
Mn0 O4 2.148570 1_555
Mn0 O18 2.148570 1_555
Mn1 O10 2.070339 1_554
Mn1 O21 2.070339 1_455
Mn1 O7 2.070339 1_545
Mn1 O0 2.148570 1_455
Mn1 O22 2.148570 1_545
Mn1 O17 2.148570 1_554
Mn2 O13 2.070339 1_555
Mn2 O2 2.070339 1_555
Mn2 O16 2.070339 1_555
Mn2 O11 2.148570 1_555
Mn2 O19 2.148570 1_555
Mn2 O5 2.148570 1_555
Mn3 O14 2.070339 1_556
Mn3 O3 2.070339 1_655
Mn3 O15 2.070339 1_565
Mn3 O23 2.148570 1_655
Mn3 O1 2.148570 1_565
Mn3 O6 2.148570 1_556
O0 S0 1.493807 1_555
O1 S2 1.493807 1_555
O2 S4 1.474559 1_655
O3 S4 1.474559 1_555
O4 S0 1.493807 1_555
O5 S1 1.493807 1_555
O6 S1 1.493807 1_555
O7 S5 1.474559 1_555
O8 S2 1.474559 1_554
O9 S5 1.474559 1_545
O10 S2 1.474559 1_555
O11 S2 1.493807 1_555
O12 S3 1.493807 1_555
O13 S0 1.474559 1_565
O14 S3 1.474559 1_555
O15 S0 1.474559 1_555
O16 S3 1.474559 1_556
O17 S4 1.493807 1_555
O18 S4 1.493807 1_555
O19 S5 1.493807 1_555
O20 S1 1.474559 1_455
O21 S1 1.474559 1_555
O22 S3 1.493807 1_555
O23 S5 1.493807 1_555
