# generated using pymatgen
data_LiVP2O7
_symmetry_space_group_name_H-M   'P 1'
_cell_length_a   6.46063200
_cell_length_b   9.33179263
_cell_length_c   10.62864926
_cell_angle_alpha   114.76725658
_cell_angle_beta   85.89362404
_cell_angle_gamma   106.94610783
_symmetry_Int_Tables_number   1
_chemical_formula_structural   LiVP2O7
_chemical_formula_sum   'Li4 V4 P8 O28'
_cell_volume   555.64565520
_cell_formula_units_Z   4
loop_
 _symmetry_equiv_pos_site_id
 _symmetry_equiv_pos_as_xyz
  1  'x, y, z'
loop_
 _atom_site_type_symbol
 _atom_site_label
 _atom_site_symmetry_multiplicity
 _atom_site_fract_x
 _atom_site_fract_y
 _atom_site_fract_z
 _atom_site_occupancy
  Li  Li0  1  0.12033000  0.07954300  0.08594400  1
  Li  Li1  1  0.57090700  0.51021100  0.97378600  1
  Li  Li2  1  0.96264500  0.86206700  0.51579000  1
  Li  Li3  1  0.65139500  0.06611600  0.59866500  1
  V  V0  1  0.72078500  0.09631400  0.22726100  1
  V  V1  1  0.63220100  0.49522300  0.24897200  1
  V  V2  1  0.35299700  0.49514000  0.73957400  1
  V  V3  1  0.28365100  0.89541300  0.78070800  1
  P  P0  1  0.11803800  0.44372900  0.29462600  1
  P  P1  1  0.92560800  0.80565600  0.20440200  1
  P  P2  1  0.31050400  0.80053600  0.04445400  1
  P  P3  1  0.41395600  0.69753600  0.53488100  1
  P  P4  1  0.07704500  0.17400600  0.79594800  1
  P  P5  1  0.88006900  0.55050200  0.69922500  1
  P  P6  1  0.58262100  0.30335100  0.46294600  1
  P  P7  1  0.69844300  0.18943600  0.95707800  1
  O  O0  1  0.36092300  0.85995100  0.56776000  1
  O  O1  1  0.92811200  0.27164300  0.91031600  1
  O  O2  1  0.60787600  0.33393600  0.04077400  1
  O  O3  1  0.39011400  0.65591400  0.94409400  1
  O  O4  1  0.94760300  0.51698500  0.27588200  1
  O  O5  1  0.57134700  0.29480000  0.31228900  1
  O  O6  1  0.71247000  0.66186800  0.16813400  1
  O  O7  1  0.38737400  0.33664600  0.54395400  1
  O  O8  1  0.78921000  0.45868300  0.53793500  1
  O  O9  1  0.73644400  0.09711700  0.03828600  1
  O  O10  1  0.56372700  0.07090500  0.81937700  1
  O  O11  1  0.28251900  0.30788700  0.79950600  1
  O  O12  1  0.01827800  0.87479700  0.34926600  1
  O  O13  1  0.13231400  0.06637200  0.85993000  1
  O  O14  1  0.26643800  0.90657200  0.97698700  1
  O  O15  1  0.02355100  0.26271200  0.27036100  1
  O  O16  1  0.03775900  0.46559200  0.71837700  1
  O  O17  1  0.20970200  0.54371700  0.45613600  1
  O  O18  1  0.61553500  0.67602900  0.45351300  1
  O  O19  1  0.89940900  0.93723000  0.15931200  1
  O  O20  1  0.31838200  0.46459000  0.21066000  1
  O  O21  1  0.94532900  0.07185400  0.65827100  1
  O  O22  1  0.45334700  0.91276800  0.17809700  1
  O  O23  1  0.42293500  0.69720700  0.68231100  1
  O  O24  1  0.67860900  0.52556500  0.78271000  1
  O  O25  1  0.08365300  0.71629900  0.09112500  1
  O  O26  1  0.99057900  0.72669400  0.71734100  1
  O  O27  1  0.64149900  0.14655600  0.44146200  1
loop_
_geom_bond_atom_site_label_1
_geom_bond_atom_site_label_2
_geom_bond_distance
_geom_bond_site_symmetry_2
Li0 O14 2.000756 1_544
Li0 O19 2.003062 1_445
Li0 O15 2.189737 1_555
Li0 O13 2.350171 1_554
Li1 O6 2.042772 1_556
Li1 O2 2.122398 1_556
Li1 O24 2.147667 1_555
Li1 O3 2.156553 1_555
Li1 O11 2.445542 1_555
Li2 O12 1.826500 1_655
Li2 O21 1.938506 1_565
Li2 O18 2.336950 1_555
Li3 O21 2.023618 1_555
Li3 O27 2.110325 1_555
Li3 O0 2.187488 1_545
Li3 O10 2.358502 1_555
O0 P3 1.542214 1_555
O0 V3 2.188244 1_555
O1 P7 1.608570 1_555
O1 P4 1.627633 1_655
O2 P7 1.527204 1_554
O2 V1 2.075602 1_555
O3 P2 1.530890 1_556
O3 V2 2.041098 1_555
O4 P0 1.517828 1_655
O4 V1 2.017133 1_555
O5 P6 1.575445 1_555
O5 V1 2.166463 1_555
O5 V0 2.166699 1_555
O6 P1 1.552651 1_555
O6 V1 2.002762 1_555
O7 P6 1.509247 1_555
O7 V2 2.026972 1_555
O8 P6 1.604475 1_555
O8 P5 1.624116 1_555
O9 P7 1.524510 1_554
O9 V0 2.006895 1_555
O10 P7 1.545274 1_555
O10 V3 1.984979 1_545
O11 P4 1.524903 1_555
O11 V2 2.023310 1_555
O12 P1 1.489939 1_455
O13 P4 1.554016 1_555
O13 V3 1.968750 1_545
O14 P2 1.536995 1_556
O14 V3 2.041290 1_555
O15 P0 1.532648 1_555
O15 V0 2.051563 1_455
O16 P5 1.530556 1_455
O16 V2 1.990220 1_555
O17 P3 1.596761 1_555
O17 P0 1.627757 1_555
O18 P3 1.526403 1_555
O18 V1 2.140952 1_555
O19 P1 1.546500 1_555
O19 V0 2.009534 1_565
O20 P0 1.530666 1_555
O20 V1 2.010227 1_555
O21 P4 1.520150 1_655
O22 P2 1.531031 1_555
O22 V0 1.961212 1_565
O23 P3 1.573518 1_555
O23 V3 2.130566 1_555
O23 V2 2.134427 1_555
O24 P5 1.538379 1_555
O24 V2 2.096922 1_555
O25 P2 1.600928 1_555
O25 P1 1.632965 1_455
O26 P5 1.523250 1_555
O26 V3 2.018396 1_655
O27 P6 1.539416 1_555
O27 V0 2.178085 1_555
