# generated using pymatgen
data_Mn6O7F5
_symmetry_space_group_name_H-M   'P 1'
_cell_length_a   4.62123900
_cell_length_b   5.63289276
_cell_length_c   7.73685294
_cell_angle_alpha   86.19792729
_cell_angle_beta   89.50348758
_cell_angle_gamma   88.61747840
_symmetry_Int_Tables_number   1
_chemical_formula_structural   Mn6O7F5
_chemical_formula_sum   'Mn6 O7 F5'
_cell_volume   200.89078276
_cell_formula_units_Z   1
loop_
 _symmetry_equiv_pos_site_id
 _symmetry_equiv_pos_as_xyz
  1  'x, y, z'
loop_
 _atom_site_type_symbol
 _atom_site_label
 _atom_site_symmetry_multiplicity
 _atom_site_fract_x
 _atom_site_fract_y
 _atom_site_fract_z
 _atom_site_occupancy
  Mn  Mn0  1  0.49295100  0.49767200  0.99781600  1
  Mn  Mn1  1  0.51168700  0.82582800  0.64947400  1
  Mn  Mn2  1  0.50659000  0.17833800  0.35668300  1
  Mn  Mn3  1  0.99405000  0.33250700  0.67172200  1
  Mn  Mn4  1  0.97669400  0.65075500  0.31829700  1
  Mn  Mn5  1  0.00764500  0.00409800  0.00488200  1
  O  O0  1  0.79762300  0.36394600  0.44488600  1
  O  O1  1  0.81716600  0.71123900  0.09213100  1
  O  O2  1  0.68365600  0.53923000  0.76516200  1
  O  O3  1  0.70927400  0.87915500  0.42939500  1
  O  O4  1  0.31124500  0.12459600  0.56714800  1
  O  O5  1  0.31070200  0.46020100  0.23520700  1
  O  O6  1  0.18440700  0.29146500  0.90264800  1
  F  F0  1  0.79036600  0.03110400  0.78052700  1
  F  F1  1  0.70348500  0.19466500  0.12454900  1
  F  F2  1  0.29548200  0.80928200  0.87672300  1
  F  F3  1  0.18491600  0.63470400  0.54831700  1
  F  F4  1  0.22206200  0.97121700  0.23443300  1
loop_
_geom_bond_atom_site_label_1
_geom_bond_atom_site_label_2
_geom_bond_distance
_geom_bond_site_symmetry_2
Mn0 O2 1.999523 1_555
Mn0 O5 2.014337 1_556
Mn0 O6 2.033696 1_555
Mn0 O1 2.108754 1_556
Mn1 O3 1.934344 1_555
Mn1 O2 1.948768 1_555
Mn1 O4 1.972005 1_565
Mn2 O4 1.865581 1_555
Mn2 O0 1.883084 1_555
Mn2 O3 1.959883 1_545
Mn2 O5 1.992755 1_555
Mn3 O0 1.978382 1_555
Mn3 O2 1.987249 1_555
Mn3 O6 1.995501 1_655
Mn3 O4 2.048685 1_655
Mn4 O1 1.911174 1_555
Mn4 O5 1.985508 1_655
Mn4 O3 1.993188 1_555
Mn4 O0 2.023537 1_555
Mn5 O6 1.948310 1_554
Mn5 O1 1.965686 1_445
F0 Mn5 2.008029 1_656
F0 Mn1 2.067270 1_545
F0 Mn3 2.085881 1_555
F1 Mn2 2.003934 1_555
F1 Mn5 2.005396 1_655
F1 Mn0 2.129704 1_554
F2 Mn5 2.001936 1_566
F2 Mn1 2.012589 1_555
F2 Mn0 2.123884 1_555
F3 Mn4 2.026158 1_455
F3 Mn1 2.064602 1_555
F3 Mn3 2.104642 1_455
F4 Mn5 2.036746 1_565
F4 Mn2 2.055863 1_565
F4 Mn4 2.212671 1_455
