# generated using pymatgen
data_Na2Ti12O25
_symmetry_space_group_name_H-M   'P 1'
_cell_length_a   7.52213700
_cell_length_b   10.10485411
_cell_length_c   14.65693757
_cell_angle_alpha   104.68909433
_cell_angle_beta   90.00066846
_cell_angle_gamma   111.85142404
_symmetry_Int_Tables_number   1
_chemical_formula_structural   Na2Ti12O25
_chemical_formula_sum   'Na4 Ti24 O50'
_cell_volume   994.69171993
_cell_formula_units_Z   2
loop_
 _symmetry_equiv_pos_site_id
 _symmetry_equiv_pos_as_xyz
  1  'x, y, z'
loop_
 _atom_site_type_symbol
 _atom_site_label
 _atom_site_symmetry_multiplicity
 _atom_site_fract_x
 _atom_site_fract_y
 _atom_site_fract_z
 _atom_site_occupancy
  Na  Na0  1  0.89736500  0.29494900  0.04164900  1
  Na  Na1  1  0.51044300  0.02062400  0.49335400  1
  Na  Na2  1  0.10295100  0.70577100  0.95880100  1
  Na  Na3  1  0.60171000  0.70351300  0.95953300  1
  Ti  Ti0  1  0.49517900  0.99118600  0.12379900  1
  Ti  Ti1  1  0.99608900  0.99134700  0.12348700  1
  Ti  Ti2  1  0.84273400  0.68435100  0.17540900  1
  Ti  Ti3  1  0.34239300  0.68529000  0.17607800  1
  Ti  Ti4  1  0.73511500  0.96788600  0.29309300  1
  Ti  Ti5  1  0.23255400  0.96712600  0.29359500  1
  Ti  Ti6  1  0.69577900  0.39395600  0.23941400  1
  Ti  Ti7  1  0.19842000  0.39444100  0.23911300  1
  Ti  Ti8  1  0.08940800  0.67887900  0.35235300  1
  Ti  Ti9  1  0.59002800  0.67991700  0.35296900  1
  Ti  Ti10  1  0.43140100  0.36312500  0.40638800  1
  Ti  Ti11  1  0.93193700  0.36327900  0.40582000  1
  Ti  Ti12  1  0.56889500  0.63735200  0.59332000  1
  Ti  Ti13  1  0.06802800  0.63632500  0.59292500  1
  Ti  Ti14  1  0.41019700  0.32146900  0.64757100  1
  Ti  Ti15  1  0.91086600  0.32101100  0.64746600  1
  Ti  Ti16  1  0.80349900  0.60652400  0.75891600  1
  Ti  Ti17  1  0.30346900  0.60706600  0.75887700  1
  Ti  Ti18  1  0.26514000  0.03160200  0.70556900  1
  Ti  Ti19  1  0.76647300  0.03204900  0.70659200  1
  Ti  Ti20  1  0.65725800  0.31530300  0.82388500  1
  Ti  Ti21  1  0.15802100  0.31603200  0.82454100  1
  Ti  Ti22  1  0.50738000  0.01606100  0.87813000  1
  Ti  Ti23  1  0.00846000  0.01570200  0.87815300  1
  O  O0  1  0.37945000  0.76075500  0.07501300  1
  O  O1  1  0.88119500  0.76043400  0.07455200  1
  O  O2  1  0.24372200  0.98771000  0.15719900  1
  O  O3  1  0.74313600  0.98588400  0.15685700  1
  O  O4  1  0.99456500  0.99744100  0.99964100  1
  O  O5  1  0.50280400  0.99751200  0.99977400  1
  O  O6  1  0.75273700  0.48121000  0.13639400  1
  O  O7  1  0.22899000  0.48182500  0.13643300  1
  O  O8  1  0.10973900  0.71990700  0.21788000  1
  O  O9  1  0.60901400  0.71715600  0.21695500  1
  O  O10  1  0.96355000  0.92698100  0.25825400  1
  O  O11  1  0.46395900  0.92767700  0.25814000  1
  O  O12  1  0.60766300  0.20337400  0.17580700  1
  O  O13  1  0.09563500  0.20334500  0.17574300  1
  O  O14  1  0.96653600  0.43308900  0.27942000  1
  O  O15  1  0.46661100  0.43314500  0.27911800  1
  O  O16  1  0.82210400  0.64469200  0.31771000  1
  O  O17  1  0.32157900  0.64240500  0.31724100  1
  O  O18  1  0.20072200  0.87860900  0.39699700  1
  O  O19  1  0.67827400  0.87923200  0.39687900  1
  O  O20  1  0.18652600  0.37254400  0.37764700  1
  O  O21  1  0.68693500  0.37425800  0.37808500  1
  O  O22  1  0.33301700  0.15644100  0.36547800  1
  O  O23  1  0.82377400  0.15645300  0.36539800  1
  O  O24  1  0.55284000  0.60706300  0.46126800  1
  O  O25  1  0.05414800  0.60695100  0.46101200  1
  O  O26  1  0.44752100  0.39286900  0.53884800  1
  O  O27  1  0.94541500  0.39297800  0.53860500  1
  O  O28  1  0.66892100  0.84286100  0.63547200  1
  O  O29  1  0.17329200  0.84246400  0.63516900  1
  O  O30  1  0.81346500  0.62687700  0.62189700  1
  O  O31  1  0.31289700  0.62581000  0.62164700  1
  O  O32  1  0.32255000  0.12204600  0.60252600  1
  O  O33  1  0.79945700  0.12194900  0.60274700  1
  O  O34  1  0.67865100  0.35783500  0.68306100  1
  O  O35  1  0.17820300  0.35611000  0.68293800  1
  O  O36  1  0.03382200  0.56739100  0.72114900  1
  O  O37  1  0.53363800  0.56736500  0.72135000  1
  O  O38  1  0.89761500  0.79455400  0.82634600  1
  O  O39  1  0.39724400  0.79471100  0.82641200  1
  O  O40  1  0.53605100  0.07289800  0.74143900  1
  O  O41  1  0.03698200  0.07360000  0.74077300  1
  O  O42  1  0.39071000  0.28231500  0.78315900  1
  O  O43  1  0.89163600  0.28294800  0.78219100  1
  O  O44  1  0.76139700  0.52082900  0.86519800  1
  O  O45  1  0.25936300  0.52141000  0.86541000  1
  O  O46  1  0.25528600  0.01095600  0.84193300  1
  O  O47  1  0.75485600  0.00944400  0.84146500  1
  O  O48  1  0.62921900  0.23520900  0.92223000  1
  O  O49  1  0.10583500  0.23522100  0.92253500  1
loop_
_geom_bond_atom_site_label_1
_geom_bond_atom_site_label_2
_geom_bond_distance
_geom_bond_site_symmetry_2
Na0 O49 2.457951 1_654
Na0 O48 2.460509 1_554
Na0 O6 2.617856 1_555
Na0 O7 2.623258 1_655
Na0 O12 2.982181 1_555
Na0 O13 2.982313 1_655
Na1 O32 2.419700 1_555
Na1 O33 2.419873 1_555
Na1 O19 2.439818 1_545
Na1 O18 2.442345 1_545
Na2 O1 2.485273 1_456
Na2 O0 2.489086 1_556
Na2 O45 2.658367 1_555
Na2 O44 2.664774 1_455
Na2 O38 2.978968 1_455
Na2 O39 2.979423 1_555
Na3 O1 2.490106 1_556
Na3 O0 2.493589 1_556
Na3 O45 2.665674 1_555
Na3 O44 2.668058 1_555
O0 Ti3 1.807791 1_555
O0 Ti0 2.082689 1_555
O1 Ti2 1.808538 1_555
O1 Ti1 2.087087 1_555
O2 Ti1 1.943041 1_455
O2 Ti0 1.943687 1_555
O2 Ti5 2.060289 1_555
O3 Ti1 1.948907 1_555
O3 Ti0 1.950389 1_555
O3 Ti4 2.049376 1_555
O4 Ti1 1.831966 1_556
O4 Ti23 1.835195 1_665
O5 Ti0 1.835231 1_556
O5 Ti22 1.838431 1_565
O6 Ti2 1.835527 1_555
O6 Ti6 1.906541 1_555
O7 Ti3 1.838734 1_555
O7 Ti7 1.902715 1_555
O8 Ti2 1.974798 1_455
O8 Ti3 1.976733 1_555
O8 Ti8 2.108832 1_555
O8 Ti5 2.280710 1_555
O9 Ti2 1.975599 1_555
O9 Ti3 1.976440 1_555
O9 Ti9 2.115815 1_555
O9 Ti4 2.311121 1_555
O10 Ti4 1.950873 1_555
O10 Ti5 1.951854 1_655
O10 Ti1 2.217587 1_555
O10 Ti2 2.267798 1_555
O11 Ti4 1.966038 1_555
O11 Ti5 1.967317 1_555
O11 Ti0 2.207426 1_555
O11 Ti3 2.262866 1_555
O12 Ti6 1.776642 1_555
O12 Ti0 1.927402 1_545
O13 Ti7 1.779956 1_555
O13 Ti1 1.926184 1_445
O14 Ti6 1.982696 1_555
O14 Ti7 1.983452 1_655
O14 Ti11 2.126910 1_555
O14 Ti8 2.260593 1_655
O15 Ti6 1.964275 1_555
O15 Ti7 1.965424 1_555
O15 Ti10 2.140165 1_555
O15 Ti9 2.271427 1_555
O16 Ti9 1.952062 1_555
O16 Ti8 1.952951 1_655
O16 Ti2 2.216398 1_555
O16 Ti6 2.317862 1_555
O17 Ti9 1.955771 1_555
O17 Ti8 1.957972 1_555
O17 Ti3 2.212995 1_555
O17 Ti7 2.294484 1_555
O18 Ti8 1.809650 1_555
O18 Ti5 1.918946 1_555
O19 Ti9 1.805169 1_555
O19 Ti4 1.924924 1_555
O20 Ti10 1.931382 1_555
O20 Ti11 1.932063 1_455
O20 Ti7 2.095936 1_555
O21 Ti10 1.934468 1_555
O21 Ti11 1.936242 1_555
O21 Ti6 2.090547 1_555
O22 Ti5 1.800657 1_545
O22 Ti10 1.866395 1_555
O23 Ti4 1.796808 1_545
O23 Ti11 1.867378 1_555
O24 Ti12 1.877868 1_555
O24 Ti9 1.891871 1_555
O24 Ti10 2.208111 1_555
O25 Ti13 1.876986 1_555
O25 Ti8 1.891711 1_555
O25 Ti11 2.206151 1_455
O26 Ti10 1.884471 1_555
O26 Ti14 1.889724 1_555
O26 Ti12 2.212432 1_555
O27 Ti11 1.889248 1_555
O27 Ti15 1.894730 1_555
O27 Ti13 2.202270 1_655
O28 Ti19 1.795777 1_565
O28 Ti12 1.856464 1_555
O29 Ti18 1.792117 1_565
O29 Ti13 1.862088 1_555
O30 Ti12 1.933525 1_555
O30 Ti13 1.934065 1_655
O30 Ti16 2.068598 1_555
O31 Ti13 1.936389 1_555
O31 Ti12 1.936882 1_555
O31 Ti17 2.066332 1_555
O32 Ti14 1.807657 1_555
O32 Ti18 1.925868 1_555
O33 Ti15 1.804030 1_555
O33 Ti19 1.933101 1_555
O34 Ti14 1.958068 1_555
O34 Ti15 1.961427 1_555
O34 Ti20 2.206651 1_555
O34 Ti16 2.293321 1_555
O35 Ti14 1.949179 1_555
O35 Ti15 1.953339 1_455
O35 Ti21 2.207970 1_555
O35 Ti17 2.312398 1_555
O36 Ti17 1.965404 1_555
O36 Ti16 1.965556 1_455
O36 Ti13 2.148011 1_555
O36 Ti15 2.267672 1_455
O37 Ti17 1.966278 1_555
O37 Ti16 1.967717 1_555
O37 Ti12 2.150642 1_555
O37 Ti14 2.263921 1_555
O38 Ti16 1.770415 1_555
O38 Ti23 2.004485 1_665
O39 Ti17 1.767812 1_555
O39 Ti22 2.006128 1_565
O40 Ti18 1.964430 1_555
O40 Ti19 1.964978 1_555
O40 Ti22 2.209439 1_555
O40 Ti20 2.264462 1_555
O41 Ti18 1.955237 1_555
O41 Ti19 1.955769 1_455
O41 Ti23 2.224139 1_555
O41 Ti21 2.269781 1_555
O42 Ti21 1.971477 1_555
O42 Ti20 1.972064 1_555
O42 Ti14 2.117308 1_555
O42 Ti18 2.315429 1_555
O43 Ti21 1.976937 1_655
O43 Ti20 1.978982 1_555
O43 Ti15 2.100450 1_555
O43 Ti19 2.310916 1_555
O44 Ti20 1.855967 1_555
O44 Ti16 1.938236 1_555
O45 Ti21 1.854381 1_555
O45 Ti17 1.941394 1_555
O46 Ti23 1.945431 1_555
O46 Ti22 1.947642 1_555
O46 Ti18 2.060023 1_555
O47 Ti23 1.955810 1_655
O47 Ti22 1.957826 1_555
O47 Ti19 2.044944 1_555
O48 Ti20 1.800509 1_555
O48 Ti22 1.981127 1_555
O49 Ti21 1.800012 1_555
O49 Ti23 1.984648 1_555
