# generated using pymatgen
data_RbFeO2
_symmetry_space_group_name_H-M   'P 1'
_cell_length_a   5.23720155
_cell_length_b   10.02118100
_cell_length_c   6.62575667
_cell_angle_alpha   90.00109678
_cell_angle_beta   97.85428633
_cell_angle_gamma   89.99958521
_symmetry_Int_Tables_number   1
_chemical_formula_structural   RbFeO2
_chemical_formula_sum   'Rb4 Fe4 O8'
_cell_volume   344.47701258
_cell_formula_units_Z   4
loop_
 _symmetry_equiv_pos_site_id
 _symmetry_equiv_pos_as_xyz
  1  'x, y, z'
loop_
 _atom_site_type_symbol
 _atom_site_label
 _atom_site_symmetry_multiplicity
 _atom_site_fract_x
 _atom_site_fract_y
 _atom_site_fract_z
 _atom_site_occupancy
  Rb  Rb0  1  0.74999900  0.34726900  0.00000000  1
  Rb  Rb1  1  0.24999900  0.84725400  0.50000100  1
  Rb  Rb2  1  0.25000000  0.65272200  0.00000000  1
  Rb  Rb3  1  0.74999900  0.15272400  0.50000100  1
  Fe  Fe0  1  0.25002900  0.48512600  0.50000300  1
  Fe  Fe1  1  0.24999500  0.01484200  0.00000000  1
  Fe  Fe2  1  0.75000700  0.98514500  0.99999900  1
  Fe  Fe3  1  0.74997400  0.51491200  0.49999400  1
  O  O0  1  0.99151500  0.59438300  0.34498600  1
  O  O1  1  0.49150200  0.09437900  0.84501900  1
  O  O2  1  0.49151200  0.40562900  0.34504400  1
  O  O3  1  0.99150400  0.90561600  0.84501500  1
  O  O4  1  0.50849200  0.59438100  0.65500900  1
  O  O5  1  0.00849700  0.09437600  0.15497900  1
  O  O6  1  0.00847700  0.40562600  0.65496400  1
  O  O7  1  0.50849800  0.90561500  0.15498700  1
loop_
_geom_bond_atom_site_label_1
_geom_bond_atom_site_label_2
_geom_bond_distance
_geom_bond_site_symmetry_2
Fe0 O2 1.908693 1_555
Fe0 O6 1.909004 1_555
Fe0 O4 1.925055 1_555
Fe0 O0 1.925278 1_455
Fe1 O5 1.908989 1_555
Fe1 O1 1.909068 1_554
Fe1 O3 1.924922 1_444
Fe1 O7 1.924984 1_545
Fe2 O3 1.908985 1_555
Fe2 O7 1.909076 1_556
Fe2 O5 1.924932 1_666
Fe2 O1 1.925010 1_565
Fe3 O4 1.908805 1_555
Fe3 O0 1.909036 1_555
Fe3 O2 1.925049 1_555
Fe3 O6 1.925271 1_655
O0 Rb2 2.871415 1_655
O0 Rb1 2.988133 1_655
O1 Rb3 2.871646 1_555
O1 Rb0 2.988259 1_556
O2 Rb0 2.871773 1_555
O2 Rb3 2.988337 1_555
O3 Rb1 2.871630 1_655
O3 Rb2 2.988315 1_656
O4 Rb2 2.871447 1_556
O4 Rb1 2.988173 1_555
O5 Rb3 2.871656 1_455
O5 Rb0 2.988300 1_455
O6 Rb0 2.871715 1_456
O6 Rb3 2.988287 1_455
O7 Rb1 2.871662 1_555
O7 Rb2 2.988298 1_555
