# generated using pymatgen
data_Li2FeSiO4
_symmetry_space_group_name_H-M   'P 1'
_cell_length_a   5.03685400
_cell_length_b   6.34104800
_cell_length_c   10.98591249
_cell_angle_alpha   87.58882018
_cell_angle_beta   90.00000000
_cell_angle_gamma   90.00000000
_symmetry_Int_Tables_number   1
_chemical_formula_structural   Li2FeSiO4
_chemical_formula_sum   'Li8 Fe4 Si4 O16'
_cell_volume   350.56766906
_cell_formula_units_Z   4
loop_
 _symmetry_equiv_pos_site_id
 _symmetry_equiv_pos_as_xyz
  1  'x, y, z'
loop_
 _atom_site_type_symbol
 _atom_site_label
 _atom_site_symmetry_multiplicity
 _atom_site_fract_x
 _atom_site_fract_y
 _atom_site_fract_z
 _atom_site_occupancy
  Li  Li0  1  0.31125000  0.00537200  0.58490500  1
  Li  Li1  1  0.18875000  0.00537200  0.08490500  1
  Li  Li2  1  0.80824600  0.77756800  0.67423100  1
  Li  Li3  1  0.69175400  0.77756800  0.17423100  1
  Li  Li4  1  0.30824600  0.22243200  0.82576900  1
  Li  Li5  1  0.19175400  0.22243200  0.32576900  1
  Li  Li6  1  0.81125000  0.99462800  0.91509500  1
  Li  Li7  1  0.68875000  0.99462800  0.41509500  1
  Fe  Fe0  1  0.79186600  0.48093200  0.90639800  1
  Fe  Fe1  1  0.70813400  0.48093200  0.40639800  1
  Fe  Fe2  1  0.29186600  0.51906800  0.59360200  1
  Fe  Fe3  1  0.20813400  0.51906800  0.09360200  1
  Si  Si0  1  0.31312800  0.75559200  0.83889000  1
  Si  Si1  1  0.18687200  0.75559200  0.33889000  1
  Si  Si2  1  0.81312800  0.24440800  0.66111000  1
  Si  Si3  1  0.68687200  0.24440800  0.16111000  1
  O  O0  1  0.20085700  0.95667400  0.90970400  1
  O  O1  1  0.29914300  0.95667400  0.40970400  1
  O  O2  1  0.64147000  0.75337200  0.83862500  1
  O  O3  1  0.85853000  0.75337200  0.33862500  1
  O  O4  1  0.20554300  0.75814200  0.69590200  1
  O  O5  1  0.29445700  0.75814200  0.19590200  1
  O  O6  1  0.21514500  0.52305200  0.90604700  1
  O  O7  1  0.28485500  0.52305200  0.40604700  1
  O  O8  1  0.71514500  0.47694800  0.59395300  1
  O  O9  1  0.78485500  0.47694800  0.09395300  1
  O  O10  1  0.70554300  0.24185800  0.80409800  1
  O  O11  1  0.79445700  0.24185800  0.30409800  1
  O  O12  1  0.14147000  0.24662800  0.66137500  1
  O  O13  1  0.35853000  0.24662800  0.16137500  1
  O  O14  1  0.70085700  0.04332600  0.59029600  1
  O  O15  1  0.79914300  0.04332600  0.09029600  1
loop_
_geom_bond_atom_site_label_1
_geom_bond_atom_site_label_2
_geom_bond_distance
_geom_bond_site_symmetry_2
Li0 O1 1.963089 1_545
Li0 O12 1.971173 1_555
Li0 O14 1.978286 1_555
Li0 O4 2.016743 1_545
Li1 O0 1.963089 1_544
Li1 O13 1.971173 1_555
Li1 O15 1.978286 1_455
Li1 O5 2.016743 1_545
Li2 O14 1.962638 1_565
Li2 O2 1.991876 1_555
Li2 O4 2.018389 1_655
Li2 O8 2.184703 1_555
Li3 O15 1.962638 1_565
Li3 O3 1.991876 1_555
Li3 O5 2.018389 1_555
Li3 O9 2.184703 1_555
Li4 O0 1.962638 1_545
Li4 O12 1.991876 1_555
Li4 O10 2.018389 1_555
Li4 O6 2.184703 1_555
Li5 O1 1.962638 1_545
Li5 O13 1.991876 1_555
Li5 O11 2.018389 1_455
Li5 O7 2.184703 1_555
Li6 O15 1.963089 1_566
Li6 O2 1.971173 1_555
Li6 O0 1.978286 1_655
Li6 O10 2.016743 1_565
Li7 O14 1.963089 1_565
Li7 O3 1.971173 1_555
Li7 O1 1.978286 1_555
Li7 O11 2.016743 1_565
Fe0 O10 1.973235 1_555
Fe0 O2 2.001103 1_555
Fe0 O9 2.059857 1_556
Fe0 O6 2.148642 1_655
Fe1 O11 1.973235 1_555
Fe1 O3 2.001103 1_555
Fe1 O8 2.059857 1_555
Fe1 O7 2.148642 1_555
Fe2 O4 1.973235 1_555
Fe2 O12 2.001103 1_555
Fe2 O7 2.059857 1_555
Fe2 O8 2.148642 1_555
Fe3 O5 1.973235 1_555
Fe3 O13 2.001103 1_555
Fe3 O6 2.059857 1_554
Fe3 O9 2.148642 1_455
O0 Si0 1.623043 1_555
O1 Si1 1.623043 1_555
O2 Si0 1.653874 1_555
O3 Si1 1.653874 1_655
O4 Si0 1.661129 1_555
O5 Si1 1.661129 1_555
O6 Si0 1.694297 1_555
O7 Si1 1.694297 1_555
O8 Si2 1.694297 1_555
O9 Si3 1.694297 1_555
O10 Si2 1.661129 1_555
O11 Si3 1.661129 1_555
O12 Si2 1.653874 1_455
O13 Si3 1.653874 1_555
O14 Si2 1.623043 1_555
O15 Si3 1.623043 1_555
