# generated using pymatgen
data_Na3BiBAsO7
_symmetry_space_group_name_H-M   'P 1'
_cell_length_a   7.33368000
_cell_length_b   5.40328300
_cell_length_c   9.48213237
_cell_angle_alpha   88.95589499
_cell_angle_beta   90.00000000
_cell_angle_gamma   90.00000000
_symmetry_Int_Tables_number   1
_chemical_formula_structural   Na3BiBAsO7
_chemical_formula_sum   'Na6 Bi2 B2 As2 O14'
_cell_volume   375.67610279
_cell_formula_units_Z   2
loop_
 _symmetry_equiv_pos_site_id
 _symmetry_equiv_pos_as_xyz
  1  'x, y, z'
loop_
 _atom_site_type_symbol
 _atom_site_label
 _atom_site_symmetry_multiplicity
 _atom_site_fract_x
 _atom_site_fract_y
 _atom_site_fract_z
 _atom_site_occupancy
  Na  Na0  1  0.25000000  0.75804200  0.93384500  1
  Na  Na1  1  0.00997100  0.24525100  0.76437700  1
  Na  Na2  1  0.49002900  0.24525100  0.76437700  1
  Na  Na3  1  0.50997100  0.75474900  0.23562300  1
  Na  Na4  1  0.99002900  0.75474900  0.23562300  1
  Na  Na5  1  0.75000000  0.24195800  0.06615500  1
  Bi  Bi0  1  0.75000000  0.76824600  0.66185400  1
  Bi  Bi1  1  0.25000000  0.23175400  0.33814600  1
  B  B0  1  0.75000000  0.72972600  0.94667700  1
  B  B1  1  0.25000000  0.27027400  0.05332300  1
  As  As0  1  0.25000000  0.70331400  0.59723600  1
  As  As1  1  0.75000000  0.29668600  0.40276400  1
  O  O0  1  0.25000000  0.28751000  0.91169400  1
  O  O1  1  0.75000000  0.95992900  0.87095100  1
  O  O2  1  0.75000000  0.51930000  0.85947800  1
  O  O3  1  0.06712900  0.81558500  0.69313800  1
  O  O4  1  0.43287100  0.81558500  0.69313800  1
  O  O5  1  0.25000000  0.38703300  0.60048900  1
  O  O6  1  0.75000000  0.20747300  0.57989100  1
  O  O7  1  0.25000000  0.79252700  0.42010900  1
  O  O8  1  0.75000000  0.61296700  0.39951100  1
  O  O9  1  0.56712900  0.18441500  0.30686200  1
  O  O10  1  0.93287100  0.18441500  0.30686200  1
  O  O11  1  0.25000000  0.48070000  0.14052200  1
  O  O12  1  0.25000000  0.04007100  0.12904900  1
  O  O13  1  0.75000000  0.71249000  0.08830600  1
loop_
_geom_bond_atom_site_label_1
_geom_bond_atom_site_label_2
_geom_bond_distance
_geom_bond_site_symmetry_2
Na0 O12 2.418890 1_566
Na0 O11 2.445245 1_556
Na0 O0 2.554890 1_555
Na0 O3 2.660606 1_555
Na0 O4 2.660606 1_555
Na0 O0 2.864746 1_565
Na1 O0 2.261344 1_555
Na1 O5 2.461115 1_555
Na1 O3 2.465567 1_545
Na1 O2 2.586389 1_455
Na1 O6 2.598021 1_455
Na1 O1 2.641232 1_445
Na2 O0 2.261344 1_555
Na2 O5 2.461115 1_555
Na2 O4 2.465567 1_545
Na2 O2 2.586389 1_555
Na2 O6 2.598021 1_555
Na2 O1 2.641232 1_545
Na3 O13 2.261344 1_555
Na3 O8 2.461115 1_555
Na3 O9 2.465567 1_565
Na3 O11 2.586389 1_555
Na3 O7 2.598021 1_555
Na3 O12 2.641232 1_565
Na4 O13 2.261344 1_555
Na4 O8 2.461115 1_555
Na4 O10 2.465567 1_565
Na4 O11 2.586389 1_655
Na4 O7 2.598021 1_655
Na4 O12 2.641232 1_665
Na5 O1 2.418890 1_544
Na5 O2 2.445245 1_554
Na5 O13 2.554890 1_555
Na5 O10 2.660606 1_555
Na5 O9 2.660606 1_555
Na5 O13 2.864746 1_545
Bi0 O1 2.253573 1_555
Bi0 O2 2.286699 1_555
Bi0 O3 2.359062 1_655
Bi0 O4 2.359062 1_555
Bi0 O6 2.483786 1_565
Bi0 O8 2.639701 1_555
Bi1 O12 2.253573 1_555
Bi1 O11 2.286699 1_555
Bi1 O10 2.359062 1_455
Bi1 O9 2.359062 1_555
Bi1 O7 2.483786 1_545
Bi1 O5 2.639701 1_555
B0 O13 1.344476 1_556
B0 O2 1.417978 1_555
B0 O1 1.424853 1_555
B1 O0 1.344476 1_554
B1 O11 1.417978 1_555
B1 O12 1.424853 1_555
As0 O5 1.708672 1_555
As0 O3 1.735981 1_555
As0 O4 1.735981 1_555
As0 O7 1.738885 1_555
As1 O8 1.708672 1_555
As1 O9 1.735981 1_555
As1 O10 1.735981 1_555
As1 O6 1.738885 1_555
