# generated using pymatgen
data_LiNi4(PO4)3
_symmetry_space_group_name_H-M   'P 1'
_cell_length_a   7.68368700
_cell_length_b   10.21527700
_cell_length_c   12.99434700
_cell_angle_alpha   90.00000000
_cell_angle_beta   90.00000000
_cell_angle_gamma   90.00000000
_symmetry_Int_Tables_number   1
_chemical_formula_structural   LiNi4(PO4)3
_chemical_formula_sum   'Li4 Ni16 P12 O48'
_cell_volume   1019.93917455
_cell_formula_units_Z   4
loop_
 _symmetry_equiv_pos_site_id
 _symmetry_equiv_pos_as_xyz
  1  'x, y, z'
loop_
 _atom_site_type_symbol
 _atom_site_label
 _atom_site_symmetry_multiplicity
 _atom_site_fract_x
 _atom_site_fract_y
 _atom_site_fract_z
 _atom_site_occupancy
  Li  Li0  1  0.75000000  0.27452800  0.25000000  1
  Li  Li1  1  0.75000000  0.77452800  0.25000000  1
  Li  Li2  1  0.25000000  0.72547200  0.75000000  1
  Li  Li3  1  0.25000000  0.22547200  0.75000000  1
  Ni  Ni0  1  0.11222300  0.79778800  0.02927700  1
  Ni  Ni1  1  0.38777700  0.29778800  0.02927700  1
  Ni  Ni2  1  0.39998400  0.00668600  0.16051400  1
  Ni  Ni3  1  0.10001600  0.50668600  0.16051400  1
  Ni  Ni4  1  0.39998400  0.50668600  0.33948600  1
  Ni  Ni5  1  0.10001600  0.00668600  0.33948600  1
  Ni  Ni6  1  0.11222300  0.29778800  0.47072300  1
  Ni  Ni7  1  0.38777700  0.79778800  0.47072300  1
  Ni  Ni8  1  0.88777700  0.70221200  0.52927700  1
  Ni  Ni9  1  0.61222300  0.20221200  0.52927700  1
  Ni  Ni10  1  0.60001600  0.49331400  0.66051400  1
  Ni  Ni11  1  0.89998400  0.99331400  0.66051400  1
  Ni  Ni12  1  0.60001600  0.99331400  0.83948600  1
  Ni  Ni13  1  0.89998400  0.49331400  0.83948600  1
  Ni  Ni14  1  0.61222300  0.70221200  0.97072300  1
  Ni  Ni15  1  0.88777700  0.20221200  0.97072300  1
  P  P0  1  0.74590600  0.42879200  0.07073400  1
  P  P1  1  0.75409400  0.92879200  0.07073400  1
  P  P2  1  0.25000000  0.24886000  0.25000000  1
  P  P3  1  0.25000000  0.74886000  0.25000000  1
  P  P4  1  0.74590600  0.92879200  0.42926600  1
  P  P5  1  0.75409400  0.42879200  0.42926600  1
  P  P6  1  0.24590600  0.57120800  0.57073400  1
  P  P7  1  0.25409400  0.07120800  0.57073400  1
  P  P8  1  0.75000000  0.75114000  0.75000000  1
  P  P9  1  0.75000000  0.25114000  0.75000000  1
  P  P10  1  0.24590600  0.07120800  0.92926600  1
  P  P11  1  0.25409400  0.57120800  0.92926600  1
  O  O0  1  0.14681900  0.60120900  0.03128900  1
  O  O1  1  0.35318100  0.10120900  0.03128900  1
  O  O2  1  0.65004200  0.55812700  0.06268500  1
  O  O3  1  0.84995800  0.05812700  0.06268500  1
  O  O4  1  0.87423700  0.80818800  0.08727200  1
  O  O5  1  0.62576300  0.30818800  0.08727200  1
  O  O6  1  0.62599700  0.92347000  0.16284000  1
  O  O7  1  0.87400300  0.42347000  0.16284000  1
  O  O8  1  0.25203700  0.84365300  0.15430300  1
  O  O9  1  0.24796300  0.34365300  0.15430300  1
  O  O10  1  0.08444900  0.66371400  0.24838600  1
  O  O11  1  0.41555100  0.16371400  0.24838600  1
  O  O12  1  0.08444900  0.16371400  0.25161400  1
  O  O13  1  0.41555100  0.66371400  0.25161400  1
  O  O14  1  0.25203700  0.34365300  0.34569700  1
  O  O15  1  0.24796300  0.84365300  0.34569700  1
  O  O16  1  0.87400300  0.92347000  0.33716000  1
  O  O17  1  0.62599700  0.42347000  0.33716000  1
  O  O18  1  0.87423700  0.30818800  0.41272800  1
  O  O19  1  0.62576300  0.80818800  0.41272800  1
  O  O20  1  0.84995800  0.55812700  0.43731500  1
  O  O21  1  0.65004200  0.05812700  0.43731500  1
  O  O22  1  0.35318100  0.60120900  0.46871100  1
  O  O23  1  0.14681900  0.10120900  0.46871100  1
  O  O24  1  0.64681900  0.39879100  0.53128900  1
  O  O25  1  0.85318100  0.89879100  0.53128900  1
  O  O26  1  0.15004200  0.44187300  0.56268500  1
  O  O27  1  0.34995800  0.94187300  0.56268500  1
  O  O28  1  0.12576300  0.69181200  0.58727200  1
  O  O29  1  0.37423700  0.19181200  0.58727200  1
  O  O30  1  0.12599700  0.07653000  0.66284000  1
  O  O31  1  0.37400300  0.57653000  0.66284000  1
  O  O32  1  0.74796300  0.65634700  0.65430300  1
  O  O33  1  0.75203700  0.15634700  0.65430300  1
  O  O34  1  0.58444900  0.33628600  0.74838600  1
  O  O35  1  0.91555100  0.83628600  0.74838600  1
  O  O36  1  0.58444900  0.83628600  0.75161400  1
  O  O37  1  0.91555100  0.33628600  0.75161400  1
  O  O38  1  0.74796300  0.15634700  0.84569700  1
  O  O39  1  0.75203700  0.65634700  0.84569700  1
  O  O40  1  0.12599700  0.57653000  0.83716000  1
  O  O41  1  0.37400300  0.07653000  0.83716000  1
  O  O42  1  0.12576300  0.19181200  0.91272800  1
  O  O43  1  0.37423700  0.69181200  0.91272800  1
  O  O44  1  0.15004200  0.94187300  0.93731500  1
  O  O45  1  0.34995800  0.44187300  0.93731500  1
  O  O46  1  0.64681900  0.89879100  0.96871100  1
  O  O47  1  0.85318100  0.39879100  0.96871100  1
loop_
_geom_bond_atom_site_label_1
_geom_bond_atom_site_label_2
_geom_bond_distance
_geom_bond_site_symmetry_2
Li0 O7 2.122615 1_555
Li0 O17 2.122615 1_555
Li0 O18 2.345375 1_555
Li0 O5 2.345375 1_555
Li1 O6 2.122615 1_555
Li1 O16 2.122615 1_555
Li1 O4 2.345375 1_555
Li1 O19 2.345375 1_555
Li2 O31 2.122615 1_555
Li2 O40 2.122615 1_555
Li2 O43 2.345375 1_555
Li2 O28 2.345375 1_555
Li3 O30 2.122615 1_555
Li3 O41 2.122615 1_555
Li3 O29 2.345375 1_555
Li3 O42 2.345375 1_555
Ni0 O44 1.918028 1_554
Ni0 O4 1.980663 1_455
Ni0 O8 2.003256 1_555
Ni0 O0 2.025796 1_555
Ni1 O45 1.918028 1_554
Ni1 O5 1.980663 1_555
Ni1 O9 2.003256 1_555
Ni1 O1 2.025796 1_555
Ni2 O6 1.933744 1_545
Ni2 O1 1.970117 1_555
Ni2 O11 1.972610 1_555
Ni2 O8 2.018026 1_545
Ni3 O7 1.933744 1_455
Ni3 O0 1.970117 1_555
Ni3 O10 1.972610 1_555
Ni3 O9 2.018026 1_555
Ni4 O17 1.933744 1_555
Ni4 O22 1.970117 1_555
Ni4 O13 1.972610 1_555
Ni4 O14 2.018026 1_555
Ni5 O16 1.933744 1_445
Ni5 O23 1.970117 1_555
Ni5 O12 1.972610 1_555
Ni5 O15 2.018026 1_545
Ni6 O26 1.918028 1_555
Ni6 O18 1.980663 1_455
Ni6 O14 2.003256 1_555
Ni6 O23 2.025796 1_555
Ni7 O27 1.918028 1_555
Ni7 O19 1.980663 1_555
Ni7 O15 2.003256 1_555
Ni7 O22 2.025796 1_555
Ni8 O20 1.918028 1_555
Ni8 O28 1.980663 1_655
Ni8 O32 2.003256 1_555
Ni8 O25 2.025796 1_555
Ni9 O21 1.918028 1_555
Ni9 O29 1.980663 1_555
Ni9 O33 2.003256 1_555
Ni9 O24 2.025796 1_555
Ni10 O31 1.933744 1_555
Ni10 O24 1.970117 1_555
Ni10 O34 1.972610 1_555
Ni10 O32 2.018026 1_555
Ni11 O30 1.933744 1_665
Ni11 O25 1.970117 1_555
Ni11 O35 1.972610 1_555
Ni11 O33 2.018026 1_565
Ni12 O41 1.933744 1_565
Ni12 O46 1.970117 1_555
Ni12 O36 1.972610 1_555
Ni12 O38 2.018026 1_565
Ni13 O40 1.933744 1_655
Ni13 O47 1.970117 1_555
Ni13 O37 1.972610 1_555
Ni13 O39 2.018026 1_555
Ni14 O2 1.918028 1_556
Ni14 O43 1.980663 1_555
Ni14 O39 2.003256 1_555
Ni14 O46 2.025796 1_555
Ni15 O3 1.918028 1_556
Ni15 O42 1.980663 1_655
Ni15 O38 2.003256 1_555
Ni15 O47 2.025796 1_555
O0 P11 1.590874 1_554
O1 P10 1.590874 1_554
O2 P0 1.516263 1_555
O3 P1 1.516263 1_545
O4 P1 1.554414 1_555
O5 P0 1.554414 1_555
O6 P1 1.550544 1_555
O7 P0 1.550544 1_555
O8 P3 1.576155 1_555
O9 P2 1.576155 1_555
O10 P3 1.541125 1_555
O11 P2 1.541125 1_555
O12 P2 1.541125 1_555
O13 P3 1.541125 1_555
O14 P2 1.576155 1_555
O15 P3 1.576155 1_555
O16 P4 1.550544 1_555
O17 P5 1.550544 1_555
O18 P5 1.554414 1_555
O19 P4 1.554414 1_555
O20 P5 1.516263 1_555
O21 P4 1.516263 1_545
O22 P6 1.590874 1_555
O23 P7 1.590874 1_555
O24 P5 1.590874 1_555
O25 P4 1.590874 1_555
O26 P6 1.516263 1_555
O27 P7 1.516263 1_565
O28 P6 1.554414 1_555
O29 P7 1.554414 1_555
O30 P7 1.550544 1_555
O31 P6 1.550544 1_555
O32 P8 1.576155 1_555
O33 P9 1.576155 1_555
O34 P9 1.541125 1_555
O35 P8 1.541125 1_555
O36 P8 1.541125 1_555
O37 P9 1.541125 1_555
O38 P9 1.576155 1_555
O39 P8 1.576155 1_555
O40 P11 1.550544 1_555
O41 P10 1.550544 1_555
O42 P10 1.554414 1_555
O43 P11 1.554414 1_555
O44 P10 1.516263 1_565
O45 P11 1.516263 1_555
O46 P1 1.590874 1_556
O47 P0 1.590874 1_556
