# generated using pymatgen
data_LiCuCSO7
_symmetry_space_group_name_H-M   'P 1'
_cell_length_a   6.20733500
_cell_length_b   5.16277000
_cell_length_c   8.91677926
_cell_angle_alpha   86.59240336
_cell_angle_beta   90.00000000
_cell_angle_gamma   90.00000000
_symmetry_Int_Tables_number   1
_chemical_formula_structural   LiCuCSO7
_chemical_formula_sum   'Li2 Cu2 C2 S2 O14'
_cell_volume   285.25117767
_cell_formula_units_Z   2
loop_
 _symmetry_equiv_pos_site_id
 _symmetry_equiv_pos_as_xyz
  1  'x, y, z'
loop_
 _atom_site_type_symbol
 _atom_site_label
 _atom_site_symmetry_multiplicity
 _atom_site_fract_x
 _atom_site_fract_y
 _atom_site_fract_z
 _atom_site_occupancy
  Li  Li0  1  0.50162300  0.76775100  0.78795600  1
  Li  Li1  1  0.00162300  0.23224900  0.21204400  1
  Cu  Cu0  1  0.24587000  0.22631800  0.65013900  1
  Cu  Cu1  1  0.74587000  0.77368200  0.34986100  1
  C  C0  1  0.25643500  0.27372500  0.92863300  1
  C  C1  1  0.75643500  0.72627500  0.07136700  1
  S  S0  1  0.74865200  0.27846400  0.57404800  1
  S  S1  1  0.24865200  0.72153600  0.42595200  1
  O  O0  1  0.72868400  0.70220300  0.93369300  1
  O  O1  1  0.26212300  0.05029500  0.86799400  1
  O  O2  1  0.27599700  0.47327100  0.83163700  1
  O  O3  1  0.93407800  0.20828200  0.67393500  1
  O  O4  1  0.55993800  0.17193000  0.66282100  1
  O  O5  1  0.26243200  0.83586900  0.57341700  1
  O  O6  1  0.72631900  0.56699600  0.55173900  1
  O  O7  1  0.22631900  0.43300400  0.44826100  1
  O  O8  1  0.76243200  0.16413100  0.42658300  1
  O  O9  1  0.05993800  0.82807000  0.33717900  1
  O  O10  1  0.43407800  0.79171800  0.32606500  1
  O  O11  1  0.77599700  0.52672900  0.16836300  1
  O  O12  1  0.76212300  0.94970500  0.13200600  1
  O  O13  1  0.22868400  0.29779700  0.06630700  1
loop_
_geom_bond_atom_site_label_1
_geom_bond_atom_site_label_2
_geom_bond_distance
_geom_bond_site_symmetry_2
Li0 O0 1.933258 1_555
Li0 O2 2.086678 1_555
Li0 O1 2.229592 1_565
Li0 O4 2.335274 1_565
Li0 O5 2.430578 1_555
Li1 O13 1.933258 1_555
Li1 O11 2.086678 1_455
Li1 O12 2.229592 1_445
Li1 O9 2.335274 1_545
Li1 O8 2.430578 1_455
Cu0 O3 1.948617 1_455
Cu0 O4 1.971930 1_555
Cu0 O7 2.040929 1_555
Cu0 O1 2.097554 1_555
Cu0 O2 2.127189 1_555
Cu0 O5 2.169322 1_545
Cu1 O10 1.948617 1_555
Cu1 O9 1.971930 1_655
Cu1 O6 2.040929 1_555
Cu1 O12 2.097554 1_555
Cu1 O11 2.127189 1_555
Cu1 O8 2.169322 1_565
C0 O13 1.253107 1_556
C0 O1 1.303210 1_555
C0 O2 1.310799 1_555
C1 O0 1.253107 1_554
C1 O12 1.303210 1_555
C1 O11 1.310799 1_555
O3 S0 1.486950 1_555
O4 S0 1.499847 1_555
O5 S1 1.475468 1_555
O6 S0 1.497512 1_555
O7 S1 1.497512 1_555
O8 S0 1.475468 1_555
O9 S1 1.499847 1_555
O10 S1 1.486950 1_555
