# generated using pymatgen
data_Li4Mn3Nb3(TeO8)2
_symmetry_space_group_name_H-M   'P 1'
_cell_length_a   6.34246570
_cell_length_b   6.34246570
_cell_length_c   10.54711310
_cell_angle_alpha   89.59361169
_cell_angle_beta   89.59361169
_cell_angle_gamma   57.78398726
_symmetry_Int_Tables_number   1
_chemical_formula_structural   Li4Mn3Nb3(TeO8)2
_chemical_formula_sum   'Li4 Mn3 Nb3 Te2 O16'
_cell_volume   358.94562301
_cell_formula_units_Z   1
loop_
 _symmetry_equiv_pos_site_id
 _symmetry_equiv_pos_as_xyz
  1  'x, y, z'
loop_
 _atom_site_type_symbol
 _atom_site_label
 _atom_site_symmetry_multiplicity
 _atom_site_fract_x
 _atom_site_fract_y
 _atom_site_fract_z
 _atom_site_occupancy
  Li  Li0  1  0.67015600  0.67015600  0.09705500  1
  Li  Li1  1  0.99999500  0.99999500  0.00585300  1
  Li  Li2  1  0.99644500  0.99644500  0.51527000  1
  Li  Li3  1  0.33930300  0.33930300  0.59518900  1
  Mn  Mn0  1  0.33834200  0.82987900  0.78633200  1
  Mn  Mn1  1  0.82987900  0.33834200  0.78633200  1
  Mn  Mn2  1  0.16316700  0.16316700  0.29011100  1
  Nb  Nb0  1  0.81942300  0.81942300  0.76515100  1
  Nb  Nb1  1  0.16591700  0.64685600  0.27911100  1
  Nb  Nb2  1  0.64685600  0.16591700  0.27911100  1
  Te  Te0  1  0.64088000  0.64088000  0.50208800  1
  Te  Te1  1  0.32882700  0.32882700  0.98373900  1
  O  O0  1  0.32149300  0.81561600  0.41008000  1
  O  O1  1  0.52231900  0.52231900  0.63996500  1
  O  O2  1  0.68559700  0.68559700  0.89314500  1
  O  O3  1  0.98753500  0.98753500  0.69888600  1
  O  O4  1  0.99847700  0.99847700  0.18815000  1
  O  O5  1  0.81561600  0.32149300  0.41008000  1
  O  O6  1  0.52441100  0.98535300  0.66677000  1
  O  O7  1  0.98535300  0.52441100  0.66677000  1
  O  O8  1  0.16843200  0.16843200  0.90649200  1
  O  O9  1  0.86305700  0.86305700  0.39375900  1
  O  O10  1  0.01622500  0.51516700  0.18043700  1
  O  O11  1  0.51516700  0.01622500  0.18043700  1
  O  O12  1  0.34037200  0.34037200  0.40059500  1
  O  O13  1  0.16417700  0.65737100  0.89746500  1
  O  O14  1  0.49637600  0.49637600  0.17636600  1
  O  O15  1  0.65737100  0.16417700  0.89746500  1
loop_
_geom_bond_atom_site_label_1
_geom_bond_atom_site_label_2
_geom_bond_distance
_geom_bond_site_symmetry_2
Li0 O10 2.066889 1_655
Li0 O11 2.066889 1_565
Li0 O14 2.097266 1_555
Li0 O2 2.156103 1_554
Li1 O4 1.922644 1_555
Li1 O8 2.136796 1_664
Li1 O15 2.172351 1_564
Li1 O13 2.172351 1_654
Li2 O3 1.938344 1_555
Li2 O9 1.966679 1_555
Li2 O5 2.064229 1_565
Li2 O0 2.064229 1_655
Li3 O6 2.041168 1_545
Li3 O7 2.041168 1_455
Li3 O12 2.052343 1_555
Li3 O1 2.090452 1_555
Mn0 O3 2.108295 1_455
Mn0 O2 2.197498 1_555
Mn0 O8 2.220405 1_565
Mn0 O13 2.245733 1_555
Mn0 O1 2.267191 1_555
Mn0 O6 2.270977 1_555
Mn1 O3 2.108295 1_545
Mn1 O2 2.197498 1_555
Mn1 O8 2.220405 1_655
Mn1 O15 2.245733 1_555
Mn1 O1 2.267191 1_555
Mn1 O7 2.270977 1_555
Mn2 O4 2.129271 1_445
Mn2 O10 2.225105 1_555
Mn2 O11 2.225105 1_555
Mn2 O5 2.255399 1_455
Mn2 O0 2.255399 1_545
Mn2 O12 2.295272 1_555
Nb0 O7 1.896775 1_555
Nb0 O6 1.896775 1_555
Nb0 O3 1.988278 1_555
Nb0 O2 1.999733 1_555
Nb0 O15 2.326324 1_565
Nb0 O13 2.326324 1_655
Nb1 O10 1.885196 1_555
Nb1 O9 2.052902 1_455
Nb1 O14 2.080319 1_555
Nb1 O12 2.082340 1_555
Nb1 O4 2.116751 1_455
Nb1 O0 2.278997 1_555
Nb2 O11 1.885196 1_555
Nb2 O9 2.052902 1_545
Nb2 O14 2.080319 1_555
Nb2 O12 2.082340 1_555
Nb2 O4 2.116751 1_545
Nb2 O5 2.278997 1_555
O0 Te0 1.972908 1_555
O1 Te0 1.953844 1_555
O5 Te0 1.972908 1_555
O6 Te0 2.578911 1_555
O7 Te0 2.578911 1_555
O8 Te1 1.964825 1_555
O9 Te0 2.710789 1_555
O10 Te1 2.666407 1_554
O11 Te1 2.666407 1_554
O13 Te1 1.981684 1_555
O15 Te1 1.981684 1_555
