# generated using pymatgen
data_Fe6O7F5
_symmetry_space_group_name_H-M   'P 1'
_cell_length_a   4.66097100
_cell_length_b   5.58790965
_cell_length_c   7.81052547
_cell_angle_alpha   86.22689014
_cell_angle_beta   89.23263939
_cell_angle_gamma   89.36641143
_symmetry_Int_Tables_number   1
_chemical_formula_structural   Fe6O7F5
_chemical_formula_sum   'Fe6 O7 F5'
_cell_volume   202.95610295
_cell_formula_units_Z   1
loop_
 _symmetry_equiv_pos_site_id
 _symmetry_equiv_pos_as_xyz
  1  'x, y, z'
loop_
 _atom_site_type_symbol
 _atom_site_label
 _atom_site_symmetry_multiplicity
 _atom_site_fract_x
 _atom_site_fract_y
 _atom_site_fract_z
 _atom_site_occupancy
  Fe  Fe0  1  0.53868600  0.84036500  0.65445400  1
  Fe  Fe1  1  0.49817100  0.49847800  0.00115300  1
  Fe  Fe2  1  0.47696700  0.16827300  0.35138100  1
  Fe  Fe3  1  0.00944700  0.33206100  0.68852700  1
  Fe  Fe4  1  0.98283100  0.66053700  0.31377400  1
  Fe  Fe5  1  0.98481800  0.99923800  0.98690500  1
  O  O0  1  0.80053100  0.04412400  0.77099300  1
  O  O1  1  0.80136500  0.70352200  0.09257300  1
  O  O2  1  0.69010400  0.54214800  0.77037400  1
  O  O3  1  0.69805300  0.86902700  0.42408600  1
  O  O4  1  0.30184500  0.12714100  0.57148300  1
  O  O5  1  0.30823900  0.46062300  0.23362000  1
  O  O6  1  0.19804000  0.29603300  0.91108500  1
  F  F0  1  0.80919900  0.36665600  0.43963100  1
  F  F1  1  0.70650800  0.20098600  0.11656500  1
  F  F2  1  0.30042700  0.79969400  0.89204400  1
  F  F3  1  0.20311800  0.96002800  0.22057400  1
  F  F4  1  0.19165400  0.63106500  0.56078000  1
loop_
_geom_bond_atom_site_label_1
_geom_bond_atom_site_label_2
_geom_bond_distance
_geom_bond_site_symmetry_2
Fe0 O3 1.934885 1_555
Fe0 O0 1.952252 1_565
Fe0 O2 1.971621 1_555
Fe0 O4 2.012431 1_565
Fe1 O6 1.974238 1_554
Fe1 O1 1.997553 1_555
Fe1 O2 2.003152 1_554
Fe1 O5 2.008908 1_555
Fe2 O4 1.894461 1_555
Fe2 O5 1.981516 1_555
Fe2 O3 2.008248 1_545
Fe3 O6 1.955976 1_555
Fe3 O0 1.957878 1_455
Fe3 O2 2.009212 1_455
Fe3 O4 2.018460 1_555
Fe4 O1 1.933404 1_555
Fe4 O3 1.982104 1_555
Fe4 O5 1.992340 1_655
Fe5 O0 1.903413 1_565
Fe5 O1 1.993915 1_556
Fe5 O6 1.995070 1_665
F0 Fe4 2.028213 1_555
F0 Fe2 2.066162 1_555
F0 Fe3 2.163985 1_655
F1 Fe5 2.015427 1_544
F1 Fe1 2.075928 1_555
F1 Fe2 2.109360 1_555
F2 Fe5 1.999872 1_455
F2 Fe1 2.051033 1_556
F2 Fe0 2.150212 1_555
F3 Fe4 2.059724 1_455
F3 Fe2 2.061881 1_565
F3 Fe5 2.099138 1_454
F4 Fe3 2.073082 1_555
F4 Fe4 2.168271 1_455
F4 Fe0 2.169246 1_555
