# generated using pymatgen
data_Li2V(CO3)2
_symmetry_space_group_name_H-M   'P 1'
_cell_length_a   4.90407900
_cell_length_b   13.04071020
_cell_length_c   8.42258578
_cell_angle_alpha   100.73298235
_cell_angle_beta   89.99971249
_cell_angle_gamma   90.00009645
_symmetry_Int_Tables_number   1
_chemical_formula_structural   Li2V(CO3)2
_chemical_formula_sum   'Li8 V4 C8 O24'
_cell_volume   529.22365363
_cell_formula_units_Z   4
loop_
 _symmetry_equiv_pos_site_id
 _symmetry_equiv_pos_as_xyz
  1  'x, y, z'
loop_
 _atom_site_type_symbol
 _atom_site_label
 _atom_site_symmetry_multiplicity
 _atom_site_fract_x
 _atom_site_fract_y
 _atom_site_fract_z
 _atom_site_occupancy
  Li  Li0  1  0.53218200  0.04028700  0.94041000  1
  Li  Li1  1  0.53211400  0.54052400  0.94012400  1
  Li  Li2  1  0.03217000  0.45971500  0.05958600  1
  Li  Li3  1  0.03212700  0.95948300  0.05988500  1
  Li  Li4  1  0.96437600  0.27465500  0.65601300  1
  Li  Li5  1  0.96445800  0.77435800  0.65522300  1
  Li  Li6  1  0.46439500  0.22534400  0.34398800  1
  Li  Li7  1  0.46447600  0.72565000  0.34479500  1
  V  V0  1  0.50518200  0.60441300  0.59539600  1
  V  V1  1  0.00518000  0.89558700  0.40460500  1
  V  V2  1  0.50531400  0.10464900  0.59627700  1
  V  V3  1  0.00531200  0.39534500  0.40371600  1
  C  C0  1  0.02599500  0.10309400  0.82791300  1
  C  C1  1  0.02595900  0.60298900  0.82716200  1
  C  C2  1  0.52598900  0.39690500  0.17208300  1
  C  C3  1  0.52596600  0.89701300  0.17284000  1
  C  C4  1  0.46781600  0.36979200  0.60379400  1
  C  C5  1  0.46784000  0.86983700  0.60416300  1
  C  C6  1  0.96782800  0.13020400  0.39620400  1
  C  C7  1  0.96784500  0.63016400  0.39584000  1
  O  O0  1  0.91400700  0.05391700  0.92992400  1
  O  O1  1  0.91405900  0.55397600  0.92935300  1
  O  O2  1  0.41399500  0.44608200  0.07007300  1
  O  O3  1  0.41407000  0.94602400  0.07064600  1
  O  O4  1  0.29039300  0.10949600  0.81946800  1
  O  O5  1  0.29034700  0.60943000  0.81867200  1
  O  O6  1  0.79038700  0.39050500  0.18052800  1
  O  O7  1  0.79035900  0.89057400  0.18132900  1
  O  O8  1  0.87800000  0.14903000  0.73385800  1
  O  O9  1  0.87790600  0.64877600  0.73294500  1
  O  O10  1  0.37799700  0.35096700  0.26614000  1
  O  O11  1  0.37791700  0.85122800  0.26705900  1
  O  O12  1  0.56642800  0.27711800  0.60034400  1
  O  O13  1  0.56626200  0.77702000  0.59970600  1
  O  O14  1  0.06644000  0.22287800  0.39965000  1
  O  O15  1  0.06627000  0.72298100  0.40029100  1
  O  O16  1  0.13242700  0.05758300  0.42717000  1
  O  O17  1  0.13250700  0.55743500  0.42622800  1
  O  O18  1  0.63241600  0.44241300  0.57283200  1
  O  O19  1  0.63250500  0.94256500  0.57377500  1
  O  O20  1  0.21249500  0.38951400  0.63343500  1
  O  O21  1  0.21266900  0.88955300  0.63423300  1
  O  O22  1  0.71250600  0.11048100  0.36656300  1
  O  O23  1  0.71267100  0.61044800  0.36577400  1
loop_
_geom_bond_atom_site_label_1
_geom_bond_atom_site_label_2
_geom_bond_distance
_geom_bond_site_symmetry_2
Li0 O0 1.884541 1_555
Li0 O3 1.884687 1_546
Li0 O4 1.897540 1_555
Li1 O2 1.884775 1_556
Li1 O1 1.885043 1_555
Li1 O5 1.897892 1_555
Li2 O2 1.884547 1_555
Li2 O1 1.884652 1_454
Li2 O6 1.897521 1_455
Li3 O0 1.884772 1_464
Li3 O3 1.885039 1_555
Li3 O7 1.897867 1_455
Li4 O8 1.921773 1_555
Li4 O20 1.966309 1_655
Li4 O12 2.008760 1_555
Li4 O14 2.196750 1_655
Li5 O9 1.920932 1_555
Li5 O21 1.966859 1_655
Li5 O13 2.009795 1_555
Li5 O15 2.184664 1_655
Li6 O10 1.921788 1_555
Li6 O22 1.966323 1_555
Li6 O14 2.008777 1_555
Li6 O12 2.196661 1_555
Li7 O11 1.920954 1_555
Li7 O23 1.966864 1_555
Li7 O15 2.009802 1_555
Li7 O13 2.184465 1_555
C0 O0 1.286985 1_455
C0 O8 1.299970 1_455
C0 O4 1.302108 1_555
C1 O1 1.286624 1_455
C1 O9 1.299963 1_455
C1 O5 1.302123 1_555
C2 O2 1.286996 1_555
C2 O10 1.299983 1_555
C2 O6 1.302107 1_555
C3 O3 1.286624 1_555
C3 O11 1.299943 1_555
C3 O7 1.302145 1_555
C4 O20 1.293192 1_555
C4 O12 1.296994 1_555
C4 O18 1.307074 1_555
C5 O21 1.293036 1_555
C5 O13 1.297121 1_555
C5 O19 1.306726 1_555
C6 O22 1.293201 1_555
C6 O14 1.296997 1_655
C6 O16 1.307086 1_655
C7 O23 1.293047 1_555
C7 O15 1.297133 1_655
C7 O17 1.306730 1_655
O4 V2 2.145794 1_555
O5 V0 2.145915 1_555
O6 V3 2.145803 1_655
O7 V1 2.145897 1_655
O8 V2 2.183665 1_555
O9 V0 2.183652 1_555
O10 V3 2.183626 1_555
O11 V1 2.183677 1_555
O12 V2 2.262926 1_555
O13 V0 2.264340 1_555
O14 V3 2.262911 1_555
O15 V1 2.264329 1_555
O16 V1 2.176884 1_545
O16 V2 2.328913 1_555
O17 V3 2.178022 1_555
O17 V0 2.328214 1_555
O18 V0 2.176918 1_555
O18 V3 2.328985 1_655
O19 V2 2.177951 1_565
O19 V1 2.328214 1_655
O20 V3 2.199205 1_555
O21 V1 2.199746 1_555
O22 V2 2.199181 1_555
O23 V0 2.199695 1_555
