# generated using pymatgen
data_Sc2V2O7
_symmetry_space_group_name_H-M   'P 1'
_cell_length_a   5.52456762
_cell_length_b   5.52456762
_cell_length_c   5.19295838
_cell_angle_alpha   84.28516513
_cell_angle_beta   84.28516513
_cell_angle_gamma   110.26780452
_symmetry_Int_Tables_number   1
_chemical_formula_structural   Sc2V2O7
_chemical_formula_sum   'Sc2 V2 O7'
_cell_volume   146.40715906
_cell_formula_units_Z   1
loop_
 _symmetry_equiv_pos_site_id
 _symmetry_equiv_pos_as_xyz
  1  'x, y, z'
loop_
 _atom_site_type_symbol
 _atom_site_label
 _atom_site_symmetry_multiplicity
 _atom_site_fract_x
 _atom_site_fract_y
 _atom_site_fract_z
 _atom_site_occupancy
  Sc  Sc0  1  0.68602600  0.31397400  0.50000000  1
  Sc  Sc1  1  0.31397400  0.68602600  0.50000000  1
  V  V0  1  0.74638800  0.74638800  0.89247100  1
  V  V1  1  0.25361200  0.25361200  0.10752900  1
  O  O0  1  0.94538800  0.60461400  0.69757000  1
  O  O1  1  0.60461400  0.94538800  0.69757000  1
  O  O2  1  0.56927600  0.56927600  0.22984700  1
  O  O3  1  0.43072400  0.43072400  0.77015300  1
  O  O4  1  0.00000000  0.00000000  0.00000000  1
  O  O5  1  0.39538600  0.05461200  0.30243000  1
  O  O6  1  0.05461200  0.39538600  0.30243000  1
loop_
_geom_bond_atom_site_label_1
_geom_bond_atom_site_label_2
_geom_bond_distance
_geom_bond_site_symmetry_2
O0 V0 1.838299 1_555
O0 Sc1 2.063700 1_655
O0 Sc0 2.170428 1_555
O1 V0 1.838299 1_555
O1 Sc0 2.063700 1_565
O1 Sc1 2.170428 1_555
O2 V0 1.907386 1_554
O2 Sc1 2.188575 1_555
O2 Sc0 2.188575 1_555
O2 V1 2.195473 1_555
O3 V1 1.907386 1_556
O3 Sc0 2.188575 1_555
O3 Sc1 2.188575 1_555
O3 V0 2.195473 1_555
O4 V1 1.785923 1_555
O4 V0 1.785923 1_444
O5 V1 1.838299 1_555
O5 Sc1 2.063700 1_545
O5 Sc0 2.170428 1_555
O6 V1 1.838299 1_555
O6 Sc0 2.063700 1_455
O6 Sc1 2.170428 1_555
