# generated using pymatgen
data_Li2FeNi3O8
_symmetry_space_group_name_H-M   'P 1'
_cell_length_a   8.10247500
_cell_length_b   8.14140320
_cell_length_c   8.30533051
_cell_angle_alpha   89.88060489
_cell_angle_beta   89.75891818
_cell_angle_gamma   89.96892908
_symmetry_Int_Tables_number   1
_chemical_formula_structural   Li2FeNi3O8
_chemical_formula_sum   'Li8 Fe4 Ni12 O32'
_cell_volume   547.85929450
_cell_formula_units_Z   4
loop_
 _symmetry_equiv_pos_site_id
 _symmetry_equiv_pos_as_xyz
  1  'x, y, z'
loop_
 _atom_site_type_symbol
 _atom_site_label
 _atom_site_symmetry_multiplicity
 _atom_site_fract_x
 _atom_site_fract_y
 _atom_site_fract_z
 _atom_site_occupancy
  Li  Li0  1  0.99976100  0.99447800  0.00111100  1
  Li  Li1  1  0.25066800  0.25470100  0.74716000  1
  Li  Li2  1  0.74957100  0.25222800  0.24421300  1
  Li  Li3  1  0.99909400  0.49611900  0.50366800  1
  Li  Li4  1  0.50036300  0.49949800  0.00289000  1
  Li  Li5  1  0.24963600  0.75182500  0.24861200  1
  Li  Li6  1  0.75159000  0.74904400  0.74755400  1
  Li  Li7  1  0.49977300  0.00055800  0.50515700  1
  Fe  Fe0  1  0.87524100  0.12756100  0.62797900  1
  Fe  Fe1  1  0.12262900  0.37855100  0.12467000  1
  Fe  Fe2  1  0.62703200  0.62712600  0.37855200  1
  Fe  Fe3  1  0.37643100  0.87413100  0.87292700  1
  Ni  Ni0  1  0.12872400  0.11817400  0.37325600  1
  Ni  Ni1  1  0.37696300  0.12250900  0.12869400  1
  Ni  Ni2  1  0.62460200  0.13081900  0.88049800  1
  Ni  Ni3  1  0.37674600  0.37139200  0.37595200  1
  Ni  Ni4  1  0.62018600  0.37776400  0.63298800  1
  Ni  Ni5  1  0.87206600  0.37654700  0.87613800  1
  Ni  Ni6  1  0.37184500  0.62423600  0.62081100  1
  Ni  Ni7  1  0.12035300  0.62033000  0.86604800  1
  Ni  Ni8  1  0.87388800  0.62913600  0.12199100  1
  Ni  Ni9  1  0.12736600  0.87133600  0.61696900  1
  Ni  Ni10  1  0.87808600  0.87397100  0.37763700  1
  Ni  Ni11  1  0.62704700  0.87848300  0.12420000  1
  O  O0  1  0.12605700  0.10377100  0.60231500  1
  O  O1  1  0.89424300  0.10747700  0.38094600  1
  O  O2  1  0.60995500  0.11116500  0.10907200  1
  O  O3  1  0.14523600  0.12549600  0.14537800  1
  O  O4  1  0.39261500  0.12755400  0.89952800  1
  O  O5  1  0.35868400  0.11979900  0.35489400  1
  O  O6  1  0.62507800  0.14591300  0.65213800  1
  O  O7  1  0.85646800  0.14254300  0.87349000  1
  O  O8  1  0.13753300  0.34796200  0.36969900  1
  O  O9  1  0.37172300  0.35317600  0.14723000  1
  O  O10  1  0.64179400  0.36052900  0.87471000  1
  O  O11  1  0.61419400  0.39123100  0.38433100  1
  O  O12  1  0.86288400  0.37007200  0.64986900  1
  O  O13  1  0.38117800  0.39387000  0.60415800  1
  O  O14  1  0.10375500  0.38168100  0.88132900  1
  O  O15  1  0.87668300  0.39209600  0.10220900  1
  O  O16  1  0.39181100  0.62668400  0.39482000  1
  O  O17  1  0.60277000  0.60697200  0.62551300  1
  O  O18  1  0.89084500  0.60598200  0.87603300  1
  O  O19  1  0.35347800  0.62477800  0.84953300  1
  O  O20  1  0.10688600  0.61912800  0.11651400  1
  O  O21  1  0.14232300  0.64341100  0.61985600  1
  O  O22  1  0.86187500  0.64321600  0.37358800  1
  O  O23  1  0.63931600  0.64804800  0.13169600  1
  O  O24  1  0.35794100  0.85562400  0.62866800  1
  O  O25  1  0.12724900  0.86283100  0.84275300  1
  O  O26  1  0.86479500  0.86433600  0.15085100  1
  O  O27  1  0.89574100  0.87879200  0.60450200  1
  O  O28  1  0.64874800  0.86502700  0.37742400  1
  O  O29  1  0.11099900  0.88707800  0.38865500  1
  O  O30  1  0.38760900  0.89194000  0.11344700  1
  O  O31  1  0.62001300  0.90130300  0.87504000  1
loop_
_geom_bond_atom_site_label_1
_geom_bond_atom_site_label_2
_geom_bond_distance
_geom_bond_site_symmetry_2
Li0 O26 1.962002 1_555
Li0 O7 1.981940 1_564
Li0 O25 1.984639 1_654
Li0 O3 1.995335 1_665
Li1 O14 1.928651 1_555
Li1 O13 1.948762 1_555
Li1 O0 1.998553 1_555
Li1 O4 2.000307 1_555
Li2 O15 1.932315 1_555
Li2 O11 1.957428 1_555
Li2 O2 1.968720 1_555
Li2 O1 2.014101 1_555
Li3 O12 1.931387 1_555
Li3 O21 1.931765 1_655
Li3 O22 1.959786 1_555
Li3 O8 1.986144 1_655
Li4 O10 1.928711 1_554
Li4 O23 1.972728 1_555
Li4 O9 1.981790 1_555
Li4 O19 2.021141 1_554
Li5 O20 1.930172 1_555
Li5 O30 1.948516 1_555
Li5 O29 1.954520 1_555
Li5 O16 1.960846 1_555
Li6 O18 1.942116 1_555
Li6 O31 1.946485 1_555
Li6 O17 1.958546 1_555
Li6 O27 1.968758 1_555
Li7 O24 1.936938 1_545
Li7 O28 1.947465 1_545
Li7 O5 1.952559 1_555
Li7 O6 1.984727 1_555
Fe0 O12 1.985543 1_555
Fe0 O6 2.041431 1_555
Fe0 O27 2.041708 1_545
Fe0 O7 2.047961 1_555
Fe0 O0 2.051586 1_655
Fe0 O1 2.063635 1_555
Fe1 O20 1.963761 1_555
Fe1 O15 2.005219 1_455
Fe1 O14 2.027553 1_554
Fe1 O9 2.038087 1_555
Fe1 O8 2.053763 1_555
Fe1 O3 2.075097 1_555
Fe2 O22 1.907651 1_555
Fe2 O16 1.910093 1_555
Fe2 O11 1.923876 1_555
Fe2 O28 1.944918 1_555
Fe2 O23 2.058925 1_555
Fe2 O17 2.065863 1_555
Fe3 O31 1.986250 1_555
Fe3 O30 2.005584 1_556
Fe3 O25 2.037682 1_555
Fe3 O24 2.040694 1_555
Fe3 O19 2.048398 1_555
Fe3 O4 2.079739 1_565
Ni0 O5 1.868888 1_555
Ni0 O8 1.872363 1_555
Ni0 O29 1.891020 1_545
Ni0 O3 1.897578 1_555
Ni0 O1 1.902716 1_455
Ni0 O0 1.905810 1_555
Ni1 O3 1.882235 1_555
Ni1 O30 1.883590 1_545
Ni1 O5 1.883958 1_555
Ni1 O9 1.885013 1_555
Ni1 O2 1.896367 1_555
Ni1 O4 1.907346 1_554
Ni2 O31 1.869620 1_545
Ni2 O10 1.875919 1_555
Ni2 O7 1.881813 1_555
Ni2 O4 1.885836 1_555
Ni2 O6 1.900314 1_555
Ni2 O2 1.907984 1_556
Ni3 O13 1.905011 1_555
Ni3 O9 1.906307 1_555
Ni3 O11 1.932329 1_555
Ni3 O8 1.948605 1_555
Ni3 O5 2.061469 1_555
Ni3 O16 2.088335 1_555
Ni4 O17 1.872247 1_555
Ni4 O6 1.894358 1_555
Ni4 O13 1.956597 1_555
Ni4 O12 1.972985 1_555
Ni4 O10 2.020515 1_555
Ni4 O11 2.068631 1_555
Ni5 O10 1.870485 1_555
Ni5 O18 1.874190 1_555
Ni5 O14 1.878420 1_655
Ni5 O12 1.881873 1_555
Ni5 O15 1.882650 1_556
Ni5 O7 1.909555 1_555
Ni6 O21 1.866201 1_555
Ni6 O17 1.876824 1_555
Ni6 O13 1.882338 1_555
Ni6 O16 1.883275 1_555
Ni6 O24 1.888375 1_555
Ni6 O19 1.904822 1_555
Ni7 O18 1.864797 1_455
Ni7 O19 1.893648 1_555
Ni7 O14 1.951490 1_555
Ni7 O25 1.984148 1_555
Ni7 O21 2.059901 1_555
Ni7 O20 2.082607 1_556
Ni8 O20 1.889934 1_655
Ni8 O23 1.908136 1_555
Ni8 O26 1.931624 1_555
Ni8 O15 1.937272 1_555
Ni8 O18 2.055847 1_554
Ni8 O22 2.094827 1_555
Ni9 O21 1.859628 1_555
Ni9 O24 1.875446 1_555
Ni9 O25 1.876341 1_555
Ni9 O27 1.880965 1_455
Ni9 O0 1.896030 1_565
Ni9 O29 1.905455 1_555
Ni10 O28 1.859679 1_555
Ni10 O22 1.883707 1_555
Ni10 O26 1.888856 1_555
Ni10 O27 1.890702 1_555
Ni10 O29 1.892852 1_655
Ni10 O1 1.905903 1_565
Ni11 O23 1.879558 1_555
Ni11 O2 1.903267 1_565
Ni11 O26 1.943274 1_555
Ni11 O30 1.945488 1_555
Ni11 O31 2.078311 1_554
Ni11 O28 2.113792 1_555
