# generated using pymatgen
data_Li6Mn3P8O29
_symmetry_space_group_name_H-M   'P 1'
_cell_length_a   9.67648900
_cell_length_b   9.69120472
_cell_length_c   13.94581611
_cell_angle_alpha   89.60726641
_cell_angle_beta   89.58770461
_cell_angle_gamma   60.31404978
_symmetry_Int_Tables_number   1
_chemical_formula_structural   Li6Mn3P8O29
_chemical_formula_sum   'Li12 Mn6 P16 O58'
_cell_volume   1136.11281295
_cell_formula_units_Z   2
loop_
 _symmetry_equiv_pos_site_id
 _symmetry_equiv_pos_as_xyz
  1  'x, y, z'
loop_
 _atom_site_type_symbol
 _atom_site_label
 _atom_site_symmetry_multiplicity
 _atom_site_fract_x
 _atom_site_fract_y
 _atom_site_fract_z
 _atom_site_occupancy
  Li  Li0  1  0.89888900  0.33607600  0.43805600  1
  Li  Li1  1  0.66117100  0.10336700  0.06138600  1
  Li  Li2  1  0.67417200  0.66935700  0.11174400  1
  Li  Li3  1  0.66209300  0.23610200  0.56075100  1
  Li  Li4  1  0.99900000  0.99656500  0.99679400  1
  Li  Li5  1  0.23699500  0.65888900  0.05812000  1
  Li  Li6  1  0.33589200  0.76263800  0.43962500  1
  Li  Li7  1  0.09799100  0.66251600  0.56355100  1
  Li  Li8  1  0.23445100  0.09798000  0.55937500  1
  Li  Li9  1  0.32759600  0.90744600  0.93737500  1
  Li  Li10  1  0.95687800  0.98467300  0.49082600  1
  Li  Li11  1  0.76514500  0.32927500  0.93777600  1
  Mn  Mn0  1  0.56701400  0.99832000  0.25072300  1
  Mn  Mn1  1  0.56510400  0.43559300  0.74942400  1
  Mn  Mn2  1  0.99818600  0.56471400  0.75338700  1
  Mn  Mn3  1  0.43485600  0.56519900  0.25047700  1
  Mn  Mn4  1  0.00169400  0.43547300  0.24912500  1
  Mn  Mn5  1  0.43711200  0.00133400  0.75060200  1
  P  P0  1  0.08544000  0.22225500  0.83942700  1
  P  P1  1  0.08732000  0.68411500  0.34568400  1
  P  P2  1  0.31606800  0.90866300  0.15582300  1
  P  P3  1  0.68527100  0.08905700  0.84565400  1
  P  P4  1  0.77892500  0.91361100  0.66331400  1
  P  P5  1  0.31853400  0.77290200  0.65902400  1
  P  P6  1  0.66569700  0.66687800  0.86909700  1
  P  P7  1  0.22808100  0.08763400  0.33892100  1
  P  P8  1  0.68183400  0.22581400  0.34043900  1
  P  P9  1  0.77552300  0.32020100  0.15915300  1
  P  P10  1  0.91208500  0.31829100  0.65583600  1
  P  P11  1  0.33547900  0.33221500  0.13123900  1
  P  P12  1  0.66488700  0.66761200  0.36965600  1
  P  P13  1  0.91441000  0.77908900  0.16131700  1
  P  P14  1  0.33230200  0.33492700  0.63152700  1
  P  P15  1  0.22596800  0.68150400  0.84032700  1
  O  O0  1  0.66293200  0.25895500  0.83810600  1
  O  O1  1  0.25663400  0.66400800  0.33932400  1
  O  O2  1  0.81250200  0.50849700  0.33349600  1
  O  O3  1  0.74308800  0.92263000  0.15765000  1
  O  O4  1  0.07874200  0.25473400  0.33950300  1
  O  O5  1  0.49085600  0.32319600  0.66805500  1
  O  O6  1  0.48239600  0.89399600  0.16834500  1
  O  O7  1  0.89939000  0.62650400  0.16919800  1
  O  O8  1  0.08847400  0.37900100  0.83205800  1
  O  O9  1  0.80804100  0.67884200  0.82847800  1
  O  O10  1  0.00893000  0.19987400  0.74171400  1
  O  O11  1  0.32125300  0.18810100  0.66964200  1
  O  O12  1  0.79102500  0.00624400  0.57981200  1
  O  O13  1  0.77283000  0.21935600  0.43051200  1
  O  O14  1  0.66035100  0.66422800  0.97735400  1
  O  O15  1  0.92244000  0.34079900  0.15889700  1
  O  O16  1  0.33293400  0.33491900  0.52392300  1
  O  O17  1  0.62047400  0.91320900  0.67015600  1
  O  O18  1  0.34285000  0.33530200  0.02395300  1
  O  O19  1  0.52505700  0.09438500  0.83183900  1
  O  O20  1  0.67505100  0.50926300  0.83289100  1
  O  O21  1  0.22587500  0.00098400  0.42917700  1
  O  O22  1  0.20654900  0.79527600  0.74996600  1
  O  O23  1  0.67909200  0.80711300  0.32528100  1
  O  O24  1  0.50663800  0.67901400  0.33046100  1
  O  O25  1  0.25706600  0.07867100  0.83994100  1
  O  O26  1  0.19092100  0.32438900  0.17252000  1
  O  O27  1  0.66273600  0.07821100  0.33867700  1
  O  O28  1  0.52391700  0.38104800  0.32982600  1
  O  O29  1  0.98852400  0.80047000  0.25906200  1
  O  O30  1  0.65671900  0.66574700  0.47677000  1
  O  O31  1  0.62546900  0.48677700  0.17173300  1
  O  O32  1  0.23185800  0.98529100  0.06460000  1
  O  O33  1  0.23147600  0.77324400  0.56913100  1
  O  O34  1  0.99448000  0.20539400  0.92203400  1
  O  O35  1  0.38013700  0.52173300  0.82737200  1
  O  O36  1  0.90370400  0.47843000  0.67133900  1
  O  O37  1  0.47899700  0.62081400  0.67152500  1
  O  O38  1  0.74387700  0.33628400  0.65784200  1
  O  O39  1  0.99475100  0.23673400  0.56346000  1
  O  O40  1  0.33701400  0.73913800  0.15923000  1
  O  O41  1  0.32823900  0.48857900  0.16865500  1
  O  O42  1  0.38062000  0.09659900  0.32668100  1
  O  O43  1  0.92249900  0.74287800  0.66130400  1
  O  O44  1  0.76990100  0.23604700  0.06973800  1
  O  O45  1  0.18620800  0.49077600  0.66997200  1
  O  O46  1  0.49268300  0.18350200  0.16764700  1
  O  O47  1  0.00940600  0.78789100  0.07881500  1
  O  O48  1  0.50779600  0.81419800  0.83299600  1
  O  O49  1  0.09128900  0.52572500  0.33217100  1
  O  O50  1  0.79325100  0.20944900  0.24951100  1
  O  O51  1  0.07943900  0.66053200  0.84017000  1
  O  O52  1  0.33870700  0.92164400  0.65841300  1
  O  O53  1  0.22612100  0.76892000  0.93018000  1
  O  O54  1  0.01607300  0.76813900  0.43855300  1
  O  O55  1  0.20730200  0.99913900  0.24713700  1
  O  O56  1  0.80237600  0.99054800  0.75963700  1
  O  O57  1  0.76737000  0.02019800  0.93910700  1
loop_
_geom_bond_atom_site_label_1
_geom_bond_atom_site_label_2
_geom_bond_distance
_geom_bond_site_symmetry_2
Li0 O39 1.990366 1_555
Li0 O13 2.036829 1_555
Li0 O4 2.039794 1_655
Li0 O2 2.053727 1_555
Li1 O57 1.945990 1_554
Li1 O3 2.026428 1_545
Li1 O44 2.029210 1_555
Li1 O46 2.045516 1_555
Li2 O14 1.882650 1_554
Li2 O7 2.165180 1_555
Li2 O6 2.192518 1_555
Li2 O31 2.202913 1_555
Li3 O12 1.957882 1_555
Li3 O38 2.048592 1_555
Li3 O13 2.068149 1_555
Li3 O5 2.072119 1_555
Li4 O34 2.251388 1_565
Li4 O47 2.275190 1_656
Li4 O57 2.288743 1_565
Li4 O53 2.399259 1_655
Li4 O32 2.401800 1_656
Li4 O44 2.497909 1_566
Li5 O47 1.940351 1_555
Li5 O53 2.048680 1_554
Li5 O40 2.076058 1_555
Li5 O41 2.102677 1_555
Li6 O21 2.012954 1_565
Li6 O33 2.041257 1_555
Li6 O1 2.053847 1_555
Li6 O24 2.087753 1_555
Li7 O54 1.976515 1_555
Li7 O43 2.004985 1_455
Li7 O33 2.049746 1_555
Li7 O45 2.068469 1_555
Li8 O39 2.025133 1_455
Li8 O52 2.031210 1_545
Li8 O21 2.071271 1_555
Li8 O11 2.143973 1_555
Li9 O32 1.969213 1_556
Li9 O25 1.981502 1_565
Li9 O53 2.021248 1_555
Li9 O48 2.096854 1_555
Li10 O12 1.949858 1_565
Li10 O54 2.021759 1_655
Li10 O13 2.243949 1_565
Li11 O34 1.942139 1_555
Li11 O0 2.018689 1_555
Li11 O44 2.035295 1_556
Li11 O20 2.102209 1_555
Mn0 O42 1.888697 1_565
Mn0 O23 1.921015 1_555
Mn0 O27 1.923957 1_565
Mn0 O46 1.945578 1_565
Mn0 O6 1.965157 1_555
Mn0 O3 1.966981 1_555
Mn1 O35 1.893821 1_555
Mn1 O37 1.897735 1_555
Mn1 O0 1.933593 1_555
Mn1 O20 1.943736 1_555
Mn1 O5 1.947865 1_555
Mn1 O38 1.971292 1_555
Mn2 O36 1.905187 1_555
Mn2 O8 1.906692 1_655
Mn2 O9 1.917755 1_555
Mn2 O51 1.922875 1_655
Mn2 O45 1.966356 1_655
Mn2 O43 1.974165 1_555
Mn3 O28 1.901436 1_555
Mn3 O41 1.924867 1_555
Mn3 O24 1.931365 1_555
Mn3 O40 1.940189 1_555
Mn3 O1 1.943223 1_555
Mn3 O31 1.944070 1_555
Mn4 O49 1.907186 1_555
Mn4 O26 1.920457 1_555
Mn4 O15 1.933892 1_455
Mn4 O7 1.955027 1_455
Mn4 O4 1.975412 1_555
Mn4 O2 1.983415 1_455
Mn5 O19 1.899709 1_555
Mn5 O17 1.902558 1_545
Mn5 O11 1.946286 1_555
Mn5 O48 1.957368 1_545
Mn5 O25 1.958961 1_555
Mn5 O52 1.978806 1_545
O0 P3 1.553783 1_555
O1 P1 1.553063 1_555
O2 P12 1.578307 1_555
O3 P13 1.549857 1_555
O4 P7 1.546892 1_555
O5 P14 1.569721 1_555
O6 P2 1.555058 1_555
O7 P13 1.558933 1_555
O8 P0 1.536538 1_555
O9 P6 1.541942 1_555
O10 P10 1.600506 1_455
O10 P0 1.621636 1_555
O11 P14 1.567856 1_555
O12 P4 1.504495 1_545
O13 P8 1.522295 1_555
O14 P6 1.510724 1_555
O15 P9 1.530336 1_555
O16 P14 1.500594 1_555
O17 P4 1.537459 1_555
O18 P11 1.498177 1_555
O19 P3 1.538868 1_555
O20 P6 1.571402 1_555
O21 P7 1.514203 1_555
O22 P5 1.606549 1_555
O22 P15 1.618071 1_555
O23 P12 1.549501 1_555
O24 P12 1.580972 1_555
O25 P0 1.550957 1_555
O26 P11 1.544912 1_555
O27 P8 1.530793 1_555
O28 P8 1.530811 1_555
O29 P1 1.604666 1_655
O29 P13 1.606400 1_555
O30 P12 1.495772 1_555
O31 P9 1.556799 1_555
O32 P2 1.495496 1_555
O33 P5 1.514478 1_555
O34 P0 1.501280 1_655
O35 P15 1.538716 1_555
O36 P10 1.530203 1_555
O37 P5 1.532095 1_555
O38 P10 1.548794 1_555
O39 P10 1.515613 1_555
O40 P2 1.552968 1_555
O41 P11 1.574371 1_555
O42 P7 1.529241 1_555
O43 P4 1.546560 1_555
O44 P9 1.510587 1_555
O45 P14 1.566035 1_555
O46 P11 1.574315 1_555
O47 P13 1.495707 1_455
O48 P6 1.570639 1_555
O49 P1 1.529265 1_555
O50 P9 1.603600 1_555
O50 P8 1.615307 1_555
O51 P15 1.528791 1_555
O52 P5 1.547444 1_555
O53 P15 1.517797 1_555
O54 P1 1.503763 1_555
O55 P2 1.606284 1_555
O55 P7 1.613662 1_565
O56 P3 1.599709 1_565
O56 P4 1.611707 1_555
O57 P3 1.500951 1_555
