# generated using pymatgen
data_Li3Nb4FeO12
_symmetry_space_group_name_H-M   'P 1'
_cell_length_a   5.64047160
_cell_length_b   11.24174759
_cell_length_c   9.93807113
_cell_angle_alpha   27.84448413
_cell_angle_beta   50.35072755
_cell_angle_gamma   55.65769366
_symmetry_Int_Tables_number   1
_chemical_formula_structural   Li3Nb4FeO12
_chemical_formula_sum   'Li3 Nb4 Fe1 O12'
_cell_volume   226.62469536
_cell_formula_units_Z   1
loop_
 _symmetry_equiv_pos_site_id
 _symmetry_equiv_pos_as_xyz
  1  'x, y, z'
loop_
 _atom_site_type_symbol
 _atom_site_label
 _atom_site_symmetry_multiplicity
 _atom_site_fract_x
 _atom_site_fract_y
 _atom_site_fract_z
 _atom_site_occupancy
  Li  Li0  1  0.28093500  0.49943500  0.28579200  1
  Li  Li1  1  0.78305100  0.00006600  0.78655200  1
  Li  Li2  1  0.78518500  0.49921800  0.78333700  1
  Nb  Nb0  1  0.01484300  0.00378800  0.98878300  1
  Nb  Nb1  1  0.98405200  0.49754000  0.00599300  1
  Nb  Nb2  1  0.49411800  0.99739900  0.50250100  1
  Nb  Nb3  1  0.50654800  0.50318700  0.49126600  1
  Fe  Fe0  1  0.29675200  0.00063400  0.28656000  1
  O  O0  1  0.35865600  0.30683700  0.11124400  1
  O  O1  1  0.22427500  0.12395100  0.61471700  1
  O  O2  1  0.11071800  0.31920900  0.72438300  1
  O  O3  1  0.86517500  0.19341300  0.22258300  1
  O  O4  1  0.36374700  0.80263400  0.11523500  1
  O  O5  1  0.72244100  0.37253900  0.36757600  1
  O  O6  1  0.22560100  0.62999100  0.60708100  1
  O  O7  1  0.60338800  0.17785500  0.86996400  1
  O  O8  1  0.11140300  0.82268600  0.71853200  1
  O  O9  1  0.86054700  0.69259700  0.22499300  1
  O  O10  1  0.72519700  0.87565500  0.35905000  1
  O  O11  1  0.61296800  0.68136700  0.86345900  1
loop_
_geom_bond_atom_site_label_1
_geom_bond_atom_site_label_2
_geom_bond_distance
_geom_bond_site_symmetry_2
Li0 O1 2.095914 1_555
Li0 O9 2.097998 1_455
Li0 O11 2.101511 1_554
Li0 O2 2.293981 1_555
Li0 O4 2.297380 1_555
Li0 O5 2.328444 1_555
Li1 O5 2.087150 1_555
Li1 O4 2.105260 1_546
Li1 O8 2.117209 1_645
Li1 O9 2.283838 1_546
Li1 O7 2.298137 1_555
Li1 O1 2.308788 1_655
Li2 O2 2.083571 1_655
Li2 O10 2.109951 1_555
Li2 O0 2.118162 1_556
Li2 O3 2.302656 1_556
Li2 O6 2.326789 1_655
Li2 O11 2.328662 1_555
Nb0 O2 1.908737 1_555
Nb0 O4 1.917125 1_546
Nb0 O10 1.973350 1_446
Nb0 O1 2.086989 1_555
Nb0 O9 2.193504 1_446
Nb0 O7 2.212858 1_455
Nb1 O5 1.925515 1_555
Nb1 O0 1.974513 1_655
Nb1 O8 1.978642 1_654
Nb1 O11 2.093999 1_554
Nb1 O3 2.121837 1_555
Nb1 O6 2.178719 1_654
Nb2 O1 1.944416 1_565
Nb2 O11 1.945118 1_555
Nb2 O3 1.976754 1_565
Nb2 O8 2.130498 1_555
Nb2 O10 2.161209 1_555
Nb2 O0 2.162503 1_565
Nb3 O9 1.900744 1_555
Nb3 O7 1.966333 1_555
Nb3 O6 1.973104 1_555
Nb3 O5 2.101322 1_555
Nb3 O4 2.116919 1_555
Nb3 O2 2.182911 1_555
Fe0 O7 2.065024 1_554
Fe0 O6 2.110141 1_545
Fe0 O3 2.147766 1_455
Fe0 O10 2.221273 1_545
Fe0 O8 2.229193 1_545
Fe0 O0 2.231654 1_555
