# generated using pymatgen
data_Li6V3P8O29
_symmetry_space_group_name_H-M   'P 1'
_cell_length_a   9.79783800
_cell_length_b   9.80119176
_cell_length_c   13.96271938
_cell_angle_alpha   90.26640260
_cell_angle_beta   89.98065208
_cell_angle_gamma   119.91002836
_symmetry_Int_Tables_number   1
_chemical_formula_structural   Li6V3P8O29
_chemical_formula_sum   'Li12 V6 P16 O58'
_cell_volume   1162.24310383
_cell_formula_units_Z   2
loop_
 _symmetry_equiv_pos_site_id
 _symmetry_equiv_pos_as_xyz
  1  'x, y, z'
loop_
 _atom_site_type_symbol
 _atom_site_label
 _atom_site_symmetry_multiplicity
 _atom_site_fract_x
 _atom_site_fract_y
 _atom_site_fract_z
 _atom_site_occupancy
  Li  Li0  1  0.67055900  0.90707800  0.93843800  1
  Li  Li1  1  0.66637700  0.76206400  0.43810000  1
  Li  Li2  1  0.24028300  0.90595800  0.43977900  1
  Li  Li3  1  0.33537800  0.66095500  0.11437500  1
  Li  Li4  1  0.08837400  0.76597300  0.93869700  1
  Li  Li5  1  0.23135600  0.32422300  0.93647600  1
  Li  Li6  1  0.90253200  0.66714300  0.56004100  1
  Li  Li7  1  0.09964700  0.33899300  0.43959700  1
  Li  Li8  1  0.76622100  0.09998200  0.56021500  1
  Li  Li9  1  0.33216600  0.09907000  0.05770300  1
  Li  Li10  1  0.95582900  0.98879100  0.00380000  1
  Li  Li11  1  0.05403300  0.03741600  0.50567500  1
  V  V0  1  0.99970300  0.56251300  0.75317300  1
  V  V1  1  0.99704200  0.43477600  0.24612700  1
  V  V2  1  0.56284900  0.55963300  0.25053400  1
  V  V3  1  0.43901800  0.43655300  0.74855200  1
  V  V4  1  0.56584300  0.00029200  0.74962000  1
  V  V5  1  0.43815100  0.00148200  0.25217000  1
  P  P0  1  0.68469800  0.90522500  0.15742900  1
  P  P1  1  0.68688700  0.77223100  0.65513500  1
  P  P2  1  0.22431700  0.90991700  0.65768000  1
  P  P3  1  0.33544500  0.66642100  0.87258700  1
  P  P4  1  0.33124800  0.66592500  0.37016900  1
  P  P5  1  0.09241300  0.77860500  0.15605500  1
  P  P6  1  0.91652100  0.69084200  0.34164700  1
  P  P7  1  0.22445700  0.31326100  0.15546700  1
  P  P8  1  0.77868900  0.69671300  0.84084300  1
  P  P9  1  0.08639100  0.31213800  0.65731800  1
  P  P10  1  0.91395800  0.22023600  0.84218900  1
  P  P11  1  0.66913200  0.33501700  0.63192100  1
  P  P12  1  0.66320000  0.33061600  0.12989800  1
  P  P13  1  0.77627000  0.08628800  0.34172300  1
  P  P14  1  0.30447000  0.22244900  0.34221800  1
  P  P15  1  0.31245600  0.08711100  0.84167700  1
  O  O0  1  0.77479400  0.99756200  0.43065800  1
  O  O1  1  0.66609900  0.91908000  0.65818200  1
  O  O2  1  0.79936700  0.80773300  0.92118700  1
  O  O3  1  0.65729200  0.73807800  0.16369700  1
  O  O4  1  0.52158900  0.89498600  0.17099700  1
  O  O5  1  0.48913000  0.81093300  0.83354500  1
  O  O6  1  0.38176900  0.91119800  0.67136600  1
  O  O7  1  0.22515400  0.99855800  0.93056400  1
  O  O8  1  0.26056700  0.92399700  0.16004700  1
  O  O9  1  0.48574200  0.67512400  0.33018500  1
  O  O10  1  0.52809000  0.62198700  0.67003000  1
  O  O11  1  0.32373100  0.81264900  0.32943000  1
  O  O12  1  0.33755600  0.66542200  0.98079900  1
  O  O13  1  0.32695900  0.66621500  0.47715800  1
  O  O14  1  0.19038300  0.67663300  0.83502500  1
  O  O15  1  0.37347500  0.47850000  0.16980300  1
  O  O16  1  0.32557500  0.51229000  0.83184300  1
  O  O17  1  0.08250100  0.74011200  0.66170900  1
  O  O18  1  0.00246200  0.79600500  0.24793600  1
  O  O19  1  0.00502500  0.78253700  0.43034000  1
  O  O20  1  0.01168000  0.78174200  0.06589400  1
  O  O21  1  0.10854600  0.62902500  0.16868000  1
  O  O22  1  0.18669200  0.51363300  0.32661900  1
  O  O23  1  0.91659000  0.66028600  0.84075100  1
  O  O24  1  0.08227500  0.46700900  0.67233200  1
  O  O25  1  0.25399800  0.34322700  0.66226900  1
  O  O26  1  0.80361300  0.79319900  0.74179800  1
  O  O27  1  0.76970800  0.77049400  0.56385600  1
  O  O28  1  0.19369900  0.20675200  0.42153200  1
  O  O29  1  0.74868700  0.66582700  0.34174400  1
  O  O30  1  0.91705600  0.53546800  0.33070400  1
  O  O31  1  0.08154500  0.33596400  0.15910600  1
  O  O32  1  0.81402600  0.48962300  0.67254300  1
  O  O33  1  0.91767500  0.37770300  0.83484400  1
  O  O34  1  0.00355000  0.20173300  0.92342000  1
  O  O35  1  0.00339100  0.22778100  0.56520700  1
  O  O36  1  0.98598800  0.19603800  0.74285000  1
  O  O37  1  0.91683600  0.25461500  0.34214400  1
  O  O38  1  0.65873100  0.47329400  0.17883700  1
  O  O39  1  0.61955000  0.54498100  0.83536800  1
  O  O40  1  0.81328100  0.33626700  0.17514200  1
  O  O41  1  0.65731200  0.32823600  0.02385400  1
  O  O42  1  0.67041900  0.33716200  0.52518800  1
  O  O43  1  0.67778400  0.18851300  0.67038000  1
  O  O44  1  0.45606900  0.38280700  0.33744400  1
  O  O45  1  0.52115300  0.33159800  0.67987500  1
  O  O46  1  0.74052800  0.08160600  0.84089000  1
  O  O47  1  0.79546600  0.00176700  0.24767600  1
  O  O48  1  0.76757900  0.98544400  0.06671500  1
  O  O49  1  0.61912600  0.08597800  0.33070800  1
  O  O50  1  0.51417900  0.18113900  0.17186100  1
  O  O51  1  0.46918300  0.09061500  0.82766700  1
  O  O52  1  0.33468700  0.25342300  0.84116100  1
  O  O53  1  0.23177900  0.23215600  0.06459700  1
  O  O54  1  0.21160900  0.20037600  0.24183100  1
  O  O55  1  0.33713700  0.08397000  0.34368000  1
  O  O56  1  0.21546500  0.98708000  0.56689100  1
  O  O57  1  0.20332600  0.99884100  0.74888700  1
loop_
_geom_bond_atom_site_label_1
_geom_bond_atom_site_label_2
_geom_bond_distance
_geom_bond_site_symmetry_2
Li0 O2 1.954986 1_555
Li0 O48 1.990428 1_556
Li0 O46 2.025524 1_565
Li0 O5 2.123983 1_555
Li1 O0 2.005932 1_555
Li1 O27 2.007840 1_555
Li1 O29 2.023915 1_555
Li1 O9 2.148180 1_555
Li2 O19 2.002944 1_555
Li2 O56 2.005172 1_555
Li2 O55 2.028492 1_565
Li2 O11 2.147230 1_555
Li3 O12 1.865667 1_554
Li3 O15 2.148250 1_555
Li3 O21 2.218029 1_555
Li3 O4 2.241813 1_555
Li4 O20 1.963452 1_556
Li4 O7 1.990256 1_555
Li4 O23 2.006449 1_455
Li4 O14 2.172806 1_555
Li5 O34 1.944814 1_555
Li5 O52 1.992195 1_555
Li5 O53 2.008296 1_556
Li5 O16 2.170584 1_555
Li6 O27 2.009145 1_555
Li6 O17 2.090571 1_655
Li6 O19 2.110068 1_655
Li6 O32 2.183251 1_555
Li7 O28 1.944391 1_555
Li7 O35 2.035938 1_555
Li7 O37 2.063399 1_455
Li7 O22 2.171178 1_555
Li8 O35 2.017468 1_655
Li8 O1 2.064995 1_545
Li8 O0 2.086675 1_545
Li8 O43 2.146229 1_555
Li9 O53 1.989071 1_555
Li9 O7 2.043545 1_544
Li9 O8 2.073696 1_545
Li9 O50 2.219781 1_555
Li10 O2 2.024578 1_554
Li10 O48 2.028196 1_555
Li10 O34 2.209613 1_664
Li10 O20 2.508676 1_655
Li11 O28 1.938953 1_555
Li11 O56 2.063673 1_545
Li11 O35 2.308012 1_555
Li11 O19 2.521360 1_545
O0 P13 1.515236 1_565
O1 P1 1.551336 1_555
O1 V4 1.999487 1_565
O2 P8 1.500833 1_555
O3 P0 1.525191 1_555
O3 V2 1.946855 1_555
O4 P0 1.562039 1_555
O4 V5 1.970220 1_565
O5 P3 1.565363 1_555
O5 V4 2.002769 1_565
O6 P2 1.548362 1_555
O6 V4 1.905505 1_565
O7 P15 1.514667 1_565
O8 P5 1.551166 1_555
O8 V5 1.983259 1_565
O9 P4 1.573185 1_555
O9 V2 1.982295 1_555
O10 P1 1.533030 1_555
O10 V3 1.924307 1_555
O11 P4 1.584391 1_555
O11 V5 1.947940 1_565
O12 P3 1.511226 1_555
O13 P4 1.494463 1_555
O14 P3 1.564616 1_555
O14 V0 1.988260 1_455
O15 P7 1.560043 1_555
O15 V2 1.966552 1_555
O16 P3 1.568906 1_555
O16 V3 1.988185 1_555
O17 P2 1.548647 1_555
O17 V0 1.982609 1_455
O18 P5 1.612069 1_555
O18 P6 1.621646 1_455
O19 P6 1.518697 1_455
O20 P5 1.495573 1_555
O21 P5 1.561707 1_555
O21 V1 1.982845 1_455
O22 P4 1.577199 1_555
O22 V1 1.968331 1_455
O23 P8 1.560161 1_555
O23 V0 1.960467 1_555
O24 P9 1.551689 1_555
O24 V0 1.884041 1_455
O25 P9 1.515010 1_555
O25 V3 1.977850 1_555
O26 P1 1.605817 1_555
O26 P8 1.627293 1_555
O27 P1 1.515257 1_555
O28 P14 1.504079 1_555
O29 P6 1.536921 1_555
O29 V2 2.029735 1_555
O30 P6 1.532398 1_555
O30 V1 1.934576 1_555
O31 P7 1.524240 1_555
O31 V1 1.971758 1_455
O32 P11 1.574958 1_555
O32 V0 1.945562 1_555
O33 P10 1.529455 1_555
O33 V0 1.947848 1_555
O34 P10 1.500400 1_455
O35 P9 1.522927 1_555
O36 P9 1.607584 1_655
O36 P10 1.625240 1_555
O37 P13 1.533821 1_555
O37 V1 2.042151 1_555
O38 P12 1.573711 1_555
O38 V2 1.839866 1_555
O39 P8 1.528126 1_555
O39 V3 1.960186 1_555
O40 P12 1.575915 1_555
O40 V1 1.847947 1_555
O41 P12 1.481428 1_555
O42 P11 1.490489 1_555
O43 P11 1.576702 1_555
O43 V4 1.957204 1_555
O44 P14 1.534168 1_555
O44 V2 1.944540 1_555
O45 P11 1.581986 1_555
O45 V3 1.855050 1_555
O46 P10 1.559220 1_555
O46 V4 1.954546 1_555
O47 P13 1.609689 1_555
O47 P0 1.620719 1_545
O48 P0 1.501250 1_555
O49 P13 1.545879 1_555
O49 V5 1.887035 1_555
O50 P12 1.579762 1_555
O50 V5 1.903305 1_555
O51 P15 1.531253 1_555
O51 V4 1.922144 1_555
O52 P15 1.533167 1_555
O52 V3 2.032122 1_555
O53 P7 1.514701 1_555
O54 P7 1.602351 1_555
O54 P14 1.625129 1_555
O55 P14 1.542240 1_555
O55 V5 2.013282 1_555
O56 P2 1.503617 1_555
O57 P2 1.609962 1_555
O57 P15 1.624289 1_565
