# generated using pymatgen
data_Li2CoSiO4
_symmetry_space_group_name_H-M   'P 1'
_cell_length_a   5.02803700
_cell_length_b   6.28078200
_cell_length_c   10.75073500
_cell_angle_alpha   90.00000000
_cell_angle_beta   90.00000000
_cell_angle_gamma   90.00000000
_symmetry_Int_Tables_number   1
_chemical_formula_structural   Li2CoSiO4
_chemical_formula_sum   'Li8 Co4 Si4 O16'
_cell_volume   339.50825737
_cell_formula_units_Z   4
loop_
 _symmetry_equiv_pos_site_id
 _symmetry_equiv_pos_as_xyz
  1  'x, y, z'
loop_
 _atom_site_type_symbol
 _atom_site_label
 _atom_site_symmetry_multiplicity
 _atom_site_fract_x
 _atom_site_fract_y
 _atom_site_fract_z
 _atom_site_occupancy
  Li  Li0  1  0.75812800  0.00454800  0.16982200  1
  Li  Li1  1  0.75750400  0.25070500  0.91265800  1
  Li  Li2  1  0.75750400  0.24929500  0.41265800  1
  Li  Li3  1  0.75812800  0.49545200  0.66982200  1
  Li  Li4  1  0.25812800  0.50454800  0.33017800  1
  Li  Li5  1  0.25750400  0.75070500  0.58734200  1
  Li  Li6  1  0.25750400  0.74929500  0.08734200  1
  Li  Li7  1  0.25812800  0.99545200  0.83017800  1
  Co  Co0  1  0.26033600  0.24019400  0.58527600  1
  Co  Co1  1  0.26033600  0.25980600  0.08527600  1
  Co  Co2  1  0.76033600  0.74019400  0.91472400  1
  Co  Co3  1  0.76033600  0.75980600  0.41472400  1
  Si  Si0  1  0.26355800  0.00522900  0.33283100  1
  Si  Si1  1  0.26355800  0.49477100  0.83283100  1
  Si  Si2  1  0.76355800  0.50522900  0.16716900  1
  Si  Si3  1  0.76355800  0.99477100  0.66716900  1
  O  O0  1  0.09125100  0.99463900  0.66720300  1
  O  O1  1  0.15615600  0.00733300  0.18690400  1
  O  O2  1  0.15751400  0.27792900  0.90637800  1
  O  O3  1  0.65867700  0.21304700  0.59510800  1
  O  O4  1  0.65867700  0.28695300  0.09510800  1
  O  O5  1  0.15751400  0.22207100  0.40637800  1
  O  O6  1  0.15615600  0.49266700  0.68690400  1
  O  O7  1  0.09125100  0.50536100  0.16720300  1
  O  O8  1  0.59125100  0.49463900  0.83279700  1
  O  O9  1  0.65615600  0.50733300  0.31309600  1
  O  O10  1  0.65751400  0.77792900  0.59362200  1
  O  O11  1  0.15867700  0.71304700  0.90489200  1
  O  O12  1  0.15867700  0.78695300  0.40489200  1
  O  O13  1  0.65751400  0.72207100  0.09362200  1
  O  O14  1  0.65615600  0.99266700  0.81309600  1
  O  O15  1  0.59125100  0.00536100  0.33279700  1
loop_
_geom_bond_atom_site_label_1
_geom_bond_atom_site_label_2
_geom_bond_distance
_geom_bond_site_symmetry_2
Li0 O15 1.942656 1_555
Li0 O1 2.009784 1_655
Li0 O4 2.010303 1_555
Li0 O13 2.018595 1_545
Li1 O8 1.945051 1_555
Li1 O14 2.007974 1_545
Li1 O2 2.019649 1_655
Li1 O4 2.036202 1_556
Li2 O15 1.945051 1_555
Li2 O9 2.007974 1_555
Li2 O5 2.019649 1_655
Li2 O3 2.036202 1_555
Li3 O8 1.942656 1_555
Li3 O6 2.009784 1_655
Li3 O3 2.010303 1_555
Li3 O10 2.018595 1_555
Li4 O7 1.942656 1_555
Li4 O9 2.009784 1_555
Li4 O12 2.010303 1_555
Li4 O5 2.018595 1_555
Li5 O0 1.945051 1_555
Li5 O6 2.007974 1_555
Li5 O10 2.019649 1_555
Li5 O12 2.036202 1_555
Li6 O7 1.945051 1_555
Li6 O1 2.007974 1_565
Li6 O13 2.019649 1_555
Li6 O11 2.036202 1_554
Li7 O0 1.942656 1_555
Li7 O14 2.009784 1_555
Li7 O11 2.010303 1_555
Li7 O2 2.018595 1_565
Co0 O0 1.969052 1_545
Co0 O5 1.994809 1_555
Co0 O6 1.995656 1_555
Co0 O3 2.012895 1_555
Co1 O7 1.969052 1_555
Co1 O2 1.994809 1_554
Co1 O1 1.995656 1_555
Co1 O4 2.012895 1_555
Co2 O8 1.969052 1_555
Co2 O13 1.994809 1_556
Co2 O14 1.995656 1_555
Co2 O11 2.012895 1_655
Co3 O15 1.969052 1_565
Co3 O10 1.994809 1_555
Co3 O9 1.995656 1_555
Co3 O12 2.012895 1_655
O0 Si3 1.647653 1_455
O1 Si0 1.659217 1_555
O2 Si1 1.662633 1_555
O3 Si3 1.660649 1_545
O4 Si2 1.660649 1_555
O5 Si0 1.662633 1_555
O6 Si1 1.659217 1_555
O7 Si2 1.647653 1_455
O8 Si1 1.647653 1_555
O9 Si2 1.659217 1_555
O10 Si3 1.662633 1_555
O11 Si1 1.660649 1_555
O12 Si0 1.660649 1_565
O13 Si2 1.662633 1_555
O14 Si3 1.659217 1_555
O15 Si0 1.647653 1_555
