# generated using pymatgen
data_Li2Mn3F10
_symmetry_space_group_name_H-M   'P 1'
_cell_length_a   9.77442146
_cell_length_b   9.77442146
_cell_length_c   7.92271891
_cell_angle_alpha   71.34228326
_cell_angle_beta   71.34228326
_cell_angle_gamma   36.43399953
_symmetry_Int_Tables_number   1
_chemical_formula_structural   Li2Mn3F10
_chemical_formula_sum   'Li4 Mn6 F20'
_cell_volume   423.27585846
_cell_formula_units_Z   2
loop_
 _symmetry_equiv_pos_site_id
 _symmetry_equiv_pos_as_xyz
  1  'x, y, z'
loop_
 _atom_site_type_symbol
 _atom_site_label
 _atom_site_symmetry_multiplicity
 _atom_site_fract_x
 _atom_site_fract_y
 _atom_site_fract_z
 _atom_site_occupancy
  Li  Li0  1  0.43481600  0.43481600  0.44243700  1
  Li  Li1  1  0.28527200  0.28527200  0.51072300  1
  Li  Li2  1  0.71472800  0.71472800  0.48927700  1
  Li  Li3  1  0.56518400  0.56518400  0.55756300  1
  Mn  Mn0  1  0.91432300  0.91432300  0.48711500  1
  Mn  Mn1  1  0.18363200  0.18363200  0.99009600  1
  Mn  Mn2  1  0.81636800  0.81636800  0.00990400  1
  Mn  Mn3  1  0.08567700  0.08567700  0.51288500  1
  Mn  Mn4  1  0.75168700  0.24831300  0.00000000  1
  Mn  Mn5  1  0.24831300  0.75168700  0.00000000  1
  F  F0  1  0.48066100  0.48066100  0.17802900  1
  F  F1  1  0.97577700  0.97577700  0.18779400  1
  F  F2  1  0.85991400  0.85991400  0.76164700  1
  F  F3  1  0.58074600  0.13039700  0.46772100  1
  F  F4  1  0.13039700  0.58074600  0.46772100  1
  F  F5  1  0.66245100  0.13365600  0.01487600  1
  F  F6  1  0.13365600  0.66245100  0.01487600  1
  F  F7  1  0.21934000  0.21934000  0.74192900  1
  F  F8  1  0.78066000  0.78066000  0.25807100  1
  F  F9  1  0.86634400  0.33754900  0.98512400  1
  F  F10  1  0.33754900  0.86634400  0.98512400  1
  F  F11  1  0.00000000  0.50000000  0.00000000  1
  F  F12  1  0.50000000  0.00000000  0.00000000  1
  F  F13  1  0.41925400  0.86960300  0.53227900  1
  F  F14  1  0.86960300  0.41925400  0.53227900  1
  F  F15  1  0.14008600  0.14008600  0.23835300  1
  F  F16  1  0.02422300  0.02422300  0.81220600  1
  F  F17  1  0.51933900  0.51933900  0.82197100  1
  F  F18  1  0.24139000  0.75861000  0.50000000  1
  F  F19  1  0.75861000  0.24139000  0.50000000  1
loop_
_geom_bond_atom_site_label_1
_geom_bond_atom_site_label_2
_geom_bond_distance
_geom_bond_site_symmetry_2
F0 Li0 1.977826 1_555
F0 Mn4 2.035453 1_555
F0 Mn5 2.035453 1_555
F1 Mn4 2.065926 1_565
F1 Mn5 2.065926 1_655
F1 Mn0 2.259001 1_555
F2 Mn2 1.857722 1_556
F2 Mn0 2.066723 1_555
F3 Li1 1.847763 1_555
F3 Li0 1.974980 1_555
F3 Mn0 2.036558 1_545
F4 Li1 1.847763 1_555
F4 Li0 1.974980 1_555
F4 Mn0 2.036558 1_455
F5 Mn4 1.858298 1_555
F5 Mn2 2.101351 1_545
F6 Mn5 1.858298 1_555
F6 Mn2 2.101351 1_455
F7 Li1 1.828579 1_555
F7 Mn1 1.851291 1_555
F8 Li2 1.828579 1_555
F8 Mn2 1.851291 1_555
F9 Mn4 1.858298 1_556
F9 Mn1 2.101351 1_655
F10 Mn5 1.858298 1_556
F10 Mn1 2.101351 1_565
F11 Mn2 1.980991 1_455
F11 Mn1 1.980991 1_554
F12 Mn2 1.980991 1_545
F12 Mn1 1.980991 1_554
F13 Li2 1.847763 1_555
F13 Li3 1.974980 1_555
F13 Mn3 2.036558 1_565
F14 Li2 1.847763 1_555
F14 Li3 1.974980 1_555
F14 Mn3 2.036558 1_655
F15 Mn1 1.857722 1_554
F15 Mn3 2.066723 1_555
F16 Mn4 2.065926 1_456
F16 Mn5 2.065926 1_546
F16 Mn3 2.259001 1_555
F17 Li3 1.977826 1_555
F17 Mn5 2.035453 1_556
F17 Mn4 2.035453 1_556
F18 Li3 2.131359 1_555
F18 Li0 2.131359 1_555
F18 Mn3 2.197075 1_565
F18 Mn0 2.197075 1_455
F19 Li3 2.131359 1_555
F19 Li0 2.131359 1_555
F19 Mn3 2.197075 1_655
F19 Mn0 2.197075 1_545
