# generated using pymatgen
data_H2CN2
_symmetry_space_group_name_H-M   'P 1'
_cell_length_a   6.75447000
_cell_length_b   6.95667800
_cell_length_c   9.18646000
_cell_angle_alpha   90.00000000
_cell_angle_beta   90.00000000
_cell_angle_gamma   90.00000000
_symmetry_Int_Tables_number   1
_chemical_formula_structural   H2CN2
_chemical_formula_sum   'H16 C8 N16'
_cell_volume   431.65956360
_cell_formula_units_Z   8
loop_
 _symmetry_equiv_pos_site_id
 _symmetry_equiv_pos_as_xyz
  1  'x, y, z'
loop_
 _atom_site_type_symbol
 _atom_site_label
 _atom_site_symmetry_multiplicity
 _atom_site_fract_x
 _atom_site_fract_y
 _atom_site_fract_z
 _atom_site_occupancy
  H  H0  1  0.90076000  0.29307700  0.48345800  1
  H  H1  1  0.59924000  0.79307700  0.51654200  1
  H  H2  1  0.40076000  0.70692300  0.01654200  1
  H  H3  1  0.09924000  0.20692300  0.98345800  1
  H  H4  1  0.09924000  0.70692300  0.51654200  1
  H  H5  1  0.40076000  0.20692300  0.48345800  1
  H  H6  1  0.59924000  0.29307700  0.98345800  1
  H  H7  1  0.90076000  0.79307700  0.01654200  1
  H  H8  1  0.71865100  0.45212700  0.41195100  1
  H  H9  1  0.78134900  0.95212700  0.58804900  1
  H  H10  1  0.21865100  0.54787300  0.08804900  1
  H  H11  1  0.28134900  0.04787300  0.91195100  1
  H  H12  1  0.28134900  0.54787300  0.58804900  1
  H  H13  1  0.21865100  0.04787300  0.41195100  1
  H  H14  1  0.78134900  0.45212700  0.91195100  1
  H  H15  1  0.71865100  0.95212700  0.08804900  1
  C  C0  1  0.91863200  0.35692400  0.26867600  1
  C  C1  1  0.58136800  0.85692400  0.73132400  1
  C  C2  1  0.41863200  0.64307600  0.23132400  1
  C  C3  1  0.08136800  0.14307600  0.76867600  1
  C  C4  1  0.08136800  0.64307600  0.73132400  1
  C  C5  1  0.41863200  0.14307600  0.26867600  1
  C  C6  1  0.58136800  0.35692400  0.76867600  1
  C  C7  1  0.91863200  0.85692400  0.23132400  1
  N  N0  1  0.82989300  0.35380200  0.39536200  1
  N  N1  1  0.67010700  0.85380200  0.60463800  1
  N  N2  1  0.32989300  0.64619800  0.10463800  1
  N  N3  1  0.17010700  0.14619800  0.89536200  1
  N  N4  1  0.17010700  0.64619800  0.60463800  1
  N  N5  1  0.32989300  0.14619800  0.39536200  1
  N  N6  1  0.67010700  0.35380200  0.89536200  1
  N  N7  1  0.82989300  0.85380200  0.10463800  1
  N  N8  1  0.99068900  0.35886600  0.15169600  1
  N  N9  1  0.50931100  0.85886600  0.84830400  1
  N  N10  1  0.49068900  0.64113400  0.34830400  1
  N  N11  1  0.00931100  0.14113400  0.65169600  1
  N  N12  1  0.00931100  0.64113400  0.84830400  1
  N  N13  1  0.49068900  0.14113400  0.15169600  1
  N  N14  1  0.50931100  0.35886600  0.65169600  1
  N  N15  1  0.99068900  0.85886600  0.34830400  1
loop_
_geom_bond_atom_site_label_1
_geom_bond_atom_site_label_2
_geom_bond_distance
_geom_bond_site_symmetry_2
H0 N0 1.030793 1_555
H1 N1 1.030793 1_555
H2 N2 1.030793 1_555
H3 N3 1.030793 1_555
H4 N4 1.030793 1_555
H5 N5 1.030793 1_555
H6 N6 1.030793 1_555
H7 N7 1.030793 1_555
H8 N0 1.027460 1_555
H9 N1 1.027460 1_555
H10 N2 1.027460 1_555
H11 N3 1.027460 1_555
H12 N4 1.027460 1_555
H13 N5 1.027460 1_555
H14 N6 1.027460 1_555
H15 N7 1.027460 1_555
C0 N8 1.179788 1_555
C0 N0 1.309257 1_555
C1 N9 1.179788 1_555
C1 N1 1.309257 1_555
C2 N10 1.179788 1_555
C2 N2 1.309257 1_555
C3 N11 1.179788 1_555
C3 N3 1.309257 1_555
C4 N12 1.179788 1_555
C4 N4 1.309257 1_555
C5 N13 1.179788 1_555
C5 N5 1.309257 1_555
C6 N14 1.179788 1_555
C6 N6 1.309257 1_555
C7 N15 1.179788 1_555
C7 N7 1.309257 1_555
