# generated using pymatgen
data_Li4NbCu3O8
_symmetry_space_group_name_H-M   'P 1'
_cell_length_a   6.15726591
_cell_length_b   6.15726591
_cell_length_c   5.80418230
_cell_angle_alpha   63.08903139
_cell_angle_beta   63.08903139
_cell_angle_gamma   55.90038198
_symmetry_Int_Tables_number   1
_chemical_formula_structural   Li4NbCu3O8
_chemical_formula_sum   'Li4 Nb1 Cu3 O8'
_cell_volume   156.47855487
_cell_formula_units_Z   1
loop_
 _symmetry_equiv_pos_site_id
 _symmetry_equiv_pos_as_xyz
  1  'x, y, z'
loop_
 _atom_site_type_symbol
 _atom_site_label
 _atom_site_symmetry_multiplicity
 _atom_site_fract_x
 _atom_site_fract_y
 _atom_site_fract_z
 _atom_site_occupancy
  Li  Li0  1  0.50000000  0.50000000  0.50000000  1
  Li  Li1  1  0.50000000  0.00000000  0.00000000  1
  Li  Li2  1  0.00000000  0.00000000  0.50000000  1
  Li  Li3  1  0.00000000  0.50000000  0.00000000  1
  Nb  Nb0  1  0.00000000  0.00000000  0.00000000  1
  Cu  Cu0  1  0.00000000  0.50000000  0.50000000  1
  Cu  Cu1  1  0.50000000  0.50000000  0.00000000  1
  Cu  Cu2  1  0.50000000  0.00000000  0.50000000  1
  O  O0  1  0.72886400  0.72886400  0.73890200  1
  O  O1  1  0.77985200  0.26446700  0.22126800  1
  O  O2  1  0.22546400  0.22546400  0.75249400  1
  O  O3  1  0.27113600  0.27113600  0.26109800  1
  O  O4  1  0.26446700  0.77985200  0.22126800  1
  O  O5  1  0.22014800  0.73553300  0.77873200  1
  O  O6  1  0.77453600  0.77453600  0.24750600  1
  O  O7  1  0.73553300  0.22014800  0.77873200  1
loop_
_geom_bond_atom_site_label_1
_geom_bond_atom_site_label_2
_geom_bond_distance
_geom_bond_site_symmetry_2
Li0 O1 2.118503 1_555
Li0 O7 2.118503 1_555
Li0 O4 2.118503 1_555
Li0 O5 2.118503 1_555
Li0 O2 2.565456 1_555
Li0 O6 2.565456 1_555
Li1 O4 2.128936 1_545
Li1 O7 2.128936 1_554
Li1 O6 2.147100 1_545
Li1 O2 2.147100 1_554
Li1 O0 2.188308 1_544
Li1 O3 2.188308 1_555
Li2 O4 2.057130 1_545
Li2 O7 2.057130 1_455
Li2 O5 2.057130 1_545
Li2 O1 2.057130 1_455
Li2 O3 2.535942 1_555
Li2 O0 2.535942 1_445
Li3 O5 2.128936 1_554
Li3 O1 2.128936 1_455
Li3 O6 2.147100 1_455
Li3 O2 2.147100 1_554
Li3 O0 2.188308 1_454
Li3 O3 2.188308 1_555
Nb0 O1 1.995172 1_455
Nb0 O5 1.995172 1_544
Nb0 O4 1.995172 1_545
Nb0 O7 1.995172 1_454
Nb0 O6 2.113895 1_445
Nb0 O2 2.113895 1_554
Cu0 O0 1.931595 1_455
Cu0 O3 1.931595 1_555
Cu0 O2 1.974921 1_555
Cu0 O6 1.974921 1_455
Cu0 O4 2.544830 1_555
Cu0 O7 2.544830 1_455
Cu1 O4 2.058393 1_555
Cu1 O7 2.058393 1_554
Cu1 O1 2.058393 1_555
Cu1 O5 2.058393 1_554
Cu1 O0 2.151399 1_554
Cu1 O3 2.151399 1_555
Cu2 O0 1.931595 1_545
Cu2 O3 1.931595 1_555
Cu2 O6 1.974921 1_545
Cu2 O2 1.974921 1_555
Cu2 O5 2.544830 1_545
Cu2 O1 2.544830 1_555
