# generated using pymatgen
data_CsTi(NbCl3)6
_symmetry_space_group_name_H-M   'P 1'
_cell_length_a   9.20573356
_cell_length_b   9.20573356
_cell_length_c   17.19844900
_cell_angle_alpha   90.00000000
_cell_angle_beta   90.00000000
_cell_angle_gamma   119.99999686
_symmetry_Int_Tables_number   1
_chemical_formula_structural   CsTi(NbCl3)6
_chemical_formula_sum   'Cs2 Ti2 Nb12 Cl36'
_cell_volume   1262.22486336
_cell_formula_units_Z   2
loop_
 _symmetry_equiv_pos_site_id
 _symmetry_equiv_pos_as_xyz
  1  'x, y, z'
loop_
 _atom_site_type_symbol
 _atom_site_label
 _atom_site_symmetry_multiplicity
 _atom_site_fract_x
 _atom_site_fract_y
 _atom_site_fract_z
 _atom_site_occupancy
  Cs  Cs0  1  0.33333300  0.66666700  0.75000000  1
  Cs  Cs1  1  0.66666700  0.33333300  0.25000000  1
  Ti  Ti0  1  0.33333300  0.66666700  0.25000000  1
  Ti  Ti1  1  0.66666700  0.33333300  0.75000000  1
  Nb  Nb0  1  0.04613200  0.84394000  0.43056000  1
  Nb  Nb1  1  0.15606000  0.95386800  0.06944000  1
  Nb  Nb2  1  0.04613200  0.20219200  0.06944000  1
  Nb  Nb3  1  0.15606000  0.20219200  0.43056000  1
  Nb  Nb4  1  0.20219200  0.15606000  0.93056000  1
  Nb  Nb5  1  0.20219200  0.04613200  0.56944000  1
  Nb  Nb6  1  0.79780800  0.95386800  0.43056000  1
  Nb  Nb7  1  0.79780800  0.84394000  0.06944000  1
  Nb  Nb8  1  0.84394000  0.79780800  0.56944000  1
  Nb  Nb9  1  0.95386800  0.79780800  0.93056000  1
  Nb  Nb10  1  0.84394000  0.04613200  0.93056000  1
  Nb  Nb11  1  0.95386800  0.15606000  0.56944000  1
  Cl  Cl0  1  0.05379000  0.81279800  0.66215600  1
  Cl  Cl1  1  0.18720200  0.94621000  0.83784400  1
  Cl  Cl2  1  0.13602100  0.71295100  0.99795600  1
  Cl  Cl3  1  0.10291700  0.64191300  0.33376600  1
  Cl  Cl4  1  0.28704900  0.86397900  0.50204400  1
  Cl  Cl5  1  0.10291700  0.46100300  0.16623400  1
  Cl  Cl6  1  0.35808700  0.89708300  0.16623400  1
  Cl  Cl7  1  0.13602100  0.42307000  0.50204400  1
  Cl  Cl8  1  0.05379000  0.24099100  0.83784400  1
  Cl  Cl9  1  0.18720200  0.24099100  0.66215600  1
  Cl  Cl10  1  0.28704900  0.42307000  0.99795600  1
  Cl  Cl11  1  0.53899700  0.89708300  0.33376600  1
  Cl  Cl12  1  0.35808700  0.46100300  0.33376600  1
  Cl  Cl13  1  0.57693000  0.86397900  0.99795600  1
  Cl  Cl14  1  0.24099100  0.18720200  0.16215600  1
  Cl  Cl15  1  0.24099100  0.05379000  0.33784400  1
  Cl  Cl16  1  0.53899700  0.64191300  0.16623400  1
  Cl  Cl17  1  0.57693000  0.71295100  0.50204400  1
  Cl  Cl18  1  0.42307000  0.28704900  0.49795600  1
  Cl  Cl19  1  0.46100300  0.35808700  0.83376600  1
  Cl  Cl20  1  0.75900900  0.94621000  0.66215600  1
  Cl  Cl21  1  0.75900900  0.81279800  0.83784400  1
  Cl  Cl22  1  0.42307000  0.13602100  0.00204400  1
  Cl  Cl23  1  0.64191300  0.53899700  0.66623400  1
  Cl  Cl24  1  0.46100300  0.10291700  0.66623400  1
  Cl  Cl25  1  0.71295100  0.57693000  0.00204400  1
  Cl  Cl26  1  0.81279800  0.75900900  0.33784400  1
  Cl  Cl27  1  0.94621000  0.75900900  0.16215600  1
  Cl  Cl28  1  0.86397900  0.57693000  0.49795600  1
  Cl  Cl29  1  0.64191300  0.10291700  0.83376600  1
  Cl  Cl30  1  0.89708300  0.53899700  0.83376600  1
  Cl  Cl31  1  0.71295100  0.13602100  0.49795600  1
  Cl  Cl32  1  0.89708300  0.35808700  0.66623400  1
  Cl  Cl33  1  0.86397900  0.28704900  0.00204400  1
  Cl  Cl34  1  0.81279800  0.05379000  0.16215600  1
  Cl  Cl35  1  0.94621000  0.18720200  0.33784400  1
loop_
_geom_bond_atom_site_label_1
_geom_bond_atom_site_label_2
_geom_bond_distance
_geom_bond_site_symmetry_2
Cl0 Nb8 2.455007 1_455
Cl0 Nb5 2.467482 1_565
Cl0 Cs0 3.765151 1_555
Cl1 Nb4 2.455007 1_565
Cl1 Nb9 2.467482 1_455
Cl1 Cs0 3.765151 1_555
Cl2 Nb1 2.460706 1_556
Cl2 Nb9 2.464852 1_455
Cl3 Ti0 2.478567 1_555
Cl3 Nb0 2.734155 1_555
Cl3 Cs1 3.855523 1_455
Cl4 Nb0 2.460706 1_555
Cl4 Nb5 2.464852 1_565
Cl5 Ti0 2.478573 1_555
Cl5 Nb2 2.734148 1_555
Cl5 Cs1 3.855523 1_455
Cl6 Ti0 2.478567 1_555
Cl6 Nb1 2.734155 1_555
Cl6 Cs1 3.855523 1_565
Cl7 Nb3 2.460706 1_555
Cl7 Nb11 2.464852 1_455
Cl8 Nb10 2.455004 1_455
Cl8 Nb4 2.467477 1_555
Cl8 Cs0 3.765164 1_555
Cl9 Nb5 2.455000 1_555
Cl9 Nb11 2.467483 1_455
Cl9 Cs0 3.765167 1_555
Cl10 Nb2 2.460706 1_556
Cl10 Nb4 2.464852 1_555
Cl11 Ti0 2.478573 1_555
Cl11 Nb6 2.734148 1_555
Cl11 Cs1 3.855523 1_565
Cl12 Ti0 2.478582 1_555
Cl12 Nb3 2.734150 1_555
Cl12 Cs1 3.855523 1_555
Cl13 Nb7 2.460706 1_556
Cl13 Nb10 2.464852 1_565
Cl14 Nb2 2.455000 1_555
Cl14 Nb1 2.467483 1_545
Cl14 Cs1 3.765167 1_555
Cl15 Nb0 2.455004 1_545
Cl15 Nb3 2.467477 1_555
Cl15 Cs1 3.765164 1_555
Cl16 Ti0 2.478582 1_555
Cl16 Nb7 2.734150 1_555
Cl16 Cs1 3.855523 1_555
Cl17 Nb6 2.460706 1_555
Cl17 Nb8 2.464852 1_555
Cl18 Nb5 2.460706 1_555
Cl18 Nb3 2.464852 1_555
Cl19 Ti1 2.478582 1_555
Cl19 Nb4 2.734150 1_555
Cl19 Cs0 3.855523 1_555
Cl20 Nb11 2.455004 1_565
Cl20 Nb8 2.467477 1_555
Cl20 Cs0 3.765164 1_555
Cl21 Nb9 2.455000 1_555
Cl21 Nb10 2.467483 1_565
Cl21 Cs0 3.765167 1_555
Cl22 Nb4 2.460706 1_554
Cl22 Nb1 2.464852 1_545
Cl23 Ti1 2.478582 1_555
Cl23 Nb8 2.734150 1_555
Cl23 Cs0 3.855523 1_555
Cl24 Ti1 2.478573 1_555
Cl24 Nb5 2.734148 1_555
Cl24 Cs0 3.855523 1_545
Cl25 Nb9 2.460706 1_554
Cl25 Nb7 2.464852 1_555
Cl26 Nb6 2.455000 1_555
Cl26 Nb0 2.467483 1_655
Cl26 Cs1 3.765167 1_555
Cl27 Nb1 2.455004 1_655
Cl27 Nb7 2.467477 1_555
Cl27 Cs1 3.765164 1_555
Cl28 Nb8 2.460706 1_555
Cl28 Nb0 2.464852 1_655
Cl29 Ti1 2.478567 1_555
Cl29 Nb10 2.734155 1_555
Cl29 Cs0 3.855523 1_545
Cl30 Ti1 2.478573 1_555
Cl30 Nb9 2.734148 1_555
Cl30 Cs0 3.855523 1_655
Cl31 Nb11 2.460706 1_555
Cl31 Nb6 2.464852 1_545
Cl32 Ti1 2.478567 1_555
Cl32 Nb11 2.734155 1_555
Cl32 Cs0 3.855523 1_655
Cl33 Nb10 2.460706 1_554
Cl33 Nb2 2.464852 1_655
Cl34 Nb7 2.455007 1_545
Cl34 Nb2 2.467482 1_655
Cl34 Cs1 3.765151 1_555
Cl35 Nb3 2.455007 1_655
Cl35 Nb6 2.467482 1_545
Cl35 Cs1 3.765151 1_555
