# generated using pymatgen
data_Li4Fe(BO3)2
_symmetry_space_group_name_H-M   'P 1'
_cell_length_a   6.72815991
_cell_length_b   9.89930699
_cell_length_c   7.84312772
_cell_angle_alpha   89.98682051
_cell_angle_beta   90.08528593
_cell_angle_gamma   70.13255234
_symmetry_Int_Tables_number   1
_chemical_formula_structural   Li4Fe(BO3)2
_chemical_formula_sum   'Li16 Fe4 B8 O24'
_cell_volume   491.29230669
_cell_formula_units_Z   4
loop_
 _symmetry_equiv_pos_site_id
 _symmetry_equiv_pos_as_xyz
  1  'x, y, z'
loop_
 _atom_site_type_symbol
 _atom_site_label
 _atom_site_symmetry_multiplicity
 _atom_site_fract_x
 _atom_site_fract_y
 _atom_site_fract_z
 _atom_site_occupancy
  Li  Li0  1  0.22314100  0.05403200  0.17561900  1
  Li  Li1  1  0.72312400  0.05385400  0.17550200  1
  Li  Li2  1  0.77718000  0.44610900  0.67548700  1
  Li  Li3  1  0.27677500  0.44581700  0.67569000  1
  Li  Li4  1  0.72322300  0.55418400  0.32430900  1
  Li  Li5  1  0.22282300  0.55389400  0.32451300  1
  Li  Li6  1  0.77685600  0.94597200  0.82437800  1
  Li  Li7  1  0.27687700  0.94615100  0.82449500  1
  Li  Li8  1  0.90047300  0.19929000  0.00840000  1
  Li  Li9  1  0.40010600  0.19979800  0.00845400  1
  Li  Li10  1  0.09990400  0.30030900  0.50855200  1
  Li  Li11  1  0.59972500  0.30065700  0.50848600  1
  Li  Li12  1  0.90009400  0.69969200  0.49145300  1
  Li  Li13  1  0.40027900  0.69934500  0.49151600  1
  Li  Li14  1  0.59989100  0.80020600  0.99154600  1
  Li  Li15  1  0.09952900  0.80071400  0.99160000  1
  Fe  Fe0  1  0.49999000  0.99998200  0.49998600  1
  Fe  Fe1  1  0.50002400  0.49993100  0.99994700  1
  Fe  Fe2  1  0.00004100  0.99993600  0.50003600  1
  Fe  Fe3  1  0.99995700  0.50007500  0.00001300  1
  B  B0  1  0.14882800  0.20151900  0.77019200  1
  B  B1  1  0.64900100  0.20167600  0.77006900  1
  B  B2  1  0.85084000  0.29841900  0.26991800  1
  B  B3  1  0.35090900  0.29843300  0.27041200  1
  B  B4  1  0.64908800  0.70157400  0.72958700  1
  B  B5  1  0.14915800  0.70158700  0.73008300  1
  B  B6  1  0.85117300  0.79848300  0.22981000  1
  B  B7  1  0.35099700  0.79832600  0.22993100  1
  O  O0  1  0.19137300  0.11559300  0.62077300  1
  O  O1  1  0.69138100  0.11576200  0.62039500  1
  O  O2  1  0.80807500  0.38450600  0.11994100  1
  O  O3  1  0.30795200  0.38413600  0.12080400  1
  O  O4  1  0.69204400  0.61586700  0.87919600  1
  O  O5  1  0.19192600  0.61549700  0.88005900  1
  O  O6  1  0.80863000  0.88440900  0.37922700  1
  O  O7  1  0.30862200  0.88424100  0.37960600  1
  O  O8  1  0.92565600  0.14902300  0.25671200  1
  O  O9  1  0.42620800  0.14887100  0.25720300  1
  O  O10  1  0.07408900  0.35094600  0.75652800  1
  O  O11  1  0.57477300  0.35117800  0.75686200  1
  O  O12  1  0.92591200  0.64905700  0.24347400  1
  O  O13  1  0.42522400  0.64882400  0.24314100  1
  O  O14  1  0.57379300  0.85113400  0.74279900  1
  O  O15  1  0.07434200  0.85097900  0.74328900  1
  O  O16  1  0.18210700  0.13582500  0.92607900  1
  O  O17  1  0.68213500  0.13580600  0.92573400  1
  O  O18  1  0.81772100  0.36422900  0.42541700  1
  O  O19  1  0.31784500  0.36413500  0.42613500  1
  O  O20  1  0.68215600  0.63586600  0.57386800  1
  O  O21  1  0.18227800  0.63577400  0.57458300  1
  O  O22  1  0.81789300  0.86417700  0.07392300  1
  O  O23  1  0.31786200  0.86419800  0.07426900  1
loop_
_geom_bond_atom_site_label_1
_geom_bond_atom_site_label_2
_geom_bond_distance
_geom_bond_site_symmetry_2
Li0 O23 1.938474 1_545
Li0 O8 2.004915 1_455
Li0 O9 2.006754 1_555
Li0 O16 2.099543 1_554
Li0 O7 2.248233 1_545
Li1 O22 1.937880 1_545
Li1 O9 2.003264 1_555
Li1 O8 2.005090 1_555
Li1 O17 2.101746 1_554
Li1 O6 2.244510 1_545
Li2 O20 1.937552 1_555
Li2 O10 1.999729 1_655
Li2 O11 2.004298 1_555
Li2 O18 2.104821 1_555
Li2 O4 2.248229 1_555
Li3 O21 1.937610 1_555
Li3 O10 2.004118 1_555
Li3 O11 2.005533 1_555
Li3 O19 2.100391 1_555
Li3 O5 2.251401 1_555
Li4 O18 1.937596 1_555
Li4 O12 2.004142 1_555
Li4 O13 2.005530 1_555
Li4 O20 2.100421 1_555
Li4 O2 2.251382 1_555
Li5 O19 1.937578 1_555
Li5 O12 1.999736 1_455
Li5 O13 2.004250 1_555
Li5 O21 2.104821 1_555
Li5 O3 2.248229 1_555
Li6 O17 1.938494 1_565
Li6 O15 2.004913 1_655
Li6 O14 2.006712 1_555
Li6 O22 2.099586 1_556
Li6 O1 2.248204 1_565
Li7 O16 1.937871 1_565
Li7 O14 2.003252 1_555
Li7 O15 2.005118 1_555
Li7 O23 2.101793 1_556
Li7 O0 2.244474 1_565
Li8 O16 1.896528 1_654
Li8 O17 1.896881 1_554
Li8 O2 1.934213 1_555
Li8 O8 2.002626 1_555
Li9 O16 1.896966 1_554
Li9 O17 1.899919 1_554
Li9 O3 1.929820 1_555
Li9 O9 2.007395 1_555
Li10 O19 1.897253 1_555
Li10 O18 1.899921 1_455
Li10 O0 1.931277 1_555
Li10 O10 2.001595 1_555
Li11 O19 1.896055 1_555
Li11 O18 1.897840 1_555
Li11 O1 1.931647 1_555
Li11 O11 2.004380 1_555
Li12 O20 1.897230 1_555
Li12 O21 1.899914 1_655
Li12 O6 1.931304 1_555
Li12 O12 2.001614 1_555
Li13 O20 1.896040 1_555
Li13 O21 1.897858 1_555
Li13 O7 1.931659 1_555
Li13 O13 2.004372 1_555
Li14 O22 1.896978 1_556
Li14 O23 1.899927 1_556
Li14 O4 1.929828 1_555
Li14 O14 2.007382 1_555
Li15 O22 1.896545 1_456
Li15 O23 1.896859 1_556
Li15 O5 1.934221 1_555
Li15 O15 2.002614 1_555
Fe0 O7 2.204894 1_555
Fe0 O1 2.205386 1_565
Fe0 O6 2.215790 1_555
Fe0 O0 2.215841 1_565
Fe0 O14 2.354383 1_555
Fe0 O9 2.354418 1_565
Fe1 O2 2.207056 1_556
Fe1 O5 2.207221 1_555
Fe1 O3 2.211901 1_556
Fe1 O4 2.212279 1_555
Fe1 O11 2.357338 1_555
Fe1 O13 2.358796 1_556
Fe2 O6 2.205034 1_455
Fe2 O0 2.205311 1_565
Fe2 O7 2.214622 1_555
Fe2 O1 2.215046 1_465
Fe2 O15 2.357763 1_555
Fe2 O8 2.358924 1_465
Fe3 O5 2.205693 1_654
Fe3 O2 2.206203 1_555
Fe3 O4 2.209823 1_554
Fe3 O3 2.210447 1_655
Fe3 O12 2.360972 1_555
Fe3 O10 2.361929 1_654
B0 O16 1.366659 1_555
B0 O10 1.395220 1_555
B0 O0 1.419441 1_555
B1 O17 1.365836 1_555
B1 O11 1.395654 1_555
B1 O1 1.421032 1_555
B2 O18 1.365283 1_555
B2 O8 1.394826 1_555
B2 O2 1.422870 1_555
B3 O19 1.366402 1_555
B3 O9 1.396373 1_555
B3 O3 1.418464 1_555
B4 O20 1.366399 1_555
B4 O14 1.396357 1_555
B4 O4 1.418491 1_555
B5 O21 1.365302 1_555
B5 O15 1.394789 1_555
B5 O5 1.422879 1_555
B6 O22 1.366659 1_555
B6 O12 1.395211 1_555
B6 O6 1.419428 1_555
B7 O23 1.365823 1_555
B7 O13 1.395655 1_555
B7 O7 1.421044 1_555
