# generated using pymatgen
data_Li5SbS
_symmetry_space_group_name_H-M   'P 1'
_cell_length_a   8.72463700
_cell_length_b   6.25573900
_cell_length_c   9.07324842
_cell_angle_alpha   88.53237394
_cell_angle_beta   90.00000000
_cell_angle_gamma   90.00000000
_symmetry_Int_Tables_number   1
_chemical_formula_structural   Li5SbS
_chemical_formula_sum   'Li20 Sb4 S4'
_cell_volume   495.04684661
_cell_formula_units_Z   4
loop_
 _symmetry_equiv_pos_site_id
 _symmetry_equiv_pos_as_xyz
  1  'x, y, z'
loop_
 _atom_site_type_symbol
 _atom_site_label
 _atom_site_symmetry_multiplicity
 _atom_site_fract_x
 _atom_site_fract_y
 _atom_site_fract_z
 _atom_site_occupancy
  Li  Li0  1  0.74762200  0.93546700  0.48881600  1
  Li  Li1  1  0.52171000  0.22796400  0.99562300  1
  Li  Li2  1  0.29584100  0.19606100  0.21970000  1
  Li  Li3  1  0.52848500  0.28362300  0.47360800  1
  Li  Li4  1  0.25563900  0.29285700  0.74280800  1
  Li  Li5  1  0.98805800  0.27665800  0.50556500  1
  Li  Li6  1  0.75059500  0.18848600  0.21163000  1
  Li  Li7  1  0.78105600  0.27910000  0.73588700  1
  Li  Li8  1  0.02730700  0.44992100  0.20998300  1
  Li  Li9  1  0.02329500  0.22951400  0.96110500  1
  Li  Li10  1  0.52329500  0.77048600  0.03889500  1
  Li  Li11  1  0.52730700  0.55007900  0.79001700  1
  Li  Li12  1  0.28105600  0.72090000  0.26411300  1
  Li  Li13  1  0.25059500  0.81151400  0.78837000  1
  Li  Li14  1  0.48805800  0.72334200  0.49443500  1
  Li  Li15  1  0.75563900  0.70714300  0.25719200  1
  Li  Li16  1  0.02848500  0.71637700  0.52639200  1
  Li  Li17  1  0.79584100  0.80393900  0.78030000  1
  Li  Li18  1  0.02171000  0.77203600  0.00437700  1
  Li  Li19  1  0.24762200  0.06453300  0.51118400  1
  Sb  Sb0  1  0.51865900  0.01225000  0.72386800  1
  Sb  Sb1  1  0.27358900  0.50267000  0.00174700  1
  Sb  Sb2  1  0.77358900  0.49733000  0.99825300  1
  Sb  Sb3  1  0.01865900  0.98775000  0.27613200  1
  S  S0  1  0.02481000  0.02339100  0.72540600  1
  S  S1  1  0.26183600  0.47204600  0.48920900  1
  S  S2  1  0.76183600  0.52795400  0.51079100  1
  S  S3  1  0.52481000  0.97660900  0.27459400  1
loop_
_geom_bond_atom_site_label_1
_geom_bond_atom_site_label_2
_geom_bond_distance
_geom_bond_site_symmetry_2
Li0 S2 2.554995 1_555
Li0 S3 2.756356 1_555
Li0 Sb0 2.970189 1_565
Li0 Sb3 3.064363 1_655
Li1 Li11 2.711174 1_555
Li1 Sb1 2.765392 1_556
Li1 Sb2 2.769724 1_555
Li1 Li6 2.804481 1_556
Li1 Li2 2.834772 1_556
Li1 Sb0 2.841099 1_555
Li1 Li10 2.878722 1_546
Li1 S3 2.945534 1_546
Li2 S3 2.467471 1_545
Li2 Sb1 2.726361 1_555
Li2 Sb3 2.788260 1_545
Li2 Li8 2.830478 1_555
Li3 S2 2.573200 1_555
Li3 S1 2.613463 1_555
Li3 S3 2.669821 1_545
Li3 Sb0 2.801395 1_555
Li4 S1 2.534127 1_555
Li4 S0 2.633623 1_555
Li4 Sb1 2.724885 1_556
Li4 Sb0 2.896951 1_555
Li5 S2 2.524459 1_555
Li5 S0 2.535721 1_655
Li5 S1 2.685557 1_655
Li5 Sb3 2.804272 1_645
Li5 Li8 2.887161 1_655
Li6 S3 2.434105 1_545
Li6 Sb2 2.707330 1_554
Li6 Sb3 2.711380 1_645
Li6 Li8 2.915844 1_655
Li7 S2 2.541648 1_555
Li7 S0 2.664285 1_655
Li7 Sb2 2.775121 1_555
Li7 Sb0 2.837059 1_555
Li8 Li9 2.676002 1_554
Li8 Sb1 2.874665 1_555
Li8 Sb3 2.938739 1_545
Li8 Sb2 2.940975 1_454
Li9 S0 2.525378 1_555
Li9 Sb2 2.774117 1_455
Li9 Sb1 2.803013 1_556
Li9 Sb3 3.199620 1_546
Li10 S3 2.525378 1_555
Li10 Li11 2.676002 1_554
Li10 Sb1 2.774117 1_555
Li10 Sb2 2.803013 1_554
Li10 Sb0 3.199620 1_564
Li11 Li17 2.830478 1_555
Li11 Li7 2.838783 1_555
Li11 Sb2 2.874665 1_555
Li11 Li14 2.887161 1_555
Li11 Li4 2.902740 1_555
Li11 Li13 2.915844 1_555
Li11 Sb0 2.938739 1_565
Li11 Sb1 2.940975 1_556
Li12 S1 2.541648 1_555
Li12 S3 2.664285 1_555
Li12 Sb1 2.775121 1_555
Li12 Sb3 2.837059 1_555
Li12 Li8 2.838783 1_555
Li13 S0 2.434105 1_565
Li13 Sb1 2.707330 1_556
Li13 Sb0 2.711380 1_565
Li13 Li18 2.804481 1_556
Li14 S1 2.524459 1_555
Li14 S3 2.535721 1_555
Li14 S2 2.685557 1_555
Li14 Sb0 2.804272 1_565
Li15 S2 2.534127 1_555
Li15 S3 2.633623 1_555
Li15 Sb2 2.724885 1_554
Li15 Sb3 2.896951 1_655
Li15 Li8 2.902740 1_655
Li16 S1 2.573200 1_555
Li16 S2 2.613463 1_455
Li16 S0 2.669821 1_565
Li16 Sb3 2.801395 1_555
Li17 S0 2.467471 1_665
Li17 Sb2 2.726361 1_555
Li17 Sb0 2.788260 1_565
Li17 Li18 2.834772 1_656
Li18 Li8 2.711174 1_555
Li18 Sb2 2.765392 1_454
Li18 Sb1 2.769724 1_555
Li18 Sb3 2.841099 1_555
Li18 Li9 2.878722 1_564
Li18 S0 2.945534 1_564
Li19 S1 2.554995 1_555
Li19 S0 2.756356 1_555
Li19 Sb3 2.970189 1_545
Li19 Sb0 3.064363 1_555
