# generated using pymatgen
data_Li2Cr3CoO8
_symmetry_space_group_name_H-M   'P 1'
_cell_length_a   5.90942843
_cell_length_b   5.90942843
_cell_length_c   5.90942869
_cell_angle_alpha   59.69062350
_cell_angle_beta   59.69062350
_cell_angle_gamma   59.69061099
_symmetry_Int_Tables_number   1
_chemical_formula_structural   Li2Cr3CoO8
_chemical_formula_sum   'Li2 Cr3 Co1 O8'
_cell_volume   144.89669365
_cell_formula_units_Z   1
loop_
 _symmetry_equiv_pos_site_id
 _symmetry_equiv_pos_as_xyz
  1  'x, y, z'
loop_
 _atom_site_type_symbol
 _atom_site_label
 _atom_site_symmetry_multiplicity
 _atom_site_fract_x
 _atom_site_fract_y
 _atom_site_fract_z
 _atom_site_occupancy
  Li  Li0  1  0.87667500  0.87667500  0.87667500  1
  Li  Li1  1  0.49949400  0.49949400  0.49949400  1
  Cr  Cr0  1  0.50159100  0.50159100  0.99382600  1
  Cr  Cr1  1  0.50159100  0.99382600  0.50159100  1
  Cr  Cr2  1  0.99382600  0.50159100  0.50159100  1
  Co  Co0  1  0.12073100  0.12073100  0.12073100  1
  O  O0  1  0.74022300  0.74022300  0.74022300  1
  O  O1  1  0.29110500  0.75075600  0.75075600  1
  O  O2  1  0.75075600  0.29110500  0.75075600  1
  O  O3  1  0.75075600  0.75075600  0.29110500  1
  O  O4  1  0.25202700  0.25202700  0.71131400  1
  O  O5  1  0.25202700  0.71131400  0.25202700  1
  O  O6  1  0.71131400  0.25202700  0.25202700  1
  O  O7  1  0.25788400  0.25788400  0.25788400  1
loop_
_geom_bond_atom_site_label_1
_geom_bond_atom_site_label_2
_geom_bond_distance
_geom_bond_site_symmetry_2
Li0 O0 1.979760 1_555
Li0 O2 1.996331 1_565
Li0 O1 1.996331 1_655
Li0 O3 1.996331 1_556
Li1 O5 2.075408 1_555
Li1 O6 2.075408 1_555
Li1 O4 2.075408 1_555
Li1 O2 2.111866 1_555
Li1 O1 2.111866 1_555
Li1 O3 2.111866 1_555
Cr0 O2 1.896969 1_555
Cr0 O1 1.896969 1_555
Cr0 O5 1.957463 1_556
Cr0 O6 1.957463 1_556
Cr0 O0 1.991014 1_555
Cr0 O7 2.034708 1_556
Cr1 O3 1.896969 1_555
Cr1 O1 1.896969 1_555
Cr1 O4 1.957463 1_565
Cr1 O6 1.957463 1_565
Cr1 O0 1.991014 1_555
Cr1 O7 2.034707 1_565
Cr2 O3 1.896969 1_555
Cr2 O2 1.896969 1_555
Cr2 O4 1.957463 1_655
Cr2 O5 1.957463 1_655
Cr2 O0 1.991014 1_555
Cr2 O7 2.034707 1_655
Co0 O5 1.968697 1_545
Co0 O6 1.968697 1_455
Co0 O4 1.968697 1_554
Co0 O7 1.989931 1_555
