# generated using pymatgen
data_SrAsO5
_symmetry_space_group_name_H-M   'P 1'
_cell_length_a   7.13992300
_cell_length_b   9.32705300
_cell_length_c   13.15809300
_cell_angle_alpha   90.00000000
_cell_angle_beta   90.00000000
_cell_angle_gamma   90.00000000
_symmetry_Int_Tables_number   1
_chemical_formula_structural   SrAsO5
_chemical_formula_sum   'Sr8 As8 O40'
_cell_volume   876.25583792
_cell_formula_units_Z   8
loop_
 _symmetry_equiv_pos_site_id
 _symmetry_equiv_pos_as_xyz
  1  'x, y, z'
loop_
 _atom_site_type_symbol
 _atom_site_label
 _atom_site_symmetry_multiplicity
 _atom_site_fract_x
 _atom_site_fract_y
 _atom_site_fract_z
 _atom_site_occupancy
  Sr  Sr0  1  0.37287100  0.82326200  0.92593100  1
  Sr  Sr1  1  0.87287100  0.67673800  0.07406900  1
  Sr  Sr2  1  0.62712900  0.32326200  0.57406900  1
  Sr  Sr3  1  0.12712900  0.17673800  0.42593100  1
  Sr  Sr4  1  0.62712900  0.17673800  0.07406900  1
  Sr  Sr5  1  0.12712900  0.32326200  0.92593100  1
  Sr  Sr6  1  0.37287100  0.67673800  0.42593100  1
  Sr  Sr7  1  0.87287100  0.82326200  0.57406900  1
  As  As0  1  0.36328300  0.94231100  0.62781600  1
  As  As1  1  0.86328300  0.55768900  0.37218400  1
  As  As2  1  0.63671700  0.44231100  0.87218400  1
  As  As3  1  0.13671700  0.05768900  0.12781600  1
  As  As4  1  0.63671700  0.05768900  0.37218400  1
  As  As5  1  0.13671700  0.44231100  0.62781600  1
  As  As6  1  0.36328300  0.55768900  0.12781600  1
  As  As7  1  0.86328300  0.94231100  0.87218400  1
  O  O0  1  0.17299600  0.96120900  0.54986200  1
  O  O1  1  0.67299600  0.53879100  0.45013800  1
  O  O2  1  0.82700400  0.46120900  0.95013800  1
  O  O3  1  0.32700400  0.03879100  0.04986200  1
  O  O4  1  0.82700400  0.03879100  0.45013800  1
  O  O5  1  0.32700400  0.46120900  0.54986200  1
  O  O6  1  0.17299600  0.53879100  0.04986200  1
  O  O7  1  0.67299600  0.96120900  0.95013800  1
  O  O8  1  0.51852200  0.83204500  0.56897400  1
  O  O9  1  0.01852200  0.66795500  0.43102600  1
  O  O10  1  0.48147800  0.33204500  0.93102600  1
  O  O11  1  0.98147800  0.16795500  0.06897400  1
  O  O12  1  0.48147800  0.16795500  0.43102600  1
  O  O13  1  0.98147800  0.33204500  0.56897400  1
  O  O14  1  0.51852200  0.66795500  0.06897400  1
  O  O15  1  0.01852200  0.83204500  0.93102600  1
  O  O16  1  0.45741800  0.11031900  0.65855600  1
  O  O17  1  0.95741800  0.38968100  0.34144400  1
  O  O18  1  0.54258200  0.61031900  0.84144400  1
  O  O19  1  0.04258200  0.88968100  0.15855600  1
  O  O20  1  0.54258200  0.88968100  0.34144400  1
  O  O21  1  0.04258200  0.61031900  0.65855600  1
  O  O22  1  0.45741800  0.38968100  0.15855600  1
  O  O23  1  0.95741800  0.11031900  0.84144400  1
  O  O24  1  0.28712300  0.87668300  0.74471600  1
  O  O25  1  0.78712300  0.62331700  0.25528400  1
  O  O26  1  0.71287700  0.37668300  0.75528400  1
  O  O27  1  0.21287700  0.12331700  0.24471600  1
  O  O28  1  0.71287700  0.12331700  0.25528400  1
  O  O29  1  0.21287700  0.37668300  0.74471600  1
  O  O30  1  0.28712300  0.62331700  0.24471600  1
  O  O31  1  0.78712300  0.87668300  0.75528400  1
  O  O32  1  0.31970900  0.08618400  0.80267000  1
  O  O33  1  0.81970900  0.41381600  0.19733000  1
  O  O34  1  0.68029100  0.58618400  0.69733000  1
  O  O35  1  0.18029100  0.91381600  0.30267000  1
  O  O36  1  0.68029100  0.91381600  0.19733000  1
  O  O37  1  0.18029100  0.58618400  0.80267000  1
  O  O38  1  0.31970900  0.41381600  0.30267000  1
  O  O39  1  0.81970900  0.08618400  0.69733000  1
loop_
_geom_bond_atom_site_label_1
_geom_bond_atom_site_label_2
_geom_bond_distance
_geom_bond_site_symmetry_2
As0 O8 1.698741 1_555
As0 O0 1.711453 1_555
As0 O24 1.742521 1_555
As0 O16 1.752397 1_565
As1 O9 1.698741 1_655
As1 O1 1.711453 1_555
As1 O25 1.742521 1_555
As1 O17 1.752397 1_555
As2 O10 1.698741 1_555
As2 O2 1.711453 1_555
As2 O26 1.742521 1_555
As2 O18 1.752397 1_555
As3 O11 1.698741 1_455
As3 O3 1.711453 1_555
As3 O27 1.742521 1_555
As3 O19 1.752397 1_545
As4 O12 1.698741 1_555
As4 O4 1.711453 1_555
As4 O28 1.742521 1_555
As4 O20 1.752397 1_545
As5 O13 1.698741 1_455
As5 O5 1.711453 1_555
As5 O29 1.742521 1_555
As5 O21 1.752397 1_555
As6 O14 1.698741 1_555
As6 O6 1.711453 1_555
As6 O30 1.742521 1_555
As6 O22 1.752397 1_555
As7 O15 1.698741 1_655
As7 O7 1.711453 1_555
As7 O31 1.742521 1_555
As7 O23 1.752397 1_565
O0 Sr7 2.519679 1_455
O0 Sr3 2.609123 1_565
O1 Sr6 2.519679 1_555
O1 Sr2 2.609123 1_555
O2 Sr5 2.519679 1_655
O2 Sr1 2.609123 1_556
O3 Sr4 2.519679 1_555
O3 Sr0 2.609123 1_544
O4 Sr3 2.519679 1_655
O4 Sr7 2.609123 1_545
O5 Sr2 2.519679 1_555
O5 Sr6 2.609123 1_555
O6 Sr1 2.519679 1_455
O6 Sr5 2.609123 1_554
O7 Sr0 2.519679 1_555
O7 Sr4 2.609123 1_566
O8 Sr7 2.532238 1_555
O8 Sr6 2.592752 1_555
O9 Sr6 2.532238 1_555
O9 Sr7 2.592752 1_455
O10 Sr5 2.532238 1_555
O10 Sr4 2.592752 1_556
O11 Sr4 2.532238 1_555
O11 Sr5 2.592752 1_654
O12 Sr3 2.532238 1_555
O12 Sr2 2.592752 1_555
O13 Sr2 2.532238 1_555
O13 Sr3 2.592752 1_655
O14 Sr1 2.532238 1_555
O14 Sr0 2.592752 1_554
O15 Sr0 2.532238 1_555
O15 Sr1 2.592752 1_456
O16 Sr2 2.578534 1_555
O17 Sr3 2.578534 1_655
O18 Sr0 2.578534 1_555
O19 Sr1 2.578534 1_455
O20 Sr6 2.578534 1_555
O21 Sr7 2.578534 1_455
O22 Sr4 2.578534 1_555
O23 Sr5 2.578534 1_655
O24 Sr0 2.511706 1_555
O25 Sr1 2.511706 1_555
O26 Sr2 2.511706 1_555
O27 Sr3 2.511706 1_555
O28 Sr4 2.511706 1_555
O29 Sr5 2.511706 1_555
O30 Sr6 2.511706 1_555
O31 Sr7 2.511706 1_555
O32 Sr0 2.964504 1_545
O32 Sr5 3.067689 1_555
O33 Sr1 2.964504 1_555
O33 Sr4 3.067689 1_555
O34 Sr2 2.964504 1_555
O34 Sr7 3.067689 1_555
O35 Sr3 2.964504 1_565
O35 Sr6 3.067689 1_555
O36 Sr4 2.964504 1_565
O36 Sr1 3.067689 1_555
O37 Sr5 2.964504 1_555
O37 Sr0 3.067689 1_555
O38 Sr6 2.964504 1_555
O38 Sr3 3.067689 1_555
O39 Sr7 2.964504 1_545
O39 Sr2 3.067689 1_555
