# generated using pymatgen
data_Fe6OF11
_symmetry_space_group_name_H-M   'P 1'
_cell_length_a   4.83752893
_cell_length_b   4.83752893
_cell_length_c   9.69334400
_cell_angle_alpha   90.00000000
_cell_angle_beta   90.00000000
_cell_angle_gamma   90.45955343
_symmetry_Int_Tables_number   1
_chemical_formula_structural   Fe6OF11
_chemical_formula_sum   'Fe6 O1 F11'
_cell_volume   226.83329704
_cell_formula_units_Z   1
loop_
 _symmetry_equiv_pos_site_id
 _symmetry_equiv_pos_as_xyz
  1  'x, y, z'
loop_
 _atom_site_type_symbol
 _atom_site_label
 _atom_site_symmetry_multiplicity
 _atom_site_fract_x
 _atom_site_fract_y
 _atom_site_fract_z
 _atom_site_occupancy
  Fe  Fe0  1  0.00941400  0.00941400  0.65140700  1
  Fe  Fe1  1  0.00941400  0.00941400  0.34859300  1
  Fe  Fe2  1  0.00014700  0.00014700  0.00000000  1
  Fe  Fe3  1  0.48062600  0.48062600  0.50000000  1
  Fe  Fe4  1  0.50360200  0.50360200  0.83184700  1
  Fe  Fe5  1  0.50360200  0.50360200  0.16815300  1
  O  O0  1  0.19421000  0.19421000  0.50000000  1
  F  F0  1  0.19909000  0.19909000  0.17216600  1
  F  F1  1  0.19909000  0.19909000  0.82783400  1
  F  F2  1  0.70627400  0.29293800  0.66984100  1
  F  F3  1  0.70627400  0.29293800  0.33015900  1
  F  F4  1  0.70353500  0.30004300  0.00000000  1
  F  F5  1  0.29293800  0.70627400  0.66984100  1
  F  F6  1  0.29293800  0.70627400  0.33015900  1
  F  F7  1  0.30004300  0.70353500  0.00000000  1
  F  F8  1  0.78578400  0.78578400  0.50000000  1
  F  F9  1  0.80651100  0.80651100  0.82561600  1
  F  F10  1  0.80651100  0.80651100  0.17438400  1
loop_
_geom_bond_atom_site_label_1
_geom_bond_atom_site_label_2
_geom_bond_distance
_geom_bond_site_symmetry_2
Fe0 O0 1.933769 1_555
Fe1 O0 1.933769 1_555
Fe3 O0 1.951584 1_555
F0 Fe5 2.075251 1_555
F0 Fe1 2.143598 1_555
F0 Fe2 2.150035 1_555
F1 Fe4 2.075251 1_555
F1 Fe0 2.143598 1_555
F1 Fe2 2.150035 1_556
F2 Fe0 2.023815 1_655
F2 Fe4 2.117054 1_555
F2 Fe3 2.177660 1_555
F3 Fe1 2.023815 1_655
F3 Fe5 2.117054 1_555
F3 Fe3 2.177660 1_555
F4 Fe2 2.048642 1_655
F4 Fe5 2.139435 1_555
F4 Fe4 2.139435 1_554
F5 Fe0 2.023815 1_565
F5 Fe4 2.117054 1_555
F5 Fe3 2.177660 1_555
F6 Fe1 2.023815 1_565
F6 Fe5 2.117054 1_555
F6 Fe3 2.177660 1_555
F7 Fe2 2.048642 1_565
F7 Fe5 2.139435 1_555
F7 Fe4 2.139435 1_554
F8 Fe3 2.079288 1_555
F8 Fe0 2.115620 1_665
F8 Fe1 2.115620 1_665
F9 Fe4 2.064847 1_555
F9 Fe2 2.144328 1_666
F9 Fe0 2.182435 1_665
F10 Fe5 2.064847 1_555
F10 Fe2 2.144328 1_665
F10 Fe1 2.182435 1_665
