# generated using pymatgen
data_Co6O5F7
_symmetry_space_group_name_H-M   'P 1'
_cell_length_a   4.62199000
_cell_length_b   5.62938897
_cell_length_c   7.67263177
_cell_angle_alpha   87.07150345
_cell_angle_beta   88.11459564
_cell_angle_gamma   89.73116816
_symmetry_Int_Tables_number   1
_chemical_formula_structural   Co6O5F7
_chemical_formula_sum   'Co6 O5 F7'
_cell_volume   199.26449935
_cell_formula_units_Z   1
loop_
 _symmetry_equiv_pos_site_id
 _symmetry_equiv_pos_as_xyz
  1  'x, y, z'
loop_
 _atom_site_type_symbol
 _atom_site_label
 _atom_site_symmetry_multiplicity
 _atom_site_fract_x
 _atom_site_fract_y
 _atom_site_fract_z
 _atom_site_occupancy
  Co  Co0  1  0.50771300  0.51481300  0.00670400  1
  Co  Co1  1  0.48493500  0.16901600  0.33636000  1
  Co  Co2  1  0.55059000  0.82871500  0.64834800  1
  Co  Co3  1  0.97146500  0.34131200  0.68678300  1
  Co  Co4  1  0.00611600  0.65505700  0.31749300  1
  Co  Co5  1  0.96107400  0.97575800  0.98653000  1
  O  O0  1  0.80799100  0.03667900  0.76884100  1
  O  O1  1  0.79075600  0.70228000  0.09868900  1
  O  O2  1  0.70035700  0.53633300  0.78020600  1
  O  O3  1  0.70082400  0.85411300  0.43209600  1
  O  O4  1  0.30631800  0.48006600  0.22618900  1
  F  F0  1  0.80972600  0.35855100  0.44045100  1
  F  F1  1  0.71145400  0.20577700  0.10237700  1
  F  F2  1  0.29420300  0.13421900  0.57930600  1
  F  F3  1  0.30013400  0.81038500  0.89122900  1
  F  F4  1  0.18609600  0.96861500  0.22326300  1
  F  F5  1  0.21128600  0.30572000  0.90760800  1
  F  F6  1  0.19896000  0.62259100  0.56752800  1
loop_
_geom_bond_atom_site_label_1
_geom_bond_atom_site_label_2
_geom_bond_distance
_geom_bond_site_symmetry_2
Co0 O1 1.863619 1_555
Co0 O4 1.898838 1_555
Co0 O2 1.924900 1_554
Co0 F5 2.003954 1_554
Co0 F1 2.086086 1_555
Co0 F3 2.089101 1_554
Co1 F4 2.031501 1_545
Co1 F2 2.036254 1_555
Co1 F1 2.049961 1_555
Co1 F0 2.052023 1_555
Co1 O4 2.084055 1_555
Co1 O3 2.139234 1_545
Co2 O3 1.776655 1_555
Co2 O0 1.958747 1_565
Co2 O2 2.019168 1_555
Co2 F6 2.128345 1_555
Co2 F2 2.138152 1_565
Co2 F3 2.159396 1_555
Co3 O2 1.815937 1_555
Co3 O0 1.943888 1_555
Co3 F0 2.052794 1_555
Co3 F5 2.055796 1_655
Co3 F6 2.062609 1_655
Co3 F2 2.065245 1_655
Co4 O4 1.838514 1_555
Co4 O1 1.985378 1_455
Co4 O3 2.006022 1_455
Co4 F4 2.043096 1_555
Co4 F0 2.072918 1_455
Co4 F6 2.140883 1_555
Co5 O0 1.850654 1_565
Co5 O1 1.887268 1_556
Co5 F1 1.958050 1_566
Co5 F3 1.959005 1_655
Co5 F4 2.121073 1_656
Co5 F5 2.239088 1_665
