# generated using pymatgen
data_Ce5Y2O13
_symmetry_space_group_name_H-M   'P 1'
_cell_length_a   22.40921799
_cell_length_b   22.40921799
_cell_length_c   22.40921819
_cell_angle_alpha   9.80681800
_cell_angle_beta   9.80681800
_cell_angle_gamma   9.80681859
_symmetry_Int_Tables_number   1
_chemical_formula_structural   Ce5Y2O13
_chemical_formula_sum   'Ce5 Y2 O13'
_cell_volume   283.42324963
_cell_formula_units_Z   1
loop_
 _symmetry_equiv_pos_site_id
 _symmetry_equiv_pos_as_xyz
  1  'x, y, z'
loop_
 _atom_site_type_symbol
 _atom_site_label
 _atom_site_symmetry_multiplicity
 _atom_site_fract_x
 _atom_site_fract_y
 _atom_site_fract_z
 _atom_site_occupancy
  Ce  Ce0  1  0.57208900  0.57208900  0.57208900  1
  Ce  Ce1  1  0.85775600  0.85775600  0.85775600  1
  Ce  Ce2  1  0.14345300  0.14345300  0.14345300  1
  Ce  Ce3  1  0.42913500  0.42913500  0.42913500  1
  Ce  Ce4  1  0.71503100  0.71503100  0.71503100  1
  Y  Y0  1  0.00106600  0.00106600  0.00106600  1
  Y  Y1  1  0.28373600  0.28373600  0.28373600  1
  O  O0  1  0.60704300  0.60704300  0.60704300  1
  O  O1  1  0.96921600  0.96921600  0.96921600  1
  O  O2  1  0.89250100  0.89250100  0.89250100  1
  O  O3  1  0.53547800  0.53547800  0.53547800  1
  O  O4  1  0.24969600  0.24969600  0.24969600  1
  O  O5  1  0.17823600  0.17823600  0.17823600  1
  O  O6  1  0.82116700  0.82116700  0.82116700  1
  O  O7  1  0.74959300  0.74959300  0.74959300  1
  O  O8  1  0.10685000  0.10685000  0.10685000  1
  O  O9  1  0.46392300  0.46392300  0.46392300  1
  O  O10  1  0.03598100  0.03598100  0.03598100  1
  O  O11  1  0.39280700  0.39280700  0.39280700  1
  O  O12  1  0.67380800  0.67380800  0.67380800  1
loop_
_geom_bond_atom_site_label_1
_geom_bond_atom_site_label_2
_geom_bond_distance
_geom_bond_site_symmetry_2
Ce0 O4 2.329729 1_556
Ce0 O4 2.329729 1_565
Ce0 O4 2.329729 1_655
Ce0 O0 2.338402 1_555
Ce0 O2 2.374699 1_554
Ce0 O2 2.374699 1_455
Ce0 O2 2.374699 1_545
Ce0 O3 2.449254 1_555
Ce1 O2 2.324420 1_555
Ce1 O3 2.332157 1_556
Ce1 O3 2.332157 1_655
Ce1 O3 2.332157 1_565
Ce1 O5 2.373047 1_665
Ce1 O5 2.373047 1_566
Ce1 O5 2.373047 1_656
Ce1 O6 2.447782 1_555
Ce2 O5 2.326962 1_555
Ce2 O6 2.331988 1_445
Ce2 O6 2.331988 1_454
Ce2 O6 2.331988 1_544
Ce2 O9 2.373289 1_554
Ce2 O9 2.373289 1_455
Ce2 O9 2.373289 1_545
Ce2 O8 2.448719 1_555
Ce3 O9 2.327296 1_555
Ce3 O8 2.332009 1_556
Ce3 O8 2.332009 1_655
Ce3 O8 2.332009 1_565
Ce3 O7 2.373580 1_554
Ce3 O7 2.373580 1_545
Ce3 O7 2.373580 1_455
Ce3 O11 2.430321 1_555
Ce4 O7 2.312177 1_555
Ce4 O11 2.333305 1_556
Ce4 O11 2.333306 1_655
Ce4 O11 2.333306 1_565
Ce4 O10 2.361835 1_665
Ce4 O10 2.361835 1_566
Ce4 O10 2.361835 1_656
Ce4 O12 2.757794 1_555
O0 Y1 2.311249 1_556
O0 Y1 2.311249 1_565
O0 Y1 2.311249 1_655
O1 Y0 2.130746 1_666
O1 Y1 2.544805 1_665
O1 Y1 2.544805 1_656
O1 Y1 2.544805 1_566
O4 Y1 2.277256 1_555
O10 Y0 2.335793 1_555
O12 Y0 2.248810 1_665
O12 Y0 2.248810 1_566
O12 Y0 2.248810 1_656
