# generated using pymatgen
data_Li3MnSiO5
_symmetry_space_group_name_H-M   'P 1'
_cell_length_a   5.00750800
_cell_length_b   5.48688700
_cell_length_c   15.88359800
_cell_angle_alpha   90.00000000
_cell_angle_beta   90.00000000
_cell_angle_gamma   90.00000000
_symmetry_Int_Tables_number   1
_chemical_formula_structural   Li3MnSiO5
_chemical_formula_sum   'Li12 Mn4 Si4 O20'
_cell_volume   436.41187041
_cell_formula_units_Z   4
loop_
 _symmetry_equiv_pos_site_id
 _symmetry_equiv_pos_as_xyz
  1  'x, y, z'
loop_
 _atom_site_type_symbol
 _atom_site_label
 _atom_site_symmetry_multiplicity
 _atom_site_fract_x
 _atom_site_fract_y
 _atom_site_fract_z
 _atom_site_occupancy
  Li  Li0  1  0.99425700  0.16384700  0.59054600  1
  Li  Li1  1  0.99425700  0.66384700  0.90945400  1
  Li  Li2  1  0.49922600  0.83581700  0.99354300  1
  Li  Li3  1  0.49922600  0.33581700  0.50645700  1
  Li  Li4  1  0.50857200  0.82689500  0.80268600  1
  Li  Li5  1  0.50857200  0.32689500  0.69731400  1
  Li  Li6  1  0.49425700  0.83615300  0.40945400  1
  Li  Li7  1  0.49425700  0.33615300  0.09054600  1
  Li  Li8  1  0.99922600  0.16418300  0.00645700  1
  Li  Li9  1  0.99922600  0.66418300  0.49354300  1
  Li  Li10  1  0.00857200  0.67310500  0.30268600  1
  Li  Li11  1  0.00857200  0.17310500  0.19731400  1
  Mn  Mn0  1  0.00754600  0.67164300  0.69728200  1
  Mn  Mn1  1  0.00754600  0.17164300  0.80271800  1
  Mn  Mn2  1  0.50754600  0.82835700  0.19728200  1
  Mn  Mn3  1  0.50754600  0.32835700  0.30271800  1
  Si  Si0  1  0.00589300  0.66324700  0.09796500  1
  Si  Si1  1  0.00589300  0.16324700  0.40203500  1
  Si  Si2  1  0.50589300  0.83675300  0.59796500  1
  Si  Si3  1  0.50589300  0.33675300  0.90203500  1
  O  O0  1  0.09854400  0.84070100  0.79579200  1
  O  O1  1  0.09854400  0.34070100  0.70420800  1
  O  O2  1  0.10335300  0.88006400  0.39779200  1
  O  O3  1  0.10335300  0.38006400  0.10220800  1
  O  O4  1  0.10394500  0.81352100  0.01520700  1
  O  O5  1  0.10394500  0.31352100  0.48479300  1
  O  O6  1  0.10514100  0.81023800  0.18570200  1
  O  O7  1  0.10514100  0.31023800  0.31429800  1
  O  O8  1  0.16880500  0.82963600  0.60150800  1
  O  O9  1  0.16880500  0.32963600  0.89849200  1
  O  O10  1  0.59854400  0.15929900  0.20420800  1
  O  O11  1  0.59854400  0.65929900  0.29579200  1
  O  O12  1  0.60335300  0.11993600  0.60220800  1
  O  O13  1  0.60335300  0.61993600  0.89779200  1
  O  O14  1  0.60394500  0.68647900  0.51520700  1
  O  O15  1  0.60394500  0.18647900  0.98479300  1
  O  O16  1  0.60514100  0.68976200  0.68570200  1
  O  O17  1  0.60514100  0.18976200  0.81429800  1
  O  O18  1  0.66880500  0.67036400  0.10150800  1
  O  O19  1  0.66880500  0.17036400  0.39849200  1
loop_
_geom_bond_atom_site_label_1
_geom_bond_atom_site_label_2
_geom_bond_distance
_geom_bond_site_symmetry_2
Li0 O5 1.948757 1_655
Li0 O12 1.980907 1_555
Li0 O8 2.038878 1_645
Li0 O1 2.115106 1_655
Li1 O4 1.948757 1_656
Li1 O13 1.980907 1_555
Li1 O9 2.038878 1_655
Li1 O0 2.115106 1_655
Li2 O13 1.996997 1_555
Li2 O15 1.999058 1_565
Li2 O4 2.012781 1_556
Li2 O18 2.118022 1_556
Li3 O12 1.996997 1_555
Li3 O14 1.999058 1_555
Li3 O5 2.012781 1_555
Li3 O19 2.118022 1_555
Li4 O13 1.948525 1_555
Li4 O17 2.057178 1_565
Li4 O0 2.057531 1_555
Li4 O16 2.062191 1_555
Li5 O12 1.948525 1_555
Li5 O16 2.057178 1_555
Li5 O1 2.057531 1_555
Li5 O17 2.062191 1_555
Li6 O14 1.948757 1_555
Li6 O2 1.980907 1_555
Li6 O19 2.038878 1_565
Li6 O11 2.115106 1_555
Li7 O15 1.948757 1_554
Li7 O3 1.980907 1_555
Li7 O18 2.038878 1_555
Li7 O10 2.115106 1_555
Li8 O3 1.996997 1_655
Li8 O4 1.999058 1_645
Li8 O15 2.012781 1_554
Li8 O9 2.118022 1_654
Li9 O2 1.996997 1_655
Li9 O5 1.999058 1_655
Li9 O14 2.012781 1_555
Li9 O8 2.118022 1_655
Li10 O2 1.948525 1_555
Li10 O7 2.057178 1_555
Li10 O11 2.057531 1_455
Li10 O6 2.062191 1_555
Li11 O3 1.948525 1_555
Li11 O6 2.057178 1_545
Li11 O10 2.057531 1_455
Li11 O7 2.062191 1_555
Mn0 O0 1.875193 1_555
Mn0 O1 1.875372 1_555
Mn0 O8 1.928139 1_555
Mn0 O16 2.025864 1_455
Mn1 O1 1.875193 1_555
Mn1 O0 1.875372 1_545
Mn1 O9 1.928139 1_555
Mn1 O17 2.025864 1_455
Mn2 O11 1.875193 1_555
Mn2 O10 1.875372 1_565
Mn2 O18 1.928139 1_555
Mn2 O6 2.025864 1_555
Mn3 O10 1.875193 1_555
Mn3 O11 1.875372 1_555
Mn3 O19 1.928139 1_555
Mn3 O7 2.025864 1_555
O2 Si1 1.630028 1_565
O3 Si0 1.630028 1_555
O4 Si0 1.627524 1_555
O5 Si1 1.627524 1_555
O6 Si0 1.685092 1_555
O7 Si1 1.685092 1_555
O8 Si2 1.689360 1_555
O9 Si3 1.689360 1_555
O12 Si2 1.630028 1_545
O13 Si3 1.630028 1_555
O14 Si2 1.627524 1_555
O15 Si3 1.627524 1_555
O16 Si2 1.685092 1_555
O17 Si3 1.685092 1_555
O18 Si0 1.689360 1_655
O19 Si1 1.689360 1_655
