# generated using pymatgen
data_HoAsO4
_symmetry_space_group_name_H-M   'P 1'
_cell_length_a   6.97495400
_cell_length_b   6.64653100
_cell_length_c   8.11125722
_cell_angle_alpha   53.71747642
_cell_angle_beta   90.00000000
_cell_angle_gamma   90.00000000
_symmetry_Int_Tables_number   1
_chemical_formula_structural   HoAsO4
_chemical_formula_sum   'Ho4 As4 O16'
_cell_volume   303.12253907
_cell_formula_units_Z   4
loop_
 _symmetry_equiv_pos_site_id
 _symmetry_equiv_pos_as_xyz
  1  'x, y, z'
loop_
 _atom_site_type_symbol
 _atom_site_label
 _atom_site_symmetry_multiplicity
 _atom_site_fract_x
 _atom_site_fract_y
 _atom_site_fract_z
 _atom_site_occupancy
  Ho  Ho0  1  0.85417600  0.80661100  0.78217900  1
  Ho  Ho1  1  0.35417600  0.19338900  0.71782100  1
  Ho  Ho2  1  0.64582400  0.80661100  0.28217900  1
  Ho  Ho3  1  0.14582400  0.19338900  0.21782100  1
  As  As0  1  0.83876800  0.31056500  0.80109300  1
  As  As1  1  0.33876800  0.68943500  0.69890700  1
  As  As2  1  0.66123200  0.31056500  0.30109300  1
  As  As3  1  0.16123200  0.68943500  0.19890700  1
  O  O0  1  0.89540500  0.35657600  0.98359600  1
  O  O1  1  0.28560100  0.38198400  0.88820700  1
  O  O2  1  0.64978100  0.10490900  0.89802900  1
  O  O3  1  0.50801600  0.83748800  0.74695000  1
  O  O4  1  0.78560100  0.61801600  0.61179300  1
  O  O5  1  0.00801600  0.16251200  0.75305000  1
  O  O6  1  0.14978100  0.89509100  0.60197100  1
  O  O7  1  0.39540500  0.64342400  0.51640400  1
  O  O8  1  0.60459500  0.35657600  0.48359600  1
  O  O9  1  0.85021900  0.10490900  0.39802900  1
  O  O10  1  0.99198400  0.83748800  0.24695000  1
  O  O11  1  0.21439900  0.38198400  0.38820700  1
  O  O12  1  0.49198400  0.16251200  0.25305000  1
  O  O13  1  0.35021900  0.89509100  0.10197100  1
  O  O14  1  0.71439900  0.61801600  0.11179300  1
  O  O15  1  0.10459500  0.64342400  0.01640400  1
loop_
_geom_bond_atom_site_label_1
_geom_bond_atom_site_label_2
_geom_bond_distance
_geom_bond_site_symmetry_2
Ho0 O15 2.323331 1_656
Ho0 O14 2.388178 1_556
Ho0 O6 2.390861 1_655
Ho0 O4 2.400093 1_555
Ho0 O3 2.425682 1_555
Ho0 O0 2.432122 1_555
Ho0 O5 2.478175 1_665
Ho0 O9 2.515766 1_565
Ho1 O8 2.323331 1_555
Ho1 O11 2.388178 1_555
Ho1 O2 2.390861 1_555
Ho1 O1 2.400093 1_555
Ho1 O5 2.425682 1_555
Ho1 O7 2.432122 1_555
Ho1 O3 2.478175 1_545
Ho1 O13 2.515766 1_546
Ho2 O7 2.323331 1_555
Ho2 O4 2.388178 1_555
Ho2 O13 2.390861 1_555
Ho2 O14 2.400093 1_555
Ho2 O10 2.425682 1_555
Ho2 O8 2.432122 1_555
Ho2 O12 2.478175 1_565
Ho2 O2 2.515766 1_564
Ho3 O0 2.323331 1_454
Ho3 O1 2.388178 1_554
Ho3 O9 2.390861 1_455
Ho3 O11 2.400093 1_555
Ho3 O12 2.425682 1_555
Ho3 O15 2.432122 1_555
Ho3 O10 2.478175 1_445
Ho3 O6 2.515766 1_545
As0 O2 1.718201 1_555
As0 O4 1.719715 1_555
As0 O5 1.722676 1_655
As0 O0 1.725324 1_555
As1 O6 1.718201 1_555
As1 O1 1.719715 1_555
As1 O3 1.722676 1_555
As1 O7 1.725324 1_555
As2 O9 1.718201 1_555
As2 O14 1.719715 1_555
As2 O12 1.722676 1_555
As2 O8 1.725324 1_555
As3 O13 1.718201 1_555
As3 O11 1.719715 1_555
As3 O10 1.722676 1_455
As3 O15 1.725324 1_555
