# generated using pymatgen
data_Li3Mn2P2(CO7)2
_symmetry_space_group_name_H-M   'P 1'
_cell_length_a   6.47752500
_cell_length_b   8.29135435
_cell_length_c   10.11842589
_cell_angle_alpha   94.39232371
_cell_angle_beta   90.16802983
_cell_angle_gamma   90.40618416
_symmetry_Int_Tables_number   1
_chemical_formula_structural   Li3Mn2P2(CO7)2
_chemical_formula_sum   'Li6 Mn4 P4 C4 O28'
_cell_volume   541.82194007
_cell_formula_units_Z   2
loop_
 _symmetry_equiv_pos_site_id
 _symmetry_equiv_pos_as_xyz
  1  'x, y, z'
loop_
 _atom_site_type_symbol
 _atom_site_label
 _atom_site_symmetry_multiplicity
 _atom_site_fract_x
 _atom_site_fract_y
 _atom_site_fract_z
 _atom_site_occupancy
  Li  Li0  1  0.97728000  0.25947700  0.87557400  1
  Li  Li1  1  0.52083500  0.25934000  0.87224700  1
  Li  Li2  1  0.94617400  0.27520600  0.38010700  1
  Li  Li3  1  0.47071800  0.72955100  0.63073200  1
  Li  Li4  1  0.46751300  0.73603200  0.11671600  1
  Li  Li5  1  0.24190500  0.90298700  0.38251600  1
  Mn  Mn0  1  0.25221200  0.32951400  0.59751900  1
  Mn  Mn1  1  0.25263400  0.33154800  0.10415000  1
  Mn  Mn2  1  0.75836200  0.67083500  0.89900300  1
  Mn  Mn3  1  0.75336400  0.67117900  0.39743600  1
  P  P0  1  0.74592100  0.41977800  0.63770100  1
  P  P1  1  0.75084100  0.42233200  0.13455100  1
  P  P2  1  0.25431900  0.58025200  0.86174700  1
  P  P3  1  0.24895800  0.57985800  0.36034600  1
  C  C0  1  0.25376200  0.04183700  0.64510300  1
  C  C1  1  0.25200000  0.05039400  0.14857600  1
  C  C2  1  0.74437400  0.95402000  0.85724700  1
  C  C3  1  0.74921900  0.95415100  0.35354900  1
  O  O0  1  0.24005100  0.08379500  0.52337800  1
  O  O1  1  0.74615100  0.10120400  0.83457400  1
  O  O2  1  0.25513200  0.09853500  0.02830300  1
  O  O3  1  0.24513700  0.17056100  0.73371500  1
  O  O4  1  0.76922400  0.09663800  0.32823300  1
  O  O5  1  0.22818400  0.17258500  0.23898200  1
  O  O6  1  0.93713200  0.32322200  0.58820900  1
  O  O7  1  0.55973700  0.30926800  0.60269500  1
  O  O8  1  0.93999900  0.32561600  0.08062400  1
  O  O9  1  0.56464600  0.31369700  0.08880500  1
  O  O10  1  0.25422900  0.41040700  0.92168400  1
  O  O11  1  0.75699500  0.45391000  0.79384500  1
  O  O12  1  0.22940300  0.41887900  0.42534100  1
  O  O13  1  0.76666200  0.45701600  0.28803600  1
  O  O14  1  0.27575900  0.54326700  0.70931600  1
  O  O15  1  0.72998500  0.58390000  0.57581200  1
  O  O16  1  0.27483400  0.54006100  0.20825100  1
  O  O17  1  0.73425300  0.58824800  0.07500900  1
  O  O18  1  0.06332600  0.67849900  0.90244700  1
  O  O19  1  0.44121300  0.68297200  0.91544900  1
  O  O20  1  0.43284200  0.68826000  0.41286000  1
  O  O21  1  0.06587700  0.69455600  0.39140700  1
  O  O22  1  0.73591700  0.83441200  0.76413000  1
  O  O23  1  0.27644200  0.90240800  0.67741100  1
  O  O24  1  0.72778700  0.83170900  0.26206400  1
  O  O25  1  0.75394200  0.90165100  0.97537300  1
  O  O26  1  0.27371000  0.90878900  0.18080300  1
  O  O27  1  0.75248800  0.90142200  0.47325700  1
loop_
_geom_bond_atom_site_label_1
_geom_bond_atom_site_label_2
_geom_bond_distance
_geom_bond_site_symmetry_2
Li0 O1 2.005189 1_555
Li0 O8 2.119978 1_556
Li0 O10 2.208117 1_655
Li0 O3 2.341989 1_655
Li0 O11 2.355574 1_555
Li1 O1 1.987059 1_555
Li1 O10 2.177434 1_555
Li1 O9 2.220001 1_556
Li1 O3 2.346175 1_555
Li1 O11 2.395859 1_555
Li2 O4 1.906499 1_555
Li2 O6 2.113860 1_555
Li2 O13 2.173938 1_555
Li2 O12 2.207932 1_655
Li2 O5 2.439512 1_655
Li3 O23 1.945819 1_555
Li3 O15 2.125808 1_555
Li3 O14 2.186098 1_555
Li3 O20 2.217510 1_555
Li3 O22 2.305265 1_555
Li4 O26 1.983980 1_555
Li4 O19 2.056597 1_554
Li4 O17 2.149409 1_555
Li4 O16 2.294399 1_555
Li4 O24 2.328606 1_555
Li5 O0 1.987997 1_565
Li5 O26 2.056180 1_555
Li5 O21 2.071539 1_555
Li5 O20 2.215041 1_555
Mn0 O12 1.950326 1_555
Mn0 O3 1.978861 1_555
Mn0 O7 2.001116 1_555
Mn0 O14 2.032738 1_555
Mn0 O6 2.042948 1_455
Mn0 O0 2.117317 1_555
Mn1 O16 1.958518 1_555
Mn1 O5 1.974150 1_555
Mn1 O10 2.005306 1_554
Mn1 O2 2.023673 1_555
Mn1 O9 2.033048 1_555
Mn1 O8 2.038158 1_455
Mn2 O17 1.962602 1_556
Mn2 O18 1.976103 1_655
Mn2 O22 2.002041 1_555
Mn2 O25 2.008702 1_555
Mn2 O11 2.018366 1_555
Mn2 O19 2.064099 1_555
Mn3 O24 1.989047 1_555
Mn3 O15 2.001084 1_555
Mn3 O27 2.002209 1_555
Mn3 O13 2.021766 1_555
Mn3 O21 2.033740 1_655
Mn3 O20 2.087501 1_555
C0 O23 1.234879 1_545
C0 O0 1.308183 1_555
C0 O3 1.341910 1_555
C1 O26 1.251130 1_545
C1 O2 1.309654 1_555
C1 O5 1.322163 1_555
C2 O1 1.258860 1_565
C2 O25 1.304010 1_555
C2 O22 1.315308 1_555
C3 O4 1.233903 1_565
C3 O27 1.319024 1_555
C3 O24 1.326695 1_555
O6 P0 1.543394 1_555
O7 P0 1.533494 1_555
O8 P1 1.546908 1_555
O9 P1 1.548441 1_555
O10 P2 1.575362 1_555
O11 P0 1.584923 1_555
O12 P3 1.537076 1_555
O13 P1 1.560556 1_555
O14 P2 1.556155 1_555
O15 P0 1.544896 1_555
O16 P3 1.558812 1_555
O17 P1 1.547787 1_555
O18 P2 1.526313 1_555
O19 P2 1.548176 1_555
O20 P3 1.554635 1_555
O21 P3 1.543361 1_555
