# generated using pymatgen
data_TlGaO3
_symmetry_space_group_name_H-M   'P 1'
_cell_length_a   5.35239100
_cell_length_b   5.49830500
_cell_length_c   7.87435000
_cell_angle_alpha   90.00000000
_cell_angle_beta   90.00000000
_cell_angle_gamma   90.00000000
_symmetry_Int_Tables_number   1
_chemical_formula_structural   TlGaO3
_chemical_formula_sum   'Tl4 Ga4 O12'
_cell_volume   231.73486190
_cell_formula_units_Z   4
loop_
 _symmetry_equiv_pos_site_id
 _symmetry_equiv_pos_as_xyz
  1  'x, y, z'
loop_
 _atom_site_type_symbol
 _atom_site_label
 _atom_site_symmetry_multiplicity
 _atom_site_fract_x
 _atom_site_fract_y
 _atom_site_fract_z
 _atom_site_occupancy
  Tl  Tl0  1  0.01820100  0.94957100  0.75000000  1
  Tl  Tl1  1  0.48179900  0.44957100  0.75000000  1
  Tl  Tl2  1  0.51820100  0.55042900  0.25000000  1
  Tl  Tl3  1  0.98179900  0.05042900  0.25000000  1
  Ga  Ga0  1  0.00000000  0.50000000  0.00000000  1
  Ga  Ga1  1  0.00000000  0.50000000  0.50000000  1
  Ga  Ga2  1  0.50000000  0.00000000  0.00000000  1
  Ga  Ga3  1  0.50000000  0.00000000  0.50000000  1
  O  O0  1  0.11197700  0.45414900  0.25000000  1
  O  O1  1  0.20083900  0.20266900  0.56045200  1
  O  O2  1  0.20083900  0.20266900  0.93954800  1
  O  O3  1  0.29916100  0.70266900  0.56045200  1
  O  O4  1  0.29916100  0.70266900  0.93954800  1
  O  O5  1  0.38802300  0.95414900  0.25000000  1
  O  O6  1  0.61197700  0.04585100  0.75000000  1
  O  O7  1  0.70083900  0.29733100  0.06045200  1
  O  O8  1  0.70083900  0.29733100  0.43954800  1
  O  O9  1  0.79916100  0.79733100  0.06045200  1
  O  O10  1  0.79916100  0.79733100  0.43954800  1
  O  O11  1  0.88802300  0.54585100  0.75000000  1
loop_
_geom_bond_atom_site_label_1
_geom_bond_atom_site_label_2
_geom_bond_distance
_geom_bond_site_symmetry_2
Ga0 O7 2.008050 1_455
Ga0 O4 2.008050 1_554
Ga0 O9 2.013648 1_455
Ga0 O2 2.013648 1_554
Ga0 O11 2.073188 1_454
Ga0 O0 2.073188 1_555
Ga1 O8 2.008050 1_455
Ga1 O3 2.008050 1_555
Ga1 O10 2.013648 1_455
Ga1 O1 2.013648 1_555
Ga1 O11 2.073188 1_455
Ga1 O0 2.073188 1_555
Ga2 O9 2.008050 1_545
Ga2 O2 2.008050 1_554
Ga2 O7 2.013648 1_555
Ga2 O4 2.013648 1_544
Ga2 O6 2.073188 1_554
Ga2 O5 2.073188 1_545
Ga3 O1 2.008050 1_555
Ga3 O10 2.008050 1_545
Ga3 O8 2.013648 1_555
Ga3 O3 2.013648 1_545
Ga3 O6 2.073188 1_555
Ga3 O5 2.073188 1_545
O0 Tl2 2.237787 1_555
O0 Tl3 2.326560 1_455
O1 Tl0 2.262728 1_545
O1 Tl1 2.516370 1_555
O2 Tl0 2.262728 1_545
O2 Tl1 2.516370 1_555
O3 Tl1 2.262728 1_555
O3 Tl0 2.516370 1_555
O4 Tl1 2.262728 1_555
O4 Tl0 2.516370 1_555
O5 Tl3 2.237787 1_465
O5 Tl2 2.326560 1_555
O6 Tl0 2.237787 1_645
O6 Tl1 2.326560 1_555
O7 Tl2 2.262728 1_555
O7 Tl3 2.516370 1_555
O8 Tl2 2.262728 1_555
O8 Tl3 2.516370 1_555
O9 Tl3 2.262728 1_565
O9 Tl2 2.516370 1_555
O10 Tl3 2.262728 1_565
O10 Tl2 2.516370 1_555
O11 Tl1 2.237787 1_555
O11 Tl0 2.326560 1_655
