# generated using pymatgen
data_LiMoH6NO5
_symmetry_space_group_name_H-M   'P 1'
_cell_length_a   8.17452100
_cell_length_b   11.23366300
_cell_length_c   14.20895300
_cell_angle_alpha   90.00000000
_cell_angle_beta   90.00000000
_cell_angle_gamma   90.00000000
_symmetry_Int_Tables_number   1
_chemical_formula_structural   LiMoH6NO5
_chemical_formula_sum   'Li8 Mo8 H48 N8 O40'
_cell_volume   1304.80551255
_cell_formula_units_Z   8
loop_
 _symmetry_equiv_pos_site_id
 _symmetry_equiv_pos_as_xyz
  1  'x, y, z'
loop_
 _atom_site_type_symbol
 _atom_site_label
 _atom_site_symmetry_multiplicity
 _atom_site_fract_x
 _atom_site_fract_y
 _atom_site_fract_z
 _atom_site_occupancy
  Li  Li0  1  0.01580800  0.07331700  0.81953400  1
  Li  Li1  1  0.51580800  0.92668300  0.68046600  1
  Li  Li2  1  0.98419200  0.42668300  0.31953400  1
  Li  Li3  1  0.48419200  0.57331700  0.18046600  1
  Li  Li4  1  0.98419200  0.92668300  0.18046600  1
  Li  Li5  1  0.48419200  0.07331700  0.31953400  1
  Li  Li6  1  0.01580800  0.57331700  0.68046600  1
  Li  Li7  1  0.51580800  0.42668300  0.81953400  1
  Mo  Mo0  1  0.93209900  0.37542200  0.87006700  1
  Mo  Mo1  1  0.43209900  0.62457800  0.62993300  1
  Mo  Mo2  1  0.06790100  0.12457800  0.37006700  1
  Mo  Mo3  1  0.56790100  0.87542200  0.12993300  1
  Mo  Mo4  1  0.06790100  0.62457800  0.12993300  1
  Mo  Mo5  1  0.56790100  0.37542200  0.37006700  1
  Mo  Mo6  1  0.93209900  0.87542200  0.62993300  1
  Mo  Mo7  1  0.43209900  0.12457800  0.87006700  1
  H  H0  1  0.83917000  0.96626100  0.96390800  1
  H  H1  1  0.33917000  0.03373900  0.53609200  1
  H  H2  1  0.16083000  0.53373900  0.46390800  1
  H  H3  1  0.66083000  0.46626100  0.03609200  1
  H  H4  1  0.16083000  0.03373900  0.03609200  1
  H  H5  1  0.66083000  0.96626100  0.46390800  1
  H  H6  1  0.83917000  0.46626100  0.53609200  1
  H  H7  1  0.33917000  0.53373900  0.96390800  1
  H  H8  1  0.74549200  0.97487300  0.86905500  1
  H  H9  1  0.24549200  0.02512700  0.63094500  1
  H  H10  1  0.25450800  0.52512700  0.36905500  1
  H  H11  1  0.75450800  0.47487300  0.13094500  1
  H  H12  1  0.25450800  0.02512700  0.13094500  1
  H  H13  1  0.75450800  0.97487300  0.36905500  1
  H  H14  1  0.74549200  0.47487300  0.63094500  1
  H  H15  1  0.24549200  0.52512700  0.86905500  1
  H  H16  1  0.08510800  0.27223500  0.99943000  1
  H  H17  1  0.58510800  0.72776500  0.50057000  1
  H  H18  1  0.91489200  0.22776500  0.49943000  1
  H  H19  1  0.41489200  0.77223500  0.00057000  1
  H  H20  1  0.91489200  0.72776500  0.00057000  1
  H  H21  1  0.41489200  0.27223500  0.49943000  1
  H  H22  1  0.08510800  0.77223500  0.50057000  1
  H  H23  1  0.58510800  0.22776500  0.99943000  1
  H  H24  1  0.66356200  0.18546800  0.68767200  1
  H  H25  1  0.16356200  0.81453200  0.81232800  1
  H  H26  1  0.33643800  0.31453200  0.18767200  1
  H  H27  1  0.83643800  0.68546800  0.31232800  1
  H  H28  1  0.33643800  0.81453200  0.31232800  1
  H  H29  1  0.83643800  0.18546800  0.18767200  1
  H  H30  1  0.66356200  0.68546800  0.81232800  1
  H  H31  1  0.16356200  0.31453200  0.68767200  1
  H  H32  1  0.74038100  0.14062600  0.09359900  1
  H  H33  1  0.24038100  0.85937400  0.40640100  1
  H  H34  1  0.25961900  0.35937400  0.59359900  1
  H  H35  1  0.75961900  0.64062600  0.90640100  1
  H  H36  1  0.25961900  0.85937400  0.90640100  1
  H  H37  1  0.75961900  0.14062600  0.59359900  1
  H  H38  1  0.74038100  0.64062600  0.40640100  1
  H  H39  1  0.24038100  0.35937400  0.09359900  1
  H  H40  1  0.34403300  0.26311200  0.66404000  1
  H  H41  1  0.84403300  0.73688800  0.83596000  1
  H  H42  1  0.65596700  0.23688800  0.16404000  1
  H  H43  1  0.15596700  0.76311200  0.33596000  1
  H  H44  1  0.65596700  0.73688800  0.33596000  1
  H  H45  1  0.15596700  0.26311200  0.16404000  1
  H  H46  1  0.34403300  0.76311200  0.83596000  1
  H  H47  1  0.84403300  0.23688800  0.66404000  1
  N  N0  1  0.73530800  0.21443100  0.63324900  1
  N  N1  1  0.23530800  0.78556900  0.86675100  1
  N  N2  1  0.26469200  0.28556900  0.13324900  1
  N  N3  1  0.76469200  0.71443100  0.36675100  1
  N  N4  1  0.26469200  0.78556900  0.36675100  1
  N  N5  1  0.76469200  0.21443100  0.13324900  1
  N  N6  1  0.73530800  0.71443100  0.86675100  1
  N  N7  1  0.23530800  0.28556900  0.63324900  1
  O  O0  1  0.02950200  0.48949600  0.80391900  1
  O  O1  1  0.52950200  0.51050400  0.69608100  1
  O  O2  1  0.97049800  0.01050400  0.30391900  1
  O  O3  1  0.47049800  0.98949600  0.19608100  1
  O  O4  1  0.97049800  0.51050400  0.19608100  1
  O  O5  1  0.47049800  0.48949600  0.30391900  1
  O  O6  1  0.02950200  0.98949600  0.69608100  1
  O  O7  1  0.52950200  0.01050400  0.80391900  1
  O  O8  1  0.94662100  0.24157200  0.80734000  1
  O  O9  1  0.44662100  0.75842800  0.69266000  1
  O  O10  1  0.05337900  0.25842800  0.30734000  1
  O  O11  1  0.55337900  0.74157200  0.19266000  1
  O  O12  1  0.05337900  0.75842800  0.19266000  1
  O  O13  1  0.55337900  0.24157200  0.30734000  1
  O  O14  1  0.94662100  0.74157200  0.69266000  1
  O  O15  1  0.44662100  0.25842800  0.80734000  1
  O  O16  1  0.72244900  0.41034400  0.89284100  1
  O  O17  1  0.22244900  0.58965600  0.60715900  1
  O  O18  1  0.27755100  0.08965600  0.39284100  1
  O  O19  1  0.77755100  0.91034400  0.10715900  1
  O  O20  1  0.27755100  0.58965600  0.10715900  1
  O  O21  1  0.77755100  0.41034400  0.39284100  1
  O  O22  1  0.72244900  0.91034400  0.60715900  1
  O  O23  1  0.22244900  0.08965600  0.89284100  1
  O  O24  1  0.04484500  0.35252700  0.98539400  1
  O  O25  1  0.54484500  0.64747300  0.51460600  1
  O  O26  1  0.95515500  0.14747300  0.48539400  1
  O  O27  1  0.45515500  0.85252700  0.01460600  1
  O  O28  1  0.95515500  0.64747300  0.01460600  1
  O  O29  1  0.45515500  0.35252700  0.48539400  1
  O  O30  1  0.04484500  0.85252700  0.51460600  1
  O  O31  1  0.54484500  0.14747300  0.98539400  1
  O  O32  1  0.85140500  0.99281100  0.89903300  1
  O  O33  1  0.35140500  0.00718900  0.60096700  1
  O  O34  1  0.14859500  0.50718900  0.39903300  1
  O  O35  1  0.64859500  0.49281100  0.10096700  1
  O  O36  1  0.14859500  0.00718900  0.10096700  1
  O  O37  1  0.64859500  0.99281100  0.39903300  1
  O  O38  1  0.85140500  0.49281100  0.60096700  1
  O  O39  1  0.35140500  0.50718900  0.89903300  1
loop_
_geom_bond_atom_site_label_1
_geom_bond_atom_site_label_2
_geom_bond_distance
_geom_bond_site_symmetry_2
Li0 O32 1.974841 1_445
Li0 O8 1.980516 1_455
Li0 O23 1.992993 1_555
Li0 O6 1.994034 1_545
Li1 O33 1.974841 1_565
Li1 O9 1.980516 1_555
Li1 O22 1.992993 1_555
Li1 O7 1.994034 1_565
Li2 O34 1.974841 1_655
Li2 O10 1.980516 1_655
Li2 O21 1.992993 1_555
Li2 O4 1.994034 1_555
Li3 O35 1.974841 1_555
Li3 O11 1.980516 1_555
Li3 O20 1.992993 1_555
Li3 O5 1.994034 1_555
Li4 O36 1.974841 1_665
Li4 O12 1.980516 1_655
Li4 O19 1.992993 1_555
Li4 O2 1.994034 1_565
Li5 O37 1.974841 1_545
Li5 O13 1.980516 1_555
Li5 O18 1.992993 1_555
Li5 O3 1.994034 1_545
Li6 O38 1.974841 1_455
Li6 O14 1.980516 1_455
Li6 O17 1.992993 1_555
Li6 O0 1.994034 1_555
Li7 O39 1.974841 1_555
Li7 O15 1.980516 1_555
Li7 O16 1.992993 1_555
Li7 O1 1.994034 1_555
Mo0 O8 1.751962 1_555
Mo0 O0 1.777508 1_655
Mo0 O16 1.787648 1_555
Mo0 O24 1.897587 1_655
Mo1 O9 1.751962 1_555
Mo1 O1 1.777508 1_555
Mo1 O17 1.787648 1_555
Mo1 O25 1.897587 1_555
Mo2 O10 1.751962 1_555
Mo2 O2 1.777508 1_455
Mo2 O18 1.787648 1_555
Mo2 O26 1.897587 1_455
Mo3 O11 1.751962 1_555
Mo3 O3 1.777508 1_555
Mo3 O19 1.787648 1_555
Mo3 O27 1.897587 1_555
Mo4 O12 1.751962 1_555
Mo4 O4 1.777508 1_455
Mo4 O20 1.787648 1_555
Mo4 O28 1.897587 1_455
Mo5 O13 1.751962 1_555
Mo5 O5 1.777508 1_555
Mo5 O21 1.787648 1_555
Mo5 O29 1.897587 1_555
Mo6 O14 1.751962 1_555
Mo6 O6 1.777508 1_655
Mo6 O22 1.787648 1_555
Mo6 O30 1.897587 1_655
Mo7 O15 1.751962 1_555
Mo7 O7 1.777508 1_555
Mo7 O23 1.787648 1_555
Mo7 O31 1.897587 1_555
H0 O32 0.974004 1_555
H1 O33 0.974004 1_555
H2 O34 0.974004 1_555
H3 O35 0.974004 1_555
H4 O36 0.974004 1_555
H5 O37 0.974004 1_555
H6 O38 0.974004 1_555
H7 O39 0.974004 1_555
H8 O32 0.985715 1_555
H9 O33 0.985715 1_555
H10 O34 0.985715 1_555
H11 O35 0.985715 1_555
H12 O36 0.985715 1_555
H13 O37 0.985715 1_555
H14 O38 0.985715 1_555
H15 O39 0.985715 1_555
H16 O24 0.980642 1_555
H17 O25 0.980642 1_555
H18 O26 0.980642 1_555
H19 O27 0.980642 1_555
H20 O28 0.980642 1_555
H21 O29 0.980642 1_555
H22 O30 0.980642 1_555
H23 O31 0.980642 1_555
H24 N0 1.023627 1_555
H25 N1 1.023627 1_555
H26 N2 1.023627 1_555
H27 N3 1.023627 1_555
H28 N4 1.023627 1_555
H29 N5 1.023627 1_555
H30 N6 1.023627 1_555
H31 N7 1.023627 1_555
H32 N5 1.021912 1_555
H33 N4 1.021912 1_555
H34 N7 1.021912 1_555
H35 N6 1.021912 1_555
H36 N1 1.021912 1_555
H37 N0 1.021912 1_555
H38 N3 1.021912 1_555
H39 N2 1.021912 1_555
H40 N7 1.022241 1_555
H41 N6 1.022241 1_555
H42 N5 1.022241 1_555
H43 N4 1.022241 1_555
H44 N3 1.022241 1_555
H45 N2 1.022241 1_555
H46 N1 1.022241 1_555
H47 N0 1.022241 1_555
