# generated using pymatgen
data_RbLiMn3O4
_symmetry_space_group_name_H-M   'P 1'
_cell_length_a   6.29675700
_cell_length_b   8.11884721
_cell_length_c   8.12093197
_cell_angle_alpha   96.73893192
_cell_angle_beta   100.57293078
_cell_angle_gamma   101.20969772
_symmetry_Int_Tables_number   1
_chemical_formula_structural   RbLiMn3O4
_chemical_formula_sum   'Rb3 Li3 Mn9 O12'
_cell_volume   395.25469337
_cell_formula_units_Z   3
loop_
 _symmetry_equiv_pos_site_id
 _symmetry_equiv_pos_as_xyz
  1  'x, y, z'
loop_
 _atom_site_type_symbol
 _atom_site_label
 _atom_site_symmetry_multiplicity
 _atom_site_fract_x
 _atom_site_fract_y
 _atom_site_fract_z
 _atom_site_occupancy
  Rb  Rb0  1  0.00363000  0.33024000  0.33384400  1
  Rb  Rb1  1  0.00045300  0.99170700  0.00083200  1
  Rb  Rb2  1  0.99395900  0.67023900  0.67282200  1
  Li  Li0  1  0.43813700  0.14852200  0.32972000  1
  Li  Li1  1  0.55909800  0.84897800  0.66948300  1
  Li  Li2  1  0.81625000  0.58117100  0.02718000  1
  Mn  Mn0  1  0.55386400  0.18975400  0.00658900  1
  Mn  Mn1  1  0.79541700  0.23397900  0.68773400  1
  Mn  Mn2  1  0.19712100  0.08530200  0.63654500  1
  Mn  Mn3  1  0.17519600  0.42480800  0.97406800  1
  Mn  Mn4  1  0.45413600  0.49172900  0.67257700  1
  Mn  Mn5  1  0.55623400  0.51323500  0.32948500  1
  Mn  Mn6  1  0.80030200  0.91114200  0.36155100  1
  Mn  Mn7  1  0.18854600  0.75753200  0.30862900  1
  Mn  Mn8  1  0.46120300  0.81359100  0.99510400  1
  O  O0  1  0.82931500  0.32989400  0.94643800  1
  O  O1  1  0.61615700  0.02255400  0.18834100  1
  O  O2  1  0.61357900  0.34989000  0.51826800  1
  O  O3  1  0.63352100  0.68324100  0.85915800  1
  O  O4  1  0.16126400  0.00760200  0.37865600  1
  O  O5  1  0.16462500  0.33840800  0.71490300  1
  O  O6  1  0.83474400  0.66216400  0.28236000  1
  O  O7  1  0.83756400  0.99074400  0.62057200  1
  O  O8  1  0.36677800  0.31423200  0.14308000  1
  O  O9  1  0.38404800  0.64853500  0.47874300  1
  O  O10  1  0.38903000  0.98348800  0.81245100  1
  O  O11  1  0.17583100  0.67732300  0.05086800  1
loop_
_geom_bond_atom_site_label_1
_geom_bond_atom_site_label_2
_geom_bond_distance
_geom_bond_site_symmetry_2
Li0 O4 2.022822 1_555
Li0 O1 2.064731 1_555
Li0 O2 2.080215 1_555
Li0 O8 2.184705 1_555
Li1 O7 2.033534 1_555
Li1 O10 2.073830 1_555
Li1 O9 2.084959 1_555
Li1 O3 2.206712 1_555
Li2 O3 1.983029 1_554
Li2 O6 2.074185 1_555
Li2 O0 2.090393 1_554
Li2 O11 2.211489 1_655
Mn0 O0 2.053180 1_554
Mn0 O8 2.077717 1_555
Mn0 O10 2.114565 1_544
Mn0 O1 2.154052 1_555
Mn1 O2 2.057963 1_555
Mn1 O7 2.066834 1_545
Mn1 O0 2.110135 1_555
Mn1 O5 2.274594 1_655
Mn2 O10 2.053343 1_545
Mn2 O4 2.072692 1_555
Mn2 O5 2.138669 1_555
Mn2 O7 2.219270 1_445
Mn3 O8 2.060998 1_556
Mn3 O11 2.070712 1_556
Mn3 O5 2.123685 1_555
Mn3 O0 2.124875 1_455
Mn4 O3 2.031128 1_555
Mn4 O5 2.106892 1_555
Mn4 O2 2.115880 1_555
Mn4 O9 2.174205 1_555
Mn5 O6 2.052902 1_555
Mn5 O8 2.083025 1_555
Mn5 O9 2.117603 1_555
Mn5 O2 2.167877 1_555
Mn6 O1 2.061339 1_565
Mn6 O7 2.082854 1_555
Mn6 O6 2.112645 1_555
Mn6 O4 2.228268 1_665
Mn7 O9 2.072053 1_555
Mn7 O4 2.091754 1_565
Mn7 O11 2.100124 1_555
Mn7 O6 2.173546 1_455
Mn8 O3 2.031745 1_555
Mn8 O11 2.073945 1_556
Mn8 O1 2.112472 1_566
Mn8 O10 2.187678 1_555
O0 Rb0 3.135633 1_656
O0 Rb1 3.186774 1_646
O1 Rb0 3.077152 1_655
O1 Rb1 3.120151 1_645
O2 Rb0 3.122004 1_655
O2 Rb2 3.128140 1_555
O3 Rb2 2.961084 1_555
O3 Rb1 3.005414 1_656
O4 Rb0 3.013506 1_555
O4 Rb1 3.028607 1_545
O5 Rb0 3.063138 1_555
O5 Rb2 3.120366 1_455
O6 Rb0 3.127834 1_655
O6 Rb2 3.134190 1_555
O7 Rb2 3.003835 1_555
O7 Rb1 3.068729 1_656
O8 Rb0 3.002320 1_555
O8 Rb1 3.078262 1_545
O9 Rb0 3.105775 1_555
O9 Rb2 3.173694 1_455
O10 Rb1 3.121650 1_556
O10 Rb2 3.125770 1_455
O11 Rb1 3.012340 1_555
O11 Rb2 3.063159 1_454
