# generated using pymatgen
data_Li5Fe2(BO4)2
_symmetry_space_group_name_H-M   'P 1'
_cell_length_a   5.20760400
_cell_length_b   6.68222800
_cell_length_c   10.70702890
_cell_angle_alpha   82.48792428
_cell_angle_beta   90.00000000
_cell_angle_gamma   90.00000000
_symmetry_Int_Tables_number   1
_chemical_formula_structural   Li5Fe2(BO4)2
_chemical_formula_sum   'Li10 Fe4 B4 O16'
_cell_volume   369.38964992
_cell_formula_units_Z   2
loop_
 _symmetry_equiv_pos_site_id
 _symmetry_equiv_pos_as_xyz
  1  'x, y, z'
loop_
 _atom_site_type_symbol
 _atom_site_label
 _atom_site_symmetry_multiplicity
 _atom_site_fract_x
 _atom_site_fract_y
 _atom_site_fract_z
 _atom_site_occupancy
  Li  Li0  1  0.84783800  0.86696700  0.78862400  1
  Li  Li1  1  0.15216200  0.86696700  0.28862400  1
  Li  Li2  1  0.08041500  0.78030300  0.57974300  1
  Li  Li3  1  0.91958500  0.78030300  0.07974300  1
  Li  Li4  1  0.58695200  0.22559600  0.91919800  1
  Li  Li5  1  0.41304800  0.22559600  0.41919800  1
  Li  Li6  1  0.15644100  0.11238300  0.83717900  1
  Li  Li7  1  0.42937900  0.10220900  0.68532500  1
  Li  Li8  1  0.84355900  0.11238300  0.33717900  1
  Li  Li9  1  0.57062100  0.10220900  0.18532500  1
  Fe  Fe0  1  0.10226400  0.50945100  0.86012600  1
  Fe  Fe1  1  0.59719500  0.50084400  0.65482600  1
  Fe  Fe2  1  0.89773600  0.50945100  0.36012600  1
  Fe  Fe3  1  0.40280500  0.50084400  0.15482600  1
  B  B0  1  0.41335200  0.81479600  0.93813300  1
  B  B1  1  0.58664800  0.81479600  0.43813300  1
  B  B2  1  0.93499500  0.18630400  0.56952500  1
  B  B3  1  0.06500500  0.18630400  0.06952500  1
  O  O0  1  0.52196700  0.96075800  0.85214100  1
  O  O1  1  0.47803300  0.96075800  0.35214100  1
  O  O2  1  0.14650400  0.78007700  0.92922400  1
  O  O3  1  0.43962700  0.70931600  0.53420100  1
  O  O4  1  0.85349600  0.78007700  0.42922400  1
  O  O5  1  0.88245900  0.62417600  0.71376300  1
  O  O6  1  0.56037300  0.70931600  0.03420100  1
  O  O7  1  0.11754100  0.62417600  0.21376300  1
  O  O8  1  0.38663600  0.36618500  0.78121700  1
  O  O9  1  0.94245900  0.25062100  0.95598900  1
  O  O10  1  0.61336400  0.36618500  0.28121700  1
  O  O11  1  0.67686200  0.25229700  0.57727100  1
  O  O12  1  0.05754100  0.25062100  0.45598900  1
  O  O13  1  0.32313800  0.25229700  0.07727100  1
  O  O14  1  0.05014300  0.05859400  0.66376000  1
  O  O15  1  0.94985700  0.05859400  0.16376000  1
loop_
_geom_bond_atom_site_label_1
_geom_bond_atom_site_label_2
_geom_bond_distance
_geom_bond_site_symmetry_2
Li0 O5 1.909743 1_555
Li0 O0 1.961270 1_555
Li0 O14 2.022208 1_665
Li0 O2 2.189496 1_655
Li1 O7 1.909743 1_555
Li1 O1 1.961270 1_555
Li1 O15 2.022208 1_465
Li1 O4 2.189496 1_455
Li2 O5 1.954174 1_455
Li2 O4 1.998588 1_455
Li2 O3 2.005625 1_555
Li2 O14 2.174766 1_565
Li3 O7 1.954174 1_655
Li3 O2 1.998588 1_654
Li3 O6 2.005625 1_555
Li3 O15 2.174766 1_565
Li4 O9 1.904684 1_555
Li4 O8 1.946914 1_555
Li4 O0 2.023393 1_545
Li4 O13 2.205166 1_556
Li5 O12 1.904684 1_555
Li5 O10 1.946914 1_555
Li5 O1 2.023393 1_545
Li5 O11 2.205166 1_555
Li6 O9 2.005125 1_455
Li6 O14 2.014407 1_555
Li6 O8 2.099201 1_555
Li6 O0 2.152476 1_545
Li6 O2 2.309233 1_545
Li7 O11 1.924047 1_555
Li7 O0 1.968410 1_545
Li7 O14 2.013982 1_555
Li7 O8 2.165352 1_555
Li8 O12 2.005125 1_655
Li8 O15 2.014407 1_555
Li8 O10 2.099201 1_555
Li8 O1 2.152476 1_545
Li8 O4 2.309233 1_545
Li9 O13 1.924047 1_555
Li9 O1 1.968410 1_545
Li9 O15 2.013982 1_555
Li9 O10 2.165352 1_555
Fe0 O8 2.008696 1_555
Fe0 O5 2.009891 1_455
Fe0 O2 2.054388 1_555
Fe0 O9 2.067192 1_455
Fe1 O5 1.849384 1_555
Fe1 O8 1.877488 1_555
Fe1 O3 1.952318 1_555
Fe1 O11 1.995163 1_555
Fe2 O10 2.008696 1_555
Fe2 O7 2.009891 1_655
Fe2 O4 2.054388 1_555
Fe2 O12 2.067192 1_655
Fe3 O7 1.849384 1_555
Fe3 O10 1.877488 1_555
Fe3 O6 1.952318 1_555
Fe3 O13 1.995163 1_555
B0 O0 1.372646 1_555
B0 O6 1.396941 1_556
B0 O2 1.414145 1_555
B1 O1 1.372646 1_555
B1 O3 1.396941 1_555
B1 O4 1.414145 1_555
B2 O14 1.371401 1_655
B2 O12 1.390371 1_655
B2 O11 1.420537 1_555
B3 O15 1.371401 1_455
B3 O9 1.390371 1_454
B3 O13 1.420537 1_555
