# generated using pymatgen
data_Li2Fe(Si2O5)3
_symmetry_space_group_name_H-M   'P 1'
_cell_length_a   11.28237579
_cell_length_b   11.28237579
_cell_length_c   10.02960500
_cell_angle_alpha   90.00000000
_cell_angle_beta   90.00000000
_cell_angle_gamma   100.05371819
_symmetry_Int_Tables_number   1
_chemical_formula_structural   Li2Fe(Si2O5)3
_chemical_formula_sum   'Li8 Fe4 Si24 O60'
_cell_volume   1257.08434288
_cell_formula_units_Z   4
loop_
 _symmetry_equiv_pos_site_id
 _symmetry_equiv_pos_as_xyz
  1  'x, y, z'
loop_
 _atom_site_type_symbol
 _atom_site_label
 _atom_site_symmetry_multiplicity
 _atom_site_fract_x
 _atom_site_fract_y
 _atom_site_fract_z
 _atom_site_occupancy
  Li  Li0  1  0.99446900  0.50553100  0.75000000  1
  Li  Li1  1  0.24732900  0.24732900  0.50000000  1
  Li  Li2  1  0.25267100  0.25267100  0.00000000  1
  Li  Li3  1  0.49446900  0.00553100  0.75000000  1
  Li  Li4  1  0.50553100  0.99446900  0.25000000  1
  Li  Li5  1  0.74732900  0.74732900  0.00000000  1
  Li  Li6  1  0.75267100  0.75267100  0.50000000  1
  Li  Li7  1  0.00553100  0.49446900  0.25000000  1
  Fe  Fe0  1  0.16207600  0.33792400  0.75000000  1
  Fe  Fe1  1  0.33792400  0.16207600  0.25000000  1
  Fe  Fe2  1  0.66207600  0.83792400  0.75000000  1
  Fe  Fe3  1  0.83792400  0.66207600  0.25000000  1
  Si  Si0  1  0.02266300  0.76032100  0.99257000  1
  Si  Si1  1  0.07915300  0.70287200  0.45520500  1
  Si  Si2  1  0.04174100  0.17791500  0.30517000  1
  Si  Si3  1  0.23967900  0.97733700  0.99257000  1
  Si  Si4  1  0.20287200  0.57915300  0.95520500  1
  Si  Si5  1  0.29712800  0.92084700  0.45520500  1
  Si  Si6  1  0.26032100  0.52266300  0.49257000  1
  Si  Si7  1  0.17791500  0.04174100  0.69483000  1
  Si  Si8  1  0.32208500  0.45825900  0.19483000  1
  Si  Si9  1  0.42084700  0.79712800  0.95520500  1
  Si  Si10  1  0.47733700  0.73967900  0.49257000  1
  Si  Si11  1  0.45825900  0.32208500  0.80517000  1
  Si  Si12  1  0.54174100  0.67791500  0.19483000  1
  Si  Si13  1  0.52266300  0.26032100  0.50743000  1
  Si  Si14  1  0.57915300  0.20287200  0.04479500  1
  Si  Si15  1  0.67791500  0.54174100  0.80517000  1
  Si  Si16  1  0.82208500  0.95825900  0.30517000  1
  Si  Si17  1  0.73967900  0.47733700  0.50743000  1
  Si  Si18  1  0.70287200  0.07915300  0.54479500  1
  Si  Si19  1  0.79712800  0.42084700  0.04479500  1
  Si  Si20  1  0.76032100  0.02266300  0.00743000  1
  Si  Si21  1  0.95825900  0.82208500  0.69483000  1
  Si  Si22  1  0.92084700  0.29712800  0.54479500  1
  Si  Si23  1  0.97733700  0.23967900  0.00743000  1
  O  O0  1  0.04889100  0.95110900  0.68985600  1
  O  O1  1  0.00195000  0.65049000  0.32626500  1
  O  O2  1  0.11233300  0.88766700  0.02056300  1
  O  O3  1  0.00369600  0.26964900  0.41847600  1
  O  O4  1  0.09618700  0.64874000  0.01183700  1
  O  O5  1  0.02508600  0.24530100  0.16301200  1
  O  O6  1  0.17734000  0.82266000  0.41808400  1
  O  O7  1  0.14874000  0.59618700  0.51183700  1
  O  O8  1  0.09558200  0.25437800  0.91459500  1
  O  O9  1  0.15049000  0.50195000  0.82626500  1
  O  O10  1  0.16399600  0.17846300  0.66223100  1
  O  O11  1  0.23035100  0.49630400  0.08152400  1
  O  O12  1  0.17846300  0.16399600  0.33776900  1
  O  O13  1  0.34951000  0.99805000  0.32626500  1
  O  O14  1  0.25469900  0.47491400  0.33698800  1
  O  O15  1  0.24562200  0.40441800  0.58540500  1
  O  O16  1  0.35126000  0.90381300  0.01183700  1
  O  O17  1  0.32266000  0.67734000  0.91808400  1
  O  O18  1  0.25437800  0.09558200  0.08540500  1
  O  O19  1  0.24530100  0.02508600  0.83698800  1
  O  O20  1  0.40381300  0.85126000  0.51183700  1
  O  O21  1  0.32153700  0.33600400  0.83776900  1
  O  O22  1  0.26964900  0.00369600  0.58152400  1
  O  O23  1  0.38766700  0.61233300  0.52056300  1
  O  O24  1  0.33600400  0.32153700  0.16223100  1
  O  O25  1  0.49805000  0.84951000  0.82626500  1
  O  O26  1  0.45110900  0.54889100  0.18985600  1
  O  O27  1  0.40441800  0.24562200  0.41459500  1
  O  O28  1  0.50369600  0.76964900  0.08152400  1
  O  O29  1  0.52508600  0.74530100  0.33698800  1
  O  O30  1  0.47491400  0.25469900  0.66301200  1
  O  O31  1  0.49630400  0.23035100  0.91847600  1
  O  O32  1  0.59558200  0.75437800  0.58540500  1
  O  O33  1  0.54889100  0.45110900  0.81014400  1
  O  O34  1  0.50195000  0.15049000  0.17373500  1
  O  O35  1  0.66399600  0.67846300  0.83776900  1
  O  O36  1  0.61233300  0.38766700  0.47943700  1
  O  O37  1  0.73035100  0.99630400  0.41847600  1
  O  O38  1  0.67846300  0.66399600  0.16223100  1
  O  O39  1  0.59618700  0.14874000  0.48816300  1
  O  O40  1  0.75469900  0.97491400  0.16301200  1
  O  O41  1  0.74562200  0.90441800  0.91459500  1
  O  O42  1  0.67734000  0.32266000  0.08191600  1
  O  O43  1  0.64874000  0.09618700  0.98816300  1
  O  O44  1  0.75437800  0.59558200  0.41459500  1
  O  O45  1  0.74530100  0.52508600  0.66301200  1
  O  O46  1  0.65049000  0.00195000  0.67373500  1
  O  O47  1  0.82153700  0.83600400  0.66223100  1
  O  O48  1  0.76964900  0.50369600  0.91847600  1
  O  O49  1  0.83600400  0.82153700  0.33776900  1
  O  O50  1  0.84951000  0.49805000  0.17373500  1
  O  O51  1  0.90441800  0.74562200  0.08540500  1
  O  O52  1  0.85126000  0.40381300  0.48816300  1
  O  O53  1  0.82266000  0.17734000  0.58191600  1
  O  O54  1  0.97491400  0.75469900  0.83698800  1
  O  O55  1  0.90381300  0.35126000  0.98816300  1
  O  O56  1  0.99630400  0.73035100  0.58152400  1
  O  O57  1  0.88766700  0.11233300  0.97943700  1
  O  O58  1  0.99805000  0.34951000  0.67373500  1
  O  O59  1  0.95110900  0.04889100  0.31014400  1
loop_
_geom_bond_atom_site_label_1
_geom_bond_atom_site_label_2
_geom_bond_distance
_geom_bond_site_symmetry_2
Li0 O58 1.926177 1_555
Li0 O9 1.926177 1_655
Li1 O10 1.969796 1_555
Li1 O12 1.969796 1_555
Li1 O15 1.971597 1_555
Li1 O27 1.971597 1_555
Li2 O24 1.969796 1_555
Li2 O21 1.969796 1_554
Li2 O8 1.971597 1_554
Li2 O18 1.971597 1_555
Li3 O25 1.926177 1_545
Li3 O46 1.926177 1_555
Li4 O34 1.926177 1_565
Li4 O13 1.926177 1_555
Li5 O38 1.969796 1_555
Li5 O35 1.969796 1_554
Li5 O41 1.971597 1_554
Li5 O51 1.971597 1_555
Li6 O47 1.969796 1_555
Li6 O49 1.969796 1_555
Li6 O32 1.971597 1_555
Li6 O44 1.971597 1_555
Li7 O50 1.926177 1_455
Li7 O1 1.926177 1_555
Fe0 O15 1.982328 1_555
Fe0 O8 1.982328 1_555
Fe0 O10 2.006425 1_555
Fe0 O21 2.006425 1_555
Fe0 O9 2.027649 1_555
Fe0 O58 2.027649 1_455
Fe1 O18 1.982328 1_555
Fe1 O27 1.982328 1_555
Fe1 O12 2.006425 1_555
Fe1 O24 2.006425 1_555
Fe1 O34 2.027649 1_555
Fe1 O13 2.027649 1_545
Fe2 O41 1.982328 1_555
Fe2 O32 1.982328 1_555
Fe2 O47 2.006425 1_555
Fe2 O35 2.006425 1_555
Fe2 O46 2.027649 1_565
Fe2 O25 2.027649 1_555
Fe3 O44 1.982328 1_555
Fe3 O51 1.982328 1_555
Fe3 O38 2.006425 1_555
Fe3 O49 2.006425 1_555
Fe3 O1 2.027649 1_655
Fe3 O50 2.027649 1_555
O0 Si7 1.627094 1_565
O0 Si21 1.627094 1_455
O1 Si1 1.612654 1_555
O2 Si0 1.630686 1_554
O2 Si3 1.630686 1_554
O3 Si22 1.635890 1_455
O3 Si2 1.643767 1_555
O4 Si0 1.635508 1_554
O4 Si4 1.648560 1_554
O5 Si2 1.641974 1_555
O5 Si23 1.648406 1_455
O6 Si1 1.633893 1_555
O6 Si5 1.633893 1_555
O7 Si6 1.635508 1_555
O7 Si1 1.648560 1_555
O8 Si23 1.611516 1_456
O9 Si4 1.612654 1_555
O10 Si7 1.611085 1_555
O11 Si4 1.635890 1_554
O11 Si8 1.643767 1_555
O12 Si2 1.611085 1_555
O13 Si5 1.612654 1_555
O14 Si8 1.641974 1_555
O14 Si6 1.648406 1_555
O15 Si6 1.611516 1_555
O16 Si3 1.635508 1_554
O16 Si9 1.648560 1_554
O17 Si9 1.633893 1_555
O17 Si4 1.633893 1_555
O18 Si3 1.611516 1_544
O19 Si7 1.641974 1_555
O19 Si3 1.648406 1_545
O20 Si10 1.635508 1_555
O20 Si5 1.648560 1_555
O21 Si11 1.611085 1_555
O22 Si5 1.635890 1_545
O22 Si7 1.643767 1_555
O23 Si6 1.630686 1_555
O23 Si10 1.630686 1_555
O24 Si8 1.611085 1_555
O25 Si9 1.612654 1_555
O26 Si8 1.627094 1_555
O26 Si12 1.627094 1_555
O27 Si13 1.611516 1_555
O28 Si9 1.635890 1_554
O28 Si12 1.643767 1_555
O29 Si12 1.641974 1_555
O29 Si10 1.648406 1_555
O30 Si11 1.641974 1_555
O30 Si13 1.648406 1_555
O31 Si14 1.635890 1_556
O31 Si11 1.643767 1_555
O32 Si10 1.611516 1_555
O33 Si11 1.627094 1_555
O33 Si15 1.627094 1_555
O34 Si14 1.612654 1_555
O35 Si15 1.611085 1_555
O36 Si17 1.630686 1_555
O36 Si13 1.630686 1_555
O37 Si18 1.635890 1_565
O37 Si16 1.643767 1_555
O38 Si12 1.611085 1_555
O39 Si13 1.635508 1_555
O39 Si18 1.648560 1_555
O40 Si16 1.641974 1_555
O40 Si20 1.648406 1_565
O41 Si20 1.611516 1_566
O42 Si19 1.633893 1_555
O42 Si14 1.633893 1_555
O43 Si20 1.635508 1_556
O43 Si14 1.648560 1_556
O44 Si17 1.611516 1_555
O45 Si15 1.641974 1_555
O45 Si17 1.648406 1_555
O46 Si18 1.612654 1_555
O47 Si21 1.611085 1_555
O48 Si19 1.635890 1_556
O48 Si15 1.643767 1_555
O49 Si16 1.611085 1_555
O50 Si19 1.612654 1_555
O51 Si0 1.611516 1_654
O52 Si17 1.635508 1_555
O52 Si22 1.648560 1_555
O53 Si18 1.633893 1_555
O53 Si22 1.633893 1_555
O54 Si21 1.641974 1_555
O54 Si0 1.648406 1_655
O55 Si23 1.635508 1_556
O55 Si19 1.648560 1_556
O56 Si1 1.635890 1_655
O56 Si21 1.643767 1_555
O57 Si20 1.630686 1_556
O57 Si23 1.630686 1_556
O58 Si22 1.612654 1_555
O59 Si2 1.627094 1_655
O59 Si16 1.627094 1_545
