# generated using pymatgen
data_V2Sb(PO4)3
_symmetry_space_group_name_H-M   'P 1'
_cell_length_a   8.87475458
_cell_length_b   8.87475458
_cell_length_c   8.87475419
_cell_angle_alpha   58.80009724
_cell_angle_beta   58.80009724
_cell_angle_gamma   58.80009880
_symmetry_Int_Tables_number   1
_chemical_formula_structural   V2Sb(PO4)3
_chemical_formula_sum   'V4 Sb2 P6 O24'
_cell_volume   480.71468536
_cell_formula_units_Z   2
loop_
 _symmetry_equiv_pos_site_id
 _symmetry_equiv_pos_as_xyz
  1  'x, y, z'
loop_
 _atom_site_type_symbol
 _atom_site_label
 _atom_site_symmetry_multiplicity
 _atom_site_fract_x
 _atom_site_fract_y
 _atom_site_fract_z
 _atom_site_occupancy
  V  V0  1  0.14627400  0.14627400  0.14627400  1
  V  V1  1  0.35372600  0.35372600  0.35372600  1
  V  V2  1  0.64627400  0.64627400  0.64627400  1
  V  V3  1  0.85372600  0.85372600  0.85372600  1
  Sb  Sb0  1  0.00000000  0.00000000  0.00000000  1
  Sb  Sb1  1  0.50000000  0.50000000  0.50000000  1
  P  P0  1  0.46122000  0.75000000  0.03878000  1
  P  P1  1  0.75000000  0.03878000  0.46122000  1
  P  P2  1  0.03878000  0.46122000  0.75000000  1
  P  P3  1  0.96122000  0.53878000  0.25000000  1
  P  P4  1  0.25000000  0.96122000  0.53878000  1
  P  P5  1  0.53878000  0.25000000  0.96122000  1
  O  O0  1  0.50781600  0.30168900  0.11646100  1
  O  O1  1  0.11646100  0.50781600  0.30168900  1
  O  O2  1  0.26769900  0.91597600  0.06114400  1
  O  O3  1  0.30168900  0.11646100  0.50781600  1
  O  O4  1  0.61646100  0.80168900  0.00781600  1
  O  O5  1  0.43885600  0.58402400  0.23230100  1
  O  O6  1  0.91597600  0.06114400  0.26769900  1
  O  O7  1  0.58402400  0.23230100  0.43885600  1
  O  O8  1  0.99218400  0.38353900  0.19831100  1
  O  O9  1  0.23230100  0.43885600  0.58402400  1
  O  O10  1  0.93885600  0.73230100  0.08402400  1
  O  O11  1  0.19831100  0.99218400  0.38353900  1
  O  O12  1  0.80168900  0.00781600  0.61646100  1
  O  O13  1  0.06114400  0.26769900  0.91597600  1
  O  O14  1  0.76769900  0.56114400  0.41597600  1
  O  O15  1  0.00781600  0.61646100  0.80168900  1
  O  O16  1  0.41597600  0.76769900  0.56114400  1
  O  O17  1  0.08402400  0.93885600  0.73230100  1
  O  O18  1  0.56114400  0.41597600  0.76769900  1
  O  O19  1  0.38353900  0.19831100  0.99218400  1
  O  O20  1  0.69831100  0.88353900  0.49218400  1
  O  O21  1  0.73230100  0.08402400  0.93885600  1
  O  O22  1  0.88353900  0.49218400  0.69831100  1
  O  O23  1  0.49218400  0.69831100  0.88353900  1
loop_
_geom_bond_atom_site_label_1
_geom_bond_atom_site_label_2
_geom_bond_distance
_geom_bond_site_symmetry_2
O0 P5 1.521844 1_554
O0 V1 1.971560 1_555
O1 P3 1.521844 1_455
O1 V1 1.971560 1_555
O2 P0 1.577175 1_555
O2 V0 2.093741 1_565
O2 Sb0 2.361299 1_565
O3 P4 1.521844 1_545
O3 V1 1.971560 1_555
O4 P0 1.521844 1_555
O4 V3 1.971560 1_554
O5 P0 1.577175 1_555
O5 V1 2.093741 1_555
O5 Sb1 2.361299 1_555
O6 P1 1.577175 1_555
O6 V0 2.093741 1_655
O6 Sb0 2.361299 1_655
O7 P1 1.577175 1_555
O7 V1 2.093741 1_555
O7 Sb1 2.361299 1_555
O8 P3 1.521844 1_555
O8 V0 1.971560 1_655
O9 P2 1.577175 1_555
O9 V1 2.093741 1_555
O9 Sb1 2.361299 1_555
O10 P3 1.577175 1_555
O10 V3 2.093741 1_554
O10 Sb0 2.361299 1_665
O11 P4 1.521844 1_555
O11 V0 1.971560 1_565
O12 P1 1.521844 1_555
O12 V3 1.971560 1_545
O13 P2 1.577175 1_555
O13 V0 2.093741 1_556
O13 Sb0 2.361299 1_556
O14 P3 1.577175 1_555
O14 V2 2.093741 1_555
O14 Sb1 2.361299 1_555
O15 P2 1.521844 1_555
O15 V3 1.971560 1_455
O16 P4 1.577175 1_555
O16 V2 2.093741 1_555
O16 Sb1 2.361299 1_555
O17 P4 1.577175 1_555
O17 V3 2.093741 1_455
O17 Sb0 2.361299 1_566
O18 P5 1.577175 1_555
O18 V2 2.093741 1_555
O18 Sb1 2.361299 1_555
O19 P5 1.521844 1_555
O19 V0 1.971560 1_556
O20 P1 1.521844 1_565
O20 V2 1.971560 1_555
O21 P5 1.577175 1_555
O21 V3 2.093741 1_545
O21 Sb0 2.361299 1_656
O22 P2 1.521844 1_655
O22 V2 1.971560 1_555
O23 P0 1.521844 1_556
O23 V2 1.971560 1_555
