# generated using pymatgen
data_Mn3TeO8
_symmetry_space_group_name_H-M   'P 1'
_cell_length_a   6.11832393
_cell_length_b   6.11832393
_cell_length_c   6.11832394
_cell_angle_alpha   58.76430418
_cell_angle_beta   58.76430418
_cell_angle_gamma   58.76429120
_symmetry_Int_Tables_number   1
_chemical_formula_structural   Mn3TeO8
_chemical_formula_sum   'Mn3 Te1 O8'
_cell_volume   157.37942884
_cell_formula_units_Z   1
loop_
 _symmetry_equiv_pos_site_id
 _symmetry_equiv_pos_as_xyz
  1  'x, y, z'
loop_
 _atom_site_type_symbol
 _atom_site_label
 _atom_site_symmetry_multiplicity
 _atom_site_fract_x
 _atom_site_fract_y
 _atom_site_fract_z
 _atom_site_occupancy
  Mn  Mn0  1  0.50000000  0.00000000  0.50000000  1
  Mn  Mn1  1  0.50000000  0.50000000  0.00000000  1
  Mn  Mn2  1  0.00000000  0.50000000  0.50000000  1
  Te  Te0  1  0.50000000  0.50000000  0.50000000  1
  O  O0  1  0.72473000  0.72473000  0.72473000  1
  O  O1  1  0.28571700  0.72899600  0.72899600  1
  O  O2  1  0.72899600  0.72899600  0.28571700  1
  O  O3  1  0.72899600  0.28571700  0.72899600  1
  O  O4  1  0.27100400  0.71428300  0.27100400  1
  O  O5  1  0.27100400  0.27100400  0.71428300  1
  O  O6  1  0.71428300  0.27100400  0.27100400  1
  O  O7  1  0.27527000  0.27527000  0.27527000  1
loop_
_geom_bond_atom_site_label_1
_geom_bond_atom_site_label_2
_geom_bond_distance
_geom_bond_site_symmetry_2
Mn0 O7 1.942927 1_555
Mn0 O0 1.942927 1_545
Mn0 O5 2.090756 1_555
Mn0 O2 2.090756 1_545
Mn0 O1 2.090756 1_545
Mn0 O6 2.090756 1_555
Mn1 O0 1.942928 1_554
Mn1 O7 1.942928 1_555
Mn1 O6 2.090756 1_555
Mn1 O3 2.090756 1_554
Mn1 O4 2.090756 1_555
Mn1 O1 2.090756 1_554
Mn2 O0 1.942927 1_455
Mn2 O7 1.942927 1_555
Mn2 O2 2.090756 1_455
Mn2 O5 2.090756 1_555
Mn2 O3 2.090756 1_455
Mn2 O4 2.090756 1_555
O1 Te0 1.967385 1_555
O2 Te0 1.967385 1_555
O3 Te0 1.967385 1_555
O4 Te0 1.967385 1_555
O5 Te0 1.967385 1_555
O6 Te0 1.967385 1_555
