# generated using pymatgen
data_YH16C4N9O16
_symmetry_space_group_name_H-M   'P 1'
_cell_length_a   11.38965762
_cell_length_b   11.38965762
_cell_length_c   6.48252288
_cell_angle_alpha   86.74301849
_cell_angle_beta   86.74301849
_cell_angle_gamma   143.82845251
_symmetry_Int_Tables_number   1
_chemical_formula_structural   YH16C4N9O16
_chemical_formula_sum   'Y1 H16 C4 N9 O16'
_cell_volume   487.94465368
_cell_formula_units_Z   1
loop_
 _symmetry_equiv_pos_site_id
 _symmetry_equiv_pos_as_xyz
  1  'x, y, z'
loop_
 _atom_site_type_symbol
 _atom_site_label
 _atom_site_symmetry_multiplicity
 _atom_site_fract_x
 _atom_site_fract_y
 _atom_site_fract_z
 _atom_site_occupancy
  Y  Y0  1  0.99702400  0.99702400  0.00437600  1
  H  H0  1  0.76064000  0.57624600  0.98682300  1
  H  H1  1  0.57624600  0.76064000  0.98682300  1
  H  H2  1  0.97595500  0.20156800  0.27323300  1
  H  H3  1  0.20156800  0.97595500  0.27323300  1
  H  H4  1  0.19990400  0.37002700  0.15697900  1
  H  H5  1  0.37002700  0.19990400  0.15697900  1
  H  H6  1  0.70972500  0.40719900  0.72815500  1
  H  H7  1  0.40719900  0.70972500  0.72815500  1
  H  H8  1  0.53084100  0.33316800  0.83771900  1
  H  H9  1  0.33316800  0.53084100  0.83771900  1
  H  H10  1  0.68853400  0.57427200  0.20875800  1
  H  H11  1  0.57427200  0.68853400  0.20875800  1
  H  H12  1  0.90124500  0.97103300  0.47147200  1
  H  H13  1  0.97103300  0.90124500  0.47147200  1
  H  H14  1  0.85375400  0.19805200  0.97550800  1
  H  H15  1  0.19805200  0.85375400  0.97550800  1
  C  C0  1  0.89040200  0.14178600  0.67945100  1
  C  C1  1  0.14178600  0.89040200  0.67945100  1
  C  C2  1  0.81935400  0.24462300  0.52618200  1
  C  C3  1  0.24462300  0.81935400  0.52618200  1
  N  N0  1  0.84615500  0.19400100  0.82000600  1
  N  N1  1  0.19400100  0.84615500  0.82000600  1
  N  N2  1  0.80154300  0.25962500  0.72292400  1
  N  N3  1  0.25962500  0.80154300  0.72292400  1
  N  N4  1  0.87253700  0.17518500  0.48702300  1
  N  N5  1  0.17518500  0.87253700  0.48702300  1
  N  N6  1  0.78670900  0.30494500  0.36647300  1
  N  N7  1  0.30494500  0.78670900  0.36647300  1
  N  N8  1  0.40636000  0.40636000  0.62235200  1
  O  O0  1  0.93528700  0.07187900  0.72329200  1
  O  O1  1  0.07187900  0.93528700  0.72329200  1
  O  O2  1  0.72654200  0.35547500  0.42136500  1
  O  O3  1  0.35547500  0.72654200  0.42136500  1
  O  O4  1  0.82143600  0.30436900  0.18166900  1
  O  O5  1  0.30436900  0.82143600  0.18166900  1
  O  O6  1  0.48860100  0.38710600  0.52977600  1
  O  O7  1  0.38710600  0.48860100  0.52977600  1
  O  O8  1  0.79595700  0.66435300  0.08544000  1
  O  O9  1  0.66435300  0.79595700  0.08544000  1
  O  O10  1  0.34128900  0.34128900  0.82524800  1
  O  O11  1  0.90576500  0.90576500  0.38526100  1
  O  O12  1  0.06341600  0.23625600  0.14517200  1
  O  O13  1  0.23625600  0.06341600  0.14517200  1
  O  O14  1  0.65652300  0.39753100  0.86286200  1
  O  O15  1  0.39753100  0.65652300  0.86286200  1
loop_
_geom_bond_atom_site_label_1
_geom_bond_atom_site_label_2
_geom_bond_distance
_geom_bond_site_symmetry_2
H0 O8 1.013867 1_556
H0 O14 1.610059 1_555
H1 O9 1.013867 1_556
H1 O15 1.610059 1_555
H2 O12 1.034855 1_655
H2 N4 1.610646 1_555
H3 O13 1.034855 1_565
H3 N5 1.610646 1_555
H4 O12 0.972952 1_555
H5 O13 0.972952 1_555
H6 O14 0.981364 1_555
H7 O15 0.981364 1_555
H8 O14 0.979258 1_555
H9 O15 0.979258 1_555
H10 O8 0.978596 1_555
H11 O9 0.978596 1_555
H12 O11 0.986570 1_555
H13 O11 0.986570 1_555
H14 N0 1.017117 1_555
H15 N1 1.017117 1_555
C0 O0 1.274385 1_555
C0 N4 1.357222 1_555
C0 N0 1.389651 1_555
C1 O1 1.274385 1_555
C1 N5 1.357222 1_555
C1 N1 1.389651 1_555
C2 N2 1.322225 1_555
C2 N4 1.354853 1_555
C2 N6 1.434403 1_555
C3 N3 1.322225 1_555
C3 N5 1.354853 1_555
C3 N7 1.434403 1_555
N0 N2 1.344973 1_555
N1 N3 1.344973 1_555
N6 O4 1.242144 1_555
N6 O2 1.248906 1_555
N7 O5 1.242144 1_555
N7 O3 1.248906 1_555
N8 O6 1.252344 1_555
N8 O7 1.252344 1_555
N8 O10 1.311553 1_555
O0 Y0 2.340609 1_546
O1 Y0 2.340609 1_456
O8 Y0 2.346255 1_555
O9 Y0 2.346255 1_555
O10 Y0 2.498099 1_446
O11 Y0 2.435092 1_555
O12 Y0 2.421503 1_445
O13 Y0 2.421503 1_445
