# generated using pymatgen
data_Li4Co3Cu2Sb3O16
_symmetry_space_group_name_H-M   'P 1'
_cell_length_a   6.01366874
_cell_length_b   5.96611520
_cell_length_c   9.77810578
_cell_angle_alpha   90.33687721
_cell_angle_beta   91.55257455
_cell_angle_gamma   119.50339715
_symmetry_Int_Tables_number   1
_chemical_formula_structural   Li4Co3Cu2Sb3O16
_chemical_formula_sum   'Li4 Co3 Cu2 Sb3 O16'
_cell_volume   305.14241097
_cell_formula_units_Z   1
loop_
 _symmetry_equiv_pos_site_id
 _symmetry_equiv_pos_as_xyz
  1  'x, y, z'
loop_
 _atom_site_type_symbol
 _atom_site_label
 _atom_site_symmetry_multiplicity
 _atom_site_fract_x
 _atom_site_fract_y
 _atom_site_fract_z
 _atom_site_occupancy
  Li  Li0  1  0.35744300  0.67738300  0.88360800  1
  Li  Li1  1  0.92935700  0.96795100  0.98662300  1
  Li  Li2  1  0.98113700  0.98562700  0.50400500  1
  Li  Li3  1  0.64796000  0.32575600  0.39846500  1
  Co  Co0  1  0.64222800  0.82440100  0.21676100  1
  Co  Co1  1  0.85749500  0.67138800  0.71402700  1
  Co  Co2  1  0.85784600  0.18033700  0.71438700  1
  Cu  Cu0  1  0.34964400  0.67365300  0.50451600  1
  Cu  Cu1  1  0.70233400  0.35253600  0.98227600  1
  Sb  Sb0  1  0.14924400  0.82529800  0.21499700  1
  Sb  Sb1  1  0.14887200  0.32985700  0.21603000  1
  Sb  Sb2  1  0.36338400  0.17879900  0.71551900  1
  O  O0  1  0.17255700  0.84384400  0.60381700  1
  O  O1  1  0.00283400  0.50593100  0.33105900  1
  O  O2  1  0.29408100  0.64786200  0.09745800  1
  O  O3  1  0.99417300  0.00103700  0.32098500  1
  O  O4  1  0.02545900  0.01070400  0.81070900  1
  O  O5  1  0.16866500  0.31695800  0.60399800  1
  O  O6  1  0.45758400  0.96333700  0.33668400  1
  O  O7  1  0.45636700  0.50269500  0.34075100  1
  O  O8  1  0.28060000  0.14319900  0.09990100  1
  O  O9  1  0.70300600  0.84923100  0.61669400  1
  O  O10  1  0.56139300  0.50311300  0.83527800  1
  O  O11  1  0.56107100  0.05374600  0.83506700  1
  O  O12  1  0.68922500  0.34093800  0.60945600  1
  O  O13  1  0.82394800  0.66961900  0.10127900  1
  O  O14  1  0.99786400  0.49426100  0.81202500  1
  O  O15  1  0.82423000  0.16083900  0.10146200  1
loop_
_geom_bond_atom_site_label_1
_geom_bond_atom_site_label_2
_geom_bond_distance
_geom_bond_site_symmetry_2
Li0 O14 1.985332 1_455
Li0 O10 2.022435 1_555
Li0 O11 2.025466 1_565
Li0 O2 2.128403 1_556
Li1 O4 1.808772 1_665
Li1 O15 1.929967 1_566
Li1 O13 1.943556 1_556
Li1 O8 2.113304 1_666
Li2 O3 1.794342 1_565
Li2 O9 1.855726 1_555
Li2 O5 1.963963 1_665
Li2 O0 1.975117 1_655
Li3 O6 1.964652 1_545
Li3 O7 1.982449 1_555
Li3 O1 1.992317 1_655
Li3 O12 2.067379 1_555
Co0 O6 2.064164 1_555
Co0 O3 2.074195 1_565
Co0 O13 2.090603 1_555
Co0 O7 2.095429 1_555
Co0 O15 2.104178 1_565
Co0 O2 2.129504 1_555
Co1 O14 1.895841 1_555
Co1 O9 1.956932 1_555
Co1 O12 1.977769 1_555
Co1 O4 1.980881 1_665
Co1 O10 1.987946 1_555
Co1 O0 2.003333 1_655
Co2 O14 1.873600 1_555
Co2 O9 1.949282 1_545
Co2 O4 1.972777 1_655
Co2 O12 1.977684 1_555
Co2 O5 1.985523 1_655
Co2 O11 1.986206 1_555
Cu0 O0 2.053625 1_555
Cu0 O5 2.111859 1_555
Cu0 O9 2.117497 1_555
Cu0 O7 2.167406 1_555
Cu0 O6 2.255565 1_555
Cu0 O1 2.441420 1_555
Cu1 O15 1.999673 1_556
Cu1 O13 2.008212 1_556
Cu1 O10 2.071370 1_555
Cu1 O11 2.093642 1_555
Cu1 O14 2.311181 1_555
Cu1 O8 2.523876 1_556
O0 Sb2 2.037415 1_565
O1 Sb1 2.021926 1_555
O1 Sb0 2.029979 1_555
O2 Sb0 2.036739 1_555
O2 Sb1 2.038445 1_555
O3 Sb1 2.011238 1_655
O3 Sb0 2.011375 1_645
O4 Sb2 2.026808 1_555
O5 Sb2 2.032677 1_555
O6 Sb0 1.974110 1_555
O7 Sb1 1.988697 1_555
O8 Sb1 2.014912 1_555
O8 Sb0 2.021236 1_545
O10 Sb2 2.039971 1_555
O11 Sb2 2.035915 1_555
O12 Sb2 2.026301 1_555
O13 Sb0 2.001572 1_655
O15 Sb1 2.003103 1_655
