# generated using pymatgen
data_FeOF
_symmetry_space_group_name_H-M   'P 1'
_cell_length_a   4.76624700
_cell_length_b   4.76317300
_cell_length_c   9.23102724
_cell_angle_alpha   89.95201469
_cell_angle_beta   90.00000000
_cell_angle_gamma   90.00000000
_symmetry_Int_Tables_number   1
_chemical_formula_structural   FeOF
_chemical_formula_sum   'Fe6 O6 F6'
_cell_volume   209.56694409
_cell_formula_units_Z   6
loop_
 _symmetry_equiv_pos_site_id
 _symmetry_equiv_pos_as_xyz
  1  'x, y, z'
loop_
 _atom_site_type_symbol
 _atom_site_label
 _atom_site_symmetry_multiplicity
 _atom_site_fract_x
 _atom_site_fract_y
 _atom_site_fract_z
 _atom_site_occupancy
  Fe  Fe0  1  0.96234300  0.28720500  0.58338700  1
  Fe  Fe1  1  0.02661500  0.22103200  0.25066300  1
  Fe  Fe2  1  0.00660000  0.20263500  0.91583900  1
  Fe  Fe3  1  0.52661500  0.77896800  0.74933700  1
  Fe  Fe4  1  0.46234300  0.71279500  0.41661300  1
  Fe  Fe5  1  0.50660000  0.79736500  0.08416100  1
  O  O0  1  0.82291200  0.05524600  0.08658400  1
  O  O1  1  0.81178600  0.06815600  0.74608400  1
  O  O2  1  0.32291200  0.94475400  0.91341600  1
  O  O3  1  0.31178600  0.93184400  0.25391600  1
  O  O4  1  0.67356000  0.57061000  0.58270200  1
  O  O5  1  0.17356000  0.42939000  0.41729800  1
  F  F0  1  0.78945700  0.04987700  0.41700100  1
  F  F1  1  0.28945700  0.95012300  0.58299900  1
  F  F2  1  0.71161900  0.55715800  0.91864300  1
  F  F3  1  0.69511000  0.54323000  0.24865400  1
  F  F4  1  0.19511000  0.45677000  0.75134600  1
  F  F5  1  0.21161900  0.44284200  0.08135700  1
loop_
_geom_bond_atom_site_label_1
_geom_bond_atom_site_label_2
_geom_bond_distance
_geom_bond_site_symmetry_2
Fe0 O4 1.927896 1_555
Fe0 O5 1.954742 1_655
Fe0 O1 1.963801 1_555
Fe1 O3 1.935360 1_545
Fe1 O5 1.960645 1_555
Fe1 O0 1.965271 1_455
Fe2 O1 1.931239 1_455
Fe2 O0 1.934364 1_456
Fe2 O2 1.944805 1_545
Fe3 O1 1.935360 1_565
Fe3 O4 1.960645 1_555
Fe3 O2 1.965271 1_555
Fe4 O5 1.927896 1_555
Fe4 O4 1.954742 1_555
Fe4 O3 1.963801 1_555
Fe5 O3 1.931239 1_555
Fe5 O2 1.934364 1_554
Fe5 O0 1.944805 1_565
F0 Fe1 2.073135 1_655
F0 Fe0 2.078178 1_555
F0 Fe4 2.238017 1_545
F1 Fe3 2.073135 1_555
F1 Fe4 2.078178 1_555
F1 Fe0 2.238017 1_465
F2 Fe3 2.081718 1_555
F2 Fe5 2.145075 1_556
F2 Fe2 2.197498 1_655
F3 Fe4 2.071013 1_555
F3 Fe5 2.138957 1_555
F3 Fe1 2.202740 1_655
F4 Fe0 2.071013 1_455
F4 Fe2 2.138957 1_555
F4 Fe3 2.202740 1_555
F5 Fe1 2.081718 1_555
F5 Fe2 2.145075 1_554
F5 Fe5 2.197498 1_555
