# generated using pymatgen
data_LiCrB3(HO3)3
_symmetry_space_group_name_H-M   'P 1'
_cell_length_a   9.21487500
_cell_length_b   11.65191300
_cell_length_c   14.16395500
_cell_angle_alpha   90.00000000
_cell_angle_beta   90.00000000
_cell_angle_gamma   90.00000000
_symmetry_Int_Tables_number   1
_chemical_formula_structural   LiCrB3(HO3)3
_chemical_formula_sum   'Li8 Cr8 B24 H24 O72'
_cell_volume   1520.79690477
_cell_formula_units_Z   8
loop_
 _symmetry_equiv_pos_site_id
 _symmetry_equiv_pos_as_xyz
  1  'x, y, z'
loop_
 _atom_site_type_symbol
 _atom_site_label
 _atom_site_symmetry_multiplicity
 _atom_site_fract_x
 _atom_site_fract_y
 _atom_site_fract_z
 _atom_site_occupancy
  Li  Li0  1  0.17011300  0.00000000  0.25000000  1
  Li  Li1  1  0.50195200  0.00000000  0.25000000  1
  Li  Li2  1  0.49804800  0.00000000  0.75000000  1
  Li  Li3  1  0.82988700  0.00000000  0.75000000  1
  Li  Li4  1  0.67011300  0.50000000  0.25000000  1
  Li  Li5  1  0.99804800  0.50000000  0.75000000  1
  Li  Li6  1  0.32988700  0.50000000  0.75000000  1
  Li  Li7  1  0.00195200  0.50000000  0.25000000  1
  Cr  Cr0  1  0.34294500  0.23732700  0.32668800  1
  Cr  Cr1  1  0.65705500  0.23732700  0.82668800  1
  Cr  Cr2  1  0.15705500  0.26267300  0.82668800  1
  Cr  Cr3  1  0.84294500  0.26267300  0.32668800  1
  Cr  Cr4  1  0.15705500  0.73732700  0.67331200  1
  Cr  Cr5  1  0.84294500  0.73732700  0.17331200  1
  Cr  Cr6  1  0.34294500  0.76267300  0.17331200  1
  Cr  Cr7  1  0.65705500  0.76267300  0.67331200  1
  B  B0  1  0.03143200  0.14716700  0.08166500  1
  B  B1  1  0.96856800  0.14716700  0.58166500  1
  B  B2  1  0.53079800  0.14571300  0.07521200  1
  B  B3  1  0.46920200  0.14571300  0.57521200  1
  B  B4  1  0.09127300  0.24448400  0.44573100  1
  B  B5  1  0.90872700  0.24448400  0.94573100  1
  B  B6  1  0.40872700  0.25551600  0.94573100  1
  B  B7  1  0.59127300  0.25551600  0.44573100  1
  B  B8  1  0.03079800  0.35428700  0.07521200  1
  B  B9  1  0.96920200  0.35428700  0.57521200  1
  B  B10  1  0.53143200  0.35283300  0.08166500  1
  B  B11  1  0.46856800  0.35283300  0.58166500  1
  B  B12  1  0.46856800  0.64716700  0.91833500  1
  B  B13  1  0.53143200  0.64716700  0.41833500  1
  B  B14  1  0.03079800  0.64571300  0.42478800  1
  B  B15  1  0.96920200  0.64571300  0.92478800  1
  B  B16  1  0.40872700  0.74448400  0.55426900  1
  B  B17  1  0.59127300  0.74448400  0.05426900  1
  B  B18  1  0.09127300  0.75551600  0.05426900  1
  B  B19  1  0.90872700  0.75551600  0.55426900  1
  B  B20  1  0.46920200  0.85428700  0.92478800  1
  B  B21  1  0.53079800  0.85428700  0.42478800  1
  B  B22  1  0.03143200  0.85283300  0.41833500  1
  B  B23  1  0.96856800  0.85283300  0.91833500  1
  H  H0  1  0.06321100  0.98078000  0.08417600  1
  H  H1  1  0.93678900  0.98078000  0.58417600  1
  H  H2  1  0.55994100  0.02404100  0.42302800  1
  H  H3  1  0.44005900  0.02404100  0.92302800  1
  H  H4  1  0.28615600  0.19763900  0.69862100  1
  H  H5  1  0.71384400  0.19763900  0.19862100  1
  H  H6  1  0.21384400  0.30236100  0.19862100  1
  H  H7  1  0.78615600  0.30236100  0.69862100  1
  H  H8  1  0.05994100  0.47595900  0.42302800  1
  H  H9  1  0.94005900  0.47595900  0.92302800  1
  H  H10  1  0.56321100  0.51922000  0.08417600  1
  H  H11  1  0.43678900  0.51922000  0.58417600  1
  H  H12  1  0.43678900  0.48078000  0.91582400  1
  H  H13  1  0.56321100  0.48078000  0.41582400  1
  H  H14  1  0.05994100  0.52404100  0.07697200  1
  H  H15  1  0.94005900  0.52404100  0.57697200  1
  H  H16  1  0.78615600  0.69763900  0.80137900  1
  H  H17  1  0.21384400  0.69763900  0.30137900  1
  H  H18  1  0.28615600  0.80236100  0.80137900  1
  H  H19  1  0.71384400  0.80236100  0.30137900  1
  H  H20  1  0.44005900  0.97595900  0.57697200  1
  H  H21  1  0.55994100  0.97595900  0.07697200  1
  H  H22  1  0.06321100  0.01922000  0.41582400  1
  H  H23  1  0.93678900  0.01922000  0.91582400  1
  O  O0  1  0.56961700  0.04465100  0.11872700  1
  O  O1  1  0.43038300  0.04465100  0.61872700  1
  O  O2  1  0.08203700  0.04868000  0.12454200  1
  O  O3  1  0.91796300  0.04868000  0.62454200  1
  O  O4  1  0.33489000  0.10412900  0.28716300  1
  O  O5  1  0.66511000  0.10412900  0.78716300  1
  O  O6  1  0.94807600  0.14221300  0.00198000  1
  O  O7  1  0.05192400  0.14221300  0.50198000  1
  O  O8  1  0.54166200  0.14730800  0.49125000  1
  O  O9  1  0.45833800  0.14730800  0.99125000  1
  O  O10  1  0.78372100  0.16119000  0.24320100  1
  O  O11  1  0.21627900  0.16119000  0.74320100  1
  O  O12  1  0.02649800  0.23206800  0.35018900  1
  O  O13  1  0.97350200  0.23206800  0.85018900  1
  O  O14  1  0.24933900  0.25351500  0.43375400  1
  O  O15  1  0.75066100  0.25351500  0.93375400  1
  O  O16  1  0.43164600  0.24696100  0.62227400  1
  O  O17  1  0.56835400  0.24696100  0.12227400  1
  O  O18  1  0.06835400  0.25303900  0.12227400  1
  O  O19  1  0.93164600  0.25303900  0.62227400  1
  O  O20  1  0.74933900  0.24648500  0.43375400  1
  O  O21  1  0.25066100  0.24648500  0.93375400  1
  O  O22  1  0.47350200  0.26793200  0.85018900  1
  O  O23  1  0.52649800  0.26793200  0.35018900  1
  O  O24  1  0.28372100  0.33881000  0.24320100  1
  O  O25  1  0.71627900  0.33881000  0.74320100  1
  O  O26  1  0.04166200  0.35269200  0.49125000  1
  O  O27  1  0.95833800  0.35269200  0.99125000  1
  O  O28  1  0.55192400  0.35778700  0.50198000  1
  O  O29  1  0.44807600  0.35778700  0.00198000  1
  O  O30  1  0.83489000  0.39587100  0.28716300  1
  O  O31  1  0.16511000  0.39587100  0.78716300  1
  O  O32  1  0.58203700  0.45132000  0.12454200  1
  O  O33  1  0.41796300  0.45132000  0.62454200  1
  O  O34  1  0.06961700  0.45534900  0.11872700  1
  O  O35  1  0.93038300  0.45534900  0.61872700  1
  O  O36  1  0.06961700  0.54465100  0.38127300  1
  O  O37  1  0.93038300  0.54465100  0.88127300  1
  O  O38  1  0.58203700  0.54868000  0.37545800  1
  O  O39  1  0.41796300  0.54868000  0.87545800  1
  O  O40  1  0.83489000  0.60412900  0.21283700  1
  O  O41  1  0.16511000  0.60412900  0.71283700  1
  O  O42  1  0.44807600  0.64221300  0.49802000  1
  O  O43  1  0.55192400  0.64221300  0.99802000  1
  O  O44  1  0.04166200  0.64730800  0.00875000  1
  O  O45  1  0.95833800  0.64730800  0.50875000  1
  O  O46  1  0.28372100  0.66119000  0.25679900  1
  O  O47  1  0.71627900  0.66119000  0.75679900  1
  O  O48  1  0.47350200  0.73206800  0.64981100  1
  O  O49  1  0.52649800  0.73206800  0.14981100  1
  O  O50  1  0.25066100  0.75351500  0.56624600  1
  O  O51  1  0.74933900  0.75351500  0.06624600  1
  O  O52  1  0.93164600  0.74696100  0.87772600  1
  O  O53  1  0.06835400  0.74696100  0.37772600  1
  O  O54  1  0.43164600  0.75303900  0.87772600  1
  O  O55  1  0.56835400  0.75303900  0.37772600  1
  O  O56  1  0.24933900  0.74648500  0.06624600  1
  O  O57  1  0.75066100  0.74648500  0.56624600  1
  O  O58  1  0.02649800  0.76793200  0.14981100  1
  O  O59  1  0.97350200  0.76793200  0.64981100  1
  O  O60  1  0.21627900  0.83881000  0.75679900  1
  O  O61  1  0.78372100  0.83881000  0.25679900  1
  O  O62  1  0.45833800  0.85269200  0.50875000  1
  O  O63  1  0.54166200  0.85269200  0.00875000  1
  O  O64  1  0.05192400  0.85778700  0.99802000  1
  O  O65  1  0.94807600  0.85778700  0.49802000  1
  O  O66  1  0.33489000  0.89587100  0.21283700  1
  O  O67  1  0.66511000  0.89587100  0.71283700  1
  O  O68  1  0.08203700  0.95132000  0.37545800  1
  O  O69  1  0.91796300  0.95132000  0.87545800  1
  O  O70  1  0.43038300  0.95534900  0.88127300  1
  O  O71  1  0.56961700  0.95534900  0.38127300  1
loop_
_geom_bond_atom_site_label_1
_geom_bond_atom_site_label_2
_geom_bond_distance
_geom_bond_site_symmetry_2
Li0 O66 2.013631 1_545
Li0 O4 2.013631 1_555
Li0 O68 2.034233 1_545
Li0 O2 2.034233 1_555
Li1 O0 2.028947 1_555
Li1 O71 2.028947 1_545
Li1 O4 2.029556 1_555
Li1 O66 2.029556 1_545
Li2 O1 2.028947 1_555
Li2 O70 2.028947 1_545
Li2 O5 2.029556 1_555
Li2 O67 2.029556 1_545
Li3 O5 2.013631 1_555
Li3 O67 2.013631 1_545
Li3 O69 2.034233 1_545
Li3 O3 2.034233 1_555
Li4 O30 2.013631 1_555
Li4 O40 2.013631 1_555
Li4 O38 2.034233 1_555
Li4 O32 2.034233 1_555
Li5 O37 2.028947 1_555
Li5 O35 2.028947 1_555
Li5 O31 2.029556 1_655
Li5 O41 2.029556 1_655
Li6 O31 2.013631 1_555
Li6 O41 2.013631 1_555
Li6 O39 2.034233 1_555
Li6 O33 2.034233 1_555
Li7 O36 2.028947 1_555
Li7 O34 2.028947 1_555
Li7 O40 2.029556 1_455
Li7 O30 2.029556 1_455
Cr0 O4 1.651563 1_555
Cr0 O14 1.754795 1_555
Cr0 O24 1.759089 1_555
Cr0 O23 1.760359 1_555
Cr1 O5 1.651563 1_555
Cr1 O15 1.754795 1_555
Cr1 O25 1.759089 1_555
Cr1 O22 1.760359 1_555
Cr2 O31 1.651563 1_555
Cr2 O21 1.754795 1_555
Cr2 O11 1.759089 1_555
Cr2 O13 1.760359 1_455
Cr3 O30 1.651563 1_555
Cr3 O20 1.754795 1_555
Cr3 O10 1.759089 1_555
Cr3 O12 1.760359 1_655
Cr4 O41 1.651563 1_555
Cr4 O50 1.754795 1_555
Cr4 O60 1.759089 1_555
Cr4 O59 1.760359 1_455
Cr5 O40 1.651563 1_555
Cr5 O51 1.754795 1_555
Cr5 O61 1.759089 1_555
Cr5 O58 1.760359 1_655
Cr6 O66 1.651563 1_555
Cr6 O56 1.754795 1_555
Cr6 O46 1.759089 1_555
Cr6 O49 1.760359 1_555
Cr7 O67 1.651563 1_555
Cr7 O57 1.754795 1_555
Cr7 O47 1.759089 1_555
Cr7 O48 1.760359 1_555
B0 O6 1.366453 1_455
B0 O2 1.379556 1_555
B0 O18 1.402994 1_555
B1 O7 1.366453 1_655
B1 O3 1.379556 1_555
B1 O19 1.402994 1_555
B2 O9 1.363987 1_554
B2 O0 1.376408 1_555
B2 O17 1.398525 1_555
B3 O8 1.363987 1_555
B3 O1 1.376408 1_555
B3 O16 1.398525 1_555
B4 O14 1.470175 1_555
B4 O7 1.478599 1_555
B4 O12 1.486104 1_555
B4 O26 1.488074 1_555
B5 O15 1.470175 1_555
B5 O6 1.478599 1_556
B5 O13 1.486104 1_555
B5 O27 1.488074 1_555
B6 O21 1.470175 1_555
B6 O29 1.478599 1_556
B6 O22 1.486104 1_555
B6 O9 1.488074 1_555
B7 O20 1.470175 1_555
B7 O28 1.478599 1_555
B7 O23 1.486104 1_555
B7 O8 1.488074 1_555
B8 O27 1.363987 1_454
B8 O34 1.376408 1_555
B8 O18 1.398525 1_555
B9 O26 1.363987 1_655
B9 O35 1.376408 1_555
B9 O19 1.398525 1_555
B10 O29 1.366453 1_555
B10 O32 1.379556 1_555
B10 O17 1.402994 1_555
B11 O28 1.366453 1_555
B11 O33 1.379556 1_555
B11 O16 1.402994 1_555
B12 O43 1.366453 1_555
B12 O39 1.379556 1_555
B12 O54 1.402994 1_555
B13 O42 1.366453 1_555
B13 O38 1.379556 1_555
B13 O55 1.402994 1_555
B14 O45 1.363987 1_455
B14 O36 1.376408 1_555
B14 O53 1.398525 1_555
B15 O44 1.363987 1_656
B15 O37 1.376408 1_555
B15 O52 1.398525 1_555
B16 O50 1.470175 1_555
B16 O42 1.478599 1_555
B16 O48 1.486104 1_555
B16 O62 1.488074 1_555
B17 O51 1.470175 1_555
B17 O43 1.478599 1_554
B17 O49 1.486104 1_555
B17 O63 1.488074 1_555
B18 O56 1.470175 1_555
B18 O64 1.478599 1_554
B18 O58 1.486104 1_555
B18 O44 1.488074 1_555
B19 O57 1.470175 1_555
B19 O65 1.478599 1_555
B19 O59 1.486104 1_555
B19 O45 1.488074 1_555
B20 O63 1.363987 1_556
B20 O70 1.376408 1_555
B20 O54 1.398525 1_555
B21 O62 1.363987 1_555
B21 O71 1.376408 1_555
B21 O55 1.398525 1_555
B22 O65 1.366453 1_455
B22 O68 1.379556 1_555
B22 O53 1.402994 1_555
B23 O64 1.366453 1_655
B23 O69 1.379556 1_555
B23 O52 1.402994 1_555
H0 O2 0.991426 1_565
H1 O3 0.991426 1_565
H2 O71 0.999176 1_545
H3 O70 0.999176 1_545
H4 O11 0.996840 1_555
H5 O10 0.996840 1_555
H6 O24 0.996840 1_555
H7 O25 0.996840 1_555
H8 O36 0.999176 1_555
H9 O37 0.999176 1_555
H10 O32 0.991426 1_555
H11 O33 0.991426 1_555
H12 O39 0.991426 1_555
H13 O38 0.991426 1_555
H14 O34 0.999176 1_555
H15 O35 0.999176 1_555
H16 O47 0.996840 1_555
H17 O46 0.996840 1_555
H18 O60 0.996840 1_555
H19 O61 0.996840 1_555
H20 O1 0.999176 1_565
H21 O0 0.999176 1_565
H22 O68 0.991426 1_545
H23 O69 0.991426 1_545
