# generated using pymatgen
data_LiV4OF11
_symmetry_space_group_name_H-M   'P 1'
_cell_length_a   5.48826400
_cell_length_b   9.27606670
_cell_length_c   9.28587519
_cell_angle_alpha   68.79398461
_cell_angle_beta   87.42428631
_cell_angle_gamma   86.44090830
_symmetry_Int_Tables_number   1
_chemical_formula_structural   LiV4OF11
_chemical_formula_sum   'Li2 V8 O2 F22'
_cell_volume   439.74966772
_cell_formula_units_Z   2
loop_
 _symmetry_equiv_pos_site_id
 _symmetry_equiv_pos_as_xyz
  1  'x, y, z'
loop_
 _atom_site_type_symbol
 _atom_site_label
 _atom_site_symmetry_multiplicity
 _atom_site_fract_x
 _atom_site_fract_y
 _atom_site_fract_z
 _atom_site_occupancy
  Li  Li0  1  0.44978700  0.86642600  0.87273500  1
  Li  Li1  1  0.03615100  0.88460800  0.39122200  1
  V  V0  1  0.49463800  0.49844300  0.00085400  1
  V  V1  1  0.50196500  0.24996000  0.75348900  1
  V  V2  1  0.98549800  0.75538400  0.73900700  1
  V  V3  1  0.52307600  0.99512800  0.50186200  1
  V  V4  1  0.99375600  0.49935800  0.50125500  1
  V  V5  1  0.00184400  0.25207600  0.25248800  1
  V  V6  1  0.49059400  0.75572400  0.23791500  1
  V  V7  1  0.01878000  0.99391400  0.00454200  1
  O  O0  1  0.81052400  0.87558800  0.56593800  1
  O  O1  1  0.30582200  0.87456800  0.06791500  1
  F  F0  1  0.01748500  0.92451400  0.81989000  1
  F  F1  1  0.20030400  0.63128800  0.92337900  1
  F  F2  1  0.67509800  0.69176400  0.87730500  1
  F  F3  1  0.99617400  0.56803100  0.67884900  1
  F  F4  1  0.20173600  0.18149900  0.87456200  1
  F  F5  1  0.30542200  0.82536100  0.61889600  1
  F  F6  1  0.50246600  0.43138300  0.82425800  1
  F  F7  1  0.70300100  0.12318500  0.92643700  1
  F  F8  1  0.29900200  0.37478200  0.57559900  1
  F  F9  1  0.49849100  0.05818100  0.69481700  1
  F  F10  1  0.18403200  0.68968600  0.37867400  1
  F  F11  1  0.49038600  0.92745700  0.31981900  1
  F  F12  1  0.79516200  0.31900200  0.62484700  1
  F  F13  1  0.69754000  0.62634100  0.42372200  1
  F  F14  1  0.19845600  0.11887000  0.42715300  1
  F  F15  1  0.49711700  0.56741000  0.17647600  1
  F  F16  1  0.69956100  0.18284900  0.37445000  1
  F  F17  1  0.80401300  0.82231100  0.12275100  1
  F  F18  1  0.29755000  0.31808200  0.12618900  1
  F  F19  1  0.00570200  0.43122600  0.32374200  1
  F  F20  1  0.80159900  0.37522300  0.07382200  1
  F  F21  1  0.99685700  0.06045200  0.19583400  1
loop_
_geom_bond_atom_site_label_1
_geom_bond_atom_site_label_2
_geom_bond_distance
_geom_bond_site_symmetry_2
Li0 O1 1.969202 1_556
Li1 O0 1.976520 1_455
O0 V2 1.859465 1_555
O0 V3 1.860715 1_555
O1 V7 1.857185 1_555
O1 V6 1.865939 1_555
F0 V2 1.988655 1_455
F0 V7 2.038318 1_556
F0 Li0 2.432065 1_555
F1 V0 1.965069 1_556
F1 V2 2.057478 1_455
F2 Li0 1.965224 1_555
F2 V0 2.035415 1_556
F2 V2 2.068695 1_555
F3 V4 1.971941 1_555
F3 V2 2.005626 1_555
F4 V1 1.956835 1_555
F4 V7 2.020254 1_546
F5 V3 1.991646 1_555
F5 V2 2.046945 1_455
F6 V0 1.950952 1_556
F6 V1 2.016132 1_555
F7 V1 1.952256 1_555
F7 V7 2.047747 1_646
F8 V4 1.976090 1_455
F8 V1 1.982843 1_555
F9 Li0 1.964234 1_545
F9 V1 2.041614 1_555
F9 V3 2.072994 1_545
F10 Li1 1.975669 1_555
F10 V4 2.042398 1_455
F10 V6 2.065314 1_555
F11 V6 1.998075 1_555
F11 V3 2.023035 1_555
F12 V1 1.956573 1_555
F12 V4 2.007218 1_555
F13 V4 1.950044 1_555
F13 V6 2.053325 1_555
F14 V5 1.965624 1_555
F14 V3 2.062527 1_545
F15 V0 1.956225 1_555
F15 V6 2.022251 1_555
F16 V5 1.970927 1_655
F16 V3 1.996525 1_545
F17 V6 1.993158 1_555
F17 V7 1.995156 1_655
F18 V5 1.953712 1_555
F18 V0 2.006610 1_555
F19 V4 1.964592 1_455
F19 V5 2.000232 1_555
F20 V5 1.975386 1_655
F20 V0 1.976599 1_555
F21 Li1 1.962008 1_645
F21 V5 2.030005 1_655
F21 V7 2.077364 1_645
