# generated using pymatgen
data_Cr2O3
_symmetry_space_group_name_H-M   'P 1'
_cell_length_a   5.05742377
_cell_length_b   5.52757376
_cell_length_c   5.05742872
_cell_angle_alpha   117.22418827
_cell_angle_beta   60.00002016
_cell_angle_gamma   117.22412719
_symmetry_Int_Tables_number   1
_chemical_formula_structural   Cr2O3
_chemical_formula_sum   'Cr4 O6'
_cell_volume   103.96313559
_cell_formula_units_Z   2
loop_
 _symmetry_equiv_pos_site_id
 _symmetry_equiv_pos_as_xyz
  1  'x, y, z'
loop_
 _atom_site_type_symbol
 _atom_site_label
 _atom_site_symmetry_multiplicity
 _atom_site_fract_x
 _atom_site_fract_y
 _atom_site_fract_z
 _atom_site_occupancy
  Cr  Cr0  1  0.00000000  -0.00000000  -0.00000000  1
  Cr  Cr1  1  0.31251287  0.93753960  0.31251287  1
  Cr  Cr2  1  0.50000000  0.50000000  0.50000000  1
  Cr  Cr3  1  0.68748713  0.06246040  0.68748713  1
  O  O0  1  0.28504538  0.78096961  0.60959533  1
  O  O1  1  0.39040367  0.21903139  0.11367309  1
  O  O2  1  0.11367309  0.21903139  0.71495562  1
  O  O3  1  0.88632691  0.78096861  0.28504438  1
  O  O4  1  0.60959633  0.78096861  0.88632691  1
  O  O5  1  0.71495462  0.21903039  0.39040467  1
loop_
_geom_bond_atom_site_label_1
_geom_bond_atom_site_label_2
_geom_bond_distance
_geom_bond_site_symmetry_2
Cr0 O2 2.001456 1_554
Cr0 O3 2.001456 1_445
Cr0 O5 2.001457 1_455
Cr0 O0 2.001457 1_544
Cr0 O4 2.001458 1_444
Cr0 O1 2.001458 1_555
Cr1 O0 1.974016 1_555
Cr1 O3 1.974020 1_455
Cr1 O4 1.974021 1_554
Cr1 O1 2.015480 1_565
Cr1 O2 2.015482 1_565
Cr1 O5 2.015482 1_565
Cr2 O4 2.013871 1_555
Cr2 O1 2.013871 1_555
Cr2 O3 2.013875 1_555
Cr2 O2 2.013875 1_555
Cr2 O0 2.013878 1_555
Cr2 O5 2.013878 1_555
Cr3 O5 1.974016 1_555
Cr3 O2 1.974020 1_655
Cr3 O1 1.974021 1_556
Cr3 O4 2.015480 1_545
Cr3 O3 2.015482 1_545
Cr3 O0 2.015482 1_545
