# generated using pymatgen
data_LiFe2(BO3)2
_symmetry_space_group_name_H-M   'P 1'
_cell_length_a   5.28834000
_cell_length_b   9.05949865
_cell_length_c   10.22247582
_cell_angle_alpha   89.07905641
_cell_angle_beta   88.70984311
_cell_angle_gamma   89.58674197
_symmetry_Int_Tables_number   1
_chemical_formula_structural   LiFe2(BO3)2
_chemical_formula_sum   'Li4 Fe8 B8 O24'
_cell_volume   489.55693984
_cell_formula_units_Z   4
loop_
 _symmetry_equiv_pos_site_id
 _symmetry_equiv_pos_as_xyz
  1  'x, y, z'
loop_
 _atom_site_type_symbol
 _atom_site_label
 _atom_site_symmetry_multiplicity
 _atom_site_fract_x
 _atom_site_fract_y
 _atom_site_fract_z
 _atom_site_occupancy
  Li  Li0  1  0.65395400  0.98536400  0.83757400  1
  Li  Li1  1  0.34135900  0.99405500  0.09729000  1
  Li  Li2  1  0.85110900  0.50156400  0.60509100  1
  Li  Li3  1  0.65199800  0.01229300  0.33584000  1
  Fe  Fe0  1  0.84675700  0.83181200  0.11203000  1
  Fe  Fe1  1  0.15880700  0.82202800  0.36652600  1
  Fe  Fe2  1  0.66687000  0.65223000  0.87162900  1
  Fe  Fe3  1  0.34245200  0.67409200  0.62732700  1
  Fe  Fe4  1  0.66435200  0.35253800  0.36589600  1
  Fe  Fe5  1  0.84408100  0.16546200  0.61836200  1
  Fe  Fe6  1  0.33684200  0.33526000  0.12559200  1
  Fe  Fe7  1  0.15000000  0.16959000  0.87144400  1
  B  B0  1  0.83965000  0.82883400  0.62131300  1
  B  B1  1  0.67906400  0.67781700  0.38519200  1
  B  B2  1  0.16858900  0.84254500  0.87028200  1
  B  B3  1  0.34916300  0.66508100  0.12490500  1
  B  B4  1  0.65539900  0.32189800  0.86370000  1
  B  B5  1  0.33625200  0.33817500  0.61807800  1
  B  B6  1  0.82651600  0.17130800  0.12883400  1
  B  B7  1  0.16122800  0.15741500  0.36772100  1
  O  O0  1  0.73629200  0.96463900  0.64281000  1
  O  O1  1  0.91174100  0.83578000  0.90170100  1
  O  O2  1  0.30573600  0.96728300  0.89916000  1
  O  O3  1  0.79493300  0.80729000  0.33566300  1
  O  O4  1  0.70852200  0.69994300  0.65311500  1
  O  O5  1  0.22039900  0.79404200  0.17223000  1
  O  O6  1  0.08142200  0.81296000  0.56636500  1
  O  O7  1  0.58350300  0.68412900  0.06860400  1
  O  O8  1  0.80445500  0.54891400  0.40004700  1
  O  O9  1  0.42597400  0.69290900  0.42650600  1
  O  O10  1  0.29382200  0.72319800  0.81275700  1
  O  O11  1  0.76692500  0.45066600  0.83297800  1
  O  O12  1  0.23341400  0.53225100  0.13723600  1
  O  O13  1  0.69882300  0.29980600  0.16325800  1
  O  O14  1  0.59193600  0.32058700  0.58077900  1
  O  O15  1  0.22656900  0.47548300  0.61961400  1
  O  O16  1  0.42755700  0.30612100  0.93367800  1
  O  O17  1  0.90812400  0.16414300  0.41625000  1
  O  O18  1  0.77301100  0.18849600  0.81846000  1
  O  O19  1  0.29090100  0.28227100  0.32743400  1
  O  O20  1  0.19353600  0.21476800  0.65453900  1
  O  O21  1  0.70307800  0.03738600  0.13656500  1
  O  O22  1  0.08207800  0.17644800  0.09012800  1
  O  O23  1  0.27995600  0.02112700  0.35701200  1
loop_
_geom_bond_atom_site_label_1
_geom_bond_atom_site_label_2
_geom_bond_distance
_geom_bond_site_symmetry_2
Li0 O2 1.939875 1_555
Li0 O18 1.954691 1_565
Li0 O1 2.027241 1_555
Li0 O0 2.039758 1_555
Li1 O21 2.006224 1_565
Li1 O5 2.056573 1_555
Li1 O2 2.056723 1_554
Li1 O22 2.140980 1_565
Li2 O15 2.006414 1_655
Li2 O4 2.007914 1_555
Li2 O8 2.152022 1_555
Li2 O14 2.165482 1_555
Li2 O11 2.399884 1_555
Li3 O23 1.975690 1_555
Li3 O3 2.000112 1_545
Li3 O21 2.058052 1_555
Li3 O17 2.125126 1_555
Fe0 O7 1.999770 1_555
Fe0 O21 2.023557 1_565
Fe0 O5 2.106749 1_655
Fe0 O1 2.169486 1_554
Fe0 O3 2.303688 1_555
Fe1 O23 1.918754 1_565
Fe1 O9 1.931990 1_555
Fe1 O3 1.962818 1_455
Fe1 O5 2.025136 1_555
Fe1 O6 2.074826 1_555
Fe2 O11 1.941765 1_555
Fe2 O7 2.075873 1_556
Fe2 O1 2.145224 1_555
Fe2 O10 2.165695 1_555
Fe2 O4 2.274467 1_555
Fe3 O15 1.908374 1_555
Fe3 O10 1.964862 1_555
Fe3 O6 1.965995 1_555
Fe3 O4 1.975745 1_555
Fe3 O9 2.094638 1_555
Fe4 O8 1.971430 1_555
Fe4 O19 2.126346 1_555
Fe4 O13 2.136810 1_555
Fe4 O17 2.193128 1_555
Fe4 O14 2.235830 1_555
Fe5 O0 1.921294 1_545
Fe5 O20 1.949238 1_655
Fe5 O14 1.969603 1_555
Fe5 O18 2.084906 1_555
Fe5 O17 2.086332 1_555
Fe6 O12 1.867643 1_555
Fe6 O13 1.983994 1_555
Fe6 O22 2.020726 1_555
Fe6 O16 2.030042 1_554
Fe6 O19 2.119919 1_555
Fe7 O2 2.022316 1_545
Fe7 O16 2.045160 1_555
Fe7 O18 2.082796 1_455
Fe7 O20 2.255254 1_555
Fe7 O22 2.257939 1_556
B0 O0 1.361740 1_555
B0 O6 1.392316 1_655
B0 O4 1.392616 1_555
B1 O8 1.346918 1_555
B1 O9 1.400787 1_555
B1 O3 1.408886 1_555
B2 O2 1.386510 1_555
B2 O1 1.390257 1_455
B2 O10 1.395000 1_555
B3 O12 1.356821 1_555
B3 O7 1.365497 1_555
B3 O5 1.433376 1_555
B4 O11 1.340590 1_555
B4 O16 1.394394 1_555
B4 O18 1.433701 1_555
B5 O15 1.368903 1_555
B5 O20 1.394484 1_555
B5 O14 1.405237 1_555
B6 O21 1.382174 1_555
B6 O13 1.387862 1_555
B6 O22 1.400538 1_655
B7 O19 1.379429 1_555
B7 O23 1.385916 1_555
B7 O17 1.418201 1_455
