# generated using pymatgen
data_Fe6O11F
_symmetry_space_group_name_H-M   'P 1'
_cell_length_a   5.50694040
_cell_length_b   5.50694040
_cell_length_c   7.25684921
_cell_angle_alpha   70.96985574
_cell_angle_beta   70.96985574
_cell_angle_gamma   71.93871020
_symmetry_Int_Tables_number   1
_chemical_formula_structural   Fe6O11F
_chemical_formula_sum   'Fe6 O11 F1'
_cell_volume   191.49809625
_cell_formula_units_Z   1
loop_
 _symmetry_equiv_pos_site_id
 _symmetry_equiv_pos_as_xyz
  1  'x, y, z'
loop_
 _atom_site_type_symbol
 _atom_site_label
 _atom_site_symmetry_multiplicity
 _atom_site_fract_x
 _atom_site_fract_y
 _atom_site_fract_z
 _atom_site_occupancy
  Fe  Fe0  1  0.33307300  0.33307300  0.16491200  1
  Fe  Fe1  1  0.66431200  0.66431200  0.33277100  1
  Fe  Fe2  1  0.34362700  0.34362700  0.66852800  1
  Fe  Fe3  1  0.66883200  0.66883200  0.83628900  1
  Fe  Fe4  1  0.99325100  0.99325100  0.49018400  1
  Fe  Fe5  1  0.99821500  0.99821500  0.00915000  1
  O  O0  1  0.97629800  0.35400000  0.33253800  1
  O  O1  1  0.64163500  0.02883600  0.66911600  1
  O  O2  1  0.76653600  0.76653600  0.04362700  1
  O  O3  1  0.44008900  0.44008900  0.37292800  1
  O  O4  1  0.22940900  0.22940900  0.95800200  1
  O  O5  1  0.57413300  0.57413300  0.62116900  1
  O  O6  1  0.88670900  0.88670900  0.30081800  1
  O  O7  1  0.02883600  0.64163500  0.66911600  1
  O  O8  1  0.35400000  0.97629800  0.33253800  1
  O  O9  1  0.69267000  0.30640100  0.99888400  1
  O  O10  1  0.30640100  0.69267000  0.99888400  1
  F  F0  1  0.10197800  0.10197800  0.70054600  1
loop_
_geom_bond_atom_site_label_1
_geom_bond_atom_site_label_2
_geom_bond_distance
_geom_bond_site_symmetry_2
Fe0 O8 1.935365 1_545
Fe0 O0 1.935365 1_455
Fe0 O10 1.942637 1_554
Fe0 O9 1.942637 1_554
Fe0 O4 2.055818 1_554
Fe0 O3 2.085423 1_555
Fe1 O3 1.900104 1_555
Fe1 O6 1.900884 1_555
Fe1 O5 1.915898 1_555
Fe1 O2 1.921578 1_555
Fe1 O8 2.012844 1_555
Fe1 O0 2.012844 1_555
Fe2 O4 1.930301 1_555
Fe2 O5 1.941886 1_555
Fe2 O3 1.963334 1_555
Fe2 O1 1.983458 1_555
Fe2 O7 1.983458 1_555
Fe3 O1 1.946918 1_565
Fe3 O7 1.946918 1_655
Fe3 O9 1.948282 1_555
Fe3 O10 1.948282 1_555
Fe3 O2 2.019472 1_556
Fe3 O5 2.052168 1_555
Fe4 O0 1.933051 1_565
Fe4 O8 1.933051 1_655
Fe4 O7 1.940318 1_655
Fe4 O1 1.940318 1_565
Fe4 O6 1.960090 1_555
Fe5 O4 1.941252 1_664
Fe5 O6 1.942353 1_555
Fe5 O2 1.977661 1_555
Fe5 O9 1.986377 1_564
Fe5 O10 1.986377 1_654
F0 Fe5 2.049825 1_446
F0 Fe2 2.071365 1_555
F0 Fe4 2.112310 1_445
