# generated using pymatgen
data_Na4P3H3O11
_symmetry_space_group_name_H-M   'P 1'
_cell_length_a   6.95621800
_cell_length_b   11.96466000
_cell_length_c   12.08497600
_cell_angle_alpha   90.00000000
_cell_angle_beta   90.00000000
_cell_angle_gamma   90.00000000
_symmetry_Int_Tables_number   1
_chemical_formula_structural   Na4P3H3O11
_chemical_formula_sum   'Na16 P12 H12 O44'
_cell_volume   1005.81784816
_cell_formula_units_Z   4
loop_
 _symmetry_equiv_pos_site_id
 _symmetry_equiv_pos_as_xyz
  1  'x, y, z'
loop_
 _atom_site_type_symbol
 _atom_site_label
 _atom_site_symmetry_multiplicity
 _atom_site_fract_x
 _atom_site_fract_y
 _atom_site_fract_z
 _atom_site_occupancy
  Na  Na0  1  0.18633300  0.00422600  0.19147000  1
  Na  Na1  1  0.18633300  0.50422600  0.80853000  1
  Na  Na2  1  0.20910700  0.31498200  0.09221700  1
  Na  Na3  1  0.20910700  0.81498200  0.90778300  1
  Na  Na4  1  0.29089300  0.81498200  0.40778300  1
  Na  Na5  1  0.29089300  0.31498200  0.59221700  1
  Na  Na6  1  0.31366700  0.00422600  0.69147000  1
  Na  Na7  1  0.31366700  0.50422600  0.30853000  1
  Na  Na8  1  0.68633300  0.99577400  0.30853000  1
  Na  Na9  1  0.68633300  0.49577400  0.69147000  1
  Na  Na10  1  0.70910700  0.18501800  0.59221700  1
  Na  Na11  1  0.70910700  0.68501800  0.40778300  1
  Na  Na12  1  0.79089300  0.18501800  0.09221700  1
  Na  Na13  1  0.79089300  0.68501800  0.90778300  1
  Na  Na14  1  0.81366700  0.49577400  0.19147000  1
  Na  Na15  1  0.81366700  0.99577400  0.80853000  1
  P  P0  1  0.00000000  0.25000000  0.33812400  1
  P  P1  1  0.00000000  0.75000000  0.66187600  1
  P  P2  1  0.20887700  0.59715800  0.06377500  1
  P  P3  1  0.20887700  0.09715800  0.93622500  1
  P  P4  1  0.29112300  0.09715800  0.43622500  1
  P  P5  1  0.29112300  0.59715800  0.56377500  1
  P  P6  1  0.50000000  0.25000000  0.83812400  1
  P  P7  1  0.50000000  0.75000000  0.16187600  1
  P  P8  1  0.70887700  0.40284200  0.43622500  1
  P  P9  1  0.70887700  0.90284200  0.56377500  1
  P  P10  1  0.79112300  0.90284200  0.06377500  1
  P  P11  1  0.79112300  0.40284200  0.93622500  1
  H  H0  1  0.00000000  0.00000000  0.50000000  1
  H  H1  1  0.00000000  0.50000000  0.50000000  1
  H  H2  1  0.02792000  0.18777300  0.73233000  1
  H  H3  1  0.02792000  0.68777300  0.26767000  1
  H  H4  1  0.47208000  0.18777300  0.23233000  1
  H  H5  1  0.47208000  0.68777300  0.76767000  1
  H  H6  1  0.50000000  0.00000000  0.00000000  1
  H  H7  1  0.50000000  0.50000000  0.00000000  1
  H  H8  1  0.52792000  0.81222700  0.76767000  1
  H  H9  1  0.52792000  0.31222700  0.23233000  1
  H  H10  1  0.97208000  0.81222700  0.26767000  1
  H  H11  1  0.97208000  0.31222700  0.73233000  1
  O  O0  1  0.00000000  0.25000000  0.68015000  1
  O  O1  1  0.00000000  0.75000000  0.31985000  1
  O  O2  1  0.07722700  0.34908600  0.27507500  1
  O  O3  1  0.07722700  0.84908600  0.72492500  1
  O  O4  1  0.09400800  0.12096700  0.03957300  1
  O  O5  1  0.09400800  0.62096700  0.96042700  1
  O  O6  1  0.10290800  0.58597500  0.17378700  1
  O  O7  1  0.10290800  0.08597500  0.82621300  1
  O  O8  1  0.15075000  0.99553600  0.44982700  1
  O  O9  1  0.15075000  0.49553600  0.55017300  1
  O  O10  1  0.15811800  0.21045900  0.42803500  1
  O  O11  1  0.15811800  0.71045900  0.57196500  1
  O  O12  1  0.34188200  0.71045900  0.07196500  1
  O  O13  1  0.34188200  0.21045900  0.92803500  1
  O  O14  1  0.34925000  0.49553600  0.05017300  1
  O  O15  1  0.34925000  0.99553600  0.94982700  1
  O  O16  1  0.39709200  0.08597500  0.32621300  1
  O  O17  1  0.39709200  0.58597500  0.67378700  1
  O  O18  1  0.40599200  0.12096700  0.53957300  1
  O  O19  1  0.40599200  0.62096700  0.46042700  1
  O  O20  1  0.42277300  0.84908600  0.22492500  1
  O  O21  1  0.42277300  0.34908600  0.77507500  1
  O  O22  1  0.50000000  0.25000000  0.18015000  1
  O  O23  1  0.50000000  0.75000000  0.81985000  1
  O  O24  1  0.57722700  0.65091400  0.22492500  1
  O  O25  1  0.57722700  0.15091400  0.77507500  1
  O  O26  1  0.59400800  0.37903300  0.53957300  1
  O  O27  1  0.59400800  0.87903300  0.46042700  1
  O  O28  1  0.60290800  0.41402500  0.32621300  1
  O  O29  1  0.60290800  0.91402500  0.67378700  1
  O  O30  1  0.65075000  0.00446400  0.05017300  1
  O  O31  1  0.65075000  0.50446400  0.94982700  1
  O  O32  1  0.65811800  0.78954100  0.07196500  1
  O  O33  1  0.65811800  0.28954100  0.92803500  1
  O  O34  1  0.84188200  0.28954100  0.42803500  1
  O  O35  1  0.84188200  0.78954100  0.57196500  1
  O  O36  1  0.84925000  0.00446400  0.55017300  1
  O  O37  1  0.84925000  0.50446400  0.44982700  1
  O  O38  1  0.89709200  0.91402500  0.17378700  1
  O  O39  1  0.89709200  0.41402500  0.82621300  1
  O  O40  1  0.90599200  0.37903300  0.03957300  1
  O  O41  1  0.90599200  0.87903300  0.96042700  1
  O  O42  1  0.92277300  0.15091400  0.27507500  1
  O  O43  1  0.92277300  0.65091400  0.72492500  1
loop_
_geom_bond_atom_site_label_1
_geom_bond_atom_site_label_2
_geom_bond_distance
_geom_bond_site_symmetry_2
Na0 O38 2.293170 1_445
Na0 O4 2.394391 1_555
Na0 O16 2.399512 1_555
Na0 O20 2.512779 1_545
Na0 O42 2.731739 1_455
Na1 O39 2.293170 1_455
Na1 O5 2.394391 1_555
Na1 O17 2.399512 1_555
Na1 O21 2.512779 1_555
Na1 O43 2.731739 1_455
Na2 O40 2.331943 1_455
Na2 O22 2.414200 1_555
Na2 O14 2.423898 1_555
Na2 O2 2.427234 1_555
Na2 O13 2.520676 1_554
Na2 O4 2.536600 1_555
Na3 O41 2.331943 1_455
Na3 O23 2.414200 1_555
Na3 O15 2.423898 1_555
Na3 O3 2.427234 1_555
Na3 O12 2.520676 1_556
Na3 O5 2.536600 1_555
Na4 O27 2.331943 1_555
Na4 O1 2.414200 1_555
Na4 O8 2.423898 1_555
Na4 O20 2.427234 1_555
Na4 O11 2.520676 1_555
Na4 O19 2.536600 1_555
Na5 O26 2.331943 1_555
Na5 O0 2.414200 1_555
Na5 O9 2.423898 1_555
Na5 O21 2.427234 1_555
Na5 O10 2.520676 1_555
Na5 O18 2.536600 1_555
Na6 O29 2.293170 1_545
Na6 O18 2.394391 1_555
Na6 O7 2.399512 1_555
Na6 O3 2.512779 1_545
Na6 O25 2.731739 1_555
Na7 O28 2.293170 1_555
Na7 O19 2.394391 1_555
Na7 O6 2.399512 1_555
Na7 O2 2.512779 1_555
Na7 O24 2.731739 1_555
Na8 O16 2.293170 1_565
Na8 O27 2.394391 1_555
Na8 O38 2.399512 1_555
Na8 O42 2.512779 1_565
Na8 O20 2.731739 1_555
Na9 O17 2.293170 1_555
Na9 O26 2.394391 1_555
Na9 O39 2.399512 1_555
Na9 O43 2.512779 1_555
Na9 O21 2.731739 1_555
Na10 O18 2.331943 1_555
Na10 O0 2.414200 1_655
Na10 O36 2.423898 1_555
Na10 O25 2.427234 1_555
Na10 O34 2.520676 1_555
Na10 O26 2.536600 1_555
Na11 O19 2.331943 1_555
Na11 O1 2.414200 1_655
Na11 O37 2.423898 1_555
Na11 O24 2.427234 1_555
Na11 O35 2.520676 1_555
Na11 O27 2.536600 1_555
Na12 O4 2.331943 1_655
Na12 O22 2.414200 1_555
Na12 O30 2.423898 1_555
Na12 O42 2.427234 1_555
Na12 O33 2.520676 1_554
Na12 O40 2.536600 1_555
Na13 O5 2.331943 1_655
Na13 O23 2.414200 1_555
Na13 O31 2.423898 1_555
Na13 O43 2.427234 1_555
Na13 O32 2.520676 1_556
Na13 O41 2.536600 1_555
Na14 O6 2.293170 1_655
Na14 O40 2.394391 1_555
Na14 O28 2.399512 1_555
Na14 O24 2.512779 1_555
Na14 O2 2.731739 1_655
Na15 O7 2.293170 1_665
Na15 O41 2.394391 1_555
Na15 O29 2.399512 1_555
Na15 O25 2.512779 1_565
Na15 O3 2.731739 1_655
H0 O36 1.212504 1_455
H0 O8 1.212504 1_545
H1 O37 1.212504 1_455
H1 O9 1.212504 1_555
H2 O0 0.994830 1_555
H2 O7 1.744371 1_555
H3 O1 0.994830 1_555
H3 O6 1.744371 1_555
H4 O22 0.994830 1_555
H4 O16 1.744371 1_555
H5 O23 0.994830 1_555
H5 O17 1.744371 1_555
H6 O30 1.212504 1_555
H6 O15 1.212504 1_544
H7 O14 1.212504 1_555
H7 O31 1.212504 1_554
H8 O23 0.994830 1_555
H8 O29 1.744371 1_555
H9 O22 0.994830 1_555
H9 O28 1.744371 1_555
H10 O1 0.994830 1_655
H10 O38 1.744371 1_555
H11 O0 0.994830 1_655
H11 O39 1.744371 1_555
O2 P0 1.508189 1_555
O3 P1 1.508189 1_555
O4 P3 1.509812 1_554
O5 P2 1.509812 1_556
O6 P2 1.526051 1_555
O7 P3 1.526051 1_555
O8 P4 1.568073 1_565
O9 P5 1.568073 1_555
O10 P0 1.616863 1_555
O10 P4 1.644228 1_555
O11 P1 1.616863 1_555
O11 P5 1.644228 1_555
O12 P7 1.616863 1_555
O12 P2 1.644228 1_555
O13 P6 1.616863 1_555
O13 P3 1.644228 1_555
O14 P2 1.568073 1_555
O15 P3 1.568073 1_565
O16 P4 1.526051 1_555
O17 P5 1.526051 1_555
O18 P4 1.509812 1_555
O19 P5 1.509812 1_555
O20 P7 1.508189 1_555
O21 P6 1.508189 1_555
O24 P7 1.508189 1_555
O25 P6 1.508189 1_555
O26 P8 1.509812 1_555
O27 P9 1.509812 1_555
O28 P8 1.526051 1_555
O29 P9 1.526051 1_555
O30 P10 1.568073 1_545
O31 P11 1.568073 1_555
O32 P7 1.616863 1_555
O32 P10 1.644228 1_555
O33 P6 1.616863 1_555
O33 P11 1.644228 1_555
O34 P0 1.616863 1_655
O34 P8 1.644228 1_555
O35 P1 1.616863 1_655
O35 P9 1.644228 1_555
O36 P9 1.568073 1_545
O37 P8 1.568073 1_555
O38 P10 1.526051 1_555
O39 P11 1.526051 1_555
O40 P11 1.509812 1_554
O41 P10 1.509812 1_556
O42 P0 1.508189 1_655
O43 P1 1.508189 1_655
