# generated using pymatgen
data_LiV2OF5
_symmetry_space_group_name_H-M   'P 1'
_cell_length_a   5.24795085
_cell_length_b   5.24795085
_cell_length_c   13.75690800
_cell_angle_alpha   90.00000000
_cell_angle_beta   90.00000000
_cell_angle_gamma   120.00001072
_symmetry_Int_Tables_number   1
_chemical_formula_structural   LiV2OF5
_chemical_formula_sum   'Li3 V6 O3 F15'
_cell_volume   328.11866489
_cell_formula_units_Z   3
loop_
 _symmetry_equiv_pos_site_id
 _symmetry_equiv_pos_as_xyz
  1  'x, y, z'
loop_
 _atom_site_type_symbol
 _atom_site_label
 _atom_site_symmetry_multiplicity
 _atom_site_fract_x
 _atom_site_fract_y
 _atom_site_fract_z
 _atom_site_occupancy
  Li  Li0  1  0.99959800  0.02049100  0.67091100  1
  Li  Li1  1  0.97950900  0.97910700  0.00424500  1
  Li  Li2  1  0.02089300  0.00040200  0.33757800  1
  V  V0  1  0.33178100  0.68347400  0.49622700  1
  V  V1  1  0.35169200  0.66821900  0.16289300  1
  V  V2  1  0.31652600  0.64830800  0.82956000  1
  V  V3  1  0.64894400  0.31687700  0.49630000  1
  V  V4  1  0.66793300  0.35105600  0.16296600  1
  V  V5  1  0.68312300  0.33206700  0.82963300  1
  O  O0  1  0.99975100  0.35193600  0.75965400  1
  O  O1  1  0.35218500  0.00024900  0.42632000  1
  O  O2  1  0.64806400  0.64781500  0.09298700  1
  F  F0  1  0.00654800  0.65242100  0.24312800  1
  F  F1  1  0.99258300  0.64760400  0.57549300  1
  F  F2  1  0.00091800  0.65989200  0.91337500  1
  F  F3  1  0.00447100  0.34990600  0.08873300  1
  F  F4  1  0.99562600  0.34516000  0.42285900  1
  F  F5  1  0.34757900  0.35412700  0.57646100  1
  F  F6  1  0.34010800  0.34102500  0.24670800  1
  F  F7  1  0.35239600  0.34497900  0.90882600  1
  F  F8  1  0.34543500  0.99552900  0.75540000  1
  F  F9  1  0.34953500  0.00437400  0.08952600  1
  F  F10  1  0.65009400  0.65456500  0.42206600  1
  F  F11  1  0.65484000  0.65046500  0.75619200  1
  F  F12  1  0.64587300  0.99345200  0.90979500  1
  F  F13  1  0.65502100  0.00741700  0.24215900  1
  F  F14  1  0.65897500  0.99908200  0.58004100  1
loop_
_geom_bond_atom_site_label_1
_geom_bond_atom_site_label_2
_geom_bond_distance
_geom_bond_site_symmetry_2
Li0 O0 2.124751 1_555
Li1 O2 2.124742 1_555
Li2 O1 2.124743 1_555
O0 V2 1.876686 1_655
O0 V5 1.877622 1_555
O1 V0 1.876691 1_545
O1 V3 1.877629 1_555
O2 V1 1.876689 1_555
O2 V4 1.877622 1_555
F0 V4 2.016137 1_455
F0 V1 2.087067 1_555
F0 Li2 2.211658 1_565
F1 V0 2.014491 1_655
F1 V3 2.078833 1_555
F1 Li0 2.341327 1_565
F2 V2 2.043817 1_555
F2 V5 2.049194 1_455
F2 Li1 2.137743 1_456
F3 V1 2.026774 1_555
F3 V4 2.042746 1_455
F3 Li1 2.213557 1_445
F4 V3 2.020604 1_555
F4 V0 2.037394 1_655
F4 Li2 2.215258 1_655
F5 V3 2.016130 1_555
F5 V0 2.087064 1_555
F5 Li0 2.211658 1_455
F6 V1 2.043826 1_555
F6 V4 2.049192 1_555
F6 Li2 2.137740 1_555
F7 V2 2.014495 1_555
F7 V5 2.078833 1_555
F7 Li1 2.341334 1_446
F8 V2 2.026773 1_555
F8 V5 2.042746 1_565
F8 Li0 2.213564 1_465
F9 V4 2.020595 1_555
F9 V1 2.037382 1_545
F9 Li1 2.215262 1_445
F10 V0 2.026784 1_555
F10 V3 2.042753 1_555
F10 Li2 2.213557 1_665
F11 V5 2.020600 1_555
F11 V2 2.037398 1_555
F11 Li0 2.215260 1_565
F12 V5 2.016137 1_565
F12 V2 2.087069 1_555
F12 Li1 2.211658 1_556
F13 V1 2.014492 1_545
F13 V4 2.078833 1_555
F13 Li2 2.341334 1_655
F14 V0 2.043814 1_555
F14 V3 2.049189 1_565
F14 Li0 2.137738 1_565
