# generated using pymatgen
data_Fe5O7F3
_symmetry_space_group_name_H-M   'P 1'
_cell_length_a   4.66050900
_cell_length_b   4.67069498
_cell_length_c   15.19630438
_cell_angle_alpha   89.66024188
_cell_angle_beta   89.78672820
_cell_angle_gamma   88.40090146
_symmetry_Int_Tables_number   1
_chemical_formula_structural   Fe5O7F3
_chemical_formula_sum   'Fe10 O14 F6'
_cell_volume   330.65362584
_cell_formula_units_Z   2
loop_
 _symmetry_equiv_pos_site_id
 _symmetry_equiv_pos_as_xyz
  1  'x, y, z'
loop_
 _atom_site_type_symbol
 _atom_site_label
 _atom_site_symmetry_multiplicity
 _atom_site_fract_x
 _atom_site_fract_y
 _atom_site_fract_z
 _atom_site_occupancy
  Fe  Fe0  1  0.99840700  0.00531700  0.70077400  1
  Fe  Fe1  1  0.01771300  0.96859900  0.90522400  1
  Fe  Fe2  1  0.98228700  0.03140100  0.09477600  1
  Fe  Fe3  1  0.00159300  0.99468300  0.29922600  1
  Fe  Fe4  1  0.00000000  0.00000000  0.50000000  1
  Fe  Fe5  1  0.52143200  0.53701900  0.79344200  1
  Fe  Fe6  1  0.47856800  0.46298100  0.20655800  1
  Fe  Fe7  1  0.50000000  0.50000000  0.00000000  1
  Fe  Fe8  1  0.52639400  0.52507400  0.40080200  1
  Fe  Fe9  1  0.47360600  0.47492600  0.59919800  1
  O  O0  1  0.19997500  0.20001100  0.99820200  1
  O  O1  1  0.17321300  0.18241500  0.20160300  1
  O  O2  1  0.17791500  0.18078200  0.60012600  1
  O  O3  1  0.69245100  0.30411700  0.69770000  1
  O  O4  1  0.67073600  0.31469800  0.10075400  1
  O  O5  1  0.70266100  0.30398400  0.30412100  1
  O  O6  1  0.69427700  0.30674800  0.50016500  1
  O  O7  1  0.29733900  0.69601600  0.69587900  1
  O  O8  1  0.32926400  0.68530200  0.89924600  1
  O  O9  1  0.30754900  0.69588300  0.30230000  1
  O  O10  1  0.30572300  0.69325200  0.49983500  1
  O  O11  1  0.82678700  0.81758500  0.79839700  1
  O  O12  1  0.80002500  0.79998900  0.00179800  1
  O  O13  1  0.82208500  0.81921800  0.39987400  1
  F  F0  1  0.21269800  0.20024500  0.80129500  1
  F  F1  1  0.20722700  0.20222500  0.40042000  1
  F  F2  1  0.71479900  0.30149800  0.89573600  1
  F  F3  1  0.28520100  0.69850200  0.10426400  1
  F  F4  1  0.78730200  0.79975500  0.19870500  1
  F  F5  1  0.79277300  0.79777500  0.59958000  1
loop_
_geom_bond_atom_site_label_1
_geom_bond_atom_site_label_2
_geom_bond_distance
_geom_bond_site_symmetry_2
Fe0 O11 1.903750 1_545
Fe0 O2 1.929955 1_655
Fe0 O3 1.967681 1_555
Fe0 O7 1.980318 1_645
Fe1 O8 1.939220 1_555
Fe1 O12 1.955259 1_456
Fe1 O0 1.991086 1_565
Fe1 O11 1.995991 1_455
Fe2 O4 1.939220 1_555
Fe2 O0 1.955259 1_654
Fe2 O12 1.991086 1_545
Fe2 O1 1.995991 1_655
Fe3 O1 1.903750 1_565
Fe3 O13 1.929955 1_455
Fe3 O9 1.967681 1_555
Fe3 O5 1.980318 1_465
Fe4 O13 1.944044 1_445
Fe4 O2 1.944044 1_555
Fe4 O6 1.992215 1_455
Fe4 O10 1.992215 1_545
Fe5 O7 1.948208 1_555
Fe5 O8 1.958254 1_555
Fe5 O11 1.963214 1_555
Fe5 O3 1.974122 1_555
Fe6 O5 1.948208 1_555
Fe6 O4 1.958254 1_555
Fe6 O1 1.963214 1_555
Fe6 O9 1.974122 1_555
Fe7 O8 1.918694 1_554
Fe7 O4 1.918694 1_555
Fe7 O12 2.007294 1_555
Fe7 O0 2.007294 1_554
Fe8 O5 1.965044 1_555
Fe8 O9 1.967011 1_555
Fe8 O6 1.969262 1_555
Fe8 O13 1.972829 1_555
Fe8 O10 1.974070 1_555
Fe9 O7 1.965044 1_555
Fe9 O3 1.967011 1_555
Fe9 O10 1.969262 1_555
Fe9 O2 1.972829 1_555
Fe9 O6 1.974070 1_555
F0 Fe0 2.058721 1_455
F0 Fe1 2.124766 1_545
F0 Fe5 2.163700 1_555
F1 Fe4 2.034177 1_555
F1 Fe3 2.074457 1_545
F1 Fe8 2.147519 1_555
F2 Fe1 2.075511 1_645
F2 Fe7 2.079895 1_556
F2 Fe5 2.091293 1_555
F3 Fe2 2.075511 1_465
F3 Fe7 2.079895 1_555
F3 Fe6 2.091293 1_555
F4 Fe3 2.058721 1_655
F4 Fe2 2.124766 1_565
F4 Fe6 2.163700 1_555
F5 Fe4 2.034177 1_665
F5 Fe0 2.074457 1_565
F5 Fe9 2.147519 1_555
