# generated using pymatgen
data_LiNb8O14
_symmetry_space_group_name_H-M   'P 1'
_cell_length_a   5.98426300
_cell_length_b   9.41469100
_cell_length_c   10.39444700
_cell_angle_alpha   90.00000000
_cell_angle_beta   90.00000000
_cell_angle_gamma   90.00000000
_symmetry_Int_Tables_number   1
_chemical_formula_structural   LiNb8O14
_chemical_formula_sum   'Li2 Nb16 O28'
_cell_volume   585.62300893
_cell_formula_units_Z   2
loop_
 _symmetry_equiv_pos_site_id
 _symmetry_equiv_pos_as_xyz
  1  'x, y, z'
loop_
 _atom_site_type_symbol
 _atom_site_label
 _atom_site_symmetry_multiplicity
 _atom_site_fract_x
 _atom_site_fract_y
 _atom_site_fract_z
 _atom_site_occupancy
  Li  Li0  1  0.50000000  0.00000000  0.50000000  1
  Li  Li1  1  0.50000000  0.50000000  0.00000000  1
  Nb  Nb0  1  0.00000000  0.11426200  0.66049200  1
  Nb  Nb1  1  0.50000000  0.11958300  0.16682800  1
  Nb  Nb2  1  0.26488500  0.12749000  0.92317400  1
  Nb  Nb3  1  0.73511500  0.12749000  0.92317400  1
  Nb  Nb4  1  0.26488500  0.37251000  0.42317400  1
  Nb  Nb5  1  0.73511500  0.37251000  0.42317400  1
  Nb  Nb6  1  0.50000000  0.38041700  0.66682800  1
  Nb  Nb7  1  0.00000000  0.38573800  0.16049200  1
  Nb  Nb8  1  0.00000000  0.61426200  0.83950800  1
  Nb  Nb9  1  0.50000000  0.61958300  0.33317200  1
  Nb  Nb10  1  0.26488500  0.62749000  0.57682600  1
  Nb  Nb11  1  0.73511500  0.62749000  0.57682600  1
  Nb  Nb12  1  0.26488500  0.87251000  0.07682600  1
  Nb  Nb13  1  0.73511500  0.87251000  0.07682600  1
  Nb  Nb14  1  0.50000000  0.88041700  0.83317200  1
  Nb  Nb15  1  0.00000000  0.88573800  0.33950800  1
  O  O0  1  0.00000000  0.00000000  0.00000000  1
  O  O1  1  0.00000000  0.00000000  0.50000000  1
  O  O2  1  0.24985700  0.00488400  0.74825600  1
  O  O3  1  0.75014300  0.00488400  0.74825600  1
  O  O4  1  0.00000000  0.23465800  0.82211200  1
  O  O5  1  0.50000000  0.24169000  0.34512600  1
  O  O6  1  0.24888000  0.24519900  0.58908100  1
  O  O7  1  0.75112000  0.24519900  0.58908100  1
  O  O8  1  0.24888000  0.25480100  0.08908100  1
  O  O9  1  0.75112000  0.25480100  0.08908100  1
  O  O10  1  0.50000000  0.25831000  0.84512600  1
  O  O11  1  0.00000000  0.26534200  0.32211200  1
  O  O12  1  0.75014300  0.49511600  0.24825600  1
  O  O13  1  0.24985700  0.49511600  0.24825600  1
  O  O14  1  0.00000000  0.50000000  0.50000000  1
  O  O15  1  0.00000000  0.50000000  0.00000000  1
  O  O16  1  0.24985700  0.50488400  0.75174400  1
  O  O17  1  0.75014300  0.50488400  0.75174400  1
  O  O18  1  0.00000000  0.73465800  0.67788800  1
  O  O19  1  0.50000000  0.74169000  0.15487400  1
  O  O20  1  0.24888000  0.74519900  0.91091900  1
  O  O21  1  0.75112000  0.74519900  0.91091900  1
  O  O22  1  0.24888000  0.75480100  0.41091900  1
  O  O23  1  0.75112000  0.75480100  0.41091900  1
  O  O24  1  0.50000000  0.75831000  0.65487400  1
  O  O25  1  0.00000000  0.76534200  0.17788800  1
  O  O26  1  0.24985700  0.99511600  0.25174400  1
  O  O27  1  0.75014300  0.99511600  0.25174400  1
loop_
_geom_bond_atom_site_label_1
_geom_bond_atom_site_label_2
_geom_bond_distance
_geom_bond_site_symmetry_2
Nb0 O1 1.984993 1_555
Nb0 O4 2.026582 1_555
Nb0 O2 2.031815 1_555
Nb0 O3 2.031815 1_455
Nb0 O7 2.070943 1_455
Nb0 O6 2.070943 1_555
Nb1 O26 2.095951 1_545
Nb1 O27 2.095951 1_545
Nb1 O9 2.128854 1_555
Nb1 O8 2.128854 1_555
Nb1 O5 2.180902 1_555
Nb2 O10 2.038304 1_555
Nb2 O8 2.102318 1_556
Nb2 O0 2.142673 1_556
Nb2 O4 2.152714 1_555
Nb2 O2 2.155517 1_555
Nb3 O10 2.038304 1_555
Nb3 O9 2.102318 1_556
Nb3 O0 2.142673 1_656
Nb3 O4 2.152714 1_655
Nb3 O3 2.155517 1_555
Nb4 O5 2.038304 1_555
Nb4 O6 2.102318 1_555
Nb4 O14 2.142673 1_555
Nb4 O11 2.152714 1_555
Nb4 O13 2.155517 1_555
Nb5 O5 2.038304 1_555
Nb5 O7 2.102318 1_555
Nb5 O14 2.142673 1_655
Nb5 O11 2.152714 1_655
Nb5 O12 2.155517 1_555
Nb6 O17 2.095951 1_555
Nb6 O16 2.095951 1_555
Nb6 O6 2.128854 1_555
Nb6 O7 2.128854 1_555
Nb6 O10 2.180902 1_555
Nb7 O15 1.984993 1_555
Nb7 O11 2.026582 1_555
Nb7 O12 2.031815 1_455
Nb7 O13 2.031815 1_555
Nb7 O8 2.070943 1_555
Nb7 O9 2.070943 1_455
Nb8 O15 1.984993 1_556
Nb8 O18 2.026582 1_555
Nb8 O16 2.031815 1_555
Nb8 O17 2.031815 1_455
Nb8 O20 2.070943 1_555
Nb8 O21 2.070943 1_455
Nb9 O13 2.095951 1_555
Nb9 O12 2.095951 1_555
Nb9 O22 2.128854 1_555
Nb9 O23 2.128854 1_555
Nb9 O19 2.180902 1_555
Nb10 O24 2.038304 1_555
Nb10 O22 2.102318 1_555
Nb10 O14 2.142673 1_555
Nb10 O18 2.152714 1_555
Nb10 O16 2.155517 1_555
Nb11 O24 2.038304 1_555
Nb11 O23 2.102318 1_555
Nb11 O14 2.142673 1_655
Nb11 O18 2.152714 1_655
Nb11 O17 2.155517 1_555
Nb12 O19 2.038304 1_555
Nb12 O20 2.102318 1_554
Nb12 O0 2.142673 1_565
Nb12 O25 2.152714 1_555
Nb12 O26 2.155517 1_555
Nb13 O19 2.038304 1_555
Nb13 O21 2.102318 1_554
Nb13 O0 2.142673 1_665
Nb13 O25 2.152714 1_655
Nb13 O27 2.155517 1_555
Nb14 O3 2.095951 1_565
Nb14 O2 2.095951 1_565
Nb14 O21 2.128854 1_555
Nb14 O20 2.128854 1_555
Nb14 O24 2.180902 1_555
Nb15 O1 1.984993 1_565
Nb15 O25 2.026582 1_555
Nb15 O27 2.031815 1_455
Nb15 O26 2.031815 1_555
Nb15 O22 2.070943 1_555
Nb15 O23 2.070943 1_455
