# generated using pymatgen
data_LiV2O4
_symmetry_space_group_name_H-M   'P 1'
_cell_length_a   5.95392600
_cell_length_b   5.19468400
_cell_length_c   5.31283279
_cell_angle_alpha   89.29973989
_cell_angle_beta   90.00000000
_cell_angle_gamma   90.00000000
_symmetry_Int_Tables_number   1
_chemical_formula_structural   LiV2O4
_chemical_formula_sum   'Li2 V4 O8'
_cell_volume   164.30708000
_cell_formula_units_Z   2
loop_
 _symmetry_equiv_pos_site_id
 _symmetry_equiv_pos_as_xyz
  1  'x, y, z'
loop_
 _atom_site_type_symbol
 _atom_site_label
 _atom_site_symmetry_multiplicity
 _atom_site_fract_x
 _atom_site_fract_y
 _atom_site_fract_z
 _atom_site_occupancy
  Li  Li0  1  0.75000000  0.19001100  0.93899500  1
  Li  Li1  1  0.25000000  0.80998900  0.06100500  1
  V  V0  1  0.00000000  0.00000000  0.50000000  1
  V  V1  1  0.75000000  0.51171700  0.48050600  1
  V  V2  1  0.50000000  0.00000000  0.50000000  1
  V  V3  1  0.25000000  0.48828300  0.51949400  1
  O  O0  1  0.01374800  0.67927100  0.30742100  1
  O  O1  1  0.98625200  0.32072900  0.69257900  1
  O  O2  1  0.75000000  0.16293500  0.29860400  1
  O  O3  1  0.75000000  0.85872300  0.69536800  1
  O  O4  1  0.48625200  0.67927100  0.30742100  1
  O  O5  1  0.51374800  0.32072900  0.69257900  1
  O  O6  1  0.25000000  0.14127700  0.30463200  1
  O  O7  1  0.25000000  0.83706500  0.70139600  1
loop_
_geom_bond_atom_site_label_1
_geom_bond_atom_site_label_2
_geom_bond_distance
_geom_bond_site_symmetry_2
Li0 O2 1.913998 1_556
Li0 O1 2.032703 1_555
Li0 O5 2.032703 1_555
Li0 O3 2.165966 1_545
Li1 O7 1.913998 1_554
Li1 O4 2.032703 1_555
Li1 O0 2.032703 1_555
Li1 O6 2.165966 1_565
O0 V0 1.967492 1_565
O0 V1 2.012357 1_455
O0 V3 2.050623 1_555
O1 V0 1.967492 1_655
O1 V3 2.012357 1_655
O1 V1 2.050623 1_555
O2 V0 2.013626 1_655
O2 V2 2.013626 1_555
O2 V1 2.063836 1_555
O3 V2 1.952667 1_565
O3 V0 1.952667 1_665
O3 V1 2.145389 1_555
O4 V2 1.967492 1_565
O4 V1 2.012357 1_555
O4 V3 2.050623 1_555
O5 V2 1.967492 1_555
O5 V3 2.012357 1_555
O5 V1 2.050623 1_555
O6 V0 1.952667 1_555
O6 V2 1.952667 1_555
O6 V3 2.145389 1_555
O7 V2 2.013626 1_565
O7 V0 2.013626 1_565
O7 V3 2.063836 1_555
