# generated using pymatgen
data_Rb6Ti2O7
_symmetry_space_group_name_H-M   'P 1'
_cell_length_a   9.93015655
_cell_length_b   9.93015655
_cell_length_c   9.96172300
_cell_angle_alpha   90.00000000
_cell_angle_beta   90.00000000
_cell_angle_gamma   120.00000370
_symmetry_Int_Tables_number   1
_chemical_formula_structural   Rb6Ti2O7
_chemical_formula_sum   'Rb12 Ti4 O14'
_cell_volume   850.70163562
_cell_formula_units_Z   2
loop_
 _symmetry_equiv_pos_site_id
 _symmetry_equiv_pos_as_xyz
  1  'x, y, z'
loop_
 _atom_site_type_symbol
 _atom_site_label
 _atom_site_symmetry_multiplicity
 _atom_site_fract_x
 _atom_site_fract_y
 _atom_site_fract_z
 _atom_site_occupancy
  Rb  Rb0  1  0.33340000  0.97092300  0.37382500  1
  Rb  Rb1  1  0.35023600  0.96285700  0.87273100  1
  Rb  Rb2  1  0.02907700  0.36247800  0.37382500  1
  Rb  Rb3  1  0.03714300  0.38737900  0.87273100  1
  Rb  Rb4  1  0.36247800  0.33340000  0.62617500  1
  Rb  Rb5  1  0.38737900  0.35023600  0.12726900  1
  Rb  Rb6  1  0.61262100  0.64976400  0.87273100  1
  Rb  Rb7  1  0.63752200  0.66660000  0.37382500  1
  Rb  Rb8  1  0.96285700  0.61262100  0.12726900  1
  Rb  Rb9  1  0.97092300  0.63752200  0.62617500  1
  Rb  Rb10  1  0.64976400  0.03714300  0.12726900  1
  Rb  Rb11  1  0.66660000  0.02907700  0.62617500  1
  Ti  Ti0  1  0.33333300  0.66666700  0.18046300  1
  Ti  Ti1  1  0.33333300  0.66666700  0.56638600  1
  Ti  Ti2  1  0.66666700  0.33333300  0.81953700  1
  Ti  Ti3  1  0.66666700  0.33333300  0.43361400  1
  O  O0  1  0.17597600  0.47794700  0.62171500  1
  O  O1  1  0.17518100  0.47856300  0.12504400  1
  O  O2  1  0.30338200  0.82481900  0.12504400  1
  O  O3  1  0.30197100  0.82402400  0.62171500  1
  O  O4  1  0.33333300  0.66666700  0.37304700  1
  O  O5  1  0.52205300  0.69802900  0.62171500  1
  O  O6  1  0.52143700  0.69661800  0.12504400  1
  O  O7  1  0.47856300  0.30338200  0.87495600  1
  O  O8  1  0.47794700  0.30197100  0.37828500  1
  O  O9  1  0.66666700  0.33333300  0.62695300  1
  O  O10  1  0.69802900  0.17597600  0.37828500  1
  O  O11  1  0.69661800  0.17518100  0.87495600  1
  O  O12  1  0.82481900  0.52143700  0.87495600  1
  O  O13  1  0.82402400  0.52205300  0.37828500  1
loop_
_geom_bond_atom_site_label_1
_geom_bond_atom_site_label_2
_geom_bond_distance
_geom_bond_site_symmetry_2
O0 Ti1 1.824579 1_555
O0 Rb3 2.778911 1_555
O0 Rb2 2.804999 1_555
O0 Rb4 2.854901 1_555
O0 Rb9 3.144150 1_455
O1 Ti0 1.823934 1_555
O1 Rb3 2.788401 1_554
O1 Rb2 2.811264 1_555
O1 Rb5 2.957979 1_555
O1 Rb8 3.004127 1_455
O2 Ti0 1.823928 1_555
O2 Rb1 2.788401 1_554
O2 Rb0 2.811266 1_555
O2 Rb8 2.957979 1_455
O2 Rb10 3.004126 1_565
O3 Ti1 1.824573 1_555
O3 Rb1 2.778911 1_555
O3 Rb0 2.805000 1_555
O3 Rb9 2.854893 1_455
O3 Rb11 3.144158 1_565
O4 Ti0 1.918468 1_555
O4 Ti1 1.925990 1_555
O4 Rb2 3.020987 1_555
O4 Rb0 3.020987 1_555
O4 Rb7 3.020987 1_555
O5 Ti1 1.824583 1_555
O5 Rb6 2.778911 1_555
O5 Rb7 2.804996 1_555
O5 Rb11 2.854892 1_565
O5 Rb4 3.144158 1_555
O6 Ti0 1.823937 1_555
O6 Rb6 2.788401 1_554
O6 Rb7 2.811261 1_555
O6 Rb10 2.957979 1_565
O6 Rb5 3.004127 1_555
O7 Ti2 1.823937 1_555
O7 Rb5 2.788401 1_556
O7 Rb4 2.811261 1_555
O7 Rb1 2.957979 1_545
O7 Rb6 3.004127 1_555
O8 Ti3 1.824583 1_555
O8 Rb5 2.778911 1_555
O8 Rb4 2.804996 1_555
O8 Rb0 2.854892 1_545
O8 Rb7 3.144158 1_555
O9 Ti2 1.918468 1_555
O9 Ti3 1.925990 1_555
O9 Rb9 3.020987 1_555
O9 Rb11 3.020987 1_555
O9 Rb4 3.020987 1_555
O10 Ti3 1.824573 1_555
O10 Rb10 2.778911 1_555
O10 Rb11 2.805000 1_555
O10 Rb2 2.854893 1_655
O10 Rb0 3.144158 1_545
O11 Ti2 1.823928 1_555
O11 Rb10 2.788401 1_556
O11 Rb11 2.811266 1_555
O11 Rb3 2.957979 1_655
O11 Rb1 3.004126 1_545
O12 Ti2 1.823934 1_555
O12 Rb8 2.788401 1_556
O12 Rb9 2.811264 1_555
O12 Rb6 2.957979 1_555
O12 Rb3 3.004127 1_655
O13 Ti3 1.824579 1_555
O13 Rb8 2.778911 1_555
O13 Rb9 2.804999 1_555
O13 Rb7 2.854901 1_555
O13 Rb2 3.144150 1_655
