# generated using pymatgen
data_Mn2OF2
_symmetry_space_group_name_H-M   'P 1'
_cell_length_a   8.90951400
_cell_length_b   8.83524541
_cell_length_c   8.92245245
_cell_angle_alpha   109.41352108
_cell_angle_beta   109.55191219
_cell_angle_gamma   109.19499049
_symmetry_Int_Tables_number   1
_chemical_formula_structural   Mn2OF2
_chemical_formula_sum   'Mn16 O8 F16'
_cell_volume   542.35254277
_cell_formula_units_Z   8
loop_
 _symmetry_equiv_pos_site_id
 _symmetry_equiv_pos_as_xyz
  1  'x, y, z'
loop_
 _atom_site_type_symbol
 _atom_site_label
 _atom_site_symmetry_multiplicity
 _atom_site_fract_x
 _atom_site_fract_y
 _atom_site_fract_z
 _atom_site_occupancy
  Mn  Mn0  1  0.71954200  0.18206700  0.04542200  1
  Mn  Mn1  1  0.96045900  0.95557300  0.03874800  1
  Mn  Mn2  1  0.53544500  0.02893500  0.49133400  1
  Mn  Mn3  1  0.49041700  0.51747900  0.99676800  1
  Mn  Mn4  1  0.99553700  0.75055900  0.26353100  1
  Mn  Mn5  1  0.45810400  0.70574400  0.75008500  1
  Mn  Mn6  1  0.36094300  0.08734800  0.68873400  1
  Mn  Mn7  1  0.28846400  0.49768100  0.23165900  1
  Mn  Mn8  1  0.26502400  0.21699400  0.50255600  1
  Mn  Mn9  1  0.76977700  0.80183100  0.47418100  1
  Mn  Mn10  1  0.64928400  0.42871400  0.80793500  1
  Mn  Mn11  1  0.68577200  0.98028400  0.26915500  1
  Mn  Mn12  1  0.01240700  0.55116600  0.48245700  1
  Mn  Mn13  1  0.52911000  0.28066000  0.24830500  1
  Mn  Mn14  1  0.93933800  0.19110400  0.76473000  1
  Mn  Mn15  1  0.28329300  0.81375600  0.97893600  1
  O  O0  1  0.78736600  0.04196100  0.47854400  1
  O  O1  1  0.19589600  0.95171700  0.04377100  1
  O  O2  1  0.46218400  0.00847500  0.26851400  1
  O  O3  1  0.55883600  0.29612400  0.46396100  1
  O  O4  1  0.99504000  0.22098800  0.02363600  1
  O  O5  1  0.77169700  0.55423700  0.49173300  1
  O  O6  1  0.45416300  0.72724900  0.00898300  1
  O  O7  1  0.48725100  0.48535600  0.26673500  1
  F  F0  1  0.23575400  0.69697900  0.26137100  1
  F  F1  1  0.30055500  0.24199700  0.22790400  1
  F  F2  1  0.00077000  0.05705500  0.21913800  1
  F  F3  1  0.16876500  0.69362800  0.77932400  1
  F  F4  1  0.51128800  0.47885900  0.73313400  1
  F  F5  1  0.56543800  0.30368500  0.99057300  1
  F  F6  1  0.22538100  0.44926500  0.50158900  1
  F  F7  1  0.81441900  0.30630400  0.23268900  1
  F  F8  1  0.99391200  0.95864100  0.77769900  1
  F  F9  1  0.04722600  0.80228800  0.95445500  1
  F  F10  1  0.40358800  0.67297200  0.54375600  1
  F  F11  1  0.71607500  0.75616500  0.75541200  1
  F  F12  1  0.55310500  0.00320200  0.73099800  1
  F  F13  1  0.84477200  0.09106700  0.94005700  1
  F  F14  1  0.16025400  0.87279400  0.55726300  1
  F  F15  1  0.80334900  0.33909700  0.71422300  1
loop_
_geom_bond_atom_site_label_1
_geom_bond_atom_site_label_2
_geom_bond_distance
_geom_bond_site_symmetry_2
Mn2 O2 1.796165 1_555
Mn2 O0 2.252627 1_555
Mn2 O3 2.402027 1_555
Mn3 O6 1.958092 1_556
Mn3 O7 2.525507 1_556
Mn5 O6 2.267237 1_556
Mn7 O7 1.739270 1_555
Mn7 O4 2.406062 1_455
Mn9 O0 2.061475 1_565
Mn9 O5 2.249614 1_555
Mn9 O7 2.528508 1_555
Mn11 O0 1.572790 1_565
Mn11 O2 2.085657 1_565
Mn11 O6 2.226037 1_555
Mn12 O5 2.182317 1_455
Mn13 O3 1.803227 1_555
Mn13 O7 1.929717 1_555
Mn13 O5 2.272448 1_555
Mn13 O2 2.364008 1_555
Mn14 O0 2.089456 1_555
Mn14 O4 2.096066 1_556
Mn15 O1 1.698115 1_556
Mn15 O6 1.897844 1_556
Mn15 O2 2.159050 1_566
F0 Mn7 1.925663 1_555
F0 Mn4 2.343665 1_455
F0 Mn2 2.669174 1_565
F1 Mn13 1.884029 1_555
F1 Mn7 2.286498 1_555
F2 Mn1 1.401952 1_445
F2 Mn8 2.320890 1_555
F3 Mn15 1.467852 1_555
F3 Mn12 2.168385 1_555
F3 Mn5 2.648051 1_555
F4 Mn10 1.469308 1_555
F4 Mn5 2.176415 1_555
F4 Mn8 2.208165 1_555
F4 Mn3 2.342022 1_555
F5 Mn0 2.036951 1_556
F5 Mn3 2.191662 1_555
F5 Mn6 2.286873 1_555
F5 Mn10 2.429544 1_555
F5 Mn13 2.490015 1_556
F6 Mn8 2.196039 1_555
F6 Mn5 2.200799 1_555
F6 Mn12 2.334294 1_555
F7 Mn0 1.391596 1_555
F7 Mn12 2.100661 1_655
F7 Mn13 2.532126 1_555
F8 Mn14 2.290238 1_565
F8 Mn9 2.303920 1_555
F8 Mn1 2.452762 1_556
F9 O1 1.255688 1_556
F9 Mn1 1.843339 1_456
F9 Mn15 2.004811 1_555
F10 Mn5 1.632044 1_555
F10 Mn7 2.319864 1_555
F11 Mn5 2.173215 1_555
F11 Mn1 2.251288 1_556
F12 Mn6 2.053613 1_555
F12 Mn2 2.184189 1_555
F12 Mn0 2.300901 1_556
F12 Mn5 2.565868 1_545
F13 O4 1.190935 1_556
F13 Mn0 1.888012 1_556
F13 Mn1 2.043408 1_546
F13 Mn14 2.291263 1_555
F14 Mn6 1.748045 1_565
F14 Mn4 2.165782 1_455
F14 Mn12 2.438231 1_555
F15 Mn10 2.062274 1_555
F15 Mn14 2.109204 1_555
F15 Mn2 2.461845 1_555
