# generated using pymatgen
data_Li3Mn3CoO8
_symmetry_space_group_name_H-M   'P 1'
_cell_length_a   5.95218008
_cell_length_b   5.95218008
_cell_length_c   5.95218065
_cell_angle_alpha   59.02958095
_cell_angle_beta   59.02958095
_cell_angle_gamma   59.02958278
_symmetry_Int_Tables_number   1
_chemical_formula_structural   Li3Mn3CoO8
_chemical_formula_sum   'Li3 Mn3 Co1 O8'
_cell_volume   145.81208505
_cell_formula_units_Z   1
loop_
 _symmetry_equiv_pos_site_id
 _symmetry_equiv_pos_as_xyz
  1  'x, y, z'
loop_
 _atom_site_type_symbol
 _atom_site_label
 _atom_site_symmetry_multiplicity
 _atom_site_fract_x
 _atom_site_fract_y
 _atom_site_fract_z
 _atom_site_occupancy
  Li  Li0  1  0.50000000  0.00000000  0.00000000  1
  Li  Li1  1  0.00000000  0.50000000  0.00000000  1
  Li  Li2  1  0.00000000  0.00000000  0.50000000  1
  Mn  Mn0  1  0.50000000  0.50000000  0.00000000  1
  Mn  Mn1  1  0.50000000  0.00000000  0.50000000  1
  Mn  Mn2  1  0.00000000  0.50000000  0.50000000  1
  Co  Co0  1  0.00000000  0.00000000  0.00000000  1
  O  O0  1  0.23241900  0.23241900  0.74212300  1
  O  O1  1  0.74958700  0.74958700  0.74958700  1
  O  O2  1  0.74212300  0.23241900  0.23241900  1
  O  O3  1  0.23241900  0.74212300  0.23241900  1
  O  O4  1  0.76758100  0.25787700  0.76758100  1
  O  O5  1  0.25787700  0.76758100  0.76758100  1
  O  O6  1  0.25041300  0.25041300  0.25041300  1
  O  O7  1  0.76758100  0.76758100  0.25787700  1
loop_
_geom_bond_atom_site_label_1
_geom_bond_atom_site_label_2
_geom_bond_distance
_geom_bond_site_symmetry_2
Li0 O1 2.092559 1_544
Li0 O6 2.092559 1_555
Li0 O4 2.206682 1_554
Li0 O3 2.206682 1_545
Li0 O7 2.206683 1_545
Li0 O0 2.206683 1_554
Li1 O6 2.092559 1_555
Li1 O1 2.092559 1_454
Li1 O5 2.206682 1_554
Li1 O2 2.206682 1_455
Li1 O7 2.206683 1_455
Li1 O0 2.206683 1_554
Li2 O1 2.092559 1_445
Li2 O6 2.092559 1_555
Li2 O5 2.206683 1_545
Li2 O4 2.206683 1_455
Li2 O3 2.206683 1_545
Li2 O2 2.206683 1_455
Mn0 O3 1.987292 1_555
Mn0 O2 1.987292 1_555
Mn0 O5 1.987292 1_554
Mn0 O4 1.987292 1_554
Mn0 O6 2.085452 1_555
Mn0 O1 2.085452 1_554
Mn1 O2 1.987292 1_555
Mn1 O5 1.987292 1_545
Mn1 O0 1.987292 1_555
Mn1 O7 1.987292 1_545
Mn1 O1 2.085452 1_545
Mn1 O6 2.085452 1_555
Mn2 O3 1.987292 1_555
Mn2 O4 1.987292 1_455
Mn2 O0 1.987292 1_555
Mn2 O7 1.987292 1_455
Mn2 O6 2.085452 1_555
Mn2 O1 2.085452 1_455
Co0 O0 1.944851 1_554
Co0 O7 1.944851 1_445
Co0 O3 1.944852 1_545
Co0 O2 1.944852 1_455
Co0 O4 1.944852 1_454
Co0 O5 1.944852 1_544
