# generated using pymatgen
data_LiNiPO4
_symmetry_space_group_name_H-M   'P 1'
_cell_length_a   4.28775106
_cell_length_b   14.29166300
_cell_length_c   4.76561006
_cell_angle_alpha   89.99989578
_cell_angle_beta   89.98168255
_cell_angle_gamma   89.99999999
_symmetry_Int_Tables_number   1
_chemical_formula_structural   LiNiPO4
_chemical_formula_sum   'Li4 Ni4 P4 O16'
_cell_volume   292.03224769
_cell_formula_units_Z   4
loop_
 _symmetry_equiv_pos_site_id
 _symmetry_equiv_pos_as_xyz
  1  'x, y, z'
loop_
 _atom_site_type_symbol
 _atom_site_label
 _atom_site_symmetry_multiplicity
 _atom_site_fract_x
 _atom_site_fract_y
 _atom_site_fract_z
 _atom_site_occupancy
  Li  Li0  1  0.99999900  0.24823300  0.75000300  1
  Li  Li1  1  0.99999800  0.75176800  0.24999800  1
  Li  Li2  1  0.49999900  0.25175300  0.24999700  1
  Li  Li3  1  0.49999800  0.74824700  0.75000500  1
  Ni  Ni0  1  0.50000100  0.43691900  0.74999900  1
  Ni  Ni1  1  0.50000000  0.56307800  0.25001000  1
  Ni  Ni2  1  0.00002200  0.06329700  0.24999600  1
  Ni  Ni3  1  0.00002100  0.93670100  0.74997000  1
  P  P0  1  0.99999600  0.38986300  0.24999800  1
  P  P1  1  0.99999500  0.61013700  0.75000200  1
  P  P2  1  0.49999800  0.88990000  0.24999100  1
  P  P3  1  0.50000100  0.11010200  0.75001300  1
  O  O0  1  0.18555400  0.32976700  0.46669700  1
  O  O1  1  0.18554800  0.67022900  0.96669700  1
  O  O2  1  0.31437400  0.17019300  0.96677900  1
  O  O3  1  0.31437500  0.82980500  0.46677500  1
  O  O4  1  0.68561800  0.17020100  0.53323200  1
  O  O5  1  0.68562500  0.82980500  0.03323000  1
  O  O6  1  0.81444000  0.32977100  0.03330400  1
  O  O7  1  0.81443900  0.67023100  0.53330100  1
  O  O8  1  0.25919600  0.04927200  0.58895900  1
  O  O9  1  0.25919400  0.95072800  0.08895300  1
  O  O10  1  0.24072700  0.45069000  0.08896800  1
  O  O11  1  0.24072300  0.54931000  0.58896800  1
  O  O12  1  0.75926700  0.54930900  0.91103900  1
  O  O13  1  0.75927000  0.45068900  0.41103700  1
  O  O14  1  0.74081300  0.04927200  0.91103900  1
  O  O15  1  0.74080700  0.95073100  0.41103800  1
loop_
_geom_bond_atom_site_label_1
_geom_bond_atom_site_label_2
_geom_bond_distance
_geom_bond_site_symmetry_2
Li0 O0 1.952683 1_655
Li0 O6 1.952711 1_556
Li0 O4 2.031954 1_555
Li0 O2 2.032009 1_655
Li1 O1 1.952703 1_654
Li1 O7 1.952706 1_555
Li1 O5 2.031961 1_555
Li1 O3 2.031996 1_655
Li2 O4 1.953066 1_555
Li2 O2 1.953092 1_554
Li2 O0 2.031384 1_555
Li2 O6 2.031385 1_555
Li3 O5 1.953101 1_556
Li3 O3 1.953108 1_555
Li3 O7 2.031398 1_555
Li3 O1 2.031408 1_555
Ni0 O13 1.970483 1_555
Ni0 O10 1.970525 1_556
Ni0 O12 2.098892 1_555
Ni0 O11 2.098913 1_555
Ni0 O6 2.446768 1_556
Ni0 O0 2.446818 1_555
Ni1 O11 1.970484 1_555
Ni1 O12 1.970513 1_554
Ni1 O13 2.098865 1_555
Ni1 O10 2.098890 1_555
Ni1 O7 2.446779 1_555
Ni1 O1 2.446847 1_554
Ni2 O8 1.971207 1_555
Ni2 O14 1.971269 1_454
Ni2 O9 2.100383 1_545
Ni2 O15 2.100444 1_445
Ni2 O2 2.443602 1_554
Ni2 O4 2.443850 1_455
Ni3 O15 1.971190 1_455
Ni3 O9 1.971286 1_556
Ni3 O8 2.100354 1_565
Ni3 O14 2.100532 1_465
Ni3 O3 2.443552 1_555
Ni3 O5 2.443820 1_456
O0 P0 1.561307 1_455
O1 P1 1.561254 1_455
O2 P3 1.561295 1_555
O3 P2 1.561373 1_555
O4 P3 1.561382 1_555
O5 P2 1.561311 1_555
O6 P0 1.561258 1_555
O7 P1 1.561293 1_555
O8 P3 1.552890 1_555
O9 P2 1.552832 1_555
O10 P0 1.552271 1_455
O11 P1 1.552273 1_455
O12 P1 1.552287 1_555
O13 P0 1.552271 1_555
O14 P3 1.552843 1_555
O15 P2 1.552893 1_555
