# generated using pymatgen
data_Li4Ti3Co3(TeO8)2
_symmetry_space_group_name_H-M   'P 1'
_cell_length_a   6.00103932
_cell_length_b   6.00103932
_cell_length_c   10.11412279
_cell_angle_alpha   89.91509110
_cell_angle_beta   89.91509110
_cell_angle_gamma   59.89380221
_symmetry_Int_Tables_number   1
_chemical_formula_structural   Li4Ti3Co3(TeO8)2
_chemical_formula_sum   'Li4 Ti3 Co3 Te2 O16'
_cell_volume   315.09783605
_cell_formula_units_Z   1
loop_
 _symmetry_equiv_pos_site_id
 _symmetry_equiv_pos_as_xyz
  1  'x, y, z'
loop_
 _atom_site_type_symbol
 _atom_site_label
 _atom_site_symmetry_multiplicity
 _atom_site_fract_x
 _atom_site_fract_y
 _atom_site_fract_z
 _atom_site_occupancy
  Li  Li0  1  0.66183900  0.66183900  0.91010800  1
  Li  Li1  1  0.99666900  0.99666900  0.98241000  1
  Li  Li2  1  0.00661500  0.00661500  0.49176800  1
  Li  Li3  1  0.33250500  0.33250500  0.40139300  1
  Ti  Ti0  1  0.83180800  0.35148100  0.21890100  1
  Ti  Ti1  1  0.35148100  0.83180800  0.21890100  1
  Ti  Ti2  1  0.17408500  0.17408500  0.72493900  1
  Co  Co0  1  0.82604400  0.82604400  0.20173100  1
  Co  Co1  1  0.65624400  0.17108400  0.72057900  1
  Co  Co2  1  0.17108400  0.65624400  0.72057900  1
  Te  Te0  1  0.67501600  0.67501600  0.51059800  1
  Te  Te1  1  0.33414000  0.33414000  0.98698500  1
  O  O0  1  0.84669800  0.34514700  0.61213100  1
  O  O1  1  0.51033900  0.51033900  0.31610800  1
  O  O2  1  0.65004600  0.65004600  0.10372700  1
  O  O3  1  0.00348200  0.00348200  0.29471500  1
  O  O4  1  0.00637100  0.00637100  0.80063900  1
  O  O5  1  0.34514700  0.84669800  0.61213100  1
  O  O6  1  0.98157000  0.48752400  0.32125300  1
  O  O7  1  0.48752400  0.98157000  0.32125300  1
  O  O8  1  0.16631900  0.16631900  0.08842900  1
  O  O9  1  0.84275800  0.84275800  0.59402300  1
  O  O10  1  0.46640800  0.03691800  0.85835500  1
  O  O11  1  0.03691800  0.46640800  0.85835500  1
  O  O12  1  0.32174200  0.32174200  0.61122100  1
  O  O13  1  0.65999900  0.16403900  0.08427400  1
  O  O14  1  0.47683900  0.47683900  0.85781400  1
  O  O15  1  0.16403900  0.65999900  0.08427400  1
loop_
_geom_bond_atom_site_label_1
_geom_bond_atom_site_label_2
_geom_bond_distance
_geom_bond_site_symmetry_2
Li0 O2 1.961914 1_556
Li0 O14 1.996186 1_555
Li0 O11 2.016402 1_655
Li0 O10 2.016402 1_565
Li1 O4 1.841049 1_665
Li1 O13 2.028124 1_566
Li1 O15 2.028124 1_656
Li1 O8 2.066165 1_666
Li2 O9 1.991832 1_445
Li2 O3 1.993340 1_555
Li2 O5 2.139654 1_545
Li2 O0 2.139654 1_455
Li3 O6 1.998732 1_455
Li3 O7 1.998732 1_545
Li3 O1 2.039344 1_555
Li3 O12 2.124985 1_555
Co0 O3 2.072559 1_665
Co0 O2 2.082979 1_555
Co0 O13 2.118265 1_565
Co0 O15 2.118265 1_655
Co0 O6 2.133841 1_555
Co0 O7 2.133841 1_555
Co1 O4 1.991629 1_655
Co1 O12 2.062328 1_555
Co1 O14 2.115112 1_555
Co1 O9 2.136376 1_545
Co1 O0 2.188844 1_555
Co1 O10 2.190886 1_555
Co2 O4 1.991629 1_565
Co2 O12 2.062328 1_555
Co2 O14 2.115112 1_555
Co2 O9 2.136376 1_455
Co2 O5 2.188844 1_555
Co2 O11 2.190886 1_555
O0 Te0 1.996434 1_555
O0 Ti2 2.048257 1_655
O1 Ti0 1.936286 1_555
O1 Ti1 1.936286 1_555
O1 Te0 2.610352 1_555
O2 Ti0 1.947793 1_555
O2 Ti1 1.947793 1_555
O3 Ti1 1.962085 1_545
O3 Ti0 1.962085 1_455
O4 Ti2 1.903618 1_555
O5 Te0 1.996434 1_555
O5 Ti2 2.048257 1_565
O6 Ti0 1.813063 1_555
O6 Te0 2.497424 1_555
O7 Ti1 1.813063 1_555
O7 Te0 2.497424 1_555
O8 Te1 2.023016 1_554
O8 Ti1 2.182782 1_545
O8 Ti0 2.182782 1_455
O9 Te0 1.939104 1_555
O10 Te1 2.021750 1_555
O10 Ti2 2.032454 1_555
O11 Te1 2.021750 1_555
O11 Ti2 2.032454 1_555
O12 Ti2 1.916986 1_555
O13 Te1 1.958157 1_554
O13 Ti0 2.313986 1_555
O14 Te1 1.975475 1_555
O15 Te1 1.958157 1_554
O15 Ti1 2.313986 1_555
