# generated using pymatgen
data_CsH7(C2O5)2
_symmetry_space_group_name_H-M   'P 1'
_cell_length_a   6.45301900
_cell_length_b   7.49638975
_cell_length_c   10.93740607
_cell_angle_alpha   94.01293124
_cell_angle_beta   99.85411471
_cell_angle_gamma   96.46471997
_symmetry_Int_Tables_number   1
_chemical_formula_structural   CsH7(C2O5)2
_chemical_formula_sum   'Cs2 H14 C8 O20'
_cell_volume   515.81238068
_cell_formula_units_Z   2
loop_
 _symmetry_equiv_pos_site_id
 _symmetry_equiv_pos_as_xyz
  1  'x, y, z'
loop_
 _atom_site_type_symbol
 _atom_site_label
 _atom_site_symmetry_multiplicity
 _atom_site_fract_x
 _atom_site_fract_y
 _atom_site_fract_z
 _atom_site_occupancy
  Cs  Cs0  1  0.84500000  0.84912100  0.71999700  1
  Cs  Cs1  1  0.15500000  0.15087900  0.28000300  1
  H  H0  1  0.84778000  0.35138300  0.74271200  1
  H  H1  1  0.15222000  0.64861700  0.25728800  1
  H  H2  1  0.38784100  0.08727800  0.76798200  1
  H  H3  1  0.61215900  0.91272200  0.23201800  1
  H  H4  1  0.34526500  0.56653300  0.76688500  1
  H  H5  1  0.65473500  0.43346700  0.23311500  1
  H  H6  1  0.26069800  0.20881900  0.61920700  1
  H  H7  1  0.73930200  0.79118100  0.38079300  1
  H  H8  1  0.28387900  0.99978200  0.58914900  1
  H  H9  1  0.71612100  0.00021800  0.41085100  1
  H  H10  1  0.83918800  0.22703000  0.91939800  1
  H  H11  1  0.16081200  0.77297000  0.08060200  1
  H  H12  1  0.07007500  0.31768100  0.90991500  1
  H  H13  1  0.92992500  0.68231900  0.09008500  1
  C  C0  1  0.72015900  0.43700500  0.44339400  1
  C  C1  1  0.27984100  0.56299500  0.55660600  1
  C  C2  1  0.75027700  0.32213900  0.55763100  1
  C  C3  1  0.24972300  0.67786100  0.44236900  1
  C  C4  1  0.41909600  0.99631800  0.93855100  1
  C  C5  1  0.58090400  0.00368200  0.06144900  1
  C  C6  1  0.50901400  0.54666100  0.93957900  1
  C  C7  1  0.49098600  0.45333900  0.06042100  1
  O  O0  1  0.74678200  0.60564900  0.46406500  1
  O  O1  1  0.25321800  0.39435100  0.53593500  1
  O  O2  1  0.67207400  0.34309300  0.33840700  1
  O  O3  1  0.32792600  0.65690700  0.66159300  1
  O  O4  1  0.81000200  0.42209300  0.66454100  1
  O  O5  1  0.18999800  0.57790700  0.33545900  1
  O  O6  1  0.72114700  0.15582500  0.54544200  1
  O  O7  1  0.27885300  0.84417500  0.45455800  1
  O  O8  1  0.24021800  0.91064300  0.92596600  1
  O  O9  1  0.75978200  0.08935700  0.07403400  1
  O  O10  1  0.49688800  0.08787100  0.85545200  1
  O  O11  1  0.50311200  0.91212900  0.14454800  1
  O  O12  1  0.66529500  0.65487700  0.93333800  1
  O  O13  1  0.33470500  0.34512300  0.06666200  1
  O  O14  1  0.34391400  0.49668800  0.85181400  1
  O  O15  1  0.65608600  0.50331200  0.14818600  1
  O  O16  1  0.25501500  0.08871500  0.65360800  1
  O  O17  1  0.74498500  0.91128500  0.34639200  1
  O  O18  1  0.92848400  0.27310900  0.86162300  1
  O  O19  1  0.07151600  0.72689100  0.13837700  1
loop_
_geom_bond_atom_site_label_1
_geom_bond_atom_site_label_2
_geom_bond_distance
_geom_bond_site_symmetry_2
Cs0 O8 3.068411 1_655
Cs0 O12 3.151398 1_555
Cs0 O0 3.160030 1_555
Cs0 O6 3.174241 1_565
Cs0 O4 3.191385 1_555
Cs0 O16 3.244019 1_665
Cs0 O18 3.381048 1_565
Cs0 O3 3.417124 1_555
Cs0 O10 3.481051 1_565
Cs0 O3 3.709378 1_655
Cs1 O9 3.068411 1_455
Cs1 O13 3.151398 1_555
Cs1 O1 3.160030 1_555
Cs1 O7 3.174241 1_545
Cs1 O5 3.191385 1_555
Cs1 O17 3.244019 1_445
Cs1 O19 3.381048 1_545
Cs1 O2 3.417124 1_555
Cs1 O11 3.481051 1_545
Cs1 O2 3.709378 1_455
H0 O4 1.045273 1_555
H0 O18 1.500270 1_555
H1 O5 1.045273 1_555
H1 O19 1.500270 1_555
H2 O10 1.085692 1_555
H2 O16 1.391631 1_555
H3 O11 1.085692 1_555
H3 O17 1.391631 1_555
H4 O14 1.098588 1_555
H4 O3 1.371092 1_555
H5 O15 1.098588 1_555
H5 O2 1.371092 1_555
H6 O16 0.999120 1_555
H7 O17 0.999120 1_555
H8 O16 0.991625 1_565
H9 O17 0.991625 1_545
H10 O18 0.980321 1_555
H11 O19 0.980321 1_555
H12 O18 0.983271 1_455
H13 O19 0.983271 1_655
C0 O0 1.255658 1_555
C0 O2 1.275212 1_555
C1 O1 1.255658 1_555
C1 O3 1.275212 1_555
C2 O6 1.234054 1_555
C2 O4 1.317335 1_555
C3 O7 1.234054 1_555
C3 O5 1.317335 1_555
C4 O8 1.236994 1_555
C4 O10 1.309579 1_565
C5 O9 1.236994 1_555
C5 O11 1.309579 1_545
C6 O12 1.235670 1_555
C6 O14 1.306368 1_555
C7 O13 1.235670 1_555
C7 O15 1.306368 1_555
