# generated using pymatgen
data_Mn5Ge2
_symmetry_space_group_name_H-M   'P 1'
_cell_length_a   6.95676903
_cell_length_b   6.95676903
_cell_length_c   12.58841700
_cell_angle_alpha   90.00000000
_cell_angle_beta   90.00000000
_cell_angle_gamma   120.00000975
_symmetry_Int_Tables_number   1
_chemical_formula_structural   Mn5Ge2
_chemical_formula_sum   'Mn30 Ge12'
_cell_volume   527.61468976
_cell_formula_units_Z   6
loop_
 _symmetry_equiv_pos_site_id
 _symmetry_equiv_pos_as_xyz
  1  'x, y, z'
loop_
 _atom_site_type_symbol
 _atom_site_label
 _atom_site_symmetry_multiplicity
 _atom_site_fract_x
 _atom_site_fract_y
 _atom_site_fract_z
 _atom_site_occupancy
  Mn  Mn0  1  0.30298400  0.30298400  0.88975300  1
  Mn  Mn1  1  0.00000000  0.36653400  0.99998800  1
  Mn  Mn2  1  0.00000000  0.00000000  0.76911300  1
  Mn  Mn3  1  0.36653400  0.36653400  0.49998800  1
  Mn  Mn4  1  0.29810600  0.00000000  0.59635000  1
  Mn  Mn5  1  0.70189400  0.00000000  0.09635000  1
  Mn  Mn6  1  0.00000000  0.29810600  0.59635000  1
  Mn  Mn7  1  0.00000000  0.35796100  0.79367700  1
  Mn  Mn8  1  0.00000000  0.00000000  0.26911300  1
  Mn  Mn9  1  0.35796100  0.00000000  0.79367700  1
  Mn  Mn10  1  0.00000000  0.64203900  0.29367700  1
  Mn  Mn11  1  0.35796100  0.35796100  0.29367700  1
  Mn  Mn12  1  0.63346600  0.00000000  0.49998800  1
  Mn  Mn13  1  0.30298400  0.00000000  0.38975300  1
  Mn  Mn14  1  0.00000000  0.70189400  0.09635000  1
  Mn  Mn15  1  0.33333300  0.66666700  0.11806900  1
  Mn  Mn16  1  0.36653400  0.00000000  0.99998800  1
  Mn  Mn17  1  0.66666700  0.33333300  0.11806900  1
  Mn  Mn18  1  0.64203900  0.00000000  0.29367700  1
  Mn  Mn19  1  0.00000000  0.63346600  0.49998800  1
  Mn  Mn20  1  0.00000000  0.30298400  0.38975300  1
  Mn  Mn21  1  0.64203900  0.64203900  0.79367700  1
  Mn  Mn22  1  0.70189400  0.70189400  0.59635000  1
  Mn  Mn23  1  0.63346600  0.63346600  0.99998800  1
  Mn  Mn24  1  0.29810600  0.29810600  0.09635000  1
  Mn  Mn25  1  0.66666700  0.33333300  0.61806900  1
  Mn  Mn26  1  0.00000000  0.69701600  0.88975300  1
  Mn  Mn27  1  0.69701600  0.00000000  0.88975300  1
  Mn  Mn28  1  0.33333300  0.66666700  0.61806900  1
  Mn  Mn29  1  0.69701600  0.69701600  0.38975300  1
  Ge  Ge0  1  0.33333300  0.66666700  0.40856300  1
  Ge  Ge1  1  0.00000000  0.00000000  0.98212600  1
  Ge  Ge2  1  0.66666700  0.33333300  0.90856300  1
  Ge  Ge3  1  0.33199000  0.33199000  0.69546900  1
  Ge  Ge4  1  0.00000000  0.66801000  0.69546900  1
  Ge  Ge5  1  0.66801000  0.00000000  0.69546900  1
  Ge  Ge6  1  0.66801000  0.66801000  0.19546900  1
  Ge  Ge7  1  0.00000000  0.33199000  0.19546900  1
  Ge  Ge8  1  0.33199000  0.00000000  0.19546900  1
  Ge  Ge9  1  0.00000000  0.00000000  0.48212600  1
  Ge  Ge10  1  0.66666700  0.33333300  0.40856300  1
  Ge  Ge11  1  0.33333300  0.66666700  0.90856300  1
loop_
_geom_bond_atom_site_label_1
_geom_bond_atom_site_label_2
_geom_bond_distance
_geom_bond_site_symmetry_2
Mn0 Mn2 2.597908 1_555
Mn0 Mn7 2.618771 1_555
Mn0 Mn9 2.618771 1_555
Mn0 Mn21 2.650726 1_555
Mn1 Mn7 2.597814 1_555
Mn2 Mn21 2.509377 1_445
Mn2 Mn7 2.509377 1_555
Mn2 Mn9 2.509377 1_555
Mn2 Mn26 2.597908 1_545
Mn2 Mn27 2.597908 1_455
Mn4 Mn9 2.518693 1_555
Mn6 Mn7 2.518693 1_555
Mn10 Mn8 2.509377 1_565
Mn10 Mn14 2.518693 1_555
Mn10 Mn19 2.597814 1_555
Mn10 Mn13 2.618771 1_565
Mn10 Mn29 2.618771 1_455
Mn10 Mn20 2.650727 1_555
Mn11 Mn8 2.509377 1_555
Mn11 Mn24 2.518693 1_555
Mn11 Mn3 2.597814 1_555
Mn11 Mn13 2.618771 1_555
Mn11 Mn20 2.618771 1_555
Mn11 Mn29 2.650726 1_555
Mn12 Mn18 2.597814 1_555
Mn13 Mn8 2.597908 1_555
Mn13 Mn18 2.650727 1_555
Mn16 Mn9 2.597814 1_555
Mn18 Mn8 2.509377 1_655
Mn18 Mn5 2.518693 1_555
Mn18 Mn20 2.618771 1_655
Mn18 Mn29 2.618771 1_545
Mn20 Mn8 2.597908 1_555
Mn21 Mn22 2.518693 1_555
Mn21 Mn23 2.597814 1_555
Mn21 Mn27 2.618771 1_565
Mn21 Mn26 2.618771 1_655
Mn26 Mn9 2.618771 1_565
Mn26 Mn7 2.650727 1_555
Mn27 Mn7 2.618771 1_655
Mn27 Mn9 2.650727 1_555
Mn29 Mn8 2.597908 1_665
Ge0 Mn13 2.442874 1_565
Ge0 Mn20 2.442878 1_555
Ge0 Mn29 2.442881 1_555
Ge0 Mn19 2.493932 1_555
Ge0 Mn12 2.493934 1_565
Ge0 Mn3 2.493938 1_555
Ge0 Mn28 2.637349 1_555
Ge0 Mn10 2.664776 1_555
Ge0 Mn18 2.664779 1_565
Ge0 Mn11 2.664782 1_555
Ge1 Mn0 2.407270 1_555
Ge1 Mn26 2.407270 1_545
Ge1 Mn27 2.407270 1_455
Ge1 Mn24 2.523574 1_556
Ge1 Mn14 2.523574 1_546
Ge1 Mn5 2.523574 1_456
Ge1 Mn23 2.559787 1_445
Ge1 Mn16 2.559787 1_555
Ge1 Mn1 2.559787 1_555
Ge1 Mn2 2.681496 1_555
Ge2 Mn27 2.442874 1_555
Ge2 Mn26 2.442878 1_655
Ge2 Mn0 2.442881 1_555
Ge2 Mn1 2.493932 1_655
Ge2 Mn16 2.493934 1_555
Ge2 Mn23 2.493938 1_555
Ge2 Mn17 2.637349 1_556
Ge2 Mn7 2.664776 1_655
Ge2 Mn9 2.664779 1_555
Ge2 Mn21 2.664782 1_555
Ge3 Mn0 2.454038 1_555
Ge3 Mn3 2.472503 1_555
Ge3 Mn21 2.486118 1_555
Ge3 Mn2 2.488693 1_555
Ge3 Mn28 2.519628 1_555
Ge3 Mn25 2.519628 1_555
Ge3 Mn4 2.530252 1_555
Ge3 Mn6 2.530252 1_555
Ge3 Mn7 2.704158 1_555
Ge3 Mn9 2.704158 1_555
Ge3 Mn22 2.859885 1_555
Ge4 Mn26 2.454038 1_555
Ge4 Mn19 2.472503 1_555
Ge4 Mn7 2.486118 1_555
Ge4 Mn2 2.488693 1_565
Ge4 Mn28 2.519621 1_555
Ge4 Mn25 2.519624 1_455
Ge4 Mn4 2.530252 1_565
Ge4 Mn22 2.530252 1_455
Ge4 Mn9 2.704158 1_565
Ge4 Mn21 2.704158 1_455
Ge4 Mn6 2.859885 1_555
Ge5 Mn27 2.454038 1_555
Ge5 Mn12 2.472503 1_555
Ge5 Mn9 2.486118 1_555
Ge5 Mn2 2.488693 1_655
Ge5 Mn25 2.519621 1_555
Ge5 Mn28 2.519624 1_545
Ge5 Mn6 2.530252 1_655
Ge5 Mn22 2.530252 1_545
Ge5 Mn7 2.704158 1_655
Ge5 Mn21 2.704158 1_545
Ge5 Mn4 2.859885 1_555
Ge6 Mn29 2.454038 1_555
Ge6 Mn23 2.472503 1_554
Ge6 Mn11 2.486118 1_555
Ge6 Mn8 2.488693 1_665
Ge6 Mn17 2.519628 1_555
Ge6 Mn15 2.519628 1_555
Ge6 Mn14 2.530252 1_655
Ge6 Mn5 2.530252 1_565
Ge6 Mn10 2.704158 1_655
Ge6 Mn18 2.704158 1_565
Ge6 Mn24 2.859885 1_555
Ge7 Mn20 2.454038 1_555
Ge7 Mn1 2.472503 1_554
Ge7 Mn10 2.486118 1_555
Ge7 Mn8 2.488693 1_555
Ge7 Mn17 2.519621 1_455
Ge7 Mn15 2.519624 1_555
Ge7 Mn5 2.530252 1_455
Ge7 Mn24 2.530252 1_555
Ge7 Mn18 2.704158 1_455
Ge7 Mn11 2.704158 1_555
Ge7 Mn14 2.859885 1_555
Ge8 Mn13 2.454038 1_555
Ge8 Mn16 2.472503 1_554
Ge8 Mn18 2.486118 1_555
Ge8 Mn8 2.488693 1_555
Ge8 Mn15 2.519621 1_545
Ge8 Mn17 2.519624 1_555
Ge8 Mn14 2.530252 1_545
Ge8 Mn24 2.530252 1_555
Ge8 Mn10 2.704158 1_545
Ge8 Mn11 2.704158 1_555
Ge8 Mn5 2.859885 1_555
Ge9 Mn29 2.407270 1_445
Ge9 Mn13 2.407270 1_555
Ge9 Mn20 2.407270 1_555
Ge9 Mn22 2.523574 1_445
Ge9 Mn6 2.523574 1_555
Ge9 Mn4 2.523574 1_555
Ge9 Mn3 2.559787 1_555
Ge9 Mn12 2.559787 1_455
Ge9 Mn19 2.559787 1_545
Ge9 Mn8 2.681496 1_555
Ge10 Mn20 2.442874 1_655
Ge10 Mn13 2.442878 1_555
Ge10 Mn29 2.442881 1_555
Ge10 Mn12 2.493932 1_555
Ge10 Mn19 2.493934 1_655
Ge10 Mn3 2.493938 1_555
Ge10 Mn25 2.637349 1_555
Ge10 Mn18 2.664776 1_555
Ge10 Mn10 2.664779 1_655
Ge10 Mn11 2.664782 1_555
Ge11 Mn26 2.442874 1_555
Ge11 Mn27 2.442878 1_565
Ge11 Mn0 2.442881 1_555
Ge11 Mn16 2.493932 1_565
Ge11 Mn1 2.493934 1_555
Ge11 Mn23 2.493938 1_555
Ge11 Mn15 2.637349 1_556
Ge11 Mn9 2.664776 1_565
Ge11 Mn7 2.664779 1_555
Ge11 Mn21 2.664782 1_555
