# generated using pymatgen
data_MnAl2O4
_symmetry_space_group_name_H-M   'P 1'
_cell_length_a   5.78897440
_cell_length_b   5.78875964
_cell_length_c   5.78897120
_cell_angle_alpha   120.00110743
_cell_angle_beta   90.00002175
_cell_angle_gamma   59.99879056
_symmetry_Int_Tables_number   1
_chemical_formula_structural   MnAl2O4
_chemical_formula_sum   'Mn2 Al4 O8'
_cell_volume   137.16976986
_cell_formula_units_Z   2
loop_
 _symmetry_equiv_pos_site_id
 _symmetry_equiv_pos_as_xyz
  1  'x, y, z'
loop_
 _atom_site_type_symbol
 _atom_site_label
 _atom_site_symmetry_multiplicity
 _atom_site_fract_x
 _atom_site_fract_y
 _atom_site_fract_z
 _atom_site_occupancy
  Mn  Mn0  1  0.00000011  0.00000024  -0.00000062  1
  Mn  Mn1  1  0.74999989  0.49999976  0.75000062  1
  Al  Al0  1  0.37500000  0.25000000  0.37500000  1
  Al  Al1  1  0.37500000  0.25000000  0.87500000  1
  Al  Al2  1  0.37500000  0.75000000  0.37500000  1
  Al  Al3  1  0.87500000  0.75000000  0.37500000  1
  O  O0  1  0.14138577  0.28275702  0.14137784  1
  O  O1  1  0.17414330  0.21724186  0.60862149  1
  O  O2  1  0.14137893  0.71724086  0.57585578  1
  O  O3  1  0.14137771  0.71724387  0.14138603  1
  O  O4  1  0.60861423  0.21724298  0.60862216  1
  O  O5  1  0.57585670  0.28275814  0.14137851  1
  O  O6  1  0.60862229  0.78275613  0.60861397  1
  O  O7  1  0.60862107  0.78275914  0.17414422  1
loop_
_geom_bond_atom_site_label_1
_geom_bond_atom_site_label_2
_geom_bond_distance
_geom_bond_site_symmetry_2
Mn0 O0 2.004736 1_555
Mn0 O3 2.004736 1_545
Mn0 O5 2.004742 1_455
Mn0 O2 2.004744 1_544
Mn1 O4 2.004736 1_555
Mn1 O6 2.004736 1_555
Mn1 O1 2.004742 1_655
Mn1 O7 2.004744 1_556
Al0 O2 1.921859 1_555
Al0 O7 1.921859 1_545
Al0 O0 1.921974 1_555
Al0 O4 1.921974 1_555
Al0 O1 1.921975 1_555
Al0 O5 1.921975 1_555
Al1 O3 1.921872 1_556
Al1 O6 1.921872 1_545
Al1 O4 1.921970 1_555
Al1 O0 1.921970 1_556
Al1 O5 1.921970 1_556
Al1 O1 1.921970 1_555
Al2 O5 1.921863 1_555
Al2 O1 1.921863 1_565
Al2 O6 1.921974 1_555
Al2 O3 1.921974 1_555
Al2 O7 1.921974 1_555
Al2 O2 1.921974 1_555
Al3 O4 1.921868 1_565
Al3 O0 1.921868 1_655
Al3 O7 1.921968 1_555
Al3 O2 1.921968 1_655
Al3 O6 1.921972 1_555
Al3 O3 1.921972 1_655
