# generated using pymatgen
data_Li3Cr3CoO8
_symmetry_space_group_name_H-M   'P 1'
_cell_length_a   5.83834936
_cell_length_b   5.83834936
_cell_length_c   5.93686153
_cell_angle_alpha   60.08525267
_cell_angle_beta   60.08525267
_cell_angle_gamma   59.85750331
_symmetry_Int_Tables_number   1
_chemical_formula_structural   Li3Cr3CoO8
_chemical_formula_sum   'Li3 Cr3 Co1 O8'
_cell_volume   143.12299908
_cell_formula_units_Z   1
loop_
 _symmetry_equiv_pos_site_id
 _symmetry_equiv_pos_as_xyz
  1  'x, y, z'
loop_
 _atom_site_type_symbol
 _atom_site_label
 _atom_site_symmetry_multiplicity
 _atom_site_fract_x
 _atom_site_fract_y
 _atom_site_fract_z
 _atom_site_occupancy
  Li  Li0  1  0.50000000  0.50000000  0.50000000  1
  Li  Li1  1  0.00000000  0.50000000  0.50000000  1
  Li  Li2  1  0.50000000  0.00000000  0.50000000  1
  Cr  Cr0  1  0.00000000  0.50000000  0.00000000  1
  Cr  Cr1  1  0.50000000  0.50000000  0.00000000  1
  Cr  Cr2  1  0.50000000  0.00000000  0.00000000  1
  Co  Co0  1  0.00000000  0.00000000  0.00000000  1
  O  O0  1  0.26794500  0.26794500  0.21543300  1
  O  O1  1  0.76195600  0.76195600  0.22262800  1
  O  O2  1  0.75334900  0.26040800  0.21347000  1
  O  O3  1  0.73959200  0.24665100  0.78653000  1
  O  O4  1  0.26040800  0.75334900  0.21347000  1
  O  O5  1  0.24665100  0.73959200  0.78653000  1
  O  O6  1  0.23804400  0.23804400  0.77737200  1
  O  O7  1  0.73205500  0.73205500  0.78456700  1
loop_
_geom_bond_atom_site_label_1
_geom_bond_atom_site_label_2
_geom_bond_distance
_geom_bond_site_symmetry_2
Li0 O6 2.171380 1_555
Li0 O1 2.171380 1_555
Li0 O5 2.196366 1_555
Li0 O3 2.196366 1_555
Li0 O4 2.196366 1_555
Li0 O2 2.196366 1_555
Li1 O3 2.135949 1_455
Li1 O4 2.135949 1_555
Li1 O6 2.149011 1_555
Li1 O1 2.149011 1_455
Li1 O0 2.157615 1_555
Li1 O7 2.157615 1_455
Li2 O2 2.135949 1_555
Li2 O5 2.135949 1_545
Li2 O6 2.149011 1_555
Li2 O1 2.149011 1_545
Li2 O7 2.157615 1_545
Li2 O0 2.157615 1_555
Cr0 O7 2.014284 1_454
Cr0 O0 2.014284 1_555
Cr0 O1 2.016638 1_455
Cr0 O6 2.016638 1_554
Cr0 O2 2.017686 1_455
Cr0 O5 2.017686 1_554
Cr1 O0 1.921887 1_555
Cr1 O7 1.921887 1_554
Cr1 O2 1.942751 1_555
Cr1 O4 1.942751 1_555
Cr1 O5 1.942751 1_554
Cr1 O3 1.942751 1_554
Cr2 O7 2.014284 1_544
Cr2 O0 2.014284 1_555
Cr2 O6 2.016638 1_554
Cr2 O1 2.016638 1_545
Cr2 O4 2.017686 1_545
Cr2 O3 2.017686 1_554
Co0 O6 1.971147 1_554
Co0 O1 1.971147 1_445
Co0 O2 1.973340 1_455
Co0 O4 1.973340 1_545
Co0 O3 1.973340 1_454
Co0 O5 1.973340 1_544
