# generated using pymatgen
data_MnFe3Ni2(PO4)6
_symmetry_space_group_name_H-M   'P 1'
_cell_length_a   8.46756362
_cell_length_b   8.46756362
_cell_length_c   8.46756339
_cell_angle_alpha   60.94573472
_cell_angle_beta   60.94573472
_cell_angle_gamma   60.94573641
_symmetry_Int_Tables_number   1
_chemical_formula_structural   MnFe3Ni2(PO4)6
_chemical_formula_sum   'Mn1 Fe3 Ni2 P6 O24'
_cell_volume   438.44804762
_cell_formula_units_Z   1
loop_
 _symmetry_equiv_pos_site_id
 _symmetry_equiv_pos_as_xyz
  1  'x, y, z'
loop_
 _atom_site_type_symbol
 _atom_site_label
 _atom_site_symmetry_multiplicity
 _atom_site_fract_x
 _atom_site_fract_y
 _atom_site_fract_z
 _atom_site_occupancy
  Mn  Mn0  1  0.14239400  0.14239400  0.14239400  1
  Fe  Fe0  1  0.85603500  0.85603500  0.85603500  1
  Fe  Fe1  1  0.64448600  0.64448600  0.64448600  1
  Fe  Fe2  1  0.35678600  0.35678600  0.35678600  1
  Ni  Ni0  1  0.99874100  0.99874100  0.99874100  1
  Ni  Ni1  1  0.49997900  0.49997900  0.49997900  1
  P  P0  1  0.95653500  0.25085200  0.54084500  1
  P  P1  1  0.54084500  0.95653500  0.25085200  1
  P  P2  1  0.25085200  0.54084500  0.95653500  1
  P  P3  1  0.75189200  0.45465900  0.04735600  1
  P  P4  1  0.45465900  0.04735600  0.75189200  1
  P  P5  1  0.04735600  0.75189200  0.45465900  1
  O  O0  1  0.88927000  0.68953300  0.48832500  1
  O  O1  1  0.68953300  0.48832500  0.88927000  1
  O  O2  1  0.94321200  0.09023000  0.73969400  1
  O  O3  1  0.48832500  0.88927000  0.68953300  1
  O  O4  1  0.99515200  0.18616700  0.37990500  1
  O  O5  1  0.75625100  0.40852000  0.55654900  1
  O  O6  1  0.73969400  0.94321200  0.09023000  1
  O  O7  1  0.55654900  0.75625100  0.40852000  1
  O  O8  1  0.81889100  0.61073100  0.00757100  1
  O  O9  1  0.40852000  0.55654900  0.75625100  1
  O  O10  1  0.91651000  0.25341300  0.05973700  1
  O  O11  1  0.61073100  0.00757100  0.81889100  1
  O  O12  1  0.37990500  0.99515200  0.18616700  1
  O  O13  1  0.09023000  0.73969400  0.94321200  1
  O  O14  1  0.59459200  0.43578200  0.24677200  1
  O  O15  1  0.18616700  0.37990500  0.99515200  1
  O  O16  1  0.43578200  0.24677200  0.59459200  1
  O  O17  1  0.25341300  0.05973700  0.91651000  1
  O  O18  1  0.24677200  0.59459200  0.43578200  1
  O  O19  1  0.00757100  0.81889100  0.61073100  1
  O  O20  1  0.50225800  0.11120800  0.31916800  1
  O  O21  1  0.05973700  0.91651000  0.25341300  1
  O  O22  1  0.31916800  0.50225800  0.11120800  1
  O  O23  1  0.11120800  0.31916800  0.50225800  1
loop_
_geom_bond_atom_site_label_1
_geom_bond_atom_site_label_2
_geom_bond_distance
_geom_bond_site_symmetry_2
Mn0 O4 1.891104 1_455
Mn0 O15 1.891104 1_554
Mn0 O12 1.891104 1_545
Mn0 O17 1.986642 1_554
Mn0 O21 1.986642 1_545
Mn0 O10 1.986642 1_455
Fe0 O19 1.927094 1_655
Fe0 O8 1.927094 1_556
Fe0 O11 1.927094 1_565
Fe0 O6 2.065418 1_556
Fe0 O2 2.065418 1_565
Fe0 O13 2.065418 1_655
Fe1 O1 1.950933 1_555
Fe1 O0 1.950933 1_555
Fe1 O3 1.950933 1_555
Fe1 O7 2.089571 1_555
Fe1 O9 2.089571 1_555
Fe1 O5 2.089571 1_555
Fe2 O22 1.928019 1_555
Fe2 O23 1.928019 1_555
Fe2 O20 1.928019 1_555
Fe2 O16 2.061808 1_555
Fe2 O14 2.061808 1_555
Fe2 O18 2.061808 1_555
Ni0 O2 2.151777 1_565
Ni0 O6 2.151777 1_556
Ni0 O13 2.151777 1_655
Ni0 O21 2.162397 1_656
Ni0 O17 2.162397 1_665
Ni0 O10 2.162397 1_566
Ni1 O9 2.134276 1_555
Ni1 O7 2.134276 1_555
Ni1 O5 2.134276 1_555
Ni1 O14 2.138909 1_555
Ni1 O16 2.138910 1_555
Ni1 O18 2.138910 1_555
O0 P5 1.523687 1_655
O1 P3 1.523687 1_556
O2 P0 1.561367 1_555
O3 P4 1.523687 1_565
O4 P0 1.543463 1_555
O5 P0 1.559002 1_555
O6 P1 1.561367 1_555
O7 P1 1.559002 1_555
O8 P3 1.513932 1_555
O9 P2 1.559002 1_555
O10 P3 1.587183 1_555
O11 P4 1.513932 1_555
O12 P1 1.543463 1_555
O13 P2 1.561367 1_555
O14 P3 1.552755 1_555
O15 P2 1.543463 1_555
O16 P4 1.552755 1_555
O17 P4 1.587183 1_555
O18 P5 1.552755 1_555
O19 P5 1.513932 1_555
O20 P1 1.514382 1_545
O21 P5 1.587183 1_555
O22 P2 1.514382 1_554
O23 P0 1.514382 1_455
