# generated using pymatgen
data_MnFeCo(PO4)3
_symmetry_space_group_name_H-M   'P 1'
_cell_length_a   5.95645700
_cell_length_b   9.85938100
_cell_length_c   14.54896480
_cell_angle_alpha   89.87649213
_cell_angle_beta   90.00000000
_cell_angle_gamma   90.00000000
_symmetry_Int_Tables_number   1
_chemical_formula_structural   MnFeCo(PO4)3
_chemical_formula_sum   'Mn4 Fe4 Co4 P12 O48'
_cell_volume   854.41476492
_cell_formula_units_Z   4
loop_
 _symmetry_equiv_pos_site_id
 _symmetry_equiv_pos_as_xyz
  1  'x, y, z'
loop_
 _atom_site_type_symbol
 _atom_site_label
 _atom_site_symmetry_multiplicity
 _atom_site_fract_x
 _atom_site_fract_y
 _atom_site_fract_z
 _atom_site_occupancy
  Mn  Mn0  1  0.50000000  0.78257600  0.14741300  1
  Mn  Mn1  1  0.50000000  0.78426100  0.48063800  1
  Mn  Mn2  1  0.00000000  0.71625300  0.31396900  1
  Mn  Mn3  1  0.00000000  0.71542800  0.64653900  1
  Fe  Fe0  1  0.50000000  0.77698700  0.82069300  1
  Fe  Fe1  1  0.00000000  0.72562300  0.98778100  1
  Fe  Fe2  1  0.50000000  0.27146300  0.00968400  1
  Fe  Fe3  1  0.50000000  0.27301100  0.34542200  1
  Co  Co0  1  0.50000000  0.27706900  0.68076100  1
  Co  Co1  1  0.00000000  0.22084200  0.51765300  1
  Co  Co2  1  0.00000000  0.22762400  0.17991200  1
  Co  Co3  1  0.00000000  0.22653700  0.84285500  1
  P  P0  1  0.00000000  0.90169500  0.47253600  1
  P  P1  1  0.00000000  0.90378400  0.13967900  1
  P  P2  1  0.00000000  0.90204800  0.80552100  1
  P  P3  1  0.50000000  0.59924900  0.97346000  1
  P  P4  1  0.50000000  0.59965000  0.30647000  1
  P  P5  1  0.50000000  0.59795200  0.63926600  1
  P  P6  1  0.00000000  0.39932300  0.02791700  1
  P  P7  1  0.00000000  0.40123500  0.36285200  1
  P  P8  1  0.00000000  0.40242400  0.69413700  1
  P  P9  1  0.50000000  0.09667000  0.19329700  1
  P  P10  1  0.50000000  0.09756400  0.52876000  1
  P  P11  1  0.50000000  0.09825100  0.86036100  1
  O  O0  1  0.50000000  0.94433200  0.21747900  1
  O  O1  1  0.50000000  0.94602900  0.55240800  1
  O  O2  1  0.50000000  0.94774700  0.88457000  1
  O  O3  1  0.00000000  0.88064700  0.24352800  1
  O  O4  1  0.00000000  0.87989900  0.57725100  1
  O  O5  1  0.00000000  0.88257800  0.91009400  1
  O  O6  1  0.20163100  0.82878400  0.42461200  1
  O  O7  1  0.79836900  0.82878400  0.42461200  1
  O  O8  1  0.19934400  0.82862700  0.09032800  1
  O  O9  1  0.80065600  0.82862700  0.09032800  1
  O  O10  1  0.20406300  0.83040000  0.75892600  1
  O  O11  1  0.79593700  0.83040000  0.75892600  1
  O  O12  1  0.70143500  0.67371100  0.92534700  1
  O  O13  1  0.29856500  0.67371100  0.92534700  1
  O  O14  1  0.70173300  0.67199700  0.25779700  1
  O  O15  1  0.29826700  0.67199700  0.25779700  1
  O  O16  1  0.70143800  0.67014900  0.59088600  1
  O  O17  1  0.29856200  0.67014900  0.59088600  1
  O  O18  1  0.50000000  0.61780000  0.74321000  1
  O  O19  1  0.50000000  0.62007000  0.07820900  1
  O  O20  1  0.50000000  0.62104200  0.41094600  1
  O  O21  1  0.00000000  0.55101200  0.04922400  1
  O  O22  1  0.00000000  0.55348600  0.38493900  1
  O  O23  1  0.00000000  0.55416900  0.71849900  1
  O  O24  1  0.50000000  0.44874800  0.95230000  1
  O  O25  1  0.50000000  0.44813000  0.28563400  1
  O  O26  1  0.50000000  0.44421300  0.61644600  1
  O  O27  1  0.00000000  0.38221700  0.25707400  1
  O  O28  1  0.00000000  0.38591400  0.58945800  1
  O  O29  1  0.00000000  0.37785200  0.92333100  1
  O  O30  1  0.20305500  0.32603400  0.07591500  1
  O  O31  1  0.79694500  0.32603400  0.07591500  1
  O  O32  1  0.20192600  0.32949100  0.74307600  1
  O  O33  1  0.79807400  0.32949100  0.74307600  1
  O  O34  1  0.20258800  0.32797900  0.40965300  1
  O  O35  1  0.79741200  0.32797900  0.40965300  1
  O  O36  1  0.70057400  0.17035600  0.24222600  1
  O  O37  1  0.29942600  0.17035600  0.24222600  1
  O  O38  1  0.70408200  0.17123900  0.57651000  1
  O  O39  1  0.29591800  0.17123900  0.57651000  1
  O  O40  1  0.70028100  0.17248300  0.90863800  1
  O  O41  1  0.29971900  0.17248300  0.90863800  1
  O  O42  1  0.50000000  0.11793400  0.75500300  1
  O  O43  1  0.50000000  0.11417100  0.08931500  1
  O  O44  1  0.50000000  0.11709800  0.42495900  1
  O  O45  1  0.00000000  0.05341800  0.44960400  1
  O  O46  1  0.00000000  0.05505000  0.11632100  1
  O  O47  1  0.00000000  0.05629900  0.78416600  1
loop_
_geom_bond_atom_site_label_1
_geom_bond_atom_site_label_2
_geom_bond_distance
_geom_bond_site_symmetry_2
Mn0 O19 1.894140 1_555
Mn0 O0 1.894622 1_555
Mn0 O9 2.025197 1_555
Mn0 O8 2.025197 1_555
Mn0 O15 2.281250 1_555
Mn0 O14 2.281250 1_555
Mn1 O20 1.903883 1_555
Mn1 O1 1.908219 1_555
Mn1 O7 2.003520 1_555
Mn1 O6 2.003520 1_555
Mn1 O16 2.295749 1_555
Mn1 O17 2.295749 1_555
Mn2 O22 1.906389 1_555
Mn2 O3 1.915779 1_555
Mn2 O14 2.004040 1_455
Mn2 O15 2.004040 1_555
Mn2 O7 2.296158 1_455
Mn2 O6 2.296158 1_555
Mn3 O23 1.901773 1_555
Mn3 O4 1.907533 1_555
Mn3 O17 2.004760 1_555
Mn3 O16 2.004760 1_455
Mn3 O10 2.333228 1_555
Mn3 O11 2.333228 1_455
Fe0 O2 1.924810 1_555
Fe0 O18 1.934350 1_555
Fe0 O11 2.046971 1_555
Fe0 O10 2.046971 1_555
Fe0 O13 2.188166 1_555
Fe0 O12 2.188166 1_555
Fe1 O5 1.914328 1_555
Fe1 O21 1.938101 1_556
Fe1 O13 2.061973 1_555
Fe1 O12 2.061973 1_455
Fe1 O9 2.161872 1_456
Fe1 O8 2.161872 1_556
Fe2 O43 1.933772 1_555
Fe2 O24 1.935447 1_554
Fe2 O30 2.085347 1_555
Fe2 O31 2.085347 1_555
Fe2 O40 2.131416 1_554
Fe2 O41 2.131416 1_554
Fe3 O44 1.922082 1_555
Fe3 O25 1.931631 1_555
Fe3 O34 2.075443 1_555
Fe3 O35 2.075443 1_555
Fe3 O37 2.170817 1_555
Fe3 O36 2.170817 1_555
Co0 O26 1.893307 1_555
Co0 O42 1.902914 1_555
Co0 O33 2.059948 1_555
Co0 O32 2.059948 1_555
Co0 O38 2.207658 1_555
Co0 O39 2.207658 1_555
Co1 O45 1.926663 1_555
Co1 O28 1.935842 1_555
Co1 O38 2.019275 1_455
Co1 O39 2.019275 1_555
Co1 O34 2.243593 1_555
Co1 O35 2.243593 1_455
Co2 O27 1.894948 1_555
Co2 O46 1.938494 1_555
Co2 O36 2.078332 1_455
Co2 O37 2.078332 1_555
Co2 O31 2.165007 1_455
Co2 O30 2.165007 1_555
Co3 O47 1.884789 1_555
Co3 O29 1.898443 1_555
Co3 O40 2.094035 1_455
Co3 O41 2.094035 1_555
Co3 O33 2.139630 1_455
Co3 O32 2.139630 1_555
O0 P9 1.541876 1_565
O1 P10 1.532422 1_565
O2 P11 1.524366 1_565
O3 P1 1.527533 1_555
O4 P0 1.538117 1_555
O5 P2 1.533081 1_555
O6 P0 1.564443 1_555
O7 P0 1.564443 1_655
O8 P1 1.573782 1_555
O9 P1 1.573782 1_655
O10 P2 1.561427 1_555
O11 P2 1.561427 1_655
O12 P3 1.570467 1_555
O13 P3 1.570467 1_555
O14 P4 1.565872 1_555
O15 P4 1.565872 1_555
O16 P5 1.561930 1_555
O17 P5 1.561930 1_555
O18 P5 1.525304 1_555
O19 P3 1.538192 1_554
O20 P4 1.535031 1_555
O21 P6 1.528003 1_555
O22 P7 1.535788 1_555
O23 P8 1.538267 1_555
O24 P3 1.516096 1_555
O25 P4 1.524980 1_555
O26 P5 1.552405 1_555
O27 P7 1.550742 1_555
O28 P8 1.531994 1_555
O29 P6 1.536725 1_556
O30 P6 1.571772 1_555
O31 P6 1.571772 1_655
O32 P8 1.571134 1_555
O33 P8 1.571134 1_655
O34 P7 1.561830 1_555
O35 P7 1.561830 1_655
O36 P9 1.569750 1_555
O37 P9 1.569750 1_555
O38 P10 1.578018 1_555
O39 P10 1.578018 1_555
O40 P11 1.566643 1_555
O41 P11 1.566643 1_555
O42 P11 1.544670 1_555
O43 P9 1.522269 1_555
O44 P10 1.522016 1_555
O45 P0 1.531948 1_545
O46 P1 1.528903 1_545
O47 P2 1.551575 1_545
