# generated using pymatgen
data_Na2LiFePCO7
_symmetry_space_group_name_H-M   'P 1'
_cell_length_a   6.80647500
_cell_length_b   8.82365304
_cell_length_c   10.22272546
_cell_angle_alpha   91.86498358
_cell_angle_beta   90.06068260
_cell_angle_gamma   90.39250498
_symmetry_Int_Tables_number   1
_chemical_formula_structural   Na2LiFePCO7
_chemical_formula_sum   'Na8 Li4 Fe4 P4 C4 O28'
_cell_volume   613.61605773
_cell_formula_units_Z   4
loop_
 _symmetry_equiv_pos_site_id
 _symmetry_equiv_pos_as_xyz
  1  'x, y, z'
loop_
 _atom_site_type_symbol
 _atom_site_label
 _atom_site_symmetry_multiplicity
 _atom_site_fract_x
 _atom_site_fract_y
 _atom_site_fract_z
 _atom_site_occupancy
  Na  Na0  1  0.24499200  0.91552500  0.88023600  1
  Na  Na1  1  0.00140100  0.73738600  0.62643300  1
  Na  Na2  1  0.49713500  0.73746700  0.62465400  1
  Na  Na3  1  0.00271600  0.73823600  0.12686400  1
  Na  Na4  1  0.49964700  0.73850300  0.12686500  1
  Na  Na5  1  0.50065100  0.25716700  0.87094700  1
  Na  Na6  1  0.50247500  0.26196500  0.37798400  1
  Na  Na7  1  0.99858500  0.26240600  0.37494700  1
  Li  Li0  1  0.24891200  0.91081400  0.37638100  1
  Li  Li1  1  0.96939000  0.28131800  0.88395600  1
  Li  Li2  1  0.76251600  0.09860300  0.62325900  1
  Li  Li3  1  0.75508800  0.09987000  0.12479800  1
  Fe  Fe0  1  0.74735900  0.64100000  0.88388700  1
  Fe  Fe1  1  0.75183700  0.64983000  0.39131100  1
  Fe  Fe2  1  0.24671800  0.34928800  0.61521800  1
  Fe  Fe3  1  0.24743700  0.34749400  0.10778600  1
  P  P0  1  0.24184000  0.58374900  0.85287700  1
  P  P1  1  0.25147500  0.59198100  0.35667000  1
  P  P2  1  0.75365400  0.40035300  0.64636100  1
  P  P3  1  0.74925100  0.40937200  0.14148500  1
  C  C0  1  0.75887500  0.95624400  0.86635000  1
  C  C1  1  0.75087100  0.95116400  0.35957200  1
  C  C2  1  0.25002600  0.04818600  0.62952600  1
  C  C3  1  0.25056800  0.05700300  0.14590100  1
  O  O0  1  0.25112800  0.90685300  0.65509700  1
  O  O1  1  0.25246500  0.91388900  0.16871400  1
  O  O2  1  0.75225700  0.92822600  0.99015400  1
  O  O3  1  0.75251600  0.91907900  0.48312100  1
  O  O4  1  0.74583800  0.84274600  0.77996900  1
  O  O5  1  0.75239400  0.83975800  0.27160300  1
  O  O6  1  0.06349200  0.68449900  0.89282400  1
  O  O7  1  0.42953800  0.67244100  0.89848900  1
  O  O8  1  0.06997100  0.69092300  0.39478600  1
  O  O9  1  0.43415300  0.69198600  0.39396700  1
  O  O10  1  0.24683100  0.56325500  0.70031400  1
  O  O11  1  0.74894800  0.55853200  0.58412500  1
  O  O12  1  0.25095300  0.55928200  0.20495900  1
  O  O13  1  0.75140000  0.56422500  0.07473900  1
  O  O14  1  0.22701800  0.42334400  0.91066300  1
  O  O15  1  0.76840800  0.42472000  0.79903800  1
  O  O16  1  0.25233200  0.43868200  0.42607200  1
  O  O17  1  0.75704800  0.43914100  0.29278700  1
  O  O18  1  0.56844500  0.30279200  0.61238400  1
  O  O19  1  0.93010700  0.30235300  0.59896600  1
  O  O20  1  0.56333900  0.31297800  0.10540100  1
  O  O21  1  0.92609400  0.30780000  0.09612500  1
  O  O22  1  0.24839800  0.15019700  0.72583000  1
  O  O23  1  0.24381200  0.15602400  0.24264700  1
  O  O24  1  0.24995500  0.09287600  0.50953000  1
  O  O25  1  0.25450400  0.10734300  0.02756700  1
  O  O26  1  0.77723700  0.09252600  0.82481900  1
  O  O27  1  0.74800400  0.08860800  0.32104000  1
loop_
_geom_bond_atom_site_label_1
_geom_bond_atom_site_label_2
_geom_bond_distance
_geom_bond_site_symmetry_2
Na0 O25 2.229271 1_566
Na0 O0 2.300748 1_555
Na0 O6 2.383500 1_555
Na0 O7 2.505123 1_555
Na0 O22 2.644211 1_565
Na1 O0 2.268618 1_555
Na1 O11 2.355219 1_455
Na1 O10 2.414500 1_555
Na1 O8 2.436268 1_555
Na1 O4 2.507298 1_455
Na1 O3 2.787677 1_455
Na1 O6 2.809876 1_555
Na2 O0 2.267060 1_555
Na2 O11 2.366034 1_555
Na2 O9 2.416623 1_555
Na2 O10 2.430641 1_555
Na2 O4 2.475110 1_555
Na2 O3 2.793009 1_555
Na2 O7 2.912191 1_555
Na3 O1 2.322525 1_555
Na3 O13 2.340157 1_455
Na3 O5 2.415511 1_455
Na3 O6 2.459894 1_554
Na3 O12 2.470069 1_555
Na3 O2 2.802897 1_454
Na3 O8 2.821304 1_555
Na4 O1 2.324354 1_555
Na4 O13 2.360008 1_555
Na4 O5 2.415470 1_555
Na4 O7 2.433767 1_554
Na4 O12 2.460042 1_555
Na4 O2 2.798183 1_554
Na4 O9 2.809964 1_555
Na5 O14 2.404980 1_555
Na5 O26 2.423150 1_555
Na5 O22 2.433274 1_555
Na5 O15 2.466624 1_555
Na5 O20 2.467216 1_556
Na5 O25 2.689086 1_556
Na5 O18 2.725968 1_555
Na6 O27 2.334666 1_555
Na6 O16 2.357990 1_555
Na6 O23 2.403269 1_555
Na6 O18 2.452045 1_555
Na6 O17 2.501937 1_555
Na6 O24 2.662502 1_555
Na6 O20 2.867154 1_555
Na7 O23 2.332359 1_655
Na7 O27 2.339136 1_555
Na7 O19 2.353284 1_555
Na7 O16 2.362993 1_655
Na7 O17 2.440809 1_555
Na7 O24 2.687348 1_655
Na7 O21 2.932960 1_555
Li0 O24 2.071462 1_565
Li0 O1 2.124140 1_555
Li0 O8 2.296787 1_555
Li0 O9 2.325023 1_555
Li1 O15 2.078150 1_555
Li1 O14 2.160214 1_655
Li1 O26 2.180359 1_555
Li1 O21 2.194329 1_556
Li2 O26 2.065278 1_555
Li2 O3 2.101619 1_545
Li2 O19 2.143967 1_555
Li2 O18 2.246925 1_555
Li3 O27 2.012428 1_555
Li3 O2 2.013101 1_544
Li3 O21 2.193922 1_555
Li3 O20 2.309959 1_555
Fe0 O15 2.076311 1_555
Fe0 O13 2.086230 1_556
Fe0 O4 2.102581 1_555
Fe0 O6 2.184419 1_655
Fe0 O7 2.187480 1_555
Fe1 O17 2.085866 1_555
Fe1 O5 2.107005 1_555
Fe1 O11 2.153541 1_555
Fe1 O8 2.193127 1_655
Fe1 O9 2.196625 1_555
Fe1 O3 2.525834 1_555
Fe2 O10 2.052867 1_555
Fe2 O16 2.112206 1_555
Fe2 O22 2.119979 1_555
Fe2 O19 2.196746 1_455
Fe2 O18 2.230732 1_555
Fe2 O24 2.475537 1_555
Fe3 O12 2.087600 1_555
Fe3 O14 2.148598 1_554
Fe3 O20 2.173757 1_555
Fe3 O23 2.215101 1_555
Fe3 O21 2.215179 1_455
Fe3 O25 2.247973 1_555
C0 O26 1.293512 1_565
C0 O2 1.298176 1_555
C0 O4 1.315919 1_555
C1 O27 1.287526 1_565
C1 O3 1.303361 1_555
C1 O5 1.310627 1_555
C2 O0 1.282546 1_545
C2 O24 1.300669 1_555
C2 O22 1.312258 1_555
C3 O1 1.291733 1_545
C3 O23 1.299251 1_555
C3 O25 1.302405 1_555
O6 P0 1.556556 1_555
O7 P0 1.556699 1_555
O8 P1 1.560090 1_555
O9 P1 1.559522 1_555
O10 P0 1.564633 1_555
O11 P2 1.553125 1_555
O12 P1 1.568247 1_555
O13 P3 1.546990 1_555
O14 P0 1.554017 1_555
O15 P2 1.571579 1_555
O16 P1 1.547785 1_555
O17 P3 1.561199 1_555
O18 P2 1.554221 1_555
O19 P2 1.553426 1_555
O20 P3 1.557111 1_555
O21 P3 1.567167 1_555
