# generated using pymatgen
data_BaCa2I6
_symmetry_space_group_name_H-M   'P 1'
_cell_length_a   8.07106800
_cell_length_b   7.48497600
_cell_length_c   15.65533528
_cell_angle_alpha   66.03863586
_cell_angle_beta   90.00000000
_cell_angle_gamma   90.00000000
_symmetry_Int_Tables_number   1
_chemical_formula_structural   BaCa2I6
_chemical_formula_sum   'Ba2 Ca4 I12'
_cell_volume   864.25962160
_cell_formula_units_Z   2
loop_
 _symmetry_equiv_pos_site_id
 _symmetry_equiv_pos_as_xyz
  1  'x, y, z'
loop_
 _atom_site_type_symbol
 _atom_site_label
 _atom_site_symmetry_multiplicity
 _atom_site_fract_x
 _atom_site_fract_y
 _atom_site_fract_z
 _atom_site_occupancy
  Ba  Ba0  1  0.00000000  0.00000000  0.00000000  1
  Ba  Ba1  1  0.50000000  0.00000000  0.50000000  1
  Ca  Ca0  1  0.60382200  0.66193400  0.25290100  1
  Ca  Ca1  1  0.10382200  0.33806600  0.24709900  1
  Ca  Ca2  1  0.89617800  0.66193400  0.75290100  1
  Ca  Ca3  1  0.39617800  0.33806600  0.74709900  1
  I  I0  1  0.32837900  0.68269500  0.10521000  1
  I  I1  1  0.81235400  0.55230700  0.10481300  1
  I  I2  1  0.39959600  0.03792200  0.27643300  1
  I  I3  1  0.89959600  0.96207800  0.22356700  1
  I  I4  1  0.31235400  0.44769300  0.39518700  1
  I  I5  1  0.82837900  0.31730500  0.39479000  1
  I  I6  1  0.17162100  0.68269500  0.60521000  1
  I  I7  1  0.68764600  0.55230700  0.60481300  1
  I  I8  1  0.10040400  0.03792200  0.77643300  1
  I  I9  1  0.60040400  0.96207800  0.72356700  1
  I  I10  1  0.18764600  0.44769300  0.89518700  1
  I  I11  1  0.67162100  0.31730500  0.89479000  1
loop_
_geom_bond_atom_site_label_1
_geom_bond_atom_site_label_2
_geom_bond_distance
_geom_bond_site_symmetry_2
Ba0 I10 3.427693 1_554
Ba0 I1 3.427693 1_445
Ba0 I3 3.490050 1_445
Ba0 I8 3.490050 1_554
Ba0 I11 3.492952 1_454
Ba0 I0 3.492952 1_545
Ba1 I7 3.427693 1_545
Ba1 I4 3.427693 1_555
Ba1 I9 3.490050 1_545
Ba1 I2 3.490050 1_555
Ba1 I5 3.492952 1_555
Ba1 I6 3.492952 1_545
Ca0 I0 3.165536 1_555
Ca0 I3 3.181001 1_555
Ca0 I4 3.188433 1_555
Ca0 I5 3.196718 1_555
Ca0 I1 3.228939 1_555
Ca0 I2 3.408059 1_565
Ca1 I5 3.165536 1_455
Ca1 I2 3.181001 1_555
Ca1 I1 3.188433 1_455
Ca1 I0 3.196718 1_555
Ca1 I4 3.228939 1_555
Ca1 I3 3.408059 1_445
Ca2 I6 3.165536 1_655
Ca2 I9 3.181001 1_555
Ca2 I10 3.188433 1_655
Ca2 I11 3.196718 1_555
Ca2 I7 3.228939 1_555
Ca2 I8 3.408059 1_665
Ca3 I11 3.165536 1_555
Ca3 I8 3.181001 1_555
Ca3 I7 3.188433 1_555
Ca3 I6 3.196718 1_555
Ca3 I10 3.228939 1_555
Ca3 I9 3.408059 1_545
