# generated using pymatgen
data_NbCo3O8
_symmetry_space_group_name_H-M   'P 1'
_cell_length_a   5.68525518
_cell_length_b   5.72445670
_cell_length_c   9.24221005
_cell_angle_alpha   89.59751535
_cell_angle_beta   90.20144893
_cell_angle_gamma   120.22911055
_symmetry_Int_Tables_number   1
_chemical_formula_structural   NbCo3O8
_chemical_formula_sum   'Nb2 Co6 O16'
_cell_volume   259.87991037
_cell_formula_units_Z   2
loop_
 _symmetry_equiv_pos_site_id
 _symmetry_equiv_pos_as_xyz
  1  'x, y, z'
loop_
 _atom_site_type_symbol
 _atom_site_label
 _atom_site_symmetry_multiplicity
 _atom_site_fract_x
 _atom_site_fract_y
 _atom_site_fract_z
 _atom_site_occupancy
  Nb  Nb0  1  0.33253600  0.67377400  0.49876600  1
  Nb  Nb1  1  0.66745800  0.34122200  0.99876000  1
  Co  Co0  1  0.16999000  0.83194200  0.21482600  1
  Co  Co1  1  0.16854100  0.33793700  0.21427600  1
  Co  Co2  1  0.66448400  0.83264100  0.21562200  1
  Co  Co3  1  0.33552900  0.16815600  0.71562700  1
  Co  Co4  1  0.83001800  0.66195100  0.71482700  1
  Co  Co5  1  0.83144600  0.16941000  0.71427400  1
  O  O0  1  0.16301600  0.83672600  0.59984100  1
  O  O1  1  0.03651200  0.51248700  0.32803200  1
  O  O2  1  0.33922100  0.67110300  0.11195500  1
  O  O3  1  0.99537200  0.99663100  0.31144100  1
  O  O4  1  0.00464100  0.00127200  0.81143400  1
  O  O5  1  0.16015400  0.32574800  0.60133500  1
  O  O6  1  0.48714800  0.96317300  0.33154000  1
  O  O7  1  0.48243100  0.51511300  0.32770900  1
  O  O8  1  0.32735400  0.16621300  0.10251600  1
  O  O9  1  0.67265800  0.83888700  0.60251600  1
  O  O10  1  0.51285700  0.47599700  0.83154700  1
  O  O11  1  0.51757900  0.03270700  0.82771300  1
  O  O12  1  0.66075500  0.33185500  0.61195800  1
  O  O13  1  0.83700700  0.67372300  0.09984100  1
  O  O14  1  0.96347000  0.47595800  0.82802500  1
  O  O15  1  0.83982300  0.16558200  0.10133600  1
loop_
_geom_bond_atom_site_label_1
_geom_bond_atom_site_label_2
_geom_bond_distance
_geom_bond_site_symmetry_2
Nb0 O0 1.896162 1_555
Nb0 O9 1.926476 1_555
Nb0 O5 1.960156 1_555
Nb0 O6 2.100746 1_555
Nb0 O1 2.147554 1_555
Nb0 O7 2.204435 1_555
Nb1 O13 1.896318 1_556
Nb1 O8 1.926387 1_556
Nb1 O15 1.960133 1_556
Nb1 O10 2.100620 1_555
Nb1 O14 2.147470 1_555
Nb1 O11 2.204240 1_555
Co0 O2 1.894210 1_555
Co0 O1 1.896337 1_555
Co0 O6 1.900780 1_555
Co0 O3 1.905813 1_455
Co0 O8 1.947880 1_565
Co0 O13 1.950999 1_455
Co1 O1 1.855453 1_555
Co1 O7 1.868601 1_555
Co1 O2 1.894975 1_555
Co1 O3 1.907284 1_445
Co1 O15 1.923463 1_455
Co1 O8 1.939842 1_555
Co2 O3 1.850983 1_555
Co2 O2 1.863009 1_555
Co2 O6 1.870825 1_555
Co2 O7 1.880187 1_555
Co2 O15 1.951394 1_565
Co2 O13 1.963212 1_555
Co3 O4 1.850893 1_555
Co3 O12 1.862823 1_555
Co3 O10 1.870737 1_555
Co3 O11 1.880107 1_555
Co3 O5 1.951573 1_555
Co3 O0 1.963198 1_545
Co4 O12 1.894316 1_555
Co4 O14 1.896296 1_555
Co4 O10 1.900789 1_555
Co4 O4 1.905841 1_665
Co4 O9 1.948027 1_555
Co4 O0 1.951023 1_655
Co5 O14 1.855301 1_555
Co5 O11 1.868500 1_555
Co5 O12 1.894861 1_555
Co5 O4 1.907417 1_655
Co5 O5 1.923379 1_655
Co5 O9 1.939781 1_545
