# generated using pymatgen
data_Li3Mn(Si2O5)3
_symmetry_space_group_name_H-M   'P 1'
_cell_length_a   8.01827100
_cell_length_b   9.72602100
_cell_length_c   14.94268600
_cell_angle_alpha   90.00000000
_cell_angle_beta   90.00000000
_cell_angle_gamma   90.00000000
_symmetry_Int_Tables_number   1
_chemical_formula_structural   Li3Mn(Si2O5)3
_chemical_formula_sum   'Li12 Mn4 Si24 O60'
_cell_volume   1165.31839967
_cell_formula_units_Z   4
loop_
 _symmetry_equiv_pos_site_id
 _symmetry_equiv_pos_as_xyz
  1  'x, y, z'
loop_
 _atom_site_type_symbol
 _atom_site_label
 _atom_site_symmetry_multiplicity
 _atom_site_fract_x
 _atom_site_fract_y
 _atom_site_fract_z
 _atom_site_occupancy
  Li  Li0  1  0.75000000  0.08367900  0.93375600  1
  Li  Li1  1  0.75000000  0.41632100  0.43375600  1
  Li  Li2  1  0.00116000  0.50209500  0.75811700  1
  Li  Li3  1  0.49884000  0.50209500  0.75811700  1
  Li  Li4  1  0.50116000  0.49790500  0.24188300  1
  Li  Li5  1  0.99884000  0.49790500  0.24188300  1
  Li  Li6  1  0.25000000  0.58367900  0.56624400  1
  Li  Li7  1  0.25000000  0.91632100  0.06624400  1
  Li  Li8  1  0.50116000  0.00209500  0.74188300  1
  Li  Li9  1  0.99884000  0.00209500  0.74188300  1
  Li  Li10  1  0.49884000  0.99790500  0.25811700  1
  Li  Li11  1  0.00116000  0.99790500  0.25811700  1
  Mn  Mn0  1  0.75000000  0.25335700  0.74869000  1
  Mn  Mn1  1  0.75000000  0.24664300  0.24869000  1
  Mn  Mn2  1  0.25000000  0.74664300  0.25131000  1
  Mn  Mn3  1  0.25000000  0.75335700  0.75131000  1
  Si  Si0  1  0.25000000  0.02349400  0.59857900  1
  Si  Si1  1  0.25000000  0.02202300  0.40063100  1
  Si  Si2  1  0.43796800  0.20674900  0.89977900  1
  Si  Si3  1  0.06203200  0.20674900  0.89977900  1
  Si  Si4  1  0.05991200  0.20522600  0.10070500  1
  Si  Si5  1  0.44008800  0.20522600  0.10070500  1
  Si  Si6  1  0.05991200  0.29477400  0.60070500  1
  Si  Si7  1  0.43796800  0.29325100  0.39977900  1
  Si  Si8  1  0.44008800  0.29477400  0.60070500  1
  Si  Si9  1  0.06203200  0.29325100  0.39977900  1
  Si  Si10  1  0.25000000  0.47797700  0.90063100  1
  Si  Si11  1  0.25000000  0.47650600  0.09857900  1
  Si  Si12  1  0.75000000  0.52202300  0.09936900  1
  Si  Si13  1  0.75000000  0.52349400  0.90142100  1
  Si  Si14  1  0.56203200  0.70674900  0.60022100  1
  Si  Si15  1  0.93796800  0.70674900  0.60022100  1
  Si  Si16  1  0.94008800  0.70522600  0.39929500  1
  Si  Si17  1  0.55991200  0.70522600  0.39929500  1
  Si  Si18  1  0.94008800  0.79477400  0.89929500  1
  Si  Si19  1  0.56203200  0.79325100  0.10022100  1
  Si  Si20  1  0.93796800  0.79325100  0.10022100  1
  Si  Si21  1  0.55991200  0.79477400  0.89929500  1
  Si  Si22  1  0.75000000  0.97650600  0.40142100  1
  Si  Si23  1  0.75000000  0.97797700  0.59936900  1
  O  O0  1  0.75000000  0.04917500  0.50017200  1
  O  O1  1  0.75000000  0.08201700  0.68222700  1
  O  O2  1  0.75000000  0.07848300  0.31765900  1
  O  O3  1  0.41192400  0.12748200  0.60735500  1
  O  O4  1  0.08807600  0.12748200  0.60735500  1
  O  O5  1  0.41281600  0.12567000  0.39093500  1
  O  O6  1  0.08718400  0.12567000  0.39093500  1
  O  O7  1  0.25000000  0.13861600  0.89185000  1
  O  O8  1  0.25000000  0.13265700  0.10180600  1
  O  O9  1  0.92785900  0.14768200  0.83052200  1
  O  O10  1  0.57214100  0.14768200  0.83052200  1
  O  O11  1  0.94385000  0.15286300  0.17985400  1
  O  O12  1  0.55615000  0.15286300  0.17985400  1
  O  O13  1  0.51686600  0.16871500  0.00013100  1
  O  O14  1  0.98313400  0.16871500  0.00013100  1
  O  O15  1  0.51686600  0.33128500  0.50013100  1
  O  O16  1  0.98313400  0.33128500  0.50013100  1
  O  O17  1  0.92785900  0.35231800  0.33052200  1
  O  O18  1  0.94385000  0.34713700  0.67985400  1
  O  O19  1  0.55615000  0.34713700  0.67985400  1
  O  O20  1  0.57214100  0.35231800  0.33052200  1
  O  O21  1  0.25000000  0.36734300  0.60180600  1
  O  O22  1  0.25000000  0.36138400  0.39185000  1
  O  O23  1  0.08718400  0.37433000  0.89093500  1
  O  O24  1  0.41281600  0.37433000  0.89093500  1
  O  O25  1  0.41192400  0.37251800  0.10735500  1
  O  O26  1  0.08807600  0.37251800  0.10735500  1
  O  O27  1  0.75000000  0.42151700  0.81765900  1
  O  O28  1  0.75000000  0.41798300  0.18222700  1
  O  O29  1  0.75000000  0.45082500  0.00017200  1
  O  O30  1  0.25000000  0.54917500  0.99982800  1
  O  O31  1  0.25000000  0.58201700  0.81777300  1
  O  O32  1  0.25000000  0.57848300  0.18234100  1
  O  O33  1  0.91281600  0.62567000  0.10906500  1
  O  O34  1  0.58718400  0.62567000  0.10906500  1
  O  O35  1  0.91192400  0.62748200  0.89264500  1
  O  O36  1  0.58807600  0.62748200  0.89264500  1
  O  O37  1  0.75000000  0.63265700  0.39819400  1
  O  O38  1  0.75000000  0.63861600  0.60815000  1
  O  O39  1  0.44385000  0.65286300  0.32014600  1
  O  O40  1  0.05615000  0.65286300  0.32014600  1
  O  O41  1  0.42785900  0.64768200  0.66947800  1
  O  O42  1  0.07214100  0.64768200  0.66947800  1
  O  O43  1  0.01686600  0.66871500  0.49986900  1
  O  O44  1  0.48313400  0.66871500  0.49986900  1
  O  O45  1  0.01686600  0.83128500  0.99986900  1
  O  O46  1  0.48313400  0.83128500  0.99986900  1
  O  O47  1  0.44385000  0.84713700  0.82014600  1
  O  O48  1  0.42785900  0.85231800  0.16947800  1
  O  O49  1  0.05615000  0.84713700  0.82014600  1
  O  O50  1  0.07214100  0.85231800  0.16947800  1
  O  O51  1  0.75000000  0.86734300  0.89819400  1
  O  O52  1  0.75000000  0.86138400  0.10815000  1
  O  O53  1  0.58807600  0.87251800  0.39264500  1
  O  O54  1  0.58718400  0.87433000  0.60906500  1
  O  O55  1  0.91281600  0.87433000  0.60906500  1
  O  O56  1  0.91192400  0.87251800  0.39264500  1
  O  O57  1  0.25000000  0.92151700  0.68234100  1
  O  O58  1  0.25000000  0.91798300  0.31777300  1
  O  O59  1  0.25000000  0.95082500  0.49982800  1
loop_
_geom_bond_atom_site_label_1
_geom_bond_atom_site_label_2
_geom_bond_distance
_geom_bond_site_symmetry_2
Li0 O51 2.170153 1_545
Li0 O9 2.191099 1_555
Li0 O10 2.191099 1_555
Li0 O13 2.272034 1_556
Li0 O14 2.272034 1_556
Li1 O37 2.170153 1_555
Li1 O17 2.191099 1_555
Li1 O20 2.191099 1_555
Li1 O16 2.272034 1_555
Li1 O15 2.272034 1_555
Li2 O18 1.962199 1_455
Li2 O42 2.020704 1_555
Li2 O31 2.319472 1_555
Li2 O27 2.336976 1_455
Li2 O23 2.441067 1_555
Li2 O35 2.457668 1_455
Li3 O19 1.962199 1_555
Li3 O41 2.020704 1_555
Li3 O31 2.319472 1_555
Li3 O27 2.336976 1_555
Li3 O24 2.441067 1_555
Li3 O36 2.457668 1_555
Li4 O39 1.962199 1_555
Li4 O20 2.020704 1_555
Li4 O28 2.319472 1_555
Li4 O32 2.336976 1_555
Li4 O34 2.441067 1_555
Li4 O25 2.457668 1_555
Li5 O40 1.962199 1_655
Li5 O17 2.020704 1_555
Li5 O28 2.319472 1_555
Li5 O32 2.336976 1_655
Li5 O33 2.441067 1_555
Li5 O26 2.457668 1_655
Li6 O21 2.170153 1_555
Li6 O41 2.191099 1_555
Li6 O42 2.191099 1_555
Li6 O44 2.272034 1_555
Li6 O43 2.272034 1_555
Li7 O8 2.170153 1_565
Li7 O48 2.191099 1_555
Li7 O50 2.191099 1_555
Li7 O45 2.272034 1_554
Li7 O46 2.272034 1_554
Li8 O47 1.962199 1_545
Li8 O10 2.020704 1_555
Li8 O1 2.319472 1_555
Li8 O57 2.336976 1_545
Li8 O54 2.441067 1_545
Li8 O3 2.457668 1_555
Li9 O49 1.962199 1_645
Li9 O9 2.020704 1_555
Li9 O1 2.319472 1_555
Li9 O57 2.336976 1_645
Li9 O55 2.441067 1_545
Li9 O4 2.457668 1_655
Li10 O12 1.962199 1_565
Li10 O48 2.020704 1_555
Li10 O58 2.319472 1_555
Li10 O2 2.336976 1_565
Li10 O5 2.441067 1_565
Li10 O53 2.457668 1_555
Li11 O11 1.962199 1_465
Li11 O50 2.020704 1_555
Li11 O58 2.319472 1_555
Li11 O2 2.336976 1_465
Li11 O6 2.441067 1_565
Li11 O56 2.457668 1_455
Mn0 O27 1.933145 1_555
Mn0 O1 1.939947 1_555
Mn0 O18 2.075072 1_555
Mn0 O19 2.075072 1_555
Mn0 O10 2.141356 1_555
Mn0 O9 2.141356 1_555
Mn1 O2 1.933145 1_555
Mn1 O28 1.939947 1_555
Mn1 O11 2.075072 1_555
Mn1 O12 2.075072 1_555
Mn1 O17 2.141356 1_555
Mn1 O20 2.141356 1_555
Mn2 O32 1.933145 1_555
Mn2 O58 1.939947 1_555
Mn2 O39 2.075072 1_555
Mn2 O40 2.075072 1_555
Mn2 O50 2.141356 1_555
Mn2 O48 2.141356 1_555
Mn3 O57 1.933145 1_555
Mn3 O31 1.939947 1_555
Mn3 O47 2.075072 1_555
Mn3 O49 2.075072 1_555
Mn3 O41 2.141356 1_555
Mn3 O42 2.141356 1_555
O0 Si23 1.636045 1_545
O0 Si22 1.636138 1_545
O1 Si23 1.599023 1_545
O2 Si22 1.596967 1_545
O3 Si8 1.645685 1_555
O3 Si0 1.651006 1_555
O4 Si6 1.645685 1_555
O4 Si0 1.651006 1_555
O5 Si7 1.647635 1_555
O5 Si1 1.655760 1_555
O6 Si9 1.647635 1_555
O6 Si1 1.655760 1_555
O7 Si2 1.650681 1_555
O7 Si3 1.650681 1_555
O8 Si5 1.679747 1_555
O8 Si4 1.679747 1_555
O9 Si3 1.599514 1_655
O10 Si2 1.599514 1_555
O11 Si4 1.588771 1_655
O12 Si5 1.588771 1_555
O13 Si5 1.662421 1_555
O13 Si2 1.669024 1_554
O14 Si4 1.662421 1_655
O14 Si3 1.669024 1_654
O15 Si8 1.662421 1_555
O15 Si7 1.669024 1_555
O16 Si6 1.662421 1_655
O16 Si9 1.669024 1_655
O17 Si9 1.599514 1_655
O18 Si6 1.588771 1_655
O19 Si8 1.588771 1_555
O20 Si7 1.599514 1_555
O21 Si8 1.679747 1_555
O21 Si6 1.679747 1_555
O22 Si9 1.650681 1_555
O22 Si7 1.650681 1_555
O23 Si3 1.647635 1_555
O23 Si10 1.655760 1_555
O24 Si2 1.647635 1_555
O24 Si10 1.655760 1_555
O25 Si5 1.645685 1_555
O25 Si11 1.651006 1_555
O26 Si4 1.645685 1_555
O26 Si11 1.651006 1_555
O27 Si13 1.596967 1_555
O28 Si12 1.599023 1_555
O29 Si12 1.636045 1_555
O29 Si13 1.636138 1_554
O30 Si10 1.636045 1_555
O30 Si11 1.636138 1_556
O31 Si10 1.599023 1_555
O32 Si11 1.596967 1_555
O33 Si20 1.647635 1_555
O33 Si12 1.655760 1_555
O34 Si19 1.647635 1_555
O34 Si12 1.655760 1_555
O35 Si18 1.645685 1_555
O35 Si13 1.651006 1_555
O36 Si21 1.645685 1_555
O36 Si13 1.651006 1_555
O37 Si17 1.679747 1_555
O37 Si16 1.679747 1_555
O38 Si14 1.650681 1_555
O38 Si15 1.650681 1_555
O39 Si17 1.588771 1_555
O40 Si16 1.588771 1_455
O41 Si14 1.599514 1_555
O42 Si15 1.599514 1_455
O43 Si16 1.662421 1_455
O43 Si15 1.669024 1_455
O44 Si17 1.662421 1_555
O44 Si14 1.669024 1_555
O45 Si18 1.662421 1_455
O45 Si20 1.669024 1_456
O46 Si21 1.662421 1_555
O46 Si19 1.669024 1_556
O47 Si21 1.588771 1_555
O48 Si19 1.599514 1_555
O49 Si18 1.588771 1_455
O50 Si20 1.599514 1_455
O51 Si21 1.679747 1_555
O51 Si18 1.679747 1_555
O52 Si19 1.650681 1_555
O52 Si20 1.650681 1_555
O53 Si17 1.645685 1_555
O53 Si22 1.651006 1_555
O54 Si14 1.647635 1_555
O54 Si23 1.655760 1_555
O55 Si15 1.647635 1_555
O55 Si23 1.655760 1_555
O56 Si16 1.645685 1_555
O56 Si22 1.651006 1_555
O57 Si0 1.596967 1_565
O58 Si1 1.599023 1_565
O59 Si1 1.636045 1_565
O59 Si0 1.636138 1_565
