# generated using pymatgen
data_VFe(P2O7)2
_symmetry_space_group_name_H-M   'P 1'
_cell_length_a   4.88804262
_cell_length_b   16.23593761
_cell_length_c   6.99073807
_cell_angle_alpha   90.52619250
_cell_angle_beta   105.40360287
_cell_angle_gamma   89.24529982
_symmetry_Int_Tables_number   1
_chemical_formula_structural   VFe(P2O7)2
_chemical_formula_sum   'V2 Fe2 P8 O28'
_cell_volume   534.81385269
_cell_formula_units_Z   2
loop_
 _symmetry_equiv_pos_site_id
 _symmetry_equiv_pos_as_xyz
  1  'x, y, z'
loop_
 _atom_site_type_symbol
 _atom_site_label
 _atom_site_symmetry_multiplicity
 _atom_site_fract_x
 _atom_site_fract_y
 _atom_site_fract_z
 _atom_site_occupancy
  V  V0  1  0.21174800  0.75278800  0.72743100  1
  V  V1  1  0.21139400  0.25282600  0.72722500  1
  Fe  Fe0  1  0.78502100  0.50374900  0.26749200  1
  Fe  Fe1  1  0.78496400  0.00368700  0.26771700  1
  P  P0  1  0.38356200  0.09301000  0.50515500  1
  P  P1  1  0.38350800  0.59300000  0.50514700  1
  P  P2  1  0.25056900  0.38446200  0.10911800  1
  P  P3  1  0.25061200  0.88445700  0.10921200  1
  P  P4  1  0.75934700  0.13567000  0.89075600  1
  P  P5  1  0.75935700  0.63564500  0.89070700  1
  P  P6  1  0.61161600  0.34677500  0.49351200  1
  P  P7  1  0.61183600  0.84679300  0.49368700  1
  O  O0  1  0.01426800  0.16813700  0.82452500  1
  O  O1  1  0.01412000  0.66815500  0.82443200  1
  O  O2  1  0.17223900  0.32657800  0.92255400  1
  O  O3  1  0.17234900  0.82653500  0.92264800  1
  O  O4  1  0.14463100  0.03255900  0.46966400  1
  O  O5  1  0.14451700  0.53257500  0.46964600  1
  O  O6  1  0.27043800  0.18272700  0.53031400  1
  O  O7  1  0.27054000  0.68273600  0.53043800  1
  O  O8  1  0.41433500  0.33616100  0.63208600  1
  O  O9  1  0.41466100  0.83616300  0.63238100  1
  O  O10  1  0.55381800  0.20924100  0.89899400  1
  O  O11  1  0.55370100  0.70917100  0.89915800  1
  O  O12  1  0.58643700  0.07361500  0.72480200  1
  O  O13  1  0.58638900  0.57356100  0.72480500  1
  O  O14  1  0.43495000  0.32009300  0.27424200  1
  O  O15  1  0.43496300  0.82011500  0.27442900  1
  O  O16  1  0.43584000  0.45477500  0.08123700  1
  O  O17  1  0.43590800  0.95474800  0.08133200  1
  O  O18  1  0.56170000  0.09432300  0.35926800  1
  O  O19  1  0.56164600  0.59432000  0.35922500  1
  O  O20  1  0.70791600  0.43420600  0.49042500  1
  O  O21  1  0.70793300  0.93422400  0.49058100  1
  O  O22  1  0.86013200  0.28421400  0.55042100  1
  O  O23  1  0.86048300  0.78426000  0.55044700  1
  O  O24  1  0.85574400  0.08766200  0.07886200  1
  O  O25  1  0.85589300  0.58763000  0.07878700  1
  O  O26  1  0.98550700  0.40844000  0.16840200  1
  O  O27  1  0.98551100  0.90844800  0.16844300  1
loop_
_geom_bond_atom_site_label_1
_geom_bond_atom_site_label_2
_geom_bond_distance
_geom_bond_site_symmetry_2
Fe0 O5 1.998585 1_655
Fe0 O25 2.000800 1_555
Fe0 O16 2.019146 1_555
Fe0 O19 2.019443 1_555
Fe0 O26 2.033655 1_555
Fe0 O20 2.049704 1_555
Fe1 O4 1.998663 1_655
Fe1 O24 2.002437 1_555
Fe1 O17 2.018883 1_545
Fe1 O18 2.019289 1_555
Fe1 O27 2.033563 1_545
Fe1 O21 2.048441 1_545
O0 P4 1.540516 1_455
O0 V1 1.918858 1_555
O1 P5 1.540234 1_455
O1 V0 1.918653 1_555
O2 P2 1.566047 1_556
O2 V1 1.854134 1_555
O3 P3 1.566404 1_556
O3 V0 1.853836 1_555
O4 P0 1.503546 1_555
O5 P1 1.503481 1_555
O6 P0 1.576145 1_555
O6 V1 1.856648 1_555
O7 P1 1.576329 1_555
O7 V0 1.856209 1_555
O8 P6 1.549761 1_555
O8 V1 1.912961 1_555
O9 P7 1.550048 1_555
O9 V0 1.913036 1_555
O10 P4 1.561180 1_555
O10 V1 1.913350 1_555
O11 P5 1.561327 1_555
O11 V0 1.911804 1_555
O12 P4 1.598575 1_555
O12 P0 1.622358 1_555
O13 P5 1.598759 1_555
O13 P1 1.622568 1_555
O14 P6 1.605462 1_555
O14 P2 1.637577 1_555
O15 P7 1.605669 1_555
O15 P3 1.637612 1_555
O16 P2 1.512104 1_555
O17 P3 1.511908 1_555
O18 P0 1.507119 1_555
O19 P1 1.507325 1_555
O20 P6 1.503547 1_555
O21 P7 1.503234 1_555
O22 P6 1.543961 1_555
O22 V1 1.896460 1_655
O23 P7 1.544063 1_555
O23 V0 1.897350 1_655
O24 P4 1.496257 1_554
O25 P5 1.496222 1_554
O26 P2 1.506980 1_655
O27 P3 1.507023 1_655
