# generated using pymatgen
data_Li8SbS6
_symmetry_space_group_name_H-M   'P 1'
_cell_length_a   7.06660659
_cell_length_b   7.06660659
_cell_length_c   13.46171700
_cell_angle_alpha   90.00000000
_cell_angle_beta   90.00000000
_cell_angle_gamma   120.00000556
_symmetry_Int_Tables_number   1
_chemical_formula_structural   Li8SbS6
_chemical_formula_sum   'Li16 Sb2 S12'
_cell_volume   582.17411587
_cell_formula_units_Z   2
loop_
 _symmetry_equiv_pos_site_id
 _symmetry_equiv_pos_as_xyz
  1  'x, y, z'
loop_
 _atom_site_type_symbol
 _atom_site_label
 _atom_site_symmetry_multiplicity
 _atom_site_fract_x
 _atom_site_fract_y
 _atom_site_fract_z
 _atom_site_occupancy
  Li  Li0  1  0.00000000  0.67566000  0.76546100  1
  Li  Li1  1  0.00000000  0.61369400  0.13241200  1
  Li  Li2  1  0.00000000  0.38630600  0.63241200  1
  Li  Li3  1  0.00000000  0.32434000  0.26546100  1
  Li  Li4  1  0.33333300  0.66666700  0.39735100  1
  Li  Li5  1  0.33333300  0.66666700  0.89735100  1
  Li  Li6  1  0.32434000  0.32434000  0.76546100  1
  Li  Li7  1  0.38630600  0.38630600  0.13241200  1
  Li  Li8  1  0.61369400  0.61369400  0.63241200  1
  Li  Li9  1  0.32434000  0.00000000  0.26546100  1
  Li  Li10  1  0.67566000  0.67566000  0.26546100  1
  Li  Li11  1  0.38630600  0.00000000  0.63241200  1
  Li  Li12  1  0.66666700  0.33333300  0.89735100  1
  Li  Li13  1  0.66666700  0.33333300  0.39735100  1
  Li  Li14  1  0.61369400  0.00000000  0.13241200  1
  Li  Li15  1  0.67566000  0.00000000  0.76546100  1
  Sb  Sb0  1  0.00000000  0.00000000  0.99373700  1
  Sb  Sb1  1  0.00000000  0.00000000  0.49373700  1
  S  S0  1  0.00000000  0.65753400  0.95049600  1
  S  S1  1  0.00000000  0.34246600  0.45049600  1
  S  S2  1  0.33333300  0.66666700  0.21449500  1
  S  S3  1  0.00000000  0.00000000  0.18317100  1
  S  S4  1  0.00000000  0.00000000  0.68317100  1
  S  S5  1  0.33333300  0.66666700  0.71449500  1
  S  S6  1  0.34246600  0.34246600  0.95049600  1
  S  S7  1  0.34246600  0.00000000  0.45049600  1
  S  S8  1  0.65753400  0.65753400  0.45049600  1
  S  S9  1  0.66666700  0.33333300  0.71449500  1
  S  S10  1  0.66666700  0.33333300  0.21449500  1
  S  S11  1  0.65753400  0.00000000  0.95049600  1
loop_
_geom_bond_atom_site_label_1
_geom_bond_atom_site_label_2
_geom_bond_distance
_geom_bond_site_symmetry_2
Li0 S5 2.484550 1_555
Li0 S9 2.484553 1_455
Li0 S0 2.494180 1_555
Li0 S4 2.545649 1_565
Li1 S2 2.455173 1_555
Li1 S10 2.455175 1_455
Li1 S0 2.468420 1_554
Li1 S3 2.814091 1_565
Li2 S9 2.455173 1_455
Li2 S5 2.455175 1_555
Li2 S1 2.468420 1_555
Li2 S4 2.814091 1_555
Li3 S10 2.484550 1_455
Li3 S2 2.484553 1_555
Li3 S1 2.494180 1_555
Li3 S3 2.545649 1_555
Li4 S7 2.431565 1_565
Li4 S1 2.431568 1_555
Li4 S8 2.431572 1_555
Li4 S2 2.461556 1_555
Li5 S0 2.431565 1_555
Li5 S11 2.431568 1_565
Li5 S6 2.431572 1_555
Li5 S5 2.461556 1_555
Li6 S9 2.484557 1_555
Li6 S5 2.484557 1_555
Li6 S6 2.494180 1_555
Li6 S4 2.545649 1_555
Li7 S2 2.455179 1_555
Li7 S10 2.455179 1_555
Li7 S6 2.468420 1_554
Li7 S3 2.814091 1_555
Li8 S5 2.455179 1_555
Li8 S9 2.455179 1_555
Li8 S8 2.468420 1_555
Li8 S4 2.814091 1_665
Li9 S2 2.484550 1_545
Li9 S10 2.484553 1_555
Li9 S7 2.494180 1_555
Li9 S3 2.545649 1_555
Li10 S2 2.484557 1_555
Li10 S10 2.484557 1_555
Li10 S8 2.494180 1_555
Li10 S3 2.545649 1_665
Li11 S5 2.455173 1_545
Li11 S9 2.455175 1_555
Li11 S7 2.468420 1_555
Li11 S4 2.814091 1_555
Li12 S11 2.431565 1_555
Li12 S0 2.431568 1_655
Li12 S6 2.431572 1_555
Li12 S9 2.461556 1_555
Li13 S1 2.431565 1_655
Li13 S7 2.431568 1_555
Li13 S8 2.431572 1_555
Li13 S10 2.461556 1_555
Li14 S10 2.455173 1_555
Li14 S2 2.455175 1_545
Li14 S11 2.468420 1_554
Li14 S3 2.814091 1_655
Li15 S9 2.484550 1_555
Li15 S5 2.484553 1_545
Li15 S11 2.494180 1_555
Li15 S4 2.545649 1_655
S0 Sb0 2.489094 1_565
S1 Sb1 2.489094 1_555
S3 Sb0 2.550107 1_554
S4 Sb1 2.550107 1_555
S6 Sb0 2.489094 1_555
S7 Sb1 2.489094 1_555
S8 Sb1 2.489094 1_665
S11 Sb0 2.489094 1_655
