# generated using pymatgen
data_Li3MnP2HO8
_symmetry_space_group_name_H-M   'P 1'
_cell_length_a   8.08313927
_cell_length_b   8.14018033
_cell_length_c   9.40911734
_cell_angle_alpha   85.37801850
_cell_angle_beta   87.01659830
_cell_angle_gamma   101.68204650
_symmetry_Int_Tables_number   1
_chemical_formula_structural   Li3MnP2HO8
_chemical_formula_sum   'Li12 Mn4 P8 H4 O32'
_cell_volume   602.82365840
_cell_formula_units_Z   4
loop_
 _symmetry_equiv_pos_site_id
 _symmetry_equiv_pos_as_xyz
  1  'x, y, z'
loop_
 _atom_site_type_symbol
 _atom_site_label
 _atom_site_symmetry_multiplicity
 _atom_site_fract_x
 _atom_site_fract_y
 _atom_site_fract_z
 _atom_site_occupancy
  Li  Li0  1  0.25027500  0.75013300  0.99992300  1
  Li  Li1  1  0.75025300  0.25013600  0.99990500  1
  Li  Li2  1  0.50016900  0.00003400  0.49986800  1
  Li  Li3  1  0.00035900  0.50017200  0.49986100  1
  Li  Li4  1  0.62883500  0.86920500  0.12337800  1
  Li  Li5  1  0.12879800  0.36912000  0.12328100  1
  Li  Li6  1  0.87887600  0.11918100  0.62327000  1
  Li  Li7  1  0.37876900  0.61917900  0.62338900  1
  Li  Li8  1  0.12120200  0.88058700  0.37673700  1
  Li  Li9  1  0.62119400  0.38065000  0.37665300  1
  Li  Li10  1  0.37114100  0.13059000  0.87682000  1
  Li  Li11  1  0.87124200  0.63056700  0.87670400  1
  Mn  Mn0  1  0.49995000  0.50017100  0.00000300  1
  Mn  Mn1  1  0.74991500  0.75011100  0.50022400  1
  Mn  Mn2  1  0.99994700  0.00015900  0.99999500  1
  Mn  Mn3  1  0.25001800  0.25015100  0.50002900  1
  P  P0  1  0.35521400  0.10573200  0.18125900  1
  P  P1  1  0.85516300  0.60569600  0.18132900  1
  P  P2  1  0.60511900  0.35566100  0.68136300  1
  P  P3  1  0.10522100  0.85570500  0.68129200  1
  P  P4  1  0.39463900  0.64434100  0.31886100  1
  P  P5  1  0.89466700  0.14432800  0.31885600  1
  P  P6  1  0.64469400  0.89434400  0.81882900  1
  P  P7  1  0.14460300  0.39438800  0.81880500  1
  H  H0  1  0.12454500  0.62475300  0.24946500  1
  H  H1  1  0.62468500  0.12483500  0.24964800  1
  H  H2  1  0.37471700  0.87484900  0.74964400  1
  H  H3  1  0.87443000  0.37471300  0.74938800  1
  O  O0  1  0.34231500  0.28521000  0.12567700  1
  O  O1  1  0.84233100  0.78516300  0.12570000  1
  O  O2  1  0.59230200  0.53513900  0.62574100  1
  O  O3  1  0.09235500  0.03517900  0.62568700  1
  O  O4  1  0.40786200  0.46486900  0.37435200  1
  O  O5  1  0.90781400  0.96485800  0.37437600  1
  O  O6  1  0.65784900  0.71487600  0.87435200  1
  O  O7  1  0.15781900  0.21491600  0.87434300  1
  O  O8  1  0.54499900  0.08547100  0.14863700  1
  O  O9  1  0.04499100  0.58543400  0.14868100  1
  O  O10  1  0.79496500  0.33542800  0.64871200  1
  O  O11  1  0.29500000  0.83547900  0.64863700  1
  O  O12  1  0.20508600  0.66453300  0.35156600  1
  O  O13  1  0.70505400  0.16449600  0.35153700  1
  O  O14  1  0.45509900  0.91451900  0.85152500  1
  O  O15  1  0.95507500  0.41452100  0.85159400  1
  O  O16  1  0.23770100  0.97412700  0.10206600  1
  O  O17  1  0.73759800  0.47409900  0.10220300  1
  O  O18  1  0.48763300  0.22406600  0.60218500  1
  O  O19  1  0.98760900  0.72405300  0.60221200  1
  O  O20  1  0.51252800  0.77598700  0.39782600  1
  O  O21  1  0.01248000  0.27599600  0.39783900  1
  O  O22  1  0.76257000  0.02603300  0.89774400  1
  O  O23  1  0.26257400  0.52606700  0.89769000  1
  O  O24  1  0.43349800  0.67616900  0.15386900  1
  O  O25  1  0.93345600  0.17604500  0.15386300  1
  O  O26  1  0.68346800  0.92610700  0.65383100  1
  O  O27  1  0.18343600  0.42610000  0.65379300  1
  O  O28  1  0.31643700  0.07386900  0.34619300  1
  O  O29  1  0.81650000  0.57392000  0.34626000  1
  O  O30  1  0.56644000  0.32386900  0.84629500  1
  O  O31  1  0.06651600  0.82391400  0.84623500  1
loop_
_geom_bond_atom_site_label_1
_geom_bond_atom_site_label_2
_geom_bond_distance
_geom_bond_site_symmetry_2
Li0 O16 2.146137 1_556
Li0 O23 2.146662 1_555
Li0 O14 2.245527 1_555
Li0 O9 2.250524 1_556
Li0 O24 2.257854 1_556
Li0 O31 2.258974 1_555
Li1 O22 2.146612 1_555
Li1 O17 2.146789 1_556
Li1 O15 2.245076 1_555
Li1 O8 2.250141 1_556
Li1 O25 2.258168 1_556
Li1 O30 2.258684 1_555
Li2 O20 2.145695 1_545
Li2 O18 2.147196 1_555
Li2 O13 2.245723 1_555
Li2 O11 2.249571 1_545
Li2 O26 2.258311 1_545
Li2 O28 2.258884 1_555
Li3 O21 2.146164 1_555
Li3 O19 2.146599 1_455
Li3 O12 2.244469 1_555
Li3 O10 2.251657 1_455
Li3 O27 2.257197 1_555
Li3 O29 2.258948 1_455
Li4 O24 1.979885 1_555
Li4 O1 1.981466 1_555
Li4 O8 2.036822 1_565
Li4 O22 2.463930 1_564
Li5 O25 1.980141 1_455
Li5 O0 1.981086 1_555
Li5 O9 2.037297 1_555
Li5 O23 2.464052 1_554
Li6 O26 1.980464 1_545
Li6 O3 1.981192 1_655
Li6 O10 2.037272 1_555
Li6 O21 2.462064 1_655
Li7 O27 1.980049 1_555
Li7 O2 1.981747 1_555
Li7 O11 2.036793 1_555
Li7 O20 2.463395 1_555
Li8 O28 1.980629 1_565
Li8 O5 1.981626 1_455
Li8 O12 2.035253 1_555
Li8 O19 2.461545 1_455
Li9 O29 1.980874 1_555
Li9 O4 1.980963 1_555
Li9 O13 2.035834 1_555
Li9 O18 2.462044 1_555
Li10 O30 1.980932 1_555
Li10 O7 1.981389 1_555
Li10 O14 2.035881 1_545
Li10 O16 2.459262 1_546
Li11 O31 1.981128 1_655
Li11 O6 1.981823 1_555
Li11 O15 2.034888 1_555
Li11 O17 2.461651 1_556
Mn0 O6 2.165159 1_554
Mn0 O0 2.165752 1_555
Mn0 O23 2.230721 1_554
Mn0 O17 2.232542 1_555
Mn0 O24 2.236501 1_555
Mn0 O30 2.237420 1_554
Mn1 O2 2.165075 1_555
Mn1 O5 2.166214 1_555
Mn1 O20 2.231138 1_555
Mn1 O19 2.231918 1_555
Mn1 O26 2.234803 1_555
Mn1 O29 2.238661 1_555
Mn2 O7 2.165349 1_655
Mn2 O1 2.166006 1_546
Mn2 O22 2.230413 1_555
Mn2 O16 2.232671 1_646
Mn2 O25 2.235944 1_556
Mn2 O31 2.237626 1_645
Mn3 O4 2.165161 1_555
Mn3 O3 2.165832 1_555
Mn3 O21 2.231263 1_555
Mn3 O18 2.232132 1_555
Mn3 O27 2.235900 1_555
Mn3 O28 2.237932 1_555
H0 O9 1.201767 1_555
H0 O12 1.217154 1_555
H1 O8 1.204196 1_555
H1 O13 1.214541 1_555
H2 O11 1.204306 1_555
H2 O14 1.214549 1_555
H3 O10 1.200478 1_555
H3 O15 1.218472 1_555
O0 P0 1.537229 1_555
O1 P1 1.537113 1_555
O2 P2 1.537146 1_555
O3 P3 1.537182 1_545
O4 P4 1.537685 1_555
O5 P5 1.537571 1_565
O6 P6 1.537581 1_555
O7 P7 1.537787 1_555
O8 P0 1.592594 1_555
O9 P1 1.592972 1_455
O10 P2 1.593044 1_555
O11 P3 1.592504 1_555
O12 P4 1.590709 1_555
O13 P5 1.591086 1_555
O14 P6 1.590983 1_555
O15 P7 1.590481 1_655
O16 P0 1.547704 1_565
O17 P1 1.547516 1_555
O18 P2 1.547466 1_555
O19 P3 1.547731 1_655
O20 P4 1.548205 1_555
O21 P5 1.548103 1_455
O22 P6 1.548098 1_545
O23 P7 1.548273 1_555
O24 P4 1.557975 1_555
O25 P5 1.557878 1_555
O26 P6 1.557927 1_555
O27 P7 1.558091 1_555
O28 P0 1.557381 1_555
O29 P1 1.557215 1_555
O30 P2 1.557245 1_555
O31 P3 1.557369 1_555
