# generated using pymatgen
data_Mn3H24(O3F2)4
_symmetry_space_group_name_H-M   'P 1'
_cell_length_a   6.27509900
_cell_length_b   8.99771971
_cell_length_c   9.40801126
_cell_angle_alpha   110.61197241
_cell_angle_beta   103.36232772
_cell_angle_gamma   106.90465301
_symmetry_Int_Tables_number   1
_chemical_formula_structural   Mn3H24(O3F2)4
_chemical_formula_sum   'Mn3 H24 O12 F8'
_cell_volume   441.49334522
_cell_formula_units_Z   1
loop_
 _symmetry_equiv_pos_site_id
 _symmetry_equiv_pos_as_xyz
  1  'x, y, z'
loop_
 _atom_site_type_symbol
 _atom_site_label
 _atom_site_symmetry_multiplicity
 _atom_site_fract_x
 _atom_site_fract_y
 _atom_site_fract_z
 _atom_site_occupancy
  Mn  Mn0  1  0.00000000  0.00000000  0.00000000  1
  Mn  Mn1  1  0.85021400  0.30379200  0.62180900  1
  Mn  Mn2  1  0.14978600  0.69620800  0.37819100  1
  H  H0  1  0.80339300  0.63728100  0.82513000  1
  H  H1  1  0.19660700  0.36271900  0.17487000  1
  H  H2  1  0.89690400  0.67854800  0.01290700  1
  H  H3  1  0.10309600  0.32145200  0.98709300  1
  H  H4  1  0.55075600  0.91362400  0.77438800  1
  H  H5  1  0.44924400  0.08637600  0.22561200  1
  H  H6  1  0.61363900  0.08990900  0.93004000  1
  H  H7  1  0.38636100  0.91009100  0.06996000  1
  H  H8  1  0.21535100  0.44235800  0.52396400  1
  H  H9  1  0.78464900  0.55764200  0.47603600  1
  H  H10  1  0.32208100  0.36027600  0.63350200  1
  H  H11  1  0.67791900  0.63972400  0.36649800  1
  H  H12  1  0.88252600  0.12260600  0.29050300  1
  H  H13  1  0.11747400  0.87739400  0.70949700  1
  H  H14  1  0.02562900  0.00300000  0.29995300  1
  H  H15  1  0.97437100  0.99700000  0.70004700  1
  H  H16  1  0.35598800  0.11085100  0.57306200  1
  H  H17  1  0.64401200  0.88914900  0.42693800  1
  H  H18  1  0.51098800  0.23838200  0.76520400  1
  H  H19  1  0.48901200  0.76161800  0.23479600  1
  H  H20  1  0.46404000  0.29923600  0.01927100  1
  H  H21  1  0.53596000  0.70076400  0.98072900  1
  H  H22  1  0.73575700  0.38924300  0.04271300  1
  H  H23  1  0.26424300  0.61075700  0.95728700  1
  O  O0  1  0.81709400  0.71546800  0.93606100  1
  O  O1  1  0.18290600  0.28453200  0.06393900  1
  O  O2  1  0.65697500  0.98906800  0.89038000  1
  O  O3  1  0.34302500  0.01093200  0.10962000  1
  O  O4  1  0.21068500  0.41678300  0.61751000  1
  O  O5  1  0.78931500  0.58321700  0.38249000  1
  O  O6  1  0.96607300  0.05771900  0.23471300  1
  O  O7  1  0.03392700  0.94228100  0.76528700  1
  O  O8  1  0.48191400  0.22833600  0.65248100  1
  O  O9  1  0.51808600  0.77166400  0.34751900  1
  O  O10  1  0.58504900  0.28515100  0.97049500  1
  O  O11  1  0.41495100  0.71484900  0.02950500  1
  F  F0  1  0.81772300  0.51475200  0.64782100  1
  F  F1  1  0.18227700  0.48524800  0.35217900  1
  F  F2  1  0.00151900  0.39369000  0.85063700  1
  F  F3  1  0.99848100  0.60631000  0.14936300  1
  F  F4  1  0.85737400  0.08388600  0.59068100  1
  F  F5  1  0.14262600  0.91611400  0.40931900  1
  F  F6  1  0.70413300  0.20795600  0.39266200  1
  F  F7  1  0.29586700  0.79204400  0.60733800  1
loop_
_geom_bond_atom_site_label_1
_geom_bond_atom_site_label_2
_geom_bond_distance
_geom_bond_site_symmetry_2
Mn0 O3 2.118009 1_555
Mn0 O2 2.118009 1_444
Mn0 O6 2.159924 1_455
Mn0 O7 2.159924 1_544
Mn0 O0 2.263012 1_444
Mn0 O1 2.263012 1_555
Mn1 O4 2.210357 1_655
Mn1 O8 2.327909 1_555
Mn2 O5 2.210357 1_455
Mn2 O9 2.327909 1_555
H0 O0 0.998955 1_555
H1 O1 0.998955 1_555
H2 O0 0.991133 1_554
H3 O1 0.991133 1_556
H4 O2 0.987431 1_555
H5 O3 0.987431 1_555
H6 O2 0.994215 1_545
H7 O3 0.994215 1_565
H8 O4 0.989413 1_555
H9 O5 0.989413 1_555
H10 O4 0.990812 1_555
H11 O5 0.990812 1_555
H12 O6 0.990277 1_555
H13 O7 0.990277 1_555
H14 O6 0.986176 1_455
H15 O7 0.986176 1_655
H16 O8 0.992647 1_555
H17 O9 0.992647 1_555
H18 O8 0.999801 1_555
H19 O9 0.999801 1_555
H20 O10 0.989605 1_554
H21 O11 0.989605 1_556
H22 O10 0.986432 1_554
H23 O11 0.986432 1_556
F0 Mn1 1.904084 1_555
F1 Mn2 1.904084 1_555
F2 Mn1 1.890214 1_455
F3 Mn2 1.890214 1_655
F4 Mn1 1.911191 1_555
F5 Mn2 1.911191 1_555
F6 Mn1 1.883995 1_555
F7 Mn2 1.883995 1_555
