# generated using pymatgen
data_Ba5P3O13
_symmetry_space_group_name_H-M   'P 1'
_cell_length_a   10.23298974
_cell_length_b   10.23298974
_cell_length_c   7.72523500
_cell_angle_alpha   90.00000000
_cell_angle_beta   90.00000000
_cell_angle_gamma   119.99999834
_symmetry_Int_Tables_number   1
_chemical_formula_structural   Ba5P3O13
_chemical_formula_sum   'Ba10 P6 O26'
_cell_volume   700.56335419
_cell_formula_units_Z   2
loop_
 _symmetry_equiv_pos_site_id
 _symmetry_equiv_pos_as_xyz
  1  'x, y, z'
loop_
 _atom_site_type_symbol
 _atom_site_label
 _atom_site_symmetry_multiplicity
 _atom_site_fract_x
 _atom_site_fract_y
 _atom_site_fract_z
 _atom_site_occupancy
  Ba  Ba0  1  0.33333300  0.66666700  0.00187700  1
  Ba  Ba1  1  0.66666700  0.33333300  0.50187700  1
  Ba  Ba2  1  0.66666700  0.33333300  0.99812300  1
  Ba  Ba3  1  0.33333300  0.66666700  0.49812300  1
  Ba  Ba4  1  0.75481500  0.77278500  0.75000000  1
  Ba  Ba5  1  0.01797100  0.24518500  0.75000000  1
  Ba  Ba6  1  0.22721500  0.98202900  0.75000000  1
  Ba  Ba7  1  0.24518500  0.22721500  0.25000000  1
  Ba  Ba8  1  0.98202900  0.75481500  0.25000000  1
  Ba  Ba9  1  0.77278500  0.01797100  0.25000000  1
  P  P0  1  0.97119100  0.59623700  0.75000000  1
  P  P1  1  0.62504500  0.02880900  0.75000000  1
  P  P2  1  0.40376300  0.37495500  0.75000000  1
  P  P3  1  0.02880900  0.40376300  0.25000000  1
  P  P4  1  0.37495500  0.97119100  0.25000000  1
  P  P5  1  0.59623700  0.62504500  0.25000000  1
  O  O0  1  0.14347500  0.66207300  0.75000000  1
  O  O1  1  0.51859800  0.85652500  0.75000000  1
  O  O2  1  0.33792700  0.48140200  0.75000000  1
  O  O3  1  0.85652500  0.33792700  0.25000000  1
  O  O4  1  0.48140200  0.14347500  0.25000000  1
  O  O5  1  0.66207300  0.51859800  0.25000000  1
  O  O6  1  0.88873600  0.42030100  0.75000000  1
  O  O7  1  0.53156500  0.11126400  0.75000000  1
  O  O8  1  0.57969900  0.46843500  0.75000000  1
  O  O9  1  0.11126400  0.57969900  0.25000000  1
  O  O10  1  0.46843500  0.88873600  0.25000000  1
  O  O11  1  0.42030100  0.53156500  0.25000000  1
  O  O12  1  0.92117100  0.65067500  0.91336900  1
  O  O13  1  0.72950400  0.07882900  0.91336900  1
  O  O14  1  0.34932500  0.27049600  0.91336900  1
  O  O15  1  0.07882900  0.34932500  0.41336900  1
  O  O16  1  0.27049600  0.92117100  0.41336900  1
  O  O17  1  0.65067500  0.72950400  0.41336900  1
  O  O18  1  0.07882900  0.34932500  0.08663100  1
  O  O19  1  0.27049600  0.92117100  0.08663100  1
  O  O20  1  0.65067500  0.72950400  0.08663100  1
  O  O21  1  0.92117100  0.65067500  0.58663100  1
  O  O22  1  0.72950400  0.07882900  0.58663100  1
  O  O23  1  0.34932500  0.27049600  0.58663100  1
  O  O24  1  0.00000000  0.00000000  0.00000000  1
  O  O25  1  0.00000000  0.00000000  0.50000000  1
loop_
_geom_bond_atom_site_label_1
_geom_bond_atom_site_label_2
_geom_bond_distance
_geom_bond_site_symmetry_2
Ba0 O0 2.733419 1_554
Ba0 O1 2.733423 1_554
Ba0 O2 2.733426 1_554
Ba0 O9 2.758216 1_555
Ba0 O10 2.758217 1_555
Ba0 O11 2.758223 1_555
Ba0 O19 3.049482 1_555
Ba0 O18 3.049488 1_555
Ba0 O20 3.049492 1_555
Ba1 O3 2.733419 1_555
Ba1 O4 2.733423 1_555
Ba1 O5 2.733426 1_555
Ba1 O6 2.758216 1_555
Ba1 O7 2.758217 1_555
Ba1 O8 2.758223 1_555
Ba1 O22 3.049482 1_555
Ba1 O21 3.049488 1_555
Ba1 O23 3.049492 1_555
Ba2 O3 2.733419 1_556
Ba2 O4 2.733423 1_556
Ba2 O5 2.733426 1_556
Ba2 O6 2.758216 1_555
Ba2 O7 2.758217 1_555
Ba2 O8 2.758223 1_555
Ba2 O13 3.049482 1_555
Ba2 O12 3.049488 1_555
Ba2 O14 3.049492 1_555
Ba3 O0 2.733419 1_555
Ba3 O1 2.733423 1_555
Ba3 O2 2.733426 1_555
Ba3 O9 2.758216 1_555
Ba3 O10 2.758217 1_555
Ba3 O11 2.758223 1_555
Ba3 O16 3.049482 1_555
Ba3 O15 3.049488 1_555
Ba3 O17 3.049492 1_555
Ba4 O8 2.707356 1_555
Ba4 O20 2.760923 1_556
Ba4 O17 2.760923 1_555
Ba4 O21 2.859931 1_555
Ba4 O12 2.859931 1_555
Ba4 O1 2.940835 1_555
Ba4 O24 3.097960 1_666
Ba4 O25 3.097960 1_665
Ba5 O6 2.707364 1_455
Ba5 O18 2.760923 1_556
Ba5 O15 2.760923 1_555
Ba5 O22 2.859939 1_455
Ba5 O13 2.859939 1_455
Ba5 O2 2.940828 1_555
Ba5 O24 3.097957 1_556
Ba5 O25 3.097957 1_555
Ba6 O7 2.707355 1_565
Ba6 O19 2.760920 1_556
Ba6 O16 2.760920 1_555
Ba6 O14 2.859939 1_565
Ba6 O23 2.859939 1_565
Ba6 O0 2.940825 1_555
Ba6 O24 3.097965 1_566
Ba6 O25 3.097965 1_565
Ba7 O11 2.707356 1_555
Ba7 O14 2.760923 1_554
Ba7 O23 2.760923 1_555
Ba7 O18 2.859931 1_555
Ba7 O15 2.859931 1_555
Ba7 O4 2.940835 1_555
Ba7 O24 3.097960 1_555
Ba7 O25 3.097960 1_555
Ba8 O9 2.707364 1_655
Ba8 O21 2.760923 1_555
Ba8 O12 2.760923 1_554
Ba8 O19 2.859939 1_655
Ba8 O16 2.859939 1_655
Ba8 O5 2.940828 1_555
Ba8 O24 3.097957 1_665
Ba8 O25 3.097957 1_665
Ba9 O10 2.707355 1_545
Ba9 O22 2.760920 1_555
Ba9 O13 2.760920 1_554
Ba9 O17 2.859939 1_545
Ba9 O20 2.859939 1_545
Ba9 O3 2.940825 1_555
Ba9 O24 3.097965 1_655
Ba9 O25 3.097965 1_655
O0 P0 1.540861 1_455
O1 P1 1.540859 1_565
O2 P2 1.540851 1_555
O3 P3 1.540861 1_655
O4 P4 1.540859 1_545
O5 P5 1.540851 1_555
O6 P0 1.560170 1_555
O7 P1 1.560161 1_555
O8 P2 1.560170 1_555
O9 P3 1.560170 1_555
O10 P4 1.560161 1_555
O11 P5 1.560170 1_555
O12 P0 1.565329 1_555
O13 P1 1.565334 1_555
O14 P2 1.565334 1_555
O15 P3 1.565329 1_555
O16 P4 1.565334 1_555
O17 P5 1.565334 1_555
O18 P3 1.565329 1_555
O19 P4 1.565334 1_555
O20 P5 1.565334 1_555
O21 P0 1.565329 1_555
O22 P1 1.565334 1_555
O23 P2 1.565334 1_555
