# generated using pymatgen
data_Rb2CoB12(H2O3)10
_symmetry_space_group_name_H-M   'P 1'
_cell_length_a   7.57697300
_cell_length_b   7.91744091
_cell_length_c   11.13535548
_cell_angle_alpha   107.41684304
_cell_angle_beta   93.51607248
_cell_angle_gamma   92.14368580
_symmetry_Int_Tables_number   1
_chemical_formula_structural   Rb2CoB12(H2O3)10
_chemical_formula_sum   'Rb2 Co1 B12 H20 O30'
_cell_volume   635.09454650
_cell_formula_units_Z   1
loop_
 _symmetry_equiv_pos_site_id
 _symmetry_equiv_pos_as_xyz
  1  'x, y, z'
loop_
 _atom_site_type_symbol
 _atom_site_label
 _atom_site_symmetry_multiplicity
 _atom_site_fract_x
 _atom_site_fract_y
 _atom_site_fract_z
 _atom_site_occupancy
  Rb  Rb0  1  0.23293200  0.36401600  0.40512600  1
  Rb  Rb1  1  0.76706800  0.63598400  0.59487400  1
  Co  Co0  1  0.50000000  0.00000000  0.00000000  1
  B  B0  1  0.04564400  0.24734900  0.95307500  1
  B  B1  1  0.17329400  0.99206800  0.79774100  1
  B  B2  1  0.15011800  0.86383000  0.56400100  1
  B  B3  1  0.34238400  0.30230500  0.88415500  1
  B  B4  1  0.38384400  0.11277700  0.65135000  1
  B  B5  1  0.39682700  0.43795700  0.71284100  1
  B  B6  1  0.60317300  0.56204300  0.28715900  1
  B  B7  1  0.61615600  0.88722300  0.34865000  1
  B  B8  1  0.65761600  0.69769500  0.11584500  1
  B  B9  1  0.84988200  0.13617000  0.43599900  1
  B  B10  1  0.82670600  0.00793200  0.20225900  1
  B  B11  1  0.95435600  0.75265100  0.04692500  1
  H  H0  1  0.11464700  0.57058200  0.94929400  1
  H  H1  1  0.10959900  0.71158000  0.37909200  1
  H  H2  1  0.20960400  0.81477800  0.89720100  1
  H  H3  1  0.22918600  0.55547000  0.16526900  1
  H  H4  1  0.19685800  0.01789600  0.12470000  1
  H  H5  1  0.28425300  0.75091500  0.24830900  1
  H  H6  1  0.36758800  0.69810100  0.74363000  1
  H  H7  1  0.36665100  0.01751800  0.21554500  1
  H  H8  1  0.37313300  0.95769000  0.40799400  1
  H  H9  1  0.49028100  0.64740100  0.95627600  1
  H  H10  1  0.50971900  0.35259900  0.04372400  1
  H  H11  1  0.62686700  0.04231000  0.59200600  1
  H  H12  1  0.63334900  0.98248200  0.78445500  1
  H  H13  1  0.63241200  0.30189900  0.25637000  1
  H  H14  1  0.71574700  0.24908500  0.75169100  1
  H  H15  1  0.80314200  0.98210400  0.87530000  1
  H  H16  1  0.77081400  0.44453000  0.83473100  1
  H  H17  1  0.79039600  0.18522200  0.10279900  1
  H  H18  1  0.89040100  0.28842000  0.62090800  1
  H  H19  1  0.88535300  0.42941800  0.05070600  1
  O  O0  1  0.04072000  0.07241600  0.88419600  1
  O  O1  1  0.08668700  0.69723100  0.96587600  1
  O  O2  1  0.08563200  0.88274600  0.67932900  1
  O  O3  1  0.06945700  0.72786000  0.46474900  1
  O  O4  1  0.18079900  0.36621400  0.94820100  1
  O  O5  1  0.29314100  0.13721900  0.77382100  1
  O  O6  1  0.28802400  0.88333500  0.85638300  1
  O  O7  1  0.18908100  0.65509700  0.23190800  1
  O  O8  1  0.28605600  0.97386900  0.54825400  1
  O  O9  1  0.38406800  0.27899300  0.61950700  1
  O  O10  1  0.32131800  0.06569300  0.14600300  1
  O  O11  1  0.39629700  0.58958400  0.67592300  1
  O  O12  1  0.46963100  0.25015500  0.96929600  1
  O  O13  1  0.58722900  0.55389200  0.16104400  1
  O  O14  1  0.43272900  0.93567400  0.32742000  1
  O  O15  1  0.56727100  0.06432600  0.67258000  1
  O  O16  1  0.41277100  0.44610800  0.83895600  1
  O  O17  1  0.53036900  0.74984500  0.03070400  1
  O  O18  1  0.60370300  0.41041600  0.32407700  1
  O  O19  1  0.67868200  0.93430700  0.85399700  1
  O  O20  1  0.61593200  0.72100700  0.38049300  1
  O  O21  1  0.71394400  0.02613100  0.45174600  1
  O  O22  1  0.81091900  0.34490300  0.76809200  1
  O  O23  1  0.71197600  0.11666500  0.14361700  1
  O  O24  1  0.70685900  0.86278100  0.22617900  1
  O  O25  1  0.81920100  0.63378600  0.05179900  1
  O  O26  1  0.93054300  0.27214000  0.53525100  1
  O  O27  1  0.91436800  0.11725400  0.32067100  1
  O  O28  1  0.91331300  0.30276900  0.03412400  1
  O  O29  1  0.95928000  0.92758400  0.11580400  1
loop_
_geom_bond_atom_site_label_1
_geom_bond_atom_site_label_2
_geom_bond_distance
_geom_bond_site_symmetry_2
Co0 O12 2.126592 1_554
Co0 O17 2.126592 1_545
Co0 O19 2.136151 1_544
Co0 O10 2.136151 1_555
Co0 O23 2.163342 1_555
Co0 O6 2.163342 1_544
B0 O0 1.365518 1_555
B0 O4 1.379359 1_555
B0 O28 1.385367 1_456
B1 O2 1.447516 1_555
B1 O0 1.462986 1_565
B1 O6 1.498706 1_555
B1 O5 1.533333 1_565
B2 O2 1.370287 1_555
B2 O8 1.377372 1_555
B2 O3 1.381882 1_555
B3 O12 1.466599 1_555
B3 O16 1.471256 1_555
B3 O4 1.483590 1_555
B3 O5 1.517579 1_555
B4 O9 1.461799 1_555
B4 O8 1.468108 1_545
B4 O15 1.479364 1_555
B4 O5 1.528569 1_555
B5 O9 1.367137 1_555
B5 O11 1.380511 1_555
B5 O16 1.383933 1_555
B6 O20 1.367137 1_555
B6 O18 1.380511 1_555
B6 O13 1.383933 1_555
B7 O20 1.461799 1_555
B7 O21 1.468108 1_565
B7 O14 1.479364 1_555
B7 O24 1.528569 1_555
B8 O17 1.466599 1_555
B8 O13 1.471256 1_555
B8 O25 1.483590 1_555
B8 O24 1.517579 1_555
B9 O27 1.370287 1_555
B9 O21 1.377372 1_555
B9 O26 1.381882 1_555
B10 O27 1.447516 1_555
B10 O29 1.462986 1_545
B10 O23 1.498706 1_555
B10 O24 1.533333 1_545
B11 O29 1.365518 1_555
B11 O25 1.379359 1_555
B11 O1 1.385367 1_654
H0 O1 0.997149 1_555
H1 O3 0.991875 1_555
H1 Rb0 3.027628 1_555
H2 O6 1.005468 1_555
H2 O1 1.663403 1_555
H3 O7 0.979979 1_555
H4 O10 0.990409 1_555
H5 O7 0.994417 1_555
H6 O11 1.000123 1_555
H7 O10 1.008522 1_555
H7 O14 1.628966 1_545
H7 Rb0 3.164255 1_555
H8 O14 1.000625 1_555
H9 O17 0.992616 1_556
H10 O12 0.992616 1_554
H11 O15 1.000625 1_555
H12 O19 1.008522 1_555
H12 O15 1.628966 1_565
H12 Rb1 3.164255 1_555
H13 O18 1.000123 1_555
H14 O22 0.994417 1_555
H15 O19 0.990409 1_555
H16 O22 0.979979 1_555
H17 O23 1.005468 1_555
H17 O28 1.663403 1_555
H18 O26 0.991875 1_555
H18 Rb1 3.027628 1_555
H19 O28 0.997149 1_555
O2 Rb1 2.965891 1_455
O3 Rb1 2.965095 1_455
O3 Rb0 3.081624 1_555
O9 Rb0 2.854411 1_555
O10 Rb0 3.260134 1_555
O11 Rb1 3.045330 1_555
O11 Rb0 3.157116 1_555
O18 Rb0 3.045330 1_555
O18 Rb1 3.157116 1_555
O19 Rb1 3.260134 1_555
O20 Rb1 2.854411 1_555
O26 Rb0 2.965095 1_655
O26 Rb1 3.081624 1_555
O27 Rb0 2.965891 1_655
