# generated using pymatgen
data_Tm2Ti2O7
_symmetry_space_group_name_H-M   'P 1'
_cell_length_a   5.23691261
_cell_length_b   7.40753788
_cell_length_c   13.01844549
_cell_angle_alpha   81.66514657
_cell_angle_beta   90.00000000
_cell_angle_gamma   90.00000000
_symmetry_Int_Tables_number   1
_chemical_formula_structural   Tm2Ti2O7
_chemical_formula_sum   'Tm8 Ti8 O28'
_cell_volume   499.68559726
_cell_formula_units_Z   4
loop_
 _symmetry_equiv_pos_site_id
 _symmetry_equiv_pos_as_xyz
  1  'x, y, z'
loop_
 _atom_site_type_symbol
 _atom_site_label
 _atom_site_symmetry_multiplicity
 _atom_site_fract_x
 _atom_site_fract_y
 _atom_site_fract_z
 _atom_site_occupancy
  Tm  Tm0  1  0.77490918  0.76444684  0.92712312  1
  Tm  Tm1  1  0.35585383  0.85958512  0.56115961  1
  Tm  Tm2  1  0.24558844  0.71395751  0.13522752  1
  Tm  Tm3  1  0.77798445  0.64397166  0.38787494  1
  Tm  Tm4  1  0.27798445  0.35602834  0.61212506  1
  Tm  Tm5  1  0.74558844  0.28604249  0.86477248  1
  Tm  Tm6  1  0.85585383  0.14041488  0.43884039  1
  Tm  Tm7  1  0.27490918  0.23555316  0.07287688  1
  Ti  Ti0  1  0.28127558  0.92892690  0.32073393  1
  Ti  Ti1  1  0.76752510  0.97074013  0.12182866  1
  Ti  Ti2  1  0.79249448  0.59048433  0.67183058  1
  Ti  Ti3  1  0.26769911  0.53146400  0.87325996  1
  Ti  Ti4  1  0.76769911  0.46853600  0.12674004  1
  Ti  Ti5  1  0.29249448  0.40951567  0.32816942  1
  Ti  Ti6  1  0.26752510  0.02925987  0.87817134  1
  Ti  Ti7  1  0.78127558  0.07107310  0.67926607  1
  O  O0  1  0.42981176  0.99561418  0.17793471  1
  O  O1  1  0.56439374  0.92728349  0.40905426  1
  O  O2  1  0.66398255  0.82852015  0.68151028  1
  O  O3  1  0.36086071  0.77880799  0.88244136  1
  O  O4  1  0.06408394  0.85589834  0.43236780  1
  O  O5  1  0.04624686  0.93608996  0.02502640  1
  O  O6  1  0.95412453  0.86887684  0.23348469  1
  O  O7  1  0.10227803  0.63608310  0.61843213  1
  O  O8  1  0.92769665  0.58096512  0.82335998  1
  O  O9  1  0.38672454  0.67413254  0.30372640  1
  O  O10  1  0.64631453  0.72765285  0.08997606  1
  O  O11  1  0.58896510  0.58541573  0.55053328  1
  O  O12  1  0.54276347  0.45035674  0.97286975  1
  O  O13  1  0.45676842  0.48335893  0.76291453  1
  O  O14  1  0.95676842  0.51664107  0.23708547  1
  O  O15  1  0.04276347  0.54964326  0.02713025  1
  O  O16  1  0.08896510  0.41458427  0.44946672  1
  O  O17  1  0.14631453  0.27234715  0.91002394  1
  O  O18  1  0.88672454  0.32586746  0.69627360  1
  O  O19  1  0.42769665  0.41903488  0.17664002  1
  O  O20  1  0.60227803  0.36391690  0.38156787  1
  O  O21  1  0.45412453  0.13112316  0.76651531  1
  O  O22  1  0.54624686  0.06391004  0.97497360  1
  O  O23  1  0.56408394  0.14410166  0.56763220  1
  O  O24  1  0.86086071  0.22119201  0.11755864  1
  O  O25  1  0.16398255  0.17147985  0.31848972  1
  O  O26  1  0.06439374  0.07271651  0.59094574  1
  O  O27  1  0.92981176  0.00438582  0.82206529  1
loop_
_geom_bond_atom_site_label_1
_geom_bond_atom_site_label_2
_geom_bond_distance
_geom_bond_site_symmetry_2
O0 Ti1 1.932442 1_555
O0 Ti0 2.009686 1_555
O0 Tm7 2.232238 1_565
O0 Tm2 2.434989 1_555
O1 Ti0 1.875210 1_555
O1 Tm1 2.253304 1_555
O1 Tm6 2.269392 1_565
O1 Tm3 2.428837 1_555
O2 Ti7 1.895032 1_565
O2 Ti2 1.908486 1_555
O2 Tm1 2.237648 1_555
O3 Ti6 1.911542 1_565
O3 Ti3 1.916454 1_555
O3 Tm0 2.243528 1_555
O4 Ti0 1.862928 1_555
O4 Tm1 2.271551 1_555
O4 Tm3 2.303998 1_455
O4 Tm6 2.385284 1_465
O5 Ti1 1.969353 1_455
O5 Ti6 2.256482 1_564
O5 Tm2 2.274015 1_555
O5 Tm0 2.393751 1_454
O5 Tm7 2.672720 1_565
O6 Ti1 1.821872 1_555
O6 Ti0 2.137701 1_655
O6 Tm2 2.389255 1_655
O6 Tm3 2.587548 1_555
O7 Ti2 1.777965 1_455
O7 Tm1 2.168528 1_555
O7 Tm4 2.281761 1_555
O8 Ti3 1.912540 1_655
O8 Ti2 2.087444 1_555
O8 Tm0 2.201030 1_555
O8 Tm5 2.373058 1_555
O9 Ti5 2.001541 1_555
O9 Ti0 2.009330 1_555
O9 Tm2 2.292938 1_555
O9 Tm3 2.318926 1_555
O10 Ti1 2.008433 1_555
O10 Ti4 2.012707 1_555
O10 Tm2 2.178071 1_555
O10 Tm0 2.203423 1_554
O11 Ti2 1.910035 1_555
O11 Tm3 2.320726 1_555
O11 Tm1 2.390719 1_555
O11 Tm4 2.405715 1_555
O12 Ti3 1.972738 1_555
O12 Tm5 2.255365 1_555
O12 Ti4 2.344476 1_556
O12 Tm7 2.365145 1_556
O12 Tm0 2.616139 1_555
O13 Ti3 1.821913 1_555
O13 Ti2 2.203205 1_555
O13 Tm5 2.370769 1_555
O13 Tm4 2.481248 1_555
O14 Ti4 1.821913 1_555
O14 Ti5 2.203205 1_655
O14 Tm2 2.370769 1_655
O14 Tm3 2.481248 1_555
O15 Ti4 1.972738 1_455
O15 Tm2 2.255365 1_555
O15 Ti3 2.344476 1_554
O15 Tm0 2.365145 1_454
O15 Tm7 2.616139 1_555
O16 Ti5 1.910035 1_555
O16 Tm4 2.320726 1_555
O16 Tm6 2.390719 1_455
O16 Tm3 2.405715 1_455
O17 Ti6 2.008433 1_555
O17 Ti3 2.012707 1_555
O17 Tm5 2.178071 1_455
O17 Tm7 2.203423 1_556
O18 Ti2 2.001541 1_555
O18 Ti7 2.009330 1_555
O18 Tm5 2.292938 1_555
O18 Tm4 2.318926 1_655
O19 Ti4 1.912540 1_555
O19 Ti5 2.087444 1_555
O19 Tm7 2.201030 1_555
O19 Tm2 2.373058 1_555
O20 Ti5 1.777965 1_555
O20 Tm6 2.168528 1_555
O20 Tm3 2.281761 1_555
O21 Ti6 1.821872 1_555
O21 Ti7 2.137701 1_555
O21 Tm5 2.389255 1_555
O21 Tm4 2.587548 1_555
O22 Ti6 1.969353 1_555
O22 Ti1 2.256482 1_546
O22 Tm5 2.274015 1_555
O22 Tm7 2.393751 1_556
O22 Tm0 2.672720 1_545
O23 Ti7 1.862928 1_555
O23 Tm6 2.271551 1_555
O23 Tm4 2.303998 1_555
O23 Tm1 2.385284 1_545
O24 Ti1 1.911542 1_545
O24 Ti4 1.916454 1_555
O24 Tm7 2.243528 1_655
O25 Ti0 1.895032 1_545
O25 Ti5 1.908486 1_555
O25 Tm6 2.237648 1_455
O26 Ti7 1.875210 1_455
O26 Tm6 2.253304 1_455
O26 Tm1 2.269392 1_545
O26 Tm4 2.428837 1_555
O27 Ti6 1.932442 1_655
O27 Ti7 2.009686 1_555
O27 Tm0 2.232238 1_545
O27 Tm5 2.434989 1_555
