# generated using pymatgen
data_Na2NiO3
_symmetry_space_group_name_H-M   'P 1'
_cell_length_a   5.20179770
_cell_length_b   5.20179770
_cell_length_c   10.75984826
_cell_angle_alpha   85.18877855
_cell_angle_beta   85.18877855
_cell_angle_gamma   119.99264471
_symmetry_Int_Tables_number   1
_chemical_formula_structural   Na2NiO3
_chemical_formula_sum   'Na8 Ni4 O12'
_cell_volume   248.58757351
_cell_formula_units_Z   4
loop_
 _symmetry_equiv_pos_site_id
 _symmetry_equiv_pos_as_xyz
  1  'x, y, z'
loop_
 _atom_site_type_symbol
 _atom_site_label
 _atom_site_symmetry_multiplicity
 _atom_site_fract_x
 _atom_site_fract_y
 _atom_site_fract_z
 _atom_site_occupancy
  Na  Na0  1  0.84225700  0.68433000  0.99935500  1
  Na  Na1  1  0.68433000  0.84225700  0.49935500  1
  Na  Na2  1  0.00000000  0.50000000  0.50000000  1
  Na  Na3  1  0.91556600  0.08443400  0.75000000  1
  Na  Na4  1  0.08443400  0.91556600  0.25000000  1
  Na  Na5  1  0.31567000  0.15774300  0.50064500  1
  Na  Na6  1  0.50000000  0.00000000  0.00000000  1
  Na  Na7  1  0.15774300  0.31567000  0.00064500  1
  Ni  Ni0  1  0.58259400  0.41740600  0.75000000  1
  Ni  Ni1  1  0.24964200  0.75035800  0.75000000  1
  Ni  Ni2  1  0.41740600  0.58259400  0.25000000  1
  Ni  Ni3  1  0.75035800  0.24964200  0.25000000  1
  O  O0  1  0.94934900  0.74070800  0.65165800  1
  O  O1  1  0.88228600  0.42855700  0.84821800  1
  O  O2  1  0.74070800  0.94934900  0.15165800  1
  O  O3  1  0.50356100  0.67170500  0.84804800  1
  O  O4  1  0.42855700  0.88228600  0.34821800  1
  O  O5  1  0.67170500  0.50356100  0.34804800  1
  O  O6  1  0.32829500  0.49643900  0.65195200  1
  O  O7  1  0.57144300  0.11771400  0.65178200  1
  O  O8  1  0.49643900  0.32829500  0.15195200  1
  O  O9  1  0.25929200  0.05065100  0.84834200  1
  O  O10  1  0.11771400  0.57144300  0.15178200  1
  O  O11  1  0.05065100  0.25929200  0.34834200  1
loop_
_geom_bond_atom_site_label_1
_geom_bond_atom_site_label_2
_geom_bond_distance
_geom_bond_site_symmetry_2
Na0 O8 2.241757 1_556
Na0 O1 2.245264 1_555
Na0 O9 2.394533 1_665
Na0 O2 2.413884 1_556
Na0 O3 2.478361 1_555
Na0 O10 2.482280 1_656
Na1 O6 2.241757 1_555
Na1 O4 2.245264 1_555
Na1 O11 2.394533 1_665
Na1 O0 2.413884 1_555
Na1 O5 2.478361 1_555
Na1 O7 2.482280 1_565
Na2 O11 2.213704 1_555
Na2 O0 2.213704 1_455
Na2 O7 2.450238 1_455
Na2 O4 2.450238 1_555
Na2 O5 2.466726 1_455
Na2 O6 2.466726 1_555
Na3 O7 2.224318 1_555
Na3 O1 2.224318 1_555
Na3 O0 2.224362 1_545
Na3 O9 2.224362 1_655
Na3 O3 2.226217 1_545
Na3 O6 2.226217 1_655
Na4 O10 2.224318 1_555
Na4 O4 2.224318 1_555
Na4 O2 2.224362 1_455
Na4 O11 2.224362 1_565
Na4 O5 2.226217 1_455
Na4 O8 2.226217 1_565
Na5 O5 2.241757 1_555
Na5 O7 2.245264 1_555
Na5 O0 2.394533 1_445
Na5 O11 2.413884 1_555
Na5 O6 2.478361 1_555
Na5 O4 2.482280 1_545
Na6 O9 2.213704 1_554
Na6 O2 2.213704 1_545
Na6 O10 2.450238 1_545
Na6 O1 2.450238 1_554
Na6 O3 2.466726 1_544
Na6 O8 2.466726 1_555
Na7 O3 2.241757 1_554
Na7 O10 2.245264 1_555
Na7 O2 2.394533 1_445
Na7 O9 2.413884 1_554
Na7 O8 2.478361 1_555
Na7 O1 2.482280 1_454
Ni0 O3 1.933101 1_555
Ni0 O6 1.933101 1_555
Ni0 O9 1.934620 1_555
Ni0 O0 1.934620 1_555
Ni0 O1 1.935649 1_555
Ni0 O7 1.935649 1_555
Ni1 O6 1.930443 1_555
Ni1 O3 1.930443 1_555
Ni1 O1 1.933123 1_455
Ni1 O7 1.933123 1_565
Ni1 O9 1.941653 1_565
Ni1 O0 1.941653 1_455
Ni2 O8 1.933101 1_555
Ni2 O5 1.933101 1_555
Ni2 O11 1.934620 1_555
Ni2 O2 1.934620 1_555
Ni2 O10 1.935649 1_555
Ni2 O4 1.935649 1_555
Ni3 O8 1.930443 1_555
Ni3 O5 1.930443 1_555
Ni3 O4 1.933123 1_545
Ni3 O10 1.933123 1_655
Ni3 O11 1.941653 1_655
Ni3 O2 1.941653 1_545
