# generated using pymatgen
data_Li2Ni3OF6
_symmetry_space_group_name_H-M   'P 1'
_cell_length_a   6.05904200
_cell_length_b   6.50667277
_cell_length_c   7.88299168
_cell_angle_alpha   66.51597733
_cell_angle_beta   68.89280787
_cell_angle_gamma   78.79192417
_symmetry_Int_Tables_number   1
_chemical_formula_structural   Li2Ni3OF6
_chemical_formula_sum   'Li4 Ni6 O2 F12'
_cell_volume   265.44497719
_cell_formula_units_Z   2
loop_
 _symmetry_equiv_pos_site_id
 _symmetry_equiv_pos_as_xyz
  1  'x, y, z'
loop_
 _atom_site_type_symbol
 _atom_site_label
 _atom_site_symmetry_multiplicity
 _atom_site_fract_x
 _atom_site_fract_y
 _atom_site_fract_z
 _atom_site_occupancy
  Li  Li0  1  0.31942000  0.84503300  0.47146100  1
  Li  Li1  1  0.11996600  0.31013900  0.06259600  1
  Li  Li2  1  0.88003400  0.68986100  0.93740400  1
  Li  Li3  1  0.68058000  0.15496700  0.52853900  1
  Ni  Ni0  1  0.78234000  0.57160000  0.65571800  1
  Ni  Ni1  1  0.92558100  0.83785900  0.22053000  1
  Ni  Ni2  1  0.35378400  0.72629800  0.93060700  1
  Ni  Ni3  1  0.64621600  0.27370200  0.06939300  1
  Ni  Ni4  1  0.07441900  0.16214100  0.77947000  1
  Ni  Ni5  1  0.21766000  0.42840000  0.34428200  1
  O  O0  1  0.92901500  0.41699400  0.86474700  1
  O  O1  1  0.07098500  0.58300600  0.13525300  1
  F  F0  1  0.09095400  0.70695800  0.43415100  1
  F  F1  1  0.46851400  0.43637100  0.86565200  1
  F  F2  1  0.63334400  0.71187700  0.44292300  1
  F  F3  1  0.77784600  0.98628300  0.00123900  1
  F  F4  1  0.17725700  0.86786400  0.72818300  1
  F  F5  1  0.33572100  0.15019100  0.27008400  1
  F  F6  1  0.66427900  0.84980900  0.72991600  1
  F  F7  1  0.82274300  0.13213600  0.27181700  1
  F  F8  1  0.22215400  0.01371700  0.99876100  1
  F  F9  1  0.36665600  0.28812300  0.55707700  1
  F  F10  1  0.53148600  0.56362900  0.13434800  1
  F  F11  1  0.90904600  0.29304200  0.56584900  1
loop_
_geom_bond_atom_site_label_1
_geom_bond_atom_site_label_2
_geom_bond_distance
_geom_bond_site_symmetry_2
Li1 O1 2.012850 1_555
Li1 O0 2.092170 1_454
Li2 O0 2.012850 1_555
Li2 O1 2.092170 1_656
Ni0 O0 1.975601 1_555
Ni1 O1 1.967690 1_655
Ni2 O1 1.959400 1_556
Ni3 O0 1.959400 1_554
Ni4 O0 1.967690 1_455
Ni5 O1 1.975601 1_555
F0 Li0 1.948634 1_555
F0 Ni1 2.074996 1_455
F0 Ni0 2.094000 1_455
F0 Ni5 2.113548 1_555
F1 Ni3 2.075264 1_556
F1 Ni2 2.075534 1_555
F1 Ni0 2.086159 1_555
F1 Li1 2.200342 1_556
F2 Li0 1.904122 1_555
F2 Ni0 2.003017 1_555
F2 Ni1 2.015902 1_555
F3 Ni1 2.042083 1_555
F3 Ni3 2.081945 1_565
F3 Li2 2.107470 1_554
F3 Ni4 2.130034 1_664
F4 Li0 1.947795 1_555
F4 Ni4 2.046889 1_565
F4 Ni2 2.052695 1_555
F4 Li2 2.110452 1_455
F5 Li0 1.980769 1_545
F5 Ni3 2.029494 1_555
F5 Ni5 2.042011 1_555
F5 Li1 2.263134 1_555
F6 Li3 1.980769 1_565
F6 Ni2 2.029494 1_555
F6 Ni0 2.042011 1_555
F6 Li2 2.263134 1_555
F7 Li3 1.947795 1_555
F7 Ni1 2.046889 1_545
F7 Ni3 2.052695 1_555
F7 Li1 2.110452 1_655
F8 Ni4 2.042083 1_555
F8 Ni2 2.081945 1_545
F8 Li1 2.107470 1_556
F8 Ni1 2.130034 1_446
F9 Li3 1.904122 1_555
F9 Ni5 2.003017 1_555
F9 Ni4 2.015902 1_555
F10 Ni2 2.075264 1_554
F10 Ni3 2.075534 1_555
F10 Ni5 2.086159 1_555
F10 Li2 2.200342 1_554
F11 Li3 1.948634 1_555
F11 Ni4 2.074996 1_655
F11 Ni5 2.094000 1_655
F11 Ni0 2.113548 1_555
