# generated using pymatgen
data_Li4Mn3F10
_symmetry_space_group_name_H-M   'P 1'
_cell_length_a   5.19631000
_cell_length_b   5.50635883
_cell_length_c   7.74129702
_cell_angle_alpha   71.24742576
_cell_angle_beta   74.31467173
_cell_angle_gamma   78.06474881
_symmetry_Int_Tables_number   1
_chemical_formula_structural   Li4Mn3F10
_chemical_formula_sum   'Li4 Mn3 F10'
_cell_volume   200.17722367
_cell_formula_units_Z   1
loop_
 _symmetry_equiv_pos_site_id
 _symmetry_equiv_pos_as_xyz
  1  'x, y, z'
loop_
 _atom_site_type_symbol
 _atom_site_label
 _atom_site_symmetry_multiplicity
 _atom_site_fract_x
 _atom_site_fract_y
 _atom_site_fract_z
 _atom_site_occupancy
  Li  Li0  1  0.99131800  0.70403700  0.34776800  1
  Li  Li1  1  0.50770100  0.63808600  0.20391200  1
  Li  Li2  1  0.49229900  0.36191400  0.79608800  1
  Li  Li3  1  0.00868200  0.29596300  0.65223200  1
  Mn  Mn0  1  0.17794700  0.24144000  0.14427000  1
  Mn  Mn1  1  0.50000000  0.00000000  0.50000000  1
  Mn  Mn2  1  0.82205300  0.75856000  0.85573000  1
  F  F0  1  0.89407700  0.59653500  0.15582600  1
  F  F1  1  0.50000000  0.50000000  0.00000000  1
  F  F2  1  0.50000000  0.00000000  0.00000000  1
  F  F3  1  0.82877900  0.05587100  0.26785500  1
  F  F4  1  0.30098200  0.85002900  0.35938700  1
  F  F5  1  0.24689900  0.36187400  0.38971100  1
  F  F6  1  0.75310100  0.63812600  0.61028900  1
  F  F7  1  0.69901800  0.14997100  0.64061300  1
  F  F8  1  0.17122100  0.94412900  0.73214500  1
  F  F9  1  0.10592300  0.40346500  0.84417400  1
loop_
_geom_bond_atom_site_label_1
_geom_bond_atom_site_label_2
_geom_bond_distance
_geom_bond_site_symmetry_2
F0 Li1 1.918996 1_555
F0 Li0 1.977060 1_555
F0 Mn0 2.203441 1_655
F0 Mn2 2.309192 1_554
F1 Li1 1.972306 1_555
F1 Li2 1.972306 1_554
F1 Mn2 2.242185 1_554
F1 Mn0 2.242185 1_555
F2 Li2 2.107919 1_554
F2 Li1 2.107919 1_545
F2 Mn2 2.199817 1_544
F2 Mn0 2.199817 1_555
F3 Li0 1.919488 1_545
F3 Mn1 2.108269 1_555
F3 Mn0 2.109757 1_655
F4 Li1 1.910492 1_555
F4 Li0 1.975684 1_455
F4 Mn1 2.115698 1_565
F4 Mn0 2.350553 1_565
F5 Li3 2.036029 1_555
F5 Li0 2.055198 1_455
F5 Li1 2.147230 1_555
F5 Mn1 2.204207 1_555
F5 Mn0 2.335548 1_555
F6 Li0 2.036029 1_555
F6 Li3 2.055198 1_655
F6 Li2 2.147230 1_555
F6 Mn1 2.204207 1_565
F6 Mn2 2.335548 1_555
F7 Li2 1.910492 1_555
F7 Li3 1.975684 1_655
F7 Mn1 2.115698 1_555
F7 Mn2 2.350553 1_545
F8 Li3 1.919488 1_565
F8 Mn1 2.108269 1_565
F8 Mn2 2.109757 1_455
F9 Li2 1.918996 1_555
F9 Li3 1.977060 1_555
F9 Mn2 2.203441 1_455
F9 Mn0 2.309192 1_556
