# generated using pymatgen
data_Li3Co2(SiO4)2
_symmetry_space_group_name_H-M   'P 1'
_cell_length_a   5.10845600
_cell_length_b   6.40827900
_cell_length_c   10.73188786
_cell_angle_alpha   89.95819692
_cell_angle_beta   90.00000000
_cell_angle_gamma   90.00000000
_symmetry_Int_Tables_number   1
_chemical_formula_structural   Li3Co2(SiO4)2
_chemical_formula_sum   'Li6 Co4 Si4 O16'
_cell_volume   351.32340146
_cell_formula_units_Z   2
loop_
 _symmetry_equiv_pos_site_id
 _symmetry_equiv_pos_as_xyz
  1  'x, y, z'
loop_
 _atom_site_type_symbol
 _atom_site_label
 _atom_site_symmetry_multiplicity
 _atom_site_fract_x
 _atom_site_fract_y
 _atom_site_fract_z
 _atom_site_occupancy
  Li  Li0  1  0.94914300  0.12712300  0.09417700  1
  Li  Li1  1  0.94745200  0.38568400  0.32751000  1
  Li  Li2  1  0.44396900  0.63261800  0.40791100  1
  Li  Li3  1  0.05085700  0.12712300  0.59417700  1
  Li  Li4  1  0.05254800  0.38568400  0.82751000  1
  Li  Li5  1  0.55603100  0.63261800  0.90791100  1
  Co  Co0  1  0.93904800  0.64091900  0.09099500  1
  Co  Co1  1  0.43809000  0.13225200  0.41225900  1
  Co  Co2  1  0.06095200  0.64091900  0.59099500  1
  Co  Co3  1  0.56191000  0.13225200  0.91225900  1
  Si  Si0  1  0.43567800  0.38153000  0.15692100  1
  Si  Si1  1  0.93809900  0.88302400  0.33899300  1
  Si  Si2  1  0.56432200  0.38153000  0.65692100  1
  Si  Si3  1  0.06190100  0.88302400  0.83899300  1
  O  O0  1  0.55819100  0.58426800  0.08869500  1
  O  O1  1  0.54549000  0.17189100  0.08203000  1
  O  O2  1  0.11428600  0.38396100  0.15726000  1
  O  O3  1  0.00358200  0.88555300  0.19170700  1
  O  O4  1  0.53834800  0.36098400  0.30603800  1
  O  O5  1  0.61853100  0.89669600  0.36501600  1
  O  O6  1  0.04289600  0.66660500  0.40457800  1
  O  O7  1  0.06433800  0.10083100  0.40323100  1
  O  O8  1  0.44180900  0.58426800  0.58869500  1
  O  O9  1  0.45451000  0.17189100  0.58203000  1
  O  O10  1  0.88571400  0.38396100  0.65726000  1
  O  O11  1  0.99641800  0.88555300  0.69170700  1
  O  O12  1  0.46165200  0.36098400  0.80603800  1
  O  O13  1  0.38146900  0.89669600  0.86501600  1
  O  O14  1  0.95710400  0.66660500  0.90457800  1
  O  O15  1  0.93566200  0.10083100  0.90323100  1
loop_
_geom_bond_atom_site_label_1
_geom_bond_atom_site_label_2
_geom_bond_distance
_geom_bond_site_symmetry_2
Li0 O3 1.888642 1_645
Li0 O2 1.969927 1_655
Li0 O15 2.057401 1_554
Li0 O1 2.085969 1_555
Li1 O2 2.016138 1_655
Li1 O6 2.040775 1_655
Li1 O7 2.084919 1_655
Li1 O4 2.108518 1_555
Li2 O8 1.964546 1_555
Li2 O5 1.967184 1_555
Li2 O6 2.060715 1_555
Li2 O4 2.112006 1_555
Li3 O11 1.888642 1_445
Li3 O10 1.969927 1_455
Li3 O7 2.057401 1_555
Li3 O9 2.085969 1_555
Li4 O10 2.016138 1_455
Li4 O14 2.040775 1_455
Li4 O15 2.084919 1_455
Li4 O12 2.108518 1_555
Li5 O0 1.964546 1_556
Li5 O13 1.967184 1_555
Li5 O14 2.060715 1_555
Li5 O12 2.112006 1_555
Co0 O3 1.933126 1_655
Co0 O0 1.979329 1_555
Co0 O2 2.004216 1_655
Co0 O14 2.009365 1_554
Co1 O5 1.840233 1_545
Co1 O9 1.841680 1_555
Co1 O7 1.922334 1_555
Co1 O4 1.925583 1_555
Co2 O11 1.933126 1_455
Co2 O8 1.979329 1_555
Co2 O10 2.004216 1_455
Co2 O6 2.009365 1_555
Co3 O13 1.840233 1_545
Co3 O1 1.841680 1_556
Co3 O15 1.922334 1_555
Co3 O12 1.925583 1_555
O0 Si0 1.616891 1_555
O1 Si0 1.663437 1_555
O2 Si0 1.641895 1_555
O3 Si1 1.615736 1_455
O4 Si0 1.689111 1_555
O5 Si1 1.658542 1_555
O6 Si1 1.644384 1_455
O7 Si1 1.685442 1_445
O8 Si2 1.616891 1_555
O9 Si2 1.663437 1_555
O10 Si2 1.641895 1_555
O11 Si3 1.615736 1_655
O12 Si2 1.689111 1_555
O13 Si3 1.658542 1_555
O14 Si3 1.644384 1_655
O15 Si3 1.685442 1_645
