# generated using pymatgen
data_Li2CrSiO4
_symmetry_space_group_name_H-M   'P 1'
_cell_length_a   5.10200401
_cell_length_b   5.10216152
_cell_length_c   11.71180200
_cell_angle_alpha   90.00262298
_cell_angle_beta   89.99769598
_cell_angle_gamma   120.00315530
_symmetry_Int_Tables_number   1
_chemical_formula_structural   Li2CrSiO4
_chemical_formula_sum   'Li6 Cr3 Si3 O12'
_cell_volume   264.01921891
_cell_formula_units_Z   3
loop_
 _symmetry_equiv_pos_site_id
 _symmetry_equiv_pos_as_xyz
  1  'x, y, z'
loop_
 _atom_site_type_symbol
 _atom_site_label
 _atom_site_symmetry_multiplicity
 _atom_site_fract_x
 _atom_site_fract_y
 _atom_site_fract_z
 _atom_site_occupancy
  Li  Li0  1  0.33298700  0.89607200  0.58554500  1
  Li  Li1  1  0.10384900  0.43686400  0.91894800  1
  Li  Li2  1  0.56306100  0.66688500  0.25227300  1
  Li  Li3  1  0.43691500  0.10376500  0.08101500  1
  Li  Li4  1  0.66702200  0.56310000  0.74778100  1
  Li  Li5  1  0.89613100  0.33299600  0.41444600  1
  Cr  Cr0  1  0.99984800  0.45147600  0.16669200  1
  Cr  Cr1  1  0.54847200  0.54828800  0.50005400  1
  Cr  Cr2  1  0.45140200  0.99973800  0.83322000  1
  Si  Si0  1  0.00002900  0.19965200  0.66665600  1
  Si  Si1  1  0.19958700  0.00004700  0.33338700  1
  Si  Si2  1  0.80046000  0.80048800  0.99995600  1
  O  O0  1  0.13075800  0.84309400  0.96047200  1
  O  O1  1  0.12037200  0.44279100  0.55959300  1
  O  O2  1  0.32238200  0.87970200  0.22630300  1
  O  O3  1  0.15687000  0.28777300  0.29392000  1
  O  O4  1  0.28783400  0.15701500  0.70601100  1
  O  O5  1  0.71221900  0.86922100  0.62728200  1
  O  O6  1  0.55734200  0.67776700  0.89295400  1
  O  O7  1  0.67767700  0.55730600  0.10702400  1
  O  O8  1  0.44269500  0.12039400  0.44040300  1
  O  O9  1  0.86923300  0.71227000  0.37280800  1
  O  O10  1  0.84317000  0.13084500  0.03950500  1
  O  O11  1  0.87969000  0.32245000  0.77371900  1
loop_
_geom_bond_atom_site_label_1
_geom_bond_atom_site_label_2
_geom_bond_distance
_geom_bond_site_symmetry_2
Li0 O8 1.967798 1_565
Li0 O1 2.026996 1_555
Li0 O4 2.030451 1_565
Li0 O5 2.065552 1_555
Li1 O11 1.968286 1_455
Li1 O6 2.027954 1_555
Li1 O10 2.030651 1_456
Li1 O0 2.065568 1_555
Li2 O7 1.968547 1_555
Li2 O2 2.028029 1_555
Li2 O9 2.031006 1_555
Li2 O3 2.065237 1_555
Li3 O2 1.968699 1_545
Li3 O7 2.028215 1_555
Li3 O0 2.030816 1_544
Li3 O10 2.065212 1_555
Li4 O6 1.968116 1_555
Li4 O11 2.027212 1_555
Li4 O5 2.030831 1_555
Li4 O4 2.065460 1_555
Li5 O1 1.967640 1_655
Li5 O8 2.027637 1_555
Li5 O3 2.030334 1_655
Li5 O9 2.065672 1_555
Cr0 O10 2.055754 1_555
Cr0 O3 2.056488 1_655
Cr0 O7 2.090328 1_555
Cr0 O2 2.091232 1_655
Cr1 O9 2.056628 1_555
Cr1 O5 2.057005 1_555
Cr1 O8 2.089780 1_555
Cr1 O1 2.090622 1_555
Cr2 O0 2.056326 1_555
Cr2 O4 2.056683 1_565
Cr2 O6 2.090056 1_555
Cr2 O11 2.091225 1_565
O0 Si2 1.653637 1_455
O1 Si0 1.651214 1_555
O2 Si1 1.651361 1_565
O3 Si1 1.654175 1_555
O4 Si0 1.653917 1_555
O5 Si0 1.653878 1_665
O6 Si2 1.650580 1_555
O7 Si2 1.651381 1_554
O8 Si1 1.650677 1_555
O9 Si1 1.653734 1_665
O10 Si2 1.653986 1_544
O11 Si0 1.651166 1_655
