# generated using pymatgen
data_Ca3YMn3B4O15
_symmetry_space_group_name_H-M   'P 1'
_cell_length_a   6.03610600
_cell_length_b   10.64387300
_cell_length_c   10.65023362
_cell_angle_alpha   60.32643339
_cell_angle_beta   90.00000000
_cell_angle_gamma   90.00000000
_symmetry_Int_Tables_number   1
_chemical_formula_structural   Ca3YMn3B4O15
_chemical_formula_sum   'Ca6 Y2 Mn6 B8 O30'
_cell_volume   594.51864728
_cell_formula_units_Z   2
loop_
 _symmetry_equiv_pos_site_id
 _symmetry_equiv_pos_as_xyz
  1  'x, y, z'
loop_
 _atom_site_type_symbol
 _atom_site_label
 _atom_site_symmetry_multiplicity
 _atom_site_fract_x
 _atom_site_fract_y
 _atom_site_fract_z
 _atom_site_occupancy
  Ca  Ca0  1  0.50000000  0.84879200  0.26360700  1
  Ca  Ca1  1  0.00000000  0.68692500  0.13759000  1
  Ca  Ca2  1  0.50000000  0.26286000  0.89018100  1
  Ca  Ca3  1  0.00000000  0.17827700  0.68649400  1
  Ca  Ca4  1  0.00000000  0.33331800  0.33203900  1
  Ca  Ca5  1  0.00000000  0.13491800  0.17522100  1
  Y  Y0  1  0.50000000  0.89436700  0.84832500  1
  Y  Y1  1  0.50000000  0.66488300  0.66698600  1
  Mn  Mn0  1  0.25086900  0.00021600  0.49789100  1
  Mn  Mn1  1  0.25235300  0.49856900  0.50125500  1
  Mn  Mn2  1  0.74764700  0.49856900  0.50125500  1
  Mn  Mn3  1  0.25201700  0.50286000  0.99970500  1
  Mn  Mn4  1  0.74798300  0.50286000  0.99970500  1
  Mn  Mn5  1  0.74913100  0.00021600  0.49789100  1
  B  B0  1  0.00000000  0.78550800  0.76984800  1
  B  B1  1  0.25759900  0.99780500  0.99774900  1
  B  B2  1  0.74240100  0.99780500  0.99774900  1
  B  B3  1  0.00000000  0.76574200  0.45315500  1
  B  B4  1  0.00000000  0.45259400  0.78204000  1
  B  B5  1  0.50000000  0.54768200  0.22073300  1
  B  B6  1  0.50000000  0.23128200  0.55051800  1
  B  B7  1  0.50000000  0.22072600  0.23158800  1
  O  O0  1  0.20552800  0.83292700  0.69922100  1
  O  O1  1  0.79447200  0.83292700  0.69922100  1
  O  O2  1  0.50000000  0.89868200  0.47628900  1
  O  O3  1  0.00000000  0.68920600  0.91512500  1
  O  O4  1  0.00000000  0.91262800  0.39997700  1
  O  O5  1  0.50000000  0.63288500  0.89987700  1
  O  O6  1  0.20443500  0.69423900  0.47975400  1
  O  O7  1  0.79556500  0.69423900  0.47975400  1
  O  O8  1  0.20491400  0.48090800  0.82614100  1
  O  O9  1  0.79508600  0.48090800  0.82614100  1
  O  O10  1  0.27576800  0.84950400  0.05519500  1
  O  O11  1  0.72423200  0.84950400  0.05519500  1
  O  O12  1  0.50000000  0.47359600  0.62616300  1
  O  O13  1  0.50000000  0.59647800  0.31966900  1
  O  O14  1  0.00000000  0.39641600  0.69081400  1
  O  O15  1  0.00000000  0.52296700  0.38406700  1
  O  O16  1  0.70139800  0.52239700  0.17321600  1
  O  O17  1  0.29860200  0.52239700  0.17321600  1
  O  O18  1  0.70084700  0.30347800  0.52298000  1
  O  O19  1  0.29915300  0.30347800  0.52298000  1
  O  O20  1  0.27426600  0.07919100  0.84874900  1
  O  O21  1  0.72573400  0.07919100  0.84874900  1
  O  O22  1  0.00000000  0.38425600  0.09115700  1
  O  O23  1  0.50000000  0.08139500  0.60460900  1
  O  O24  1  0.50000000  0.32010400  0.08458700  1
  O  O25  1  0.00000000  0.09442700  0.52162100  1
  O  O26  1  0.70085900  0.17239200  0.30444000  1
  O  O27  1  0.29914100  0.17239200  0.30444000  1
  O  O28  1  0.26695500  0.06005900  0.08256300  1
  O  O29  1  0.73304500  0.06005900  0.08256300  1
loop_
_geom_bond_atom_site_label_1
_geom_bond_atom_site_label_2
_geom_bond_distance
_geom_bond_site_symmetry_2
Ca0 O13 2.445666 1_555
Ca0 O29 2.541695 1_565
Ca0 O28 2.541695 1_565
Ca0 O2 2.569759 1_555
Ca0 O10 2.596559 1_555
Ca0 O11 2.596559 1_555
Ca0 O7 2.727423 1_555
Ca0 O6 2.727423 1_555
Ca1 O10 2.243175 1_555
Ca1 O11 2.243175 1_455
Ca1 O15 2.323912 1_555
Ca1 O3 2.357379 1_554
Ca1 O17 2.408620 1_555
Ca1 O16 2.408620 1_455
Ca2 O24 2.430463 1_556
Ca2 O29 2.541115 1_556
Ca2 O28 2.541115 1_556
Ca2 O12 2.587084 1_555
Ca2 O21 2.593686 1_555
Ca2 O20 2.593686 1_555
Ca2 O8 2.730737 1_555
Ca2 O9 2.730737 1_555
Ca3 O20 2.243804 1_555
Ca3 O21 2.243804 1_455
Ca3 O25 2.330560 1_555
Ca3 O14 2.344962 1_555
Ca3 O19 2.402379 1_555
Ca3 O18 2.402379 1_455
Ca4 O25 2.336436 1_555
Ca4 O15 2.342916 1_555
Ca4 O22 2.344847 1_555
Ca4 O27 2.603690 1_555
Ca4 O26 2.603690 1_455
Ca4 O16 2.605673 1_455
Ca4 O17 2.605673 1_555
Ca4 O18 2.618662 1_455
Ca4 O19 2.618662 1_555
Ca5 O28 2.232429 1_555
Ca5 O29 2.232429 1_455
Ca5 O22 2.343564 1_555
Ca5 O4 2.391718 1_545
Ca5 O27 2.420107 1_555
Ca5 O26 2.420107 1_455
Mn0 O25 1.900885 1_555
Mn0 O2 1.930910 1_545
Mn0 O27 1.987410 1_555
Mn0 O0 2.015649 1_545
Mn0 O4 2.283019 1_545
Mn0 O23 2.296107 1_555
Mn1 O15 1.903801 1_555
Mn1 O12 1.929958 1_555
Mn1 O19 1.992380 1_555
Mn1 O6 2.000369 1_555
Mn1 O13 2.250587 1_555
Mn1 O14 2.324822 1_555
Mn2 O15 1.903801 1_655
Mn2 O12 1.929958 1_555
Mn2 O18 1.992380 1_555
Mn2 O7 2.000369 1_555
Mn2 O13 2.250587 1_555
Mn2 O14 2.324822 1_655
Mn3 O22 1.907605 1_556
Mn3 O5 1.956893 1_555
Mn3 O17 1.979304 1_556
Mn3 O8 1.994997 1_555
Mn3 O24 2.258450 1_556
Mn3 O3 2.300112 1_555
Mn4 O22 1.907605 1_656
Mn4 O5 1.956893 1_555
Mn4 O16 1.979304 1_556
Mn4 O9 1.994997 1_555
Mn4 O24 2.258450 1_556
Mn4 O3 2.300112 1_655
Mn5 O25 1.900885 1_655
Mn5 O2 1.930910 1_545
Mn5 O26 1.987410 1_555
Mn5 O1 2.015649 1_545
Mn5 O4 2.283019 1_645
Mn5 O23 2.296107 1_555
B0 O3 1.369063 1_555
B0 O0 1.408440 1_555
B0 O1 1.408440 1_455
B1 O28 1.360447 1_566
B1 O20 1.384797 1_565
B1 O10 1.386289 1_556
B2 O29 1.360447 1_566
B2 O21 1.384797 1_565
B2 O11 1.386289 1_556
B3 O4 1.374184 1_555
B3 O6 1.403119 1_555
B3 O7 1.403119 1_455
B4 O14 1.369936 1_555
B4 O8 1.407643 1_555
B4 O9 1.407643 1_455
B5 O13 1.386317 1_555
B5 O16 1.393275 1_555
B5 O17 1.393275 1_555
B6 O19 1.386770 1_555
B6 O18 1.386770 1_555
B6 O23 1.402540 1_555
B7 O24 1.389350 1_555
B7 O27 1.393336 1_555
B7 O26 1.393336 1_555
O0 Y1 2.661665 1_555
O0 Y0 2.671513 1_555
O1 Y1 2.661665 1_555
O1 Y0 2.671513 1_555
O2 Y1 2.305089 1_555
O5 Y1 2.330598 1_555
O5 Y0 2.556280 1_555
O6 Y1 2.576799 1_555
O7 Y1 2.576799 1_555
O8 Y1 2.567853 1_555
O9 Y1 2.567853 1_555
O10 Y0 2.423310 1_554
O11 Y0 2.423310 1_554
O12 Y1 2.282747 1_555
O20 Y0 2.394873 1_545
O21 Y0 2.394873 1_545
O23 Y0 2.363080 1_545
