# generated using pymatgen
data_Li3Fe2P2(CO7)2
_symmetry_space_group_name_H-M   'P 1'
_cell_length_a   8.37447996
_cell_length_b   5.12290112
_cell_length_c   6.48248005
_cell_angle_alpha   89.95275714
_cell_angle_beta   90.61385440
_cell_angle_gamma   85.28963834
_symmetry_Int_Tables_number   1
_chemical_formula_structural   Li3Fe2P2(CO7)2
_chemical_formula_sum   'Li3 Fe2 P2 C2 O14'
_cell_volume   277.15336700
_cell_formula_units_Z   1
loop_
 _symmetry_equiv_pos_site_id
 _symmetry_equiv_pos_as_xyz
  1  'x, y, z'
loop_
 _atom_site_type_symbol
 _atom_site_label
 _atom_site_symmetry_multiplicity
 _atom_site_fract_x
 _atom_site_fract_y
 _atom_site_fract_z
 _atom_site_occupancy
  Li  Li0  1  0.10852600  0.77243100  0.25659500  1
  Li  Li1  1  0.71822900  0.75336700  0.96140200  1
  Li  Li2  1  0.90348800  0.24149500  0.74036700  1
  Fe  Fe0  1  0.32962300  0.80281300  0.75004500  1
  Fe  Fe1  1  0.66661800  0.19870600  0.25973100  1
  P  P0  1  0.42229000  0.72163600  0.24624600  1
  P  P1  1  0.57963400  0.27268500  0.75444700  1
  C  C0  1  0.03802800  0.70869300  0.75821700  1
  C  C1  1  0.95634000  0.29675200  0.24289500  1
  O  O0  1  0.07218500  0.95293300  0.75093400  1
  O  O1  1  0.09354400  0.37966300  0.24649000  1
  O  O2  1  0.16050100  0.53712100  0.74258700  1
  O  O3  1  0.30667200  0.79353000  0.06298700  1
  O  O4  1  0.32015500  0.79324600  0.43807600  1
  O  O5  1  0.42535400  0.13262300  0.74660800  1
  O  O6  1  0.47509800  0.42432900  0.24483700  1
  O  O7  1  0.53759400  0.57375300  0.77899800  1
  O  O8  1  0.57957000  0.86193500  0.23156800  1
  O  O9  1  0.68934000  0.21445200  0.56440100  1
  O  O10  1  0.69436600  0.17111000  0.93539300  1
  O  O11  1  0.82922700  0.46631600  0.23229100  1
  O  O12  1  0.89792800  0.63341900  0.78013500  1
  O  O13  1  0.92457300  0.05176100  0.25276000  1
loop_
_geom_bond_atom_site_label_1
_geom_bond_atom_site_label_2
_geom_bond_distance
_geom_bond_site_symmetry_2
Li0 O13 2.014588 1_465
Li0 O1 2.027345 1_555
Li0 O3 2.101006 1_555
Li0 O4 2.126724 1_555
Li1 O12 1.977433 1_555
Li1 O10 2.139310 1_565
Li1 O8 2.159639 1_556
Li1 O7 2.173756 1_555
Li1 O11 2.417943 1_556
Li2 O0 1.959747 1_645
Li2 O12 2.021286 1_555
Li2 O9 2.129276 1_555
Li2 O10 2.223906 1_555
Fe0 O5 1.928910 1_565
Fe0 O4 2.023829 1_555
Fe0 O7 2.025470 1_555
Fe0 O3 2.040657 1_556
Fe0 O2 2.043563 1_555
Fe0 O0 2.228763 1_555
Fe1 O6 1.899937 1_555
Fe1 O8 1.935313 1_545
Fe1 O9 1.984475 1_555
Fe1 O11 2.019140 1_555
Fe1 O10 2.121348 1_554
Fe1 O13 2.229445 1_555
C0 O12 1.274060 1_455
C0 O2 1.299647 1_555
C0 O0 1.307123 1_555
C1 O1 1.257289 1_655
C1 O13 1.305802 1_555
C1 O11 1.318685 1_555
O3 P0 1.549349 1_555
O4 P0 1.544199 1_555
O5 P1 1.528933 1_555
O6 P0 1.550774 1_555
O7 P1 1.562216 1_555
O8 P0 1.555167 1_555
O9 P1 1.559056 1_555
O10 P1 1.569255 1_555
