# generated using pymatgen
data_Li3MnFe3O8
_symmetry_space_group_name_H-M   'P 1'
_cell_length_a   5.88183925
_cell_length_b   5.88183925
_cell_length_c   9.57266200
_cell_angle_alpha   90.00000000
_cell_angle_beta   90.00000000
_cell_angle_gamma   119.99999161
_symmetry_Int_Tables_number   1
_chemical_formula_structural   Li3MnFe3O8
_chemical_formula_sum   'Li6 Mn2 Fe6 O16'
_cell_volume   286.80696645
_cell_formula_units_Z   2
loop_
 _symmetry_equiv_pos_site_id
 _symmetry_equiv_pos_as_xyz
  1  'x, y, z'
loop_
 _atom_site_type_symbol
 _atom_site_label
 _atom_site_symmetry_multiplicity
 _atom_site_fract_x
 _atom_site_fract_y
 _atom_site_fract_z
 _atom_site_occupancy
  Li  Li0  1  0.17318200  0.82681800  0.05702100  1
  Li  Li1  1  0.65363500  0.82681800  0.05702100  1
  Li  Li2  1  0.17318200  0.34636500  0.05702100  1
  Li  Li3  1  0.82681800  0.65363500  0.55702100  1
  Li  Li4  1  0.34636500  0.17318200  0.55702100  1
  Li  Li5  1  0.82681800  0.17318200  0.55702100  1
  Mn  Mn0  1  0.33333300  0.66666700  0.51391800  1
  Mn  Mn1  1  0.66666700  0.33333300  0.01391800  1
  Fe  Fe0  1  0.16815900  0.83184100  0.78874300  1
  Fe  Fe1  1  0.66368300  0.83184100  0.78874300  1
  Fe  Fe2  1  0.16815900  0.33631700  0.78874300  1
  Fe  Fe3  1  0.83184100  0.66368300  0.28874300  1
  Fe  Fe4  1  0.33631700  0.16815900  0.28874300  1
  Fe  Fe5  1  0.83184100  0.16815900  0.28874300  1
  O  O0  1  0.16866400  0.83133600  0.40685600  1
  O  O1  1  0.47912000  0.95823900  0.64889000  1
  O  O2  1  0.04176100  0.52088000  0.64889000  1
  O  O3  1  0.33333300  0.66666700  0.90447300  1
  O  O4  1  0.66267300  0.83133600  0.40685600  1
  O  O5  1  0.47912000  0.52088000  0.64889000  1
  O  O6  1  0.16866400  0.33732700  0.40685600  1
  O  O7  1  0.83133600  0.66267300  0.90685600  1
  O  O8  1  0.52088000  0.47912000  0.14889000  1
  O  O9  1  0.95823900  0.47912000  0.14889000  1
  O  O10  1  0.66666700  0.33333300  0.40447300  1
  O  O11  1  0.00000000  0.00000000  0.17804700  1
  O  O12  1  0.33732700  0.16866400  0.90685600  1
  O  O13  1  0.00000000  0.00000000  0.67804700  1
  O  O14  1  0.52088000  0.04176100  0.14889000  1
  O  O15  1  0.83133600  0.16866400  0.90685600  1
loop_
_geom_bond_atom_site_label_1
_geom_bond_atom_site_label_2
_geom_bond_distance
_geom_bond_site_symmetry_2
Li0 O9 1.992149 1_455
Li0 O14 1.992149 1_565
Li0 O11 2.110694 1_565
Li0 O3 2.189621 1_554
Li0 O12 2.258334 1_564
Li0 O7 2.258334 1_454
Li1 O14 1.992149 1_565
Li1 O8 1.992149 1_555
Li1 O11 2.110699 1_665
Li1 O3 2.189621 1_554
Li1 O7 2.258333 1_554
Li1 O15 2.258334 1_564
Li2 O9 1.992149 1_455
Li2 O8 1.992149 1_555
Li2 O11 2.110699 1_555
Li2 O3 2.189621 1_554
Li2 O12 2.258333 1_554
Li2 O15 2.258334 1_454
Li3 O2 1.992149 1_655
Li3 O5 1.992149 1_555
Li3 O13 2.110699 1_665
Li3 O10 2.189621 1_555
Li3 O4 2.258333 1_555
Li3 O0 2.258334 1_655
Li4 O1 1.992149 1_545
Li4 O5 1.992149 1_555
Li4 O13 2.110699 1_555
Li4 O10 2.189621 1_555
Li4 O6 2.258333 1_555
Li4 O0 2.258334 1_545
Li5 O1 1.992149 1_545
Li5 O2 1.992149 1_655
Li5 O13 2.110694 1_655
Li5 O10 2.189621 1_555
Li5 O6 2.258334 1_655
Li5 O4 2.258334 1_545
Mn0 O0 1.965874 1_555
Mn0 O4 1.965883 1_555
Mn0 O6 1.965883 1_555
Mn0 O1 1.968562 1_555
Mn0 O2 1.968562 1_555
Mn0 O5 1.968570 1_555
Mn1 O15 1.965874 1_554
Mn1 O7 1.965883 1_554
Mn1 O12 1.965883 1_554
Mn1 O9 1.968562 1_555
Mn1 O14 1.968562 1_555
Mn1 O8 1.968570 1_555
Fe0 O13 2.014381 1_565
Fe0 O3 2.014674 1_555
Fe0 O12 2.054772 1_565
Fe0 O7 2.054772 1_455
Fe0 O2 2.080997 1_555
Fe0 O1 2.080997 1_555
Fe1 O13 2.014377 1_665
Fe1 O3 2.014683 1_555
Fe1 O7 2.054763 1_555
Fe1 O15 2.054772 1_565
Fe1 O1 2.080997 1_555
Fe1 O5 2.080997 1_555
Fe2 O13 2.014377 1_555
Fe2 O3 2.014683 1_555
Fe2 O12 2.054763 1_555
Fe2 O15 2.054772 1_455
Fe2 O2 2.080997 1_555
Fe2 O5 2.080997 1_555
Fe3 O11 2.014377 1_665
Fe3 O10 2.014683 1_555
Fe3 O4 2.054763 1_555
Fe3 O0 2.054772 1_655
Fe3 O9 2.080997 1_555
Fe3 O8 2.080997 1_555
Fe4 O11 2.014377 1_555
Fe4 O10 2.014683 1_555
Fe4 O6 2.054763 1_555
Fe4 O0 2.054772 1_545
Fe4 O14 2.080997 1_555
Fe4 O8 2.080997 1_555
Fe5 O11 2.014381 1_655
Fe5 O10 2.014674 1_555
Fe5 O6 2.054772 1_655
Fe5 O4 2.054772 1_545
Fe5 O14 2.080997 1_555
Fe5 O9 2.080997 1_555
