# generated using pymatgen
data_VCrO3
_symmetry_space_group_name_H-M   'P 1'
_cell_length_a   5.02842447
_cell_length_b   5.40894673
_cell_length_c   7.35700956
_cell_angle_alpha   96.06643301
_cell_angle_beta   90.07953017
_cell_angle_gamma   89.94044254
_symmetry_Int_Tables_number   1
_chemical_formula_structural   VCrO3
_chemical_formula_sum   'V4 Cr4 O12'
_cell_volume   198.97865509
_cell_formula_units_Z   4
loop_
 _symmetry_equiv_pos_site_id
 _symmetry_equiv_pos_as_xyz
  1  'x, y, z'
loop_
 _atom_site_type_symbol
 _atom_site_label
 _atom_site_symmetry_multiplicity
 _atom_site_fract_x
 _atom_site_fract_y
 _atom_site_fract_z
 _atom_site_occupancy
  V  V0  1  0.00248378  0.69872454  0.14667065  1
  V  V1  1  0.49779676  0.79507143  0.34749236  1
  V  V2  1  0.00370688  0.30517084  0.85417169  1
  V  V3  1  0.00075343  0.70179133  0.64957291  1
  Cr  Cr0  1  0.50076307  0.19479640  0.15223729  1
  Cr  Cr1  1  -0.00056513  0.30064788  0.35039516  1
  Cr  Cr2  1  0.50094469  0.20134609  0.65157031  1
  Cr  Cr3  1  0.50155163  0.80426425  0.84640449  1
  O  O0  1  0.69576529  0.49550642  0.25064071  1
  O  O1  1  0.15401454  0.34126551  0.10095366  1
  O  O2  1  0.34670867  0.14995345  0.40173804  1
  O  O3  1  0.80455759  0.00054619  0.25054352  1
  O  O4  1  0.84681593  0.34825619  0.60028062  1
  O  O5  1  0.34655510  0.84749895  0.09330007  1
  O  O6  1  0.15152346  0.64982558  0.40202971  1
  O  O7  1  0.64820183  0.15115603  0.90294565  1
  O  O8  1  0.65113969  0.85105588  0.59691177  1
  O  O9  1  0.84305180  0.65515626  0.90338283  1
  O  O10  1  0.30902231  0.50349339  0.74969921  1
  O  O11  1  0.19520667  0.00447739  0.74905935  1
loop_
_geom_bond_atom_site_label_1
_geom_bond_atom_site_label_2
_geom_bond_distance
_geom_bond_site_symmetry_2
Cr0 O1 1.966880 1_555
Cr0 O7 1.970021 1_554
Cr0 O0 1.970695 1_555
Cr0 O3 2.028502 1_555
Cr0 O2 2.031431 1_555
Cr0 O5 2.036673 1_545
Cr1 O3 1.970803 1_455
Cr1 O2 1.979067 1_555
Cr1 O4 1.984555 1_455
Cr1 O1 2.027248 1_555
Cr1 O0 2.034250 1_455
Cr1 O6 2.036381 1_555
Cr2 O4 1.966383 1_555
Cr2 O10 1.967931 1_555
Cr2 O2 1.986349 1_555
Cr2 O7 2.035698 1_555
Cr2 O8 2.039318 1_545
Cr2 O11 2.044445 1_555
Cr3 O9 1.959993 1_555
Cr3 O10 1.961328 1_555
Cr3 O5 1.968568 1_556
Cr3 O7 2.018527 1_565
Cr3 O8 2.025192 1_555
Cr3 O11 2.053288 1_565
O0 V1 1.969450 1_555
O0 V0 2.087235 1_655
O1 V2 1.956339 1_554
O1 V0 2.071772 1_555
O2 V1 2.063246 1_545
O3 V0 1.993677 1_645
O3 V1 2.073039 1_545
O4 V3 2.059883 1_655
O4 V2 2.062329 1_655
O5 V0 1.966386 1_555
O5 V1 2.064882 1_555
O6 V3 1.966128 1_555
O6 V1 1.970131 1_555
O6 V0 2.064400 1_555
O7 V2 2.021491 1_655
O8 V1 1.983058 1_555
O8 V3 1.988415 1_655
O9 V0 1.951701 1_656
O9 V2 2.054289 1_655
O9 V3 2.069610 1_655
O10 V3 2.063071 1_555
O10 V2 2.068683 1_555
O11 V2 1.975736 1_555
O11 V3 1.979979 1_545
