# generated using pymatgen
data_Li2Nb2Fe3O10
_symmetry_space_group_name_H-M   'P 1'
_cell_length_a   5.20176400
_cell_length_b   5.35120946
_cell_length_c   8.07211996
_cell_angle_alpha   73.14962089
_cell_angle_beta   71.66009384
_cell_angle_gamma   78.22046693
_symmetry_Int_Tables_number   1
_chemical_formula_structural   Li2Nb2Fe3O10
_chemical_formula_sum   'Li2 Nb2 Fe3 O10'
_cell_volume   202.53970515
_cell_formula_units_Z   1
loop_
 _symmetry_equiv_pos_site_id
 _symmetry_equiv_pos_as_xyz
  1  'x, y, z'
loop_
 _atom_site_type_symbol
 _atom_site_label
 _atom_site_symmetry_multiplicity
 _atom_site_fract_x
 _atom_site_fract_y
 _atom_site_fract_z
 _atom_site_occupancy
  Li  Li0  1  0.57261400  0.36584700  0.58975100  1
  Li  Li1  1  0.43841200  0.39445300  0.23698400  1
  Nb  Nb0  1  0.95467600  0.05976500  0.31078300  1
  Nb  Nb1  1  0.06768800  0.90091700  0.68078800  1
  Fe  Fe0  1  0.49712800  0.99167500  0.98926100  1
  Fe  Fe1  1  0.97343300  0.66666100  0.12541900  1
  Fe  Fe2  1  0.97858300  0.32462700  0.89601300  1
  O  O0  1  0.75773700  0.40573900  0.33037100  1
  O  O1  1  0.76373200  0.19319900  0.77564500  1
  O  O2  1  0.22637700  0.10711600  0.44680400  1
  O  O3  1  0.21568800  0.29981800  0.07013800  1
  O  O4  1  0.24266300  0.98707900  0.84049700  1
  O  O5  1  0.75182000  0.06111600  0.13173000  1
  O  O6  1  0.77823100  0.67586500  0.93360300  1
  O  O7  1  0.79200100  0.87382900  0.54636500  1
  O  O8  1  0.25246300  0.78178100  0.20859200  1
  O  O9  1  0.22381100  0.54684300  0.68811200  1
loop_
_geom_bond_atom_site_label_1
_geom_bond_atom_site_label_2
_geom_bond_distance
_geom_bond_site_symmetry_2
Li0 O9 1.918921 1_555
Li0 O1 1.963064 1_555
Li0 O0 1.978041 1_555
Li1 O0 2.046057 1_555
Li1 O8 2.080783 1_555
Li1 O2 2.111011 1_555
Li1 O3 2.242649 1_555
Li1 O5 2.319714 1_555
Nb0 O7 1.885857 1_545
Nb0 O0 1.948196 1_555
Nb0 O5 2.037921 1_555
Nb0 O8 2.063781 1_645
Nb0 O2 2.133380 1_655
Nb0 O3 2.207403 1_655
Nb1 O9 1.894736 1_555
Nb1 O2 1.910178 1_565
Nb1 O4 1.989321 1_555
Nb1 O7 2.100056 1_455
Nb1 O1 2.110741 1_465
Nb1 O6 2.294327 1_455
Fe0 O8 2.007144 1_556
Fe0 O1 2.021683 1_565
Fe0 O6 2.052748 1_555
Fe0 O4 2.055584 1_555
Fe0 O3 2.079775 1_566
Fe0 O5 2.150218 1_566
Fe1 O0 2.019337 1_555
Fe1 O8 2.038393 1_655
Fe1 O6 2.087017 1_554
Fe1 O3 2.187385 1_655
Fe1 O5 2.195200 1_565
Fe1 O4 2.618800 1_654
Fe2 O9 1.993184 1_655
Fe2 O6 2.010664 1_555
Fe2 O1 2.021923 1_555
Fe2 O4 2.102215 1_645
Fe2 O3 2.104832 1_656
Fe2 O5 2.170571 1_556
