# generated using pymatgen
data_Na5FeO4
_symmetry_space_group_name_H-M   'P 1'
_cell_length_a   10.14708759
_cell_length_b   10.41070106
_cell_length_c   10.54135823
_cell_angle_alpha   90.00000000
_cell_angle_beta   90.00000000
_cell_angle_gamma   90.00000000
_symmetry_Int_Tables_number   1
_chemical_formula_structural   Na5FeO4
_chemical_formula_sum   'Na40 Fe8 O32'
_cell_volume   1113.57111598
_cell_formula_units_Z   8
loop_
 _symmetry_equiv_pos_site_id
 _symmetry_equiv_pos_as_xyz
  1  'x, y, z'
loop_
 _atom_site_type_symbol
 _atom_site_label
 _atom_site_symmetry_multiplicity
 _atom_site_fract_x
 _atom_site_fract_y
 _atom_site_fract_z
 _atom_site_occupancy
  Na  Na0  1  0.85538159  0.38214508  0.10018841  1
  Na  Na1  1  0.35538159  0.11785492  0.10018841  1
  Na  Na2  1  0.16729921  0.89370352  0.11428574  1
  Na  Na3  1  0.66729921  0.60629648  0.11428574  1
  Na  Na4  1  0.63860076  0.15222254  0.11580621  1
  Na  Na5  1  0.13860076  0.34777746  0.11580621  1
  Na  Na6  1  0.91495490  0.12096261  0.14467725  1
  Na  Na7  1  0.41495490  0.37903739  0.14467725  1
  Na  Na8  1  0.60191369  0.87906546  0.16275822  1
  Na  Na9  1  0.10191369  0.62093454  0.16275822  1
  Na  Na10  1  0.10191369  0.12093454  0.33724178  1
  Na  Na11  1  0.60191369  0.37906546  0.33724178  1
  Na  Na12  1  0.41495490  0.87903739  0.35532275  1
  Na  Na13  1  0.91495490  0.62096261  0.35532275  1
  Na  Na14  1  0.63860076  0.65222254  0.38419379  1
  Na  Na15  1  0.13860076  0.84777746  0.38419379  1
  Na  Na16  1  0.16729921  0.39370352  0.38571426  1
  Na  Na17  1  0.66729921  0.10629648  0.38571426  1
  Na  Na18  1  0.85538159  0.88214508  0.39981159  1
  Na  Na19  1  0.35538159  0.61785492  0.39981159  1
  Na  Na20  1  0.64461841  0.38214508  0.60018841  1
  Na  Na21  1  0.14461841  0.11785492  0.60018841  1
  Na  Na22  1  0.33270079  0.89370352  0.61428574  1
  Na  Na23  1  0.83270079  0.60629648  0.61428574  1
  Na  Na24  1  0.36139924  0.34777746  0.61580621  1
  Na  Na25  1  0.86139924  0.15222254  0.61580621  1
  Na  Na26  1  0.08504510  0.37903739  0.64467725  1
  Na  Na27  1  0.58504510  0.12096261  0.64467725  1
  Na  Na28  1  0.89808631  0.87906546  0.66275822  1
  Na  Na29  1  0.39808631  0.62093454  0.66275822  1
  Na  Na30  1  0.89808631  0.37906546  0.83724178  1
  Na  Na31  1  0.39808631  0.12093454  0.83724178  1
  Na  Na32  1  0.58504510  0.62096261  0.85532275  1
  Na  Na33  1  0.08504510  0.87903739  0.85532275  1
  Na  Na34  1  0.36139924  0.84777746  0.88419379  1
  Na  Na35  1  0.86139924  0.65222254  0.88419379  1
  Na  Na36  1  0.33270079  0.39370352  0.88571426  1
  Na  Na37  1  0.83270079  0.10629648  0.88571426  1
  Na  Na38  1  0.64461841  0.88214508  0.89981159  1
  Na  Na39  1  0.14461841  0.61785492  0.89981159  1
  Fe  Fe0  1  0.88607109  0.85231508  0.12933839  1
  Fe  Fe1  1  0.38607109  0.64768492  0.12933839  1
  Fe  Fe2  1  0.88607109  0.35231508  0.37066161  1
  Fe  Fe3  1  0.38607109  0.14768492  0.37066161  1
  Fe  Fe4  1  0.61392891  0.85231508  0.62933839  1
  Fe  Fe5  1  0.11392891  0.64768492  0.62933839  1
  Fe  Fe6  1  0.61392891  0.35231508  0.87066161  1
  Fe  Fe7  1  0.11392891  0.14768492  0.87066161  1
  O  O0  1  0.50008600  0.74201460  0.02002703  1
  O  O1  1  0.00008600  0.75798540  0.02002703  1
  O  O2  1  0.77216871  0.97543175  0.04987400  1
  O  O3  1  0.27216871  0.52456825  0.04987400  1
  O  O4  1  0.99681616  0.94773027  0.24328108  1
  O  O5  1  0.49681616  0.55226973  0.24328108  1
  O  O6  1  0.77702315  0.75286689  0.23839020  1
  O  O7  1  0.27702315  0.74713311  0.23839020  1
  O  O8  1  0.77702315  0.25286689  0.26160980  1
  O  O9  1  0.27702315  0.24713311  0.26160980  1
  O  O10  1  0.99681616  0.44773027  0.25671892  1
  O  O11  1  0.49681616  0.05226973  0.25671892  1
  O  O12  1  0.77216871  0.47543175  0.45012600  1
  O  O13  1  0.27216871  0.02456825  0.45012600  1
  O  O14  1  0.50008600  0.24201460  0.47997297  1
  O  O15  1  0.00008600  0.25798540  0.47997297  1
  O  O16  1  0.99991400  0.74201460  0.52002703  1
  O  O17  1  0.49991400  0.75798540  0.52002703  1
  O  O18  1  0.72783129  0.97543175  0.54987400  1
  O  O19  1  0.22783129  0.52456825  0.54987400  1
  O  O20  1  0.00318384  0.55226973  0.74328108  1
  O  O21  1  0.50318384  0.94773027  0.74328108  1
  O  O22  1  0.72297685  0.75286689  0.73839020  1
  O  O23  1  0.22297685  0.74713311  0.73839020  1
  O  O24  1  0.72297685  0.25286689  0.76160980  1
  O  O25  1  0.22297685  0.24713311  0.76160980  1
  O  O26  1  0.00318384  0.05226973  0.75671892  1
  O  O27  1  0.50318384  0.44773027  0.75671892  1
  O  O28  1  0.22783129  0.02456825  0.95012600  1
  O  O29  1  0.72783129  0.47543175  0.95012600  1
  O  O30  1  0.99991400  0.24201460  0.97997297  1
  O  O31  1  0.49991400  0.25798540  0.97997297  1
loop_
_geom_bond_atom_site_label_1
_geom_bond_atom_site_label_2
_geom_bond_distance
_geom_bond_site_symmetry_2
Na0 O29 2.262873 1_554
Na0 O10 2.290960 1_555
Na0 O8 2.310634 1_555
Na0 O30 2.425904 1_554
Na1 O28 2.262873 1_554
Na1 O11 2.290960 1_555
Na1 O9 2.310634 1_555
Na1 O31 2.425904 1_554
Na2 O4 2.271112 1_455
Na2 O28 2.286461 1_564
Na2 O7 2.297705 1_555
Na2 O1 2.421260 1_555
Na3 O5 2.271112 1_555
Na3 O29 2.286461 1_554
Na3 O6 2.297705 1_555
Na3 O0 2.421260 1_555
Na4 O31 2.289757 1_554
Na4 O11 2.314975 1_555
Na4 O8 2.330872 1_555
Na4 O2 2.389028 1_545
Na5 O30 2.289757 1_454
Na5 O10 2.314975 1_455
Na5 O9 2.330872 1_555
Na5 O3 2.389028 1_555
Na6 O4 2.241178 1_545
Na6 O30 2.312099 1_554
Na6 O8 2.316029 1_555
Na6 O2 2.322365 1_545
Na7 O5 2.241178 1_555
Na7 O31 2.312099 1_554
Na7 O9 2.316029 1_555
Na7 O3 2.322365 1_555
Na8 O0 2.316705 1_555
Na8 O11 2.317276 1_565
Na8 O2 2.325308 1_555
Na8 O6 2.349243 1_555
Na9 O1 2.316705 1_555
Na9 O10 2.317276 1_455
Na9 O3 2.325308 1_555
Na9 O7 2.349243 1_555
Na10 O15 2.316705 1_555
Na10 O4 2.317276 1_445
Na10 O13 2.325308 1_555
Na10 O9 2.349243 1_555
Na11 O14 2.316705 1_555
Na11 O5 2.317276 1_555
Na11 O12 2.325308 1_555
Na11 O8 2.349243 1_555
Na12 O11 2.241178 1_565
Na12 O17 2.312099 1_555
Na12 O7 2.316029 1_555
Na12 O13 2.322365 1_565
Na13 O10 2.241178 1_555
Na13 O16 2.312099 1_555
Na13 O6 2.316029 1_555
Na13 O12 2.322365 1_555
Na14 O17 2.289757 1_555
Na14 O5 2.314975 1_555
Na14 O6 2.330872 1_555
Na14 O12 2.389028 1_555
Na15 O16 2.289757 1_455
Na15 O4 2.314975 1_455
Na15 O7 2.330872 1_555
Na15 O13 2.389028 1_565
Na16 O10 2.271112 1_455
Na16 O19 2.286461 1_555
Na16 O9 2.297705 1_555
Na16 O15 2.421260 1_555
Na17 O11 2.271112 1_555
Na17 O18 2.286461 1_545
Na17 O8 2.297705 1_555
Na17 O14 2.421260 1_555
Na18 O18 2.262873 1_555
Na18 O4 2.290960 1_555
Na18 O6 2.310634 1_555
Na18 O16 2.425904 1_555
Na19 O19 2.262873 1_555
Na19 O5 2.290960 1_555
Na19 O7 2.310634 1_555
Na19 O17 2.425904 1_555
Na20 O12 2.262873 1_555
Na20 O27 2.290960 1_555
Na20 O24 2.310634 1_555
Na20 O14 2.425904 1_555
Na21 O13 2.262873 1_555
Na21 O26 2.290960 1_555
Na21 O25 2.310634 1_555
Na21 O15 2.425904 1_555
Na22 O21 2.271112 1_555
Na22 O13 2.286461 1_565
Na22 O23 2.297705 1_555
Na22 O17 2.421260 1_555
Na23 O20 2.271112 1_655
Na23 O12 2.286461 1_555
Na23 O22 2.297705 1_555
Na23 O16 2.421260 1_555
Na24 O14 2.289757 1_555
Na24 O27 2.314975 1_555
Na24 O25 2.330872 1_555
Na24 O19 2.389028 1_555
Na25 O15 2.289757 1_655
Na25 O26 2.314975 1_655
Na25 O24 2.330872 1_555
Na25 O18 2.389028 1_545
Na26 O20 2.241178 1_555
Na26 O15 2.312099 1_555
Na26 O25 2.316029 1_555
Na26 O19 2.322365 1_555
Na27 O21 2.241178 1_545
Na27 O14 2.312099 1_555
Na27 O24 2.316029 1_555
Na27 O18 2.322365 1_545
Na28 O16 2.316705 1_555
Na28 O26 2.317276 1_665
Na28 O18 2.325308 1_555
Na28 O22 2.349243 1_555
Na29 O17 2.316705 1_555
Na29 O27 2.317276 1_555
Na29 O19 2.325308 1_555
Na29 O23 2.349243 1_555
Na30 O30 2.316705 1_555
Na30 O20 2.317276 1_655
Na30 O29 2.325308 1_555
Na30 O24 2.349243 1_555
Na31 O31 2.316705 1_555
Na31 O21 2.317276 1_545
Na31 O28 2.325308 1_555
Na31 O25 2.349243 1_555
Na32 O27 2.241178 1_555
Na32 O0 2.312099 1_556
Na32 O22 2.316029 1_555
Na32 O29 2.322365 1_555
Na33 O26 2.241178 1_565
Na33 O1 2.312099 1_556
Na33 O23 2.316029 1_555
Na33 O28 2.322365 1_565
Na34 O0 2.289757 1_556
Na34 O21 2.314975 1_555
Na34 O23 2.330872 1_555
Na34 O28 2.389028 1_565
Na35 O1 2.289757 1_656
Na35 O20 2.314975 1_655
Na35 O22 2.330872 1_555
Na35 O29 2.389028 1_555
Na36 O27 2.271112 1_555
Na36 O3 2.286461 1_556
Na36 O25 2.297705 1_555
Na36 O31 2.421260 1_555
Na37 O26 2.271112 1_655
Na37 O2 2.286461 1_546
Na37 O24 2.297705 1_555
Na37 O30 2.421260 1_555
Na38 O2 2.262873 1_556
Na38 O21 2.290960 1_555
Na38 O22 2.310634 1_555
Na38 O0 2.425904 1_556
Na39 O3 2.262873 1_556
Na39 O20 2.290960 1_555
Na39 O23 2.310634 1_555
Na39 O1 2.425904 1_556
Fe0 O6 1.902040 1_555
Fe0 O1 1.905422 1_655
Fe0 O2 1.918420 1_555
Fe0 O4 1.921505 1_555
Fe1 O7 1.902040 1_555
Fe1 O0 1.905422 1_555
Fe1 O3 1.918420 1_555
Fe1 O5 1.921505 1_555
Fe2 O8 1.902040 1_555
Fe2 O15 1.905422 1_655
Fe2 O12 1.918420 1_555
Fe2 O10 1.921505 1_555
Fe3 O9 1.902040 1_555
Fe3 O14 1.905422 1_555
Fe3 O13 1.918420 1_555
Fe3 O11 1.921505 1_555
Fe4 O22 1.902040 1_555
Fe4 O17 1.905422 1_555
Fe4 O18 1.918420 1_555
Fe4 O21 1.921505 1_555
Fe5 O23 1.902040 1_555
Fe5 O16 1.905422 1_455
Fe5 O19 1.918420 1_555
Fe5 O20 1.921505 1_555
Fe6 O24 1.902040 1_555
Fe6 O31 1.905422 1_555
Fe6 O29 1.918420 1_555
Fe6 O27 1.921505 1_555
Fe7 O25 1.902040 1_555
Fe7 O30 1.905422 1_455
Fe7 O28 1.918420 1_555
Fe7 O26 1.921505 1_555
