# generated using pymatgen
data_Na5LiFe2P2(CO7)2
_symmetry_space_group_name_H-M   'P 1'
_cell_length_a   6.59733700
_cell_length_b   8.99867928
_cell_length_c   10.39942687
_cell_angle_alpha   90.98792948
_cell_angle_beta   90.17925781
_cell_angle_gamma   90.69932585
_symmetry_Int_Tables_number   1
_chemical_formula_structural   Na5LiFe2P2(CO7)2
_chemical_formula_sum   'Na10 Li2 Fe4 P4 C4 O28'
_cell_volume   617.24490307
_cell_formula_units_Z   2
loop_
 _symmetry_equiv_pos_site_id
 _symmetry_equiv_pos_as_xyz
  1  'x, y, z'
loop_
 _atom_site_type_symbol
 _atom_site_label
 _atom_site_symmetry_multiplicity
 _atom_site_fract_x
 _atom_site_fract_y
 _atom_site_fract_z
 _atom_site_occupancy
  Na  Na0  1  0.24576700  0.91710400  0.88092200  1
  Na  Na1  1  0.24797200  0.91743300  0.37948300  1
  Na  Na2  1  0.00110000  0.73980400  0.62454800  1
  Na  Na3  1  0.49952500  0.73897800  0.62398400  1
  Na  Na4  1  0.49847700  0.73967300  0.12464500  1
  Na  Na5  1  0.50152300  0.26032700  0.87535500  1
  Na  Na6  1  0.50047500  0.26102200  0.37601600  1
  Na  Na7  1  0.99890000  0.26019600  0.37545200  1
  Na  Na8  1  0.75202800  0.08256700  0.62051700  1
  Na  Na9  1  0.75423300  0.08289600  0.11907800  1
  Li  Li0  1  0.00436700  0.73081600  0.12326300  1
  Li  Li1  1  0.99563300  0.26918400  0.87673700  1
  Fe  Fe0  1  0.75168600  0.64524500  0.89391000  1
  Fe  Fe1  1  0.75050200  0.64501800  0.39145800  1
  Fe  Fe2  1  0.24949800  0.35498200  0.60854200  1
  Fe  Fe3  1  0.24831400  0.35475500  0.10609000  1
  P  P0  1  0.24601500  0.58357800  0.85090300  1
  P  P1  1  0.24675900  0.58770900  0.34864900  1
  P  P2  1  0.75324100  0.41229100  0.65135100  1
  P  P3  1  0.75398500  0.41642200  0.14909700  1
  C  C0  1  0.75647200  0.94383200  0.86691900  1
  C  C1  1  0.75214000  0.93916600  0.36455900  1
  C  C2  1  0.24786000  0.06083400  0.63544100  1
  C  C3  1  0.24352800  0.05616800  0.13308100  1
  O  O0  1  0.25200200  0.91724800  0.64338500  1
  O  O1  1  0.23327700  0.91193400  0.13974500  1
  O  O2  1  0.75113200  0.87931900  0.97793100  1
  O  O3  1  0.75127300  0.87711500  0.47690000  1
  O  O4  1  0.75097000  0.86151300  0.76248800  1
  O  O5  1  0.75672600  0.85573400  0.26105000  1
  O  O6  1  0.06353400  0.68140900  0.89467400  1
  O  O7  1  0.43905500  0.67402600  0.89417800  1
  O  O8  1  0.06229200  0.68166100  0.39417400  1
  O  O9  1  0.43856400  0.68202800  0.38815800  1
  O  O10  1  0.24693100  0.56733800  0.70159100  1
  O  O11  1  0.75025300  0.56593300  0.58808100  1
  O  O12  1  0.23772200  0.57082500  0.19889400  1
  O  O13  1  0.76463300  0.57273800  0.08930100  1
  O  O14  1  0.23536700  0.42726200  0.91069900  1
  O  O15  1  0.76227800  0.42917500  0.80110600  1
  O  O16  1  0.24974700  0.43406700  0.41191900  1
  O  O17  1  0.75306900  0.43266200  0.29840900  1
  O  O18  1  0.56143600  0.31797200  0.61184200  1
  O  O19  1  0.93770800  0.31833900  0.60582600  1
  O  O20  1  0.56094500  0.32597400  0.10582200  1
  O  O21  1  0.93646600  0.31859100  0.10532600  1
  O  O22  1  0.24327400  0.14426600  0.73895000  1
  O  O23  1  0.24903000  0.13848700  0.23751200  1
  O  O24  1  0.24872700  0.12288500  0.52310000  1
  O  O25  1  0.24886800  0.12068100  0.02206900  1
  O  O26  1  0.76672300  0.08806600  0.86025500  1
  O  O27  1  0.74799800  0.08275200  0.35661500  1
loop_
_geom_bond_atom_site_label_1
_geom_bond_atom_site_label_2
_geom_bond_distance
_geom_bond_site_symmetry_2
Na0 O25 2.327469 1_566
Na0 O6 2.431781 1_555
Na0 O0 2.470742 1_555
Na0 O22 2.542328 1_565
Na0 O7 2.550907 1_555
Na0 O1 2.694315 1_556
Na1 O24 2.356529 1_565
Na1 O8 2.444217 1_555
Na1 O9 2.479401 1_555
Na1 O1 2.494334 1_555
Na1 O23 2.497548 1_565
Na1 O0 2.744505 1_555
Na2 O11 2.289759 1_455
Na2 O0 2.291431 1_555
Na2 O10 2.403549 1_555
Na2 O4 2.446462 1_455
Na2 O8 2.478783 1_555
Na2 O3 2.588477 1_455
Na2 O6 2.895874 1_555
Na3 O0 2.309905 1_555
Na3 O11 2.312372 1_555
Na3 O10 2.408851 1_555
Na3 O4 2.434740 1_555
Na3 O9 2.526732 1_555
Na3 O3 2.583478 1_555
Na3 O7 2.907586 1_555
Na4 O13 2.350390 1_555
Na4 O1 2.355465 1_555
Na4 O12 2.418506 1_555
Na4 O5 2.428196 1_555
Na4 O7 2.487285 1_554
Na4 O2 2.591581 1_554
Na4 O9 2.825918 1_555
Na5 O14 2.350390 1_555
Na5 O26 2.355465 1_555
Na5 O15 2.418506 1_555
Na5 O22 2.428196 1_555
Na5 O20 2.487285 1_556
Na5 O25 2.591581 1_556
Na5 O18 2.825918 1_555
Na6 O27 2.309905 1_555
Na6 O16 2.312372 1_555
Na6 O17 2.408851 1_555
Na6 O23 2.434740 1_555
Na6 O18 2.526732 1_555
Na6 O24 2.583478 1_555
Na6 O20 2.907586 1_555
Na7 O16 2.289759 1_655
Na7 O27 2.291431 1_555
Na7 O17 2.403549 1_555
Na7 O23 2.446462 1_655
Na7 O19 2.478783 1_555
Na7 O24 2.588477 1_655
Na7 O21 2.895874 1_555
Na8 O3 2.356529 1_545
Na8 O19 2.444217 1_555
Na8 O18 2.479401 1_555
Na8 O26 2.494334 1_555
Na8 O4 2.497548 1_545
Na8 O27 2.744505 1_555
Na9 O2 2.327469 1_544
Na9 O21 2.431781 1_555
Na9 O27 2.470742 1_555
Na9 O5 2.542328 1_545
Na9 O20 2.550907 1_555
Na9 O26 2.694315 1_554
Li0 O13 2.138683 1_455
Li0 O1 2.212478 1_555
Li0 O12 2.268716 1_555
Li0 O6 2.444317 1_554
Li0 O5 2.447439 1_455
Li1 O14 2.138683 1_655
Li1 O26 2.212478 1_555
Li1 O15 2.268716 1_555
Li1 O21 2.444317 1_556
Li1 O22 2.447439 1_655
Fe0 O6 2.078987 1_655
Fe0 O7 2.081868 1_555
Fe0 O13 2.146588 1_556
Fe0 O15 2.157736 1_555
Fe0 O2 2.266488 1_555
Fe0 O4 2.397340 1_555
Fe1 O8 2.079295 1_655
Fe1 O9 2.089013 1_555
Fe1 O17 2.127299 1_555
Fe1 O11 2.176627 1_555
Fe1 O3 2.255520 1_555
Fe1 O5 2.350201 1_555
Fe2 O19 2.079295 1_455
Fe2 O18 2.089013 1_555
Fe2 O10 2.127299 1_555
Fe2 O16 2.176627 1_555
Fe2 O24 2.255520 1_555
Fe2 O22 2.350201 1_555
Fe3 O21 2.078987 1_455
Fe3 O20 2.081868 1_555
Fe3 O14 2.146588 1_554
Fe3 O12 2.157736 1_555
Fe3 O25 2.266488 1_555
Fe3 O23 2.397340 1_555
C0 O2 1.301501 1_555
C0 O26 1.301902 1_565
C0 O4 1.304165 1_555
C1 O27 1.296758 1_565
C1 O5 1.302376 1_555
C1 O3 1.303518 1_555
C2 O0 1.296758 1_545
C2 O22 1.302376 1_555
C2 O24 1.303518 1_555
C3 O25 1.301501 1_555
C3 O1 1.301902 1_545
C3 O23 1.304165 1_555
O6 P0 1.564304 1_555
O7 P0 1.563776 1_555
O8 P1 1.560417 1_555
O9 P1 1.564907 1_555
O10 P0 1.557148 1_555
O11 P2 1.541682 1_555
O12 P1 1.563031 1_555
O13 P3 1.548638 1_555
O14 P0 1.548638 1_555
O15 P2 1.563031 1_555
O16 P1 1.541682 1_555
O17 P3 1.557148 1_555
O18 P2 1.564907 1_555
O19 P2 1.560417 1_555
O20 P3 1.563776 1_555
O21 P3 1.564304 1_555
