# generated using pymatgen
data_Sc2TiO5
_symmetry_space_group_name_H-M   'P 1'
_cell_length_a   3.85441592
_cell_length_b   5.43448943
_cell_length_c   10.26110277
_cell_angle_alpha   90.00000000
_cell_angle_beta   90.00000000
_cell_angle_gamma   110.77048745
_symmetry_Int_Tables_number   1
_chemical_formula_structural   Sc2TiO5
_chemical_formula_sum   'Sc4 Ti2 O10'
_cell_volume   200.96799739
_cell_formula_units_Z   2
loop_
 _symmetry_equiv_pos_site_id
 _symmetry_equiv_pos_as_xyz
  1  'x, y, z'
loop_
 _atom_site_type_symbol
 _atom_site_label
 _atom_site_symmetry_multiplicity
 _atom_site_fract_x
 _atom_site_fract_y
 _atom_site_fract_z
 _atom_site_occupancy
  Sc  Sc0  1  0.36281404  0.72562609  0.43673903  1
  Sc  Sc1  1  0.30592891  0.61186081  0.74937195  1
  Sc  Sc2  1  0.69407109  0.38813919  0.24937195  1
  Sc  Sc3  1  0.63718596  0.27437391  0.93673903  1
  Ti  Ti0  1  0.36626391  0.73252782  0.05931052  1
  Ti  Ti1  1  0.63373609  0.26747218  0.55931052  1
  O  O0  1  0.44602293  0.89204486  0.89149867  1
  O  O1  1  0.18510061  0.37019922  0.56967357  1
  O  O2  1  0.27145261  0.54290521  0.24134981  1
  O  O3  1  0.19955265  0.39910430  0.93290789  1
  O  O4  1  0.46290730  0.92581360  0.61915057  1
  O  O5  1  0.72854739  0.45709479  0.74134981  1
  O  O6  1  0.81489939  0.62980078  0.06967357  1
  O  O7  1  0.55397707  0.10795514  0.39149867  1
  O  O8  1  0.53709270  0.07418640  0.11915057  1
  O  O9  1  0.80044735  0.60089570  0.43290789  1
loop_
_geom_bond_atom_site_label_1
_geom_bond_atom_site_label_2
_geom_bond_distance
_geom_bond_site_symmetry_2
O0 Ti0 1.903170 1_556
O0 Sc3 1.997419 1_565
O0 Sc1 2.038082 1_555
O1 Ti1 1.999473 1_555
O1 Ti1 1.999481 1_455
O1 Sc1 2.215367 1_555
O1 Sc0 2.263268 1_555
O2 Sc2 2.083105 1_455
O2 Sc2 2.083116 1_555
O2 Ti0 2.101791 1_555
O2 Sc0 2.209456 1_555
O3 Sc3 2.029124 1_555
O3 Sc3 2.029135 1_455
O3 Ti0 2.133701 1_556
O3 Sc1 2.171515 1_555
O4 Ti1 1.841455 1_565
O4 Sc1 2.080963 1_555
O4 Sc0 2.130292 1_555
O5 Sc1 2.083105 1_655
O5 Sc1 2.083116 1_555
O5 Ti1 2.101791 1_555
O5 Sc3 2.209456 1_555
O6 Ti0 1.999473 1_555
O6 Ti0 1.999481 1_655
O6 Sc2 2.215367 1_555
O6 Sc3 2.263268 1_554
O7 Ti1 1.903170 1_555
O7 Sc0 1.997419 1_545
O7 Sc2 2.038082 1_555
O8 Ti0 1.841455 1_545
O8 Sc2 2.080963 1_555
O8 Sc3 2.130292 1_554
O9 Sc0 2.029124 1_555
O9 Sc0 2.029135 1_655
O9 Ti1 2.133701 1_555
O9 Sc2 2.171515 1_555
