# generated using pymatgen
data_MnH8(SO6)2
_symmetry_space_group_name_H-M   'P 1'
_cell_length_a   11.46605455
_cell_length_b   11.46605455
_cell_length_c   11.02732412
_cell_angle_alpha   68.62172383
_cell_angle_beta   68.62172383
_cell_angle_gamma   48.13114081
_symmetry_Int_Tables_number   1
_chemical_formula_structural   MnH8(SO6)2
_chemical_formula_sum   'Mn4 H32 S8 O48'
_cell_volume   989.83855074
_cell_formula_units_Z   4
loop_
 _symmetry_equiv_pos_site_id
 _symmetry_equiv_pos_as_xyz
  1  'x, y, z'
loop_
 _atom_site_type_symbol
 _atom_site_label
 _atom_site_symmetry_multiplicity
 _atom_site_fract_x
 _atom_site_fract_y
 _atom_site_fract_z
 _atom_site_occupancy
  Mn  Mn0  1  0.00000000  0.50000000  0.00000000  1
  Mn  Mn1  1  0.74938800  0.25061200  0.75000000  1
  Mn  Mn2  1  0.50000000  0.00000000  0.50000000  1
  Mn  Mn3  1  0.25061200  0.74938800  0.25000000  1
  H  H0  1  0.98194300  0.74791600  0.97922600  1
  H  H1  1  0.24646900  0.48483200  0.96575800  1
  H  H2  1  0.65300100  0.09431400  0.96042000  1
  H  H3  1  0.99650700  0.96502300  0.83346200  1
  H  H4  1  0.46292600  0.49670100  0.83318300  1
  H  H5  1  0.19381300  0.20917200  0.95089100  1
  H  H6  1  0.72195300  0.68137800  0.94918700  1
  H  H7  1  0.60482200  0.13146000  0.81930900  1
  H  H8  1  0.86854000  0.39517800  0.68069100  1
  H  H9  1  0.31862200  0.27804700  0.55081300  1
  H  H10  1  0.74791600  0.98194300  0.47922600  1
  H  H11  1  0.79082800  0.80618700  0.54910900  1
  H  H12  1  0.48483200  0.24646900  0.46575800  1
  H  H13  1  0.09431400  0.65300100  0.46042000  1
  H  H14  1  0.96502300  0.99650700  0.33346200  1
  H  H15  1  0.49670100  0.46292600  0.33318300  1
  H  H16  1  0.50329900  0.53707400  0.66681700  1
  H  H17  1  0.03497700  0.00349300  0.66653800  1
  H  H18  1  0.90568600  0.34699900  0.53958000  1
  H  H19  1  0.51516800  0.75353100  0.53424200  1
  H  H20  1  0.20917200  0.19381300  0.45089100  1
  H  H21  1  0.25208400  0.01805700  0.52077400  1
  H  H22  1  0.68137800  0.72195300  0.44918700  1
  H  H23  1  0.13146000  0.60482200  0.31930900  1
  H  H24  1  0.39517800  0.86854000  0.18069100  1
  H  H25  1  0.27804700  0.31862200  0.05081300  1
  H  H26  1  0.80618700  0.79082800  0.04910900  1
  H  H27  1  0.53707400  0.50329900  0.16681700  1
  H  H28  1  0.00349300  0.03497700  0.16653800  1
  H  H29  1  0.34699900  0.90568600  0.03958000  1
  H  H30  1  0.75353100  0.51516800  0.03424200  1
  H  H31  1  0.01805700  0.25208400  0.02077400  1
  S  S0  1  0.23009800  0.73342100  0.96714600  1
  S  S1  1  0.50032700  0.98131700  0.79957500  1
  S  S2  1  0.01868300  0.49967300  0.70042500  1
  S  S3  1  0.73342100  0.23009800  0.46714600  1
  S  S4  1  0.26657900  0.76990200  0.53285400  1
  S  S5  1  0.98131700  0.50032700  0.29957500  1
  S  S6  1  0.49967300  0.01868300  0.20042500  1
  S  S7  1  0.76990200  0.26657900  0.03285400  1
  O  O0  1  0.06186900  0.82609900  0.95100100  1
  O  O1  1  0.32196700  0.56688500  0.94887900  1
  O  O2  1  0.91170000  0.71717000  0.99430200  1
  O  O3  1  0.22158400  0.41112400  0.97678700  1
  O  O4  1  0.63985600  0.16075800  0.86884000  1
  O  O5  1  0.95503300  0.04496700  0.75000000  1
  O  O6  1  0.54347800  0.45652200  0.75000000  1
  O  O7  1  0.36092300  0.03381800  0.91023500  1
  O  O8  1  0.01396000  0.55817200  0.80902300  1
  O  O9  1  0.63719200  0.81733700  0.83686200  1
  O  O10  1  0.53667400  0.09313300  0.74923100  1
  O  O11  1  0.71743900  0.21622600  0.61454400  1
  O  O12  1  0.19160800  0.69849300  0.61581200  1
  O  O13  1  0.30150700  0.80839200  0.88418800  1
  O  O14  1  0.78377400  0.28256100  0.88545600  1
  O  O15  1  0.90686700  0.46332600  0.75076900  1
  O  O16  1  0.18266300  0.36280800  0.66313800  1
  O  O17  1  0.44182800  0.98604000  0.69097700  1
  O  O18  1  0.96618200  0.63907700  0.58976500  1
  O  O19  1  0.82609900  0.06186900  0.45100100  1
  O  O20  1  0.56688500  0.32196700  0.44887900  1
  O  O21  1  0.71717000  0.91170000  0.49430200  1
  O  O22  1  0.41112400  0.22158400  0.47678700  1
  O  O23  1  0.83924200  0.36014400  0.63116000  1
  O  O24  1  0.16075800  0.63985600  0.36884000  1
  O  O25  1  0.58887600  0.77841600  0.52321300  1
  O  O26  1  0.28283000  0.08830000  0.50569800  1
  O  O27  1  0.04496700  0.95503300  0.25000000  1
  O  O28  1  0.45652200  0.54347800  0.25000000  1
  O  O29  1  0.43311500  0.67803300  0.55112100  1
  O  O30  1  0.17390100  0.93813100  0.54899900  1
  O  O31  1  0.03381800  0.36092300  0.41023500  1
  O  O32  1  0.55817200  0.01396000  0.30902300  1
  O  O33  1  0.81733700  0.63719200  0.33686200  1
  O  O34  1  0.09313300  0.53667400  0.24923100  1
  O  O35  1  0.21622600  0.71743900  0.11454400  1
  O  O36  1  0.69849300  0.19160800  0.11581200  1
  O  O37  1  0.80839200  0.30150700  0.38418800  1
  O  O38  1  0.28256100  0.78377400  0.38545600  1
  O  O39  1  0.46332600  0.90686700  0.25076900  1
  O  O40  1  0.36280800  0.18266300  0.16313800  1
  O  O41  1  0.98604000  0.44182800  0.19097700  1
  O  O42  1  0.63907700  0.96618200  0.08976500  1
  O  O43  1  0.36014400  0.83924200  0.13116000  1
  O  O44  1  0.77841600  0.58887600  0.02321300  1
  O  O45  1  0.08830000  0.28283000  0.00569800  1
  O  O46  1  0.67803300  0.43311500  0.05112100  1
  O  O47  1  0.93813100  0.17390100  0.04899900  1
loop_
_geom_bond_atom_site_label_1
_geom_bond_atom_site_label_2
_geom_bond_distance
_geom_bond_site_symmetry_2
Mn0 O8 1.943780 1_554
Mn0 O41 1.943780 1_455
Mn0 O2 1.948471 1_454
Mn0 O45 1.948471 1_555
Mn0 O3 1.954244 1_554
Mn0 O44 1.954244 1_455
Mn1 O14 1.882000 1_555
Mn1 O11 1.882000 1_555
Mn1 O5 1.923048 1_555
Mn1 O6 1.925526 1_555
Mn1 O23 1.974611 1_555
Mn1 O4 1.974611 1_555
Mn2 O17 1.943780 1_545
Mn2 O32 1.943780 1_555
Mn2 O21 1.948471 1_545
Mn2 O26 1.948471 1_555
Mn2 O22 1.954244 1_555
Mn2 O25 1.954244 1_545
Mn3 O38 1.882000 1_555
Mn3 O35 1.882000 1_555
Mn3 O27 1.923048 1_555
Mn3 O28 1.925526 1_555
Mn3 O43 1.974611 1_555
Mn3 O24 1.974611 1_555
H0 O2 1.019447 1_555
H0 O0 1.557441 1_655
H1 O3 1.015937 1_555
H1 O1 1.584673 1_555
H2 O4 1.009838 1_555
H2 O42 1.684551 1_546
H3 O5 1.017645 1_565
H3 O0 1.545455 1_655
H4 O6 1.014472 1_555
H4 O1 1.548084 1_555
H5 O45 1.008646 1_556
H5 O7 1.674311 1_555
H6 O44 1.023681 1_556
H6 O9 1.535083 1_555
H7 O4 1.022938 1_555
H7 O10 1.595950 1_555
H8 O23 1.022938 1_555
H8 O15 1.595950 1_555
H9 O22 1.023681 1_555
H9 O16 1.535083 1_555
H10 O21 1.019447 1_555
H10 O19 1.557441 1_565
H11 O21 1.008646 1_555
H11 O18 1.674311 1_555
H12 O22 1.015937 1_555
H12 O20 1.584673 1_555
H13 O24 1.009838 1_555
H13 O18 1.684551 1_455
H14 O27 1.017645 1_655
H14 O19 1.545455 1_565
H15 O28 1.014472 1_555
H15 O20 1.548084 1_555
H16 O6 1.014472 1_555
H16 O29 1.548084 1_555
H17 O5 1.017645 1_455
H17 O30 1.545455 1_545
H18 O23 1.009838 1_555
H18 O31 1.684551 1_655
H19 O25 1.015937 1_555
H19 O29 1.584673 1_555
H20 O26 1.008646 1_555
H20 O31 1.674311 1_555
H21 O26 1.019447 1_555
H21 O30 1.557441 1_545
H22 O25 1.023681 1_555
H22 O33 1.535083 1_555
H23 O24 1.022938 1_555
H23 O34 1.595950 1_555
H24 O43 1.022938 1_555
H24 O39 1.595950 1_555
H25 O3 1.023681 1_554
H25 O40 1.535083 1_555
H26 O2 1.008646 1_554
H26 O42 1.674311 1_555
H27 O28 1.014472 1_555
H27 O46 1.548084 1_555
H28 O27 1.017645 1_545
H28 O47 1.545455 1_455
H29 O43 1.009838 1_555
H29 O7 1.684551 1_564
H30 O44 1.015937 1_555
H30 O46 1.584673 1_555
H31 O45 1.019447 1_555
H31 O47 1.557441 1_455
O0 S0 1.502650 1_555
O1 S0 1.495716 1_555
O7 S1 1.495163 1_545
O8 S2 1.541688 1_555
O9 S1 1.461200 1_555
O10 S1 1.466728 1_545
O11 S3 1.527775 1_555
O12 S4 1.437483 1_555
O13 S0 1.437483 1_555
O14 S7 1.527775 1_556
O15 S2 1.466728 1_655
O16 S2 1.461200 1_555
O17 S1 1.541688 1_555
O18 S2 1.495163 1_655
O19 S3 1.502650 1_555
O20 S3 1.495716 1_555
O29 S4 1.495716 1_555
O30 S4 1.502650 1_555
O31 S5 1.495163 1_455
O32 S6 1.541688 1_555
O33 S5 1.461200 1_555
O34 S5 1.466728 1_455
O35 S0 1.527775 1_554
O36 S7 1.437483 1_555
O37 S3 1.437483 1_555
O38 S4 1.527775 1_555
O39 S6 1.466728 1_565
O40 S6 1.461200 1_555
O41 S5 1.541688 1_555
O42 S6 1.495163 1_565
O46 S7 1.495716 1_555
O47 S7 1.502650 1_555
