# generated using pymatgen
data_GaH15N4(OF3)2
_symmetry_space_group_name_H-M   'P 1'
_cell_length_a   8.82517922
_cell_length_b   8.82517922
_cell_length_c   11.84301331
_cell_angle_alpha   68.00071803
_cell_angle_beta   68.00071803
_cell_angle_gamma   50.31991569
_symmetry_Int_Tables_number   1
_chemical_formula_structural   GaH15N4(OF3)2
_chemical_formula_sum   'Ga2 H30 N8 O4 F12'
_cell_volume   646.23479398
_cell_formula_units_Z   2
loop_
 _symmetry_equiv_pos_site_id
 _symmetry_equiv_pos_as_xyz
  1  'x, y, z'
loop_
 _atom_site_type_symbol
 _atom_site_label
 _atom_site_symmetry_multiplicity
 _atom_site_fract_x
 _atom_site_fract_y
 _atom_site_fract_z
 _atom_site_occupancy
  Ga  Ga0  1  0.00000000  0.50000000  0.50000000  1
  Ga  Ga1  1  0.50000000  0.00000000  0.00000000  1
  H  H0  1  0.05871600  0.86327800  0.86475400  1
  H  H1  1  0.13672200  0.94128400  0.63524600  1
  H  H2  1  0.94128400  0.13672200  0.13524600  1
  H  H3  1  0.86327800  0.05871600  0.36475400  1
  H  H4  1  0.94994800  0.66292300  0.21681100  1
  H  H5  1  0.33707700  0.05005200  0.28318900  1
  H  H6  1  0.05005200  0.33707700  0.78318900  1
  H  H7  1  0.66292300  0.94994800  0.71681100  1
  H  H8  1  0.28657600  0.50098600  0.93033400  1
  H  H9  1  0.49901400  0.71342400  0.56966600  1
  H  H10  1  0.71342400  0.49901400  0.06966600  1
  H  H11  1  0.50098600  0.28657600  0.43033400  1
  H  H12  1  0.22301900  0.93397400  0.99579100  1
  H  H13  1  0.06602600  0.77698100  0.50420900  1
  H  H14  1  0.77698100  0.06602600  0.00420900  1
  H  H15  1  0.93397400  0.22301900  0.49579100  1
  H  H16  1  0.30375000  0.49271300  0.34108600  1
  H  H17  1  0.50728700  0.69625000  0.15891400  1
  H  H18  1  0.69625100  0.50728700  0.65891400  1
  H  H19  1  0.49271300  0.30374900  0.84108600  1
  H  H20  1  0.50000000  0.50000000  0.00000000  1
  H  H21  1  0.50000000  0.50000000  0.50000000  1
  H  H22  1  0.92952100  0.33250500  0.35702800  1
  H  H23  1  0.66749500  0.07047900  0.14297200  1
  H  H24  1  0.07047900  0.66749500  0.64297200  1
  H  H25  1  0.33250500  0.92952100  0.85702800  1
  H  H26  1  0.96400200  0.19886900  0.14617300  1
  H  H27  1  0.80113100  0.03599800  0.35382700  1
  H  H28  1  0.03599800  0.80113100  0.85382700  1
  H  H29  1  0.19886900  0.96400200  0.64617300  1
  N  N0  1  0.21318000  0.57496500  0.11831600  1
  N  N1  1  0.42503500  0.78682000  0.38168400  1
  N  N2  1  0.78682000  0.42503500  0.88168400  1
  N  N3  1  0.57496500  0.21318000  0.61831600  1
  N  N4  1  0.32100700  0.53321200  0.02323600  1
  N  N5  1  0.46678800  0.67899300  0.47676400  1
  N  N6  1  0.67899300  0.46678800  0.97676400  1
  N  N7  1  0.53321200  0.32100700  0.52323600  1
  O  O0  1  0.01018000  0.20533300  0.41110500  1
  O  O1  1  0.79466700  0.98982000  0.08889500  1
  O  O2  1  0.98982000  0.79466700  0.58889500  1
  O  O3  1  0.20533300  0.01018000  0.91110500  1
  F  F0  1  0.80631500  0.36733600  0.64407300  1
  F  F1  1  0.63266400  0.19368500  0.85592700  1
  F  F2  1  0.19368500  0.63266400  0.35592700  1
  F  F3  1  0.36733600  0.80631500  0.14407300  1
  F  F4  1  0.44975300  0.28083700  0.36367600  1
  F  F5  1  0.71916300  0.55024700  0.13632400  1
  F  F6  1  0.55024700  0.71916300  0.63632400  1
  F  F7  1  0.28083700  0.44975300  0.86367600  1
  F  F8  1  0.85807800  0.65377700  0.28940200  1
  F  F9  1  0.34622300  0.14192200  0.21059800  1
  F  F10  1  0.14192200  0.34622300  0.71059800  1
  F  F11  1  0.65377700  0.85807800  0.78940200  1
loop_
_geom_bond_atom_site_label_1
_geom_bond_atom_site_label_2
_geom_bond_distance
_geom_bond_site_symmetry_2
H0 H28 0.755501 1_555
H1 H29 0.755501 1_555
H2 H26 0.755501 1_555
H8 N4 1.406767 1_556
H9 N5 1.406767 1_555
H10 N6 1.406767 1_554
H11 N7 1.406767 1_555
H12 O3 0.980021 1_565
H13 O2 0.980021 1_455
H14 O1 0.980021 1_545
H15 O0 0.980021 1_655
H20 N6 1.341800 1_554
H20 N4 1.341800 1_555
H21 N5 1.341800 1_555
H21 N7 1.341800 1_555
H22 O0 0.979441 1_655
H23 O1 0.979441 1_545
H24 O2 0.979441 1_455
H25 O3 0.979441 1_565
H27 H3 0.755501 1_555
N0 N4 1.170284 1_555
N1 N5 1.170284 1_555
N2 N6 1.170284 1_555
N3 N7 1.170284 1_555
F0 H18 1.001282 1_555
F0 Ga0 2.465297 1_655
F1 H19 1.001282 1_555
F1 Ga1 2.465297 1_556
F2 H16 1.001283 1_555
F2 Ga0 2.465297 1_555
F3 H17 1.001283 1_555
F3 Ga1 2.465297 1_565
F4 H11 1.075550 1_555
F4 H16 1.426511 1_555
F5 H10 1.075550 1_555
F5 H17 1.426511 1_555
F6 H9 1.075550 1_555
F6 H18 1.426512 1_555
F7 H8 1.075550 1_555
F7 H19 1.426512 1_555
F8 H4 0.955157 1_555
F9 H5 0.955157 1_555
F10 H6 0.955157 1_555
F11 H7 0.955157 1_555
