# generated using pymatgen
data_Ca2Al3Si3O13
_symmetry_space_group_name_H-M   'P 1'
_cell_length_a   5.77860200
_cell_length_b   10.69988700
_cell_length_c   15.71811900
_cell_angle_alpha   90.00000000
_cell_angle_beta   90.00000000
_cell_angle_gamma   90.00000000
_symmetry_Int_Tables_number   1
_chemical_formula_structural   Ca2Al3Si3O13
_chemical_formula_sum   'Ca8 Al12 Si12 O52'
_cell_volume   971.85740297
_cell_formula_units_Z   4
loop_
 _symmetry_equiv_pos_site_id
 _symmetry_equiv_pos_as_xyz
  1  'x, y, z'
loop_
 _atom_site_type_symbol
 _atom_site_label
 _atom_site_symmetry_multiplicity
 _atom_site_fract_x
 _atom_site_fract_y
 _atom_site_fract_z
 _atom_site_occupancy
  Ca  Ca0  1  0.25000000  0.06293700  0.86613800  1
  Ca  Ca1  1  0.25000000  0.43706300  0.36613800  1
  Ca  Ca2  1  0.75000000  0.93706300  0.13386200  1
  Ca  Ca3  1  0.75000000  0.56293700  0.63386200  1
  Ca  Ca4  1  0.25000000  0.36124700  0.95570100  1
  Ca  Ca5  1  0.25000000  0.13875300  0.45570100  1
  Ca  Ca6  1  0.75000000  0.63875300  0.04429900  1
  Ca  Ca7  1  0.75000000  0.86124700  0.54429900  1
  Al  Al0  1  0.99641700  0.31156900  0.74728700  1
  Al  Al1  1  0.50358300  0.18843100  0.24728700  1
  Al  Al2  1  0.49641700  0.68843100  0.25271300  1
  Al  Al3  1  0.00358300  0.81156900  0.75271300  1
  Al  Al4  1  0.00358300  0.68843100  0.25271300  1
  Al  Al5  1  0.49641700  0.81156900  0.75271300  1
  Al  Al6  1  0.50358300  0.31156900  0.74728700  1
  Al  Al7  1  0.99641700  0.18843100  0.24728700  1
  Al  Al8  1  0.75000000  0.14716900  0.60520000  1
  Al  Al9  1  0.75000000  0.35283100  0.10520000  1
  Al  Al10  1  0.25000000  0.85283100  0.39480000  1
  Al  Al11  1  0.25000000  0.64716900  0.89480000  1
  Si  Si0  1  0.75000000  0.21420800  0.91512200  1
  Si  Si1  1  0.75000000  0.28579200  0.41512200  1
  Si  Si2  1  0.25000000  0.78579200  0.08487800  1
  Si  Si3  1  0.25000000  0.71420800  0.58487800  1
  Si  Si4  1  0.25000000  0.41724300  0.58543100  1
  Si  Si5  1  0.25000000  0.08275700  0.08543100  1
  Si  Si6  1  0.75000000  0.58275700  0.41456900  1
  Si  Si7  1  0.75000000  0.91724300  0.91456900  1
  Si  Si8  1  0.25000000  0.05753700  0.65823100  1
  Si  Si9  1  0.25000000  0.44246300  0.15823100  1
  Si  Si10  1  0.75000000  0.94246300  0.34176900  1
  Si  Si11  1  0.75000000  0.55753700  0.84176900  1
  O  O0  1  0.01852200  0.39585900  0.64370900  1
  O  O1  1  0.48147800  0.10414100  0.14370900  1
  O  O2  1  0.51852200  0.60414100  0.35629100  1
  O  O3  1  0.98147800  0.89585900  0.85629100  1
  O  O4  1  0.98147800  0.60414100  0.35629100  1
  O  O5  1  0.51852200  0.89585900  0.85629100  1
  O  O6  1  0.48147800  0.39585900  0.64370900  1
  O  O7  1  0.01852200  0.10414100  0.14370900  1
  O  O8  1  0.01944600  0.05928500  0.59536700  1
  O  O9  1  0.48055400  0.44071500  0.09536700  1
  O  O10  1  0.51944600  0.94071500  0.40463300  1
  O  O11  1  0.98055400  0.55928500  0.90463300  1
  O  O12  1  0.98055400  0.94071500  0.40463300  1
  O  O13  1  0.51944600  0.55928500  0.90463300  1
  O  O14  1  0.48055400  0.05928500  0.59536700  1
  O  O15  1  0.01944600  0.44071500  0.09536700  1
  O  O16  1  0.98458200  0.24352500  0.85859800  1
  O  O17  1  0.51541800  0.25647500  0.35859800  1
  O  O18  1  0.48458200  0.75647500  0.14140200  1
  O  O19  1  0.01541800  0.74352500  0.64140200  1
  O  O20  1  0.01541800  0.75647500  0.14140200  1
  O  O21  1  0.48458200  0.74352500  0.64140200  1
  O  O22  1  0.51541800  0.24352500  0.85859800  1
  O  O23  1  0.98458200  0.25647500  0.35859800  1
  O  O24  1  0.75000000  0.21637100  0.70658400  1
  O  O25  1  0.75000000  0.28362900  0.20658400  1
  O  O26  1  0.25000000  0.78362900  0.29341600  1
  O  O27  1  0.25000000  0.71637100  0.79341600  1
  O  O28  1  0.25000000  0.18419300  0.71942200  1
  O  O29  1  0.25000000  0.31580700  0.21942200  1
  O  O30  1  0.75000000  0.81580700  0.28057800  1
  O  O31  1  0.75000000  0.68419300  0.78057800  1
  O  O32  1  0.75000000  0.43413800  0.77930800  1
  O  O33  1  0.75000000  0.06586200  0.27930800  1
  O  O34  1  0.25000000  0.56586200  0.22069200  1
  O  O35  1  0.25000000  0.93413800  0.72069200  1
  O  O36  1  0.25000000  0.33747300  0.49906400  1
  O  O37  1  0.25000000  0.16252700  0.99906400  1
  O  O38  1  0.75000000  0.66252700  0.50093600  1
  O  O39  1  0.75000000  0.83747300  0.00093600  1
  O  O40  1  0.75000000  0.20225300  0.50015300  1
  O  O41  1  0.75000000  0.29774700  0.00015300  1
  O  O42  1  0.25000000  0.79774700  0.49984700  1
  O  O43  1  0.25000000  0.70225300  0.99984700  1
  O  O44  1  0.75000000  0.06649600  0.94210900  1
  O  O45  1  0.75000000  0.43350400  0.44210900  1
  O  O46  1  0.25000000  0.93350400  0.05789100  1
  O  O47  1  0.25000000  0.56649600  0.55789100  1
  O  O48  1  0.25000000  0.40460000  0.78494100  1
  O  O49  1  0.25000000  0.09540000  0.28494100  1
  O  O50  1  0.75000000  0.59540000  0.21505900  1
  O  O51  1  0.75000000  0.90460000  0.71505900  1
loop_
_geom_bond_atom_site_label_1
_geom_bond_atom_site_label_2
_geom_bond_distance
_geom_bond_site_symmetry_2
Ca0 O37 2.345395 1_555
Ca0 O3 2.372256 1_445
Ca0 O5 2.372256 1_545
Ca0 O16 2.469836 1_455
Ca0 O22 2.469836 1_555
Ca0 O28 2.646017 1_555
Ca0 O35 2.669397 1_545
Ca1 O36 2.345395 1_555
Ca1 O2 2.372256 1_555
Ca1 O4 2.372256 1_455
Ca1 O17 2.469836 1_555
Ca1 O23 2.469836 1_455
Ca1 O29 2.646017 1_555
Ca1 O34 2.669397 1_555
Ca2 O39 2.345395 1_555
Ca2 O7 2.372256 1_665
Ca2 O1 2.372256 1_565
Ca2 O20 2.469836 1_655
Ca2 O18 2.469836 1_555
Ca2 O30 2.646017 1_555
Ca2 O33 2.669397 1_565
Ca3 O38 2.345395 1_555
Ca3 O0 2.372256 1_655
Ca3 O6 2.372256 1_555
Ca3 O21 2.469836 1_555
Ca3 O19 2.469836 1_655
Ca3 O31 2.646017 1_555
Ca3 O32 2.669397 1_555
Ca4 O37 2.232853 1_555
Ca4 O22 2.503701 1_555
Ca4 O16 2.503701 1_455
Ca4 O9 2.705044 1_556
Ca4 O15 2.705044 1_556
Ca4 O48 2.723816 1_555
Ca4 O13 2.749314 1_555
Ca4 O11 2.749314 1_455
Ca5 O36 2.232853 1_555
Ca5 O17 2.503701 1_555
Ca5 O23 2.503701 1_455
Ca5 O14 2.705044 1_555
Ca5 O8 2.705044 1_555
Ca5 O49 2.723816 1_555
Ca5 O10 2.749314 1_545
Ca5 O12 2.749314 1_445
Ca6 O39 2.232853 1_555
Ca6 O20 2.503701 1_655
Ca6 O18 2.503701 1_555
Ca6 O11 2.705044 1_554
Ca6 O13 2.705044 1_554
Ca6 O50 2.723816 1_555
Ca6 O9 2.749314 1_555
Ca6 O15 2.749314 1_655
Ca7 O38 2.232853 1_555
Ca7 O19 2.503701 1_655
Ca7 O21 2.503701 1_555
Ca7 O12 2.705044 1_555
Ca7 O10 2.705044 1_555
Ca7 O51 2.723816 1_555
Ca7 O14 2.749314 1_565
Ca7 O8 2.749314 1_665
Al0 O24 1.864000 1_555
Al0 O0 1.865551 1_655
Al0 O48 1.867730 1_655
Al0 O16 1.896273 1_555
Al0 O32 2.000227 1_555
Al0 O28 2.048565 1_655
Al1 O25 1.864000 1_555
Al1 O1 1.865551 1_555
Al1 O49 1.867730 1_555
Al1 O17 1.896273 1_555
Al1 O33 2.000227 1_555
Al1 O29 2.048565 1_555
Al2 O26 1.864000 1_555
Al2 O2 1.865551 1_555
Al2 O50 1.867730 1_555
Al2 O18 1.896273 1_555
Al2 O34 2.000227 1_555
Al2 O30 2.048565 1_555
Al3 O27 1.864000 1_555
Al3 O3 1.865551 1_455
Al3 O51 1.867730 1_455
Al3 O19 1.896273 1_555
Al3 O35 2.000227 1_555
Al3 O31 2.048565 1_455
Al4 O26 1.864000 1_555
Al4 O4 1.865551 1_455
Al4 O50 1.867730 1_455
Al4 O20 1.896273 1_555
Al4 O34 2.000227 1_555
Al4 O30 2.048565 1_455
Al5 O27 1.864000 1_555
Al5 O5 1.865551 1_555
Al5 O51 1.867730 1_555
Al5 O21 1.896273 1_555
Al5 O35 2.000227 1_555
Al5 O31 2.048565 1_555
Al6 O24 1.864000 1_555
Al6 O6 1.865551 1_555
Al6 O48 1.867730 1_555
Al6 O22 1.896273 1_555
Al6 O32 2.000227 1_555
Al6 O28 2.048565 1_555
Al7 O25 1.864000 1_555
Al7 O7 1.865551 1_655
Al7 O49 1.867730 1_655
Al7 O23 1.896273 1_555
Al7 O33 2.000227 1_555
Al7 O29 2.048565 1_655
Al8 O40 1.753183 1_555
Al8 O24 1.757192 1_555
Al8 O14 1.825502 1_555
Al8 O8 1.825502 1_655
Al9 O41 1.753183 1_555
Al9 O25 1.757192 1_555
Al9 O9 1.825502 1_555
Al9 O15 1.825502 1_655
Al10 O42 1.753183 1_555
Al10 O26 1.757192 1_555
Al10 O10 1.825502 1_555
Al10 O12 1.825502 1_455
Al11 O43 1.753183 1_555
Al11 O27 1.757192 1_555
Al11 O11 1.825502 1_455
Al11 O13 1.825502 1_555
O0 Si4 1.637276 1_555
O1 Si5 1.637276 1_555
O2 Si6 1.637276 1_555
O3 Si7 1.637276 1_555
O4 Si6 1.637276 1_555
O5 Si7 1.637276 1_555
O6 Si4 1.637276 1_555
O7 Si5 1.637276 1_555
O8 Si8 1.658815 1_555
O9 Si9 1.658815 1_555
O10 Si10 1.658815 1_555
O11 Si11 1.658815 1_555
O12 Si10 1.658815 1_555
O13 Si11 1.658815 1_555
O14 Si8 1.658815 1_555
O15 Si9 1.658815 1_555
O16 Si0 1.650842 1_555
O17 Si1 1.650842 1_555
O18 Si2 1.650842 1_555
O19 Si3 1.650842 1_555
O20 Si2 1.650842 1_555
O21 Si3 1.650842 1_555
O22 Si0 1.650842 1_555
O23 Si1 1.650842 1_555
O28 Si8 1.661822 1_555
O29 Si9 1.661822 1_555
O30 Si10 1.661822 1_555
O31 Si11 1.661822 1_555
O32 Si11 1.645360 1_555
O33 Si10 1.645360 1_545
O34 Si9 1.645360 1_555
O35 Si8 1.645360 1_565
O36 Si4 1.603556 1_555
O37 Si5 1.603556 1_556
O38 Si6 1.603556 1_555
O39 Si7 1.603556 1_554
O40 Si1 1.607883 1_555
O41 Si0 1.607883 1_554
O42 Si3 1.607883 1_555
O43 Si2 1.607883 1_556
O44 Si0 1.636435 1_555
O44 Si7 1.654618 1_545
O45 Si1 1.636435 1_555
O45 Si6 1.654618 1_555
O46 Si2 1.636435 1_555
O46 Si5 1.654618 1_565
O47 Si3 1.636435 1_555
O47 Si4 1.654618 1_555
