# generated using pymatgen
data_MgPHO9
_symmetry_space_group_name_H-M   'P 1'
_cell_length_a   5.39989813
_cell_length_b   5.39989813
_cell_length_c   5.39989797
_cell_angle_alpha   92.59972358
_cell_angle_beta   92.59972358
_cell_angle_gamma   92.59972533
_symmetry_Int_Tables_number   1
_chemical_formula_structural   MgPHO9
_chemical_formula_sum   'Mg1 P1 H1 O9'
_cell_volume   156.95367869
_cell_formula_units_Z   1
loop_
 _symmetry_equiv_pos_site_id
 _symmetry_equiv_pos_as_xyz
  1  'x, y, z'
loop_
 _atom_site_type_symbol
 _atom_site_label
 _atom_site_symmetry_multiplicity
 _atom_site_fract_x
 _atom_site_fract_y
 _atom_site_fract_z
 _atom_site_occupancy
  Mg  Mg0  1  0.98075200  0.98075200  0.98075200  1
  P  P0  1  0.51961300  0.51961300  0.51961300  1
  H  H0  1  0.36122700  0.36122700  0.36122700  1
  O  O0  1  0.47880000  0.78711900  0.45670100  1
  O  O1  1  0.78711900  0.45670100  0.47880000  1
  O  O2  1  0.45670100  0.47880000  0.78711900  1
  O  O3  1  0.95793000  0.38897200  0.04300800  1
  O  O4  1  0.38897200  0.04300800  0.95793000  1
  O  O5  1  0.04300800  0.95793000  0.38897200  1
  O  O6  1  0.91267400  0.02154300  0.57123700  1
  O  O7  1  0.02154300  0.57123700  0.91267400  1
  O  O8  1  0.57123700  0.91267400  0.02154300  1
loop_
_geom_bond_atom_site_label_1
_geom_bond_atom_site_label_2
_geom_bond_distance
_geom_bond_site_symmetry_2
Mg0 O5 2.224527 1_656
Mg0 O4 2.224527 1_665
Mg0 O3 2.224527 1_566
Mg0 O6 2.247547 1_565
Mg0 O8 2.247547 1_556
Mg0 O7 2.247547 1_655
H0 P0 1.412579 1_555
O0 P0 1.522228 1_555
O1 P0 1.522228 1_555
O2 P0 1.522228 1_555
O3 O7 1.279097 1_654
O4 O8 1.279097 1_546
O5 O6 1.279097 1_465
