# generated using pymatgen
data_Li3Ti2(PO4)3
_symmetry_space_group_name_H-M   'P 1'
_cell_length_a   8.47641100
_cell_length_b   8.49786165
_cell_length_c   9.10340892
_cell_angle_alpha   62.45203314
_cell_angle_beta   62.38048361
_cell_angle_gamma   60.10798607
_symmetry_Int_Tables_number   1
_chemical_formula_structural   Li3Ti2(PO4)3
_chemical_formula_sum   'Li6 Ti4 P6 O24'
_cell_volume   480.30629967
_cell_formula_units_Z   2
loop_
 _symmetry_equiv_pos_site_id
 _symmetry_equiv_pos_as_xyz
  1  'x, y, z'
loop_
 _atom_site_type_symbol
 _atom_site_label
 _atom_site_symmetry_multiplicity
 _atom_site_fract_x
 _atom_site_fract_y
 _atom_site_fract_z
 _atom_site_occupancy
  Li  Li0  1  0.24404400  0.56928100  0.35502600  1
  Li  Li1  1  0.33049200  0.07186800  0.86286500  1
  Li  Li2  1  0.07639000  0.73306700  0.86450700  1
  Li  Li3  1  0.92451600  0.26869500  0.13950000  1
  Li  Li4  1  0.66985900  0.92330200  0.13887300  1
  Li  Li5  1  0.73281700  0.33154700  0.85941800  1
  Ti  Ti0  1  0.14434700  0.14338300  0.56307800  1
  Ti  Ti1  1  0.34628000  0.35082600  0.95713800  1
  Ti  Ti2  1  0.64511100  0.65454300  0.04359600  1
  Ti  Ti3  1  0.84655700  0.85627300  0.43871200  1
  P  P0  1  0.04414600  0.45665500  0.75004100  1
  P  P1  1  0.54208500  0.25149900  0.25043400  1
  P  P2  1  0.25013000  0.95739800  0.25191900  1
  P  P3  1  0.74770800  0.04296600  0.75007400  1
  P  P4  1  0.46058000  0.74836300  0.74929000  1
  P  P5  1  0.95702900  0.53990800  0.24961300  1
  O  O0  1  0.20554800  0.15023300  0.10025500  1
  O  O1  1  0.15141500  0.53242800  0.09910200  1
  O  O2  1  0.01773600  0.60495600  0.57492200  1
  O  O3  1  0.14372900  0.25257300  0.73246500  1
  O  O4  1  0.12691000  0.85349800  0.27896300  1
  O  O5  1  0.54142500  0.20810400  0.09986800  1
  O  O6  1  0.38537700  0.20746500  0.41756800  1
  O  O7  1  0.16473100  0.49583400  0.80681900  1
  O  O8  1  0.50497600  0.46689400  0.19845700  1
  O  O9  1  0.20065200  0.99735800  0.41767900  1
  O  O10  1  0.74737300  0.12873800  0.26659000  1
  O  O11  1  0.46575200  0.83514800  0.19505700  1
  O  O12  1  0.53154800  0.16649600  0.80898000  1
  O  O13  1  0.25614900  0.87080100  0.73151900  1
  O  O14  1  0.79998300  0.00418900  0.58243800  1
  O  O15  1  0.49629600  0.53340300  0.80777900  1
  O  O16  1  0.83152700  0.50641600  0.19215500  1
  O  O17  1  0.61353800  0.79930300  0.57756600  1
  O  O18  1  0.47268800  0.79762900  0.88957800  1
  O  O19  1  0.87052700  0.14284300  0.73170700  1
  O  O20  1  0.85774800  0.74456300  0.26707400  1
  O  O21  1  0.99665400  0.38977100  0.41735400  1
  O  O22  1  0.84717300  0.46178400  0.89664000  1
  O  O23  1  0.79045100  0.84900100  0.90138100  1
loop_
_geom_bond_atom_site_label_1
_geom_bond_atom_site_label_2
_geom_bond_distance
_geom_bond_site_symmetry_2
Li0 O8 1.996619 1_555
Li0 O4 1.999738 1_555
Li0 O2 2.049431 1_555
Li0 O6 2.560212 1_555
Li1 O18 1.972489 1_545
Li1 O3 1.976522 1_555
Li1 O12 2.004405 1_555
Li1 O0 2.177471 1_556
Li2 O13 1.978339 1_555
Li2 O7 2.002665 1_555
Li2 O23 2.032061 1_455
Li2 O1 2.163965 1_556
Li3 O16 1.972363 1_555
Li3 O10 1.975894 1_555
Li3 O0 1.992235 1_655
Li3 O22 2.219505 1_554
Li4 O20 1.969294 1_555
Li4 O11 1.983168 1_555
Li4 O5 2.026329 1_565
Li4 O23 2.165186 1_554
Li5 O15 1.970535 1_555
Li5 O19 1.971329 1_555
Li5 O22 1.999997 1_555
Li5 O5 2.191671 1_556
O0 P2 1.583700 1_545
O0 Ti1 2.134867 1_554
O1 P5 1.574550 1_455
O1 Ti1 2.026047 1_554
O2 P0 1.539835 1_555
O2 Ti3 2.081810 1_455
O3 P0 1.555024 1_555
O3 Ti0 2.133044 1_555
O4 P2 1.552665 1_555
O4 Ti3 2.129373 1_455
O5 P1 1.578429 1_555
O5 Ti1 2.104963 1_554
O6 P1 1.521284 1_555
O6 Ti0 2.039058 1_555
O7 P0 1.552730 1_555
O7 Ti1 2.064425 1_555
O8 P1 1.560832 1_555
O8 Ti2 2.048686 1_555
O9 P2 1.521007 1_555
O9 Ti0 1.965412 1_565
O10 P1 1.556885 1_555
O10 Ti3 2.109106 1_545
O11 P2 1.554140 1_555
O11 Ti2 2.063018 1_555
O12 P3 1.561813 1_555
O12 Ti1 2.068184 1_555
O13 P4 1.555196 1_555
O13 Ti0 2.118691 1_565
O14 P3 1.525260 1_555
O14 Ti3 1.998858 1_545
O15 P4 1.552602 1_555
O15 Ti1 2.070011 1_555
O16 P5 1.562592 1_555
O16 Ti2 2.081951 1_555
O17 P4 1.538312 1_555
O17 Ti3 1.950792 1_555
O18 P4 1.573436 1_555
O18 Ti2 2.032769 1_556
O19 P3 1.555693 1_555
O19 Ti0 2.108118 1_655
O20 P5 1.559146 1_555
O20 Ti3 2.120460 1_555
O21 P5 1.522730 1_555
O21 Ti0 2.017172 1_655
O22 P0 1.576662 1_655
O22 Ti2 2.124262 1_556
O23 P3 1.585183 1_565
O23 Ti2 2.120364 1_556
