# generated using pymatgen
data_LiFeSiO4
_symmetry_space_group_name_H-M   'P 1'
_cell_length_a   5.18037267
_cell_length_b   10.35649984
_cell_length_c   6.68780300
_cell_angle_alpha   89.99991689
_cell_angle_beta   89.99953575
_cell_angle_gamma   90.96025398
_symmetry_Int_Tables_number   1
_chemical_formula_structural   LiFeSiO4
_chemical_formula_sum   'Li4 Fe4 Si4 O16'
_cell_volume   358.75377683
_cell_formula_units_Z   4
loop_
 _symmetry_equiv_pos_site_id
 _symmetry_equiv_pos_as_xyz
  1  'x, y, z'
loop_
 _atom_site_type_symbol
 _atom_site_label
 _atom_site_symmetry_multiplicity
 _atom_site_fract_x
 _atom_site_fract_y
 _atom_site_fract_z
 _atom_site_occupancy
  Li  Li0  1  0.30566000  0.34715500  0.50002200  1
  Li  Li1  1  0.30567900  0.84714100  0.50002700  1
  Li  Li2  1  0.69434200  0.15284400  0.00002200  1
  Li  Li3  1  0.69432900  0.65285500  0.00002700  1
  Fe  Fe0  1  0.31543400  0.84232300  0.00001000  1
  Fe  Fe1  1  0.68456100  0.65767800  0.50000300  1
  Fe  Fe2  1  0.31546500  0.34233100  0.00004600  1
  Fe  Fe3  1  0.68452300  0.15767700  0.50003800  1
  Si  Si0  1  0.18003000  0.09006100  0.24999900  1
  Si  Si1  1  0.18005100  0.59005800  0.24999400  1
  Si  Si2  1  0.81996800  0.40994200  0.75000300  1
  Si  Si3  1  0.81995100  0.90994100  0.74999400  1
  O  O0  1  0.13167400  0.38253700  0.76262300  1
  O  O1  1  0.13166800  0.88256300  0.76259900  1
  O  O2  1  0.23478000  0.43411300  0.23736000  1
  O  O3  1  0.23477300  0.93412300  0.23735100  1
  O  O4  1  0.76522000  0.06588700  0.73735600  1
  O  O5  1  0.76522700  0.56587900  0.73734400  1
  O  O6  1  0.86832300  0.11746100  0.26262200  1
  O  O7  1  0.86833600  0.61743500  0.26259900  1
  O  O8  1  0.32266500  0.15121800  0.44927300  1
  O  O9  1  0.32265900  0.65121200  0.44927100  1
  O  O10  1  0.30251400  0.16129400  0.05071500  1
  O  O11  1  0.30252500  0.66128700  0.05071500  1
  O  O12  1  0.69748800  0.33870600  0.55072000  1
  O  O13  1  0.69747800  0.83871200  0.55071400  1
  O  O14  1  0.67733600  0.34878200  0.94927800  1
  O  O15  1  0.67733800  0.84878700  0.94927200  1
loop_
_geom_bond_atom_site_label_1
_geom_bond_atom_site_label_2
_geom_bond_distance
_geom_bond_site_symmetry_2
Li0 O0 2.010474 1_555
Li0 O2 2.010650 1_555
Li0 O8 2.060749 1_555
Li0 O12 2.061245 1_555
Li1 O1 2.010442 1_555
Li1 O3 2.010870 1_555
Li1 O9 2.060667 1_555
Li1 O13 2.061073 1_555
Li2 O6 2.010470 1_555
Li2 O4 2.010664 1_554
Li2 O14 2.060753 1_554
Li2 O10 2.061235 1_555
Li3 O7 2.010440 1_555
Li3 O5 2.010872 1_554
Li3 O15 2.060699 1_554
Li3 O11 2.061096 1_555
Fe0 O3 1.900337 1_555
Fe0 O1 1.901113 1_554
Fe0 O15 1.905327 1_554
Fe0 O11 1.905389 1_555
Fe1 O5 1.900341 1_555
Fe1 O7 1.901093 1_555
Fe1 O9 1.905316 1_555
Fe1 O13 1.905378 1_555
Fe2 O2 1.900121 1_555
Fe2 O0 1.901165 1_554
Fe2 O14 1.905193 1_554
Fe2 O10 1.905360 1_555
Fe3 O4 1.900202 1_555
Fe3 O6 1.901162 1_555
Fe3 O8 1.905130 1_555
Fe3 O12 1.905297 1_555
O0 Si2 1.646350 1_455
O1 Si3 1.646348 1_455
O2 Si1 1.646583 1_555
O3 Si0 1.646530 1_565
O4 Si3 1.646597 1_545
O5 Si2 1.646522 1_555
O6 Si0 1.646345 1_655
O7 Si1 1.646335 1_655
O8 Si0 1.645470 1_555
O9 Si1 1.645413 1_555
O10 Si0 1.645424 1_555
O11 Si1 1.645359 1_555
O12 Si2 1.645434 1_555
O13 Si3 1.645372 1_555
O14 Si2 1.645470 1_555
O15 Si3 1.645419 1_555
