# generated using pymatgen
data_Li3MnV(PO4)3
_symmetry_space_group_name_H-M   'P 1'
_cell_length_a   8.63479800
_cell_length_b   8.67505830
_cell_length_c   12.64478438
_cell_angle_alpha   105.58365979
_cell_angle_beta   105.90136044
_cell_angle_gamma   95.38799171
_symmetry_Int_Tables_number   1
_chemical_formula_structural   Li3MnV(PO4)3
_chemical_formula_sum   'Li12 Mn4 V4 P12 O48'
_cell_volume   862.99329790
_cell_formula_units_Z   4
loop_
 _symmetry_equiv_pos_site_id
 _symmetry_equiv_pos_as_xyz
  1  'x, y, z'
loop_
 _atom_site_type_symbol
 _atom_site_label
 _atom_site_symmetry_multiplicity
 _atom_site_fract_x
 _atom_site_fract_y
 _atom_site_fract_z
 _atom_site_occupancy
  Li  Li0  1  0.99627000  0.00313900  0.12515100  1
  Li  Li1  1  0.99566300  0.00286500  0.62548100  1
  Li  Li2  1  0.71108500  0.28851400  0.37315000  1
  Li  Li3  1  0.49966800  0.49852100  0.24907400  1
  Li  Li4  1  0.71506200  0.29138200  0.87786600  1
  Li  Li5  1  0.49916000  0.49985300  0.49929800  1
  Li  Li6  1  0.28750200  0.71087000  0.12413700  1
  Li  Li7  1  0.50054200  0.50149800  0.75092900  1
  Li  Li8  1  0.50112100  0.50036600  0.00108600  1
  Li  Li9  1  0.28824600  0.71041100  0.62415900  1
  Li  Li10  1  0.00495500  0.99698300  0.37213400  1
  Li  Li11  1  0.00506400  0.99821400  0.87604200  1
  Mn  Mn0  1  0.94054900  0.62947000  0.18370500  1
  Mn  Mn1  1  0.37482300  0.05628900  0.06514500  1
  Mn  Mn2  1  0.05786000  0.37101600  0.31497100  1
  Mn  Mn3  1  0.05716000  0.37545100  0.81650800  1
  V  V0  1  0.94210500  0.62355700  0.68011800  1
  V  V1  1  0.62104700  0.94294800  0.42950700  1
  V  V2  1  0.62356800  0.94287400  0.93172700  1
  V  V3  1  0.38014600  0.05492800  0.56909800  1
  P  P0  1  0.71438000  0.28727700  0.12479500  1
  P  P1  1  0.85969900  0.66575800  0.43077700  1
  P  P2  1  0.66552700  0.86546700  0.18288200  1
  P  P3  1  0.71434400  0.28739900  0.62497000  1
  P  P4  1  0.85933300  0.66431100  0.93263100  1
  P  P5  1  0.66228500  0.86248400  0.68188100  1
  P  P6  1  0.33937800  0.13359200  0.31629400  1
  P  P7  1  0.13588800  0.33532200  0.06721300  1
  P  P8  1  0.28319600  0.71036300  0.37423700  1
  P  P9  1  0.33822600  0.13313400  0.81819700  1
  P  P10  1  0.13913100  0.33918500  0.56807000  1
  P  P11  1  0.28636800  0.71359100  0.87526400  1
  O  O0  1  0.98451400  0.66220100  0.04800400  1
  O  O1  1  0.94606800  0.61359300  0.33550500  1
  O  O2  1  0.74303600  0.17417300  0.01655900  1
  O  O3  1  0.98677300  0.66100000  0.54385500  1
  O  O4  1  0.82733400  0.26401600  0.23745700  1
  O  O5  1  0.85084800  0.85526000  0.20306600  1
  O  O6  1  0.73708500  0.46190900  0.11448700  1
  O  O7  1  0.84033600  0.84904600  0.44999400  1
  O  O8  1  0.94633700  0.61438200  0.83817100  1
  O  O9  1  0.74151500  0.17373700  0.51673700  1
  O  O10  1  0.82795200  0.26445100  0.73731800  1
  O  O11  1  0.84524500  0.84365900  0.69560000  1
  O  O12  1  0.70101400  0.54649500  0.39739900  1
  O  O13  1  0.60997400  0.94838800  0.08652000  1
  O  O14  1  0.65740400  0.98968000  0.29550900  1
  O  O15  1  0.53842100  0.25930300  0.13480000  1
  O  O16  1  0.73585900  0.46232300  0.61523200  1
  O  O17  1  0.54920200  0.70490300  0.14928100  1
  O  O18  1  0.84049000  0.84753800  0.95069500  1
  O  O19  1  0.70054300  0.54462900  0.89752000  1
  O  O20  1  0.60171500  0.95097400  0.58754100  1
  O  O21  1  0.45382300  0.29545200  0.35194100  1
  O  O22  1  0.66293600  0.98706800  0.79625800  1
  O  O23  1  0.53826700  0.26093400  0.63428100  1
  O  O24  1  0.46030500  0.73575400  0.36701500  1
  O  O25  1  0.34041500  0.01257100  0.20031000  1
  O  O26  1  0.54405100  0.70351100  0.64756000  1
  O  O27  1  0.40299900  0.04654600  0.41148000  1
  O  O28  1  0.29744600  0.45110600  0.10165400  1
  O  O29  1  0.14670800  0.15139200  0.04890300  1
  O  O30  1  0.45212400  0.29477800  0.85232000  1
  O  O31  1  0.25845600  0.53628500  0.38573000  1
  O  O32  1  0.46237200  0.73565300  0.86576000  1
  O  O33  1  0.34346600  0.01031000  0.70463300  1
  O  O34  1  0.40449400  0.04695800  0.91434900  1
  O  O35  1  0.29908500  0.45670900  0.60348500  1
  O  O36  1  0.15581000  0.14372300  0.30334800  1
  O  O37  1  0.17335700  0.73521700  0.26193000  1
  O  O38  1  0.25712200  0.82667700  0.48251100  1
  O  O39  1  0.05108900  0.39163400  0.16351500  1
  O  O40  1  0.15768000  0.15752000  0.55606700  1
  O  O41  1  0.25949100  0.53857700  0.88570900  1
  O  O42  1  0.15442500  0.14268800  0.80370900  1
  O  O43  1  0.17392800  0.74221100  0.76628300  1
  O  O44  1  0.01495600  0.33820700  0.45187600  1
  O  O45  1  0.26360200  0.82724000  0.98685200  1
  O  O46  1  0.04875400  0.40080600  0.66224600  1
  O  O47  1  0.01182000  0.34178400  0.95253500  1
loop_
_geom_bond_atom_site_label_1
_geom_bond_atom_site_label_2
_geom_bond_distance
_geom_bond_site_symmetry_2
Li0 O18 2.220553 1_544
Li0 O36 2.229214 1_655
Li0 O5 2.290764 1_545
Li0 O29 2.304300 1_655
Li1 O7 2.223859 1_545
Li1 O42 2.226121 1_655
Li1 O11 2.309259 1_545
Li1 O40 2.341076 1_655
Li2 O21 2.171986 1_555
Li2 O4 2.187386 1_555
Li2 O12 2.189220 1_555
Li2 O9 2.261856 1_555
Li2 O14 2.461049 1_545
Li2 O44 2.487408 1_655
Li3 O28 2.088683 1_555
Li3 O12 2.090803 1_555
Li3 O15 2.300155 1_555
Li3 O24 2.309784 1_555
Li3 O21 2.516805 1_555
Li3 O17 2.519219 1_555
Li4 O19 2.163201 1_555
Li4 O30 2.208122 1_555
Li4 O10 2.220853 1_555
Li4 O2 2.222594 1_556
Li4 O47 2.427099 1_655
Li4 O22 2.509061 1_545
Li5 O21 2.112835 1_555
Li5 O26 2.116571 1_555
Li5 O16 2.274192 1_555
Li5 O31 2.283349 1_555
Li5 O12 2.498031 1_555
Li5 O35 2.500193 1_555
Li6 O37 2.198698 1_555
Li6 O17 2.201647 1_555
Li6 O45 2.204449 1_554
Li6 O28 2.207219 1_555
Li6 O0 2.478669 1_455
Li6 O25 2.483227 1_565
Li7 O19 2.076102 1_555
Li7 O35 2.087976 1_555
Li7 O32 2.268573 1_555
Li7 O23 2.318181 1_555
Li7 O26 2.509369 1_555
Li7 O30 2.534296 1_555
Li8 O17 2.116861 1_555
Li8 O30 2.125565 1_554
Li8 O6 2.258895 1_555
Li8 O41 2.305050 1_554
Li8 O19 2.491842 1_554
Li8 O28 2.503811 1_555
Li9 O26 2.155515 1_555
Li9 O35 2.159614 1_555
Li9 O43 2.244326 1_555
Li9 O38 2.248415 1_555
Li9 O3 2.469698 1_455
Li9 O33 2.471864 1_565
Li10 O5 2.138765 1_455
Li10 O36 2.231165 1_565
Li10 O40 2.306953 1_565
Li10 O7 2.395820 1_455
Li11 O29 2.169941 1_566
Li11 O42 2.242640 1_565
Li11 O11 2.278487 1_455
Li11 O18 2.380809 1_455
Mn0 O0 1.941024 1_555
Mn0 O1 1.949050 1_555
Mn0 O37 1.984341 1_655
Mn0 O6 1.989933 1_555
Mn0 O5 2.151211 1_555
Mn0 O39 2.335284 1_655
Mn1 O25 1.938712 1_555
Mn1 O15 1.972445 1_555
Mn1 O34 1.973999 1_554
Mn1 O45 1.978471 1_544
Mn1 O29 2.185686 1_555
Mn1 O13 2.294392 1_545
Mn2 O44 1.952290 1_555
Mn2 O39 1.956472 1_555
Mn2 O31 1.962514 1_555
Mn2 O4 1.969685 1_455
Mn2 O36 2.202376 1_555
Mn2 O1 2.377572 1_455
Mn3 O47 1.953080 1_555
Mn3 O41 1.962971 1_555
Mn3 O10 1.971059 1_455
Mn3 O46 2.003613 1_555
Mn3 O42 2.241929 1_555
Mn3 O8 2.344799 1_455
O0 P4 1.565559 1_554
O1 P1 1.573226 1_555
O2 P0 1.551362 1_555
O2 V2 2.022239 1_544
O3 P1 1.559054 1_555
O3 V0 1.965806 1_555
O4 P0 1.565724 1_555
O5 P2 1.564803 1_555
O6 P0 1.553961 1_555
O7 P1 1.574740 1_555
O7 V1 2.109588 1_555
O8 P4 1.566366 1_555
O8 V0 2.011927 1_555
O9 P3 1.547466 1_555
O9 V1 2.025033 1_545
O10 P3 1.563679 1_555
O11 P5 1.570383 1_555
O11 V0 2.138322 1_555
O12 P1 1.519309 1_555
O13 P2 1.564514 1_555
O13 V2 1.980866 1_554
O14 P2 1.561614 1_555
O14 V1 1.941767 1_555
O15 P0 1.560757 1_555
O16 P3 1.553189 1_555
O16 V0 1.978910 1_555
O17 P2 1.521521 1_555
O18 P4 1.574495 1_555
O18 V2 2.097923 1_555
O19 P4 1.518704 1_555
O20 P5 1.584743 1_555
O20 V1 2.033753 1_555
O20 V3 2.172675 1_565
O21 P6 1.518758 1_555
O22 P5 1.553826 1_555
O22 V2 1.960685 1_555
O23 P3 1.557309 1_555
O23 V3 1.967480 1_555
O24 P8 1.555535 1_555
O24 V1 1.987202 1_555
O25 P6 1.560408 1_555
O26 P5 1.517821 1_555
O27 P6 1.588898 1_555
O27 V3 2.038822 1_555
O27 V1 2.144123 1_545
O28 P7 1.521036 1_555
O29 P7 1.565134 1_555
O30 P9 1.517620 1_555
O31 P8 1.556153 1_555
O32 P11 1.555170 1_555
O32 V2 1.988203 1_555
O33 P9 1.556276 1_555
O33 V3 1.953998 1_555
O34 P9 1.597497 1_555
O34 V2 2.154426 1_545
O35 P10 1.516223 1_555
O36 P6 1.561629 1_555
O37 P8 1.558068 1_555
O38 P8 1.553253 1_555
O38 V3 2.012660 1_565
O39 P7 1.579169 1_555
O40 P10 1.569882 1_555
O40 V3 2.176166 1_555
O41 P11 1.560375 1_555
O42 P9 1.559746 1_555
O43 P11 1.548948 1_555
O43 V0 2.017171 1_455
O44 P10 1.561019 1_555
O45 P11 1.562867 1_555
O46 P10 1.599500 1_555
O46 V0 2.201544 1_455
O47 P7 1.567567 1_556
