# generated using pymatgen
data_Ga3NO3
_symmetry_space_group_name_H-M   'P 1'
_cell_length_a   5.95426494
_cell_length_b   5.95426494
_cell_length_c   10.35389192
_cell_angle_alpha   72.95917430
_cell_angle_beta   72.95917430
_cell_angle_gamma   59.59076015
_symmetry_Int_Tables_number   1
_chemical_formula_structural   Ga3NO3
_chemical_formula_sum   'Ga12 N4 O12'
_cell_volume   297.98369364
_cell_formula_units_Z   4
loop_
 _symmetry_equiv_pos_site_id
 _symmetry_equiv_pos_as_xyz
  1  'x, y, z'
loop_
 _atom_site_type_symbol
 _atom_site_label
 _atom_site_symmetry_multiplicity
 _atom_site_fract_x
 _atom_site_fract_y
 _atom_site_fract_z
 _atom_site_occupancy
  Ga  Ga0  1  0.50000000  0.50000000  0.00000000  1
  Ga  Ga1  1  0.06077900  0.06077900  0.80859400  1
  Ga  Ga2  1  0.00000000  0.50000000  0.00000000  1
  Ga  Ga3  1  0.25070000  0.25070000  0.25615900  1
  Ga  Ga4  1  0.74930000  0.74930000  0.74384100  1
  Ga  Ga5  1  0.93922100  0.93922100  0.19140600  1
  Ga  Ga6  1  0.00000000  0.50000000  0.50000000  1
  Ga  Ga7  1  0.50000000  0.00000000  0.00000000  1
  Ga  Ga8  1  0.55143600  0.55143600  0.30362400  1
  Ga  Ga9  1  0.50000000  0.00000000  0.50000000  1
  Ga  Ga10  1  0.44856400  0.44856400  0.69637600  1
  Ga  Ga11  1  0.00000000  0.00000000  0.50000000  1
  N  N0  1  0.36937500  0.36937500  0.89743800  1
  N  N1  1  0.35269700  0.35269700  0.38473600  1
  N  N2  1  0.63062500  0.63062500  0.10256200  1
  N  N3  1  0.64730300  0.64730300  0.61526400  1
  O  O0  1  0.87364800  0.38571000  0.87319100  1
  O  O1  1  0.38571000  0.87364800  0.87319100  1
  O  O2  1  0.12635200  0.61429000  0.12680900  1
  O  O3  1  0.86558200  0.86558200  0.87005300  1
  O  O4  1  0.88378000  0.35872200  0.37693100  1
  O  O5  1  0.61429000  0.12635200  0.12680900  1
  O  O6  1  0.87570800  0.87570800  0.38429700  1
  O  O7  1  0.13441800  0.13441800  0.12994700  1
  O  O8  1  0.35872200  0.88378000  0.37693100  1
  O  O9  1  0.12429200  0.12429200  0.61570300  1
  O  O10  1  0.11622000  0.64127800  0.62306900  1
  O  O11  1  0.64127800  0.11622000  0.62306900  1
loop_
_geom_bond_atom_site_label_1
_geom_bond_atom_site_label_2
_geom_bond_distance
_geom_bond_site_symmetry_2
Ga0 N2 1.979421 1_555
Ga0 N0 1.979421 1_554
Ga0 O2 2.101340 1_555
Ga0 O5 2.101340 1_555
Ga0 O1 2.101340 1_554
Ga0 O0 2.101340 1_554
Ga1 O9 1.879937 1_555
Ga1 O0 1.889788 1_455
Ga1 O1 1.889788 1_545
Ga1 O3 1.899252 1_445
Ga2 N2 1.988281 1_455
Ga2 N0 1.988281 1_554
Ga2 O3 2.083278 1_454
Ga2 O7 2.083278 1_555
Ga2 O2 2.091389 1_555
Ga2 O0 2.091389 1_454
Ga3 N1 1.957315 1_555
Ga3 O4 2.048920 1_455
Ga3 O8 2.048920 1_545
Ga3 O7 2.052401 1_555
Ga3 O2 2.070706 1_555
Ga3 O5 2.070706 1_555
Ga4 N3 1.957315 1_555
Ga4 O10 2.048920 1_655
Ga4 O11 2.048920 1_565
Ga4 O3 2.052401 1_555
Ga4 O0 2.070706 1_555
Ga4 O1 2.070706 1_555
Ga5 O6 1.879937 1_555
Ga5 O2 1.889788 1_655
Ga5 O5 1.889788 1_565
Ga5 O7 1.899252 1_665
Ga6 N3 1.970703 1_455
Ga6 N1 1.970703 1_555
Ga6 O6 2.064022 1_455
Ga6 O9 2.064022 1_555
Ga6 O10 2.131799 1_555
Ga6 O4 2.131799 1_455
Ga7 N2 1.988281 1_545
Ga7 N0 1.988281 1_554
Ga7 O3 2.083278 1_544
Ga7 O7 2.083278 1_555
Ga7 O5 2.091389 1_555
Ga7 O1 2.091389 1_544
Ga8 N1 1.938701 1_555
Ga8 N2 1.962875 1_555
Ga8 O4 1.969728 1_555
Ga8 O8 1.969728 1_555
Ga9 N3 1.970703 1_545
Ga9 N1 1.970703 1_555
Ga9 O6 2.064022 1_545
Ga9 O9 2.064022 1_555
Ga9 O11 2.131799 1_555
Ga9 O8 2.131799 1_545
Ga10 N3 1.938701 1_555
Ga10 N0 1.962875 1_555
Ga10 O10 1.969728 1_555
Ga10 O11 1.969728 1_555
Ga11 O10 2.022386 1_545
Ga11 O11 2.022386 1_455
Ga11 O4 2.022386 1_455
Ga11 O8 2.022386 1_545
Ga11 O9 2.030831 1_555
Ga11 O6 2.030831 1_445
