# generated using pymatgen
data_Mn3Co3(CuO8)2
_symmetry_space_group_name_H-M   'P 1'
_cell_length_a   5.67230817
_cell_length_b   5.68313668
_cell_length_c   8.87920624
_cell_angle_alpha   90.08426617
_cell_angle_beta   92.22209421
_cell_angle_gamma   120.04346305
_symmetry_Int_Tables_number   1
_chemical_formula_structural   Mn3Co3(CuO8)2
_chemical_formula_sum   'Mn3 Co3 Cu2 O16'
_cell_volume   247.51927725
_cell_formula_units_Z   1
loop_
 _symmetry_equiv_pos_site_id
 _symmetry_equiv_pos_as_xyz
  1  'x, y, z'
loop_
 _atom_site_type_symbol
 _atom_site_label
 _atom_site_symmetry_multiplicity
 _atom_site_fract_x
 _atom_site_fract_y
 _atom_site_fract_z
 _atom_site_occupancy
  Mn  Mn0  1  0.66043400  0.83048800  0.21394900  1
  Mn  Mn1  1  0.83434700  0.66373700  0.71222400  1
  Mn  Mn2  1  0.83469300  0.17059100  0.71221000  1
  Co  Co0  1  0.16455800  0.83206500  0.20733900  1
  Co  Co1  1  0.16455100  0.33238700  0.20729600  1
  Co  Co2  1  0.33275500  0.16614200  0.70634800  1
  Cu  Cu0  1  0.33300500  0.66660300  0.48674500  1
  Cu  Cu1  1  0.66892400  0.33453100  0.98920900  1
  O  O0  1  0.16522800  0.84054300  0.60540000  1
  O  O1  1  0.04891900  0.52467200  0.33313000  1
  O  O2  1  0.32331600  0.66151500  0.10142100  1
  O  O3  1  0.00936900  0.00494700  0.31695800  1
  O  O4  1  0.01058500  0.00535500  0.81811500  1
  O  O5  1  0.16523800  0.32377600  0.60556300  1
  O  O6  1  0.47878200  0.96543400  0.33500500  1
  O  O7  1  0.47860800  0.51444000  0.33534800  1
  O  O8  1  0.31109400  0.15554800  0.10787900  1
  O  O9  1  0.66739900  0.83352200  0.59988500  1
  O  O10  1  0.52176400  0.47473100  0.83851900  1
  O  O11  1  0.52199100  0.04725600  0.83859200  1
  O  O12  1  0.65950100  0.32942600  0.60019700  1
  O  O13  1  0.83422200  0.66877300  0.10409500  1
  O  O14  1  0.97639300  0.48841600  0.83623700  1
  O  O15  1  0.83432500  0.16530400  0.10405500  1
loop_
_geom_bond_atom_site_label_1
_geom_bond_atom_site_label_2
_geom_bond_distance
_geom_bond_site_symmetry_2
Mn0 O2 1.894051 1_555
Mn0 O3 1.905009 1_665
Mn0 O6 1.918318 1_555
Mn0 O7 1.920617 1_555
Mn0 O15 1.935584 1_565
Mn0 O13 1.935702 1_555
Mn1 O14 1.895455 1_555
Mn1 O12 1.901046 1_555
Mn1 O4 1.905522 1_665
Mn1 O9 1.915027 1_555
Mn1 O0 1.919481 1_655
Mn1 O10 1.950843 1_555
Mn2 O14 1.895557 1_555
Mn2 O12 1.901517 1_555
Mn2 O4 1.905128 1_655
Mn2 O9 1.914567 1_545
Mn2 O5 1.917217 1_655
Mn2 O11 1.951537 1_555
Co0 O13 1.826397 1_455
Co0 O8 1.839056 1_565
Co0 O6 1.877340 1_555
Co0 O2 1.889939 1_555
Co0 O3 1.901905 1_565
Co0 O1 1.909131 1_555
Co1 O15 1.825911 1_455
Co1 O8 1.836028 1_555
Co1 O7 1.879001 1_555
Co1 O2 1.891453 1_555
Co1 O3 1.901960 1_555
Co1 O1 1.908844 1_555
Co2 O5 1.815232 1_555
Co2 O0 1.816277 1_545
Co2 O12 1.897495 1_555
Co2 O10 1.901589 1_555
Co2 O11 1.902177 1_555
Co2 O4 1.905425 1_555
Cu0 O9 1.885371 1_555
Cu0 O1 1.905930 1_555
Cu0 O0 2.002389 1_555
Cu0 O7 2.008697 1_555
Cu0 O5 2.010477 1_555
Cu0 O6 2.017483 1_555
Cu1 O13 1.914349 1_556
Cu1 O15 1.917612 1_556
Cu1 O11 1.921789 1_555
Cu1 O10 1.924682 1_555
Cu1 O14 2.076391 1_555
Cu1 O8 2.089593 1_556
