# generated using pymatgen
data_Ba2La6Mg4Ti3WO24
_symmetry_space_group_name_H-M   'P 1'
_cell_length_a   5.91351567
_cell_length_b   5.91351567
_cell_length_c   38.62186535
_cell_angle_alpha   83.77299819
_cell_angle_beta   83.77299819
_cell_angle_gamma   56.61351246
_symmetry_Int_Tables_number   1
_chemical_formula_structural   Ba2La6Mg4Ti3WO24
_chemical_formula_sum   'Ba4 La12 Mg8 Ti6 W2 O48'
_cell_volume   1119.12456501
_cell_formula_units_Z   2
loop_
 _symmetry_equiv_pos_site_id
 _symmetry_equiv_pos_as_xyz
  1  'x, y, z'
loop_
 _atom_site_type_symbol
 _atom_site_label
 _atom_site_symmetry_multiplicity
 _atom_site_fract_x
 _atom_site_fract_y
 _atom_site_fract_z
 _atom_site_occupancy
  Ba  Ba0  1  0.15781200  0.15781200  0.96905400  1
  Ba  Ba1  1  0.50949700  0.50949700  0.09332800  1
  Ba  Ba2  1  0.84218800  0.84218800  0.03094600  1
  Ba  Ba3  1  0.49050300  0.49050300  0.90667200  1
  La  La0  1  0.36754400  0.36754400  0.21755600  1
  La  La1  1  0.57413800  0.57413800  0.34840200  1
  La  La2  1  0.87861300  0.87861300  0.14101100  1
  La  La3  1  0.72650200  0.72650200  0.46198600  1
  La  La4  1  0.99396400  0.99396400  0.29242500  1
  La  La5  1  0.84774800  0.84774800  0.58591000  1
  La  La6  1  0.15225200  0.15225200  0.41409000  1
  La  La7  1  0.00603600  0.00603600  0.70757500  1
  La  La8  1  0.27349800  0.27349800  0.53801400  1
  La  La9  1  0.12138700  0.12138700  0.85898900  1
  La  La10  1  0.42586200  0.42586200  0.65159800  1
  La  La11  1  0.63245600  0.63245600  0.78244400  1
  Mg  Mg0  1  0.68496500  0.68496500  0.26031400  1
  Mg  Mg1  1  0.63328900  0.63328900  0.18717900  1
  Mg  Mg2  1  0.50000000  0.50000000  0.00000000  1
  Mg  Mg3  1  0.88749500  0.88749500  0.37750200  1
  Mg  Mg4  1  0.31503500  0.31503500  0.73968600  1
  Mg  Mg5  1  0.00000000  0.00000000  0.50000000  1
  Mg  Mg6  1  0.36671100  0.36671100  0.81282100  1
  Mg  Mg7  1  0.11250500  0.11250500  0.62249800  1
  Ti  Ti0  1  0.09726800  0.09726800  0.19530200  1
  Ti  Ti1  1  0.29696300  0.29696300  0.31379500  1
  Ti  Ti2  1  0.43500300  0.43500300  0.44174800  1
  Ti  Ti3  1  0.56499700  0.56499700  0.55825200  1
  Ti  Ti4  1  0.70303700  0.70303700  0.68620500  1
  Ti  Ti5  1  0.90273200  0.90273200  0.80469800  1
  W  W0  1  0.82276800  0.82276800  0.93735300  1
  W  W1  1  0.17723200  0.17723200  0.06264700  1
  O  O0  1  0.66891400  0.15010300  0.96557500  1
  O  O1  1  0.33188900  0.33188900  0.03055700  1
  O  O2  1  0.15010300  0.66891400  0.96557500  1
  O  O3  1  0.84989700  0.33108600  0.03442500  1
  O  O4  1  0.99360900  0.48654000  0.08993200  1
  O  O5  1  0.66811100  0.66811100  0.96944300  1
  O  O6  1  0.26800500  0.26800500  0.16609300  1
  O  O7  1  0.33108600  0.84989700  0.03442500  1
  O  O8  1  0.48654000  0.99360900  0.08993200  1
  O  O9  1  0.77087400  0.27153400  0.16826400  1
  O  O10  1  0.92435000  0.44710800  0.22050300  1
  O  O11  1  0.00495900  0.00495900  0.09420900  1
  O  O12  1  0.42925500  0.42925500  0.27656700  1
  O  O13  1  0.27153400  0.77087400  0.16826400  1
  O  O14  1  0.44710800  0.92435000  0.22050300  1
  O  O15  1  0.93178500  0.42409000  0.29713000  1
  O  O16  1  0.13273900  0.61876500  0.33901500  1
  O  O17  1  0.95230700  0.95230700  0.23228700  1
  O  O18  1  0.61005100  0.61005100  0.40398000  1
  O  O19  1  0.42409000  0.93178500  0.29713000  1
  O  O20  1  0.61876500  0.13273900  0.33901500  1
  O  O21  1  0.10611500  0.59812600  0.41591000  1
  O  O22  1  0.28860100  0.78979600  0.46246100  1
  O  O23  1  0.08743000  0.08743000  0.36056400  1
  O  O24  1  0.71340200  0.71340200  0.52367200  1
  O  O25  1  0.59812600  0.10611500  0.41591000  1
  O  O26  1  0.78979600  0.28860100  0.46246100  1
  O  O27  1  0.21020400  0.71139900  0.53753900  1
  O  O28  1  0.40187400  0.89388500  0.58409000  1
  O  O29  1  0.28659800  0.28659800  0.47632800  1
  O  O30  1  0.91257000  0.91257000  0.63943600  1
  O  O31  1  0.71139900  0.21020400  0.53753900  1
  O  O32  1  0.89388500  0.40187400  0.58409000  1
  O  O33  1  0.38123500  0.86726100  0.66098500  1
  O  O34  1  0.57591000  0.06821500  0.70287000  1
  O  O35  1  0.38994900  0.38994900  0.59602000  1
  O  O36  1  0.04769300  0.04769300  0.76771300  1
  O  O37  1  0.86726100  0.38123500  0.66098500  1
  O  O38  1  0.06821500  0.57591000  0.70287000  1
  O  O39  1  0.55289200  0.07565000  0.77949700  1
  O  O40  1  0.72846600  0.22912600  0.83173600  1
  O  O41  1  0.57074500  0.57074500  0.72343300  1
  O  O42  1  0.99504100  0.99504100  0.90579100  1
  O  O43  1  0.07565000  0.55289200  0.77949700  1
  O  O44  1  0.22912600  0.72846600  0.83173600  1
  O  O45  1  0.51346000  0.00639100  0.91006800  1
  O  O46  1  0.73199500  0.73199500  0.83390700  1
  O  O47  1  0.00639100  0.51346000  0.91006800  1
loop_
_geom_bond_atom_site_label_1
_geom_bond_atom_site_label_2
_geom_bond_distance
_geom_bond_site_symmetry_2
Ba0 O45 2.783067 1_555
Ba0 O47 2.783067 1_555
Ba0 O5 2.806303 1_545
Ba0 O5 2.806303 1_455
Ba0 O3 2.872340 1_456
Ba0 O7 2.872340 1_546
Ba0 O0 2.934157 1_455
Ba0 O2 2.934157 1_545
Ba0 O2 2.986081 1_555
Ba0 O0 2.986081 1_555
Ba0 O42 3.140534 1_445
Ba0 O1 3.160515 1_556
Ba1 O3 2.744158 1_555
Ba1 O7 2.744158 1_555
Ba1 O8 2.779560 1_555
Ba1 O4 2.779560 1_555
Ba1 O11 2.804676 1_565
Ba1 O11 2.804676 1_655
Ba1 O4 3.144669 1_455
Ba1 O8 3.144669 1_545
Ba1 O1 3.225273 1_555
Ba1 O9 3.230885 1_555
Ba1 O13 3.230885 1_555
Ba2 O4 2.783067 1_555
Ba2 O8 2.783067 1_555
Ba2 O1 2.806303 1_655
Ba2 O1 2.806303 1_565
Ba2 O2 2.872340 1_654
Ba2 O0 2.872340 1_564
Ba2 O3 2.934157 1_565
Ba2 O7 2.934157 1_655
Ba2 O3 2.986081 1_555
Ba2 O7 2.986081 1_555
Ba2 O11 3.140534 1_665
Ba2 O5 3.160515 1_554
Ba3 O2 2.744158 1_555
Ba3 O0 2.744158 1_555
Ba3 O45 2.779560 1_555
Ba3 O47 2.779560 1_555
Ba3 O42 2.804676 1_455
Ba3 O42 2.804676 1_545
Ba3 O47 3.144669 1_655
Ba3 O45 3.144669 1_565
Ba3 O5 3.225273 1_555
Ba3 O40 3.230885 1_555
Ba3 O44 3.230885 1_555
La0 O6 2.352113 1_555
La0 O10 2.385977 1_455
La0 O14 2.385977 1_545
La0 O12 2.442977 1_555
La0 O9 2.719268 1_555
La0 O13 2.719268 1_555
La1 O18 2.223781 1_555
La1 O16 2.537862 1_555
La1 O20 2.537862 1_555
La1 O15 2.566884 1_555
La1 O19 2.566884 1_555
La1 O23 2.849390 1_655
La1 O23 2.849390 1_565
La2 O11 2.100530 1_665
La2 O13 2.380860 1_655
La2 O9 2.380860 1_565
La3 O24 2.369493 1_555
La3 O22 2.402205 1_555
La3 O26 2.402205 1_555
La3 O21 2.516606 1_655
La3 O25 2.516606 1_565
La3 O18 2.675564 1_555
La3 O29 2.940582 1_565
La3 O29 2.940582 1_655
La4 O15 2.386286 1_565
La4 O19 2.386286 1_655
La4 O17 2.414759 1_555
La4 O20 2.506877 1_565
La4 O16 2.506877 1_655
La5 O30 2.252339 1_555
La5 O32 2.505156 1_555
La5 O28 2.505156 1_555
La5 O31 2.508071 1_565
La5 O27 2.508071 1_655
La5 O35 2.872465 1_655
La5 O35 2.872465 1_565
La6 O23 2.252339 1_555
La6 O21 2.505156 1_555
La6 O25 2.505156 1_555
La6 O26 2.508071 1_455
La6 O22 2.508071 1_545
La6 O18 2.872465 1_545
La6 O18 2.872465 1_455
La7 O38 2.386286 1_545
La7 O34 2.386286 1_455
La7 O36 2.414759 1_555
La7 O33 2.506877 1_545
La7 O37 2.506877 1_455
La8 O29 2.369493 1_555
La8 O27 2.402205 1_555
La8 O31 2.402205 1_555
La8 O32 2.516606 1_455
La8 O28 2.516606 1_545
La8 O35 2.675564 1_555
La8 O24 2.940582 1_545
La8 O24 2.940582 1_455
La9 O42 2.100530 1_445
La9 O40 2.380860 1_455
La9 O44 2.380860 1_545
La10 O35 2.223781 1_555
La10 O33 2.537862 1_555
La10 O37 2.537862 1_555
La10 O34 2.566884 1_555
La10 O38 2.566884 1_555
La10 O30 2.849390 1_545
La10 O30 2.849390 1_455
La11 O46 2.352113 1_555
La11 O39 2.385977 1_565
La11 O43 2.385977 1_655
La11 O41 2.442977 1_555
La11 O44 2.719268 1_555
La11 O40 2.719268 1_555
Mg0 O15 2.007063 1_555
Mg0 O19 2.007063 1_555
Mg0 O14 2.037673 1_555
Mg0 O10 2.037673 1_555
Mg1 O14 1.979574 1_555
Mg1 O10 1.979574 1_555
Mg1 O9 2.016566 1_555
Mg1 O13 2.016566 1_555
Mg2 O1 1.986962 1_555
Mg2 O5 1.986962 1_554
Mg2 O3 2.254059 1_555
Mg2 O7 2.254059 1_555
Mg2 O0 2.254059 1_554
Mg2 O2 2.254059 1_554
Mg3 O21 2.056845 1_655
Mg3 O25 2.056845 1_565
Mg3 O16 2.084816 1_655
Mg3 O20 2.084816 1_565
Mg3 O23 2.103945 1_665
Mg4 O34 2.007063 1_555
Mg4 O38 2.007063 1_555
Mg4 O39 2.037673 1_555
Mg4 O43 2.037673 1_555
Mg5 O31 2.019703 1_455
Mg5 O27 2.019703 1_545
Mg5 O26 2.019703 1_455
Mg5 O22 2.019703 1_545
Mg6 O39 1.979574 1_555
Mg6 O43 1.979574 1_555
Mg6 O44 2.016566 1_555
Mg6 O40 2.016566 1_555
Mg7 O32 2.056845 1_455
Mg7 O28 2.056845 1_545
Mg7 O37 2.084816 1_455
Mg7 O33 2.084816 1_545
Mg7 O30 2.103945 1_445
O0 W0 2.016706 1_545
O1 W1 1.907269 1_555
O2 W0 2.016706 1_455
O3 W1 2.016706 1_655
O4 W1 1.902420 1_655
O5 W0 1.907269 1_555
O6 Ti0 1.984736 1_555
O7 W1 2.016706 1_565
O8 W1 1.902420 1_565
O9 Ti0 1.972964 1_655
O10 Ti0 2.040964 1_655
O11 W1 2.040830 1_555
O12 Ti1 1.864635 1_555
O13 Ti0 1.972964 1_565
O14 Ti0 2.040964 1_565
O15 Ti1 2.013121 1_655
O16 Ti1 1.917341 1_555
O17 Ti0 1.946167 1_665
O18 Ti2 2.189740 1_555
O19 Ti1 2.013121 1_565
O20 Ti1 1.917341 1_555
O21 Ti2 1.963760 1_555
O22 Ti2 2.001544 1_555
O24 Ti3 1.913930 1_555
O25 Ti2 1.963760 1_555
O26 Ti2 2.001544 1_555
O27 Ti3 2.001544 1_555
O28 Ti3 1.963760 1_555
O29 Ti2 1.913930 1_555
O31 Ti3 2.001544 1_555
O32 Ti3 1.963760 1_555
O33 Ti4 1.917341 1_555
O34 Ti4 2.013121 1_545
O35 Ti3 2.189740 1_555
O36 Ti5 1.946167 1_445
O37 Ti4 1.917341 1_555
O38 Ti4 2.013121 1_455
O39 Ti5 2.040964 1_545
O40 Ti5 1.972964 1_545
O41 Ti4 1.864635 1_555
O42 W0 2.040830 1_555
O43 Ti5 2.040964 1_455
O44 Ti5 1.972964 1_455
O45 W0 1.902420 1_545
O46 Ti5 1.984736 1_555
O47 W0 1.902420 1_455
