# generated using pymatgen
data_Li3Ni(OF)2
_symmetry_space_group_name_H-M   'P 1'
_cell_length_a   4.99737511
_cell_length_b   11.74676100
_cell_length_c   5.02975393
_cell_angle_alpha   89.99940888
_cell_angle_beta   107.76581465
_cell_angle_gamma   89.99944415
_symmetry_Int_Tables_number   1
_chemical_formula_structural   Li3Ni(OF)2
_chemical_formula_sum   'Li12 Ni4 O8 F8'
_cell_volume   281.18095541
_cell_formula_units_Z   4
loop_
 _symmetry_equiv_pos_site_id
 _symmetry_equiv_pos_as_xyz
  1  'x, y, z'
loop_
 _atom_site_type_symbol
 _atom_site_label
 _atom_site_symmetry_multiplicity
 _atom_site_fract_x
 _atom_site_fract_y
 _atom_site_fract_z
 _atom_site_occupancy
  Li  Li0  1  0.25000300  0.05785300  0.50001800  1
  Li  Li1  1  0.24999400  0.55788100  0.49999100  1
  Li  Li2  1  0.74999800  0.44211300  0.50000100  1
  Li  Li3  1  0.74999700  0.94214200  0.50000700  1
  Li  Li4  1  0.25000100  0.31948300  0.50000100  1
  Li  Li5  1  0.25000200  0.81954000  0.50001700  1
  Li  Li6  1  0.74999900  0.18045400  0.50000800  1
  Li  Li7  1  0.75000300  0.68050900  0.50000300  1
  Li  Li8  1  0.25000800  0.18291900  0.00001200  1
  Li  Li9  1  0.25000100  0.68304200  0.00001600  1
  Li  Li10  1  0.75000900  0.31695700  0.00001400  1
  Li  Li11  1  0.74999500  0.81708000  0.00001100  1
  Ni  Ni0  1  0.24994800  0.94464900  0.00004200  1
  Ni  Ni1  1  0.75001100  0.05535400  0.99998500  1
  Ni  Ni2  1  0.25008600  0.44456500  0.99988700  1
  Ni  Ni3  1  0.74992700  0.55546600  0.99989900  1
  O  O0  1  0.01530500  0.44327400  0.22837700  1
  O  O1  1  0.01531700  0.94326200  0.22847200  1
  O  O2  1  0.48472200  0.44326800  0.77155600  1
  O  O3  1  0.48463600  0.94326600  0.77162400  1
  O  O4  1  0.51535300  0.05673300  0.22843000  1
  O  O5  1  0.51529900  0.55673500  0.22840400  1
  O  O6  1  0.98466900  0.05673300  0.77157800  1
  O  O7  1  0.98469900  0.55673800  0.77156500  1
  F  F0  1  0.00491900  0.31103400  0.75015200  1
  F  F1  1  0.00485700  0.81109200  0.75013500  1
  F  F2  1  0.50486700  0.18890500  0.75012900  1
  F  F3  1  0.50491100  0.68896200  0.75015500  1
  F  F4  1  0.49509500  0.31103400  0.24986100  1
  F  F5  1  0.49513500  0.81109100  0.24989700  1
  F  F6  1  0.99514300  0.18890200  0.24988900  1
  F  F7  1  0.99508900  0.68896400  0.24986200  1
loop_
_geom_bond_atom_site_label_1
_geom_bond_atom_site_label_2
_geom_bond_distance
_geom_bond_site_symmetry_2
Li0 O3 2.018743 1_545
Li0 O1 2.018757 1_545
Li0 O6 2.174684 1_455
Li0 O4 2.174863 1_555
Li1 O2 2.019022 1_555
Li1 O0 2.019059 1_555
Li1 O7 2.174587 1_455
Li1 O5 2.174680 1_555
Li2 O7 2.019097 1_555
Li2 O5 2.019118 1_555
Li2 O2 2.174434 1_555
Li2 O0 2.174841 1_655
Li3 O4 2.018722 1_565
Li3 O6 2.018794 1_565
Li3 O1 2.174526 1_655
Li3 O3 2.175026 1_555
Li4 O2 2.092404 1_555
Li4 O0 2.092540 1_555
Li5 O1 2.091765 1_555
Li5 O3 2.091892 1_555
Li6 O6 2.091791 1_555
Li6 O4 2.091802 1_555
Li7 O7 2.092226 1_555
Li7 O5 2.092390 1_555
Li8 O4 2.084626 1_555
Li8 O6 2.084676 1_454
Li9 O5 2.085474 1_555
Li9 O7 2.085606 1_454
Li10 O0 2.085543 1_655
Li10 O2 2.085607 1_554
Li11 O3 2.084603 1_554
Li11 O1 2.084652 1_655
Ni0 O1 1.875451 1_555
Ni0 O3 1.875634 1_554
Ni0 O6 1.970211 1_464
Ni0 O4 1.970411 1_565
Ni1 O6 1.875467 1_555
Ni1 O4 1.875621 1_556
Ni1 O3 1.970317 1_545
Ni1 O1 1.970384 1_646
Ni2 O2 1.875063 1_555
Ni2 O0 1.876293 1_556
Ni2 O5 1.970857 1_556
Ni2 O7 1.970907 1_455
Ni3 O7 1.875624 1_555
Ni3 O5 1.875731 1_556
Ni3 O2 1.970726 1_555
Ni3 O0 1.971330 1_656
F0 Li4 2.008324 1_555
F0 Li10 2.045483 1_456
F0 Li8 2.098796 1_556
F0 Li6 2.140246 1_455
F0 Li2 2.144431 1_455
F0 Ni2 2.144803 1_555
F1 Li5 2.008441 1_555
F1 Li11 2.045372 1_456
F1 Li9 2.098403 1_556
F1 Li7 2.140110 1_455
F1 Li3 2.144013 1_455
F1 Ni0 2.145234 1_556
F2 Li6 2.008403 1_555
F2 Li8 2.045387 1_556
F2 Li10 2.098460 1_556
F2 Li4 2.140048 1_555
F2 Li0 2.144040 1_555
F2 Ni1 2.145144 1_555
F3 Li7 2.008371 1_555
F3 Li9 2.045478 1_556
F3 Li11 2.098838 1_556
F3 Li5 2.140158 1_555
F3 Ni3 2.144189 1_555
F3 Li1 2.144502 1_555
F4 Li4 2.008328 1_555
F4 Li10 2.045439 1_555
F4 Li8 2.098804 1_555
F4 Li6 2.140183 1_555
F4 Li2 2.144407 1_555
F4 Ni2 2.144952 1_554
F5 Li5 2.008402 1_555
F5 Li11 2.045404 1_555
F5 Li9 2.098410 1_555
F5 Li7 2.140041 1_555
F5 Li3 2.144025 1_555
F5 Ni0 2.145286 1_555
F6 Li6 2.008441 1_555
F6 Li8 2.045386 1_655
F6 Li10 2.098413 1_555
F6 Li4 2.140060 1_655
F6 Li0 2.144006 1_655
F6 Ni1 2.145230 1_554
F7 Li7 2.008303 1_555
F7 Li9 2.045426 1_655
F7 Li11 2.098795 1_555
F7 Li5 2.140220 1_655
F7 Li1 2.144387 1_655
F7 Ni3 2.144982 1_554
