# generated using pymatgen
data_Ni5(P2O7)4
_symmetry_space_group_name_H-M   'P 1'
_cell_length_a   12.75327166
_cell_length_b   9.25425765
_cell_length_c   10.73783949
_cell_angle_alpha   64.37345933
_cell_angle_beta   86.17956207
_cell_angle_gamma   73.93134759
_symmetry_Int_Tables_number   1
_chemical_formula_structural   Ni5(P2O7)4
_chemical_formula_sum   'Ni10 P16 O56'
_cell_volume   1095.93552546
_cell_formula_units_Z   2
loop_
 _symmetry_equiv_pos_site_id
 _symmetry_equiv_pos_as_xyz
  1  'x, y, z'
loop_
 _atom_site_type_symbol
 _atom_site_label
 _atom_site_symmetry_multiplicity
 _atom_site_fract_x
 _atom_site_fract_y
 _atom_site_fract_z
 _atom_site_occupancy
  Ni  Ni0  1  0.81364300  0.49722200  0.75340100  1
  Ni  Ni1  1  0.68635700  0.50277800  0.24659900  1
  Ni  Ni2  1  0.01039600  0.80149200  0.99026900  1
  Ni  Ni3  1  0.36158500  0.89716900  0.71715300  1
  Ni  Ni4  1  0.31434000  0.50515200  0.75704800  1
  Ni  Ni5  1  0.48960400  0.19850800  0.00973100  1
  Ni  Ni6  1  0.64225500  0.10962200  0.28160000  1
  Ni  Ni7  1  0.85774500  0.89037800  0.71840000  1
  Ni  Ni8  1  0.18566000  0.49484800  0.24295200  1
  Ni  Ni9  1  0.13841500  0.10283100  0.28284700  1
  P  P0  1  0.96001100  0.15653600  0.71500300  1
  P  P1  1  0.79142800  0.69911900  0.95597400  1
  P  P2  1  0.28688000  0.70971400  0.95013900  1
  P  P3  1  0.35336100  0.81050300  0.46047000  1
  P  P4  1  0.53998900  0.84346400  0.28499700  1
  P  P5  1  0.85416900  0.79543100  0.45924200  1
  P  P6  1  0.64583100  0.20456900  0.54075800  1
  P  P7  1  0.46028600  0.18995600  0.71794800  1
  P  P8  1  0.21312000  0.29028600  0.04986100  1
  P  P9  1  0.05994500  0.55994600  0.80719200  1
  P  P10  1  0.03971400  0.81004400  0.28205200  1
  P  P11  1  0.14663900  0.18949700  0.53953000  1
  P  P12  1  0.70857200  0.30088100  0.04402600  1
  P  P13  1  0.55733100  0.54336400  0.81305000  1
  P  P14  1  0.94266900  0.45663600  0.18695000  1
  P  P15  1  0.44005500  0.44005400  0.19280800  1
  O  O0  1  0.89077000  0.53325300  0.03087300  1
  O  O1  1  0.47668400  0.43865900  0.82789600  1
  O  O2  1  0.78074600  0.70979100  0.80747800  1
  O  O3  1  0.89161700  0.87065800  0.54470100  1
  O  O4  1  0.63728900  0.71641100  0.26974100  1
  O  O5  1  0.60923000  0.46674700  0.96912700  1
  O  O6  1  0.27483400  0.92524200  0.33466600  1
  O  O7  1  0.69236700  0.67896800  0.03891800  1
  O  O8  1  0.71498100  0.06509100  0.66792800  1
  O  O9  1  0.66277400  0.15053700  0.07103200  1
  O  O10  1  0.86271100  0.28358900  0.73025900  1
  O  O11  1  0.48922200  0.26985600  0.18795600  1
  O  O12  1  0.32233300  0.65663000  0.55920600  1
  O  O13  1  0.03829300  0.25661200  0.60967500  1
  O  O14  1  0.38668200  0.55368700  0.03627100  1
  O  O15  1  0.35120200  0.31841100  0.70190200  1
  O  O16  1  0.99686900  0.27386300  0.22528600  1
  O  O17  1  0.80763300  0.32103200  0.96108200  1
  O  O18  1  0.17766700  0.34337000  0.44079400  1
  O  O19  1  0.80376500  0.65615400  0.54855400  1
  O  O20  1  0.02304800  0.02867800  0.85152100  1
  O  O21  1  0.92535500  0.06909300  0.63772300  1
  O  O22  1  0.21968800  0.29658400  0.19244200  1
  O  O23  1  0.18534700  0.68922700  0.03273000  1
  O  O24  1  0.97665300  0.48870800  0.77569600  1
  O  O25  1  0.60838300  0.12934200  0.45529900  1
  O  O26  1  0.01077800  0.73014400  0.81204400  1
  O  O27  1  0.69623500  0.34384600  0.45144600  1
  O  O28  1  0.44714500  0.05919600  0.67486900  1
  O  O29  1  0.32223400  0.86879200  0.91066600  1
  O  O30  1  0.15393900  0.55620300  0.71187300  1
  O  O31  1  0.17776600  0.13120800  0.08933400  1
  O  O32  1  0.98303600  0.88335100  0.13850900  1
  O  O33  1  0.53835200  0.28472800  0.60322400  1
  O  O34  1  0.46170700  0.74338800  0.39032500  1
  O  O35  1  0.05285500  0.94080400  0.32513100  1
  O  O36  1  0.12054300  0.08667800  0.47138400  1
  O  O37  1  0.14879800  0.68158900  0.29809800  1
  O  O38  1  0.78501900  0.93490900  0.33207200  1
  O  O39  1  0.96164800  0.71527200  0.39677600  1
  O  O40  1  0.65063100  0.51948200  0.72202500  1
  O  O41  1  0.34606100  0.44379700  0.28812700  1
  O  O42  1  0.47695200  0.97132200  0.14847900  1
  O  O43  1  0.28031200  0.70341600  0.80755800  1
  O  O44  1  0.11331800  0.44631300  0.96372900  1
  O  O45  1  0.52334700  0.51129200  0.22430400  1
  O  O46  1  0.37945700  0.91332200  0.52861600  1
  O  O47  1  0.57464500  0.93090700  0.36227700  1
  O  O48  1  0.02331600  0.56134100  0.17210400  1
  O  O49  1  0.84936900  0.48051800  0.27797500  1
  O  O50  1  0.50313100  0.72613700  0.77471400  1
  O  O51  1  0.83722600  0.84946300  0.92896800  1
  O  O52  1  0.22516600  0.07475800  0.66533400  1
  O  O53  1  0.31465300  0.31077300  0.96727000  1
  O  O54  1  0.51696400  0.11664900  0.86149100  1
  O  O55  1  0.71925400  0.29020900  0.19252200  1
loop_
_geom_bond_atom_site_label_1
_geom_bond_atom_site_label_2
_geom_bond_distance
_geom_bond_site_symmetry_2
Ni0 O10 2.020223 1_555
Ni0 O19 2.037968 1_555
Ni0 O40 2.067401 1_555
Ni0 O24 2.084399 1_555
Ni0 O17 2.130418 1_555
Ni0 O2 2.209453 1_555
Ni1 O4 2.020223 1_555
Ni1 O27 2.037968 1_555
Ni1 O49 2.067401 1_555
Ni1 O45 2.084399 1_555
Ni1 O7 2.130418 1_555
Ni1 O55 2.209453 1_555
Ni2 O32 2.012983 1_456
Ni2 O20 2.027861 1_565
Ni2 O23 2.169814 1_556
Ni2 O48 2.205728 1_556
Ni2 O51 2.214943 1_455
Ni2 O26 2.277812 1_555
Ni3 O52 1.947455 1_565
Ni3 O50 1.966378 1_555
Ni3 O46 1.966828 1_555
Ni3 O28 1.973812 1_565
Ni3 O29 2.024973 1_555
Ni3 O43 2.149600 1_555
Ni4 O15 1.989093 1_555
Ni4 O12 1.990674 1_555
Ni4 O30 2.010506 1_555
Ni4 O43 2.058538 1_555
Ni4 O1 2.084159 1_555
Ni4 O53 2.194577 1_555
Ni5 O54 2.012983 1_554
Ni5 O42 2.027861 1_545
Ni5 O53 2.169814 1_554
Ni5 O1 2.205728 1_554
Ni5 O9 2.214943 1_555
Ni5 O11 2.277812 1_555
Ni6 O47 1.918280 1_545
Ni6 O25 1.960133 1_555
Ni6 O38 1.991675 1_545
Ni6 O55 2.018092 1_555
Ni6 O11 2.094906 1_555
Ni6 O9 2.135328 1_555
Ni7 O21 1.918280 1_565
Ni7 O3 1.960133 1_555
Ni7 O8 1.991675 1_565
Ni7 O2 2.018092 1_555
Ni7 O26 2.094906 1_655
Ni7 O51 2.135328 1_555
Ni8 O37 1.989093 1_555
Ni8 O18 1.990674 1_555
Ni8 O41 2.010506 1_555
Ni8 O22 2.058538 1_555
Ni8 O48 2.084159 1_555
Ni8 O23 2.194577 1_555
Ni9 O6 1.947455 1_545
Ni9 O16 1.966378 1_455
Ni9 O36 1.966828 1_555
Ni9 O35 1.973812 1_545
Ni9 O31 2.024973 1_555
Ni9 O22 2.149600 1_555
O0 P1 1.612283 1_554
O0 P14 1.615458 1_555
O1 P13 1.555114 1_555
O2 P1 1.567197 1_555
O3 P5 1.532927 1_555
O4 P4 1.510283 1_555
O5 P12 1.612283 1_556
O5 P13 1.615458 1_555
O6 P3 1.518591 1_555
O7 P1 1.503623 1_554
O8 P6 1.521239 1_555
O9 P12 1.561826 1_555
O10 P0 1.510283 1_555
O11 P15 1.548095 1_555
O12 P3 1.502817 1_555
O13 P0 1.609004 1_455
O13 P11 1.628879 1_555
O14 P2 1.595191 1_554
O14 P15 1.619177 1_555
O15 P7 1.522328 1_555
O16 P14 1.515452 1_555
O17 P12 1.503623 1_556
O18 P11 1.502817 1_555
O19 P5 1.517066 1_555
O20 P0 1.524902 1_455
O21 P0 1.538345 1_555
O22 P8 1.565691 1_555
O23 P2 1.528589 1_554
O24 P9 1.518473 1_655
O25 P6 1.532927 1_555
O26 P9 1.548095 1_555
O27 P6 1.517066 1_555
O28 P7 1.520908 1_555
O29 P2 1.533753 1_555
O30 P9 1.526411 1_555
O31 P8 1.533753 1_555
O32 P10 1.526749 1_655
O33 P6 1.619887 1_555
O33 P7 1.631972 1_555
O34 P4 1.609004 1_555
O34 P3 1.628879 1_555
O35 P10 1.520908 1_555
O36 P11 1.536753 1_555
O37 P10 1.522328 1_555
O38 P5 1.521239 1_555
O39 P5 1.619887 1_555
O39 P10 1.631972 1_655
O40 P13 1.518648 1_555
O41 P15 1.526411 1_555
O42 P4 1.524902 1_555
O43 P2 1.565691 1_555
O44 P8 1.595191 1_556
O44 P9 1.619177 1_555
O45 P15 1.518473 1_555
O46 P3 1.536753 1_555
O47 P4 1.538345 1_555
O48 P14 1.555114 1_455
O49 P14 1.518648 1_555
O50 P13 1.515452 1_555
O51 P1 1.561826 1_555
O52 P11 1.518591 1_555
O53 P8 1.528589 1_556
O54 P7 1.526749 1_555
O55 P12 1.567197 1_555
