# generated using pymatgen
data_LiMn2(BO3)2
_symmetry_space_group_name_H-M   'P 1'
_cell_length_a   9.04786600
_cell_length_b   5.32313100
_cell_length_c   10.36257153
_cell_angle_alpha   88.04147388
_cell_angle_beta   90.00000000
_cell_angle_gamma   90.00000000
_symmetry_Int_Tables_number   1
_chemical_formula_structural   LiMn2(BO3)2
_chemical_formula_sum   'Li4 Mn8 B8 O24'
_cell_volume   498.80072776
_cell_formula_units_Z   4
loop_
 _symmetry_equiv_pos_site_id
 _symmetry_equiv_pos_as_xyz
  1  'x, y, z'
loop_
 _atom_site_type_symbol
 _atom_site_label
 _atom_site_symmetry_multiplicity
 _atom_site_fract_x
 _atom_site_fract_y
 _atom_site_fract_z
 _atom_site_occupancy
  Li  Li0  1  0.99704900  0.13383800  0.91684000  1
  Li  Li1  1  0.51825300  0.37011800  0.66666300  1
  Li  Li2  1  0.48174700  0.37011800  0.16666300  1
  Li  Li3  1  0.00295100  0.13383800  0.41684000  1
  Mn  Mn0  1  0.80538800  0.64942000  0.87440400  1
  Mn  Mn1  1  0.85204100  0.34759800  0.62397800  1
  Mn  Mn2  1  0.69701400  0.85774500  0.13163500  1
  Mn  Mn3  1  0.65420700  0.15443700  0.38770100  1
  Mn  Mn4  1  0.30298600  0.85774500  0.63163500  1
  Mn  Mn5  1  0.34579300  0.15443700  0.88770100  1
  Mn  Mn6  1  0.19461200  0.64942000  0.37440400  1
  Mn  Mn7  1  0.14795900  0.34759800  0.12397800  1
  B  B0  1  0.85163200  0.65867100  0.37078600  1
  B  B1  1  0.64883100  0.84619800  0.63699800  1
  B  B2  1  0.81235000  0.32077000  0.11822800  1
  B  B3  1  0.68684600  0.17596000  0.87340400  1
  B  B4  1  0.35116900  0.84619800  0.13699800  1
  B  B5  1  0.14836800  0.65867100  0.87078600  1
  B  B6  1  0.31315400  0.17596000  0.37340400  1
  B  B7  1  0.18765000  0.32077000  0.61822800  1
  O  O0  1  0.98147900  0.78228400  0.38214000  1
  O  O1  1  0.77186900  0.71025800  0.68996700  1
  O  O2  1  0.80202900  0.56816900  0.06855300  1
  O  O3  1  0.93921300  0.19081400  0.11036900  1
  O  O4  1  0.83351300  0.40884000  0.41502000  1
  O  O5  1  0.69868200  0.93925000  0.93571400  1
  O  O6  1  0.72778100  0.78915300  0.31693200  1
  O  O7  1  0.82249200  0.29245300  0.83805100  1
  O  O8  1  0.51769600  0.72760400  0.62760100  1
  O  O9  1  0.68049900  0.21358800  0.16601000  1
  O  O10  1  0.67083700  0.09533800  0.59337800  1
  O  O11  1  0.48230400  0.72760400  0.12760100  1
  O  O12  1  0.55668200  0.28816900  0.85158400  1
  O  O13  1  0.30131800  0.93925000  0.43571400  1
  O  O14  1  0.27221900  0.78915300  0.81693200  1
  O  O15  1  0.44331800  0.28816900  0.35158400  1
  O  O16  1  0.22813100  0.71025800  0.18996700  1
  O  O17  1  0.31950100  0.21358800  0.66601000  1
  O  O18  1  0.32916300  0.09533800  0.09337800  1
  O  O19  1  0.19797100  0.56816900  0.56855300  1
  O  O20  1  0.01852100  0.78228400  0.88214000  1
  O  O21  1  0.16648700  0.40884000  0.91502000  1
  O  O22  1  0.17750800  0.29245300  0.33805100  1
  O  O23  1  0.06078700  0.19081400  0.61036900  1
loop_
_geom_bond_atom_site_label_1
_geom_bond_atom_site_label_2
_geom_bond_distance
_geom_bond_site_symmetry_2
Li0 O20 1.927448 1_645
Li0 O7 1.956215 1_555
Li0 O3 2.104580 1_556
Li0 O21 2.119349 1_655
Li1 O8 1.931948 1_555
Li1 O12 1.981437 1_555
Li1 O17 1.982049 1_555
Li1 O10 2.167499 1_555
Li2 O11 1.931948 1_555
Li2 O15 1.981437 1_555
Li2 O9 1.982049 1_555
Li2 O18 2.167499 1_555
Li3 O0 1.927448 1_445
Li3 O22 1.956215 1_555
Li3 O23 2.104580 1_555
Li3 O4 2.119349 1_455
Mn0 O5 1.944993 1_555
Mn0 O1 1.951254 1_555
Mn0 O7 1.955883 1_555
Mn0 O2 2.043571 1_556
Mn0 O20 2.056509 1_655
Mn1 O23 2.071634 1_655
Mn1 O10 2.149603 1_555
Mn1 O4 2.185140 1_555
Mn1 O1 2.193353 1_555
Mn1 O7 2.243702 1_555
Mn2 O2 1.942953 1_555
Mn2 O9 1.945077 1_565
Mn2 O6 1.962110 1_555
Mn2 O5 2.061590 1_554
Mn2 O11 2.063394 1_555
Mn3 O15 2.066266 1_555
Mn3 O4 2.138279 1_555
Mn3 O10 2.149046 1_555
Mn3 O6 2.204385 1_545
Mn3 O9 2.320307 1_555
Mn4 O19 1.942953 1_555
Mn4 O17 1.945077 1_565
Mn4 O14 1.962110 1_555
Mn4 O13 2.061590 1_555
Mn4 O8 2.063394 1_555
Mn5 O12 2.066266 1_555
Mn5 O21 2.138279 1_555
Mn5 O18 2.149046 1_556
Mn5 O14 2.204385 1_545
Mn5 O17 2.320307 1_555
Mn6 O13 1.944993 1_555
Mn6 O16 1.951254 1_555
Mn6 O22 1.955883 1_555
Mn6 O19 2.043571 1_555
Mn6 O0 2.056509 1_455
Mn7 O3 2.071634 1_455
Mn7 O18 2.149603 1_555
Mn7 O21 2.185140 1_554
Mn7 O16 2.193353 1_555
Mn7 O22 2.243702 1_555
B0 O0 1.353645 1_555
B0 O4 1.401395 1_555
B0 O6 1.422354 1_555
B1 O8 1.349065 1_555
B1 O10 1.400645 1_565
B1 O1 1.427255 1_555
B2 O3 1.344086 1_555
B2 O2 1.400602 1_555
B2 O9 1.405189 1_555
B3 O12 1.336285 1_555
B3 O5 1.400169 1_545
B3 O7 1.417568 1_555
B4 O11 1.349065 1_555
B4 O18 1.400645 1_565
B4 O16 1.427255 1_555
B5 O20 1.353645 1_555
B5 O21 1.401395 1_555
B5 O14 1.422354 1_555
B6 O15 1.336285 1_555
B6 O13 1.400169 1_545
B6 O22 1.417568 1_555
B7 O23 1.344086 1_555
B7 O19 1.400602 1_555
B7 O17 1.405189 1_555
