# generated using pymatgen
data_MgSO4
_symmetry_space_group_name_H-M   'P 1'
_cell_length_a   4.71387117
_cell_length_b   4.71387176
_cell_length_c   6.44744954
_cell_angle_alpha   90.00000000
_cell_angle_beta   90.00000000
_cell_angle_gamma   113.38189459
_symmetry_Int_Tables_number   1
_chemical_formula_structural   MgSO4
_chemical_formula_sum   'Mg2 S2 O8'
_cell_volume   131.50109472
_cell_formula_units_Z   2
loop_
 _symmetry_equiv_pos_site_id
 _symmetry_equiv_pos_as_xyz
  1  'x, y, z'
loop_
 _atom_site_type_symbol
 _atom_site_label
 _atom_site_symmetry_multiplicity
 _atom_site_fract_x
 _atom_site_fract_y
 _atom_site_fract_z
 _atom_site_occupancy
  Mg  Mg0  1  0.00000000  0.00000000  -0.00000000  1
  Mg  Mg1  1  0.00000000  0.00000000  0.50000000  1
  S  S0  1  0.35096641  0.64903359  0.75000000  1
  S  S1  1  0.64903359  0.35096641  0.25000000  1
  O  O0  1  0.22781191  0.30388798  0.75000000  1
  O  O1  1  0.77218809  0.69611202  0.25000000  1
  O  O2  1  0.30388798  0.22781191  0.25000000  1
  O  O3  1  0.69611202  0.77218809  0.75000000  1
  O  O4  1  0.24925673  0.75074327  0.93750989  1
  O  O5  1  0.75074327  0.24925673  0.43751089  1
  O  O6  1  0.75074327  0.24925673  0.06248911  1
  O  O7  1  0.24925673  0.75074327  0.56249011  1
loop_
_geom_bond_atom_site_label_1
_geom_bond_atom_site_label_2
_geom_bond_distance
_geom_bond_site_symmetry_2
Mg0 O6 2.004785 1_455
Mg0 O4 2.004786 1_544
Mg0 O2 2.140642 1_555
Mg0 O3 2.140642 1_444
Mg0 O1 2.140642 1_445
Mg0 O0 2.140642 1_554
Mg1 O5 2.004785 1_455
Mg1 O7 2.004786 1_545
Mg1 O2 2.140642 1_555
Mg1 O3 2.140642 1_445
Mg1 O1 2.140642 1_445
Mg1 O0 2.140642 1_555
O0 S0 1.494785 1_555
O1 S1 1.494785 1_555
O2 S1 1.494785 1_555
O3 S0 1.494785 1_555
O4 S0 1.450439 1_555
O5 S1 1.450445 1_555
O6 S1 1.450445 1_555
O7 S0 1.450439 1_555
