# generated using pymatgen
data_Ni5Te4(BrO6)2
_symmetry_space_group_name_H-M   'P 1'
_cell_length_a   10.57147200
_cell_length_b   10.57147200
_cell_length_c   16.45824874
_cell_angle_alpha   56.37224868
_cell_angle_beta   56.37224868
_cell_angle_gamma   29.10422541
_symmetry_Int_Tables_number   1
_chemical_formula_structural   Ni5Te4(BrO6)2
_chemical_formula_sum   'Ni10 Te8 Br4 O24'
_cell_volume   733.73764471
_cell_formula_units_Z   2
loop_
 _symmetry_equiv_pos_site_id
 _symmetry_equiv_pos_as_xyz
  1  'x, y, z'
loop_
 _atom_site_type_symbol
 _atom_site_label
 _atom_site_symmetry_multiplicity
 _atom_site_fract_x
 _atom_site_fract_y
 _atom_site_fract_z
 _atom_site_occupancy
  Ni  Ni0  1  0.22766900  0.79196800  0.37777700  1
  Ni  Ni1  1  0.79196800  0.22766900  0.87777700  1
  Ni  Ni2  1  0.69770200  0.13004000  0.47113800  1
  Ni  Ni3  1  0.86996000  0.30229800  0.02886200  1
  Ni  Ni4  1  0.20803200  0.77233100  0.12222300  1
  Ni  Ni5  1  0.13004000  0.69770200  0.97113800  1
  Ni  Ni6  1  0.30229800  0.86996000  0.52886200  1
  Ni  Ni7  1  0.77233100  0.20803200  0.62222300  1
  Ni  Ni8  1  0.24702400  0.75297600  0.75000000  1
  Ni  Ni9  1  0.75297600  0.24702400  0.25000000  1
  Te  Te0  1  0.80513300  0.43846900  0.36378100  1
  Te  Te1  1  0.14026300  0.57275800  0.37995700  1
  Te  Te2  1  0.85973700  0.42724200  0.62004300  1
  Te  Te3  1  0.57275800  0.14026300  0.87995700  1
  Te  Te4  1  0.42724200  0.85973700  0.12004300  1
  Te  Te5  1  0.19486700  0.56153100  0.63621900  1
  Te  Te6  1  0.43846900  0.80513300  0.86378100  1
  Te  Te7  1  0.56153100  0.19486700  0.13621900  1
  Br  Br0  1  0.93311200  0.54148300  0.90145900  1
  Br  Br1  1  0.45851700  0.06688800  0.59854100  1
  Br  Br2  1  0.06688800  0.45851700  0.09854100  1
  Br  Br3  1  0.54148300  0.93311200  0.40145900  1
  O  O0  1  0.05292700  0.76377100  0.51768200  1
  O  O1  1  0.76377100  0.05292700  0.01768200  1
  O  O2  1  0.69005800  0.44897300  0.93010200  1
  O  O3  1  0.93047200  0.91988900  0.35464700  1
  O  O4  1  0.44849600  0.77672400  0.24929900  1
  O  O5  1  0.22327600  0.55150400  0.25070100  1
  O  O6  1  0.91988900  0.93047200  0.85464700  1
  O  O7  1  0.94707300  0.23622900  0.48231800  1
  O  O8  1  0.23622900  0.94707300  0.98231800  1
  O  O9  1  0.43390700  0.44081200  0.86930600  1
  O  O10  1  0.44897300  0.69005800  0.43010200  1
  O  O11  1  0.87303100  0.20587900  0.35654800  1
  O  O12  1  0.08011100  0.06952800  0.14535300  1
  O  O13  1  0.44081200  0.43390700  0.36930600  1
  O  O14  1  0.56609300  0.55918800  0.13069400  1
  O  O15  1  0.20587900  0.87303100  0.85654800  1
  O  O16  1  0.12696900  0.79412100  0.64345200  1
  O  O17  1  0.77672400  0.44849600  0.74929900  1
  O  O18  1  0.79412100  0.12696900  0.14345200  1
  O  O19  1  0.55918800  0.56609300  0.63069400  1
  O  O20  1  0.55102700  0.30994200  0.56989800  1
  O  O21  1  0.55150400  0.22327600  0.75070100  1
  O  O22  1  0.30994200  0.55102700  0.06989800  1
  O  O23  1  0.06952800  0.08011100  0.64535300  1
loop_
_geom_bond_atom_site_label_1
_geom_bond_atom_site_label_2
_geom_bond_distance
_geom_bond_site_symmetry_2
Ni0 O10 2.043301 1_555
Ni0 O4 2.049280 1_555
Ni0 O0 2.072217 1_555
Ni0 O11 2.101144 1_465
Ni0 O13 2.181015 1_555
Ni0 O3 2.274785 1_455
Ni1 O2 2.043301 1_555
Ni1 O17 2.049280 1_555
Ni1 O1 2.072217 1_556
Ni1 O15 2.101144 1_645
Ni1 O9 2.181015 1_555
Ni1 O6 2.274785 1_545
Ni2 O20 2.035292 1_555
Ni2 O0 2.042844 1_645
Ni2 O13 2.082459 1_555
Ni2 O3 2.146093 1_545
Ni2 O11 2.164567 1_555
Ni3 O2 2.035292 1_554
Ni3 O8 2.042844 1_644
Ni3 O14 2.082459 1_555
Ni3 O12 2.146093 1_655
Ni3 O18 2.164567 1_555
Ni4 O22 2.043301 1_555
Ni4 O5 2.049280 1_555
Ni4 O8 2.072217 1_554
Ni4 O18 2.101144 1_465
Ni4 O14 2.181015 1_555
Ni4 O12 2.274785 1_565
Ni5 O22 2.035292 1_556
Ni5 O1 2.042844 1_466
Ni5 O9 2.082459 1_555
Ni5 O6 2.146093 1_455
Ni5 O15 2.164567 1_555
Ni6 O10 2.035292 1_555
Ni6 O7 2.042844 1_465
Ni6 O19 2.082459 1_555
Ni6 O23 2.146093 1_565
Ni6 O16 2.164567 1_555
Ni7 O20 2.043301 1_555
Ni7 O21 2.049280 1_555
Ni7 O7 2.072217 1_555
Ni7 O16 2.101144 1_645
Ni7 O19 2.181015 1_555
Ni7 O23 2.274785 1_655
Ni8 O6 2.022323 1_455
Ni8 O23 2.022323 1_565
Ni8 O9 2.091813 1_555
Ni8 O19 2.091813 1_555
Ni8 O15 2.351723 1_555
Ni8 O16 2.351723 1_555
Ni9 O3 2.022323 1_545
Ni9 O12 2.022323 1_655
Ni9 O13 2.091813 1_555
Ni9 O14 2.091813 1_555
Ni9 O11 2.351723 1_555
Ni9 O18 2.351723 1_555
Br0 Ni3 2.600567 1_556
Br1 Ni2 2.600567 1_555
Br2 Ni5 2.600567 1_554
Br3 Ni6 2.600567 1_555
O0 Te5 1.909216 1_555
O1 Te7 1.909216 1_555
O2 Te6 1.898902 1_555
O3 Te1 1.914903 1_655
O4 Te4 1.860979 1_555
O5 Te1 1.860979 1_555
O6 Te3 1.914903 1_565
O7 Te0 1.909216 1_555
O8 Te6 1.909216 1_555
O9 Te3 1.948990 1_555
O10 Te0 1.898902 1_555
O11 Te0 1.928891 1_555
O12 Te4 1.914903 1_545
O13 Te1 1.948990 1_555
O14 Te4 1.948990 1_555
O15 Te6 1.928891 1_555
O16 Te5 1.928891 1_555
O17 Te2 1.860979 1_555
O18 Te7 1.928891 1_555
O19 Te2 1.948990 1_555
O20 Te5 1.898902 1_555
O21 Te3 1.860979 1_555
O22 Te7 1.898902 1_555
O23 Te2 1.914903 1_455
