# generated using pymatgen
data_Bi5O7F
_symmetry_space_group_name_H-M   'P 1'
_cell_length_a   4.19227200
_cell_length_b   9.75789359
_cell_length_c   13.48316450
_cell_angle_alpha   109.15151876
_cell_angle_beta   89.96832899
_cell_angle_gamma   102.38115028
_symmetry_Int_Tables_number   1
_chemical_formula_structural   Bi5O7F
_chemical_formula_sum   'Bi10 O14 F2'
_cell_volume   507.46331258
_cell_formula_units_Z   2
loop_
 _symmetry_equiv_pos_site_id
 _symmetry_equiv_pos_as_xyz
  1  'x, y, z'
loop_
 _atom_site_type_symbol
 _atom_site_label
 _atom_site_symmetry_multiplicity
 _atom_site_fract_x
 _atom_site_fract_y
 _atom_site_fract_z
 _atom_site_occupancy
  Bi  Bi0  1  0.46802800  0.94427700  0.65083900  1
  Bi  Bi1  1  0.87580200  0.75878200  0.41773300  1
  Bi  Bi2  1  0.25077200  0.50898500  0.12982000  1
  Bi  Bi3  1  0.39906900  0.80532000  0.89557200  1
  Bi  Bi4  1  0.80019800  0.59217000  0.63881500  1
  Bi  Bi5  1  0.19980200  0.40783000  0.36118500  1
  Bi  Bi6  1  0.60093100  0.19468000  0.10442800  1
  Bi  Bi7  1  0.74922800  0.49101500  0.87018000  1
  Bi  Bi8  1  0.12419800  0.24121800  0.58226700  1
  Bi  Bi9  1  0.53197200  0.05572300  0.34916100  1
  O  O0  1  0.93270000  0.87197000  0.59934300  1
  O  O1  1  0.40975200  0.82499300  0.48519300  1
  O  O2  1  0.30523400  0.60661400  0.29598100  1
  O  O3  1  0.37688000  0.76517900  0.71650900  1
  O  O4  1  0.70372600  0.41692300  0.09627100  1
  O  O5  1  0.77382200  0.54576800  0.43598500  1
  O  O6  1  0.84928700  0.69645500  0.82803200  1
  O  O7  1  0.15071300  0.30354500  0.17196800  1
  O  O8  1  0.22617800  0.45423200  0.56401500  1
  O  O9  1  0.29627400  0.58307700  0.90372900  1
  O  O10  1  0.62312000  0.23482100  0.28349100  1
  O  O11  1  0.69476600  0.39338600  0.70401900  1
  O  O12  1  0.59024800  0.17500700  0.51480700  1
  O  O13  1  0.06730000  0.12803000  0.40065700  1
  F  F0  1  0.92352700  0.83730300  0.02952100  1
  F  F1  1  0.07647300  0.16269700  0.97047900  1
loop_
_geom_bond_atom_site_label_1
_geom_bond_atom_site_label_2
_geom_bond_distance
_geom_bond_site_symmetry_2
Bi0 O1 2.139080 1_555
Bi0 O3 2.170888 1_555
Bi0 O0 2.240041 1_455
Bi0 O0 2.245265 1_555
Bi1 O5 2.125611 1_555
Bi1 O1 2.283830 1_555
Bi1 O1 2.291713 1_655
Bi1 O0 2.320762 1_555
Bi1 O2 2.739177 1_555
Bi1 O2 2.772072 1_655
Bi2 O2 2.117986 1_555
Bi2 O7 2.214542 1_555
Bi2 O4 2.254197 1_555
Bi2 O4 2.263226 1_455
Bi3 O9 2.157873 1_555
Bi3 O3 2.314136 1_555
Bi3 O6 2.363824 1_455
Bi3 O6 2.396527 1_555
Bi3 F0 2.688249 1_456
Bi3 F0 2.744759 1_556
Bi4 O11 2.341280 1_555
Bi4 O6 2.407086 1_555
Bi4 O8 2.481146 1_655
Bi4 O8 2.518496 1_555
Bi4 O5 2.619677 1_555
Bi4 O3 2.623823 1_655
Bi4 O3 2.686854 1_555
Bi5 O2 2.341280 1_555
Bi5 O7 2.407086 1_555
Bi5 O5 2.481146 1_455
Bi5 O5 2.518496 1_555
Bi5 O8 2.619677 1_555
Bi5 O10 2.623823 1_455
Bi5 O10 2.686854 1_555
Bi6 O4 2.157873 1_555
Bi6 O10 2.314136 1_555
Bi6 O7 2.363824 1_655
Bi6 O7 2.396527 1_555
Bi6 F1 2.688249 1_654
Bi6 F1 2.744759 1_554
Bi7 O11 2.117986 1_555
Bi7 O6 2.214542 1_555
Bi7 O9 2.254197 1_555
Bi7 O9 2.263226 1_655
Bi8 O8 2.125611 1_555
Bi8 O12 2.283830 1_555
Bi8 O12 2.291713 1_455
Bi8 O13 2.320762 1_555
Bi8 O11 2.739177 1_555
Bi8 O11 2.772072 1_455
Bi9 O12 2.139080 1_555
Bi9 O10 2.170888 1_555
Bi9 O13 2.240041 1_655
Bi9 O13 2.245265 1_555
