# generated using pymatgen
data_Sn2N2O
_symmetry_space_group_name_H-M   'P 1'
_cell_length_a   8.82317700
_cell_length_b   8.85955004
_cell_length_c   8.86847938
_cell_angle_alpha   109.56292488
_cell_angle_beta   109.47578589
_cell_angle_gamma   109.20756374
_symmetry_Int_Tables_number   1
_chemical_formula_structural   Sn2N2O
_chemical_formula_sum   'Sn16 N16 O8'
_cell_volume   534.75450183
_cell_formula_units_Z   8
loop_
 _symmetry_equiv_pos_site_id
 _symmetry_equiv_pos_as_xyz
  1  'x, y, z'
loop_
 _atom_site_type_symbol
 _atom_site_label
 _atom_site_symmetry_multiplicity
 _atom_site_fract_x
 _atom_site_fract_y
 _atom_site_fract_z
 _atom_site_occupancy
  Sn  Sn0  1  0.96454200  0.21486900  0.24825200  1
  Sn  Sn1  1  0.99991200  0.99894000  0.49321500  1
  Sn  Sn2  1  0.73362400  0.75965800  0.96819600  1
  Sn  Sn3  1  0.77945400  0.24008200  0.52941200  1
  Sn  Sn4  1  0.24530300  0.53149500  0.77646800  1
  Sn  Sn5  1  0.25409600  0.02834200  0.28618300  1
  Sn  Sn6  1  0.49251900  0.99835800  0.98661300  1
  Sn  Sn7  1  0.00009800  0.50632100  0.00999700  1
  Sn  Sn8  1  0.46950900  0.72064200  0.26239400  1
  Sn  Sn9  1  0.51415500  0.50488200  0.49880200  1
  Sn  Sn10  1  0.53129900  0.28384400  0.74875700  1
  Sn  Sn11  1  0.74971500  0.47593500  0.20978600  1
  Sn  Sn12  1  0.73802700  0.95602500  0.71270600  1
  Sn  Sn13  1  0.21308900  0.74588400  0.46774100  1
  Sn  Sn14  1  0.29574700  0.25066300  0.03407200  1
  Sn  Sn15  1  0.03636300  0.78657300  0.75182000  1
  N  N0  1  0.03884700  0.27778200  0.53868500  1
  N  N1  1  0.54660400  0.27323100  0.50318600  1
  N  N2  1  0.72581100  0.00156100  0.96014900  1
  N  N3  1  0.27515500  0.04042600  0.54633300  1
  N  N4  1  0.50097000  0.23007100  0.95568800  1
  N  N5  1  0.99590100  0.45229800  0.23005500  1
  N  N6  1  0.78130300  0.73305700  0.73553700  1
  N  N7  1  0.72892100  0.96411700  0.46355700  1
  N  N8  1  0.23613800  0.76504100  0.22432800  1
  N  N9  1  0.26569000  0.00047500  0.04105600  1
  N  N10  1  0.76646400  0.54347600  0.99423600  1
  N  N11  1  0.45697700  0.72680000  0.51015800  1
  N  N12  1  0.26378600  0.75598300  0.73084300  1
  N  N13  1  0.96987700  0.96506000  0.22812000  1
  N  N14  1  0.53691200  0.50485000  0.26292500  1
  N  N15  1  0.95515800  0.73168900  0.46470400  1
  O  O0  1  0.45275700  0.49769600  0.72661000  1
  O  O1  1  0.04446200  0.05936500  0.78124400  1
  O  O2  1  0.71511200  0.22070700  0.26805300  1
  O  O3  1  0.22040300  0.44662500  0.97829000  1
  O  O4  1  0.77871500  0.23091700  0.78088900  1
  O  O5  1  0.50250600  0.75842500  0.04329400  1
  O  O6  1  0.23389900  0.28261000  0.27241700  1
  O  O7  1  0.99018100  0.53522500  0.77523000  1
loop_
_geom_bond_atom_site_label_1
_geom_bond_atom_site_label_2
_geom_bond_distance
_geom_bond_site_symmetry_2
N0 Sn4 2.094687 1_555
N0 Sn3 2.170128 1_455
N0 Sn0 2.246516 1_455
N0 Sn1 2.250702 1_445
N1 Sn3 2.117862 1_555
N1 Sn9 2.174431 1_555
N1 Sn10 2.199408 1_555
N1 Sn5 2.297643 1_555
N2 Sn6 2.140318 1_545
N2 Sn12 2.140890 1_545
N2 Sn2 2.190730 1_545
N2 Sn0 2.257186 1_556
N3 Sn10 2.115703 1_555
N3 Sn1 2.188285 1_445
N3 Sn5 2.214612 1_555
N3 Sn13 2.276492 1_545
N4 Sn10 2.120252 1_555
N4 Sn6 2.141267 1_545
N4 Sn14 2.183341 1_556
N4 Sn11 2.215620 1_556
N5 Sn0 2.097981 1_555
N5 Sn7 2.168218 1_655
N5 Sn11 2.204204 1_555
N5 Sn13 2.288234 1_655
N6 Sn15 2.084589 1_655
N6 Sn9 2.184706 1_555
N6 Sn12 2.191251 1_555
N6 Sn2 2.192769 1_555
N7 Sn8 2.127424 1_555
N7 Sn3 2.161109 1_565
N7 Sn12 2.210272 1_555
N7 Sn1 2.218601 1_555
N8 Sn7 2.122695 1_555
N8 Sn5 2.146982 1_565
N8 Sn8 2.160283 1_555
N8 Sn13 2.290316 1_555
N9 Sn5 2.145403 1_555
N9 Sn14 2.168729 1_555
N9 Sn6 2.214016 1_544
N9 Sn15 2.241833 1_544
N10 Sn2 2.102927 1_555
N10 Sn7 2.159260 1_656
N10 Sn10 2.197653 1_555
N10 Sn11 2.220436 1_556
N11 Sn13 2.131393 1_555
N11 Sn9 2.164277 1_555
N11 Sn12 2.184792 1_555
N11 Sn8 2.220131 1_555
N12 Sn4 2.124948 1_555
N12 Sn6 2.159457 1_555
N12 Sn15 2.169666 1_555
N12 Sn13 2.188685 1_555
N13 Sn2 2.112136 1_554
N13 Sn0 2.177580 1_565
N13 Sn1 2.178788 1_555
N13 Sn5 2.211024 1_665
N14 Sn14 2.150533 1_555
N14 Sn11 2.153776 1_555
N14 Sn9 2.167016 1_555
N14 Sn8 2.181978 1_555
N15 Sn11 2.159922 1_555
N15 Sn1 2.177910 1_555
N15 Sn15 2.226754 1_655
N15 Sn13 2.228052 1_655
O0 Sn4 2.108840 1_555
O0 Sn10 2.265126 1_555
O0 Sn9 2.274295 1_555
O0 Sn2 2.337344 1_555
O1 Sn14 2.117377 1_556
O1 Sn1 2.289586 1_445
O1 Sn15 2.316415 1_545
O1 Sn12 2.328207 1_445
O2 Sn3 2.125139 1_555
O2 Sn6 2.204640 1_544
O2 Sn0 2.281095 1_555
O2 Sn11 2.430376 1_555
O3 Sn14 2.194561 1_556
O3 Sn4 2.207260 1_555
O3 Sn7 2.253532 1_556
O3 Sn8 2.402669 1_556
O4 Sn12 2.172451 1_545
O4 Sn7 2.189688 1_656
O4 Sn3 2.260781 1_555
O4 Sn10 2.326962 1_555
O5 Sn8 2.172802 1_555
O5 Sn4 2.241132 1_554
O5 Sn2 2.344745 1_554
O5 Sn6 2.363965 1_554
O6 Sn0 2.165645 1_455
O6 Sn9 2.204790 1_555
O6 Sn14 2.305644 1_555
O6 Sn5 2.356931 1_555
O7 Sn7 2.158327 1_656
O7 Sn15 2.221911 1_655
O7 Sn4 2.258509 1_655
O7 Sn3 2.308163 1_555
