# generated using pymatgen
data_Li4V2Si3O10
_symmetry_space_group_name_H-M   'P 1'
_cell_length_a   5.37558886
_cell_length_b   5.37558886
_cell_length_c   17.07024380
_cell_angle_alpha   81.93669416
_cell_angle_beta   81.93669416
_cell_angle_gamma   62.78130573
_symmetry_Int_Tables_number   1
_chemical_formula_structural   Li4V2Si3O10
_chemical_formula_sum   'Li8 V4 Si6 O20'
_cell_volume   432.69358747
_cell_formula_units_Z   2
loop_
 _symmetry_equiv_pos_site_id
 _symmetry_equiv_pos_as_xyz
  1  'x, y, z'
loop_
 _atom_site_type_symbol
 _atom_site_label
 _atom_site_symmetry_multiplicity
 _atom_site_fract_x
 _atom_site_fract_y
 _atom_site_fract_z
 _atom_site_occupancy
  Li  Li0  1  0.82945600  0.67551100  0.94789200  1
  Li  Li1  1  0.58013200  0.79267600  0.76884800  1
  Li  Li2  1  0.67551100  0.82945600  0.44789200  1
  Li  Li3  1  0.79267600  0.58013200  0.26884800  1
  Li  Li4  1  0.20732400  0.41986800  0.73115200  1
  Li  Li5  1  0.32448900  0.17054400  0.55210800  1
  Li  Li6  1  0.41986800  0.20732400  0.23115200  1
  Li  Li7  1  0.17054400  0.32448900  0.05210800  1
  V  V0  1  0.20275300  0.99618400  0.91653200  1
  V  V1  1  0.99618400  0.20275300  0.41653200  1
  V  V2  1  0.00381600  0.79724700  0.58346800  1
  V  V3  1  0.79724700  0.00381600  0.08346800  1
  Si  Si0  1  0.66019100  0.46390000  0.59951800  1
  Si  Si1  1  0.88878800  0.11121200  0.75000000  1
  Si  Si2  1  0.53610000  0.33980900  0.90048200  1
  Si  Si3  1  0.46390000  0.66019100  0.09951800  1
  Si  Si4  1  0.11121200  0.88878800  0.25000000  1
  Si  Si5  1  0.33980900  0.53610000  0.40048200  1
  O  O0  1  0.92371200  0.83732200  0.71153800  1
  O  O1  1  0.83732200  0.92371200  0.21153800  1
  O  O2  1  0.61095900  0.78188600  0.56667100  1
  O  O3  1  0.57316200  0.62946800  0.88497800  1
  O  O4  1  0.79588800  0.39997600  0.68724500  1
  O  O5  1  0.77207300  0.09667500  0.95615800  1
  O  O6  1  0.90332500  0.22792700  0.54384200  1
  O  O7  1  0.78188600  0.61095900  0.06667100  1
  O  O8  1  0.62946800  0.57316200  0.38497800  1
  O  O9  1  0.60002400  0.20411200  0.81275500  1
  O  O10  1  0.39997600  0.79588800  0.18724500  1
  O  O11  1  0.37053200  0.42683800  0.61502200  1
  O  O12  1  0.21811400  0.38904100  0.93332900  1
  O  O13  1  0.09667500  0.77207300  0.45615800  1
  O  O14  1  0.22792700  0.90332500  0.04384200  1
  O  O15  1  0.20411200  0.60002400  0.31275500  1
  O  O16  1  0.42683800  0.37053200  0.11502200  1
  O  O17  1  0.38904100  0.21811400  0.43332900  1
  O  O18  1  0.16267800  0.07628800  0.78846200  1
  O  O19  1  0.07628800  0.16267800  0.28846200  1
loop_
_geom_bond_atom_site_label_1
_geom_bond_atom_site_label_2
_geom_bond_distance
_geom_bond_site_symmetry_2
Li0 O12 1.953661 1_655
Li0 O3 1.978480 1_555
Li0 O7 2.008793 1_556
Li0 O5 2.163177 1_565
Li1 O3 2.054808 1_555
Li1 O0 2.063638 1_555
Li1 O18 2.067607 1_565
Li1 O4 2.423606 1_555
Li1 O9 2.483691 1_565
Li2 O17 1.953661 1_565
Li2 O8 1.978480 1_555
Li2 O2 2.008793 1_555
Li2 O13 2.163177 1_655
Li3 O8 2.054808 1_555
Li3 O1 2.063638 1_555
Li3 O19 2.067607 1_655
Li3 O10 2.423606 1_555
Li3 O15 2.483691 1_655
Li4 O11 2.054808 1_555
Li4 O18 2.063638 1_555
Li4 O0 2.067607 1_455
Li4 O9 2.423606 1_555
Li4 O4 2.483691 1_455
Li5 O2 1.953661 1_545
Li5 O11 1.978480 1_555
Li5 O17 2.008793 1_555
Li5 O6 2.163177 1_455
Li6 O16 2.054808 1_555
Li6 O19 2.063638 1_555
Li6 O1 2.067607 1_545
Li6 O15 2.423606 1_555
Li6 O10 2.483691 1_545
Li7 O7 1.953661 1_455
Li7 O16 1.978480 1_555
Li7 O12 2.008793 1_554
Li7 O14 2.163177 1_545
O0 Si1 1.617958 1_565
O0 V2 2.189615 1_655
O1 Si4 1.617958 1_655
O1 V3 2.189615 1_565
O2 Si0 1.632566 1_555
O2 V2 2.210187 1_655
O3 Si2 1.639402 1_555
O3 V0 2.132430 1_555
O4 Si1 1.667625 1_555
O4 Si0 1.680934 1_555
O5 Si2 1.641245 1_555
O5 V0 2.151383 1_645
O5 V3 2.169498 1_556
O6 Si0 1.641245 1_555
O6 V2 2.151383 1_645
O6 V1 2.169498 1_555
O7 Si3 1.632566 1_555
O7 V3 2.210187 1_565
O8 Si5 1.639402 1_555
O8 V1 2.132430 1_555
O9 Si1 1.667625 1_555
O9 Si2 1.680934 1_555
O10 Si4 1.667625 1_555
O10 Si3 1.680934 1_555
O11 Si0 1.639402 1_555
O11 V2 2.132430 1_555
O12 Si2 1.632566 1_555
O12 V0 2.210187 1_545
O13 Si5 1.641245 1_555
O13 V1 2.151383 1_465
O13 V2 2.169498 1_555
O14 Si3 1.641245 1_555
O14 V3 2.151383 1_465
O14 V0 2.169498 1_554
O15 Si4 1.667625 1_555
O15 Si5 1.680934 1_555
O16 Si3 1.639402 1_555
O16 V3 2.132430 1_555
O17 Si5 1.632566 1_555
O17 V1 2.210187 1_455
O18 Si1 1.617958 1_455
O18 V0 2.189615 1_545
O19 Si4 1.617958 1_545
O19 V1 2.189615 1_455
