# generated using pymatgen
data_AlGaO3
_symmetry_space_group_name_H-M   'P 1'
_cell_length_a   5.00167600
_cell_length_b   8.60147700
_cell_length_c   9.27784400
_cell_angle_alpha   90.00000000
_cell_angle_beta   90.00000000
_cell_angle_gamma   90.00000000
_symmetry_Int_Tables_number   1
_chemical_formula_structural   AlGaO3
_chemical_formula_sum   'Al8 Ga8 O24'
_cell_volume   399.14955898
_cell_formula_units_Z   8
loop_
 _symmetry_equiv_pos_site_id
 _symmetry_equiv_pos_as_xyz
  1  'x, y, z'
loop_
 _atom_site_type_symbol
 _atom_site_label
 _atom_site_symmetry_multiplicity
 _atom_site_fract_x
 _atom_site_fract_y
 _atom_site_fract_z
 _atom_site_occupancy
  Al  Al0  1  0.17146500  0.15429900  0.00096200  1
  Al  Al1  1  0.18209600  0.83675200  0.80462300  1
  Al  Al2  1  0.31790400  0.33675200  0.30462300  1
  Al  Al3  1  0.32853500  0.65429900  0.50096200  1
  Al  Al4  1  0.67146500  0.34570100  0.00096200  1
  Al  Al5  1  0.68209600  0.66324800  0.80462300  1
  Al  Al6  1  0.81790400  0.16324800  0.30462300  1
  Al  Al7  1  0.82853500  0.84570100  0.50096200  1
  Ga  Ga0  1  0.16938200  0.46783500  0.79846700  1
  Ga  Ga1  1  0.18788500  0.14923000  0.58363200  1
  Ga  Ga2  1  0.31211500  0.64923000  0.08363200  1
  Ga  Ga3  1  0.33061800  0.96783500  0.29846700  1
  Ga  Ga4  1  0.66938200  0.03216500  0.79846700  1
  Ga  Ga5  1  0.68788500  0.35077000  0.58363200  1
  Ga  Ga6  1  0.81211500  0.85077000  0.08363200  1
  Ga  Ga7  1  0.83061800  0.53216500  0.29846700  1
  O  O0  1  0.00598700  0.32679200  0.94230600  1
  O  O1  1  0.00908200  0.01019800  0.43014500  1
  O  O2  1  0.02045700  0.67750300  0.91807100  1
  O  O3  1  0.15840400  0.82934300  0.17012700  1
  O  O4  1  0.14739200  0.16455000  0.19466500  1
  O  O5  1  0.16014100  0.49281800  0.20139100  1
  O  O6  1  0.33985900  0.99281800  0.70139100  1
  O  O7  1  0.35260800  0.66455000  0.69466500  1
  O  O8  1  0.34159600  0.32934300  0.67012700  1
  O  O9  1  0.47954300  0.17750300  0.41807100  1
  O  O10  1  0.49091800  0.51019800  0.93014500  1
  O  O11  1  0.49401300  0.82679200  0.44230600  1
  O  O12  1  0.50598700  0.17320800  0.94230600  1
  O  O13  1  0.50908200  0.48980200  0.43014500  1
  O  O14  1  0.52045700  0.82249700  0.91807100  1
  O  O15  1  0.65840400  0.67065700  0.17012700  1
  O  O16  1  0.64739200  0.33545000  0.19466500  1
  O  O17  1  0.66014100  0.00718200  0.20139100  1
  O  O18  1  0.83985900  0.50718200  0.70139100  1
  O  O19  1  0.85260800  0.83545000  0.69466500  1
  O  O20  1  0.84159600  0.17065700  0.67012700  1
  O  O21  1  0.97954300  0.32249700  0.41807100  1
  O  O22  1  0.99091800  0.98980200  0.93014500  1
  O  O23  1  0.99401300  0.67320800  0.44230600  1
loop_
_geom_bond_atom_site_label_1
_geom_bond_atom_site_label_2
_geom_bond_distance
_geom_bond_site_symmetry_2
Al0 O12 1.766949 1_554
Al0 O0 1.783967 1_554
Al0 O22 1.802541 1_444
Al0 O4 1.803332 1_555
Al1 O6 1.828115 1_555
Al1 O2 1.907295 1_555
Al1 O19 1.938236 1_455
Al1 O7 1.990484 1_555
Al1 O14 1.996754 1_555
Al1 O22 2.000906 1_455
Al2 O5 1.828115 1_555
Al2 O9 1.907295 1_555
Al2 O16 1.938236 1_555
Al2 O4 1.990484 1_555
Al2 O21 1.996754 1_455
Al2 O13 2.000906 1_555
Al3 O23 1.766949 1_455
Al3 O11 1.783967 1_555
Al3 O13 1.802541 1_555
Al3 O7 1.803332 1_555
Al4 O0 1.766949 1_654
Al4 O12 1.783967 1_554
Al4 O10 1.802541 1_554
Al4 O16 1.803332 1_555
Al5 O18 1.828115 1_555
Al5 O14 1.907295 1_555
Al5 O7 1.938236 1_555
Al5 O19 1.990484 1_555
Al5 O2 1.996754 1_655
Al5 O10 2.000906 1_555
Al6 O17 1.828115 1_555
Al6 O21 1.907295 1_555
Al6 O4 1.938236 1_655
Al6 O16 1.990484 1_555
Al6 O9 1.996754 1_555
Al6 O1 2.000906 1_655
Al7 O11 1.766949 1_555
Al7 O23 1.783967 1_555
Al7 O1 1.802541 1_665
Al7 O19 1.803332 1_555
Ga0 O8 1.891770 1_555
Ga0 O18 1.908450 1_455
Ga0 O0 1.980058 1_555
Ga0 O10 2.052234 1_555
Ga0 O7 2.151822 1_555
Ga0 O2 2.244693 1_555
Ga1 O6 1.892481 1_545
Ga1 O8 1.906619 1_555
Ga1 O20 1.917776 1_455
Ga1 O1 2.063440 1_555
Ga1 O9 2.132281 1_555
Ga1 O21 2.380438 1_455
Ga2 O5 1.892481 1_555
Ga2 O3 1.906619 1_555
Ga2 O15 1.917776 1_555
Ga2 O10 2.063440 1_554
Ga2 O2 2.132281 1_554
Ga2 O14 2.380438 1_554
Ga3 O3 1.891770 1_555
Ga3 O17 1.908450 1_565
Ga3 O11 1.980058 1_555
Ga3 O1 2.052234 1_565
Ga3 O4 2.151822 1_565
Ga3 O9 2.244693 1_565
Ga4 O20 1.891770 1_555
Ga4 O6 1.908450 1_545
Ga4 O12 1.980058 1_555
Ga4 O22 2.052234 1_545
Ga4 O19 2.151822 1_545
Ga4 O14 2.244693 1_545
Ga5 O18 1.892481 1_555
Ga5 O20 1.906619 1_555
Ga5 O8 1.917776 1_555
Ga5 O13 2.063440 1_555
Ga5 O21 2.132281 1_555
Ga5 O9 2.380438 1_555
Ga6 O17 1.892481 1_565
Ga6 O15 1.906619 1_555
Ga6 O3 1.917776 1_655
Ga6 O22 2.063440 1_554
Ga6 O14 2.132281 1_554
Ga6 O2 2.380438 1_654
Ga7 O15 1.891770 1_555
Ga7 O5 1.908450 1_655
Ga7 O23 1.980058 1_555
Ga7 O13 2.052234 1_555
Ga7 O16 2.151822 1_555
Ga7 O21 2.244693 1_555
