# generated using pymatgen
data_Li3Cr(Si2O5)3
_symmetry_space_group_name_H-M   'P 1'
_cell_length_a   11.09501917
_cell_length_b   11.09501917
_cell_length_c   10.16776200
_cell_angle_alpha   90.00000000
_cell_angle_beta   90.00000000
_cell_angle_gamma   100.97609292
_symmetry_Int_Tables_number   1
_chemical_formula_structural   Li3Cr(Si2O5)3
_chemical_formula_sum   'Li12 Cr4 Si24 O60'
_cell_volume   1228.74919661
_cell_formula_units_Z   4
loop_
 _symmetry_equiv_pos_site_id
 _symmetry_equiv_pos_as_xyz
  1  'x, y, z'
loop_
 _atom_site_type_symbol
 _atom_site_label
 _atom_site_symmetry_multiplicity
 _atom_site_fract_x
 _atom_site_fract_y
 _atom_site_fract_z
 _atom_site_occupancy
  Li  Li0  1  0.24111000  0.24111000  0.00000000  1
  Li  Li1  1  0.48772600  0.01227400  0.25000000  1
  Li  Li2  1  0.01227400  0.48772600  0.75000000  1
  Li  Li3  1  0.25889000  0.25889000  0.50000000  1
  Li  Li4  1  0.42932500  0.57067500  0.26218600  1
  Li  Li5  1  0.57067500  0.42932500  0.73781400  1
  Li  Li6  1  0.07067500  0.92932500  0.76218600  1
  Li  Li7  1  0.92932500  0.07067500  0.23781400  1
  Li  Li8  1  0.74111000  0.74111000  0.50000000  1
  Li  Li9  1  0.51227400  0.98772600  0.75000000  1
  Li  Li10  1  0.98772600  0.51227400  0.25000000  1
  Li  Li11  1  0.75889000  0.75889000  0.00000000  1
  Cr  Cr0  1  0.16057800  0.33942200  0.25000000  1
  Cr  Cr1  1  0.33942200  0.16057800  0.75000000  1
  Cr  Cr2  1  0.83942200  0.66057800  0.75000000  1
  Cr  Cr3  1  0.66057800  0.83942200  0.25000000  1
  Si  Si0  1  0.18843000  0.04174100  0.19743400  1
  Si  Si1  1  0.04174100  0.18843000  0.80256600  1
  Si  Si2  1  0.31157000  0.45825900  0.69743400  1
  Si  Si3  1  0.45825900  0.31157000  0.30256600  1
  Si  Si4  1  0.51918200  0.25824400  0.01277100  1
  Si  Si5  1  0.01918200  0.75824400  0.48722900  1
  Si  Si6  1  0.75824400  0.01918200  0.51277100  1
  Si  Si7  1  0.25824400  0.51918200  0.98722900  1
  Si  Si8  1  0.20215400  0.57649900  0.45553300  1
  Si  Si9  1  0.70215400  0.07649900  0.04446700  1
  Si  Si10  1  0.07649900  0.70215400  0.95553300  1
  Si  Si11  1  0.57649900  0.20215400  0.54446700  1
  Si  Si12  1  0.42350100  0.79784600  0.45553300  1
  Si  Si13  1  0.92350100  0.29784600  0.04446700  1
  Si  Si14  1  0.29784600  0.92350100  0.95553300  1
  Si  Si15  1  0.79784600  0.42350100  0.54446700  1
  Si  Si16  1  0.74175600  0.48081800  0.01277100  1
  Si  Si17  1  0.24175600  0.98081800  0.48722900  1
  Si  Si18  1  0.98081800  0.24175600  0.51277100  1
  Si  Si19  1  0.48081800  0.74175600  0.98722900  1
  Si  Si20  1  0.54174100  0.68843000  0.69743400  1
  Si  Si21  1  0.68843000  0.54174100  0.30256600  1
  Si  Si22  1  0.81157000  0.95825900  0.80256600  1
  Si  Si23  1  0.95825900  0.81157000  0.19743400  1
  O  O0  1  0.27846300  0.01097300  0.07994100  1
  O  O1  1  0.01097300  0.27846300  0.92005900  1
  O  O2  1  0.02708800  0.26522300  0.66718400  1
  O  O3  1  0.26522300  0.02708800  0.33281600  1
  O  O4  1  0.15234800  0.17218300  0.16822200  1
  O  O5  1  0.17218300  0.15234800  0.83177800  1
  O  O6  1  0.09509700  0.25343000  0.41598100  1
  O  O7  1  0.25343000  0.09509700  0.58401900  1
  O  O8  1  0.14813200  0.50541200  0.32525500  1
  O  O9  1  0.64813200  0.00541200  0.17474500  1
  O  O10  1  0.50541200  0.14813200  0.67474500  1
  O  O11  1  0.00541200  0.64813200  0.82525500  1
  O  O12  1  0.24657000  0.40490300  0.08401900  1
  O  O13  1  0.40490300  0.24657000  0.91598100  1
  O  O14  1  0.34765200  0.32781700  0.66822200  1
  O  O15  1  0.32781700  0.34765200  0.33177800  1
  O  O16  1  0.23477700  0.47291200  0.83281600  1
  O  O17  1  0.47291200  0.23477700  0.16718400  1
  O  O18  1  0.22153700  0.48902700  0.57994100  1
  O  O19  1  0.48902700  0.22153700  0.42005900  1
  O  O20  1  0.15876400  0.60780000  0.01519400  1
  O  O21  1  0.10780000  0.65876400  0.51519400  1
  O  O22  1  0.65876400  0.10780000  0.48480600  1
  O  O23  1  0.60780000  0.15876400  0.98480600  1
  O  O24  1  0.60353400  0.39646600  0.99385000  1
  O  O25  1  0.33836700  0.66163300  0.41764900  1
  O  O26  1  0.94262200  0.05737800  0.79634100  1
  O  O27  1  0.05737800  0.94262200  0.20365900  1
  O  O28  1  0.10353400  0.89646600  0.50615000  1
  O  O29  1  0.16163300  0.83836700  0.91764900  1
  O  O30  1  0.44262200  0.55737800  0.70365900  1
  O  O31  1  0.39646600  0.60353400  0.00615000  1
  O  O32  1  0.55737800  0.44262200  0.29634100  1
  O  O33  1  0.89646600  0.10353400  0.49385000  1
  O  O34  1  0.66163300  0.33836700  0.58235100  1
  O  O35  1  0.83836700  0.16163300  0.08235100  1
  O  O36  1  0.89220000  0.34123600  0.48480600  1
  O  O37  1  0.34123600  0.89220000  0.51519400  1
  O  O38  1  0.39220000  0.84123600  0.01519400  1
  O  O39  1  0.84123600  0.39220000  0.98480600  1
  O  O40  1  0.77846300  0.51097300  0.42005900  1
  O  O41  1  0.51097300  0.77846300  0.57994100  1
  O  O42  1  0.52708800  0.76522300  0.83281600  1
  O  O43  1  0.76522300  0.52708800  0.16718400  1
  O  O44  1  0.65234800  0.67218300  0.33177800  1
  O  O45  1  0.67218300  0.65234800  0.66822200  1
  O  O46  1  0.59509700  0.75343000  0.08401900  1
  O  O47  1  0.75343000  0.59509700  0.91598100  1
  O  O48  1  0.35186800  0.99458800  0.82525500  1
  O  O49  1  0.49458800  0.85186800  0.32525500  1
  O  O50  1  0.99458800  0.35186800  0.17474500  1
  O  O51  1  0.85186800  0.49458800  0.67474500  1
  O  O52  1  0.74657000  0.90490300  0.41598100  1
  O  O53  1  0.90490300  0.74657000  0.58401900  1
  O  O54  1  0.82781700  0.84765200  0.16822200  1
  O  O55  1  0.84765200  0.82781700  0.83177800  1
  O  O56  1  0.73477700  0.97291200  0.66718400  1
  O  O57  1  0.97291200  0.73477700  0.33281600  1
  O  O58  1  0.72153700  0.98902700  0.92005900  1
  O  O59  1  0.98902700  0.72153700  0.07994100  1
loop_
_geom_bond_atom_site_label_1
_geom_bond_atom_site_label_2
_geom_bond_distance
_geom_bond_site_symmetry_2
Li0 O13 1.998520 1_554
Li0 O12 1.998520 1_555
Li0 O5 2.047808 1_554
Li0 O4 2.047808 1_555
Li1 O9 1.951985 1_555
Li1 O49 1.951985 1_545
Li2 O11 1.951985 1_555
Li2 O51 1.951985 1_455
Li3 O7 1.998520 1_555
Li3 O6 1.998520 1_555
Li3 O14 2.047808 1_555
Li3 O15 2.047808 1_555
Li4 O25 2.218865 1_555
Li4 O32 2.219532 1_555
Li4 O15 2.613572 1_555
Li4 O44 2.613572 1_555
Li4 O31 2.663396 1_555
Li5 O34 2.218865 1_555
Li5 O30 2.219532 1_555
Li5 O45 2.613572 1_555
Li5 O14 2.613572 1_555
Li5 O24 2.663396 1_555
Li6 O29 2.218865 1_555
Li6 O26 2.219532 1_465
Li6 O5 2.613572 1_565
Li6 O55 2.613572 1_455
Li6 O28 2.663396 1_555
Li7 O35 2.218865 1_555
Li7 O27 2.219532 1_645
Li7 O4 2.613572 1_655
Li7 O54 2.613572 1_545
Li7 O33 2.663396 1_555
Li8 O53 1.998520 1_555
Li8 O52 1.998520 1_555
Li8 O44 2.047808 1_555
Li8 O45 2.047808 1_555
Li9 O10 1.951985 1_565
Li9 O48 1.951985 1_555
Li10 O8 1.951985 1_655
Li10 O50 1.951985 1_555
Li11 O47 1.998520 1_554
Li11 O46 1.998520 1_555
Li11 O55 2.047808 1_554
Li11 O54 2.047808 1_555
Cr0 O6 2.005573 1_555
Cr0 O12 2.005573 1_555
Cr0 O4 2.019446 1_555
Cr0 O15 2.019446 1_555
Cr0 O8 2.023147 1_555
Cr0 O50 2.023147 1_455
Cr1 O7 2.005573 1_555
Cr1 O13 2.005573 1_555
Cr1 O5 2.019446 1_555
Cr1 O14 2.019446 1_555
Cr1 O10 2.023147 1_555
Cr1 O48 2.023147 1_545
Cr2 O53 2.005573 1_555
Cr2 O47 2.005573 1_555
Cr2 O45 2.019446 1_555
Cr2 O55 2.019446 1_555
Cr2 O11 2.023147 1_655
Cr2 O51 2.023147 1_555
Cr3 O52 2.005573 1_555
Cr3 O46 2.005573 1_555
Cr3 O54 2.019446 1_555
Cr3 O44 2.019446 1_555
Cr3 O49 2.023147 1_555
Cr3 O9 2.023147 1_565
O0 Si14 1.633311 1_544
O0 Si0 1.634439 1_555
O1 Si13 1.633311 1_456
O1 Si1 1.634439 1_555
O2 Si1 1.643154 1_555
O2 Si18 1.656939 1_455
O3 Si0 1.643154 1_555
O3 Si17 1.656939 1_545
O4 Si0 1.601145 1_555
O5 Si1 1.601145 1_555
O6 Si18 1.590725 1_455
O7 Si17 1.590725 1_545
O8 Si8 1.598737 1_555
O9 Si9 1.598737 1_555
O10 Si11 1.598737 1_555
O11 Si10 1.598737 1_555
O12 Si7 1.590725 1_554
O13 Si4 1.590725 1_556
O14 Si2 1.601145 1_555
O15 Si3 1.601145 1_555
O16 Si2 1.643154 1_555
O16 Si7 1.656939 1_555
O17 Si3 1.643154 1_555
O17 Si4 1.656939 1_555
O18 Si8 1.633311 1_555
O18 Si2 1.634439 1_555
O19 Si11 1.633311 1_555
O19 Si3 1.634439 1_555
O20 Si10 1.631206 1_554
O20 Si7 1.636778 1_554
O21 Si8 1.631206 1_555
O21 Si5 1.636778 1_555
O22 Si11 1.631206 1_555
O22 Si6 1.636778 1_555
O23 Si9 1.631206 1_556
O23 Si4 1.636778 1_556
O24 Si16 1.648699 1_556
O24 Si4 1.648699 1_556
O25 Si8 1.667624 1_555
O25 Si12 1.667624 1_555
O26 Si22 1.648843 1_545
O26 Si1 1.648843 1_655
O27 Si23 1.648843 1_455
O27 Si0 1.648843 1_565
O28 Si5 1.648699 1_555
O28 Si17 1.648699 1_555
O29 Si14 1.667624 1_555
O29 Si10 1.667624 1_555
O30 Si20 1.648843 1_555
O30 Si2 1.648843 1_555
O31 Si19 1.648699 1_554
O31 Si7 1.648699 1_554
O32 Si21 1.648843 1_555
O32 Si3 1.648843 1_555
O33 Si6 1.648699 1_555
O33 Si18 1.648699 1_555
O34 Si11 1.667624 1_555
O34 Si15 1.667624 1_555
O35 Si13 1.667624 1_555
O35 Si9 1.667624 1_555
O36 Si15 1.631206 1_555
O36 Si18 1.636778 1_555
O37 Si12 1.631206 1_555
O37 Si17 1.636778 1_555
O38 Si14 1.631206 1_554
O38 Si19 1.636778 1_554
O39 Si13 1.631206 1_556
O39 Si16 1.636778 1_556
O40 Si15 1.633311 1_555
O40 Si21 1.634439 1_555
O41 Si12 1.633311 1_555
O41 Si20 1.634439 1_555
O42 Si20 1.643154 1_555
O42 Si19 1.656939 1_555
O43 Si21 1.643154 1_555
O43 Si16 1.656939 1_555
O44 Si21 1.601145 1_555
O45 Si20 1.601145 1_555
O46 Si19 1.590725 1_554
O47 Si16 1.590725 1_556
O48 Si14 1.598737 1_555
O49 Si12 1.598737 1_555
O50 Si13 1.598737 1_555
O51 Si15 1.598737 1_555
O52 Si6 1.590725 1_565
O53 Si5 1.590725 1_655
O54 Si23 1.601145 1_555
O55 Si22 1.601145 1_555
O56 Si22 1.643154 1_555
O56 Si6 1.656939 1_565
O57 Si23 1.643154 1_555
O57 Si5 1.656939 1_655
O58 Si9 1.633311 1_566
O58 Si22 1.634439 1_555
O59 Si10 1.633311 1_654
O59 Si23 1.634439 1_555
