# generated using pymatgen
data_V4OF11
_symmetry_space_group_name_H-M   'P 1'
_cell_length_a   5.04893612
_cell_length_b   5.30653502
_cell_length_c   16.88919517
_cell_angle_alpha   88.57428937
_cell_angle_beta   98.35784881
_cell_angle_gamma   117.87934882
_symmetry_Int_Tables_number   1
_chemical_formula_structural   V4OF11
_chemical_formula_sum   'V8 O2 F22'
_cell_volume   395.25280912
_cell_formula_units_Z   2
loop_
 _symmetry_equiv_pos_site_id
 _symmetry_equiv_pos_as_xyz
  1  'x, y, z'
loop_
 _atom_site_type_symbol
 _atom_site_label
 _atom_site_symmetry_multiplicity
 _atom_site_fract_x
 _atom_site_fract_y
 _atom_site_fract_z
 _atom_site_occupancy
  V  V0  1  0.24053599  0.63331279  0.87758799  1
  V  V1  1  0.24721007  0.12725918  0.37558308  1
  V  V2  1  0.49991932  0.24570176  0.74676105  1
  V  V3  1  0.50152740  0.74842991  0.25023948  1
  V  V4  1  0.73196328  0.89415803  0.62588286  1
  V  V5  1  0.75527091  0.37093378  0.12411931  1
  V  V6  1  0.00890652  0.98521330  0.99419587  1
  V  V7  1  0.99322421  0.50606307  0.50102076  1
  O  O0  1  0.08768395  0.83700451  0.91518360  1
  O  O1  1  0.58710172  0.08324777  0.66439583  1
  F  F0  1  0.00172648  0.29913772  0.93439543  1
  F  F1  1  -0.00761531  0.80935036  0.43819293  1
  F  F2  1  0.48553087  0.94144126  0.81373817  1
  F  F3  1  0.07339509  0.02971414  0.71514680  1
  F  F4  1  0.06435991  0.34529276  0.40890439  1
  F  F5  1  0.06145133  0.51809764  0.21634927  1
  F  F6  1  0.56991485  0.76638014  0.96740670  1
  F  F7  1  0.42200091  0.41823692  0.83817891  1
  F  F8  1  0.42805172  0.90756560  0.34129511  1
  F  F9  1  0.43551633  0.72466915  0.53202064  1
  F  F10  1  0.50779485  0.55560847  0.68551991  1
  F  F11  1  0.50315084  0.44478665  0.31308697  1
  F  F12  1  0.55341567  0.27641442  0.46818424  1
  F  F13  1  0.57432967  0.58794984  0.15974020  1
  F  F14  1  0.44287301  0.22893345  0.03335325  1
  F  F15  1  0.92657640  0.66808576  0.59207388  1
  F  F16  1  0.92509616  0.46847614  0.78409657  1
  F  F17  1  0.94182252  0.97615125  0.28315890  1
  F  F18  1  0.50312366  0.05256773  0.18691773  1
  F  F19  1  0.00936983  0.70076456  0.06578984  1
  F  F20  1  0.99186326  0.19173932  0.56179143  1
  F  F21  1  0.93290559  0.15731563  0.08569090  1
loop_
_geom_bond_atom_site_label_1
_geom_bond_atom_site_label_2
_geom_bond_distance
_geom_bond_site_symmetry_2
O0 V6 1.748309 1_555
O0 V0 1.767439 1_555
O1 V4 1.679880 1_545
O1 V2 1.861342 1_555
F0 V6 1.938697 1_545
F0 V0 1.941890 1_555
F1 V7 1.906895 1_455
F1 V1 1.973904 1_565
F2 V2 1.927437 1_565
F2 V0 1.942936 1_555
F3 V2 1.903714 1_555
F3 V4 1.975028 1_445
F4 V1 1.920951 1_555
F4 V7 1.947385 1_455
F5 V5 1.912455 1_455
F5 V3 1.970712 1_555
F6 V0 1.946047 1_555
F6 V6 1.947644 1_655
F7 V0 1.943717 1_555
F7 V2 1.990140 1_555
F8 V1 1.926383 1_565
F8 V3 1.933698 1_555
F9 V4 1.919480 1_555
F9 V7 1.968303 1_455
F10 V2 1.908409 1_555
F10 V4 1.965387 1_555
F11 V3 1.909898 1_555
F11 V1 1.973518 1_555
F12 V1 1.917520 1_555
F12 V7 1.966825 1_555
F13 V5 1.923766 1_555
F13 V3 1.928045 1_555
F14 V5 1.910138 1_555
F14 V6 1.970265 1_544
F15 V7 1.924611 1_555
F15 V4 2.007567 1_555
F16 V2 1.916672 1_555
F16 V0 1.956946 1_655
F17 V1 1.913979 1_665
F17 V3 1.967998 1_555
F18 V3 1.911277 1_545
F18 V5 1.972737 1_555
F19 V6 1.911058 1_554
F19 V5 1.965050 1_455
F20 V7 1.934359 1_555
F20 V4 1.943502 1_545
F21 V5 1.915000 1_555
F21 V6 1.984825 1_644
