# generated using pymatgen
data_Li2VGa3O8
_symmetry_space_group_name_H-M   'P 1'
_cell_length_a   5.21117700
_cell_length_b   5.50053249
_cell_length_c   6.63989720
_cell_angle_alpha   89.62288712
_cell_angle_beta   89.52764231
_cell_angle_gamma   89.79710882
_symmetry_Int_Tables_number   1
_chemical_formula_structural   Li2VGa3O8
_chemical_formula_sum   'Li2 V1 Ga3 O8'
_cell_volume   190.31591517
_cell_formula_units_Z   1
loop_
 _symmetry_equiv_pos_site_id
 _symmetry_equiv_pos_as_xyz
  1  'x, y, z'
loop_
 _atom_site_type_symbol
 _atom_site_label
 _atom_site_symmetry_multiplicity
 _atom_site_fract_x
 _atom_site_fract_y
 _atom_site_fract_z
 _atom_site_occupancy
  Li  Li0  1  0.49235200  0.10236700  0.62503900  1
  Li  Li1  1  0.00744200  0.42943300  0.12617100  1
  V  V0  1  0.49960100  0.08242300  0.12408600  1
  Ga  Ga0  1  0.99386100  0.41871700  0.62674800  1
  Ga  Ga1  1  0.48215200  0.57223900  0.38910100  1
  Ga  Ga2  1  0.01280800  0.91196200  0.85978100  1
  O  O0  1  0.16928100  0.07875500  0.08572400  1
  O  O1  1  0.12298800  0.10354900  0.65515900  1
  O  O2  1  0.61000100  0.37613900  0.16609500  1
  O  O3  1  0.63998100  0.42094100  0.59687400  1
  O  O4  1  0.13583200  0.53644100  0.38643600  1
  O  O5  1  0.06565400  0.58894500  0.86488400  1
  O  O6  1  0.56914100  0.90128300  0.33750600  1
  O  O7  1  0.65195200  0.97692100  0.90631100  1
loop_
_geom_bond_atom_site_label_1
_geom_bond_atom_site_label_2
_geom_bond_distance
_geom_bond_site_symmetry_2
Li0 O3 1.923626 1_555
Li0 O1 1.933535 1_555
Li0 O7 2.158804 1_545
Li0 O6 2.245126 1_545
Li1 O4 1.953403 1_555
Li1 O5 1.960859 1_554
Li1 O2 2.107139 1_455
Li1 O0 2.120302 1_555
Ga0 O3 1.856383 1_555
Ga0 O4 1.866303 1_655
Ga0 O1 1.866348 1_655
Ga0 O5 1.883779 1_655
Ga1 O3 1.808611 1_555
Ga1 O4 1.816382 1_555
Ga1 O6 1.895718 1_555
Ga1 O2 1.949263 1_555
Ga2 O5 1.797159 1_555
Ga2 O1 1.805210 1_565
Ga2 O7 1.935577 1_455
Ga2 O0 1.949592 1_566
O0 V0 1.742383 1_555
O2 V0 1.741866 1_555
O6 V0 1.766219 1_565
O7 V0 1.745529 1_566
