# generated using pymatgen
data_Pr2P3(HO2)5
_symmetry_space_group_name_H-M   'P 1'
_cell_length_a   8.07432800
_cell_length_b   9.75131800
_cell_length_c   13.69841087
_cell_angle_alpha   66.95089693
_cell_angle_beta   90.00000000
_cell_angle_gamma   90.00000000
_symmetry_Int_Tables_number   1
_chemical_formula_structural   Pr2P3(HO2)5
_chemical_formula_sum   'Pr8 P12 H20 O40'
_cell_volume   992.44809477
_cell_formula_units_Z   4
loop_
 _symmetry_equiv_pos_site_id
 _symmetry_equiv_pos_as_xyz
  1  'x, y, z'
loop_
 _atom_site_type_symbol
 _atom_site_label
 _atom_site_symmetry_multiplicity
 _atom_site_fract_x
 _atom_site_fract_y
 _atom_site_fract_z
 _atom_site_occupancy
  Pr  Pr0  1  0.08080200  0.81941200  0.23180100  1
  Pr  Pr1  1  0.41919800  0.81941200  0.73180100  1
  Pr  Pr2  1  0.91919800  0.18058800  0.76819900  1
  Pr  Pr3  1  0.58080200  0.18058800  0.26819900  1
  Pr  Pr4  1  0.21154600  0.59187300  0.03595400  1
  Pr  Pr5  1  0.28845400  0.59187300  0.53595400  1
  Pr  Pr6  1  0.78845400  0.40812700  0.96404600  1
  Pr  Pr7  1  0.71154600  0.40812700  0.46404600  1
  P  P0  1  0.19593200  0.23351400  0.10044200  1
  P  P1  1  0.30406800  0.23351400  0.60044200  1
  P  P2  1  0.80406800  0.76648600  0.89955800  1
  P  P3  1  0.69593200  0.76648600  0.39955800  1
  P  P4  1  0.25037300  0.94422900  0.94640800  1
  P  P5  1  0.24962700  0.94422900  0.44640800  1
  P  P6  1  0.74962700  0.05577100  0.05359200  1
  P  P7  1  0.75037300  0.05577100  0.55359200  1
  P  P8  1  0.11335000  0.46226900  0.32422200  1
  P  P9  1  0.38665000  0.46226900  0.82422200  1
  P  P10  1  0.88665000  0.53773100  0.67577800  1
  P  P11  1  0.61335000  0.53773100  0.17577800  1
  H  H0  1  0.26372300  0.20373400  0.01600300  1
  H  H1  1  0.23627700  0.20373400  0.51600300  1
  H  H2  1  0.73627700  0.79626600  0.98399700  1
  H  H3  1  0.76372300  0.79626600  0.48399700  1
  H  H4  1  0.38651200  0.99984500  0.98378200  1
  H  H5  1  0.11348800  0.99984500  0.48378200  1
  H  H6  1  0.61348800  0.00015500  0.01621800  1
  H  H7  1  0.88651200  0.00015500  0.51621800  1
  H  H8  1  0.23840500  0.35960800  0.32842600  1
  H  H9  1  0.26159500  0.35960800  0.82842600  1
  H  H10  1  0.76159500  0.64039200  0.67157400  1
  H  H11  1  0.73840500  0.64039200  0.17157400  1
  H  H12  1  0.47161200  0.85934500  0.24545700  1
  H  H13  1  0.02838800  0.85934500  0.74545700  1
  H  H14  1  0.52838800  0.14065500  0.75454300  1
  H  H15  1  0.97161200  0.14065500  0.25454300  1
  H  H16  1  0.42855300  0.76946500  0.17140200  1
  H  H17  1  0.07144700  0.76946500  0.67140200  1
  H  H18  1  0.57144700  0.23053500  0.82859800  1
  H  H19  1  0.92855300  0.23053500  0.32859800  1
  O  O0  1  0.33306500  0.30758100  0.14187700  1
  O  O1  1  0.16693500  0.30758100  0.64187700  1
  O  O2  1  0.66693500  0.69241900  0.85812300  1
  O  O3  1  0.83306500  0.69241900  0.35812300  1
  O  O4  1  0.06019700  0.35487300  0.05173900  1
  O  O5  1  0.43980300  0.35487300  0.55173900  1
  O  O6  1  0.93980300  0.64512700  0.94826100  1
  O  O7  1  0.56019700  0.64512700  0.44826100  1
  O  O8  1  0.12516100  0.08762400  0.18099000  1
  O  O9  1  0.37483900  0.08762400  0.68099000  1
  O  O10  1  0.87483900  0.91237600  0.81901000  1
  O  O11  1  0.62516100  0.91237600  0.31901000  1
  O  O12  1  0.15150800  0.84155700  0.04516500  1
  O  O13  1  0.34849200  0.84155700  0.54516500  1
  O  O14  1  0.84849200  0.15844300  0.95483500  1
  O  O15  1  0.65150800  0.15844300  0.45483500  1
  O  O16  1  0.31917600  0.83700300  0.89655200  1
  O  O17  1  0.18082400  0.83700300  0.39655200  1
  O  O18  1  0.68082400  0.16299700  0.10344800  1
  O  O19  1  0.81917600  0.16299700  0.60344800  1
  O  O20  1  0.15872900  0.07879000  0.86926900  1
  O  O21  1  0.34127100  0.07879000  0.36926900  1
  O  O22  1  0.84127100  0.92121000  0.13073100  1
  O  O23  1  0.65872900  0.92121000  0.63073100  1
  O  O24  1  0.17295800  0.56052100  0.38229000  1
  O  O25  1  0.32704200  0.56052100  0.88229000  1
  O  O26  1  0.82704200  0.43947900  0.61771000  1
  O  O27  1  0.67295800  0.43947900  0.11771000  1
  O  O28  1  0.08749100  0.56858700  0.20639200  1
  O  O29  1  0.41250900  0.56858700  0.70639200  1
  O  O30  1  0.91250900  0.43141300  0.79360800  1
  O  O31  1  0.58749100  0.43141300  0.29360800  1
  O  O32  1  0.95773700  0.37244100  0.37350200  1
  O  O33  1  0.54226300  0.37244100  0.87350200  1
  O  O34  1  0.04226300  0.62755900  0.62649800  1
  O  O35  1  0.45773700  0.62755900  0.12649800  1
  O  O36  1  0.38448500  0.84018200  0.20134500  1
  O  O37  1  0.11551500  0.84018200  0.70134500  1
  O  O38  1  0.61551500  0.15981800  0.79865500  1
  O  O39  1  0.88448500  0.15981800  0.29865500  1
loop_
_geom_bond_atom_site_label_1
_geom_bond_atom_site_label_2
_geom_bond_distance
_geom_bond_site_symmetry_2
H0 P0 1.408853 1_555
H1 P1 1.408853 1_555
H2 P2 1.408853 1_555
H3 P3 1.408853 1_555
H4 P4 1.407818 1_555
H5 P5 1.407818 1_555
H6 P6 1.407818 1_555
H7 P7 1.407818 1_555
H8 P8 1.407089 1_555
H9 P9 1.407089 1_555
H10 P10 1.407089 1_555
H11 P11 1.407089 1_555
H12 O36 0.991651 1_555
H13 O37 0.991651 1_555
H14 O38 0.991651 1_555
H15 O39 0.991651 1_555
H16 O36 0.995919 1_555
H16 O35 1.736438 1_555
H17 O37 0.995919 1_555
H17 O34 1.736438 1_555
H18 O38 0.995919 1_555
H18 O33 1.736438 1_555
H19 O39 0.995919 1_555
H19 O32 1.736438 1_555
O0 P0 1.546231 1_555
O0 Pr3 2.617466 1_555
O0 Pr4 2.757453 1_555
O1 P1 1.546231 1_555
O1 Pr2 2.617466 1_455
O1 Pr5 2.757453 1_555
O2 P2 1.546231 1_555
O2 Pr1 2.617466 1_555
O2 Pr6 2.757453 1_555
O3 P3 1.546231 1_555
O3 Pr0 2.617466 1_655
O3 Pr7 2.757453 1_555
O4 P0 1.558358 1_555
O4 Pr6 2.457331 1_454
O4 Pr4 2.547518 1_555
O5 P1 1.558358 1_555
O5 Pr7 2.457331 1_555
O5 Pr5 2.547518 1_555
O6 P2 1.558358 1_555
O6 Pr4 2.457331 1_656
O6 Pr6 2.547518 1_555
O7 P3 1.558358 1_555
O7 Pr5 2.457331 1_555
O7 Pr7 2.547518 1_555
O8 P0 1.529279 1_555
O8 Pr0 2.455140 1_545
O9 P1 1.529279 1_555
O9 Pr1 2.455140 1_545
O10 P2 1.529279 1_555
O10 Pr2 2.455140 1_565
O11 P3 1.529279 1_555
O11 Pr3 2.455140 1_565
O12 P4 1.552143 1_554
O12 Pr4 2.533668 1_555
O12 Pr0 2.544906 1_555
O13 P5 1.552143 1_555
O13 Pr5 2.533668 1_555
O13 Pr1 2.544906 1_555
O14 P6 1.552143 1_556
O14 Pr6 2.533668 1_555
O14 Pr2 2.544906 1_555
O15 P7 1.552143 1_555
O15 Pr7 2.533668 1_555
O15 Pr3 2.544906 1_555
O16 P4 1.558033 1_555
O16 Pr1 2.465372 1_555
O16 Pr4 2.557586 1_556
O17 P5 1.558033 1_555
O17 Pr0 2.465372 1_555
O17 Pr5 2.557586 1_555
O18 P6 1.558033 1_555
O18 Pr3 2.465372 1_555
O18 Pr6 2.557586 1_554
O19 P7 1.558033 1_555
O19 Pr2 2.465372 1_555
O19 Pr7 2.557586 1_555
O20 P4 1.516625 1_545
O20 Pr2 2.359367 1_455
O21 P5 1.516625 1_545
O21 Pr3 2.359367 1_555
O22 P6 1.516625 1_565
O22 Pr0 2.359367 1_655
O23 P7 1.516625 1_565
O23 Pr1 2.359367 1_555
O24 P8 1.542418 1_555
O24 Pr5 2.428551 1_555
O24 Pr0 2.664852 1_555
O25 P9 1.542418 1_555
O25 Pr4 2.428551 1_556
O25 Pr1 2.664852 1_555
O26 P10 1.542418 1_555
O26 Pr7 2.428551 1_555
O26 Pr2 2.664852 1_555
O27 P11 1.542418 1_555
O27 Pr6 2.428551 1_554
O27 Pr3 2.664852 1_555
O28 P8 1.553501 1_555
O28 Pr4 2.467939 1_555
O28 Pr0 2.602495 1_555
O29 P9 1.553501 1_555
O29 Pr5 2.467939 1_555
O29 Pr1 2.602495 1_555
O30 P10 1.553501 1_555
O30 Pr6 2.467939 1_555
O30 Pr2 2.602495 1_555
O31 P11 1.553501 1_555
O31 Pr7 2.467939 1_555
O31 Pr3 2.602495 1_555
O32 P8 1.529272 1_655
O32 Pr7 2.439033 1_555
O33 P9 1.529272 1_555
O33 Pr6 2.439033 1_555
O34 P10 1.529272 1_455
O34 Pr5 2.439033 1_555
O35 P11 1.529272 1_555
O35 Pr4 2.439033 1_555
O36 Pr0 2.482215 1_555
O37 Pr1 2.482215 1_555
O38 Pr2 2.482215 1_555
O39 Pr3 2.482215 1_555
