# generated using pymatgen
data_Fe3O4
_symmetry_space_group_name_H-M   'P 1'
_cell_length_a   2.95581600
_cell_length_b   9.79544800
_cell_length_c   10.00548318
_cell_angle_alpha   90.28720356
_cell_angle_beta   90.00000000
_cell_angle_gamma   90.00000000
_symmetry_Int_Tables_number   1
_chemical_formula_structural   Fe3O4
_chemical_formula_sum   'Fe12 O16'
_cell_volume   289.69053751
_cell_formula_units_Z   4
loop_
 _symmetry_equiv_pos_site_id
 _symmetry_equiv_pos_as_xyz
  1  'x, y, z'
loop_
 _atom_site_type_symbol
 _atom_site_label
 _atom_site_symmetry_multiplicity
 _atom_site_fract_x
 _atom_site_fract_y
 _atom_site_fract_z
 _atom_site_occupancy
  Fe  Fe0  1  0.67489100  0.13793300  0.75199400  1
  Fe  Fe1  1  0.72096200  0.36557800  0.24820000  1
  Fe  Fe2  1  0.27903800  0.86557800  0.24820000  1
  Fe  Fe3  1  0.32510900  0.63793300  0.75199400  1
  Fe  Fe4  1  0.77118500  0.88146300  0.57355400  1
  Fe  Fe5  1  0.22881500  0.38146300  0.57355400  1
  Fe  Fe6  1  0.21017100  0.38218900  0.92496700  1
  Fe  Fe7  1  0.24474400  0.11660300  0.42503300  1
  Fe  Fe8  1  0.25478500  0.11759500  0.07649800  1
  Fe  Fe9  1  0.75525600  0.61660300  0.42503300  1
  Fe  Fe10  1  0.78982900  0.88218900  0.92496700  1
  Fe  Fe11  1  0.74521500  0.61759500  0.07649800  1
  O  O0  1  0.24709600  0.47788200  0.38589200  1
  O  O1  1  0.28748300  0.02099400  0.88765900  1
  O  O2  1  0.23383900  0.47883900  0.11322200  1
  O  O3  1  0.75290300  0.97788200  0.38589200  1
  O  O4  1  0.71251700  0.52099400  0.88765900  1
  O  O5  1  0.76616100  0.97883900  0.11322200  1
  O  O6  1  0.73307900  0.51892200  0.60905900  1
  O  O7  1  0.26692100  0.01892200  0.60905900  1
  O  O8  1  0.22516300  0.21081000  0.25086800  1
  O  O9  1  0.82023500  0.79122600  0.75028700  1
  O  O10  1  0.17976500  0.29122600  0.75028700  1
  O  O11  1  0.77483700  0.71081000  0.25086800  1
  O  O12  1  0.27163100  0.75129400  0.00200100  1
  O  O13  1  0.73059500  0.24867100  0.50076500  1
  O  O14  1  0.26940500  0.74867100  0.50076500  1
  O  O15  1  0.72836900  0.25129400  0.00200100  1
loop_
_geom_bond_atom_site_label_1
_geom_bond_atom_site_label_2
_geom_bond_distance
_geom_bond_site_symmetry_2
Fe0 O10 2.096928 1_555
Fe0 O1 2.116950 1_555
Fe0 O10 2.117138 1_655
Fe0 O7 2.200394 1_555
Fe0 O1 2.539464 1_655
Fe0 O7 2.539654 1_655
Fe0 O15 2.736308 1_556
Fe0 O13 2.747654 1_555
Fe1 O8 2.108816 1_555
Fe1 O8 2.126149 1_655
Fe1 O0 2.248287 1_555
Fe1 O2 2.267806 1_555
Fe1 O2 2.316884 1_655
Fe1 O0 2.347648 1_655
Fe2 O11 2.108816 1_555
Fe2 O11 2.126149 1_455
Fe2 O3 2.248285 1_555
Fe2 O5 2.267806 1_555
Fe2 O5 2.316884 1_455
Fe2 O3 2.347650 1_455
Fe3 O9 2.096928 1_555
Fe3 O4 2.116950 1_555
Fe3 O9 2.117138 1_455
Fe3 O6 2.200394 1_555
Fe3 O4 2.539464 1_455
Fe3 O6 2.539654 1_455
Fe3 O12 2.736308 1_556
Fe3 O14 2.747654 1_555
Fe4 O9 1.986170 1_555
Fe4 O7 2.020274 1_665
Fe4 O7 2.038631 1_565
Fe4 O14 2.093219 1_655
Fe4 O14 2.100635 1_555
Fe4 O3 2.106723 1_555
Fe5 O10 1.986170 1_555
Fe5 O6 2.020274 1_455
Fe5 O6 2.038631 1_555
Fe5 O13 2.093219 1_455
Fe5 O13 2.100635 1_555
Fe5 O0 2.106723 1_555
Fe6 O10 1.959858 1_555
Fe6 O4 2.038838 1_455
Fe6 O4 2.048867 1_555
Fe6 O15 2.067865 1_456
Fe6 O2 2.105041 1_556
Fe6 O15 2.143374 1_556
Fe7 O8 1.976791 1_555
Fe7 O3 2.026814 1_445
Fe7 O3 2.061685 1_545
Fe7 O13 2.073704 1_555
Fe7 O7 2.080325 1_555
Fe7 O13 2.132483 1_455
Fe8 O8 1.967039 1_555
Fe8 O5 2.018250 1_445
Fe8 O15 2.059139 1_555
Fe8 O5 2.066910 1_545
Fe8 O1 2.111098 1_554
Fe8 O15 2.168326 1_455
Fe9 O11 1.976791 1_555
Fe9 O0 2.026812 1_655
Fe9 O0 2.061687 1_555
Fe9 O14 2.073704 1_555
Fe9 O6 2.080325 1_555
Fe9 O14 2.132483 1_655
Fe10 O9 1.959858 1_555
Fe10 O1 2.038838 1_665
Fe10 O1 2.048867 1_565
Fe10 O12 2.067865 1_656
Fe10 O5 2.105041 1_556
Fe10 O12 2.143374 1_556
Fe11 O11 1.967039 1_555
Fe11 O2 2.018250 1_655
Fe11 O12 2.059139 1_555
Fe11 O2 2.066910 1_555
Fe11 O4 2.111098 1_554
Fe11 O12 2.168326 1_655
