# generated using pymatgen
data_CoH14N5O9
_symmetry_space_group_name_H-M   'P 1'
_cell_length_a   9.91080500
_cell_length_b   9.68531500
_cell_length_c   14.82065754
_cell_angle_alpha   49.45241733
_cell_angle_beta   90.00000000
_cell_angle_gamma   90.00000000
_symmetry_Int_Tables_number   1
_chemical_formula_structural   CoH14N5O9
_chemical_formula_sum   'Co4 H56 N20 O36'
_cell_volume   1081.00416693
_cell_formula_units_Z   4
loop_
 _symmetry_equiv_pos_site_id
 _symmetry_equiv_pos_as_xyz
  1  'x, y, z'
loop_
 _atom_site_type_symbol
 _atom_site_label
 _atom_site_symmetry_multiplicity
 _atom_site_fract_x
 _atom_site_fract_y
 _atom_site_fract_z
 _atom_site_occupancy
  Co  Co0  1  0.54470200  0.12793000  0.37292300  1
  Co  Co1  1  0.95529800  0.12793000  0.87292300  1
  Co  Co2  1  0.45529800  0.87207000  0.62707700  1
  Co  Co3  1  0.04470200  0.87207000  0.12707700  1
  H  H0  1  0.50731500  0.48689400  0.19326700  1
  H  H1  1  0.99268500  0.48689400  0.69326700  1
  H  H2  1  0.49268500  0.51310600  0.80673300  1
  H  H3  1  0.00731500  0.51310600  0.30673300  1
  H  H4  1  0.49662800  0.38501600  0.13874000  1
  H  H5  1  0.00337200  0.38501600  0.63874000  1
  H  H6  1  0.50337200  0.61498400  0.86126000  1
  H  H7  1  0.99662800  0.61498400  0.36126000  1
  H  H8  1  0.36933900  0.37184100  0.21701100  1
  H  H9  1  0.13066100  0.37184100  0.71701100  1
  H  H10  1  0.63066100  0.62815900  0.78298900  1
  H  H11  1  0.86933900  0.62815900  0.28298900  1
  H  H12  1  0.77732300  0.02587400  0.35031500  1
  H  H13  1  0.72267700  0.02587400  0.85031500  1
  H  H14  1  0.22267700  0.97412600  0.64968500  1
  H  H15  1  0.27732300  0.97412600  0.14968500  1
  H  H16  1  0.68356600  0.10084900  0.23311300  1
  H  H17  1  0.81643400  0.10084900  0.73311300  1
  H  H18  1  0.31643400  0.89915100  0.76688700  1
  H  H19  1  0.18356600  0.89915100  0.26688700  1
  H  H20  1  0.76259100  0.24902200  0.23541100  1
  H  H21  1  0.73740900  0.24902200  0.73541100  1
  H  H22  1  0.23740900  0.75097800  0.76458900  1
  H  H23  1  0.26259100  0.75097800  0.26458900  1
  H  H24  1  0.43711300  0.04320800  0.24710200  1
  H  H25  1  0.06288700  0.04320800  0.74710200  1
  H  H26  1  0.56288700  0.95679200  0.75289800  1
  H  H27  1  0.93711300  0.95679200  0.25289800  1
  H  H28  1  0.33456800  0.97358600  0.35955400  1
  H  H29  1  0.16543200  0.97358600  0.85955400  1
  H  H30  1  0.66543200  0.02641400  0.64044600  1
  H  H31  1  0.83456800  0.02641400  0.14044600  1
  H  H32  1  0.47250500  0.85521700  0.38407800  1
  H  H33  1  0.02749500  0.85521700  0.88407800  1
  H  H34  1  0.52749500  0.14478300  0.61592200  1
  H  H35  1  0.97250500  0.14478300  0.11592200  1
  H  H36  1  0.87632700  0.70827200  0.68569400  1
  H  H37  1  0.62367300  0.70827200  0.18569400  1
  H  H38  1  0.12367300  0.29172800  0.31430600  1
  H  H39  1  0.37632700  0.29172800  0.81430600  1
  H  H40  1  0.85495800  0.66047200  0.81020600  1
  H  H41  1  0.64504200  0.66047200  0.31020600  1
  H  H42  1  0.14504200  0.33952800  0.18979400  1
  H  H43  1  0.35495800  0.33952800  0.68979400  1
  H  H44  1  0.75650200  0.23347200  0.42474400  1
  H  H45  1  0.74349800  0.23347200  0.92474400  1
  H  H46  1  0.24349800  0.76652800  0.57525600  1
  H  H47  1  0.25650200  0.76652800  0.07525600  1
  H  H48  1  0.65436200  0.40464600  0.34937300  1
  H  H49  1  0.84563800  0.40464600  0.84937300  1
  H  H50  1  0.34563800  0.59535400  0.65062700  1
  H  H51  1  0.15436200  0.59535400  0.15062700  1
  H  H52  1  0.37444100  0.21952800  0.45120100  1
  H  H53  1  0.12555900  0.21952800  0.95120100  1
  H  H54  1  0.62555900  0.78047200  0.54879900  1
  H  H55  1  0.87444100  0.78047200  0.04879900  1
  N  N0  1  0.47318600  0.37156700  0.21124400  1
  N  N1  1  0.02681400  0.37156700  0.71124400  1
  N  N2  1  0.52681400  0.62843300  0.78875600  1
  N  N3  1  0.97318600  0.62843300  0.28875600  1
  N  N4  1  0.71251100  0.12684400  0.28723400  1
  N  N5  1  0.78748900  0.12684400  0.78723400  1
  N  N6  1  0.28748900  0.87315600  0.71276600  1
  N  N7  1  0.21251100  0.87315600  0.21276600  1
  N  N8  1  0.43316100  0.98383900  0.33492200  1
  N  N9  1  0.06683900  0.98383900  0.83492200  1
  N  N10  1  0.56683900  0.01616100  0.66507800  1
  N  N11  1  0.93316100  0.01616100  0.16507800  1
  N  N12  1  0.95843400  0.14480300  0.54049000  1
  N  N13  1  0.54156600  0.14480300  0.04049000  1
  N  N14  1  0.04156600  0.85519700  0.45951000  1
  N  N15  1  0.45843400  0.85519700  0.95951000  1
  N  N16  1  0.69148300  0.56047300  0.51313900  1
  N  N17  1  0.80851700  0.56047300  0.01313900  1
  N  N18  1  0.30851700  0.43952700  0.48686100  1
  N  N19  1  0.19148300  0.43952700  0.98686100  1
  O  O0  1  0.83258700  0.62337700  0.76300900  1
  O  O1  1  0.66741300  0.62337700  0.26300900  1
  O  O2  1  0.16741300  0.37662300  0.23699100  1
  O  O3  1  0.33258700  0.37662300  0.73699100  1
  O  O4  1  0.65915800  0.26810700  0.40400900  1
  O  O5  1  0.84084200  0.26810700  0.90400900  1
  O  O6  1  0.34084200  0.73189300  0.59599100  1
  O  O7  1  0.15915800  0.73189300  0.09599100  1
  O  O8  1  0.39804800  0.10651300  0.46685500  1
  O  O9  1  0.10195200  0.10651300  0.96685500  1
  O  O10  1  0.60195200  0.89348700  0.53314500  1
  O  O11  1  0.89804800  0.89348700  0.03314500  1
  O  O12  1  0.92474100  0.20685700  0.43667700  1
  O  O13  1  0.57525900  0.20685700  0.93667700  1
  O  O14  1  0.07525900  0.79314300  0.56332300  1
  O  O15  1  0.42474100  0.79314300  0.06332300  1
  O  O16  1  0.07257100  0.18286200  0.55630100  1
  O  O17  1  0.42742900  0.18286200  0.05630100  1
  O  O18  1  0.92742900  0.81713800  0.44369900  1
  O  O19  1  0.57257100  0.81713800  0.94369900  1
  O  O20  1  0.87658800  0.04603500  0.62607000  1
  O  O21  1  0.62341200  0.04603500  0.12607000  1
  O  O22  1  0.12341200  0.95396500  0.37393000  1
  O  O23  1  0.37658800  0.95396500  0.87393000  1
  O  O24  1  0.66914200  0.54389200  0.60404800  1
  O  O25  1  0.83085800  0.54389200  0.10404800  1
  O  O26  1  0.33085800  0.45610800  0.39595200  1
  O  O27  1  0.16914200  0.45610800  0.89595200  1
  O  O28  1  0.63320100  0.68841000  0.41517000  1
  O  O29  1  0.86679900  0.68841000  0.91517000  1
  O  O30  1  0.36679900  0.31159000  0.58483000  1
  O  O31  1  0.13320100  0.31159000  0.08483000  1
  O  O32  1  0.76990200  0.45315800  0.51861500  1
  O  O33  1  0.73009800  0.45315800  0.01861500  1
  O  O34  1  0.23009800  0.54684200  0.48138500  1
  O  O35  1  0.26990200  0.54684200  0.98138500  1
loop_
_geom_bond_atom_site_label_1
_geom_bond_atom_site_label_2
_geom_bond_distance
_geom_bond_site_symmetry_2
Co0 O8 1.928253 1_555
Co0 O10 2.026377 1_545
Co0 O4 2.038501 1_555
Co0 N4 2.096729 1_555
Co0 N0 2.112063 1_555
Co0 N8 2.123381 1_545
Co1 O9 1.928253 1_655
Co1 O11 2.026377 1_546
Co1 O5 2.038501 1_555
Co1 N5 2.096729 1_555
Co1 N1 2.112063 1_655
Co1 N9 2.123381 1_645
Co2 O10 1.928253 1_555
Co2 O8 2.026377 1_565
Co2 O6 2.038501 1_555
Co2 N6 2.096729 1_555
Co2 N2 2.112063 1_555
Co2 N10 2.123381 1_565
Co3 O11 1.928253 1_455
Co3 O9 2.026377 1_564
Co3 O7 2.038501 1_555
Co3 N7 2.096729 1_555
Co3 N3 2.112063 1_455
Co3 N11 2.123381 1_465
H0 N0 1.022796 1_555
H1 N1 1.022796 1_655
H2 N2 1.022796 1_555
H3 N3 1.022796 1_455
H4 N0 1.021584 1_555
H5 N1 1.021584 1_555
H6 N2 1.021584 1_555
H7 N3 1.021584 1_555
H8 N0 1.032896 1_555
H9 N1 1.032896 1_555
H10 N2 1.032896 1_555
H11 N3 1.032896 1_555
H12 N4 1.026787 1_555
H13 N5 1.026787 1_555
H14 N6 1.026787 1_555
H15 N7 1.026787 1_555
H16 N4 1.025487 1_555
H17 N5 1.025487 1_555
H18 N6 1.025487 1_555
H19 N7 1.025487 1_555
H20 N4 1.027065 1_555
H21 N5 1.027065 1_555
H22 N6 1.027065 1_555
H23 N7 1.027065 1_555
H24 N8 1.026236 1_545
H25 N9 1.026236 1_545
H26 N10 1.026236 1_565
H27 N11 1.026236 1_565
H28 N8 1.025082 1_555
H29 N9 1.025082 1_555
H30 N10 1.025082 1_555
H31 N11 1.025082 1_555
H32 N8 1.026990 1_555
H33 N9 1.026990 1_555
H34 N10 1.026990 1_555
H35 N11 1.026990 1_555
H36 O0 0.975715 1_555
H37 O1 0.975715 1_555
H38 O2 0.975715 1_555
H39 O3 0.975715 1_555
H40 O0 0.997130 1_555
H41 O1 0.997130 1_555
H42 O2 0.997130 1_555
H43 O3 0.997130 1_555
H44 O4 1.001845 1_555
H44 O12 1.678875 1_555
H45 O5 1.001845 1_555
H45 O13 1.678875 1_555
H46 O6 1.001845 1_555
H46 O14 1.678875 1_555
H47 O7 1.001845 1_555
H47 O15 1.678875 1_555
H48 O4 1.007227 1_555
H48 O1 1.617872 1_555
H49 O5 1.007227 1_555
H49 O0 1.617872 1_555
H50 O6 1.007227 1_555
H50 O3 1.617872 1_555
H51 O7 1.007227 1_555
H51 O2 1.617872 1_555
H52 O8 0.988186 1_555
H53 O9 0.988186 1_555
H54 O10 0.988186 1_555
H55 O11 0.988186 1_555
N12 O16 1.258046 1_655
N12 O20 1.266606 1_555
N12 O12 1.279718 1_555
N13 O17 1.258046 1_555
N13 O21 1.266606 1_555
N13 O13 1.279718 1_554
N14 O18 1.258046 1_455
N14 O22 1.266606 1_555
N14 O14 1.279718 1_555
N15 O19 1.258046 1_555
N15 O23 1.266606 1_555
N15 O15 1.279718 1_556
N16 O32 1.257480 1_555
N16 O24 1.268385 1_555
N16 O28 1.279871 1_555
N17 O33 1.257480 1_555
N17 O25 1.268385 1_555
N17 O29 1.279871 1_554
N18 O34 1.257480 1_555
N18 O26 1.268385 1_555
N18 O30 1.279871 1_555
N19 O35 1.257480 1_555
N19 O27 1.268385 1_555
N19 O31 1.279871 1_556
