# generated using pymatgen
data_Sr16Cu8O23
_symmetry_space_group_name_H-M   'P 1'
_cell_length_a   6.87251100
_cell_length_b   10.20548110
_cell_length_c   11.37475334
_cell_angle_alpha   106.43737767
_cell_angle_beta   98.09306654
_cell_angle_gamma   105.43595070
_symmetry_Int_Tables_number   1
_chemical_formula_structural   Sr16Cu8O23
_chemical_formula_sum   'Sr16 Cu8 O23'
_cell_volume   717.15564251
_cell_formula_units_Z   1
loop_
 _symmetry_equiv_pos_site_id
 _symmetry_equiv_pos_as_xyz
  1  'x, y, z'
loop_
 _atom_site_type_symbol
 _atom_site_label
 _atom_site_symmetry_multiplicity
 _atom_site_fract_x
 _atom_site_fract_y
 _atom_site_fract_z
 _atom_site_occupancy
  Sr  Sr0  1  0.28040600  0.99068800  0.37478300  1
  Sr  Sr1  1  0.84431800  0.13563600  0.37546400  1
  Sr  Sr2  1  0.34137800  0.64066000  0.37099000  1
  Sr  Sr3  1  0.40542000  0.11464000  0.12550500  1
  Sr  Sr4  1  0.59458000  0.88536000  0.87449500  1
  Sr  Sr5  1  0.46656500  0.75984700  0.12372900  1
  Sr  Sr6  1  0.90556700  0.61298400  0.12306800  1
  Sr  Sr7  1  0.79269600  0.49025400  0.37124400  1
  Sr  Sr8  1  0.96924300  0.25934300  0.12470200  1
  Sr  Sr9  1  0.03075700  0.74065700  0.87529800  1
  Sr  Sr10  1  0.53343500  0.24015300  0.87627100  1
  Sr  Sr11  1  0.20730400  0.50974600  0.62875600  1
  Sr  Sr12  1  0.65862200  0.35934000  0.62901000  1
  Sr  Sr13  1  0.09443300  0.38701600  0.87693200  1
  Sr  Sr14  1  0.71959400  0.00931200  0.62521700  1
  Sr  Sr15  1  0.15568200  0.86436400  0.62453600  1
  Cu  Cu0  1  0.32070500  0.32013300  0.37952400  1
  Cu  Cu1  1  0.81239300  0.81322300  0.37552700  1
  Cu  Cu2  1  0.93400500  0.93522000  0.12418800  1
  Cu  Cu3  1  0.43814400  0.43697800  0.12664000  1
  Cu  Cu4  1  0.67929500  0.67986700  0.62047600  1
  Cu  Cu5  1  0.56185600  0.56302200  0.87336000  1
  Cu  Cu6  1  0.18760700  0.18677700  0.62447300  1
  Cu  Cu7  1  0.06599500  0.06478000  0.87581200  1
  O  O0  1  0.10292600  0.40210600  0.38459300  1
  O  O1  1  0.55343600  0.25313300  0.38452200  1
  O  O2  1  0.11677200  0.11754000  0.24606400  1
  O  O3  1  0.00000000  0.00000000  0.50000000  1
  O  O4  1  0.04845900  0.73664400  0.37500900  1
  O  O5  1  0.57978400  0.89379100  0.37497000  1
  O  O6  1  0.16678300  0.85643800  0.12216000  1
  O  O7  1  0.69954500  0.01291200  0.12390800  1
  O  O8  1  0.75007700  0.75139500  0.00028600  1
  O  O9  1  0.62620100  0.62553400  0.25290900  1
  O  O10  1  0.67321000  0.35862300  0.12613600  1
  O  O11  1  0.20321300  0.51483400  0.12474000  1
  O  O12  1  0.32679000  0.64137700  0.87386400  1
  O  O13  1  0.79678700  0.48516600  0.87526000  1
  O  O14  1  0.37379900  0.37446600  0.74709100  1
  O  O15  1  0.24992300  0.24860500  0.99971400  1
  O  O16  1  0.89707400  0.59789400  0.61540700  1
  O  O17  1  0.83321700  0.14356200  0.87784000  1
  O  O18  1  0.30045500  0.98708800  0.87609200  1
  O  O19  1  0.42021600  0.10620900  0.62503000  1
  O  O20  1  0.95154100  0.26335600  0.62499100  1
  O  O21  1  0.88322800  0.88246000  0.75393600  1
  O  O22  1  0.44656400  0.74686700  0.61547800  1
loop_
_geom_bond_atom_site_label_1
_geom_bond_atom_site_label_2
_geom_bond_distance
_geom_bond_site_symmetry_2
Cu0 O0 1.899150 1_555
Cu0 O1 1.899360 1_555
Cu0 O2 2.150754 1_555
Cu1 O4 1.979373 1_655
Cu1 O5 1.982790 1_555
Cu1 O9 1.983054 1_555
Cu1 O3 1.987661 1_665
Cu2 O2 1.940990 1_665
Cu2 O8 1.960433 1_555
Cu2 O6 1.972512 1_655
Cu2 O7 1.976141 1_565
Cu3 O11 1.980253 1_555
Cu3 O10 1.984182 1_555
Cu3 O9 2.006365 1_555
Cu3 O15 2.008257 1_554
Cu4 O16 1.899150 1_555
Cu4 O22 1.899360 1_555
Cu4 O21 2.150754 1_555
Cu5 O13 1.980253 1_555
Cu5 O12 1.984182 1_555
Cu5 O14 2.006365 1_555
Cu5 O8 2.008257 1_556
Cu6 O20 1.979373 1_455
Cu6 O19 1.982790 1_555
Cu6 O14 1.983054 1_555
Cu6 O3 1.987661 1_555
Cu7 O21 1.940990 1_445
Cu7 O15 1.960433 1_555
Cu7 O17 1.972512 1_455
Cu7 O18 1.976141 1_545
O0 Sr7 2.526883 1_455
O0 Sr11 2.593770 1_555
O0 Sr2 2.607175 1_555
O0 Sr1 2.789326 1_455
O0 Sr8 2.791260 1_455
O1 Sr1 2.590168 1_555
O1 Sr7 2.596393 1_555
O1 Sr12 2.596589 1_555
O1 Sr3 2.783341 1_555
O1 Sr0 2.793765 1_545
O2 Sr0 2.543313 1_545
O2 Sr1 2.552030 1_455
O2 Sr8 2.558424 1_455
O2 Sr3 2.567268 1_555
O3 Sr1 2.557118 1_455
O3 Sr15 2.557118 1_545
O3 Sr14 2.558339 1_455
O3 Sr0 2.558339 1_545
O4 Sr2 2.462608 1_555
O4 Sr7 2.641852 1_455
O4 Sr0 2.658524 1_555
O4 Sr15 2.665345 1_555
O4 Sr6 2.696438 1_455
O5 Sr0 2.508810 1_555
O5 Sr1 2.645302 1_565
O5 Sr2 2.649514 1_555
O5 Sr14 2.672713 1_565
O5 Sr5 2.690343 1_555
O6 Sr5 2.509460 1_555
O6 Sr9 2.636303 1_554
O6 Sr6 2.653558 1_455
O6 Sr3 2.694436 1_565
O6 Sr0 2.704565 1_555
O7 Sr3 2.506172 1_555
O7 Sr5 2.651155 1_545
O7 Sr4 2.664096 1_544
O7 Sr1 2.693140 1_555
O7 Sr8 2.694725 1_555
O8 Sr4 2.552020 1_554
O8 Sr9 2.559441 1_654
O8 Sr5 2.562555 1_555
O8 Sr6 2.566618 1_555
O9 Sr2 2.538355 1_555
O9 Sr7 2.546781 1_555
O9 Sr6 2.589614 1_555
O9 Sr5 2.593863 1_555
O10 Sr8 2.502655 1_555
O10 Sr7 2.626910 1_555
O10 Sr10 2.670338 1_554
O10 Sr3 2.670918 1_555
O10 Sr6 2.673973 1_555
O11 Sr6 2.505719 1_455
O11 Sr2 2.638720 1_555
O11 Sr13 2.648115 1_554
O11 Sr5 2.672317 1_555
O11 Sr8 2.674223 1_455
O12 Sr9 2.502655 1_555
O12 Sr11 2.626910 1_555
O12 Sr5 2.670338 1_556
O12 Sr4 2.670918 1_555
O12 Sr13 2.673973 1_555
O13 Sr13 2.505719 1_655
O13 Sr12 2.638720 1_555
O13 Sr6 2.648115 1_556
O13 Sr10 2.672317 1_555
O13 Sr9 2.674223 1_655
O14 Sr12 2.538355 1_555
O14 Sr11 2.546781 1_555
O14 Sr13 2.589614 1_555
O14 Sr10 2.593863 1_555
O15 Sr3 2.552020 1_556
O15 Sr8 2.559441 1_456
O15 Sr10 2.562555 1_555
O15 Sr13 2.566618 1_555
O16 Sr11 2.526883 1_655
O16 Sr7 2.593770 1_555
O16 Sr12 2.607175 1_555
O16 Sr15 2.789326 1_655
O16 Sr9 2.791260 1_655
O17 Sr10 2.509460 1_555
O17 Sr8 2.636303 1_556
O17 Sr13 2.653558 1_655
O17 Sr4 2.694436 1_545
O17 Sr14 2.704565 1_555
O18 Sr4 2.506172 1_555
O18 Sr10 2.651155 1_565
O18 Sr3 2.664096 1_566
O18 Sr15 2.693140 1_555
O18 Sr9 2.694725 1_555
O19 Sr14 2.508810 1_555
O19 Sr15 2.645302 1_545
O19 Sr12 2.649514 1_555
O19 Sr0 2.672713 1_545
O19 Sr10 2.690343 1_555
O20 Sr12 2.462608 1_555
O20 Sr11 2.641852 1_655
O20 Sr14 2.658524 1_555
O20 Sr1 2.665345 1_555
O20 Sr13 2.696438 1_655
O21 Sr14 2.543313 1_565
O21 Sr15 2.552030 1_655
O21 Sr9 2.558424 1_655
O21 Sr4 2.567268 1_555
O22 Sr15 2.590168 1_555
O22 Sr11 2.596393 1_555
O22 Sr2 2.596589 1_555
O22 Sr4 2.783341 1_555
O22 Sr14 2.793765 1_565
