# generated using pymatgen
data_Rb2Be4Pt3
_symmetry_space_group_name_H-M   'P 1'
_cell_length_a   8.21722972
_cell_length_b   7.23446711
_cell_length_c   6.05624102
_cell_angle_alpha   75.80197722
_cell_angle_beta   58.59543343
_cell_angle_gamma   45.60258934
_symmetry_Int_Tables_number   1
_chemical_formula_structural   Rb2Be4Pt3
_chemical_formula_sum   'Rb2 Be4 Pt3'
_cell_volume   215.31613795
_cell_formula_units_Z   1
loop_
 _symmetry_equiv_pos_site_id
 _symmetry_equiv_pos_as_xyz
  1  'x, y, z'
loop_
 _atom_site_type_symbol
 _atom_site_label
 _atom_site_symmetry_multiplicity
 _atom_site_fract_x
 _atom_site_fract_y
 _atom_site_fract_z
 _atom_site_occupancy
  Rb  Rb0  1  0.34868400  0.34868400  0.65131600  1
  Rb  Rb1  1  0.65131600  0.65131600  0.34868400  1
  Be  Be0  1  0.07797100  0.72362400  0.27637600  1
  Be  Be1  1  0.92202900  0.27637600  0.72362400  1
  Be  Be2  1  0.27637600  0.92202900  0.07797100  1
  Be  Be3  1  0.72362400  0.07797100  0.92202900  1
  Pt  Pt0  1  0.00000000  0.00000000  0.50000000  1
  Pt  Pt1  1  0.50000000  0.50000000  0.00000000  1
  Pt  Pt2  1  0.00000000  0.00000000  0.00000000  1
loop_
_geom_bond_atom_site_label_1
_geom_bond_atom_site_label_2
_geom_bond_distance
_geom_bond_site_symmetry_2
Rb0 Rb1 3.903421 1_555
Rb0 Rb1 4.150535 1_545
Rb0 Rb1 4.150535 1_456
Be0 Pt0 2.207700 1_565
Be0 Pt1 2.207700 1_555
Be0 Pt2 2.212069 1_565
Be0 Rb0 3.355877 1_555
Be0 Rb1 3.689273 1_455
Be0 Rb0 3.801868 1_554
Be0 Rb0 3.801868 1_465
Be1 Pt1 2.207700 1_556
Be1 Pt0 2.207700 1_655
Be1 Pt2 2.212069 1_656
Be1 Rb1 3.355877 1_555
Be1 Rb0 3.689273 1_655
Be1 Rb1 3.801868 1_556
Be1 Rb1 3.801868 1_645
Be2 Pt1 2.207700 1_555
Be2 Pt0 2.207700 1_565
Be2 Pt2 2.212069 1_565
Be2 Rb1 3.355877 1_555
Be2 Rb0 3.689273 1_564
Be2 Rb1 3.801868 1_465
Be2 Rb1 3.801868 1_554
Be3 Pt0 2.207700 1_655
Be3 Pt1 2.207700 1_556
Be3 Pt2 2.212069 1_656
Be3 Rb0 3.355877 1_555
Be3 Rb1 3.689273 1_546
Be3 Rb0 3.801868 1_645
Be3 Rb0 3.801868 1_556
Pt0 Rb1 3.602595 1_545
Pt0 Rb0 3.602595 1_455
Pt0 Rb1 3.602595 1_455
Pt0 Rb0 3.602595 1_545
Pt1 Rb0 3.602595 1_554
Pt1 Rb0 3.602595 1_555
Pt1 Rb1 3.602595 1_555
Pt1 Rb1 3.602595 1_554
Pt2 Rb1 3.815171 1_544
Pt2 Rb0 3.815171 1_455
Pt2 Rb0 3.815171 1_544
Pt2 Rb1 3.815171 1_455
