# generated using pymatgen
data_Y2TeO6
_symmetry_space_group_name_H-M   'P 1'
_cell_length_a   9.90855277
_cell_length_b   9.90855277
_cell_length_c   5.44070181
_cell_angle_alpha   75.97849752
_cell_angle_beta   75.97849752
_cell_angle_gamma   69.10071558
_symmetry_Int_Tables_number   1
_chemical_formula_structural   Y2TeO6
_chemical_formula_sum   'Y8 Te4 O24'
_cell_volume   476.94161908
_cell_formula_units_Z   4
loop_
 _symmetry_equiv_pos_site_id
 _symmetry_equiv_pos_as_xyz
  1  'x, y, z'
loop_
 _atom_site_type_symbol
 _atom_site_label
 _atom_site_symmetry_multiplicity
 _atom_site_fract_x
 _atom_site_fract_y
 _atom_site_fract_z
 _atom_site_occupancy
  Y  Y0  1  0.78534400  0.56409400  0.11542600  1
  Y  Y1  1  0.56409400  0.78534400  0.61542600  1
  Y  Y2  1  0.39676800  0.60323200  0.25000000  1
  Y  Y3  1  0.87718500  0.12281500  0.25000000  1
  Y  Y4  1  0.60323200  0.39676800  0.75000000  1
  Y  Y5  1  0.12281500  0.87718500  0.75000000  1
  Y  Y6  1  0.43590600  0.21465600  0.38457400  1
  Y  Y7  1  0.21465600  0.43590600  0.88457400  1
  Te  Te0  1  0.99983300  0.69437800  0.43670500  1
  Te  Te1  1  0.69437800  0.99983300  0.93670500  1
  Te  Te2  1  0.30562200  0.00016700  0.06329500  1
  Te  Te3  1  0.00016700  0.30562200  0.56329500  1
  O  O0  1  0.95815600  0.88637300  0.49205500  1
  O  O1  1  0.88637300  0.95815600  0.99205500  1
  O  O2  1  0.81610000  0.71291600  0.35979100  1
  O  O3  1  0.55636000  0.97045700  0.24050900  1
  O  O4  1  0.71291600  0.81610000  0.85979100  1
  O  O5  1  0.97045700  0.55636000  0.74050900  1
  O  O6  1  0.31855300  0.88087700  0.39287700  1
  O  O7  1  0.57578300  0.60717300  0.42489400  1
  O  O8  1  0.81500600  0.34459500  0.42771500  1
  O  O9  1  0.88087700  0.31855300  0.89287700  1
  O  O10  1  0.60717300  0.57578300  0.92489400  1
  O  O11  1  0.34459500  0.81500600  0.92771500  1
  O  O12  1  0.65540500  0.18499400  0.07228500  1
  O  O13  1  0.39282700  0.42421700  0.07510600  1
  O  O14  1  0.11912300  0.68144700  0.10712300  1
  O  O15  1  0.18499400  0.65540500  0.57228500  1
  O  O16  1  0.42421700  0.39282700  0.57510600  1
  O  O17  1  0.68144700  0.11912300  0.60712300  1
  O  O18  1  0.02954300  0.44364000  0.25949100  1
  O  O19  1  0.28708400  0.18390000  0.14020900  1
  O  O20  1  0.44364000  0.02954300  0.75949100  1
  O  O21  1  0.18390000  0.28708400  0.64020900  1
  O  O22  1  0.11362700  0.04184400  0.00794500  1
  O  O23  1  0.04184400  0.11362700  0.50794500  1
loop_
_geom_bond_atom_site_label_1
_geom_bond_atom_site_label_2
_geom_bond_distance
_geom_bond_site_symmetry_2
O0 Te0 1.880737 1_555
O0 Y3 2.354282 1_565
O0 Y5 2.362491 1_655
O1 Te1 1.880737 1_555
O1 Y5 2.354282 1_655
O1 Y3 2.362491 1_566
O2 Te0 1.901712 1_555
O2 Y0 2.345618 1_555
O2 Y1 2.491347 1_555
O3 Te1 1.908547 1_554
O3 Y1 2.386100 1_555
O3 Y6 2.509765 1_565
O4 Te1 1.901712 1_555
O4 Y1 2.345618 1_555
O4 Y0 2.491347 1_556
O5 Te0 1.908547 1_555
O5 Y0 2.386100 1_556
O5 Y7 2.509765 1_655
O6 Te2 1.898728 1_565
O6 Y5 2.393383 1_555
O6 Y1 2.740512 1_555
O6 Y2 2.827799 1_555
O7 Y1 2.210758 1_555
O7 Y2 2.222287 1_555
O7 Y0 2.313118 1_555
O7 Y4 2.364472 1_555
O8 Te3 2.017816 1_655
O8 Y4 2.372215 1_555
O8 Y0 2.387207 1_555
O8 Y3 2.432808 1_555
O9 Te3 1.898728 1_655
O9 Y3 2.393383 1_556
O9 Y0 2.740512 1_556
O9 Y4 2.827799 1_555
O10 Y0 2.210758 1_556
O10 Y4 2.222287 1_555
O10 Y1 2.313118 1_555
O10 Y2 2.364472 1_556
O11 Te2 2.017816 1_566
O11 Y2 2.372215 1_556
O11 Y1 2.387207 1_555
O11 Y5 2.432808 1_555
O12 Te1 2.017816 1_544
O12 Y4 2.372215 1_554
O12 Y6 2.387207 1_555
O12 Y3 2.432808 1_555
O13 Y7 2.210758 1_554
O13 Y2 2.222287 1_555
O13 Y6 2.313118 1_555
O13 Y4 2.364472 1_554
O14 Te0 1.898728 1_455
O14 Y5 2.393383 1_554
O14 Y7 2.740512 1_554
O14 Y2 2.827799 1_555
O15 Te0 2.017816 1_455
O15 Y2 2.372215 1_555
O15 Y7 2.387207 1_555
O15 Y5 2.432808 1_555
O16 Y6 2.210758 1_555
O16 Y4 2.222287 1_555
O16 Y7 2.313118 1_555
O16 Y2 2.364472 1_555
O17 Te1 1.898728 1_545
O17 Y3 2.393383 1_555
O17 Y6 2.740512 1_555
O17 Y4 2.827799 1_555
O18 Te3 1.908547 1_555
O18 Y7 2.386100 1_554
O18 Y0 2.509765 1_455
O19 Te2 1.901712 1_555
O19 Y6 2.345618 1_555
O19 Y7 2.491347 1_554
O20 Te2 1.908547 1_556
O20 Y6 2.386100 1_555
O20 Y1 2.509765 1_545
O21 Te3 1.901712 1_555
O21 Y7 2.345618 1_555
O21 Y6 2.491347 1_555
O22 Te2 1.880737 1_555
O22 Y3 2.354282 1_455
O22 Y5 2.362491 1_544
O23 Te3 1.880737 1_555
O23 Y5 2.354282 1_545
O23 Y3 2.362491 1_455
