# generated using pymatgen
data_La2Bi4O9
_symmetry_space_group_name_H-M   'P 1'
_cell_length_a   4.04090000
_cell_length_b   7.00917227
_cell_length_c   9.43336423
_cell_angle_alpha   96.80399927
_cell_angle_beta   101.20017101
_cell_angle_gamma   90.23957602
_symmetry_Int_Tables_number   1
_chemical_formula_structural   La2Bi4O9
_chemical_formula_sum   'La2 Bi4 O9'
_cell_volume   260.14864771
_cell_formula_units_Z   1
loop_
 _symmetry_equiv_pos_site_id
 _symmetry_equiv_pos_as_xyz
  1  'x, y, z'
loop_
 _atom_site_type_symbol
 _atom_site_label
 _atom_site_symmetry_multiplicity
 _atom_site_fract_x
 _atom_site_fract_y
 _atom_site_fract_z
 _atom_site_occupancy
  La  La0  1  0.49518600  0.49445200  0.01773100  1
  La  La1  1  0.97772600  0.99771600  0.99055700  1
  Bi  Bi0  1  0.83652900  0.59975900  0.67597700  1
  Bi  Bi1  1  0.62706600  0.89504400  0.32710200  1
  Bi  Bi2  1  0.35063700  0.12202600  0.65733700  1
  Bi  Bi3  1  0.17412900  0.36220600  0.34515200  1
  O  O0  1  0.58420300  0.55537900  0.29672500  1
  O  O1  1  0.52756600  0.85408000  0.09261100  1
  O  O2  1  0.95246400  0.63596400  0.90691800  1
  O  O3  1  0.79625100  0.92585700  0.70313100  1
  O  O4  1  0.65608500  0.22477900  0.48551900  1
  O  O5  1  0.11095900  0.02806500  0.28067200  1
  O  O6  1  0.43864400  0.15980200  0.89544200  1
  O  O7  1  0.03590600  0.33304400  0.10727000  1
  O  O8  1  0.36559900  0.45483900  0.70971500  1
loop_
_geom_bond_atom_site_label_1
_geom_bond_atom_site_label_2
_geom_bond_distance
_geom_bond_site_symmetry_2
La0 O6 2.477275 1_554
La0 O7 2.501116 1_555
La0 O2 2.501894 1_454
La0 O7 2.509524 1_655
La0 O1 2.531684 1_555
La0 O2 2.543956 1_554
La0 O0 2.569638 1_555
La0 O8 2.830286 1_554
La1 O7 2.464422 1_666
La1 O1 2.478708 1_556
La1 O1 2.508869 1_656
La1 O6 2.518734 1_565
La1 O6 2.537282 1_665
La1 O2 2.560202 1_555
La1 O3 2.654056 1_555
La1 O5 2.667148 1_666
Bi0 O2 2.121670 1_555
Bi0 O8 2.247249 1_555
Bi0 O3 2.279694 1_555
Bi0 O8 2.352490 1_655
Bi1 O1 2.154125 1_555
Bi1 O5 2.273495 1_565
Bi1 O5 2.301914 1_665
Bi1 O0 2.365545 1_555
Bi1 O4 2.588395 1_565
Bi2 O6 2.188531 1_555
Bi2 O3 2.275721 1_545
Bi2 O8 2.324563 1_555
Bi2 O4 2.390723 1_555
Bi2 O3 2.754397 1_445
Bi3 O7 2.189261 1_555
Bi3 O0 2.282479 1_555
Bi3 O5 2.348932 1_555
Bi3 O4 2.406280 1_555
Bi3 O0 2.734067 1_455
