# generated using pymatgen
data_Na2Cr2O7
_symmetry_space_group_name_H-M   'P 1'
_cell_length_a   7.65476252
_cell_length_b   9.23444125
_cell_length_c   9.88316895
_cell_angle_alpha   76.03373421
_cell_angle_beta   70.88126125
_cell_angle_gamma   70.46964802
_symmetry_Int_Tables_number   1
_chemical_formula_structural   Na2Cr2O7
_chemical_formula_sum   'Na8 Cr8 O28'
_cell_volume   615.24574572
_cell_formula_units_Z   4
loop_
 _symmetry_equiv_pos_site_id
 _symmetry_equiv_pos_as_xyz
  1  'x, y, z'
loop_
 _atom_site_type_symbol
 _atom_site_label
 _atom_site_symmetry_multiplicity
 _atom_site_fract_x
 _atom_site_fract_y
 _atom_site_fract_z
 _atom_site_occupancy
  Na  Na0  1  0.53041578  0.60663545  0.22204560  1
  Na  Na1  1  0.03070574  0.26668168  0.35459058  1
  Na  Na2  1  0.02479027  0.09887785  0.73829163  1
  Na  Na3  1  0.97520973  0.90112215  0.26170837  1
  Na  Na4  1  0.53126253  0.21263614  0.17888429  1
  Na  Na5  1  0.46958422  0.39336455  0.77795440  1
  Na  Na6  1  0.96929426  0.73331832  0.64540942  1
  Na  Na7  1  0.46873747  0.78736386  0.82111571  1
  Cr  Cr0  1  0.32194706  0.91128381  0.44643569  1
  Cr  Cr1  1  0.29752280  0.37314345  0.53326586  1
  Cr  Cr2  1  0.70247720  0.62685655  0.46673414  1
  Cr  Cr3  1  0.17035304  0.59001107  0.08245774  1
  Cr  Cr4  1  0.67805294  0.08871619  0.55356431  1
  Cr  Cr5  1  0.82964696  0.40998893  0.91754226  1
  Cr  Cr6  1  0.79264751  0.84506039  0.00952503  1
  Cr  Cr7  1  0.20735249  0.15493961  0.99047497  1
  O  O0  1  0.29806743  0.59344285  0.91480835  1
  O  O1  1  0.46280624  0.22996343  0.62114300  1
  O  O2  1  0.14404229  0.86378060  0.43207475  1
  O  O3  1  0.90962956  0.87809218  0.84152275  1
  O  O4  1  0.07611324  0.33210377  0.90807065  1
  O  O5  1  0.79510245  0.58640182  0.83554191  1
  O  O6  1  0.33017622  0.07862298  0.35078658  1
  O  O7  1  0.85595771  0.13621940  0.56792525  1
  O  O8  1  0.92388676  0.66789623  0.09192935  1
  O  O9  1  0.75726600  0.47378684  0.39235910  1
  O  O10  1  0.77293544  0.98165577  0.09498933  1
  O  O11  1  0.22706456  0.01834423  0.90501067  1
  O  O12  1  0.88927289  0.68602911  0.44014128  1
  O  O13  1  0.20489755  0.41359818  0.16445809  1
  O  O14  1  0.23294053  0.69456031  0.15874151  1
  O  O15  1  0.70193257  0.40655715  0.08519165  1
  O  O16  1  0.58569132  0.82255009  0.02630190  1
  O  O17  1  0.59814451  0.59620359  0.63707276  1
  O  O18  1  0.76705947  0.30543969  0.84125849  1
  O  O19  1  0.66982378  0.92137702  0.64921342  1
  O  O20  1  0.70627238  0.08253487  0.38578862  1
  O  O21  1  0.53719376  0.77003657  0.37885700  1
  O  O22  1  0.40185549  0.40379641  0.36292724  1
  O  O23  1  0.41430868  0.17744991  0.97369810  1
  O  O24  1  0.11072711  0.31397089  0.55985872  1
  O  O25  1  0.29372762  0.91746513  0.61421138  1
  O  O26  1  0.09037044  0.12190782  0.15847725  1
  O  O27  1  0.24273400  0.52621316  0.60764090  1
loop_
_geom_bond_atom_site_label_1
_geom_bond_atom_site_label_2
_geom_bond_distance
_geom_bond_site_symmetry_2
Na0 O15 2.321196 1_555
Na0 O22 2.343423 1_555
Na0 O14 2.384894 1_555
Na0 O21 2.432119 1_555
Na0 O16 2.462316 1_555
Na0 O9 2.616721 1_555
Na1 O9 2.309634 1_455
Na1 O13 2.342489 1_555
Na1 O6 2.363380 1_555
Na1 O7 2.385389 1_455
Na1 O26 2.452606 1_555
Na1 O24 2.470228 1_555
Na2 O7 2.339099 1_455
Na2 O25 2.362283 1_545
Na2 O3 2.362903 1_445
Na2 O18 2.381599 1_455
Na2 O24 2.431211 1_555
Na2 O11 2.444435 1_555
Na3 O2 2.339099 1_655
Na3 O20 2.362283 1_565
Na3 O26 2.362903 1_665
Na3 O14 2.381599 1_655
Na3 O12 2.431211 1_555
Na3 O10 2.444435 1_555
Na4 O6 2.309319 1_555
Na4 O15 2.396326 1_555
Na4 O10 2.422811 1_545
Na4 O22 2.570282 1_555
Na4 O13 2.590609 1_555
Na4 O23 2.592524 1_554
Na4 O20 2.636676 1_555
Na5 O0 2.321196 1_555
Na5 O17 2.343423 1_555
Na5 O18 2.384894 1_555
Na5 O1 2.432119 1_555
Na5 O23 2.462316 1_555
Na5 O27 2.616721 1_555
Na6 O27 2.309634 1_655
Na6 O5 2.342489 1_555
Na6 O19 2.363380 1_555
Na6 O2 2.385389 1_655
Na6 O3 2.452606 1_555
Na6 O12 2.470228 1_555
Na7 O19 2.309319 1_555
Na7 O0 2.396326 1_555
Na7 O11 2.422811 1_565
Na7 O17 2.570282 1_555
Na7 O5 2.590609 1_555
Na7 O16 2.592524 1_556
Na7 O25 2.636676 1_555
Cr0 O25 1.613138 1_555
Cr0 O6 1.614450 1_565
Cr0 O2 1.619631 1_555
Cr0 O21 1.767738 1_555
Cr1 O22 1.610119 1_555
Cr1 O27 1.617855 1_555
Cr1 O24 1.618367 1_555
Cr1 O1 1.774892 1_555
Cr2 O17 1.610119 1_555
Cr2 O9 1.617855 1_555
Cr2 O12 1.618367 1_555
Cr2 O21 1.774892 1_555
Cr3 O13 1.611108 1_555
Cr3 O14 1.620879 1_555
Cr3 O0 1.623695 1_554
Cr3 O8 1.759267 1_455
Cr4 O20 1.613138 1_555
Cr4 O19 1.614450 1_545
Cr4 O7 1.619631 1_555
Cr4 O1 1.767738 1_555
Cr5 O5 1.611108 1_555
Cr5 O18 1.620879 1_555
Cr5 O15 1.623695 1_556
Cr5 O4 1.759267 1_655
Cr6 O16 1.616128 1_555
Cr6 O3 1.617411 1_554
Cr6 O10 1.621987 1_555
Cr6 O8 1.772834 1_555
Cr7 O23 1.616128 1_555
Cr7 O26 1.617411 1_556
Cr7 O11 1.621987 1_555
Cr7 O4 1.772834 1_555
