# generated using pymatgen
data_Sr5La2Mn8(O3F)6
_symmetry_space_group_name_H-M   'P 1'
_cell_length_a   5.63442900
_cell_length_b   5.69357616
_cell_length_c   15.32673601
_cell_angle_alpha   89.95274982
_cell_angle_beta   89.96528998
_cell_angle_gamma   89.89176987
_symmetry_Int_Tables_number   1
_chemical_formula_structural   Sr5La2Mn8(O3F)6
_chemical_formula_sum   'Sr5 La2 Mn8 O18 F6'
_cell_volume   491.68133284
_cell_formula_units_Z   1
loop_
 _symmetry_equiv_pos_site_id
 _symmetry_equiv_pos_as_xyz
  1  'x, y, z'
loop_
 _atom_site_type_symbol
 _atom_site_label
 _atom_site_symmetry_multiplicity
 _atom_site_fract_x
 _atom_site_fract_y
 _atom_site_fract_z
 _atom_site_occupancy
  Sr  Sr0  1  0.99501400  0.49335300  0.62512500  1
  Sr  Sr1  1  0.50400600  0.99444900  0.37537400  1
  Sr  Sr2  1  0.50474800  0.99521200  0.87490200  1
  Sr  Sr3  1  0.49443500  0.00370800  0.12428400  1
  Sr  Sr4  1  0.49441200  0.00156900  0.62420000  1
  La  La0  1  0.99502600  0.50068700  0.37057800  1
  La  La1  1  0.02604300  0.50005300  0.87855800  1
  Mn  Mn0  1  0.99615500  0.99667400  0.00531000  1
  Mn  Mn1  1  0.50228600  0.50083300  0.24443600  1
  Mn  Mn2  1  0.49080800  0.48825800  0.75126900  1
  Mn  Mn3  1  0.50159500  0.50194500  0.00581100  1
  Mn  Mn4  1  0.51096100  0.48825300  0.49825500  1
  Mn  Mn5  1  0.00352800  0.99670200  0.24474000  1
  Mn  Mn6  1  0.98588600  0.01044500  0.49848900  1
  Mn  Mn7  1  0.01383900  0.01022700  0.75148500  1
  O  O0  1  0.00022400  0.93178100  0.37427300  1
  O  O1  1  0.00329400  0.93254200  0.87582400  1
  O  O2  1  0.75622000  0.25743700  0.48234300  1
  O  O3  1  0.75636400  0.25310000  0.27120600  1
  O  O4  1  0.77109400  0.27191000  0.76940600  1
  O  O5  1  0.72728000  0.77059500  0.00503400  1
  O  O6  1  0.75021300  0.74832600  0.50858800  1
  O  O7  1  0.50412700  0.43584000  0.12514400  1
  O  O8  1  0.50499200  0.44856700  0.62501900  1
  O  O9  1  0.48173600  0.55180400  0.87617000  1
  O  O10  1  0.49492800  0.55018300  0.37411000  1
  O  O11  1  0.24000000  0.25831500  0.48269400  1
  O  O12  1  0.25515800  0.24200400  0.98105000  1
  O  O13  1  0.25571500  0.24686400  0.76510000  1
  O  O14  1  0.26226200  0.75996900  0.24437200  1
  O  O15  1  0.23754700  0.73788500  0.73971500  1
  O  O16  1  0.99634200  0.04680300  0.62504100  1
  O  O17  1  0.99982900  0.05883300  0.12512600  1
  F  F0  1  0.75599000  0.25697400  0.97826700  1
  F  F1  1  0.73695500  0.76297100  0.73738800  1
  F  F2  1  0.74681200  0.75676500  0.23700800  1
  F  F3  1  0.25559300  0.24506800  0.26921600  1
  F  F4  1  0.24863900  0.74995900  0.51448900  1
  F  F5  1  0.24094100  0.74293900  0.01560000  1
loop_
_geom_bond_atom_site_label_1
_geom_bond_atom_site_label_2
_geom_bond_distance
_geom_bond_site_symmetry_2
La0 O0 2.455397 1_655
La0 O3 2.475535 1_555
La0 O2 2.581330 1_555
La0 O11 2.598859 1_655
La0 O10 2.831783 1_555
La0 O10 2.831809 1_655
La0 O14 2.861515 1_655
La0 O6 2.891184 1_555
La1 O1 2.465824 1_555
La1 O12 2.506836 1_555
La1 O4 2.561848 1_455
La1 O9 2.585208 1_555
La1 O13 2.602107 1_555
La1 O15 2.789352 1_555
La1 O5 2.992524 1_456
La1 O9 3.080663 1_455
La1 O1 3.234257 1_545
Mn0 O17 1.870600 1_565
Mn0 O5 1.989818 1_555
Mn0 O1 2.018568 1_654
Mn0 O12 2.055520 1_664
Mn1 O7 1.865746 1_555
Mn1 O14 1.999570 1_555
Mn1 O10 2.007864 1_555
Mn1 O3 2.049239 1_555
Mn2 O13 1.922124 1_555
Mn2 O9 1.949130 1_555
Mn2 O8 1.949910 1_555
Mn2 O15 2.019869 1_555
Mn2 O4 2.020209 1_555
Mn3 O7 1.867063 1_555
Mn3 O5 1.990989 1_555
Mn3 O9 2.010072 1_554
Mn3 O12 2.066823 1_554
Mn4 O2 1.920783 1_555
Mn4 O10 1.936977 1_555
Mn4 O8 1.956065 1_555
Mn4 O6 2.010749 1_555
Mn4 O11 2.027353 1_555
Mn5 O17 1.866944 1_465
Mn5 O14 1.983574 1_555
Mn5 O0 2.019216 1_555
Mn5 O3 2.056124 1_465
Mn6 O2 1.925175 1_555
Mn6 O16 1.951751 1_555
Mn6 O0 1.957743 1_645
Mn6 O6 2.005325 1_545
Mn6 O11 2.026560 1_655
Mn7 O13 1.929728 1_555
Mn7 O16 1.951491 1_455
Mn7 O1 1.956903 1_545
Mn7 O15 2.004615 1_545
Mn7 O4 2.039237 1_455
O0 Sr1 2.817954 1_455
O0 Sr1 2.861592 1_555
O1 Sr2 2.830967 1_455
O1 Sr2 2.848542 1_555
O2 Sr1 2.639002 1_545
O2 Sr0 2.901507 1_555
O2 Sr4 3.004078 1_555
O3 Sr1 2.596295 1_545
O3 Sr3 3.046675 1_555
O4 Sr2 2.711125 1_545
O4 Sr0 2.840694 1_555
O4 Sr4 3.125922 1_555
O5 Sr3 2.611101 1_565
O5 Sr2 2.679258 1_554
O6 Sr0 2.681674 1_555
O6 Sr4 2.699884 1_565
O6 Sr1 2.836931 1_555
O7 Sr3 2.461132 1_555
O7 Sr3 3.233574 1_565
O8 Sr4 2.545869 1_555
O8 Sr0 2.773225 1_555
O8 Sr0 2.884247 1_455
O8 Sr4 3.149026 1_565
O9 Sr2 2.528207 1_555
O9 Sr2 3.171481 1_545
O10 Sr1 2.530166 1_555
O11 Sr1 2.677313 1_545
O11 Sr0 2.907898 1_455
O11 Sr4 2.980959 1_555
O12 Sr2 2.567568 1_545
O12 Sr3 2.910249 1_556
O13 Sr2 2.616339 1_545
O13 Sr4 2.901255 1_555
O13 Sr0 2.953108 1_455
O14 Sr3 2.650379 1_565
O14 Sr1 2.771929 1_555
O15 Sr0 2.627641 1_455
O15 Sr4 2.735660 1_565
O15 Sr2 2.953533 1_555
O16 Sr0 2.542465 1_555
O16 Sr4 2.817671 1_655
O16 Sr4 2.840314 1_555
O16 Sr0 3.151132 1_545
O17 Sr3 2.803874 1_655
O17 Sr3 2.865478 1_555
F0 Mn3 2.042257 1_556
F0 Mn0 2.047303 1_546
F0 La1 2.562764 1_655
F0 Sr2 2.597988 1_545
F0 Sr3 3.042755 1_556
F1 Mn2 2.102961 1_555
F1 Mn7 2.114608 1_665
F1 Sr4 2.591243 1_565
F1 Sr0 2.724722 1_555
F1 Sr2 2.810176 1_555
F1 La1 3.092764 1_655
F2 Mn5 1.995100 1_655
F2 Mn1 2.010387 1_555
F2 Sr3 2.641065 1_565
F2 Sr1 2.862614 1_555
F2 La0 2.874635 1_555
F3 Mn5 2.041219 1_545
F3 Mn1 2.050107 1_555
F3 Sr1 2.575627 1_545
F3 La0 2.584571 1_455
F3 Sr3 2.937379 1_555
F4 Mn6 2.107849 1_465
F4 Mn4 2.111532 1_555
F4 Sr4 2.609913 1_565
F4 Sr0 2.655729 1_455
F4 Sr1 2.924577 1_555
F4 La0 2.989632 1_455
F5 Mn0 2.001636 1_455
F5 Mn3 2.013596 1_555
F5 Sr3 2.652197 1_565
F5 La1 2.793634 1_554
F5 Sr2 2.986932 1_554
