# generated using pymatgen
data_Li4Mn3Nb2Co3O16
_symmetry_space_group_name_H-M   'P 1'
_cell_length_a   5.87162100
_cell_length_b   5.96553191
_cell_length_c   9.70678808
_cell_angle_alpha   91.31807092
_cell_angle_beta   89.77522648
_cell_angle_gamma   119.28327601
_symmetry_Int_Tables_number   1
_chemical_formula_structural   Li4Mn3Nb2Co3O16
_chemical_formula_sum   'Li4 Mn3 Nb2 Co3 O16'
_cell_volume   296.46577823
_cell_formula_units_Z   1
loop_
 _symmetry_equiv_pos_site_id
 _symmetry_equiv_pos_as_xyz
  1  'x, y, z'
loop_
 _atom_site_type_symbol
 _atom_site_label
 _atom_site_symmetry_multiplicity
 _atom_site_fract_x
 _atom_site_fract_y
 _atom_site_fract_z
 _atom_site_occupancy
  Li  Li0  1  0.33972100  0.68420600  0.10000200  1
  Li  Li1  1  0.00447000  0.00916300  0.00716800  1
  Li  Li2  1  0.99506900  0.98403900  0.51006900  1
  Li  Li3  1  0.66121700  0.32594600  0.59719900  1
  Mn  Mn0  1  0.17450000  0.34597100  0.78463600  1
  Mn  Mn1  1  0.33643600  0.16674200  0.28341200  1
  Mn  Mn2  1  0.83078600  0.16619500  0.28400200  1
  Nb  Nb0  1  0.33114300  0.66269500  0.50875700  1
  Nb  Nb1  1  0.68792200  0.37175700  0.00627900  1
  Co  Co0  1  0.17586800  0.83745400  0.78645300  1
  Co  Co1  1  0.66159400  0.83959200  0.78473800  1
  Co  Co2  1  0.82696800  0.65313400  0.28525200  1
  O  O0  1  0.13602000  0.78973300  0.40763600  1
  O  O1  1  0.46508700  0.95534800  0.64743100  1
  O  O2  1  0.32340700  0.66873000  0.88642600  1
  O  O3  1  0.01463300  0.00743800  0.69965800  1
  O  O4  1  0.99229300  0.98229700  0.19613300  1
  O  O5  1  0.65463400  0.79277000  0.40989000  1
  O  O6  1  0.02890300  0.48984400  0.66194200  1
  O  O7  1  0.46072100  0.49284500  0.66066900  1
  O  O8  1  0.85215700  0.68368100  0.90336500  1
  O  O9  1  0.15301800  0.30726500  0.40497900  1
  O  O10  1  0.53810600  0.50844600  0.15605500  1
  O  O11  1  0.96953100  0.50623300  0.15676500  1
  O  O12  1  0.66690700  0.33503800  0.38458600  1
  O  O13  1  0.33982200  0.19391700  0.90880000  1
  O  O14  1  0.52367800  0.04561400  0.16021300  1
  O  O15  1  0.85509100  0.19391000  0.90964800  1
loop_
_geom_bond_atom_site_label_1
_geom_bond_atom_site_label_2
_geom_bond_distance
_geom_bond_site_symmetry_2
Li0 O14 1.955872 1_565
Li0 O11 1.978728 1_455
Li0 O10 1.994555 1_555
Li0 O2 2.073571 1_554
Li1 O4 1.842968 1_445
Li1 O8 1.950255 1_444
Li1 O15 1.969814 1_454
Li1 O13 1.978459 1_554
Li2 O3 1.842156 1_665
Li2 O0 1.973865 1_655
Li2 O9 1.988060 1_665
Li2 O5 1.994029 1_555
Li3 O7 1.967095 1_555
Li3 O6 1.982233 1_655
Li3 O1 2.001550 1_545
Li3 O12 2.065459 1_555
Mn0 O7 1.905831 1_555
Mn0 O6 1.912765 1_555
Mn0 O3 1.927430 1_555
Mn0 O2 1.928829 1_555
Mn0 O13 2.034331 1_555
Mn0 O15 2.044796 1_455
Mn1 O12 1.949725 1_555
Mn1 O4 1.951175 1_445
Mn1 O14 1.971810 1_555
Mn1 O9 2.020579 1_555
Mn1 O10 2.197460 1_555
Mn1 O0 2.328433 1_545
Mn2 O12 1.946585 1_555
Mn2 O4 1.949003 1_545
Mn2 O14 1.980202 1_555
Mn2 O9 2.020221 1_655
Mn2 O11 2.189668 1_555
Mn2 O5 2.320962 1_545
Nb0 O5 1.925881 1_555
Nb0 O0 1.934638 1_555
Nb0 O1 2.008829 1_555
Nb0 O9 2.084473 1_555
Nb0 O7 2.147464 1_555
Nb0 O6 2.164091 1_555
Nb1 O8 1.926907 1_554
Nb1 O15 1.983582 1_554
Nb1 O13 2.011504 1_554
Nb1 O11 2.044207 1_555
Nb1 O10 2.046829 1_555
Nb1 O14 2.288017 1_555
Co0 O2 1.899945 1_555
Co0 O3 1.902380 1_565
Co0 O1 2.014153 1_555
Co0 O8 2.016768 1_455
Co0 O6 2.155891 1_555
Co0 O13 2.179283 1_565
Co1 O3 1.993924 1_665
Co1 O2 2.001795 1_555
Co1 O1 2.101992 1_555
Co1 O8 2.126125 1_555
Co1 O7 2.151778 1_555
Co1 O15 2.184557 1_565
Co2 O11 1.919195 1_555
Co2 O10 1.931120 1_555
Co2 O12 1.935545 1_555
Co2 O4 1.937355 1_555
Co2 O0 1.973320 1_655
Co2 O5 1.987485 1_555
