# generated using pymatgen
data_Li2AgF3
_symmetry_space_group_name_H-M   'P 1'
_cell_length_a   2.87380400
_cell_length_b   7.19616700
_cell_length_c   14.70573300
_cell_angle_alpha   90.00000000
_cell_angle_beta   90.00000000
_cell_angle_gamma   90.00000000
_symmetry_Int_Tables_number   1
_chemical_formula_structural   Li2AgF3
_chemical_formula_sum   'Li8 Ag4 F12'
_cell_volume   304.12005117
_cell_formula_units_Z   4
loop_
 _symmetry_equiv_pos_site_id
 _symmetry_equiv_pos_as_xyz
  1  'x, y, z'
loop_
 _atom_site_type_symbol
 _atom_site_label
 _atom_site_symmetry_multiplicity
 _atom_site_fract_x
 _atom_site_fract_y
 _atom_site_fract_z
 _atom_site_occupancy
  Li  Li0  1  0.75000000  0.05747400  0.33255500  1
  Li  Li1  1  0.25000000  0.15950000  0.50600400  1
  Li  Li2  1  0.75000000  0.34050000  0.00600400  1
  Li  Li3  1  0.25000000  0.44252600  0.83255500  1
  Li  Li4  1  0.75000000  0.55747400  0.16744500  1
  Li  Li5  1  0.25000000  0.65950000  0.99399600  1
  Li  Li6  1  0.75000000  0.84050000  0.49399600  1
  Li  Li7  1  0.25000000  0.94252600  0.66744500  1
  Ag  Ag0  1  0.25000000  0.02694600  0.12439300  1
  Ag  Ag1  1  0.75000000  0.47305400  0.62439300  1
  Ag  Ag2  1  0.25000000  0.52694600  0.37560700  1
  Ag  Ag3  1  0.75000000  0.97305400  0.87560700  1
  F  F0  1  0.75000000  0.03927500  0.58282000  1
  F  F1  1  0.25000000  0.14704500  0.25958900  1
  F  F2  1  0.25000000  0.17714200  0.96469800  1
  F  F3  1  0.75000000  0.32285800  0.46469800  1
  F  F4  1  0.75000000  0.35295500  0.75958900  1
  F  F5  1  0.25000000  0.46072500  0.08282000  1
  F  F6  1  0.75000000  0.53927500  0.91718000  1
  F  F7  1  0.25000000  0.64704500  0.24041100  1
  F  F8  1  0.25000000  0.67714200  0.53530200  1
  F  F9  1  0.75000000  0.82285800  0.03530200  1
  F  F10  1  0.75000000  0.85295500  0.74041100  1
  F  F11  1  0.25000000  0.96072500  0.41718000  1
loop_
_geom_bond_atom_site_label_1
_geom_bond_atom_site_label_2
_geom_bond_distance
_geom_bond_site_symmetry_2
Ag0 F1 2.167879 1_555
Ag0 F9 2.436824 1_445
Ag0 F9 2.436824 1_545
Ag0 F2 2.585215 1_554
Ag1 F4 2.167879 1_555
Ag1 F8 2.436824 1_655
Ag1 F8 2.436824 1_555
Ag1 F3 2.585215 1_555
Ag2 F7 2.167879 1_555
Ag2 F3 2.436824 1_455
Ag2 F3 2.436824 1_555
Ag2 F8 2.585215 1_555
Ag3 F10 2.167879 1_555
Ag3 F2 2.436824 1_565
Ag3 F2 2.436824 1_665
Ag3 F9 2.585215 1_556
F0 Li6 1.937089 1_545
F0 Li1 2.022193 1_555
F0 Li1 2.022193 1_655
F0 Li7 2.024383 1_545
F0 Li7 2.024383 1_645
F1 Li0 1.905656 1_555
F1 Li0 1.905656 1_455
F2 Li2 1.953352 1_556
F2 Li2 1.953352 1_456
F3 Li1 1.953352 1_555
F3 Li1 1.953352 1_655
F4 Li3 1.905656 1_555
F4 Li3 1.905656 1_655
F5 Li5 1.937089 1_554
F5 Li2 2.022193 1_455
F5 Li2 2.022193 1_555
F5 Li4 2.024383 1_455
F5 Li4 2.024383 1_555
F6 Li2 1.937089 1_556
F6 Li5 2.022193 1_655
F6 Li5 2.022193 1_555
F6 Li3 2.024383 1_555
F6 Li3 2.024383 1_655
F7 Li4 1.905656 1_555
F7 Li4 1.905656 1_455
F8 Li6 1.953352 1_555
F8 Li6 1.953352 1_455
F9 Li5 1.953352 1_654
F9 Li5 1.953352 1_554
F10 Li7 1.905656 1_555
F10 Li7 1.905656 1_655
F11 Li1 1.937089 1_565
F11 Li6 2.022193 1_455
F11 Li6 2.022193 1_555
F11 Li0 2.024383 1_465
F11 Li0 2.024383 1_565
