# generated using pymatgen
data_Li7Co5O12
_symmetry_space_group_name_H-M   'P 1'
_cell_length_a   4.94553744
_cell_length_b   4.94553744
_cell_length_c   9.37829140
_cell_angle_alpha   85.33730567
_cell_angle_beta   85.33730567
_cell_angle_gamma   118.43574320
_symmetry_Int_Tables_number   1
_chemical_formula_structural   Li7Co5O12
_chemical_formula_sum   'Li7 Co5 O12'
_cell_volume   199.14273266
_cell_formula_units_Z   1
loop_
 _symmetry_equiv_pos_site_id
 _symmetry_equiv_pos_as_xyz
  1  'x, y, z'
loop_
 _atom_site_type_symbol
 _atom_site_label
 _atom_site_symmetry_multiplicity
 _atom_site_fract_x
 _atom_site_fract_y
 _atom_site_fract_z
 _atom_site_occupancy
  Li  Li0  1  0.74491100  0.25508900  0.50000000  1
  Li  Li1  1  0.82844800  0.66161300  0.25538700  1
  Li  Li2  1  0.67437400  0.84357800  0.74490300  1
  Li  Li3  1  0.33838700  0.17155200  0.74461300  1
  Li  Li4  1  0.15642200  0.32562600  0.25509700  1
  Li  Li5  1  0.25662000  0.74338000  0.00000000  1
  Li  Li6  1  0.07778700  0.92221300  0.50000000  1
  Co  Co0  1  0.92332200  0.07667800  0.00000000  1
  Co  Co1  1  0.98802600  0.51329700  0.73775400  1
  Co  Co2  1  0.48670300  0.01197400  0.26224600  1
  Co  Co3  1  0.58514200  0.41485800  0.00000000  1
  Co  Co4  1  0.41685700  0.58314300  0.50000000  1
  O  O0  1  0.06126800  0.25522700  0.62357200  1
  O  O1  1  0.74477300  0.93873200  0.37642800  1
  O  O2  1  0.83985800  0.32635300  0.12422000  1
  O  O3  1  0.67364700  0.16014200  0.87578000  1
  O  O4  1  0.70452200  0.54653300  0.62273400  1
  O  O5  1  0.45346700  0.29547800  0.37726600  1
  O  O6  1  0.57852100  0.72459400  0.11059300  1
  O  O7  1  0.27540600  0.42147900  0.88940700  1
  O  O8  1  0.34824000  0.83367900  0.63074000  1
  O  O9  1  0.16632100  0.65176000  0.36926000  1
  O  O10  1  0.23886700  0.06189100  0.11941300  1
  O  O11  1  0.93810900  0.76113300  0.88058700  1
loop_
_geom_bond_atom_site_label_1
_geom_bond_atom_site_label_2
_geom_bond_distance
_geom_bond_site_symmetry_2
Li0 O4 1.987157 1_555
Li0 O5 1.987157 1_555
Li0 O0 2.021080 1_655
Li0 O1 2.021080 1_545
Li0 O9 2.234982 1_655
Li0 O8 2.234982 1_545
Li1 O6 2.009844 1_555
Li1 O1 2.013647 1_555
Li1 O5 2.035998 1_555
Li1 O9 2.072240 1_655
Li1 O2 2.162151 1_555
Li1 O10 2.237627 1_665
Li2 O4 1.986833 1_555
Li2 O8 1.991041 1_555
Li2 O11 2.044173 1_555
Li2 O3 2.067516 1_565
Li2 O0 2.158736 1_665
Li2 O7 2.295682 1_555
Li3 O7 2.009844 1_555
Li3 O0 2.013647 1_555
Li3 O4 2.035998 1_555
Li3 O8 2.072240 1_545
Li3 O3 2.162151 1_555
Li3 O11 2.237627 1_445
Li4 O5 1.986833 1_555
Li4 O9 1.991041 1_555
Li4 O10 2.044173 1_555
Li4 O2 2.067516 1_455
Li4 O1 2.158736 1_445
Li4 O6 2.295682 1_555
Li5 O6 2.003091 1_555
Li5 O7 2.003091 1_554
Li5 O10 2.036091 1_565
Li5 O11 2.036091 1_454
Li5 O3 2.242681 1_564
Li5 O2 2.242681 1_455
Li6 O9 2.054544 1_555
Li6 O8 2.054544 1_555
Li6 O5 2.055501 1_565
Li6 O4 2.055501 1_455
Li6 O1 2.117816 1_455
Li6 O0 2.117816 1_565
Co0 O6 1.899101 1_545
Co0 O7 1.899101 1_654
Co0 O3 1.921796 1_554
Co0 O2 1.921796 1_555
Co0 O10 2.018485 1_655
Co0 O11 2.018485 1_544
Co1 O8 1.858490 1_655
Co1 O0 1.872490 1_655
Co1 O4 1.895510 1_555
Co1 O11 1.964410 1_555
Co1 O3 1.965321 1_555
Co1 O7 2.255478 1_655
Co2 O9 1.858490 1_545
Co2 O1 1.872490 1_545
Co2 O5 1.895510 1_555
Co2 O10 1.964410 1_555
Co2 O2 1.965321 1_555
Co2 O6 2.255478 1_545
Co3 O7 1.929713 1_554
Co3 O6 1.929713 1_555
Co3 O10 1.938419 1_555
Co3 O11 1.938419 1_554
Co3 O3 1.953560 1_554
Co3 O2 1.953560 1_555
Co4 O1 1.926839 1_555
Co4 O0 1.926839 1_555
Co4 O9 1.932227 1_555
Co4 O8 1.932227 1_555
Co4 O4 1.964503 1_555
Co4 O5 1.964503 1_555
