# generated using pymatgen
data_Dy29Y3O48
_symmetry_space_group_name_H-M   'P 1'
_cell_length_a   9.24379700
_cell_length_b   9.24480776
_cell_length_c   15.09416617
_cell_angle_alpha   90.00760820
_cell_angle_beta   90.00126783
_cell_angle_gamma   109.47139428
_symmetry_Int_Tables_number   1
_chemical_formula_structural   Dy29Y3O48
_chemical_formula_sum   'Dy29 Y3 O48'
_cell_volume   1216.13189675
_cell_formula_units_Z   1
loop_
 _symmetry_equiv_pos_site_id
 _symmetry_equiv_pos_as_xyz
  1  'x, y, z'
loop_
 _atom_site_type_symbol
 _atom_site_label
 _atom_site_symmetry_multiplicity
 _atom_site_fract_x
 _atom_site_fract_y
 _atom_site_fract_z
 _atom_site_occupancy
  Dy  Dy0  1  0.84219300  0.09222100  0.62494200  1
  Dy  Dy1  1  0.65772200  0.40785100  0.87490100  1
  Dy  Dy2  1  0.98364800  0.51654900  0.73349400  1
  Dy  Dy3  1  0.23384300  0.26638200  0.98361900  1
  Dy  Dy4  1  0.74994700  0.74988700  0.74993000  1
  Dy  Dy5  1  0.25013000  0.25005600  0.74995500  1
  Dy  Dy6  1  0.49990900  0.99992900  0.00003400  1
  Dy  Dy7  1  0.99991000  0.49992900  0.50003200  1
  Dy  Dy8  1  0.39148300  0.60864000  0.85858100  1
  Dy  Dy9  1  0.89139500  0.10860000  0.35862900  1
  Dy  Dy10  1  0.64142100  0.35858700  0.60861300  1
  Dy  Dy11  1  0.51626400  0.98350400  0.76633000  1
  Dy  Dy12  1  0.26640400  0.23346000  0.51644300  1
  Dy  Dy13  1  0.34212700  0.59212700  0.62507500  1
  Dy  Dy14  1  0.15791500  0.90780300  0.87494200  1
  Dy  Dy15  1  0.65786200  0.40770200  0.37498500  1
  Dy  Dy16  1  0.84208100  0.09202900  0.12511700  1
  Dy  Dy17  1  0.48367000  0.01655500  0.23356300  1
  Dy  Dy18  1  0.73372800  0.76642300  0.48362000  1
  Dy  Dy19  1  0.10861400  0.89139700  0.64136900  1
  Dy  Dy20  1  0.75017400  0.75002700  0.24998900  1
  Dy  Dy21  1  0.24991600  0.24988900  0.24996100  1
  Dy  Dy22  1  0.50005000  0.00011400  0.50000600  1
  Dy  Dy23  1  0.60851900  0.39135400  0.14141900  1
  Dy  Dy24  1  0.01628600  0.48350900  0.26639600  1
  Dy  Dy25  1  0.76628200  0.73350800  0.01644500  1
  Dy  Dy26  1  0.15784900  0.90793100  0.37497500  1
  Dy  Dy27  1  0.34230200  0.59229300  0.12501100  1
  Dy  Dy28  1  0.14146300  0.85873000  0.10865300  1
  Y  Y0  1  0.85857300  0.14120900  0.89131400  1
  Y  Y1  1  0.00004700  0.50012200  0.00000000  1
  Y  Y2  1  0.35861600  0.64136400  0.39135500  1
  O  O0  1  0.90709300  0.39635600  0.86440200  1
  O  O1  1  0.60815900  0.15100500  0.88029200  1
  O  O2  1  0.40105400  0.35859000  0.86962000  1
  O  O3  1  0.99947800  0.76018000  0.77122000  1
  O  O4  1  0.89142200  0.34895800  0.61968200  1
  O  O5  1  0.64602900  0.65718200  0.88530100  1
  O  O6  1  0.73324400  0.96247900  0.99470000  1
  O  O7  1  0.59289900  0.10407200  0.63535800  1
  O  O8  1  0.28693500  0.01617400  0.74434000  1
  O  O9  1  0.09374900  0.12477900  0.86403900  1
  O  O10  1  0.25554500  0.52684000  0.98439800  1
  O  O11  1  0.75507200  0.02682100  0.48433700  1
  O  O12  1  0.72319400  0.49507500  0.73422700  1
  O  O13  1  0.37467700  0.84331600  0.88589400  1
  O  O14  1  0.87469900  0.34333600  0.38591900  1
  O  O15  1  0.40669500  0.37526800  0.63591800  1
  O  O16  1  0.77653700  0.00477600  0.76550600  1
  O  O17  1  0.85407700  0.84285600  0.61460000  1
  O  O18  1  0.76618700  0.53690800  0.50557300  1
  O  O19  1  0.21307500  0.48379700  0.75558900  1
  O  O20  1  0.01006400  0.74992700  0.97881300  1
  O  O21  1  0.51016000  0.24948700  0.47879200  1
  O  O22  1  0.50045900  0.73982100  0.72876600  1
  O  O23  1  0.09897900  0.14141500  0.63034300  1
  O  O24  1  0.90105900  0.85863800  0.36969500  1
  O  O25  1  0.49944600  0.26017300  0.27124300  1
  O  O26  1  0.49003500  0.75067900  0.52141500  1
  O  O27  1  0.99012700  0.25023800  0.02138600  1
  O  O28  1  0.14600700  0.15713400  0.38535800  1
  O  O29  1  0.23332800  0.46252400  0.49469300  1
  O  O30  1  0.78693100  0.51613400  0.24436500  1
  O  O31  1  0.12532200  0.65668000  0.61405200  1
  O  O32  1  0.59371400  0.62475400  0.36409000  1
  O  O33  1  0.22322800  0.99505800  0.23429000  1
  O  O34  1  0.62534600  0.15670500  0.11407500  1
  O  O35  1  0.90666200  0.87524100  0.13597200  1
  O  O36  1  0.24494300  0.97312400  0.51565900  1
  O  O37  1  0.27657300  0.50475900  0.26557300  1
  O  O38  1  0.74446200  0.47310600  0.01559400  1
  O  O39  1  0.35404500  0.34280800  0.11465800  1
  O  O40  1  0.26628200  0.03696300  0.00556600  1
  O  O41  1  0.40733500  0.89667400  0.36460600  1
  O  O42  1  0.71307800  0.98376800  0.25561400  1
  O  O43  1  0.10821900  0.65107200  0.38031300  1
  O  O44  1  0.00043500  0.23981600  0.22878700  1
  O  O45  1  0.59898200  0.64145900  0.13041700  1
  O  O46  1  0.39148300  0.84902200  0.11970200  1
  O  O47  1  0.09313400  0.60437500  0.13555100  1
loop_
_geom_bond_atom_site_label_1
_geom_bond_atom_site_label_2
_geom_bond_distance
_geom_bond_site_symmetry_2
Dy0 O4 2.264244 1_555
Dy0 O23 2.264535 1_655
Dy0 O11 2.278882 1_555
Dy0 O16 2.279668 1_555
Dy0 O7 2.348492 1_555
Dy0 O17 2.349410 1_545
Dy1 O2 2.263308 1_555
Dy1 O1 2.264847 1_555
Dy1 O38 2.278991 1_556
Dy1 O12 2.280420 1_555
Dy1 O0 2.348058 1_555
Dy1 O5 2.348496 1_555
Dy2 O0 2.261913 1_555
Dy2 O19 2.264662 1_655
Dy2 O4 2.279713 1_555
Dy2 O3 2.280036 1_555
Dy2 O31 2.348059 1_655
Dy2 O12 2.348905 1_555
Dy3 O39 2.263214 1_556
Dy3 O40 2.263226 1_556
Dy3 O27 2.280033 1_456
Dy3 O2 2.280071 1_555
Dy3 O10 2.348670 1_555
Dy3 O9 2.348980 1_555
Dy4 O12 2.297406 1_555
Dy4 O16 2.298267 1_565
Dy4 O5 2.298715 1_555
Dy4 O22 2.299180 1_555
Dy4 O3 2.299222 1_555
Dy4 O17 2.299312 1_555
Dy5 O9 2.297992 1_555
Dy5 O15 2.298068 1_555
Dy5 O2 2.298216 1_555
Dy5 O23 2.298789 1_555
Dy5 O19 2.299436 1_555
Dy5 O8 2.299648 1_555
Dy6 O6 2.297045 1_554
Dy6 O40 2.298042 1_565
Dy6 O46 2.298282 1_555
Dy6 O13 2.299226 1_554
Dy6 O34 2.299360 1_565
Dy6 O1 2.299503 1_564
Dy7 O29 2.297614 1_655
Dy7 O4 2.298476 1_555
Dy7 O18 2.298690 1_555
Dy7 O14 2.298778 1_555
Dy7 O31 2.298948 1_655
Dy7 O43 2.299644 1_655
Dy8 O10 2.263724 1_555
Dy8 O13 2.263943 1_555
Dy8 O5 2.279579 1_555
Dy8 O19 2.280132 1_555
Dy8 O22 2.347598 1_555
Dy8 O2 2.348581 1_555
Dy9 O11 2.263897 1_555
Dy9 O14 2.264030 1_555
Dy9 O42 2.279876 1_545
Dy9 O28 2.280204 1_655
Dy9 O24 2.348113 1_545
Dy9 O44 2.348211 1_655
Dy10 O12 2.263167 1_555
Dy10 O15 2.263757 1_555
Dy10 O7 2.279729 1_555
Dy10 O18 2.280354 1_555
Dy10 O21 2.347936 1_555
Dy10 O4 2.348085 1_555
Dy11 O8 2.263202 1_565
Dy11 O7 2.264211 1_565
Dy11 O22 2.279953 1_555
Dy11 O1 2.280509 1_565
Dy11 O16 2.347724 1_565
Dy11 O13 2.349365 1_555
Dy12 O29 2.262199 1_555
Dy12 O28 2.264382 1_555
Dy12 O23 2.279817 1_555
Dy12 O21 2.280239 1_555
Dy12 O36 2.348118 1_545
Dy12 O15 2.349137 1_555
Dy13 O22 2.263428 1_555
Dy13 O26 2.265095 1_555
Dy13 O31 2.279827 1_555
Dy13 O15 2.280380 1_555
Dy13 O19 2.347576 1_555
Dy13 O29 2.348624 1_555
Dy14 O3 2.263930 1_455
Dy14 O20 2.264314 1_555
Dy14 O13 2.279026 1_555
Dy14 O9 2.279432 1_565
Dy14 O8 2.348681 1_565
Dy14 O40 2.349157 1_566
Dy15 O25 2.263716 1_555
Dy15 O21 2.264503 1_555
Dy15 O14 2.279056 1_555
Dy15 O32 2.280010 1_555
Dy15 O18 2.348757 1_555
Dy15 O30 2.349219 1_555
Dy16 O44 2.263633 1_655
Dy16 O27 2.264919 1_555
Dy16 O35 2.279826 1_545
Dy16 O34 2.279853 1_555
Dy16 O42 2.347031 1_545
Dy16 O6 2.348978 1_544
Dy17 O41 2.262277 1_545
Dy17 O42 2.264536 1_545
Dy17 O25 2.279879 1_555
Dy17 O46 2.279919 1_545
Dy17 O34 2.348663 1_555
Dy17 O33 2.348739 1_545
Dy18 O17 2.262972 1_555
Dy18 O18 2.264193 1_555
Dy18 O24 2.279851 1_555
Dy18 O26 2.280912 1_555
Dy18 O32 2.348358 1_555
Dy18 O11 2.348963 1_565
Dy19 O36 2.263876 1_555
Dy19 O31 2.263975 1_555
Dy19 O8 2.279309 1_565
Dy19 O17 2.279631 1_455
Dy19 O23 2.348488 1_565
Dy19 O3 2.348556 1_455
Dy20 O35 2.297519 1_555
Dy20 O45 2.298332 1_555
Dy20 O32 2.298510 1_555
Dy20 O24 2.298703 1_555
Dy20 O30 2.299549 1_555
Dy20 O42 2.299607 1_555
Dy21 O33 2.297671 1_545
Dy21 O37 2.298004 1_555
Dy21 O39 2.298839 1_555
Dy21 O44 2.299118 1_555
Dy21 O28 2.299147 1_555
Dy21 O25 2.299221 1_555
Dy22 O41 2.297591 1_545
Dy22 O21 2.298418 1_555
Dy22 O7 2.298638 1_555
Dy22 O11 2.299154 1_555
Dy22 O36 2.299295 1_545
Dy22 O26 2.299655 1_545
Dy23 O38 2.263779 1_555
Dy23 O34 2.263859 1_555
Dy23 O39 2.279040 1_555
Dy23 O30 2.279525 1_555
Dy23 O25 2.347942 1_555
Dy23 O45 2.348933 1_555
Dy24 O30 2.263343 1_455
Dy24 O47 2.263902 1_555
Dy24 O44 2.280098 1_555
Dy24 O43 2.280366 1_555
Dy24 O37 2.347906 1_555
Dy24 O14 2.348839 1_455
Dy25 O6 2.261187 1_554
Dy25 O5 2.264645 1_554
Dy25 O20 2.279444 1_654
Dy25 O45 2.280002 1_555
Dy25 O38 2.347880 1_555
Dy25 O35 2.349782 1_555
Dy26 O24 2.264370 1_455
Dy26 O43 2.264845 1_555
Dy26 O36 2.279645 1_555
Dy26 O33 2.280210 1_555
Dy26 O28 2.347813 1_565
Dy26 O41 2.348167 1_555
Dy27 O45 2.263615 1_555
Dy27 O46 2.264264 1_555
Dy27 O10 2.278178 1_554
Dy27 O37 2.279959 1_555
Dy27 O47 2.348256 1_555
Dy27 O39 2.350040 1_555
Dy28 O33 2.262788 1_555
Dy28 O35 2.263867 1_455
Dy28 O47 2.278973 1_555
Dy28 O40 2.280517 1_565
Dy28 O20 2.347948 1_554
Dy28 O46 2.348506 1_555
O0 Y0 2.285826 1_555
O0 Y1 2.301647 1_656
O1 Y0 2.352405 1_555
O6 Y0 2.287393 1_565
O9 Y0 2.266858 1_455
O10 Y1 2.303381 1_556
O16 Y0 2.265755 1_555
O20 Y1 2.302565 1_556
O26 Y2 2.352004 1_555
O27 Y1 2.303971 1_655
O27 Y0 2.351942 1_554
O29 Y2 2.287361 1_555
O32 Y2 2.266767 1_555
O37 Y2 2.266144 1_555
O38 Y1 2.303520 1_655
O41 Y2 2.286576 1_555
O43 Y2 2.351972 1_555
O47 Y1 2.302623 1_555
