# generated using pymatgen
data_Li9Fe23O32
_symmetry_space_group_name_H-M   'P 1'
_cell_length_a   8.59395578
_cell_length_b   8.59395578
_cell_length_c   8.55486852
_cell_angle_alpha   89.95397533
_cell_angle_beta   89.95397533
_cell_angle_gamma   90.04201358
_symmetry_Int_Tables_number   1
_chemical_formula_structural   Li9Fe23O32
_chemical_formula_sum   'Li9 Fe23 O32'
_cell_volume   631.82844142
_cell_formula_units_Z   1
loop_
 _symmetry_equiv_pos_site_id
 _symmetry_equiv_pos_as_xyz
  1  'x, y, z'
loop_
 _atom_site_type_symbol
 _atom_site_label
 _atom_site_symmetry_multiplicity
 _atom_site_fract_x
 _atom_site_fract_y
 _atom_site_fract_z
 _atom_site_occupancy
  Li  Li0  1  0.37187800  0.62812200  0.50000000  1
  Li  Li1  1  0.62227200  0.87246200  0.50157100  1
  Li  Li2  1  0.12838800  0.87161200  0.50000000  1
  Li  Li3  1  0.12753800  0.37772800  0.49842900  1
  Li  Li4  1  0.87656300  0.37944900  0.25060200  1
  Li  Li5  1  0.87532700  0.62251200  0.00251800  1
  Li  Li6  1  0.37748800  0.12467300  0.99748200  1
  Li  Li7  1  0.37435900  0.62564100  0.00000000  1
  Li  Li8  1  0.62055100  0.12343700  0.74939800  1
  Fe  Fe0  1  0.87680600  0.12319400  0.50000000  1
  Fe  Fe1  1  0.87922300  0.62769000  0.49840000  1
  Fe  Fe2  1  0.37231000  0.12077700  0.50160000  1
  Fe  Fe3  1  0.62257300  0.37742700  0.50000000  1
  Fe  Fe4  1  0.87196500  0.87054800  0.25247000  1
  Fe  Fe5  1  0.62118700  0.12367600  0.25163300  1
  Fe  Fe6  1  0.37897500  0.87395100  0.26143300  1
  Fe  Fe7  1  0.37223500  0.37834800  0.25279100  1
  Fe  Fe8  1  0.62798300  0.62209600  0.25058700  1
  Fe  Fe9  1  0.12448000  0.13453000  0.25396800  1
  Fe  Fe10  1  0.12268300  0.61719000  0.25873900  1
  Fe  Fe11  1  0.87338200  0.12661800  0.00000000  1
  Fe  Fe12  1  0.61845800  0.87081200  0.99915700  1
  Fe  Fe13  1  0.62015600  0.37984400  0.00000000  1
  Fe  Fe14  1  0.13237900  0.86762100  0.00000000  1
  Fe  Fe15  1  0.12918800  0.38154200  0.00084300  1
  Fe  Fe16  1  0.86547000  0.87552000  0.74603200  1
  Fe  Fe17  1  0.62165200  0.62776500  0.74720900  1
  Fe  Fe18  1  0.38281000  0.87731700  0.74126100  1
  Fe  Fe19  1  0.37790400  0.37201700  0.74941300  1
  Fe  Fe20  1  0.87632400  0.37881300  0.74836700  1
  Fe  Fe21  1  0.12945200  0.12803500  0.74753000  1
  Fe  Fe22  1  0.12604900  0.62102500  0.73856700  1
  O  O0  1  0.63345500  0.13680700  0.49664200  1
  O  O1  1  0.62812600  0.61136100  0.50557100  1
  O  O2  1  0.11586600  0.12643800  0.50551700  1
  O  O3  1  0.12559000  0.62476500  0.49739300  1
  O  O4  1  0.87356200  0.88413400  0.49448300  1
  O  O5  1  0.86319300  0.36654500  0.50335800  1
  O  O6  1  0.37523500  0.87441000  0.50260700  1
  O  O7  1  0.38863900  0.37187400  0.49442900  1
  O  O8  1  0.87682300  0.12636500  0.24992600  1
  O  O9  1  0.61265300  0.87181400  0.24952800  1
  O  O10  1  0.62755700  0.37631300  0.24520000  1
  O  O11  1  0.13491200  0.87089700  0.24134400  1
  O  O12  1  0.12187800  0.38154800  0.25026100  1
  O  O13  1  0.88228500  0.62335800  0.24795300  1
  O  O14  1  0.37152400  0.11098800  0.24889000  1
  O  O15  1  0.36786500  0.63751000  0.25079600  1
  O  O16  1  0.88413500  0.88558000  0.00463000  1
  O  O17  1  0.63611400  0.13020600  0.00304600  1
  O  O18  1  0.62610700  0.61881500  0.99368900  1
  O  O19  1  0.36618700  0.87631700  0.99618200  1
  O  O20  1  0.86979400  0.36388600  0.99695400  1
  O  O21  1  0.38118500  0.37389300  0.00631100  1
  O  O22  1  0.11442000  0.11586500  0.99537000  1
  O  O23  1  0.12368300  0.63381300  0.00381800  1
  O  O24  1  0.87363500  0.12317700  0.75007400  1
  O  O25  1  0.88901200  0.62847600  0.75111000  1
  O  O26  1  0.61845200  0.87812200  0.74973900  1
  O  O27  1  0.37664200  0.11771500  0.75204700  1
  O  O28  1  0.36249000  0.63213500  0.74920400  1
  O  O29  1  0.62368700  0.37244300  0.75480000  1
  O  O30  1  0.12910300  0.86508800  0.75865600  1
  O  O31  1  0.12818600  0.38734700  0.75047200  1
loop_
_geom_bond_atom_site_label_1
_geom_bond_atom_site_label_2
_geom_bond_distance
_geom_bond_site_symmetry_2
Li0 O3 2.116899 1_555
Li0 O6 2.116899 1_555
Li0 O28 2.133676 1_555
Li0 O15 2.133676 1_555
Li0 O7 2.207545 1_555
Li0 O1 2.207545 1_555
Li1 O6 2.123115 1_555
Li1 O26 2.123869 1_555
Li1 O9 2.157857 1_555
Li1 O4 2.162629 1_555
Li1 O1 2.244725 1_555
Li1 O0 2.274086 1_565
Li2 O3 2.121646 1_555
Li2 O6 2.121646 1_555
Li2 O4 2.193229 1_455
Li2 O2 2.193229 1_565
Li2 O30 2.213447 1_555
Li2 O11 2.213447 1_555
Li3 O3 2.123115 1_555
Li3 O12 2.123869 1_555
Li3 O31 2.157857 1_555
Li3 O2 2.162629 1_555
Li3 O7 2.244725 1_555
Li3 O5 2.274086 1_455
Li4 O13 2.096788 1_555
Li4 O12 2.108290 1_655
Li4 O10 2.140633 1_555
Li4 O5 2.167998 1_555
Li4 O20 2.174973 1_554
Li4 O8 2.175008 1_555
Li5 O13 2.100582 1_555
Li5 O23 2.136536 1_655
Li5 O18 2.143391 1_554
Li5 O25 2.154448 1_554
Li5 O20 2.223643 1_554
Li5 O16 2.262093 1_555
Li6 O27 2.100582 1_555
Li6 O19 2.136536 1_545
Li6 O21 2.143391 1_556
Li6 O14 2.154448 1_556
Li6 O17 2.223643 1_556
Li6 O22 2.262093 1_555
Li7 O15 2.148714 1_555
Li7 O28 2.148714 1_554
Li7 O23 2.155716 1_555
Li7 O19 2.155716 1_554
Li7 O21 2.164980 1_555
Li7 O18 2.164980 1_554
Li8 O27 2.096788 1_555
Li8 O26 2.108290 1_545
Li8 O29 2.140633 1_555
Li8 O0 2.167998 1_555
Li8 O17 2.174973 1_556
Li8 O24 2.175008 1_555
Fe0 O2 2.055220 1_655
Fe0 O4 2.055220 1_545
Fe0 O0 2.094922 1_555
Fe0 O5 2.094922 1_555
Fe0 O24 2.139502 1_555
Fe0 O8 2.139502 1_555
Fe1 O3 2.117445 1_655
Fe1 O13 2.143035 1_555
Fe1 O1 2.163190 1_555
Fe1 O25 2.163620 1_555
Fe1 O4 2.204669 1_555
Fe1 O5 2.248756 1_555
Fe2 O6 2.117445 1_545
Fe2 O27 2.143035 1_555
Fe2 O7 2.163190 1_555
Fe2 O14 2.163620 1_555
Fe2 O2 2.204669 1_555
Fe2 O0 2.248756 1_555
Fe3 O7 2.011554 1_555
Fe3 O1 2.011554 1_555
Fe3 O0 2.070281 1_555
Fe3 O5 2.070281 1_555
Fe3 O10 2.180196 1_555
Fe3 O29 2.180196 1_555
Fe4 O4 2.073828 1_555
Fe4 O16 2.126552 1_555
Fe4 O13 2.126636 1_555
Fe4 O8 2.198936 1_565
Fe4 O9 2.228713 1_555
Fe4 O11 2.261682 1_655
Fe5 O0 2.101872 1_555
Fe5 O17 2.131083 1_555
Fe5 O14 2.148430 1_555
Fe5 O9 2.165769 1_545
Fe5 O10 2.172453 1_555
Fe5 O8 2.197066 1_555
Fe6 O9 2.010816 1_555
Fe6 O15 2.036246 1_555
Fe6 O14 2.040878 1_565
Fe6 O6 2.063443 1_555
Fe6 O11 2.104779 1_555
Fe6 O19 2.272011 1_554
Fe7 O7 2.072801 1_555
Fe7 O21 2.110324 1_555
Fe7 O12 2.151879 1_555
Fe7 O10 2.195218 1_555
Fe7 O15 2.227623 1_555
Fe7 O14 2.297953 1_555
Fe8 O10 2.112788 1_555
Fe8 O9 2.150214 1_555
Fe8 O1 2.183232 1_555
Fe8 O13 2.185577 1_555
Fe8 O18 2.198004 1_554
Fe8 O15 2.239460 1_555
Fe9 O12 2.123208 1_555
Fe9 O8 2.129768 1_455
Fe9 O14 2.133262 1_555
Fe9 O2 2.154247 1_555
Fe9 O22 2.219957 1_554
Fe9 O11 2.270143 1_545
Fe10 O12 2.026460 1_555
Fe10 O3 2.042916 1_555
Fe10 O13 2.068820 1_455
Fe10 O15 2.115212 1_555
Fe10 O23 2.185385 1_555
Fe10 O11 2.187743 1_555
Fe11 O17 2.039472 1_555
Fe11 O20 2.039472 1_554
Fe11 O16 2.073946 1_545
Fe11 O22 2.073946 1_654
Fe11 O8 2.138312 1_555
Fe11 O24 2.138312 1_554
Fe12 O26 2.134612 1_555
Fe12 O9 2.142456 1_556
Fe12 O18 2.167238 1_555
Fe12 O19 2.168726 1_555
Fe12 O17 2.234544 1_566
Fe12 O16 2.287167 1_556
Fe13 O21 2.054970 1_555
Fe13 O18 2.054970 1_554
Fe13 O10 2.098865 1_555
Fe13 O29 2.098865 1_554
Fe13 O17 2.149996 1_555
Fe13 O20 2.149996 1_554
Fe14 O19 2.010908 1_554
Fe14 O23 2.010908 1_555
Fe14 O11 2.065013 1_555
Fe14 O30 2.065013 1_554
Fe14 O22 2.139424 1_564
Fe14 O16 2.139424 1_455
Fe15 O12 2.134612 1_555
Fe15 O31 2.142456 1_554
Fe15 O21 2.167238 1_555
Fe15 O23 2.168726 1_555
Fe15 O20 2.234544 1_454
Fe15 O22 2.287167 1_554
Fe16 O26 2.123208 1_555
Fe16 O24 2.129768 1_565
Fe16 O25 2.133262 1_555
Fe16 O4 2.154247 1_555
Fe16 O16 2.219957 1_556
Fe16 O30 2.270143 1_655
Fe17 O1 2.072801 1_555
Fe17 O18 2.110324 1_555
Fe17 O26 2.151879 1_555
Fe17 O29 2.195218 1_555
Fe17 O28 2.227623 1_555
Fe17 O25 2.297953 1_555
Fe18 O26 2.026460 1_555
Fe18 O6 2.042916 1_555
Fe18 O27 2.068820 1_565
Fe18 O28 2.115212 1_555
Fe18 O19 2.185385 1_555
Fe18 O30 2.187743 1_555
Fe19 O29 2.112788 1_555
Fe19 O31 2.150214 1_555
Fe19 O7 2.183232 1_555
Fe19 O27 2.185577 1_555
Fe19 O21 2.198004 1_556
Fe19 O28 2.239460 1_555
Fe20 O5 2.101872 1_555
Fe20 O20 2.131083 1_555
Fe20 O25 2.148430 1_555
Fe20 O31 2.165769 1_655
Fe20 O29 2.172453 1_555
Fe20 O24 2.197066 1_555
Fe21 O2 2.073828 1_555
Fe21 O22 2.126552 1_555
Fe21 O27 2.126636 1_555
Fe21 O24 2.198936 1_455
Fe21 O31 2.228713 1_555
Fe21 O30 2.261682 1_545
Fe22 O31 2.010816 1_555
Fe22 O28 2.036246 1_555
Fe22 O25 2.040878 1_455
Fe22 O3 2.063443 1_555
Fe22 O30 2.104779 1_555
Fe22 O23 2.272011 1_556
