# generated using pymatgen
data_Lu4(B2O5)3
_symmetry_space_group_name_H-M   'P 1'
_cell_length_a   7.94293320
_cell_length_b   7.94293320
_cell_length_c   7.94293321
_cell_angle_alpha   112.00079035
_cell_angle_beta   112.00079035
_cell_angle_gamma   112.00079833
_symmetry_Int_Tables_number   1
_chemical_formula_structural   Lu4(B2O5)3
_chemical_formula_sum   'Lu4 B6 O15'
_cell_volume   344.94935102
_cell_formula_units_Z   1
loop_
 _symmetry_equiv_pos_site_id
 _symmetry_equiv_pos_as_xyz
  1  'x, y, z'
loop_
 _atom_site_type_symbol
 _atom_site_label
 _atom_site_symmetry_multiplicity
 _atom_site_fract_x
 _atom_site_fract_y
 _atom_site_fract_z
 _atom_site_occupancy
  Lu  Lu0  1  0.09526500  0.80198300  0.27938900  1
  Lu  Lu1  1  0.80198300  0.27938900  0.09526500  1
  Lu  Lu2  1  0.99364300  0.99364300  0.99364300  1
  Lu  Lu3  1  0.27938900  0.09526500  0.80198300  1
  B  B0  1  0.27200900  0.50102900  0.18764100  1
  B  B1  1  0.51262000  0.85053500  0.59381600  1
  B  B2  1  0.85053500  0.59381600  0.51262000  1
  B  B3  1  0.50102900  0.18764100  0.27200900  1
  B  B4  1  0.18764100  0.27200900  0.50102900  1
  B  B5  1  0.59381600  0.51262000  0.85053500  1
  O  O0  1  0.80021200  0.72422400  0.99274200  1
  O  O1  1  0.08813200  0.50916100  0.11590800  1
  O  O2  1  0.35435400  0.88641000  0.58902200  1
  O  O3  1  0.47566400  0.68553400  0.40327000  1
  O  O4  1  0.24814200  0.30849600  0.04878000  1
  O  O5  1  0.88641000  0.58902200  0.35435400  1
  O  O6  1  0.99274200  0.80021200  0.72422400  1
  O  O7  1  0.50916100  0.11590800  0.08813200  1
  O  O8  1  0.04878000  0.24814200  0.30849600  1
  O  O9  1  0.68553400  0.40327000  0.47566400  1
  O  O10  1  0.40327000  0.47566400  0.68553400  1
  O  O11  1  0.30849600  0.04878000  0.24814200  1
  O  O12  1  0.11590800  0.08813200  0.50916100  1
  O  O13  1  0.58902200  0.35435400  0.88641000  1
  O  O14  1  0.72422400  0.99274200  0.80021200  1
loop_
_geom_bond_atom_site_label_1
_geom_bond_atom_site_label_2
_geom_bond_distance
_geom_bond_site_symmetry_2
Lu0 O2 2.161394 1_555
Lu0 O1 2.163867 1_555
Lu0 O12 2.216368 1_565
Lu0 O0 2.218507 1_454
Lu0 O11 2.228187 1_565
Lu0 O5 2.315197 1_455
Lu1 O5 2.161394 1_555
Lu1 O7 2.163867 1_555
Lu1 O1 2.216367 1_655
Lu1 O14 2.218507 1_544
Lu1 O8 2.228188 1_655
Lu1 O13 2.315197 1_554
Lu2 O0 2.111157 1_555
Lu2 O14 2.111158 1_555
Lu2 O6 2.111158 1_555
Lu2 O4 2.293645 1_666
Lu2 O11 2.293645 1_666
Lu2 O8 2.293645 1_666
Lu3 O13 2.161393 1_555
Lu3 O12 2.163867 1_555
Lu3 O7 2.216368 1_556
Lu3 O6 2.218507 1_445
Lu3 O4 2.228188 1_556
Lu3 O2 2.315197 1_545
B0 O1 1.391655 1_555
B0 O4 1.397681 1_555
B0 O3 1.401881 1_555
B1 O2 1.379707 1_555
B1 O14 1.383515 1_555
B1 O3 1.409683 1_555
B2 O5 1.379707 1_555
B2 O6 1.383515 1_555
B2 O9 1.409683 1_555
B3 O7 1.391655 1_555
B3 O11 1.397681 1_555
B3 O9 1.401881 1_555
B4 O12 1.391655 1_555
B4 O8 1.397681 1_555
B4 O10 1.401881 1_555
B5 O13 1.379707 1_555
B5 O0 1.383515 1_555
B5 O10 1.409683 1_555
