# generated using pymatgen
data_WO2F
_symmetry_space_group_name_H-M   'P 1'
_cell_length_a   5.38838764
_cell_length_b   5.50366374
_cell_length_c   13.42936206
_cell_angle_alpha   92.74230119
_cell_angle_beta   89.34570001
_cell_angle_gamma   118.72033983
_symmetry_Int_Tables_number   1
_chemical_formula_structural   WO2F
_chemical_formula_sum   'W6 O12 F6'
_cell_volume   348.83343851
_cell_formula_units_Z   6
loop_
 _symmetry_equiv_pos_site_id
 _symmetry_equiv_pos_as_xyz
  1  'x, y, z'
loop_
 _atom_site_type_symbol
 _atom_site_label
 _atom_site_symmetry_multiplicity
 _atom_site_fract_x
 _atom_site_fract_y
 _atom_site_fract_z
 _atom_site_occupancy
  W  W0  1  0.32757897  0.66131923  0.58279904  1
  W  W1  1  0.97998841  0.98324208  0.74865697  1
  W  W2  1  0.62333044  0.29244948  0.91615148  1
  W  W3  1  0.67242103  0.33868077  0.41720096  1
  W  W4  1  0.37666956  0.70755052  0.08384852  1
  W  W5  1  0.02001159  0.01675792  0.25134303  1
  O  O0  1  0.65209079  0.82582216  0.66811759  1
  O  O1  1  -0.00000000  0.50000000  0.50000000  1
  O  O2  1  0.68858578  0.85498798  0.16496065  1
  O  O3  1  0.15191739  0.82363459  0.66730061  1
  O  O4  1  0.84808261  0.17636541  0.33269939  1
  O  O5  1  0.82535274  0.16200721  0.83476868  1
  O  O6  1  0.50000000  0.50000000  0.50000000  1
  O  O7  1  0.17464726  0.83799279  0.16523132  1
  O  O8  1  0.50000000  0.50000000  -0.00000000  1
  O  O9  1  0.34790921  0.17417784  0.33188241  1
  O  O10  1  0.31141422  0.14501202  0.83503935  1
  O  O11  1  0.50000000  0.00000000  -0.00000000  1
  F  F0  1  -0.00000000  0.50000000  -0.00000000  1
  F  F1  1  0.84521988  0.67750044  0.33427689  1
  F  F2  1  0.80982750  0.64943715  0.83260021  1
  F  F3  1  0.50000000  0.00000000  0.50000000  1
  F  F4  1  0.19017250  0.35056285  0.16739979  1
  F  F5  1  0.15478012  0.32249956  0.66572311  1
loop_
_geom_bond_atom_site_label_1
_geom_bond_atom_site_label_2
_geom_bond_distance
_geom_bond_site_symmetry_2
O0 W1 1.877497 1_555
O0 W0 1.901336 1_555
O1 W3 1.893290 1_455
O1 W0 1.893290 1_555
O2 W4 1.821080 1_555
O2 W5 1.935995 1_665
O3 W1 1.868352 1_455
O3 W0 1.916468 1_555
O4 W5 1.868352 1_655
O4 W3 1.916468 1_555
O5 W2 1.882468 1_555
O5 W1 1.912221 1_545
O6 W3 1.887473 1_555
O6 W0 1.887473 1_555
O7 W4 1.882468 1_555
O7 W5 1.912221 1_565
O8 W4 1.898365 1_555
O8 W2 1.898365 1_554
O9 W5 1.877497 1_555
O9 W3 1.901336 1_555
O10 W2 1.821080 1_555
O10 W1 1.935995 1_445
O11 W2 1.851636 1_554
O11 W4 1.851636 1_545
F0 W2 2.095986 1_454
F0 W4 2.095986 1_555
F1 W3 2.022556 1_555
F1 W5 2.024527 1_665
F2 W1 2.010547 1_555
F2 W2 2.101593 1_555
F3 W0 2.020989 1_545
F3 W3 2.020989 1_555
F4 W5 2.010547 1_555
F4 W4 2.101593 1_555
F5 W0 2.022556 1_555
F5 W1 2.024527 1_445
