# generated using pymatgen
data_H8C2(N2O)3
_symmetry_space_group_name_H-M   'P 1'
_cell_length_a   11.01926900
_cell_length_b   7.10629300
_cell_length_c   9.93096945
_cell_angle_alpha   66.68315960
_cell_angle_beta   90.00000000
_cell_angle_gamma   90.00000000
_symmetry_Int_Tables_number   1
_chemical_formula_structural   H8C2(N2O)3
_chemical_formula_sum   'H32 C8 N24 O12'
_cell_volume   714.14492177
_cell_formula_units_Z   4
loop_
 _symmetry_equiv_pos_site_id
 _symmetry_equiv_pos_as_xyz
  1  'x, y, z'
loop_
 _atom_site_type_symbol
 _atom_site_label
 _atom_site_symmetry_multiplicity
 _atom_site_fract_x
 _atom_site_fract_y
 _atom_site_fract_z
 _atom_site_occupancy
  H  H0  1  0.73796600  0.07485300  0.57847500  1
  H  H1  1  0.76203400  0.07485300  0.07847500  1
  H  H2  1  0.26203400  0.92514700  0.42152500  1
  H  H3  1  0.23796600  0.92514700  0.92152500  1
  H  H4  1  0.57859200  0.04434400  0.56923900  1
  H  H5  1  0.92140800  0.04434400  0.06923900  1
  H  H6  1  0.42140800  0.95565600  0.43076100  1
  H  H7  1  0.07859200  0.95565600  0.93076100  1
  H  H8  1  0.82709700  0.77929800  0.38923200  1
  H  H9  1  0.67290300  0.77929800  0.88923200  1
  H  H10  1  0.17290300  0.22070200  0.61076800  1
  H  H11  1  0.32709700  0.22070200  0.11076800  1
  H  H12  1  0.86800500  0.88974600  0.50839000  1
  H  H13  1  0.63199500  0.88974600  0.00839000  1
  H  H14  1  0.13199500  0.11025400  0.49161000  1
  H  H15  1  0.36800500  0.11025400  0.99161000  1
  H  H16  1  0.45325500  0.83656400  0.21831700  1
  H  H17  1  0.04674500  0.83656400  0.71831700  1
  H  H18  1  0.54674500  0.16343600  0.78168300  1
  H  H19  1  0.95325500  0.16343600  0.28168300  1
  H  H20  1  0.49277000  0.59257600  0.22366100  1
  H  H21  1  0.00723000  0.59257600  0.72366100  1
  H  H22  1  0.50723000  0.40742400  0.77633900  1
  H  H23  1  0.99277000  0.40742400  0.27633900  1
  H  H24  1  0.71807400  0.49636200  0.49349400  1
  H  H25  1  0.78192600  0.49636200  0.99349400  1
  H  H26  1  0.28192600  0.50363800  0.50650600  1
  H  H27  1  0.21807400  0.50363800  0.00650600  1
  H  H28  1  0.66770500  0.44575900  0.34301300  1
  H  H29  1  0.83229500  0.44575900  0.84301300  1
  H  H30  1  0.33229500  0.55424100  0.65698700  1
  H  H31  1  0.16770500  0.55424100  0.15698700  1
  C  C0  1  0.68480400  0.89579300  0.47252400  1
  C  C1  1  0.81519600  0.89579300  0.97252400  1
  C  C2  1  0.31519600  0.10420700  0.52747600  1
  C  C3  1  0.18480400  0.10420700  0.02747600  1
  C  C4  1  0.59062900  0.69752100  0.35880300  1
  C  C5  1  0.90937100  0.69752100  0.85880300  1
  C  C6  1  0.40937100  0.30247900  0.64119700  1
  C  C7  1  0.09062900  0.30247900  0.14119700  1
  N  N0  1  0.66583200  0.00236000  0.55601700  1
  N  N1  1  0.83416800  0.00236000  0.05601700  1
  N  N2  1  0.33416800  0.99764000  0.44398300  1
  N  N3  1  0.16583200  0.99764000  0.94398300  1
  N  N4  1  0.80154000  0.86088100  0.44827600  1
  N  N5  1  0.69846000  0.86088100  0.94827600  1
  N  N6  1  0.19846000  0.13911900  0.55172400  1
  N  N7  1  0.30154000  0.13911900  0.05172400  1
  N  N8  1  0.58742600  0.84186000  0.41455000  1
  N  N9  1  0.91257400  0.84186000  0.91455000  1
  N  N10  1  0.41257400  0.15814000  0.58545000  1
  N  N11  1  0.08742600  0.15814000  0.08545000  1
  N  N12  1  0.50598600  0.70937400  0.25818200  1
  N  N13  1  0.99401400  0.70937400  0.75818200  1
  N  N14  1  0.49401400  0.29062600  0.74181800  1
  N  N15  1  0.00598600  0.29062600  0.24181800  1
  N  N16  1  0.66969400  0.54090700  0.39772600  1
  N  N17  1  0.83030600  0.54090700  0.89772600  1
  N  N18  1  0.33030600  0.45909300  0.60227400  1
  N  N19  1  0.16969400  0.45909300  0.10227400  1
  N  N20  1  0.58130900  0.28763000  0.13903400  1
  N  N21  1  0.91869100  0.28763000  0.63903400  1
  N  N22  1  0.41869100  0.71237000  0.86096600  1
  N  N23  1  0.08130900  0.71237000  0.36096600  1
  O  O0  1  0.68293300  0.33657200  0.17769900  1
  O  O1  1  0.81706700  0.33657200  0.67769900  1
  O  O2  1  0.31706700  0.66342800  0.82230100  1
  O  O3  1  0.18293300  0.66342800  0.32230100  1
  O  O4  1  0.48326600  0.34732700  0.17574700  1
  O  O5  1  0.01673400  0.34732700  0.67574700  1
  O  O6  1  0.51673400  0.65267300  0.82425300  1
  O  O7  1  0.98326600  0.65267300  0.32425300  1
  O  O8  1  0.57939400  0.17920700  0.06398500  1
  O  O9  1  0.92060600  0.17920700  0.56398500  1
  O  O10  1  0.42060600  0.82079300  0.93601500  1
  O  O11  1  0.07939400  0.82079300  0.43601500  1
loop_
_geom_bond_atom_site_label_1
_geom_bond_atom_site_label_2
_geom_bond_distance
_geom_bond_site_symmetry_2
H0 N0 1.018770 1_555
H1 N1 1.018770 1_555
H2 N2 1.018770 1_555
H3 N3 1.018770 1_555
H4 N0 1.030245 1_555
H5 N1 1.030245 1_555
H6 N2 1.030245 1_555
H7 N3 1.030245 1_555
H8 N4 1.014080 1_555
H9 N5 1.014080 1_555
H10 N6 1.014080 1_555
H11 N7 1.014080 1_555
H12 N4 1.015784 1_555
H13 N5 1.015784 1_554
H14 N6 1.015784 1_555
H15 N7 1.015784 1_556
H16 N12 1.013921 1_555
H17 N13 1.013921 1_455
H18 N14 1.013921 1_555
H19 N15 1.013921 1_655
H20 N12 1.026107 1_555
H21 N13 1.026107 1_455
H22 N14 1.026107 1_555
H23 N15 1.026107 1_655
H24 N16 1.024996 1_555
H25 N17 1.024996 1_555
H26 N18 1.024996 1_555
H27 N19 1.024996 1_555
H28 N16 1.021630 1_555
H29 N17 1.021630 1_555
H30 N18 1.021630 1_555
H31 N19 1.021630 1_555
C0 N0 1.342313 1_565
C0 N8 1.343298 1_555
C0 N4 1.349636 1_555
C1 N1 1.342313 1_566
C1 N9 1.343298 1_555
C1 N5 1.349636 1_555
C2 N2 1.342313 1_545
C2 N10 1.343298 1_555
C2 N6 1.349636 1_555
C3 N3 1.342313 1_544
C3 N11 1.343298 1_555
C3 N7 1.349636 1_555
C4 N16 1.344083 1_555
C4 N12 1.344965 1_555
C4 N8 1.345128 1_555
C5 N17 1.344083 1_555
C5 N13 1.344965 1_555
C5 N9 1.345128 1_555
C6 N18 1.344083 1_555
C6 N14 1.344965 1_555
C6 N10 1.345128 1_555
C7 N19 1.344083 1_555
C7 N15 1.344965 1_555
C7 N11 1.345128 1_555
N20 O4 1.265907 1_555
N20 O8 1.266560 1_555
N20 O0 1.275980 1_555
N21 O5 1.265907 1_655
N21 O9 1.266560 1_555
N21 O1 1.275980 1_555
N22 O6 1.265907 1_555
N22 O10 1.266560 1_555
N22 O2 1.275980 1_555
N23 O7 1.265907 1_455
N23 O11 1.266560 1_555
N23 O3 1.275980 1_555
