# generated using pymatgen
data_V6O5F19
_symmetry_space_group_name_H-M   'P 1'
_cell_length_a   5.35724500
_cell_length_b   5.49728866
_cell_length_c   14.92364534
_cell_angle_alpha   100.56613558
_cell_angle_beta   89.65687162
_cell_angle_gamma   92.05213903
_symmetry_Int_Tables_number   1
_chemical_formula_structural   V6O5F19
_chemical_formula_sum   'V6 O5 F19'
_cell_volume   431.77668324
_cell_formula_units_Z   1
loop_
 _symmetry_equiv_pos_site_id
 _symmetry_equiv_pos_as_xyz
  1  'x, y, z'
loop_
 _atom_site_type_symbol
 _atom_site_label
 _atom_site_symmetry_multiplicity
 _atom_site_fract_x
 _atom_site_fract_y
 _atom_site_fract_z
 _atom_site_occupancy
  V  V0  1  0.03227400  0.95113600  0.99569900  1
  V  V1  1  0.54001900  0.80195400  0.67027400  1
  V  V2  1  0.94958800  0.65385100  0.33818300  1
  V  V3  1  0.51514000  0.48631400  0.00170600  1
  V  V4  1  0.03308300  0.29173800  0.66359200  1
  V  V5  1  0.44290400  0.19252800  0.32748300  1
  O  O0  1  0.76955400  0.63037500  0.68604100  1
  O  O1  1  0.71947600  0.45357300  0.35168600  1
  O  O2  1  0.19742500  0.70044200  0.97471300  1
  O  O3  1  0.21835000  0.37667400  0.30979700  1
  O  O4  1  0.20868100  0.05431100  0.64821800  1
  F  F0  1  0.79344600  0.94391200  0.35972600  1
  F  F1  1  0.71470500  0.80531700  0.02437400  1
  F  F2  1  0.28800700  0.88425400  0.31219500  1
  F  F3  1  0.90469900  0.97930500  0.88912700  1
  F  F4  1  0.56374600  0.81232800  0.55261600  1
  F  F5  1  0.94412100  0.63372200  0.21861200  1
  F  F6  1  0.40558100  0.87678300  0.78040200  1
  F  F7  1  0.09384500  0.71318200  0.44709200  1
  F  F8  1  0.40096700  0.54878700  0.11448200  1
  F  F9  1  0.79289900  0.32216800  0.02690200  1
  F  F10  1  0.28316900  0.53878700  0.63838700  1
  F  F11  1  0.57231300  0.46432000  0.88386300  1
  F  F12  1  0.90906000  0.28523700  0.55322400  1
  F  F13  1  0.59239300  0.10736900  0.22045000  1
  F  F14  1  0.07032900  0.41584200  0.78116200  1
  F  F15  1  0.44005200  0.21545100  0.44716300  1
  F  F16  1  0.07731600  0.05905700  0.11330200  1
  F  F17  1  0.72481100  0.12183800  0.69459500  1
  F  F18  1  0.30204500  0.17944100  0.97494000  1
loop_
_geom_bond_atom_site_label_1
_geom_bond_atom_site_label_2
_geom_bond_distance
_geom_bond_site_symmetry_2
O0 V1 1.620203 1_555
O0 V4 2.350473 1_655
O1 V2 1.659421 1_555
O1 V5 2.012255 1_555
O2 V0 1.644948 1_555
O2 V3 2.184163 1_556
O3 V5 1.652458 1_555
O3 V2 2.118341 1_455
O4 V4 1.617616 1_555
O4 V1 2.352561 1_545
F0 V2 1.802765 1_555
F0 V5 2.462097 1_565
F1 V0 1.933785 1_654
F1 V3 1.996307 1_555
F2 V5 1.836388 1_565
F2 V2 2.246974 1_455
F3 V0 1.769608 1_655
F4 V1 1.770897 1_555
F5 V2 1.767849 1_555
F6 V1 1.774304 1_555
F7 V2 1.774224 1_455
F8 V3 1.765046 1_555
F9 V3 1.843136 1_555
F9 V0 2.419394 1_644
F10 V1 1.955914 1_555
F10 V4 1.957528 1_555
F11 V3 1.766208 1_556
F12 V4 1.773547 1_655
F13 V5 1.774611 1_555
F14 V4 1.771787 1_555
F15 V5 1.767314 1_555
F16 V0 1.761650 1_544
F17 V1 1.962051 1_545
F17 V4 1.962825 1_655
F18 V0 1.940918 1_545
F18 V3 1.982192 1_556
