# generated using pymatgen
data_Li2Co3(SiO4)2
_symmetry_space_group_name_H-M   'P 1'
_cell_length_a   4.96345300
_cell_length_b   8.85425796
_cell_length_c   13.30146609
_cell_angle_alpha   108.29332619
_cell_angle_beta   99.76208633
_cell_angle_gamma   90.74920623
_symmetry_Int_Tables_number   1
_chemical_formula_structural   Li2Co3(SiO4)2
_chemical_formula_sum   'Li6 Co9 Si6 O24'
_cell_volume   545.61459008
_cell_formula_units_Z   3
loop_
 _symmetry_equiv_pos_site_id
 _symmetry_equiv_pos_as_xyz
  1  'x, y, z'
loop_
 _atom_site_type_symbol
 _atom_site_label
 _atom_site_symmetry_multiplicity
 _atom_site_fract_x
 _atom_site_fract_y
 _atom_site_fract_z
 _atom_site_occupancy
  Li  Li0  1  0.44363500  0.35196200  0.76798700  1
  Li  Li1  1  0.38450800  0.62835300  0.69126700  1
  Li  Li2  1  0.27010900  0.53361600  0.47612600  1
  Li  Li3  1  0.48338300  0.09755000  0.85478600  1
  Li  Li4  1  0.72553600  0.34243400  0.35908900  1
  Li  Li5  1  0.60855000  0.21546300  0.09282900  1
  Co  Co0  1  0.00298900  0.00966800  0.99555400  1
  Co  Co1  1  0.27283900  0.20842600  0.49158700  1
  Co  Co2  1  0.21325100  0.45367400  0.18474400  1
  Co  Co3  1  0.28706000  0.86131200  0.34154400  1
  Co  Co4  1  0.91874200  0.60233500  0.83906700  1
  Co  Co5  1  0.60585800  0.53132800  0.03805000  1
  Co  Co6  1  0.68337500  0.92088600  0.18844000  1
  Co  Co7  1  0.93333600  0.12482900  0.68770700  1
  Co  Co8  1  0.85668200  0.71400400  0.53972300  1
  Si  Si0  1  0.02811000  0.31848500  0.93382300  1
  Si  Si1  1  0.48360200  0.80167500  0.93755600  1
  Si  Si2  1  0.18752400  0.14923100  0.24908600  1
  Si  Si3  1  0.38618600  0.93065300  0.59887300  1
  Si  Si4  1  0.82687400  0.41005800  0.59660800  1
  Si  Si5  1  0.76815200  0.63847500  0.28620600  1
  O  O0  1  0.04338300  0.54764500  0.59117500  1
  O  O1  1  0.02259000  0.26049600  0.60178300  1
  O  O2  1  0.17216800  0.24611200  0.82828300  1
  O  O3  1  0.06901500  0.91697600  0.61944000  1
  O  O4  1  0.37297600  0.98225800  0.96262700  1
  O  O5  1  0.05236000  0.22494600  0.35629400  1
  O  O6  1  0.30088200  0.65762600  0.83889600  1
  O  O7  1  0.39021200  0.99152000  0.49284900  1
  O  O8  1  0.38783900  0.27657400  0.22295900  1
  O  O9  1  0.48927500  0.74832400  0.57568700  1
  O  O10  1  0.56088200  0.06910300  0.70509800  1
  O  O11  1  0.38505300  0.00648800  0.26382500  1
  O  O12  1  0.28883400  0.39188200  0.03531200  1
  O  O13  1  0.43375200  0.64999400  0.27924200  1
  O  O14  1  0.78402300  0.81375700  0.90154700  1
  O  O15  1  0.57227500  0.36444300  0.49181800  1
  O  O16  1  0.67998200  0.46916200  0.70352800  1
  O  O17  1  0.82057900  0.45895100  0.91975700  1
  O  O18  1  0.83171100  0.19155000  0.96081700  1
  O  O19  1  0.52892100  0.75299700  0.05008200  1
  O  O20  1  0.90901200  0.58882700  0.39032800  1
  O  O21  1  0.81807400  0.49756700  0.17472400  1
  O  O22  1  0.88994200  0.81258900  0.28676000  1
  O  O23  1  0.92305600  0.07369100  0.14732000  1
loop_
_geom_bond_atom_site_label_1
_geom_bond_atom_site_label_2
_geom_bond_distance
_geom_bond_site_symmetry_2
Li0 O16 2.013938 1_555
Li0 O2 2.035307 1_555
Li0 O17 2.438343 1_555
Li0 O10 2.489774 1_555
Li1 O0 1.938209 1_555
Li1 O6 2.013757 1_555
Li1 O16 2.069161 1_555
Li1 O9 2.245928 1_555
Li2 O0 2.022878 1_555
Li2 O9 2.104321 1_555
Li2 O20 2.105518 1_455
Li2 O15 2.164601 1_555
Li3 O18 2.017315 1_555
Li3 O10 2.030566 1_555
Li3 O2 2.097677 1_555
Li3 O4 2.138037 1_545
Li4 O5 1.937859 1_655
Li4 O15 1.994225 1_555
Li4 O8 2.170391 1_555
Li4 O20 2.238778 1_555
Li5 O8 2.135307 1_555
Li5 O23 2.185553 1_555
Li5 O18 2.188012 1_554
Li5 O4 2.373904 1_544
Li5 O12 2.438631 1_555
Li5 O21 2.519336 1_555
Co0 O4 1.959800 1_545
Co0 O14 1.970268 1_445
Co0 O18 1.974695 1_455
Co0 O23 2.028063 1_456
Co1 O5 1.989750 1_555
Co1 O15 2.014773 1_555
Co1 O7 2.018499 1_545
Co1 O1 2.027805 1_555
Co2 O8 1.963353 1_555
Co2 O13 1.977739 1_555
Co2 O12 1.991593 1_555
Co2 O21 1.994959 1_455
Co3 O7 1.954561 1_555
Co3 O22 1.973727 1_455
Co3 O11 1.986440 1_565
Co3 O13 1.996151 1_555
Co4 O6 1.953242 1_655
Co4 O14 1.971464 1_555
Co4 O16 1.987340 1_555
Co4 O17 2.004418 1_555
Co5 O19 1.966424 1_555
Co5 O12 1.975684 1_555
Co5 O17 1.993956 1_554
Co5 O21 2.050332 1_555
Co6 O11 1.956574 1_565
Co6 O19 1.989666 1_555
Co6 O22 2.009791 1_555
Co6 O23 2.046480 1_565
Co7 O3 1.963613 1_645
Co7 O10 1.976695 1_555
Co7 O1 1.991258 1_655
Co7 O2 2.002331 1_655
Co8 O3 1.959614 1_655
Co8 O9 1.966163 1_555
Co8 O0 1.987531 1_655
Co8 O20 2.011139 1_555
O0 Si4 1.640582 1_455
O1 Si4 1.664411 1_455
O2 Si0 1.637163 1_555
O3 Si3 1.652172 1_555
O4 Si1 1.649122 1_555
O5 Si2 1.633739 1_555
O6 Si1 1.639164 1_555
O7 Si3 1.663167 1_555
O8 Si2 1.647568 1_555
O9 Si3 1.650981 1_555
O10 Si3 1.649371 1_545
O11 Si2 1.649195 1_555
O12 Si0 1.659588 1_554
O13 Si5 1.652897 1_555
O14 Si1 1.653634 1_555
O15 Si4 1.654935 1_555
O16 Si4 1.649988 1_555
O17 Si0 1.660459 1_655
O18 Si0 1.638828 1_655
O19 Si1 1.664332 1_554
O20 Si5 1.631590 1_555
O21 Si5 1.669784 1_555
O22 Si5 1.645948 1_555
O23 Si2 1.675982 1_655
