# generated using pymatgen
data_LiLa6Mn3O14
_symmetry_space_group_name_H-M   'P 1'
_cell_length_a   5.60092900
_cell_length_b   5.59662300
_cell_length_c   21.28143250
_cell_angle_alpha   74.94203110
_cell_angle_beta   90.00000000
_cell_angle_gamma   90.00000000
_symmetry_Int_Tables_number   1
_chemical_formula_structural   LiLa6Mn3O14
_chemical_formula_sum   'Li2 La12 Mn6 O28'
_cell_volume   644.18822478
_cell_formula_units_Z   2
loop_
 _symmetry_equiv_pos_site_id
 _symmetry_equiv_pos_as_xyz
  1  'x, y, z'
loop_
 _atom_site_type_symbol
 _atom_site_label
 _atom_site_symmetry_multiplicity
 _atom_site_fract_x
 _atom_site_fract_y
 _atom_site_fract_z
 _atom_site_occupancy
  Li  Li0  1  0.99441400  0.14997200  0.59418700  1
  Li  Li1  1  0.00558600  0.14997200  0.09418700  1
  La  La0  1  0.47777500  0.08082400  0.67939200  1
  La  La1  1  0.48615700  0.44341900  0.31770100  1
  La  La2  1  0.51823200  0.25289000  0.50511900  1
  La  La3  1  0.48176800  0.25289000  0.00511900  1
  La  La4  1  0.51384300  0.44341900  0.81770100  1
  La  La5  1  0.52222500  0.08082400  0.17939200  1
  La  La6  1  0.98738100  0.91751200  0.81741600  1
  La  La7  1  0.99027100  0.54963900  0.17916700  1
  La  La8  1  0.99117700  0.76249100  0.00502200  1
  La  La9  1  0.00882300  0.76249100  0.50502200  1
  La  La10  1  0.00972900  0.54963900  0.67916700  1
  La  La11  1  0.01261900  0.91751200  0.31741600  1
  Mn  Mn0  1  0.49502400  0.85179000  0.90215200  1
  Mn  Mn1  1  0.49535400  0.65738600  0.09694600  1
  Mn  Mn2  1  0.50464600  0.65738600  0.59694600  1
  Mn  Mn3  1  0.50497600  0.85179000  0.40215200  1
  Mn  Mn4  1  0.99863300  0.34370800  0.40385600  1
  Mn  Mn5  1  0.00136700  0.34370800  0.90385600  1
  O  O0  1  0.25295900  0.11798600  0.87905700  1
  O  O1  1  0.25198800  0.59999800  0.90080900  1
  O  O2  1  0.26139000  0.42732600  0.58254500  1
  O  O3  1  0.25693800  0.89567600  0.59745100  1
  O  O4  1  0.25565000  0.58336000  0.42041000  1
  O  O5  1  0.25212100  0.09617300  0.40086600  1
  O  O6  1  0.25987200  0.87398200  0.11733200  1
  O  O7  1  0.25678300  0.40911500  0.09730900  1
  O  O8  1  0.44634200  0.80640900  0.99656800  1
  O  O9  1  0.45056200  0.49227700  0.70743300  1
  O  O10  1  0.45468100  0.90499700  0.29694500  1
  O  O11  1  0.54531900  0.90499700  0.79694500  1
  O  O12  1  0.54943800  0.49227700  0.20743300  1
  O  O13  1  0.55365800  0.80640900  0.49656800  1
  O  O14  1  0.74787900  0.09617300  0.90086600  1
  O  O15  1  0.74435000  0.58336000  0.92041000  1
  O  O16  1  0.74012800  0.87398200  0.61733200  1
  O  O17  1  0.74321700  0.40911500  0.59730900  1
  O  O18  1  0.74801200  0.59999800  0.40080900  1
  O  O19  1  0.74704100  0.11798600  0.37905700  1
  O  O20  1  0.74306200  0.89567600  0.09745100  1
  O  O21  1  0.73861000  0.42732600  0.08254500  1
  O  O22  1  0.93414800  0.18338500  0.49959500  1
  O  O23  1  0.94672900  0.50580300  0.79351400  1
  O  O24  1  0.94440200  0.09382900  0.20925500  1
  O  O25  1  0.05559800  0.09382900  0.70925500  1
  O  O26  1  0.05327100  0.50580300  0.29351400  1
  O  O27  1  0.06585200  0.18338500  0.99959500  1
loop_
_geom_bond_atom_site_label_1
_geom_bond_atom_site_label_2
_geom_bond_distance
_geom_bond_site_symmetry_2
Li0 O22 2.001423 1_555
Li0 O17 2.034059 1_555
Li0 O3 2.034936 1_645
Li0 O16 2.064360 1_545
Li0 O2 2.122967 1_655
Li0 O25 2.411026 1_655
Li1 O27 2.001423 1_554
Li1 O7 2.034059 1_555
Li1 O20 2.034936 1_445
Li1 O6 2.064360 1_545
Li1 O21 2.122967 1_455
Li1 O24 2.411026 1_455
La0 O25 2.454482 1_555
La0 O16 2.457232 1_545
La0 O11 2.467958 1_545
La0 O9 2.529031 1_555
La0 O3 2.565817 1_545
La0 O17 2.640060 1_555
La0 O2 2.720415 1_555
La0 O9 3.194939 1_545
La0 O25 3.302599 1_655
La1 O12 2.318146 1_555
La1 O19 2.433432 1_555
La1 O26 2.484347 1_555
La1 O10 2.511299 1_555
La1 O5 2.615403 1_555
La1 O18 2.617708 1_555
La1 O4 2.819115 1_555
La1 O10 3.161968 1_545
La1 O26 3.222230 1_655
La2 O22 2.369713 1_555
La2 O13 2.559822 1_545
La2 O2 2.563857 1_555
La2 O17 2.663243 1_555
La2 O4 2.664788 1_555
La2 O3 2.821081 1_545
La2 O18 2.849082 1_555
La2 O5 2.987357 1_555
La2 O16 3.018791 1_545
La2 O13 3.062053 1_555
La2 O19 3.234523 1_555
La2 O22 3.300158 1_455
La3 O27 2.369713 1_554
La3 O8 2.559822 1_544
La3 O21 2.563857 1_555
La3 O7 2.663243 1_555
La3 O15 2.664788 1_554
La3 O20 2.821081 1_545
La3 O1 2.849082 1_554
La3 O14 2.987357 1_554
La3 O6 3.018791 1_545
La3 O8 3.062053 1_554
La3 O0 3.234523 1_554
La3 O27 3.300158 1_654
La4 O9 2.318146 1_555
La4 O0 2.433432 1_555
La4 O23 2.484347 1_555
La4 O11 2.511299 1_555
La4 O14 2.615403 1_555
La4 O1 2.617708 1_555
La4 O15 2.819115 1_555
La4 O11 3.161968 1_545
La4 O23 3.222230 1_455
La5 O24 2.454482 1_555
La5 O6 2.457232 1_545
La5 O10 2.467958 1_545
La5 O12 2.529031 1_555
La5 O20 2.565817 1_545
La5 O7 2.640060 1_555
La5 O21 2.720415 1_555
La5 O12 3.194939 1_545
La5 O24 3.302599 1_455
La6 O25 2.288646 1_665
La6 O0 2.440703 1_665
La6 O23 2.495762 1_555
La6 O11 2.518119 1_555
La6 O1 2.620155 1_655
La6 O14 2.622185 1_565
La6 O15 2.832779 1_555
La6 O11 3.158480 1_655
La6 O23 3.206333 1_565
La7 O26 2.407543 1_655
La7 O6 2.462868 1_655
La7 O24 2.476866 1_555
La7 O12 2.541830 1_555
La7 O7 2.567751 1_655
La7 O20 2.634767 1_555
La7 O21 2.723039 1_555
La7 O12 3.189528 1_655
La7 O24 3.281027 1_565
La8 O27 2.365522 1_664
La8 O8 2.563001 1_654
La8 O21 2.575575 1_555
La8 O15 2.663950 1_554
La8 O20 2.667919 1_555
La8 O7 2.821967 1_655
La8 O14 2.847261 1_564
La8 O1 2.987897 1_654
La8 O6 3.023534 1_655
La8 O8 3.062998 1_554
La8 O0 3.243949 1_664
La8 O27 3.299560 1_654
La9 O22 2.365522 1_465
La9 O13 2.563001 1_455
La9 O2 2.575575 1_555
La9 O4 2.663950 1_555
La9 O3 2.667919 1_555
La9 O17 2.821967 1_455
La9 O5 2.847261 1_565
La9 O18 2.987897 1_455
La9 O16 3.023534 1_455
La9 O13 3.062998 1_555
La9 O19 3.243949 1_465
La9 O22 3.299560 1_455
La10 O23 2.407543 1_455
La10 O16 2.462868 1_455
La10 O25 2.476866 1_555
La10 O9 2.541830 1_555
La10 O17 2.567751 1_455
La10 O3 2.634767 1_555
La10 O2 2.723039 1_555
La10 O9 3.189528 1_455
La10 O25 3.281027 1_565
La11 O24 2.288646 1_465
La11 O19 2.440703 1_465
La11 O26 2.495762 1_555
La11 O10 2.518119 1_555
La11 O18 2.620155 1_455
La11 O5 2.622185 1_565
La11 O4 2.832779 1_555
La11 O10 3.158480 1_455
La11 O26 3.206333 1_565
Mn0 O14 1.964089 1_565
Mn0 O1 1.964812 1_555
Mn0 O8 1.977627 1_555
Mn0 O0 1.979588 1_565
Mn0 O15 2.013623 1_555
Mn0 O11 2.198756 1_555
Mn1 O6 1.915846 1_555
Mn1 O7 1.926296 1_555
Mn1 O20 1.926387 1_555
Mn1 O21 1.952707 1_555
Mn1 O8 2.099650 1_554
Mn1 O12 2.312013 1_555
Mn2 O16 1.915846 1_555
Mn2 O17 1.926296 1_555
Mn2 O3 1.926387 1_555
Mn2 O2 1.952707 1_555
Mn2 O13 2.099650 1_555
Mn2 O9 2.312013 1_555
Mn3 O5 1.964089 1_565
Mn3 O18 1.964812 1_555
Mn3 O13 1.977627 1_555
Mn3 O19 1.979588 1_565
Mn3 O4 2.013623 1_555
Mn3 O10 2.198756 1_555
Mn4 O18 1.995912 1_555
Mn4 O5 1.996201 1_655
Mn4 O22 2.033937 1_555
Mn4 O19 2.050981 1_555
Mn4 O4 2.059323 1_655
Mn4 O26 2.307372 1_655
Mn5 O1 1.995912 1_555
Mn5 O14 1.996201 1_455
Mn5 O27 2.033937 1_555
Mn5 O0 2.050981 1_555
Mn5 O15 2.059323 1_455
Mn5 O23 2.307372 1_455
