# generated using pymatgen
data_TaGaO4
_symmetry_space_group_name_H-M   'P 1'
_cell_length_a   4.67097900
_cell_length_b   5.00790100
_cell_length_c   5.65089300
_cell_angle_alpha   90.00000000
_cell_angle_beta   90.00000000
_cell_angle_gamma   90.00000000
_symmetry_Int_Tables_number   1
_chemical_formula_structural   TaGaO4
_chemical_formula_sum   'Ta2 Ga2 O8'
_cell_volume   132.18456117
_cell_formula_units_Z   2
loop_
 _symmetry_equiv_pos_site_id
 _symmetry_equiv_pos_as_xyz
  1  'x, y, z'
loop_
 _atom_site_type_symbol
 _atom_site_label
 _atom_site_symmetry_multiplicity
 _atom_site_fract_x
 _atom_site_fract_y
 _atom_site_fract_z
 _atom_site_occupancy
  Ta  Ta0  1  0.00000000  0.00000000  0.82006600  1
  Ta  Ta1  1  0.50000000  0.00000000  0.32006600  1
  Ga  Ga0  1  0.00000000  0.50000000  0.16974200  1
  Ga  Ga1  1  0.50000000  0.50000000  0.66974200  1
  O  O0  1  0.77324700  0.16843600  0.11539300  1
  O  O1  1  0.77278300  0.67694800  0.88970300  1
  O  O2  1  0.72721700  0.67694800  0.38970300  1
  O  O3  1  0.72675300  0.16843600  0.61539300  1
  O  O4  1  0.27278300  0.32305200  0.38970300  1
  O  O5  1  0.27324700  0.83156400  0.61539300  1
  O  O6  1  0.22675300  0.83156400  0.11539300  1
  O  O7  1  0.22721700  0.32305200  0.88970300  1
loop_
_geom_bond_atom_site_label_1
_geom_bond_atom_site_label_2
_geom_bond_distance
_geom_bond_site_symmetry_2
Ga0 O2 1.988397 1_455
Ga0 O4 1.988397 1_555
Ga0 O0 1.993289 1_455
Ga0 O6 1.993289 1_555
Ga0 O7 2.101396 1_554
Ga0 O1 2.101396 1_454
Ga1 O7 1.988397 1_555
Ga1 O1 1.988397 1_555
Ga1 O5 1.993289 1_555
Ga1 O3 1.993289 1_555
Ga1 O2 2.101396 1_555
Ga1 O4 2.101396 1_555
O0 Ta1 1.917869 1_555
O0 Ta0 2.149052 1_654
O1 Ta0 1.974482 1_665
O2 Ta1 1.974482 1_565
O3 Ta0 1.917869 1_655
O3 Ta1 2.149052 1_555
O4 Ta1 1.974482 1_555
O5 Ta0 1.917869 1_565
O5 Ta1 2.149052 1_565
O6 Ta1 1.917869 1_565
O6 Ta0 2.149052 1_564
O7 Ta0 1.974482 1_555
