# generated using pymatgen
data_Li6MnV3(PO4)6
_symmetry_space_group_name_H-M   'P 1'
_cell_length_a   9.83390068
_cell_length_b   9.74830516
_cell_length_c   9.74419705
_cell_angle_alpha   85.79070940
_cell_angle_beta   94.32440154
_cell_angle_gamma   95.12225603
_symmetry_Int_Tables_number   1
_chemical_formula_structural   Li6MnV3(PO4)6
_chemical_formula_sum   'Li12 Mn2 V6 P12 O48'
_cell_volume   925.64473244
_cell_formula_units_Z   2
loop_
 _symmetry_equiv_pos_site_id
 _symmetry_equiv_pos_as_xyz
  1  'x, y, z'
loop_
 _atom_site_type_symbol
 _atom_site_label
 _atom_site_symmetry_multiplicity
 _atom_site_fract_x
 _atom_site_fract_y
 _atom_site_fract_z
 _atom_site_occupancy
  Li  Li0  1  0.01582500  0.50898000  0.23976400  1
  Li  Li1  1  0.99675200  0.26013000  0.38970600  1
  Li  Li2  1  0.21753900  0.56347200  0.47067700  1
  Li  Li3  1  0.23139700  0.73216800  0.17530700  1
  Li  Li4  1  0.25397900  0.98965000  0.61129600  1
  Li  Li5  1  0.37777100  0.74674800  0.81276500  1
  Li  Li6  1  0.50692500  0.01310300  0.75734300  1
  Li  Li7  1  0.56097400  0.22117900  0.53556900  1
  Li  Li8  1  0.69964100  0.92151100  0.97675900  1
  Li  Li9  1  0.73444600  0.23745000  0.81925200  1
  Li  Li10  1  0.75271100  0.37797700  0.19307200  1
  Li  Li11  1  0.92253800  0.69508700  0.01486500  1
  Mn  Mn0  1  0.47389600  0.46739600  0.99659500  1
  Mn  Mn1  1  0.97265500  0.74813800  0.71775400  1
  V  V0  1  0.03588200  0.25121100  0.78759100  1
  V  V1  1  0.24590900  0.24488700  0.00215100  1
  V  V2  1  0.24964900  0.03601600  0.21249100  1
  V  V3  1  0.53616500  0.53611600  0.50014700  1
  V  V4  1  0.74844900  0.95981700  0.28839300  1
  V  V5  1  0.74483400  0.74964800  0.49558600  1
  P  P0  1  0.05336500  0.82251800  0.39913900  1
  P  P1  1  0.17345700  0.94404700  0.90370500  1
  P  P2  1  0.15789900  0.55225200  0.92844700  1
  P  P3  1  0.31627700  0.33893100  0.30571200  1
  P  P4  1  0.34203000  0.32039200  0.70055000  1
  P  P5  1  0.44054200  0.84151800  0.42781100  1
  P  P6  1  0.55423700  0.14996400  0.07412600  1
  P  P7  1  0.65219500  0.68016800  0.80250500  1
  P  P8  1  0.67978800  0.65213200  0.19377400  1
  P  P9  1  0.83953500  0.44494700  0.57188300  1
  P  P10  1  0.81868800  0.05456100  0.59359900  1
  P  P11  1  0.94361700  0.17283600  0.09923100  1
  O  O0  1  0.03204800  0.87112800  0.87194500  1
  O  O1  1  0.09446900  0.82901200  0.55357200  1
  O  O2  1  0.09896200  0.60778600  0.78883100  1
  O  O3  1  0.10965800  0.95908200  0.32415300  1
  O  O4  1  0.09971400  0.69491300  0.33710500  1
  O  O5  1  0.12596200  0.38675500  0.92803800  1
  O  O6  1  0.09386900  0.59888400  0.05543700  1
  O  O7  1  0.10425400  0.15950400  0.12387100  1
  O  O8  1  0.16389800  0.10625700  0.87452300  1
  O  O9  1  0.18385800  0.31558800  0.66961700  1
  O  O10  1  0.21013400  0.91113600  0.06040000  1
  O  O11  1  0.18991900  0.39927100  0.35365700  1
  O  O12  1  0.28472000  0.91005800  0.81276600  1
  O  O13  1  0.31369200  0.59116000  0.93764700  1
  O  O14  1  0.31317500  0.17912000  0.33793500  1
  O  O15  1  0.32229400  0.37010400  0.14515300  1
  O  O16  1  0.36718100  0.89111400  0.28929800  1
  O  O17  1  0.40714400  0.91238300  0.55211900  1
  O  O18  1  0.37315200  0.32684800  0.86407700  1
  O  O19  1  0.40119800  0.45860500  0.63184800  1
  O  O20  1  0.40547100  0.68069100  0.44116800  1
  O  O21  1  0.40346600  0.19287400  0.65634400  1
  O  O22  1  0.39184500  0.12416000  0.07865600  1
  O  O23  1  0.45375200  0.40004100  0.37451600  1
  O  O24  1  0.57402400  0.80066500  0.83995400  1
  O  O25  1  0.54059200  0.59867700  0.13038700  1
  O  O26  1  0.59949100  0.53595200  0.85672800  1
  O  O27  1  0.60211900  0.87037000  0.41258400  1
  O  O28  1  0.62414400  0.67319300  0.63679800  1
  O  O29  1  0.59920500  0.09380100  0.94230200  1
  O  O30  1  0.59559700  0.30550400  0.08064700  1
  O  O31  1  0.61183500  0.07367300  0.20721800  1
  O  O32  1  0.66896200  0.62188100  0.35652800  1
  O  O33  1  0.70114300  0.81043800  0.15768300  1
  O  O34  1  0.67934000  0.40703000  0.56162400  1
  O  O35  1  0.69395600  0.10692700  0.65424100  1
  O  O36  1  0.80474800  0.70612400  0.84577100  1
  O  O37  1  0.81957100  0.89401700  0.62027300  1
  O  O38  1  0.80205200  0.57947200  0.15483700  1
  O  O39  1  0.82094500  0.09070600  0.43431200  1
  O  O40  1  0.86579000  0.60763800  0.58159700  1
  O  O41  1  0.89066400  0.82567800  0.37281900  1
  O  O42  1  0.89213400  0.37362700  0.71160300  1
  O  O43  1  0.90725400  0.20136400  0.94210800  1
  O  O44  1  0.90612200  0.40649100  0.44652200  1
  O  O45  1  0.86954400  0.03222400  0.14251700  1
  O  O46  1  0.91488000  0.28847500  0.18779500  1
  O  O47  1  0.95528300  0.11745200  0.66291600  1
loop_
_geom_bond_atom_site_label_1
_geom_bond_atom_site_label_2
_geom_bond_distance
_geom_bond_site_symmetry_2
Li0 O6 2.107096 1_555
Li0 O4 2.175517 1_555
Li0 O11 2.274340 1_555
Li0 O38 2.342754 1_455
Li0 O46 2.359107 1_455
Li0 O44 2.461873 1_455
Li1 O44 1.885187 1_555
Li1 O46 2.077620 1_555
Li1 O11 2.267644 1_655
Li1 O39 2.324598 1_555
Li2 O11 2.019842 1_555
Li2 O20 2.111568 1_555
Li2 O4 2.114528 1_555
Li2 O19 2.537647 1_555
Li3 O10 2.020945 1_555
Li3 O4 2.105780 1_555
Li3 O6 2.133622 1_555
Li3 O16 2.253243 1_555
Li4 O17 1.888342 1_555
Li4 O12 2.067892 1_555
Li4 O1 2.187859 1_555
Li4 O21 2.405980 1_565
Li5 O12 1.905755 1_555
Li5 O24 1.957879 1_555
Li5 O13 1.962738 1_555
Li6 O29 2.127103 1_555
Li6 O21 2.233603 1_555
Li6 O35 2.252123 1_555
Li6 O24 2.300268 1_545
Li6 O17 2.397105 1_545
Li6 O12 2.404565 1_545
Li7 O21 2.002794 1_555
Li7 O35 2.032429 1_555
Li7 O34 2.085215 1_555
Li7 O23 2.508343 1_555
Li8 O33 1.999837 1_556
Li8 O29 2.018042 1_565
Li8 O24 2.100749 1_555
Li8 O45 2.468228 1_566
Li9 O43 2.045209 1_555
Li9 O35 2.115691 1_555
Li9 O29 2.197454 1_555
Li9 O42 2.222721 1_555
Li10 O46 1.890644 1_555
Li10 O30 1.936450 1_555
Li10 O38 1.995522 1_555
Li11 O36 1.943344 1_554
Li11 O6 2.000446 1_655
Li11 O38 2.077009 1_555
Li11 O0 2.364217 1_654
Mn0 O25 1.932279 1_556
Mn0 O26 1.949950 1_555
Mn0 O18 2.085788 1_555
Mn0 O13 2.090151 1_555
Mn0 O30 2.143230 1_556
Mn0 O15 2.255890 1_556
Mn1 O2 1.982180 1_655
Mn1 O0 2.010739 1_655
Mn1 O40 2.130731 1_555
Mn1 O1 2.133350 1_655
Mn1 O36 2.136602 1_555
Mn1 O37 2.271375 1_555
O0 P1 1.525032 1_555
O1 P0 1.532834 1_555
O2 P2 1.519473 1_555
O3 P0 1.548943 1_555
O3 V2 1.887659 1_565
O4 P0 1.540672 1_555
O5 P2 1.616081 1_555
O5 V1 1.960021 1_556
O5 V0 2.068126 1_555
O6 P2 1.544510 1_554
O7 P11 1.595253 1_455
O7 V1 1.984250 1_555
O7 V2 2.051265 1_555
O8 P1 1.595814 1_545
O8 V1 1.980959 1_556
O8 V0 2.068866 1_555
O9 P4 1.559110 1_555
O9 V0 1.953506 1_555
O10 P1 1.558859 1_554
O10 V2 1.980620 1_565
O11 P3 1.538406 1_555
O12 P1 1.531737 1_555
O13 P2 1.542595 1_555
O14 P3 1.564506 1_555
O14 V2 1.951932 1_555
O15 P3 1.576236 1_555
O15 V1 1.980917 1_555
O16 P5 1.547751 1_555
O16 V2 1.974127 1_565
O17 P5 1.508523 1_555
O18 P4 1.604498 1_555
O18 V1 1.982883 1_556
O19 P4 1.545441 1_555
O19 V3 1.978607 1_555
O20 P5 1.572933 1_555
O20 V3 2.015329 1_555
O21 P4 1.532242 1_555
O22 P6 1.597728 1_555
O22 V1 2.002952 1_555
O22 V2 2.071317 1_555
O23 P3 1.552476 1_555
O23 V3 1.952388 1_555
O24 P7 1.539593 1_555
O25 P8 1.522872 1_555
O26 P7 1.525247 1_555
O27 P5 1.604822 1_555
O27 V5 1.998187 1_555
O27 V4 2.044289 1_555
O28 P7 1.622809 1_555
O28 V5 1.948142 1_555
O28 V3 2.046512 1_555
O29 P6 1.541889 1_556
O30 P6 1.539029 1_555
O31 P6 1.542291 1_555
O31 V4 1.907752 1_545
O32 P8 1.601437 1_555
O32 V5 1.968092 1_555
O32 V3 2.066825 1_555
O33 P8 1.556564 1_555
O33 V4 2.005263 1_555
O34 P9 1.583041 1_555
O34 V3 2.000809 1_555
O35 P10 1.542631 1_555
O36 P7 1.531285 1_555
O37 P10 1.568225 1_565
O37 V5 1.982075 1_555
O38 P8 1.533484 1_555
O39 P10 1.567561 1_555
O39 V4 2.027071 1_545
O40 P9 1.592523 1_555
O40 V5 2.001767 1_555
O41 P0 1.603882 1_655
O41 V5 1.993921 1_555
O41 V4 2.082707 1_555
O42 P9 1.556777 1_555
O42 V0 1.996064 1_655
O43 P11 1.556269 1_556
O43 V0 2.042830 1_655
O44 P9 1.514319 1_555
O45 P11 1.539668 1_555
O45 V4 1.973501 1_545
O46 P11 1.527039 1_555
O47 P10 1.553496 1_555
O47 V0 1.925384 1_655
