# generated using pymatgen
data_Cu2OF2
_symmetry_space_group_name_H-M   'P 1'
_cell_length_a   5.22404277
_cell_length_b   5.22404277
_cell_length_c   13.95934723
_cell_angle_alpha   88.36202850
_cell_angle_beta   88.36202850
_cell_angle_gamma   60.53685378
_symmetry_Int_Tables_number   1
_chemical_formula_structural   Cu2OF2
_chemical_formula_sum   'Cu12 O6 F12'
_cell_volume   331.50896779
_cell_formula_units_Z   6
loop_
 _symmetry_equiv_pos_site_id
 _symmetry_equiv_pos_as_xyz
  1  'x, y, z'
loop_
 _atom_site_type_symbol
 _atom_site_label
 _atom_site_symmetry_multiplicity
 _atom_site_fract_x
 _atom_site_fract_y
 _atom_site_fract_z
 _atom_site_occupancy
  Cu  Cu0  1  0.04606100  0.93851200  0.65244200  1
  Cu  Cu1  1  0.93851200  0.04606100  0.15244200  1
  Cu  Cu2  1  0.41686500  0.31034000  0.81746300  1
  Cu  Cu3  1  0.36385600  0.33227000  0.51478800  1
  Cu  Cu4  1  0.31034000  0.41686500  0.31746300  1
  Cu  Cu5  1  0.33227000  0.36385600  0.01478800  1
  Cu  Cu6  1  0.66773000  0.63614400  0.98521200  1
  Cu  Cu7  1  0.68966000  0.58313500  0.68253700  1
  Cu  Cu8  1  0.63614400  0.66773000  0.48521200  1
  Cu  Cu9  1  0.58313500  0.68966000  0.18253700  1
  Cu  Cu10  1  0.06148800  0.95393900  0.84755800  1
  Cu  Cu11  1  0.95393900  0.06148800  0.34755800  1
  O  O0  1  0.37668200  0.60781500  0.91179100  1
  O  O1  1  0.60781500  0.37668200  0.41179100  1
  O  O2  1  0.39218500  0.62331800  0.58820900  1
  O  O3  1  0.62331800  0.39218500  0.08820900  1
  O  O4  1  0.77543700  0.22456300  0.75000000  1
  O  O5  1  0.22456300  0.77543700  0.25000000  1
  F  F0  1  0.01944500  0.62846800  0.73679000  1
  F  F1  1  0.62846800  0.01944500  0.23679000  1
  F  F2  1  0.73203700  0.94012400  0.91795500  1
  F  F3  1  0.94012400  0.73203700  0.41795500  1
  F  F4  1  0.68694000  0.90459600  0.58597600  1
  F  F5  1  0.90459600  0.68694000  0.08597600  1
  F  F6  1  0.09540400  0.31306000  0.91402400  1
  F  F7  1  0.31306000  0.09540400  0.41402400  1
  F  F8  1  0.05987600  0.26796300  0.58204500  1
  F  F9  1  0.26796300  0.05987600  0.08204500  1
  F  F10  1  0.37153200  0.98055500  0.76321000  1
  F  F11  1  0.98055500  0.37153200  0.26321000  1
loop_
_geom_bond_atom_site_label_1
_geom_bond_atom_site_label_2
_geom_bond_distance
_geom_bond_site_symmetry_2
Cu0 O2 1.961520 1_555
Cu0 F8 1.988571 1_565
Cu0 O4 2.003597 1_465
Cu0 F0 2.032790 1_555
Cu0 F4 2.201762 1_455
Cu0 F10 2.422217 1_555
Cu1 O3 1.961520 1_555
Cu1 F9 1.988571 1_655
Cu1 O5 2.003597 1_645
Cu1 F1 2.032790 1_555
Cu1 F5 2.201762 1_545
Cu1 F11 2.422217 1_555
Cu2 O4 1.921999 1_555
Cu2 O0 1.993282 1_555
Cu2 F10 2.020872 1_545
Cu2 F6 2.117891 1_555
Cu2 F0 2.230013 1_555
Cu2 F2 2.294257 1_545
Cu3 O2 1.924373 1_555
Cu3 O1 1.977952 1_555
Cu3 F8 1.984342 1_555
Cu3 F7 2.005978 1_555
Cu3 F4 2.255492 1_545
Cu3 F3 2.559415 1_455
Cu4 O5 1.921999 1_555
Cu4 O1 1.993282 1_555
Cu4 F11 2.020872 1_455
Cu4 F7 2.117891 1_555
Cu4 F1 2.230013 1_555
Cu4 F3 2.294257 1_455
Cu5 O3 1.924373 1_555
Cu5 O0 1.977952 1_554
Cu5 F9 1.984342 1_555
Cu5 F6 2.005978 1_554
Cu5 F5 2.255492 1_455
Cu5 F2 2.559415 1_544
Cu6 O0 1.924373 1_555
Cu6 O3 1.977952 1_556
Cu6 F2 1.984342 1_555
Cu6 F5 2.005978 1_556
Cu6 F6 2.255492 1_655
Cu6 F9 2.559415 1_566
Cu7 O4 1.921999 1_555
Cu7 O2 1.993282 1_555
Cu7 F0 2.020872 1_655
Cu7 F4 2.117891 1_555
Cu7 F10 2.230013 1_555
Cu7 F8 2.294257 1_655
Cu8 O1 1.924373 1_555
Cu8 O2 1.977952 1_555
Cu8 F3 1.984342 1_555
Cu8 F4 2.005978 1_555
Cu8 F7 2.255492 1_565
Cu8 F8 2.559415 1_655
Cu9 O5 1.921999 1_555
Cu9 O3 1.993282 1_555
Cu9 F1 2.020872 1_565
Cu9 F5 2.117891 1_555
Cu9 F11 2.230013 1_555
Cu9 F9 2.294257 1_565
Cu10 O0 1.961520 1_555
Cu10 F2 1.988571 1_455
Cu10 O4 2.003597 1_465
Cu10 F10 2.032790 1_555
Cu10 F6 2.201762 1_565
Cu10 F0 2.422217 1_555
Cu11 O1 1.961520 1_555
Cu11 F3 1.988571 1_545
Cu11 O5 2.003597 1_645
Cu11 F11 2.032790 1_555
Cu11 F7 2.201762 1_655
Cu11 F1 2.422217 1_555
