# generated using pymatgen
data_Li3VPCO7
_symmetry_space_group_name_H-M   'P 1'
_cell_length_a   6.53496400
_cell_length_b   9.69253600
_cell_length_c   9.73718181
_cell_angle_alpha   62.33619092
_cell_angle_beta   90.00000000
_cell_angle_gamma   90.00000000
_symmetry_Int_Tables_number   1
_chemical_formula_structural   Li3VPCO7
_chemical_formula_sum   'Li12 V4 P4 C4 O28'
_cell_volume   546.25346457
_cell_formula_units_Z   4
loop_
 _symmetry_equiv_pos_site_id
 _symmetry_equiv_pos_as_xyz
  1  'x, y, z'
loop_
 _atom_site_type_symbol
 _atom_site_label
 _atom_site_symmetry_multiplicity
 _atom_site_fract_x
 _atom_site_fract_y
 _atom_site_fract_z
 _atom_site_occupancy
  Li  Li0  1  0.24805600  0.43721300  0.88967400  1
  Li  Li1  1  0.25194400  0.93721300  0.88967400  1
  Li  Li2  1  0.47865600  0.27186800  0.70317600  1
  Li  Li3  1  0.02134400  0.77186800  0.70317600  1
  Li  Li4  1  0.73475400  0.07185700  0.62893100  1
  Li  Li5  1  0.76524600  0.57185700  0.62893100  1
  Li  Li6  1  0.23475400  0.42814300  0.37106900  1
  Li  Li7  1  0.26524600  0.92814300  0.37106900  1
  Li  Li8  1  0.97865600  0.22813200  0.29682400  1
  Li  Li9  1  0.52134400  0.72813200  0.29682400  1
  Li  Li10  1  0.74805600  0.06278700  0.11032600  1
  Li  Li11  1  0.75194400  0.56278700  0.11032600  1
  V  V0  1  0.98120500  0.23551800  0.75227200  1
  V  V1  1  0.51879500  0.73551800  0.75227200  1
  V  V2  1  0.48120500  0.26448200  0.24772800  1
  V  V3  1  0.01879500  0.76448200  0.24772800  1
  P  P0  1  0.25774000  0.06320800  0.59144700  1
  P  P1  1  0.24226000  0.56320800  0.59144700  1
  P  P2  1  0.75774000  0.43679200  0.40855300  1
  P  P3  1  0.74226000  0.93679200  0.40855300  1
  C  C0  1  0.73912600  0.39406300  0.94634700  1
  C  C1  1  0.76087400  0.89406300  0.94634700  1
  C  C2  1  0.23912600  0.10593700  0.05365300  1
  C  C3  1  0.26087400  0.60593700  0.05365300  1
  O  O0  1  0.78867100  0.03600000  0.92361700  1
  O  O1  1  0.71132900  0.53600000  0.92361700  1
  O  O2  1  0.23058700  0.21982200  0.91092000  1
  O  O3  1  0.77342900  0.36335900  0.83371800  1
  O  O4  1  0.26941300  0.71982200  0.91092000  1
  O  O5  1  0.72657100  0.86335900  0.83371800  1
  O  O6  1  0.05809000  0.06078600  0.68006600  1
  O  O7  1  0.43359300  0.08111800  0.68727000  1
  O  O8  1  0.06640700  0.58111800  0.68727000  1
  O  O9  1  0.44191000  0.56078600  0.68006600  1
  O  O10  1  0.74637000  0.30587700  0.57884100  1
  O  O11  1  0.22082700  0.40263200  0.59072900  1
  O  O12  1  0.75363000  0.80587700  0.57884100  1
  O  O13  1  0.27917300  0.90263200  0.59072900  1
  O  O14  1  0.72082700  0.09736800  0.40927100  1
  O  O15  1  0.24637000  0.19412300  0.42115900  1
  O  O16  1  0.77917300  0.59736800  0.40927100  1
  O  O17  1  0.25363000  0.69412300  0.42115900  1
  O  O18  1  0.93359300  0.41888200  0.31273000  1
  O  O19  1  0.55808900  0.43921400  0.31993400  1
  O  O20  1  0.94191000  0.93921400  0.31993400  1
  O  O21  1  0.56640700  0.91888200  0.31273000  1
  O  O22  1  0.27342900  0.13664100  0.16628200  1
  O  O23  1  0.73058700  0.28017800  0.08908000  1
  O  O24  1  0.22657100  0.63664100  0.16628200  1
  O  O25  1  0.76941300  0.78017800  0.08908000  1
  O  O26  1  0.28867100  0.46400000  0.07638300  1
  O  O27  1  0.21132900  0.96400000  0.07638300  1
loop_
_geom_bond_atom_site_label_1
_geom_bond_atom_site_label_2
_geom_bond_distance
_geom_bond_site_symmetry_2
Li0 O26 1.970115 1_556
Li0 O2 2.022575 1_555
Li0 O8 2.164779 1_555
Li0 O9 2.221515 1_555
Li1 O27 1.970115 1_556
Li1 O4 2.022575 1_555
Li1 O7 2.164779 1_565
Li1 O6 2.221515 1_565
Li2 O7 1.948039 1_555
Li2 O10 2.065084 1_555
Li2 O11 2.086991 1_555
Li2 O2 2.454966 1_555
Li3 O8 1.948039 1_555
Li3 O12 2.065084 1_455
Li3 O13 2.086991 1_555
Li3 O4 2.454966 1_555
Li4 O14 2.037914 1_555
Li4 O7 2.061897 1_555
Li4 O5 2.078740 1_545
Li4 O10 2.088377 1_555
Li4 O6 2.162069 1_655
Li5 O16 2.037914 1_555
Li5 O8 2.061897 1_655
Li5 O3 2.078740 1_555
Li5 O12 2.088377 1_555
Li5 O9 2.162069 1_555
Li6 O11 2.037914 1_555
Li6 O18 2.061897 1_455
Li6 O24 2.078740 1_555
Li6 O15 2.088377 1_555
Li6 O19 2.162062 1_555
Li7 O13 2.037914 1_555
Li7 O21 2.061897 1_555
Li7 O22 2.078740 1_565
Li7 O17 2.088377 1_555
Li7 O20 2.162069 1_455
Li8 O18 1.948039 1_555
Li8 O15 2.065084 1_655
Li8 O14 2.086991 1_555
Li8 O23 2.454966 1_555
Li9 O21 1.948039 1_555
Li9 O17 2.065084 1_555
Li9 O16 2.086991 1_555
Li9 O25 2.454966 1_555
Li10 O0 1.970115 1_554
Li10 O23 2.022575 1_555
Li10 O21 2.164779 1_545
Li10 O20 2.221515 1_545
Li11 O1 1.970115 1_554
Li11 O25 2.022575 1_555
Li11 O18 2.164779 1_555
Li11 O19 2.221519 1_555
C0 O3 1.282421 1_555
C0 O1 1.300723 1_555
C0 O23 1.314769 1_556
C1 O5 1.282421 1_555
C1 O0 1.300723 1_565
C1 O25 1.314769 1_556
C2 O22 1.282421 1_555
C2 O27 1.300723 1_545
C2 O2 1.314769 1_554
C3 O24 1.282421 1_555
C3 O26 1.300723 1_555
C3 O4 1.314769 1_554
O0 V0 2.260629 1_555
O1 V1 2.260629 1_555
O2 V0 2.201637 1_455
O3 V0 2.218206 1_555
O4 V1 2.201637 1_555
O5 V1 2.218206 1_555
O6 P0 1.558394 1_555
O6 V0 2.172722 1_455
O7 P0 1.540050 1_555
O8 P1 1.540050 1_555
O9 P1 1.558394 1_555
O9 V1 2.172722 1_555
O10 P2 1.552839 1_555
O10 V0 2.145370 1_555
O11 P1 1.565923 1_555
O11 V0 2.276870 1_455
O12 P3 1.552839 1_555
O12 V1 2.145370 1_555
O13 P0 1.565923 1_565
O13 V1 2.276870 1_555
O14 P3 1.565923 1_545
O14 V2 2.276870 1_555
O15 P0 1.552839 1_555
O15 V2 2.145370 1_555
O16 P2 1.565923 1_555
O16 V3 2.276870 1_655
O17 P1 1.552839 1_555
O17 V3 2.145370 1_555
O18 P2 1.540050 1_555
O19 P2 1.558400 1_555
O19 V2 2.172720 1_555
O20 P3 1.558394 1_555
O20 V3 2.172722 1_655
O21 P3 1.540050 1_555
O22 V2 2.218206 1_555
O23 V2 2.201637 1_555
O24 V3 2.218206 1_555
O25 V3 2.201637 1_655
O26 V2 2.260629 1_555
O27 V3 2.260629 1_555
