# generated using pymatgen
data_Li3Y(NiO3)2
_symmetry_space_group_name_H-M   'P 1'
_cell_length_a   5.31395085
_cell_length_b   5.31527748
_cell_length_c   5.22494478
_cell_angle_alpha   81.43825481
_cell_angle_beta   98.64248891
_cell_angle_gamma   59.27885580
_symmetry_Int_Tables_number   1
_chemical_formula_structural   Li3Y(NiO3)2
_chemical_formula_sum   'Li3 Y1 Ni2 O6'
_cell_volume   120.92675472
_cell_formula_units_Z   1
loop_
 _symmetry_equiv_pos_site_id
 _symmetry_equiv_pos_as_xyz
  1  'x, y, z'
loop_
 _atom_site_type_symbol
 _atom_site_label
 _atom_site_symmetry_multiplicity
 _atom_site_fract_x
 _atom_site_fract_y
 _atom_site_fract_z
 _atom_site_occupancy
  Li  Li0  1  0.19211900  0.19192100  0.50001200  1
  Li  Li1  1  0.49999100  0.49999100  0.50000000  1
  Li  Li2  1  0.80787600  0.80807500  0.49998700  1
  Y  Y0  1  0.99999500  0.99999600  0.99999900  1
  Ni  Ni0  1  0.33389300  0.33387200  0.00000400  1
  Ni  Ni1  1  0.66615900  0.66617500  0.00000200  1
  O  O0  1  0.29383500  0.70649400  0.76304200  1
  O  O1  1  0.07467800  0.56272000  0.23154400  1
  O  O2  1  0.43746600  0.92488200  0.23173400  1
  O  O3  1  0.92534000  0.43725700  0.76844800  1
  O  O4  1  0.56251000  0.07513800  0.76827100  1
  O  O5  1  0.70613700  0.29347800  0.23695800  1
loop_
_geom_bond_atom_site_label_1
_geom_bond_atom_site_label_2
_geom_bond_distance
_geom_bond_site_symmetry_2
Li0 O4 1.971652 1_555
Li0 O1 1.974486 1_555
Li0 O2 2.220413 1_545
Li0 O3 2.220529 1_455
Li0 O0 2.476741 1_545
Li0 O5 2.477445 1_455
Li1 O0 1.991714 1_555
Li1 O5 1.991714 1_555
Li1 O1 2.307538 1_555
Li1 O3 2.307663 1_555
Li1 O4 2.307748 1_555
Li1 O2 2.307886 1_555
Li2 O2 1.971671 1_555
Li2 O3 1.974505 1_555
Li2 O4 2.220529 1_565
Li2 O1 2.220648 1_655
Li2 O5 2.476582 1_565
Li2 O0 2.477293 1_655
Ni0 O4 2.015948 1_554
Ni0 O1 2.016837 1_555
Ni0 O5 2.059769 1_555
Ni0 O0 2.064186 1_554
Ni0 O3 2.067080 1_454
Ni0 O2 2.070815 1_545
Ni1 O2 2.016016 1_555
Ni1 O3 2.016939 1_554
Ni1 O0 2.060320 1_554
Ni1 O5 2.064701 1_555
Ni1 O1 2.066769 1_655
Ni1 O4 2.070554 1_564
O0 Y0 2.252107 1_455
O1 Y0 2.258156 1_454
O2 Y0 2.256435 1_454
O3 Y0 2.258163 1_545
O4 Y0 2.256422 1_545
O5 Y0 2.252110 1_544
