# generated using pymatgen
data_LiTiP2O7
_symmetry_space_group_name_H-M   'P 1'
_cell_length_a   8.17657400
_cell_length_b   6.85965600
_cell_length_c   9.65019070
_cell_angle_alpha   71.35276032
_cell_angle_beta   90.00000000
_cell_angle_gamma   90.00000000
_symmetry_Int_Tables_number   1
_chemical_formula_structural   LiTiP2O7
_chemical_formula_sum   'Li4 Ti4 P8 O28'
_cell_volume   512.85095096
_cell_formula_units_Z   4
loop_
 _symmetry_equiv_pos_site_id
 _symmetry_equiv_pos_as_xyz
  1  'x, y, z'
loop_
 _atom_site_type_symbol
 _atom_site_label
 _atom_site_symmetry_multiplicity
 _atom_site_fract_x
 _atom_site_fract_y
 _atom_site_fract_z
 _atom_site_occupancy
  Li  Li0  1  0.13136700  0.79348600  0.53729300  1
  Li  Li1  1  0.36863300  0.79348600  0.03729300  1
  Li  Li2  1  0.63136700  0.20651400  0.96270700  1
  Li  Li3  1  0.86863300  0.20651400  0.46270700  1
  Ti  Ti0  1  0.77349200  0.71470500  0.99383100  1
  Ti  Ti1  1  0.72650800  0.71470500  0.49383100  1
  Ti  Ti2  1  0.27349200  0.28529500  0.50616900  1
  Ti  Ti3  1  0.22650800  0.28529500  0.00616900  1
  P  P0  1  0.53699400  0.94410700  0.70640000  1
  P  P1  1  0.96300600  0.94410700  0.20640000  1
  P  P2  1  0.91882400  0.46540300  0.79372900  1
  P  P3  1  0.41882400  0.53459700  0.70627100  1
  P  P4  1  0.58117600  0.46540300  0.29372900  1
  P  P5  1  0.08117600  0.53459700  0.20627100  1
  P  P6  1  0.03699400  0.05589300  0.79360000  1
  P  P7  1  0.46300600  0.05589300  0.29360000  1
  O  O0  1  0.58655800  0.90867500  0.86654000  1
  O  O1  1  0.93791000  0.85763100  0.84960800  1
  O  O2  1  0.67734200  0.93441600  0.60398900  1
  O  O3  1  0.39981500  0.76811600  0.71155800  1
  O  O4  1  0.91344200  0.90867500  0.36654000  1
  O  O5  1  0.56209000  0.85763100  0.34960800  1
  O  O6  1  0.82265800  0.93441600  0.10398900  1
  O  O7  1  0.77081200  0.48679400  0.88555000  1
  O  O8  1  0.91633400  0.60858200  0.63331500  1
  O  O9  1  0.10018500  0.76811600  0.21155800  1
  O  O10  1  0.08197400  0.48107300  0.86290400  1
  O  O11  1  0.58197400  0.51892700  0.63709600  1
  O  O12  1  0.41633400  0.39141800  0.86668500  1
  O  O13  1  0.27081200  0.51320600  0.61445000  1
  O  O14  1  0.72918800  0.48679400  0.38555000  1
  O  O15  1  0.58366600  0.60858200  0.13331500  1
  O  O16  1  0.41802600  0.48107300  0.36290400  1
  O  O17  1  0.91802600  0.51892700  0.13709600  1
  O  O18  1  0.89981500  0.23188400  0.78844200  1
  O  O19  1  0.08366600  0.39141800  0.36668500  1
  O  O20  1  0.22918800  0.51320600  0.11445000  1
  O  O21  1  0.17734200  0.06558400  0.89601100  1
  O  O22  1  0.43791000  0.14236900  0.65039200  1
  O  O23  1  0.08655800  0.09132500  0.63346000  1
  O  O24  1  0.60018500  0.23188400  0.28844200  1
  O  O25  1  0.32265800  0.06558400  0.39601100  1
  O  O26  1  0.06209000  0.14236900  0.15039200  1
  O  O27  1  0.41344200  0.09132500  0.13346000  1
loop_
_geom_bond_atom_site_label_1
_geom_bond_atom_site_label_2
_geom_bond_distance
_geom_bond_site_symmetry_2
Li0 O13 2.153010 1_555
Li0 O8 2.192537 1_455
Li0 O4 2.383709 1_455
Li0 O25 2.482289 1_565
Li0 O23 2.526282 1_565
Li1 O20 2.153010 1_555
Li1 O15 2.192537 1_555
Li1 O0 2.383709 1_554
Li1 O21 2.482289 1_564
Li1 O27 2.526282 1_565
Li2 O7 2.153010 1_555
Li2 O12 2.192537 1_555
Li2 O27 2.383709 1_556
Li2 O6 2.482289 1_546
Li2 O0 2.526282 1_545
Li3 O14 2.153010 1_555
Li3 O19 2.192537 1_655
Li3 O23 2.383709 1_655
Li3 O2 2.482289 1_545
Li3 O4 2.526282 1_545
O0 P0 1.539910 1_555
O0 Ti0 2.137846 1_555
O1 P6 1.525799 1_665
O1 Ti0 1.957813 1_555
O2 P0 1.529721 1_555
O2 Ti1 2.141893 1_555
O3 P3 1.626339 1_555
O3 P0 1.636943 1_555
O4 P1 1.539910 1_555
O4 Ti1 2.137846 1_555
O5 P7 1.525799 1_565
O5 Ti1 1.957813 1_555
O6 P1 1.529721 1_555
O6 Ti0 2.141893 1_554
O7 P2 1.534435 1_555
O7 Ti0 2.140382 1_555
O8 P2 1.545691 1_555
O8 Ti1 2.030828 1_555
O9 P5 1.626339 1_555
O9 P1 1.636943 1_455
O10 P2 1.510842 1_455
O10 Ti3 1.980979 1_556
O11 P3 1.510842 1_555
O11 Ti1 1.980979 1_555
O12 P3 1.545691 1_555
O12 Ti3 2.030828 1_556
O13 P3 1.534435 1_555
O13 Ti2 2.140382 1_555
O14 P4 1.534435 1_555
O14 Ti1 2.140382 1_555
O15 P4 1.545691 1_555
O15 Ti0 2.030828 1_554
O16 P4 1.510842 1_555
O16 Ti2 1.980979 1_555
O17 P5 1.510842 1_655
O17 Ti0 1.980979 1_554
O18 P2 1.626339 1_555
O18 P6 1.636943 1_655
O19 P5 1.545691 1_555
O19 Ti2 2.030828 1_555
O20 P5 1.534435 1_555
O20 Ti3 2.140382 1_555
O21 P6 1.529721 1_555
O21 Ti3 2.141893 1_556
O22 P0 1.525799 1_545
O22 Ti2 1.957813 1_555
O23 P6 1.539910 1_555
O23 Ti2 2.137846 1_555
O24 P4 1.626339 1_555
O24 P7 1.636943 1_555
O25 P7 1.529721 1_555
O25 Ti2 2.141893 1_555
O26 P1 1.525799 1_445
O26 Ti3 1.957813 1_555
O27 P7 1.539910 1_555
O27 Ti3 2.137846 1_555
