# generated using pymatgen
data_Na2MgB12(H4O7)4
_symmetry_space_group_name_H-M   'P 1'
_cell_length_a   11.43240000
_cell_length_b   9.73879900
_cell_length_c   10.16183765
_cell_angle_alpha   86.62575995
_cell_angle_beta   90.00000000
_cell_angle_gamma   90.00000000
_symmetry_Int_Tables_number   1
_chemical_formula_structural   Na2MgB12(H4O7)4
_chemical_formula_sum   'Na4 Mg2 B24 H32 O56'
_cell_volume   1129.43571232
_cell_formula_units_Z   2
loop_
 _symmetry_equiv_pos_site_id
 _symmetry_equiv_pos_as_xyz
  1  'x, y, z'
loop_
 _atom_site_type_symbol
 _atom_site_label
 _atom_site_symmetry_multiplicity
 _atom_site_fract_x
 _atom_site_fract_y
 _atom_site_fract_z
 _atom_site_occupancy
  Na  Na0  1  0.60279200  0.55616500  0.72781800  1
  Na  Na1  1  0.89720800  0.05616500  0.72781800  1
  Na  Na2  1  0.10279200  0.94383500  0.27218200  1
  Na  Na3  1  0.39720800  0.44383500  0.27218200  1
  Mg  Mg0  1  0.00000000  0.00000000  0.00000000  1
  Mg  Mg1  1  0.50000000  0.50000000  0.00000000  1
  B  B0  1  0.01432000  0.35117400  0.72454500  1
  B  B1  1  0.02307400  0.52548900  0.90593900  1
  B  B2  1  0.31855600  0.41126800  0.78985500  1
  B  B3  1  0.80291200  0.02246000  0.47347400  1
  B  B4  1  0.17788200  0.20900400  0.18045500  1
  B  B5  1  0.83382600  0.77643700  0.53296200  1
  B  B6  1  0.66617400  0.27643700  0.53296200  1
  B  B7  1  0.32211800  0.70900400  0.18045500  1
  B  B8  1  0.69708800  0.52246000  0.47347400  1
  B  B9  1  0.18144400  0.91126800  0.78985500  1
  B  B10  1  0.47692600  0.02548900  0.90593900  1
  B  B11  1  0.48568000  0.85117400  0.72454500  1
  B  B12  1  0.51432000  0.14882600  0.27545500  1
  B  B13  1  0.52307400  0.97451100  0.09406100  1
  B  B14  1  0.81855600  0.08873200  0.21014500  1
  B  B15  1  0.30291200  0.47754000  0.52652600  1
  B  B16  1  0.67788200  0.29099600  0.81954500  1
  B  B17  1  0.33382600  0.72356300  0.46703800  1
  B  B18  1  0.16617400  0.22356300  0.46703800  1
  B  B19  1  0.82211800  0.79099600  0.81954500  1
  B  B20  1  0.19708800  0.97754000  0.52652600  1
  B  B21  1  0.68144400  0.58873200  0.21014500  1
  B  B22  1  0.97692600  0.47451100  0.09406100  1
  B  B23  1  0.98568000  0.64882600  0.27545500  1
  H  H0  1  0.13770000  0.42418400  0.48013400  1
  H  H1  1  0.89938700  0.04386800  0.51556500  1
  H  H2  1  0.91622000  0.77995300  0.03783900  1
  H  H3  1  0.86930600  0.34688200  0.32447500  1
  H  H4  1  0.04294600  0.23424400  0.30925100  1
  H  H5  1  0.79507800  0.61404200  0.91193200  1
  H  H6  1  0.68956100  0.56596700  0.35103800  1
  H  H7  1  0.77605800  0.63248000  0.18672700  1
  H  H8  1  0.72394200  0.13248000  0.18672700  1
  H  H9  1  0.81043900  0.06596700  0.35103800  1
  H  H10  1  0.70492200  0.11404200  0.91193200  1
  H  H11  1  0.45705400  0.73424400  0.30925100  1
  H  H12  1  0.63069400  0.84688200  0.32447500  1
  H  H13  1  0.58378000  0.27995300  0.03783900  1
  H  H14  1  0.60061300  0.54386800  0.51556500  1
  H  H15  1  0.36230000  0.92418400  0.48013400  1
  H  H16  1  0.63770000  0.07581600  0.51986600  1
  H  H17  1  0.39938700  0.45613200  0.48443500  1
  H  H18  1  0.41622000  0.72004700  0.96216100  1
  H  H19  1  0.36930600  0.15311800  0.67552500  1
  H  H20  1  0.54294600  0.26575600  0.69074900  1
  H  H21  1  0.29507800  0.88595800  0.08806800  1
  H  H22  1  0.18956100  0.93403300  0.64896200  1
  H  H23  1  0.27605800  0.86752000  0.81327300  1
  H  H24  1  0.22394200  0.36752000  0.81327300  1
  H  H25  1  0.31043900  0.43403300  0.64896200  1
  H  H26  1  0.20492200  0.38595800  0.08806800  1
  H  H27  1  0.95705400  0.76575600  0.69074900  1
  H  H28  1  0.13069400  0.65311800  0.67552500  1
  H  H29  1  0.08378000  0.22004700  0.96216100  1
  H  H30  1  0.10061300  0.95613200  0.48443500  1
  H  H31  1  0.86230000  0.57581600  0.51986600  1
  O  O0  1  0.28733900  0.87486400  0.46725600  1
  O  O1  1  0.99464100  0.79243900  0.08019400  1
  O  O2  1  0.08223500  0.44440100  0.01303000  1
  O  O3  1  0.10735000  0.63968900  0.86841300  1
  O  O4  1  0.37351200  0.69879600  0.32441200  1
  O  O5  1  0.98783100  0.46458500  0.78149500  1
  O  O6  1  0.91399700  0.29091300  0.26429500  1
  O  O7  1  0.97775600  0.64025100  0.41495300  1
  O  O8  1  0.36034600  0.61405300  0.10629800  1
  O  O9  1  0.74298600  0.38459800  0.48787100  1
  O  O10  1  0.96747400  0.78277800  0.22112800  1
  O  O11  1  0.40602000  0.46293300  0.84442600  1
  O  O12  1  0.44768400  0.72262800  0.53874900  1
  O  O13  1  0.75510600  0.67455700  0.84025800  1
  O  O14  1  0.74489400  0.17455700  0.84025800  1
  O  O15  1  0.05231600  0.22262800  0.53874900  1
  O  O16  1  0.09398000  0.96293300  0.84442600  1
  O  O17  1  0.53252600  0.28277800  0.22112800  1
  O  O18  1  0.75701400  0.88459800  0.48787100  1
  O  O19  1  0.13965400  0.11405300  0.10629800  1
  O  O20  1  0.52224400  0.14025100  0.41495300  1
  O  O21  1  0.58600300  0.79091300  0.26429500  1
  O  O22  1  0.51216900  0.96458500  0.78149500  1
  O  O23  1  0.12648800  0.19879600  0.32441200  1
  O  O24  1  0.39265000  0.13968900  0.86841300  1
  O  O25  1  0.41776500  0.94440100  0.01303000  1
  O  O26  1  0.50535900  0.29243900  0.08019400  1
  O  O27  1  0.21266100  0.37486400  0.46725600  1
  O  O28  1  0.78733900  0.62513600  0.53274400  1
  O  O29  1  0.49464100  0.70756100  0.91980600  1
  O  O30  1  0.58223500  0.05559900  0.98697000  1
  O  O31  1  0.60735000  0.86031100  0.13158700  1
  O  O32  1  0.87351200  0.80120400  0.67558800  1
  O  O33  1  0.48783100  0.03541500  0.21850500  1
  O  O34  1  0.41399700  0.20908700  0.73570500  1
  O  O35  1  0.47775600  0.85974900  0.58504700  1
  O  O36  1  0.86034600  0.88594700  0.89370200  1
  O  O37  1  0.24298600  0.11540200  0.51212900  1
  O  O38  1  0.46747400  0.71722200  0.77887200  1
  O  O39  1  0.90602000  0.03706700  0.15557400  1
  O  O40  1  0.94768400  0.77737200  0.46125100  1
  O  O41  1  0.25510600  0.82544300  0.15974200  1
  O  O42  1  0.24489400  0.32544300  0.15974200  1
  O  O43  1  0.55231600  0.27737200  0.46125100  1
  O  O44  1  0.59398000  0.53706700  0.15557400  1
  O  O45  1  0.03252600  0.21722200  0.77887200  1
  O  O46  1  0.25701400  0.61540200  0.51212900  1
  O  O47  1  0.63965400  0.38594700  0.89370200  1
  O  O48  1  0.02224400  0.35974900  0.58504700  1
  O  O49  1  0.08600300  0.70908700  0.73570500  1
  O  O50  1  0.01216900  0.53541500  0.21850500  1
  O  O51  1  0.62648800  0.30120400  0.67558800  1
  O  O52  1  0.89265000  0.36031100  0.13158700  1
  O  O53  1  0.91776500  0.55559900  0.98697000  1
  O  O54  1  0.00535900  0.20756100  0.91980600  1
  O  O55  1  0.71266100  0.12513600  0.53274400  1
loop_
_geom_bond_atom_site_label_1
_geom_bond_atom_site_label_2
_geom_bond_distance
_geom_bond_site_symmetry_2
Na0 O38 2.284378 1_555
Na0 O47 2.332000 1_555
Na0 O13 2.412920 1_555
Na0 O51 2.583714 1_555
Na0 O11 2.676277 1_555
Na1 O45 2.284378 1_655
Na1 O36 2.332000 1_545
Na1 O14 2.412920 1_555
Na1 O32 2.583714 1_545
Na1 O16 2.676277 1_645
Na2 O10 2.284378 1_455
Na2 O19 2.332000 1_565
Na2 O41 2.412920 1_555
Na2 O23 2.583714 1_565
Na2 O39 2.676277 1_465
Na3 O17 2.284378 1_555
Na3 O8 2.332000 1_555
Na3 O42 2.412920 1_555
Na3 O4 2.583714 1_555
Na3 O44 2.676277 1_555
Mg0 O39 1.962438 1_455
Mg0 O16 1.962438 1_544
Mg0 O54 2.135410 1_554
Mg0 O1 2.135410 1_445
Mg0 O19 2.256289 1_555
Mg0 O36 2.256289 1_444
Mg1 O11 1.962438 1_554
Mg1 O44 1.962438 1_555
Mg1 O29 2.135410 1_554
Mg1 O26 2.135410 1_555
Mg1 O8 2.256289 1_555
Mg1 O47 2.256289 1_554
B0 O5 1.312156 1_455
B0 O45 1.401828 1_555
B0 O48 1.417995 1_555
B1 O2 1.471117 1_556
B1 O5 1.483779 1_455
B1 O53 1.497296 1_455
B1 O3 1.503563 1_555
B2 H24 1.181616 1_555
B2 O11 1.262289 1_555
B2 H25 1.438838 1_555
B3 H1 1.205566 1_555
B3 H9 1.293386 1_555
B3 O18 1.440909 1_545
B3 O55 1.580542 1_555
B4 O19 1.302300 1_555
B4 O42 1.374420 1_555
B4 O23 1.574156 1_555
B5 O18 1.426128 1_555
B5 O40 1.491534 1_555
B5 O32 1.551055 1_555
B5 O28 1.566528 1_555
B6 O9 1.426128 1_555
B6 O43 1.491534 1_555
B6 O51 1.551055 1_555
B6 O55 1.566528 1_555
B7 O8 1.302300 1_555
B7 O41 1.374420 1_555
B7 O4 1.574156 1_555
B8 H14 1.205566 1_555
B8 H6 1.293386 1_555
B8 O9 1.440909 1_555
B8 O28 1.580542 1_555
B9 H23 1.181616 1_555
B9 O16 1.262289 1_555
B9 H22 1.438838 1_555
B10 O25 1.471117 1_546
B10 O22 1.483779 1_545
B10 O30 1.497296 1_555
B10 O24 1.503563 1_555
B11 O22 1.312156 1_555
B11 O38 1.401828 1_555
B11 O35 1.417995 1_555
B12 O33 1.312156 1_555
B12 O17 1.401828 1_555
B12 O20 1.417995 1_555
B13 O30 1.471117 1_564
B13 O33 1.483779 1_565
B13 O25 1.497296 1_555
B13 O31 1.503563 1_555
B14 H8 1.181616 1_555
B14 O39 1.262289 1_555
B14 H9 1.438838 1_555
B15 H17 1.205566 1_555
B15 H25 1.293386 1_555
B15 O46 1.440909 1_555
B15 O27 1.580542 1_555
B16 O47 1.302300 1_555
B16 O14 1.374420 1_555
B16 O51 1.574156 1_555
B17 O46 1.426128 1_555
B17 O12 1.491534 1_555
B17 O4 1.551055 1_555
B17 O0 1.566528 1_555
B18 O37 1.426128 1_555
B18 O15 1.491534 1_555
B18 O23 1.551055 1_555
B18 O27 1.566528 1_555
B19 O36 1.302300 1_555
B19 O13 1.374420 1_555
B19 O32 1.574156 1_555
B20 H30 1.205566 1_555
B20 H22 1.293386 1_555
B20 O37 1.440909 1_565
B20 O0 1.580542 1_555
B21 H7 1.181616 1_555
B21 O44 1.262289 1_555
B21 H6 1.438838 1_555
B22 O53 1.471117 1_554
B22 O50 1.483779 1_655
B22 O2 1.497296 1_655
B22 O52 1.503563 1_555
B23 O50 1.312156 1_655
B23 O10 1.401828 1_555
B23 O7 1.417995 1_555
H0 O27 0.994812 1_555
H1 Na1 2.167372 1_555
H2 O1 1.004977 1_555
H3 O6 0.985579 1_555
H4 O23 1.024129 1_555
H4 O6 1.629986 1_455
H5 O13 1.017891 1_555
H5 O53 1.679764 1_555
H10 O14 1.017891 1_555
H10 O30 1.679764 1_555
H11 O4 1.024129 1_555
H11 O21 1.629986 1_555
H12 O21 0.985579 1_555
H13 O26 1.004977 1_555
H14 Na0 2.167372 1_555
H15 O0 0.994812 1_555
H16 O55 0.994812 1_555
H17 Na3 2.167372 1_555
H18 O29 1.004977 1_555
H19 O34 0.985579 1_555
H20 O51 1.024129 1_555
H20 O34 1.629986 1_555
H21 O41 1.017891 1_555
H21 O25 1.679764 1_555
H26 O42 1.017891 1_555
H26 O2 1.679764 1_555
H27 O32 1.024129 1_555
H27 O49 1.629986 1_655
H28 O49 0.985579 1_555
H29 O54 1.004977 1_555
H30 Na2 2.167372 1_555
H31 O28 0.994812 1_555
O1 O10 1.463046 1_555
O17 O26 1.463046 1_555
O29 O38 1.463046 1_555
O45 O54 1.463046 1_555
