# generated using pymatgen
data_Ba8Bi10O27
_symmetry_space_group_name_H-M   'P 1'
_cell_length_a   9.89095026
_cell_length_b   9.89095026
_cell_length_c   9.89094995
_cell_angle_alpha   66.50358322
_cell_angle_beta   66.50358322
_cell_angle_gamma   66.50358723
_symmetry_Int_Tables_number   1
_chemical_formula_structural   Ba8Bi10O27
_chemical_formula_sum   'Ba8 Bi10 O27'
_cell_volume   780.06645864
_cell_formula_units_Z   1
loop_
 _symmetry_equiv_pos_site_id
 _symmetry_equiv_pos_as_xyz
  1  'x, y, z'
loop_
 _atom_site_type_symbol
 _atom_site_label
 _atom_site_symmetry_multiplicity
 _atom_site_fract_x
 _atom_site_fract_y
 _atom_site_fract_z
 _atom_site_occupancy
  Ba  Ba0  1  0.88868900  0.21770300  0.57297600  1
  Ba  Ba1  1  0.33485200  0.33485200  0.33485200  1
  Ba  Ba2  1  0.42702400  0.11131100  0.78229700  1
  Ba  Ba3  1  0.78229700  0.42702400  0.11131100  1
  Ba  Ba4  1  0.21770300  0.57297600  0.88868900  1
  Ba  Ba5  1  0.66514800  0.66514800  0.66514800  1
  Ba  Ba6  1  0.11131100  0.78229700  0.42702400  1
  Ba  Ba7  1  0.57297600  0.88868900  0.21770300  1
  Bi  Bi0  1  0.16604400  0.16604400  0.16604400  1
  Bi  Bi1  1  0.72414800  0.05611000  0.38829700  1
  Bi  Bi2  1  0.61170300  0.27585200  0.94389000  1
  Bi  Bi3  1  0.05611000  0.38829700  0.72414800  1
  Bi  Bi4  1  0.50000000  0.50000000  0.50000000  1
  Bi  Bi5  1  0.38829700  0.72414800  0.05611000  1
  Bi  Bi6  1  0.94389000  0.61170300  0.27585200  1
  Bi  Bi7  1  0.83395600  0.83395600  0.83395600  1
  Bi  Bi8  1  0.27585200  0.94389000  0.61170300  1
  Bi  Bi9  1  0.00000000  0.00000000  0.00000000  1
  O  O0  1  0.39630800  0.21000700  0.05338700  1
  O  O1  1  0.94497200  0.10611100  0.25351700  1
  O  O2  1  0.21000700  0.05338700  0.39630800  1
  O  O3  1  0.67978000  0.15994300  0.15963500  1
  O  O4  1  0.74648300  0.05502800  0.89388900  1
  O  O5  1  0.15994300  0.15963500  0.67978000  1
  O  O6  1  0.61558500  0.28463200  0.42862500  1
  O  O7  1  0.05338700  0.39630800  0.21000700  1
  O  O8  1  0.84036500  0.32022000  0.84005700  1
  O  O9  1  0.10611100  0.25351700  0.94497200  1
  O  O10  1  0.15963500  0.67978000  0.15994300  1
  O  O11  1  0.57137500  0.38441500  0.71536800  1
  O  O12  1  0.00000000  0.50000000  0.50000000  1
  O  O13  1  0.42862500  0.61558500  0.28463200  1
  O  O14  1  0.28463200  0.42862500  0.61558500  1
  O  O15  1  0.71536800  0.57137500  0.38441500  1
  O  O16  1  0.89388900  0.74648300  0.05502800  1
  O  O17  1  0.84005700  0.84036500  0.32022000  1
  O  O18  1  0.38441500  0.71536800  0.57137500  1
  O  O19  1  0.25351700  0.94497200  0.10611100  1
  O  O20  1  0.50000000  0.50000000  0.00000000  1
  O  O21  1  0.94661300  0.60369200  0.78999300  1
  O  O22  1  0.50000000  0.00000000  0.50000000  1
  O  O23  1  0.32022000  0.84005700  0.84036500  1
  O  O24  1  0.78999300  0.94661300  0.60369200  1
  O  O25  1  0.60369200  0.78999300  0.94661300  1
  O  O26  1  0.05502800  0.89388900  0.74648300  1
loop_
_geom_bond_atom_site_label_1
_geom_bond_atom_site_label_2
_geom_bond_distance
_geom_bond_site_symmetry_2
Ba0 O11 2.958625 1_555
Ba0 O4 2.968946 1_555
Ba0 O8 2.996292 1_555
Ba0 O5 3.031761 1_655
Ba0 O24 3.071798 1_545
Ba0 O2 3.084318 1_655
Ba0 O26 3.094659 1_645
Ba0 O12 3.120892 1_655
Ba0 O6 3.266393 1_555
Ba0 O15 3.349572 1_555
Ba0 O7 3.352241 1_655
Ba1 O14 3.066526 1_555
Ba1 O13 3.066526 1_555
Ba1 O6 3.066526 1_555
Ba1 O20 3.131395 1_555
Ba1 O22 3.131396 1_555
Ba1 O12 3.131396 1_555
Ba1 O0 3.230792 1_555
Ba1 O2 3.230792 1_555
Ba1 O7 3.230792 1_555
Ba1 O5 3.256636 1_555
Ba1 O3 3.256637 1_555
Ba1 O10 3.256637 1_555
Ba2 O14 2.958625 1_555
Ba2 O9 2.968946 1_555
Ba2 O5 2.996292 1_555
Ba2 O23 3.031761 1_545
Ba2 O0 3.071798 1_556
Ba2 O25 3.084318 1_545
Ba2 O19 3.094659 1_546
Ba2 O22 3.120892 1_555
Ba2 O11 3.266393 1_555
Ba2 O6 3.349572 1_555
Ba2 O24 3.352241 1_545
Ba3 O6 2.958625 1_555
Ba3 O1 2.968946 1_555
Ba3 O3 2.996292 1_555
Ba3 O8 3.031761 1_554
Ba3 O7 3.071799 1_655
Ba3 O21 3.084318 1_554
Ba3 O9 3.094659 1_654
Ba3 O20 3.120892 1_555
Ba3 O15 3.266393 1_555
Ba3 O13 3.349572 1_555
Ba3 O25 3.352241 1_554
Ba4 O18 2.958625 1_555
Ba4 O26 2.968946 1_555
Ba4 O23 2.996292 1_555
Ba4 O10 3.031761 1_556
Ba4 O21 3.071799 1_455
Ba4 O7 3.084318 1_556
Ba4 O16 3.094659 1_456
Ba4 O20 3.120892 1_556
Ba4 O14 3.266393 1_555
Ba4 O11 3.349572 1_555
Ba4 O0 3.352241 1_556
Ba5 O15 3.066526 1_555
Ba5 O11 3.066526 1_555
Ba5 O18 3.066526 1_555
Ba5 O20 3.131395 1_556
Ba5 O22 3.131396 1_565
Ba5 O12 3.131396 1_655
Ba5 O25 3.230792 1_555
Ba5 O24 3.230792 1_555
Ba5 O21 3.230792 1_555
Ba5 O17 3.256636 1_555
Ba5 O23 3.256637 1_555
Ba5 O8 3.256637 1_555
Ba6 O13 2.958625 1_555
Ba6 O19 2.968946 1_555
Ba6 O10 2.996292 1_555
Ba6 O17 3.031761 1_455
Ba6 O2 3.071798 1_565
Ba6 O24 3.084318 1_455
Ba6 O1 3.094659 1_465
Ba6 O12 3.120892 1_555
Ba6 O18 3.266393 1_555
Ba6 O14 3.349572 1_555
Ba6 O21 3.352241 1_455
Ba7 O15 2.958625 1_555
Ba7 O16 2.968946 1_555
Ba7 O17 2.996292 1_555
Ba7 O3 3.031761 1_565
Ba7 O25 3.071798 1_554
Ba7 O0 3.084318 1_565
Ba7 O4 3.094659 1_564
Ba7 O22 3.120892 1_565
Ba7 O13 3.266393 1_555
Ba7 O18 3.349572 1_555
Ba7 O2 3.352241 1_565
Bi0 O9 2.235471 1_554
Bi0 O1 2.235471 1_455
Bi0 O19 2.235471 1_545
Bi0 O2 2.235526 1_555
Bi0 O0 2.235526 1_555
Bi0 O7 2.235526 1_555
Bi1 O1 2.192298 1_555
Bi1 O24 2.200016 1_545
Bi1 O6 2.205256 1_555
Bi1 O17 2.213778 1_545
Bi1 O3 2.223162 1_555
Bi1 O22 2.232251 1_555
Bi2 O4 2.192298 1_555
Bi2 O0 2.200016 1_556
Bi2 O11 2.205255 1_555
Bi2 O3 2.213778 1_556
Bi2 O8 2.223163 1_555
Bi2 O20 2.232251 1_556
Bi3 O9 2.192298 1_555
Bi3 O21 2.200016 1_455
Bi3 O14 2.205255 1_555
Bi3 O8 2.213778 1_455
Bi3 O5 2.223163 1_555
Bi3 O12 2.232251 1_555
Bi4 O14 2.226389 1_555
Bi4 O15 2.226389 1_555
Bi4 O13 2.226389 1_555
Bi4 O11 2.226389 1_555
Bi4 O6 2.226389 1_555
Bi4 O18 2.226389 1_555
Bi5 O19 2.192298 1_555
Bi5 O25 2.200016 1_554
Bi5 O13 2.205255 1_555
Bi5 O23 2.213778 1_554
Bi5 O10 2.223163 1_555
Bi5 O20 2.232251 1_555
Bi6 O16 2.192298 1_555
Bi6 O7 2.200016 1_655
Bi6 O15 2.205255 1_555
Bi6 O10 2.213778 1_655
Bi6 O17 2.223163 1_555
Bi6 O12 2.232251 1_655
Bi7 O16 2.235471 1_556
Bi7 O26 2.235471 1_655
Bi7 O4 2.235471 1_565
Bi7 O24 2.235526 1_555
Bi7 O25 2.235526 1_555
Bi7 O21 2.235526 1_555
Bi8 O26 2.192298 1_555
Bi8 O2 2.200016 1_565
Bi8 O18 2.205256 1_555
Bi8 O5 2.213778 1_565
Bi8 O23 2.223162 1_555
Bi8 O22 2.232251 1_565
Bi9 O1 2.870574 1_455
Bi9 O26 2.870574 1_544
Bi9 O9 2.870574 1_554
Bi9 O16 2.870574 1_445
Bi9 O19 2.870574 1_545
Bi9 O4 2.870574 1_454
