# generated using pymatgen
data_Li2Fe3CoO8
_symmetry_space_group_name_H-M   'P 1'
_cell_length_a   8.10106800
_cell_length_b   8.10106800
_cell_length_c   8.10106800
_cell_angle_alpha   90.00000000
_cell_angle_beta   90.00000000
_cell_angle_gamma   90.00000000
_symmetry_Int_Tables_number   1
_chemical_formula_structural   Li2Fe3CoO8
_chemical_formula_sum   'Li8 Fe12 Co4 O32'
_cell_volume   531.65124216
_cell_formula_units_Z   4
loop_
 _symmetry_equiv_pos_site_id
 _symmetry_equiv_pos_as_xyz
  1  'x, y, z'
loop_
 _atom_site_type_symbol
 _atom_site_label
 _atom_site_symmetry_multiplicity
 _atom_site_fract_x
 _atom_site_fract_y
 _atom_site_fract_z
 _atom_site_occupancy
  Li  Li0  1  0.00131000  0.00131000  0.00131000  1
  Li  Li1  1  0.24869000  0.24869000  0.24869000  1
  Li  Li2  1  0.25131000  0.75131000  0.74869000  1
  Li  Li3  1  0.49869000  0.99869000  0.50131000  1
  Li  Li4  1  0.50131000  0.49869000  0.99869000  1
  Li  Li5  1  0.74869000  0.25131000  0.75131000  1
  Li  Li6  1  0.75131000  0.74869000  0.25131000  1
  Li  Li7  1  0.99869000  0.50131000  0.49869000  1
  Fe  Fe0  1  0.12436500  0.12563500  0.62500000  1
  Fe  Fe1  1  0.12500000  0.37563500  0.87436500  1
  Fe  Fe2  1  0.12563500  0.62500000  0.12436500  1
  Fe  Fe3  1  0.37436500  0.37500000  0.62436500  1
  Fe  Fe4  1  0.37500000  0.62436500  0.37436500  1
  Fe  Fe5  1  0.37563500  0.87436500  0.12500000  1
  Fe  Fe6  1  0.62436500  0.37436500  0.37500000  1
  Fe  Fe7  1  0.62500000  0.12436500  0.12563500  1
  Fe  Fe8  1  0.62563500  0.87500000  0.87563500  1
  Fe  Fe9  1  0.87436500  0.12500000  0.37563500  1
  Fe  Fe10  1  0.87500000  0.87563500  0.62563500  1
  Fe  Fe11  1  0.87563500  0.62563500  0.87500000  1
  Co  Co0  1  0.12500000  0.87500000  0.37500000  1
  Co  Co1  1  0.37500000  0.12500000  0.87500000  1
  Co  Co2  1  0.62500000  0.62500000  0.62500000  1
  Co  Co3  1  0.87500000  0.37500000  0.12500000  1
  O  O0  1  0.10802600  0.10892400  0.38938300  1
  O  O1  1  0.11061700  0.89197400  0.60892400  1
  O  O2  1  0.11137800  0.61137800  0.88862200  1
  O  O3  1  0.14107600  0.14197400  0.86061700  1
  O  O4  1  0.10892400  0.38938300  0.10802600  1
  O  O5  1  0.13862200  0.36137800  0.63862200  1
  O  O6  1  0.13938300  0.64107600  0.35802600  1
  O  O7  1  0.14197400  0.86061700  0.14107600  1
  O  O8  1  0.35802600  0.13938300  0.64107600  1
  O  O9  1  0.36061700  0.35892400  0.85802600  1
  O  O10  1  0.36137800  0.63862200  0.13862200  1
  O  O11  1  0.39107600  0.61061700  0.60802600  1
  O  O12  1  0.35892400  0.85802600  0.36061700  1
  O  O13  1  0.38862200  0.38862200  0.38862200  1
  O  O14  1  0.38938300  0.10802600  0.10892400  1
  O  O15  1  0.39197400  0.89107600  0.88938300  1
  O  O16  1  0.60802600  0.39107600  0.61061700  1
  O  O17  1  0.61061700  0.60802600  0.39107600  1
  O  O18  1  0.61137800  0.88862200  0.11137800  1
  O  O19  1  0.64107600  0.35802600  0.13938300  1
  O  O20  1  0.60892400  0.11061700  0.89197400  1
  O  O21  1  0.63862200  0.13862200  0.36137800  1
  O  O22  1  0.63938300  0.85892400  0.64197400  1
  O  O23  1  0.64197400  0.63938300  0.85892400  1
  O  O24  1  0.85802600  0.36061700  0.35892400  1
  O  O25  1  0.86061700  0.14107600  0.14197400  1
  O  O26  1  0.86137800  0.86137800  0.86137800  1
  O  O27  1  0.89107600  0.88938300  0.39197400  1
  O  O28  1  0.85892400  0.64197400  0.63938300  1
  O  O29  1  0.88862200  0.11137800  0.61137800  1
  O  O30  1  0.88938300  0.39197400  0.89107600  1
  O  O31  1  0.89197400  0.60892400  0.11061700  1
loop_
_geom_bond_atom_site_label_1
_geom_bond_atom_site_label_2
_geom_bond_distance
_geom_bond_site_symmetry_2
Li0 O26 1.963450 1_444
Li0 O7 1.969666 1_545
Li0 O3 1.969666 1_554
Li0 O25 1.969666 1_455
Li1 O13 1.963450 1_555
Li1 O4 1.969666 1_555
Li1 O0 1.969666 1_555
Li1 O14 1.969666 1_555
Li2 O2 1.963450 1_555
Li2 O15 1.969666 1_555
Li2 O1 1.969666 1_555
Li2 O11 1.969666 1_555
Li3 O21 1.963450 1_565
Li3 O22 1.969666 1_555
Li3 O8 1.969666 1_565
Li3 O12 1.969666 1_555
Li4 O10 1.963450 1_556
Li4 O23 1.969666 1_555
Li4 O19 1.969666 1_556
Li4 O9 1.969666 1_555
Li5 O29 1.963450 1_555
Li5 O30 1.969666 1_555
Li5 O20 1.969666 1_555
Li5 O16 1.969666 1_555
Li6 O18 1.963450 1_555
Li6 O27 1.969666 1_555
Li6 O31 1.969666 1_555
Li6 O17 1.969666 1_555
Li7 O5 1.963450 1_655
Li7 O28 1.969666 1_555
Li7 O6 1.969666 1_655
Li7 O24 1.969666 1_555
Fe0 O1 1.900644 1_545
Fe0 O8 1.900644 1_555
Fe0 O5 1.916439 1_555
Fe0 O29 1.916439 1_455
Fe0 O0 1.918117 1_555
Fe0 O3 1.918117 1_555
Fe1 O3 1.900644 1_555
Fe1 O4 1.900644 1_556
Fe1 O5 1.916439 1_555
Fe1 O2 1.916439 1_555
Fe1 O9 1.918117 1_555
Fe1 O30 1.918117 1_455
Fe2 O31 1.900644 1_455
Fe2 O6 1.900644 1_555
Fe2 O2 1.916439 1_554
Fe2 O10 1.916439 1_555
Fe2 O4 1.918117 1_555
Fe2 O7 1.918117 1_555
Fe3 O16 1.900644 1_555
Fe3 O9 1.900644 1_555
Fe3 O5 1.916439 1_555
Fe3 O13 1.916439 1_555
Fe3 O11 1.918117 1_555
Fe3 O8 1.918117 1_555
Fe4 O11 1.900644 1_555
Fe4 O12 1.900644 1_555
Fe4 O10 1.916439 1_555
Fe4 O13 1.916439 1_555
Fe4 O17 1.918117 1_555
Fe4 O6 1.918117 1_555
Fe5 O7 1.900644 1_555
Fe5 O14 1.900644 1_565
Fe5 O10 1.916439 1_555
Fe5 O18 1.916439 1_555
Fe5 O12 1.918117 1_555
Fe5 O15 1.918117 1_554
Fe6 O17 1.900644 1_555
Fe6 O24 1.900644 1_555
Fe6 O21 1.916439 1_555
Fe6 O13 1.916439 1_555
Fe6 O16 1.918117 1_555
Fe6 O19 1.918117 1_555
Fe7 O20 1.900644 1_554
Fe7 O19 1.900644 1_555
Fe7 O21 1.916439 1_555
Fe7 O18 1.916439 1_545
Fe7 O14 1.918117 1_555
Fe7 O25 1.918117 1_555
Fe8 O15 1.900644 1_555
Fe8 O22 1.900644 1_555
Fe8 O18 1.916439 1_556
Fe8 O26 1.916439 1_555
Fe8 O20 1.918117 1_565
Fe8 O23 1.918117 1_555
Fe9 O25 1.900644 1_555
Fe9 O0 1.900644 1_655
Fe9 O21 1.916439 1_555
Fe9 O29 1.916439 1_555
Fe9 O24 1.918117 1_555
Fe9 O27 1.918117 1_545
Fe10 O27 1.900644 1_555
Fe10 O28 1.900644 1_555
Fe10 O29 1.916439 1_565
Fe10 O26 1.916439 1_555
Fe10 O1 1.918117 1_655
Fe10 O22 1.918117 1_555
Fe11 O30 1.900644 1_555
Fe11 O23 1.900644 1_555
Fe11 O2 1.916439 1_655
Fe11 O26 1.916439 1_555
Fe11 O31 1.918117 1_556
Fe11 O28 1.918117 1_555
Co0 O0 1.903586 1_565
Co0 O12 1.903586 1_555
Co0 O27 1.903586 1_455
Co0 O1 1.903586 1_555
Co0 O7 1.903586 1_555
Co0 O6 1.903586 1_555
Co1 O14 1.903586 1_556
Co1 O9 1.903586 1_555
Co1 O20 1.903586 1_555
Co1 O15 1.903586 1_545
Co1 O3 1.903586 1_555
Co1 O8 1.903586 1_555
Co2 O28 1.903586 1_555
Co2 O22 1.903586 1_555
Co2 O23 1.903586 1_555
Co2 O17 1.903586 1_555
Co2 O11 1.903586 1_555
Co2 O16 1.903586 1_555
Co3 O4 1.903586 1_655
Co3 O24 1.903586 1_555
Co3 O30 1.903586 1_554
Co3 O31 1.903586 1_555
Co3 O25 1.903586 1_555
Co3 O19 1.903586 1_555
