# generated using pymatgen
data_LiCu(PO3)2
_symmetry_space_group_name_H-M   'P 1'
_cell_length_a   12.39468300
_cell_length_b   5.55621600
_cell_length_c   7.44104809
_cell_angle_alpha   84.62119533
_cell_angle_beta   90.00000000
_cell_angle_gamma   90.00000000
_symmetry_Int_Tables_number   1
_chemical_formula_structural   LiCu(PO3)2
_chemical_formula_sum   'Li4 Cu4 P8 O24'
_cell_volume   510.19019620
_cell_formula_units_Z   4
loop_
 _symmetry_equiv_pos_site_id
 _symmetry_equiv_pos_as_xyz
  1  'x, y, z'
loop_
 _atom_site_type_symbol
 _atom_site_label
 _atom_site_symmetry_multiplicity
 _atom_site_fract_x
 _atom_site_fract_y
 _atom_site_fract_z
 _atom_site_occupancy
  Li  Li0  1  0.62349700  0.61143200  0.16780200  1
  Li  Li1  1  0.12349700  0.38856800  0.33219800  1
  Li  Li2  1  0.87650300  0.61143200  0.66780200  1
  Li  Li3  1  0.37650300  0.38856800  0.83219800  1
  Cu  Cu0  1  0.46913100  0.17375300  0.21967500  1
  Cu  Cu1  1  0.96913100  0.82624700  0.28032500  1
  Cu  Cu2  1  0.03086900  0.17375300  0.71967500  1
  Cu  Cu3  1  0.53086900  0.82624700  0.78032500  1
  P  P0  1  0.16521200  0.83741400  0.02241800  1
  P  P1  1  0.37746300  0.68019200  0.16119900  1
  P  P2  1  0.87746300  0.31980800  0.33880100  1
  P  P3  1  0.66521200  0.16258600  0.47758200  1
  P  P4  1  0.33478800  0.83741400  0.52241800  1
  P  P5  1  0.12253700  0.68019200  0.66119900  1
  P  P6  1  0.62253700  0.31980800  0.83880100  1
  P  P7  1  0.83478800  0.16258600  0.97758200  1
  O  O0  1  0.29432400  0.86935800  0.05691200  1
  O  O1  1  0.36446100  0.43715000  0.08898100  1
  O  O2  1  0.87550400  0.91863500  0.04475200  1
  O  O3  1  0.83351100  0.34921700  0.13408500  1
  O  O4  1  0.48756700  0.79848000  0.15342500  1
  O  O5  1  0.11614100  0.69850800  0.18728400  1
  O  O6  1  0.61614100  0.30149200  0.31271600  1
  O  O7  1  0.98756700  0.20152000  0.34657500  1
  O  O8  1  0.33351100  0.65078300  0.36591500  1
  O  O9  1  0.37550400  0.08136500  0.45524800  1
  O  O10  1  0.86446100  0.56285000  0.41101900  1
  O  O11  1  0.79432400  0.13064200  0.44308800  1
  O  O12  1  0.20567600  0.86935800  0.55691200  1
  O  O13  1  0.13553900  0.43715000  0.58898100  1
  O  O14  1  0.62449600  0.91863500  0.54475200  1
  O  O15  1  0.66648900  0.34921700  0.63408500  1
  O  O16  1  0.01243300  0.79848000  0.65342500  1
  O  O17  1  0.38385900  0.69850800  0.68728400  1
  O  O18  1  0.88385900  0.30149200  0.81271600  1
  O  O19  1  0.51243300  0.20152000  0.84657500  1
  O  O20  1  0.16648900  0.65078300  0.86591500  1
  O  O21  1  0.12449600  0.08136500  0.95524800  1
  O  O22  1  0.63553900  0.56285000  0.91101900  1
  O  O23  1  0.70567600  0.13064200  0.94308800  1
loop_
_geom_bond_atom_site_label_1
_geom_bond_atom_site_label_2
_geom_bond_distance
_geom_bond_site_symmetry_2
Li0 O6 1.946416 1_555
Li0 O22 1.960292 1_554
Li0 O4 1.977191 1_555
Li1 O5 1.946416 1_555
Li1 O13 1.960292 1_555
Li1 O7 1.977191 1_455
Li2 O18 1.946416 1_555
Li2 O10 1.960292 1_555
Li2 O16 1.977191 1_655
Li3 O17 1.946416 1_555
Li3 O1 1.960292 1_556
Li3 O19 1.977191 1_555
Cu0 O6 2.096515 1_555
Cu0 O1 2.122228 1_555
Cu0 O9 2.124667 1_555
Cu0 O4 2.198994 1_545
Cu1 O5 2.096515 1_655
Cu1 O10 2.122228 1_555
Cu1 O2 2.124667 1_555
Cu1 O7 2.198994 1_565
Cu2 O18 2.096515 1_455
Cu2 O13 2.122228 1_555
Cu2 O21 2.124667 1_555
Cu2 O16 2.198994 1_545
Cu3 O17 2.096515 1_555
Cu3 O22 2.122228 1_555
Cu3 O14 2.124667 1_555
Cu3 O19 2.198994 1_565
O0 P1 1.617363 1_555
O0 P0 1.633062 1_555
O1 P1 1.508098 1_555
O2 P7 1.488192 1_564
O3 P2 1.611601 1_555
O3 P7 1.630371 1_554
O4 P1 1.513470 1_555
O5 P0 1.514286 1_555
O6 P3 1.514286 1_555
O7 P2 1.513470 1_555
O8 P1 1.611601 1_555
O8 P4 1.630371 1_555
O9 P4 1.488192 1_545
O10 P2 1.508098 1_555
O11 P2 1.617363 1_555
O11 P3 1.633062 1_555
O12 P5 1.617363 1_555
O12 P4 1.633062 1_555
O13 P5 1.508098 1_555
O14 P3 1.488192 1_565
O15 P6 1.611601 1_555
O15 P3 1.630371 1_555
O16 P5 1.513470 1_555
O17 P4 1.514286 1_555
O18 P7 1.514286 1_555
O19 P6 1.513470 1_555
O20 P5 1.611601 1_555
O20 P0 1.630371 1_556
O21 P0 1.488192 1_546
O22 P6 1.508098 1_555
O23 P6 1.617363 1_555
O23 P7 1.633062 1_555
