# generated using pymatgen
data_LiMnF3
_symmetry_space_group_name_H-M   'P 1'
_cell_length_a   5.46586300
_cell_length_b   9.03598900
_cell_length_c   10.05294800
_cell_angle_alpha   90.00000000
_cell_angle_beta   90.00000000
_cell_angle_gamma   90.00000000
_symmetry_Int_Tables_number   1
_chemical_formula_structural   LiMnF3
_chemical_formula_sum   'Li8 Mn8 F24'
_cell_volume   496.50985351
_cell_formula_units_Z   8
loop_
 _symmetry_equiv_pos_site_id
 _symmetry_equiv_pos_as_xyz
  1  'x, y, z'
loop_
 _atom_site_type_symbol
 _atom_site_label
 _atom_site_symmetry_multiplicity
 _atom_site_fract_x
 _atom_site_fract_y
 _atom_site_fract_z
 _atom_site_occupancy
  Li  Li0  1  0.18300600  0.16536600  0.00479300  1
  Li  Li1  1  0.15171700  0.82756000  0.78196200  1
  Li  Li2  1  0.34828300  0.32756000  0.28196200  1
  Li  Li3  1  0.31699400  0.66536600  0.50479300  1
  Li  Li4  1  0.68300600  0.33463400  0.00479300  1
  Li  Li5  1  0.65171700  0.67244000  0.78196200  1
  Li  Li6  1  0.84828300  0.17244000  0.28196200  1
  Li  Li7  1  0.81699400  0.83463400  0.50479300  1
  Mn  Mn0  1  0.15639200  0.47745000  0.80720300  1
  Mn  Mn1  1  0.16149400  0.14329800  0.57207300  1
  Mn  Mn2  1  0.33850600  0.64329800  0.07207300  1
  Mn  Mn3  1  0.34360800  0.97745000  0.30720300  1
  Mn  Mn4  1  0.65639200  0.02255000  0.80720300  1
  Mn  Mn5  1  0.66149400  0.35670200  0.57207300  1
  Mn  Mn6  1  0.83850600  0.85670200  0.07207300  1
  Mn  Mn7  1  0.84360800  0.52255000  0.30720300  1
  F  F0  1  0.00766000  0.33234200  0.94223200  1
  F  F1  1  0.01373100  0.99841800  0.43157200  1
  F  F2  1  0.04163400  0.68148500  0.93201700  1
  F  F3  1  0.17654100  0.82535300  0.17231700  1
  F  F4  1  0.17218900  0.15640500  0.19902300  1
  F  F5  1  0.17405800  0.49212100  0.20119800  1
  F  F6  1  0.32594200  0.99212100  0.70119800  1
  F  F7  1  0.32781100  0.65640500  0.69902300  1
  F  F8  1  0.32345900  0.32535300  0.67231700  1
  F  F9  1  0.45836600  0.18148500  0.43201700  1
  F  F10  1  0.48626900  0.49841800  0.93157200  1
  F  F11  1  0.49234000  0.83234200  0.44223200  1
  F  F12  1  0.50766000  0.16765800  0.94223200  1
  F  F13  1  0.51373100  0.50158200  0.43157200  1
  F  F14  1  0.54163400  0.81851500  0.93201700  1
  F  F15  1  0.67654100  0.67464700  0.17231700  1
  F  F16  1  0.67218900  0.34359500  0.19902300  1
  F  F17  1  0.67405800  0.00787900  0.20119800  1
  F  F18  1  0.82594200  0.50787900  0.70119800  1
  F  F19  1  0.82781100  0.84359500  0.69902300  1
  F  F20  1  0.82345900  0.17464700  0.67231700  1
  F  F21  1  0.95836600  0.31851500  0.43201700  1
  F  F22  1  0.98626900  0.00158200  0.93157200  1
  F  F23  1  0.99234000  0.66765800  0.44223200  1
loop_
_geom_bond_atom_site_label_1
_geom_bond_atom_site_label_2
_geom_bond_distance
_geom_bond_site_symmetry_2
F0 Li4 1.882783 1_456
F0 Li0 1.894878 1_556
F0 Mn0 2.054935 1_555
F1 Li7 1.971910 1_455
F1 Mn1 2.088336 1_565
F1 Mn3 2.202299 1_555
F1 Li6 2.356375 1_465
F2 Li1 2.092802 1_555
F2 Mn2 2.175889 1_556
F2 Mn0 2.316660 1_555
F2 Mn6 2.392029 1_456
F3 Mn2 2.122605 1_555
F3 Mn6 2.123586 1_455
F3 Mn3 2.135753 1_555
F4 Li0 1.955156 1_555
F4 Li6 1.962293 1_455
F4 Li2 2.003357 1_555
F4 Mn3 2.162268 1_545
F5 Li2 1.943489 1_555
F5 Mn2 2.087824 1_555
F5 Mn7 2.115083 1_455
F6 Li1 1.943489 1_555
F6 Mn1 2.087824 1_565
F6 Mn4 2.115083 1_565
F7 Li3 1.955156 1_555
F7 Li5 1.962293 1_555
F7 Li1 2.003357 1_555
F7 Mn0 2.162268 1_555
F8 Mn1 2.122605 1_555
F8 Mn5 2.123586 1_555
F8 Mn0 2.135753 1_555
F9 Li2 2.092802 1_555
F9 Mn1 2.175889 1_555
F9 Mn3 2.316660 1_545
F9 Mn5 2.392029 1_555
F10 Li4 1.971910 1_556
F10 Mn2 2.088336 1_556
F10 Mn0 2.202299 1_555
F10 Li5 2.356375 1_555
F11 Li7 1.882783 1_555
F11 Li3 1.894878 1_555
F11 Mn3 2.054935 1_555
F12 Li0 1.882783 1_556
F12 Li4 1.894878 1_556
F12 Mn4 2.054935 1_555
F13 Li3 1.971910 1_555
F13 Mn5 2.088336 1_555
F13 Mn7 2.202299 1_555
F13 Li2 2.356375 1_555
F14 Li5 2.092802 1_555
F14 Mn6 2.175889 1_556
F14 Mn4 2.316660 1_565
F14 Mn2 2.392029 1_556
F15 Mn6 2.122605 1_555
F15 Mn2 2.123586 1_555
F15 Mn7 2.135753 1_555
F16 Li4 1.955156 1_555
F16 Li2 1.962293 1_555
F16 Li6 2.003357 1_555
F16 Mn7 2.162268 1_555
F17 Li6 1.943489 1_555
F17 Mn6 2.087824 1_545
F17 Mn3 2.115083 1_545
F18 Li5 1.943489 1_555
F18 Mn5 2.087824 1_555
F18 Mn0 2.115083 1_655
F19 Li7 1.955156 1_555
F19 Li1 1.962293 1_655
F19 Li5 2.003357 1_555
F19 Mn4 2.162268 1_565
F20 Mn5 2.122605 1_555
F20 Mn1 2.123586 1_655
F20 Mn4 2.135753 1_555
F21 Li6 2.092802 1_555
F21 Mn5 2.175889 1_555
F21 Mn7 2.316660 1_555
F21 Mn1 2.392029 1_655
F22 Li0 1.971910 1_656
F22 Mn6 2.088336 1_546
F22 Mn4 2.202299 1_555
F22 Li1 2.356375 1_645
F23 Li3 1.882783 1_655
F23 Li7 1.894878 1_555
F23 Mn7 2.054935 1_555
