# generated using pymatgen
data_LuAlO3
_symmetry_space_group_name_H-M   'P 1'
_cell_length_a   6.48035130
_cell_length_b   6.48035130
_cell_length_c   10.24609600
_cell_angle_alpha   90.00000000
_cell_angle_beta   90.00000000
_cell_angle_gamma   120.22006393
_symmetry_Int_Tables_number   1
_chemical_formula_structural   LuAlO3
_chemical_formula_sum   'Lu6 Al6 O18'
_cell_volume   371.80807887
_cell_formula_units_Z   6
loop_
 _symmetry_equiv_pos_site_id
 _symmetry_equiv_pos_as_xyz
  1  'x, y, z'
loop_
 _atom_site_type_symbol
 _atom_site_label
 _atom_site_symmetry_multiplicity
 _atom_site_fract_x
 _atom_site_fract_y
 _atom_site_fract_z
 _atom_site_occupancy
  Lu  Lu0  1  0.83143000  0.16857000  0.50000000  1
  Lu  Lu1  1  0.83143000  0.16857000  0.00000000  1
  Lu  Lu2  1  0.16857000  0.83143000  0.50000000  1
  Lu  Lu3  1  0.16857000  0.83143000  0.00000000  1
  Lu  Lu4  1  0.50000000  0.50000000  0.00000000  1
  Lu  Lu5  1  0.50000000  0.50000000  0.50000000  1
  Al  Al0  1  0.55624400  0.83432100  0.25000000  1
  Al  Al1  1  0.16567900  0.44375600  0.75000000  1
  Al  Al2  1  0.83432100  0.55624400  0.25000000  1
  Al  Al3  1  0.44375600  0.16567900  0.75000000  1
  Al  Al4  1  0.88171600  0.88171600  0.75000000  1
  Al  Al5  1  0.11828400  0.11828400  0.25000000  1
  O  O0  1  0.89277300  0.16266500  0.75000000  1
  O  O1  1  0.83733500  0.10722600  0.25000000  1
  O  O2  1  0.47939700  0.83363900  0.08598900  1
  O  O3  1  0.47939700  0.83363900  0.41401100  1
  O  O4  1  0.16636100  0.52060300  0.58598900  1
  O  O5  1  0.16636100  0.52060300  0.91401100  1
  O  O6  1  0.83363900  0.47939700  0.08598900  1
  O  O7  1  0.83363900  0.47939700  0.41401100  1
  O  O8  1  0.52060300  0.16636100  0.58598900  1
  O  O9  1  0.52060300  0.16636100  0.91401100  1
  O  O10  1  0.10722700  0.83733500  0.25000000  1
  O  O11  1  0.16266500  0.89277400  0.75000000  1
  O  O12  1  0.44196300  0.44196300  0.75000000  1
  O  O13  1  0.81452500  0.81452500  0.58102700  1
  O  O14  1  0.81452500  0.81452500  0.91897300  1
  O  O15  1  0.18547500  0.18547500  0.08102700  1
  O  O16  1  0.18547500  0.18547500  0.41897300  1
  O  O17  1  0.55803700  0.55803700  0.25000000  1
loop_
_geom_bond_atom_site_label_1
_geom_bond_atom_site_label_2
_geom_bond_distance
_geom_bond_site_symmetry_2
Lu0 O7 2.191964 1_555
Lu0 O8 2.191964 1_555
Lu0 O3 2.388958 1_545
Lu0 O4 2.388958 1_655
Lu0 O13 2.390024 1_545
Lu0 O16 2.390024 1_655
Lu0 O0 2.595421 1_555
Lu0 O1 2.595422 1_555
Lu1 O9 2.191964 1_554
Lu1 O6 2.191964 1_555
Lu1 O5 2.388958 1_654
Lu1 O2 2.388958 1_545
Lu1 O14 2.390024 1_544
Lu1 O15 2.390024 1_655
Lu1 O0 2.595421 1_554
Lu1 O1 2.595422 1_555
Lu2 O3 2.191964 1_555
Lu2 O4 2.191964 1_555
Lu2 O7 2.388958 1_455
Lu2 O8 2.388958 1_565
Lu2 O13 2.390024 1_455
Lu2 O16 2.390024 1_565
Lu2 O10 2.595421 1_555
Lu2 O11 2.595422 1_555
Lu3 O2 2.191964 1_555
Lu3 O5 2.191964 1_554
Lu3 O6 2.388958 1_455
Lu3 O9 2.388958 1_564
Lu3 O14 2.390024 1_454
Lu3 O15 2.390024 1_565
Lu3 O10 2.595421 1_555
Lu3 O11 2.595422 1_554
Lu4 O15 2.194547 1_555
Lu4 O14 2.194547 1_554
Lu4 O9 2.399862 1_554
Lu4 O2 2.399862 1_555
Lu4 O5 2.399862 1_554
Lu4 O6 2.399862 1_555
Lu4 O17 2.588806 1_555
Lu4 O12 2.588806 1_554
Lu5 O16 2.194547 1_555
Lu5 O13 2.194547 1_555
Lu5 O8 2.399862 1_555
Lu5 O3 2.399862 1_555
Lu5 O4 2.399862 1_555
Lu5 O7 2.399862 1_555
Lu5 O12 2.588806 1_555
Lu5 O17 2.588806 1_555
Al0 O3 1.752082 1_555
Al0 O2 1.752082 1_555
Al0 O1 1.789661 1_565
Al0 O17 1.796294 1_555
Al1 O5 1.752082 1_555
Al1 O4 1.752082 1_555
Al1 O0 1.789664 1_455
Al1 O12 1.796294 1_555
Al2 O7 1.752082 1_555
Al2 O6 1.752082 1_555
Al2 O10 1.789664 1_655
Al2 O17 1.796294 1_555
Al3 O9 1.752082 1_555
Al3 O8 1.752082 1_555
Al3 O11 1.789661 1_545
Al3 O12 1.796294 1_555
Al4 O14 1.784875 1_555
Al4 O13 1.784875 1_555
Al4 O11 1.785654 1_655
Al4 O0 1.785657 1_565
Al5 O15 1.784875 1_555
Al5 O16 1.784875 1_555
Al5 O1 1.785654 1_455
Al5 O10 1.785657 1_545
