# generated using pymatgen
data_LiVPO5
_symmetry_space_group_name_H-M   'P 1'
_cell_length_a   5.46770626
_cell_length_b   7.63502118
_cell_length_c   10.63925847
_cell_angle_alpha   92.21562229
_cell_angle_beta   80.59141361
_cell_angle_gamma   67.06504449
_symmetry_Int_Tables_number   1
_chemical_formula_structural   LiVPO5
_chemical_formula_sum   'Li4 V4 P4 O20'
_cell_volume   400.96444074
_cell_formula_units_Z   4
loop_
 _symmetry_equiv_pos_site_id
 _symmetry_equiv_pos_as_xyz
  1  'x, y, z'
loop_
 _atom_site_type_symbol
 _atom_site_label
 _atom_site_symmetry_multiplicity
 _atom_site_fract_x
 _atom_site_fract_y
 _atom_site_fract_z
 _atom_site_occupancy
  Li  Li0  1  0.67376400  0.50064800  0.88445800  1
  Li  Li1  1  0.17369000  0.00095000  0.38464900  1
  Li  Li2  1  0.32642000  0.49900700  0.11534100  1
  Li  Li3  1  0.82617500  0.99938800  0.61551900  1
  V  V0  1  0.24369300  0.08429400  0.80045700  1
  V  V1  1  0.25589300  0.41591900  0.69950600  1
  V  V2  1  0.74403900  0.58411900  0.30048400  1
  V  V3  1  0.75627700  0.91575100  0.19958600  1
  P  P0  1  0.96322600  0.24061200  0.08793600  1
  P  P1  1  0.46307700  0.74079500  0.58796600  1
  P  P2  1  0.03686700  0.75920800  0.91205800  1
  P  P3  1  0.53683900  0.25935400  0.41204000  1
  O  O0  1  0.29222700  0.65431800  0.96349200  1
  O  O1  1  0.79208400  0.15458600  0.46361000  1
  O  O2  1  0.70796700  0.34541300  0.03640100  1
  O  O3  1  0.20775700  0.84570100  0.53649500  1
  O  O4  1  0.51307200  0.77123400  0.24226100  1
  O  O5  1  0.01271500  0.27132800  0.74215400  1
  O  O6  1  0.48690900  0.22882500  0.75779900  1
  O  O7  1  0.98729600  0.72863500  0.25778200  1
  O  O8  1  0.44952800  0.58138200  0.67171600  1
  O  O9  1  0.94965100  0.08128900  0.17176800  1
  O  O10  1  0.55049700  0.41866300  0.32820900  1
  O  O11  1  0.05028100  0.91866600  0.82830800  1
  O  O12  1  0.02705900  0.38686900  0.17335300  1
  O  O13  1  0.52687200  0.88701800  0.67344700  1
  O  O14  1  0.97297900  0.61303500  0.82658700  1
  O  O15  1  0.47313200  0.11303400  0.32662500  1
  O  O16  1  0.21796100  0.15099100  0.97814900  1
  O  O17  1  0.71781200  0.65129900  0.47817800  1
  O  O18  1  0.78222300  0.84868500  0.02189500  1
  O  O19  1  0.28201500  0.34898300  0.52177100  1
loop_
_geom_bond_atom_site_label_1
_geom_bond_atom_site_label_2
_geom_bond_distance
_geom_bond_site_symmetry_2
Li0 O0 1.969309 1_555
Li0 O2 2.031559 1_556
Li0 O14 2.144194 1_555
Li0 O5 2.267405 1_655
Li1 O1 1.969373 1_455
Li1 O3 2.030765 1_545
Li1 O15 2.143928 1_555
Li1 O4 2.270109 1_545
Li2 O2 1.969024 1_555
Li2 O0 2.031062 1_554
Li2 O12 2.143811 1_555
Li2 O7 2.269531 1_455
Li3 O3 1.969493 1_655
Li3 O1 2.031098 1_565
Li3 O13 2.144630 1_555
Li3 O6 2.268360 1_565
O0 P2 1.517395 1_555
O1 P3 1.517507 1_555
O2 P0 1.517414 1_555
O3 P1 1.517457 1_555
O4 V2 1.713940 1_555
O4 V3 2.043720 1_555
O5 V0 1.714059 1_555
O5 V1 2.044012 1_555
O6 V1 1.714359 1_555
O6 V0 2.043830 1_555
O7 V3 1.713930 1_555
O7 V2 2.043987 1_555
O8 P1 1.553502 1_555
O8 V1 1.942490 1_555
O9 P0 1.553493 1_555
O9 V3 1.941910 1_545
O10 P3 1.553516 1_555
O10 V2 1.941989 1_555
O11 P2 1.553594 1_555
O11 V0 1.942699 1_565
O12 P0 1.588596 1_455
O12 V2 1.958070 1_455
O13 P1 1.588671 1_555
O13 V0 1.957801 1_565
O14 P2 1.588615 1_655
O14 V1 1.957124 1_655
O15 P3 1.588548 1_555
O15 V3 1.957918 1_545
O16 P0 1.560773 1_456
O16 V0 1.906805 1_555
O17 P1 1.560720 1_555
O17 V2 1.907046 1_555
O18 P2 1.560719 1_654
O18 V3 1.907135 1_555
O19 P3 1.560719 1_555
O19 V1 1.907204 1_555
