# generated using pymatgen
data_Gd3TaO7
_symmetry_space_group_name_H-M   'P 1'
_cell_length_a   7.57195100
_cell_length_b   7.61344200
_cell_length_c   10.75702600
_cell_angle_alpha   90.00000000
_cell_angle_beta   90.00000000
_cell_angle_gamma   90.00000000
_symmetry_Int_Tables_number   1
_chemical_formula_structural   Gd3TaO7
_chemical_formula_sum   'Gd12 Ta4 O28'
_cell_volume   620.12759411
_cell_formula_units_Z   4
loop_
 _symmetry_equiv_pos_site_id
 _symmetry_equiv_pos_as_xyz
  1  'x, y, z'
loop_
 _atom_site_type_symbol
 _atom_site_label
 _atom_site_symmetry_multiplicity
 _atom_site_fract_x
 _atom_site_fract_y
 _atom_site_fract_z
 _atom_site_occupancy
  Gd  Gd0  1  0.01149000  0.79140300  0.25000000  1
  Gd  Gd1  1  0.25221000  0.96591900  0.52018200  1
  Gd  Gd2  1  0.25221000  0.96591900  0.97981800  1
  Gd  Gd3  1  0.24779000  0.46591900  0.02018200  1
  Gd  Gd4  1  0.24779000  0.46591900  0.47981800  1
  Gd  Gd5  1  0.48851000  0.29140300  0.75000000  1
  Gd  Gd6  1  0.51149000  0.70859700  0.25000000  1
  Gd  Gd7  1  0.75221000  0.53408100  0.52018200  1
  Gd  Gd8  1  0.75221000  0.53408100  0.97981800  1
  Gd  Gd9  1  0.74779000  0.03408100  0.02018200  1
  Gd  Gd10  1  0.74779000  0.03408100  0.47981800  1
  Gd  Gd11  1  0.98851000  0.20859700  0.75000000  1
  Ta  Ta0  1  0.99878700  0.74873300  0.75000000  1
  Ta  Ta1  1  0.50121300  0.24873300  0.25000000  1
  Ta  Ta2  1  0.49878700  0.75126700  0.75000000  1
  Ta  Ta3  1  0.00121300  0.25126700  0.25000000  1
  O  O0  1  0.03419700  0.04873700  0.12565700  1
  O  O1  1  0.03419700  0.04873700  0.37434300  1
  O  O2  1  0.03790300  0.58324200  0.61446400  1
  O  O3  1  0.03790300  0.58324200  0.88553600  1
  O  O4  1  0.24815100  0.32623700  0.25000000  1
  O  O5  1  0.25479300  0.73160200  0.11674400  1
  O  O6  1  0.25479300  0.73160200  0.38325600  1
  O  O7  1  0.24520700  0.23160200  0.61674400  1
  O  O8  1  0.24520700  0.23160200  0.88325600  1
  O  O9  1  0.25184900  0.82623700  0.75000000  1
  O  O10  1  0.46209700  0.08324200  0.11446400  1
  O  O11  1  0.46209700  0.08324200  0.38553600  1
  O  O12  1  0.46580300  0.54873700  0.62565700  1
  O  O13  1  0.46580300  0.54873700  0.87434300  1
  O  O14  1  0.53419700  0.45126300  0.12565700  1
  O  O15  1  0.53419700  0.45126300  0.37434300  1
  O  O16  1  0.53790300  0.91675800  0.61446400  1
  O  O17  1  0.53790300  0.91675800  0.88553600  1
  O  O18  1  0.74815100  0.17376300  0.25000000  1
  O  O19  1  0.75479300  0.76839800  0.11674400  1
  O  O20  1  0.75479300  0.76839800  0.38325600  1
  O  O21  1  0.74520700  0.26839800  0.61674400  1
  O  O22  1  0.74520700  0.26839800  0.88325600  1
  O  O23  1  0.75184900  0.67376300  0.75000000  1
  O  O24  1  0.96209700  0.41675800  0.11446400  1
  O  O25  1  0.96209700  0.41675800  0.38553600  1
  O  O26  1  0.96580300  0.95126300  0.62565700  1
  O  O27  1  0.96580300  0.95126300  0.87434300  1
loop_
_geom_bond_atom_site_label_1
_geom_bond_atom_site_label_2
_geom_bond_distance
_geom_bond_site_symmetry_2
Gd0 O5 2.378240 1_555
Gd0 O6 2.378240 1_555
Gd0 O1 2.378463 1_565
Gd0 O0 2.378463 1_565
Gd0 O19 2.421442 1_455
Gd0 O20 2.421442 1_455
Gd1 O7 2.274493 1_565
Gd1 O6 2.313520 1_555
Gd1 O11 2.328396 1_565
Gd1 O1 2.363000 1_565
Gd1 O16 2.418335 1_555
Gd1 O26 2.450071 1_455
Gd1 O9 2.691194 1_555
Gd2 O8 2.274493 1_565
Gd2 O5 2.313520 1_556
Gd2 O10 2.328396 1_566
Gd2 O0 2.363000 1_566
Gd2 O17 2.418335 1_555
Gd2 O27 2.450071 1_455
Gd2 O9 2.691194 1_555
Gd3 O5 2.274493 1_555
Gd3 O8 2.313520 1_554
Gd3 O3 2.328396 1_554
Gd3 O13 2.363000 1_554
Gd3 O24 2.418335 1_455
Gd3 O14 2.450071 1_555
Gd3 O4 2.691194 1_555
Gd4 O6 2.274493 1_555
Gd4 O7 2.313520 1_555
Gd4 O2 2.328396 1_555
Gd4 O12 2.363000 1_555
Gd4 O25 2.418335 1_455
Gd4 O15 2.450071 1_555
Gd4 O4 2.691194 1_555
Gd5 O8 2.378240 1_555
Gd5 O7 2.378240 1_555
Gd5 O12 2.378463 1_555
Gd5 O13 2.378463 1_555
Gd5 O22 2.421442 1_555
Gd5 O21 2.421442 1_555
Gd6 O19 2.378240 1_555
Gd6 O20 2.378240 1_555
Gd6 O14 2.378463 1_555
Gd6 O15 2.378463 1_555
Gd6 O5 2.421442 1_555
Gd6 O6 2.421442 1_555
Gd7 O21 2.274493 1_555
Gd7 O20 2.313520 1_555
Gd7 O25 2.328396 1_555
Gd7 O15 2.363000 1_555
Gd7 O2 2.418335 1_655
Gd7 O12 2.450071 1_555
Gd7 O23 2.691194 1_555
Gd8 O22 2.274493 1_555
Gd8 O19 2.313520 1_556
Gd8 O24 2.328396 1_556
Gd8 O14 2.363000 1_556
Gd8 O3 2.418335 1_655
Gd8 O13 2.450071 1_555
Gd8 O23 2.691194 1_555
Gd9 O19 2.274493 1_545
Gd9 O22 2.313520 1_554
Gd9 O17 2.328396 1_544
Gd9 O27 2.363000 1_544
Gd9 O10 2.418335 1_555
Gd9 O0 2.450071 1_655
Gd9 O18 2.691194 1_555
Gd10 O20 2.274493 1_545
Gd10 O21 2.313520 1_555
Gd10 O16 2.328396 1_545
Gd10 O26 2.363000 1_545
Gd10 O11 2.418335 1_555
Gd10 O1 2.450071 1_655
Gd10 O18 2.691194 1_555
Gd11 O21 2.378240 1_555
Gd11 O22 2.378240 1_555
Gd11 O26 2.378463 1_545
Gd11 O27 2.378463 1_545
Gd11 O7 2.421442 1_655
Gd11 O8 2.421442 1_655
O0 Ta3 2.056467 1_555
O1 Ta3 2.056467 1_555
O2 Ta0 1.949583 1_455
O3 Ta0 1.949583 1_455
O4 Ta3 1.954981 1_555
O4 Ta1 2.004970 1_555
O9 Ta2 1.954981 1_555
O9 Ta0 2.004970 1_455
O10 Ta1 1.949583 1_555
O11 Ta1 1.949583 1_555
O12 Ta2 2.056467 1_555
O13 Ta2 2.056467 1_555
O14 Ta1 2.056467 1_555
O15 Ta1 2.056467 1_555
O16 Ta2 1.949583 1_555
O17 Ta2 1.949583 1_555
O18 Ta1 1.954981 1_555
O18 Ta3 2.004970 1_655
O23 Ta0 1.954981 1_555
O23 Ta2 2.004970 1_555
O24 Ta3 1.949583 1_655
O25 Ta3 1.949583 1_655
O26 Ta0 2.056467 1_555
O27 Ta0 2.056467 1_555
