# generated using pymatgen
data_Bi2PO6
_symmetry_space_group_name_H-M   'P 1'
_cell_length_a   7.85953915
_cell_length_b   7.85953915
_cell_length_c   5.76117800
_cell_angle_alpha   90.00000000
_cell_angle_beta   90.00000000
_cell_angle_gamma   137.24471047
_symmetry_Int_Tables_number   1
_chemical_formula_structural   Bi2PO6
_chemical_formula_sum   'Bi4 P2 O12'
_cell_volume   241.59677723
_cell_formula_units_Z   2
loop_
 _symmetry_equiv_pos_site_id
 _symmetry_equiv_pos_as_xyz
  1  'x, y, z'
loop_
 _atom_site_type_symbol
 _atom_site_label
 _atom_site_symmetry_multiplicity
 _atom_site_fract_x
 _atom_site_fract_y
 _atom_site_fract_z
 _atom_site_occupancy
  Bi  Bi0  1  0.83449300  0.16550700  0.50000000  1
  Bi  Bi1  1  0.66550700  0.33449300  0.00000000  1
  Bi  Bi2  1  0.16550700  0.83449300  0.50000000  1
  Bi  Bi3  1  0.33449300  0.66550700  0.00000000  1
  P  P0  1  0.00000000  0.00000000  0.00000000  1
  P  P1  1  0.50000000  0.50000000  0.50000000  1
  O  O0  1  0.21622900  0.08314400  0.14885400  1
  O  O1  1  0.78377100  0.91685600  0.14885400  1
  O  O2  1  0.41685600  0.28377100  0.64885400  1
  O  O3  1  0.08314400  0.21622900  0.85114600  1
  O  O4  1  0.71622900  0.58314400  0.35114600  1
  O  O5  1  0.00000000  0.50000000  0.73837200  1
  O  O6  1  0.00000000  0.50000000  0.23837200  1
  O  O7  1  0.28377100  0.41685600  0.35114600  1
  O  O8  1  0.91685600  0.78377100  0.85114600  1
  O  O9  1  0.58314400  0.71622900  0.64885400  1
  O  O10  1  0.50000000  0.00000000  0.76162800  1
  O  O11  1  0.50000000  0.00000000  0.26162800  1
loop_
_geom_bond_atom_site_label_1
_geom_bond_atom_site_label_2
_geom_bond_distance
_geom_bond_site_symmetry_2
Bi0 O11 2.338267 1_555
Bi0 O5 2.338267 1_655
Bi0 O6 2.419388 1_655
Bi0 O10 2.419388 1_555
Bi0 O7 2.619705 1_655
Bi0 O9 2.619705 1_545
Bi0 O3 2.631851 1_655
Bi0 O1 2.631851 1_545
Bi1 O10 2.338267 1_554
Bi1 O6 2.338267 1_655
Bi1 O11 2.419388 1_555
Bi1 O5 2.419388 1_654
Bi1 O0 2.619705 1_555
Bi1 O8 2.619705 1_554
Bi1 O4 2.631851 1_555
Bi1 O2 2.631851 1_554
Bi2 O5 2.338267 1_555
Bi2 O11 2.338267 1_565
Bi2 O6 2.419388 1_555
Bi2 O10 2.419388 1_565
Bi2 O4 2.619705 1_455
Bi2 O2 2.619705 1_565
Bi2 O0 2.631851 1_565
Bi2 O8 2.631851 1_455
Bi3 O6 2.338267 1_555
Bi3 O10 2.338267 1_564
Bi3 O11 2.419388 1_565
Bi3 O5 2.419388 1_554
Bi3 O1 2.619705 1_555
Bi3 O3 2.619705 1_554
Bi3 O9 2.631851 1_554
Bi3 O7 2.631851 1_555
O0 P0 1.555557 1_555
O1 P0 1.555557 1_665
O2 P1 1.555557 1_555
O3 P0 1.555557 1_556
O4 P1 1.555557 1_555
O7 P1 1.555557 1_555
O8 P0 1.555557 1_666
O9 P1 1.555557 1_555
