# generated using pymatgen
data_LaMgI5
_symmetry_space_group_name_H-M   'P 1'
_cell_length_a   4.34840538
_cell_length_b   15.02479776
_cell_length_c   17.46301179
_cell_angle_alpha   90.00000000
_cell_angle_beta   90.00000000
_cell_angle_gamma   90.00000000
_symmetry_Int_Tables_number   1
_chemical_formula_structural   LaMgI5
_chemical_formula_sum   'La4 Mg4 I20'
_cell_volume   1140.92686529
_cell_formula_units_Z   4
loop_
 _symmetry_equiv_pos_site_id
 _symmetry_equiv_pos_as_xyz
  1  'x, y, z'
loop_
 _atom_site_type_symbol
 _atom_site_label
 _atom_site_symmetry_multiplicity
 _atom_site_fract_x
 _atom_site_fract_y
 _atom_site_fract_z
 _atom_site_occupancy
  La  La0  1  0.75000000  0.74151048  0.15616191  1
  La  La1  1  0.25000000  0.24151048  0.34383809  1
  La  La2  1  0.75000000  0.75848952  0.65616191  1
  La  La3  1  0.25000000  0.25848952  0.84383809  1
  Mg  Mg0  1  0.75000000  0.24242742  0.09263083  1
  Mg  Mg1  1  0.25000000  0.74242742  0.40736917  1
  Mg  Mg2  1  0.75000000  0.25757258  0.59263083  1
  Mg  Mg3  1  0.25000000  0.75757258  0.90736917  1
  I  I0  1  0.25000000  0.34958017  0.02603487  1
  I  I1  1  0.25000000  0.86000285  0.05134154  1
  I  I2  1  0.25000000  0.58980478  0.15545052  1
  I  I3  1  0.25000000  0.13740463  0.15989514  1
  I  I4  1  0.75000000  0.35100504  0.23386860  1
  I  I5  1  0.25000000  0.85100504  0.26613140  1
  I  I6  1  0.75000000  0.63740463  0.34010486  1
  I  I7  1  0.75000000  0.08980478  0.34454948  1
  I  I8  1  0.75000000  0.36000285  0.44865846  1
  I  I9  1  0.75000000  0.84958017  0.47396513  1
  I  I10  1  0.25000000  0.15041983  0.52603487  1
  I  I11  1  0.25000000  0.63999715  0.55134154  1
  I  I12  1  0.25000000  0.91019522  0.65545052  1
  I  I13  1  0.25000000  0.36259537  0.65989514  1
  I  I14  1  0.75000000  0.14899496  0.73386860  1
  I  I15  1  0.25000000  0.64899496  0.76613140  1
  I  I16  1  0.75000000  0.86259537  0.84010486  1
  I  I17  1  0.75000000  0.41019522  0.84454948  1
  I  I18  1  0.75000000  0.13999715  0.94865846  1
  I  I19  1  0.75000000  0.65041983  0.97396513  1
loop_
_geom_bond_atom_site_label_1
_geom_bond_atom_site_label_2
_geom_bond_distance
_geom_bond_site_symmetry_2
I0 Mg0 2.944755 1_555
I0 Mg0 2.944755 1_455
I0 La3 3.463576 1_554
I1 Mg3 2.947823 1_554
I1 La0 3.353709 1_455
I1 La0 3.353709 1_555
I2 La0 3.150038 1_455
I2 La0 3.150038 1_555
I3 Mg0 2.932038 1_555
I3 Mg0 2.932038 1_455
I3 La1 3.572792 1_555
I4 Mg0 2.957133 1_555
I4 La1 3.334899 1_555
I4 La1 3.334899 1_655
I5 Mg1 2.957133 1_555
I5 La0 3.334899 1_555
I5 La0 3.334899 1_455
I6 Mg1 2.932038 1_555
I6 Mg1 2.932038 1_655
I6 La0 3.572792 1_555
I7 La1 3.150038 1_655
I7 La1 3.150038 1_555
I8 Mg2 2.947823 1_555
I8 La1 3.353709 1_655
I8 La1 3.353709 1_555
I9 Mg1 2.944755 1_555
I9 Mg1 2.944755 1_655
I9 La2 3.463576 1_555
I10 Mg2 2.944755 1_455
I10 Mg2 2.944755 1_555
I10 La1 3.463576 1_555
I11 Mg1 2.947823 1_555
I11 La2 3.353709 1_555
I11 La2 3.353709 1_455
I12 La2 3.150038 1_455
I12 La2 3.150038 1_555
I13 Mg2 2.932038 1_455
I13 Mg2 2.932038 1_555
I13 La3 3.572792 1_555
I14 Mg2 2.957133 1_555
I14 La3 3.334899 1_555
I14 La3 3.334899 1_655
I15 Mg3 2.957133 1_555
I15 La2 3.334899 1_555
I15 La2 3.334899 1_455
I16 Mg3 2.932038 1_655
I16 Mg3 2.932038 1_555
I16 La2 3.572792 1_555
I17 La3 3.150038 1_555
I17 La3 3.150038 1_655
I18 Mg0 2.947823 1_556
I18 La3 3.353709 1_555
I18 La3 3.353709 1_655
I19 Mg3 2.944755 1_655
I19 Mg3 2.944755 1_555
I19 La0 3.463576 1_556
