# generated using pymatgen
data_Sc2O3
_symmetry_space_group_name_H-M   'P 1'
_cell_length_a   5.34815669
_cell_length_b   5.66639085
_cell_length_c   5.34815563
_cell_angle_alpha   118.15894236
_cell_angle_beta   59.99999967
_cell_angle_gamma   118.15893909
_symmetry_Int_Tables_number   1
_chemical_formula_structural   Sc2O3
_chemical_formula_sum   'Sc4 O6'
_cell_volume   117.69023565
_cell_formula_units_Z   2
loop_
 _symmetry_equiv_pos_site_id
 _symmetry_equiv_pos_as_xyz
  1  'x, y, z'
loop_
 _atom_site_type_symbol
 _atom_site_label
 _atom_site_symmetry_multiplicity
 _atom_site_fract_x
 _atom_site_fract_y
 _atom_site_fract_z
 _atom_site_occupancy
  Sc  Sc0  1  0.14416132  0.43248295  0.14416132  1
  Sc  Sc1  1  0.35583868  0.06751705  0.35583868  1
  Sc  Sc2  1  0.64416132  0.93248295  0.64416132  1
  Sc  Sc3  1  0.85583868  0.56751705  0.85583868  1
  O  O0  1  0.25000000  0.75000000  0.54911463  1
  O  O1  1  0.04911463  0.25000000  0.75000000  1
  O  O2  1  0.45088537  0.25000000  0.04911463  1
  O  O3  1  0.54911463  0.75000000  0.95088537  1
  O  O4  1  0.95088537  0.75000000  0.25000000  1
  O  O5  1  0.75000000  0.25000000  0.45088537  1
loop_
_geom_bond_atom_site_label_1
_geom_bond_atom_site_label_2
_geom_bond_distance
_geom_bond_site_symmetry_2
O0 Sc3 2.071119 1_455
O0 Sc2 2.071122 1_555
O0 Sc0 2.198837 1_555
O0 Sc1 2.198841 1_565
O1 Sc1 2.071119 1_555
O1 Sc0 2.071121 1_556
O1 Sc2 2.198838 1_445
O1 Sc3 2.198841 1_455
O2 Sc1 2.071116 1_555
O2 Sc0 2.071117 1_555
O2 Sc2 2.198839 1_544
O2 Sc3 2.198840 1_554
O3 Sc2 2.071116 1_555
O3 Sc3 2.071117 1_555
O3 Sc1 2.198839 1_566
O3 Sc0 2.198840 1_556
O4 Sc2 2.071119 1_555
O4 Sc3 2.071121 1_554
O4 Sc1 2.198838 1_665
O4 Sc0 2.198841 1_655
O5 Sc0 2.071119 1_655
O5 Sc1 2.071122 1_555
O5 Sc3 2.198837 1_555
O5 Sc2 2.198841 1_545
