# generated using pymatgen
data_Li2CuF4
_symmetry_space_group_name_H-M   'P 1'
_cell_length_a   5.60216700
_cell_length_b   5.59585300
_cell_length_c   11.05644149
_cell_angle_alpha   69.03753682
_cell_angle_beta   90.00000000
_cell_angle_gamma   90.00000000
_symmetry_Int_Tables_number   1
_chemical_formula_structural   Li2CuF4
_chemical_formula_sum   'Li8 Cu4 F16'
_cell_volume   323.66710982
_cell_formula_units_Z   4
loop_
 _symmetry_equiv_pos_site_id
 _symmetry_equiv_pos_as_xyz
  1  'x, y, z'
loop_
 _atom_site_type_symbol
 _atom_site_label
 _atom_site_symmetry_multiplicity
 _atom_site_fract_x
 _atom_site_fract_y
 _atom_site_fract_z
 _atom_site_occupancy
  Li  Li0  1  0.12201900  0.65042400  0.77182600  1
  Li  Li1  1  0.25906100  0.83807400  0.50225900  1
  Li  Li2  1  0.75906100  0.16192600  0.99774100  1
  Li  Li3  1  0.62201900  0.34957600  0.72817400  1
  Li  Li4  1  0.37798100  0.65042400  0.27182600  1
  Li  Li5  1  0.24093900  0.83807400  0.00225900  1
  Li  Li6  1  0.74093900  0.16192600  0.49774100  1
  Li  Li7  1  0.87798100  0.34957600  0.22817400  1
  Cu  Cu0  1  0.33001200  0.24408300  0.12042100  1
  Cu  Cu1  1  0.83001200  0.75591700  0.37957900  1
  Cu  Cu2  1  0.16998800  0.24408300  0.62042100  1
  Cu  Cu3  1  0.66998800  0.75591700  0.87957900  1
  F  F0  1  0.63983500  0.39271300  0.10188700  1
  F  F1  1  0.82266100  0.47952800  0.84289200  1
  F  F2  1  0.97914800  0.06474800  0.37802900  1
  F  F3  1  0.32266100  0.52047200  0.65710800  1
  F  F4  1  0.53411300  0.90927800  0.39094800  1
  F  F5  1  0.03411300  0.09072200  0.10905200  1
  F  F6  1  0.86016500  0.39271300  0.60188700  1
  F  F7  1  0.47914800  0.93525200  0.12197100  1
  F  F8  1  0.52085200  0.06474800  0.87802900  1
  F  F9  1  0.13983500  0.60728700  0.39811300  1
  F  F10  1  0.96588700  0.90927800  0.89094800  1
  F  F11  1  0.46588700  0.09072200  0.60905200  1
  F  F12  1  0.67733900  0.47952800  0.34289200  1
  F  F13  1  0.02085200  0.93525200  0.62197100  1
  F  F14  1  0.17733900  0.52047200  0.15710800  1
  F  F15  1  0.36016500  0.60728700  0.89811300  1
loop_
_geom_bond_atom_site_label_1
_geom_bond_atom_site_label_2
_geom_bond_distance
_geom_bond_site_symmetry_2
Cu0 F5 1.891390 1_555
Cu0 F0 1.903779 1_555
Cu0 F7 1.914084 1_545
Cu0 F14 1.933138 1_555
Cu1 F4 1.891390 1_555
Cu1 F9 1.903779 1_655
Cu1 F2 1.914084 1_565
Cu1 F12 1.933138 1_555
Cu2 F11 1.891390 1_555
Cu2 F6 1.903779 1_455
Cu2 F13 1.914084 1_545
Cu2 F3 1.933138 1_555
Cu3 F10 1.891390 1_555
Cu3 F15 1.903779 1_555
Cu3 F8 1.914084 1_565
Cu3 F1 1.933138 1_555
F0 Li7 1.883250 1_555
F0 Li2 2.122242 1_554
F1 Li0 1.951096 1_655
F1 Li2 2.009884 1_555
F1 Li3 2.015186 1_555
F2 Li7 1.928019 1_555
F2 Li6 2.084095 1_555
F2 Li1 2.169779 1_645
F3 Li3 1.951096 1_555
F3 Li1 2.009884 1_555
F3 Li0 2.015186 1_555
F4 Li1 1.922722 1_555
F4 Li6 2.435138 1_565
F4 Li4 2.441913 1_555
F5 Li2 1.922722 1_454
F5 Li5 2.435138 1_545
F5 Li7 2.441913 1_455
F6 Li3 1.883250 1_555
F6 Li6 2.122242 1_555
F7 Li4 1.928019 1_555
F7 Li5 2.084095 1_555
F7 Li2 2.169779 1_564
F8 Li3 1.928019 1_555
F8 Li2 2.084095 1_555
F8 Li5 2.169779 1_546
F9 Li4 1.883250 1_555
F9 Li1 2.122242 1_555
F10 Li5 1.922722 1_656
F10 Li2 2.435138 1_565
F10 Li0 2.441913 1_655
F11 Li6 1.922722 1_555
F11 Li1 2.435138 1_545
F11 Li3 2.441913 1_555
F12 Li4 1.951096 1_555
F12 Li6 2.009884 1_555
F12 Li7 2.015186 1_555
F13 Li0 1.928019 1_555
F13 Li1 2.084095 1_555
F13 Li6 2.169779 1_465
F14 Li7 1.951096 1_455
F14 Li5 2.009884 1_555
F14 Li4 2.015186 1_555
F15 Li0 1.883250 1_555
F15 Li5 2.122242 1_556
