# generated using pymatgen
data_Li3Ti3CrO8
_symmetry_space_group_name_H-M   'P 1'
_cell_length_a   10.49052726
_cell_length_b   10.49066688
_cell_length_c   14.88484633
_cell_angle_alpha   18.96933596
_cell_angle_beta   18.96968632
_cell_angle_gamma   32.70266113
_symmetry_Int_Tables_number   1
_chemical_formula_structural   Li3Ti3CrO8
_chemical_formula_sum   'Li3 Ti3 Cr1 O8'
_cell_volume   149.89213667
_cell_formula_units_Z   1
loop_
 _symmetry_equiv_pos_site_id
 _symmetry_equiv_pos_as_xyz
  1  'x, y, z'
loop_
 _atom_site_type_symbol
 _atom_site_label
 _atom_site_symmetry_multiplicity
 _atom_site_fract_x
 _atom_site_fract_y
 _atom_site_fract_z
 _atom_site_occupancy
  Li  Li0  1  0.99998700  0.50012200  0.49992600  1
  Li  Li1  1  0.49996100  0.00013800  0.49992800  1
  Li  Li2  1  0.50002100  0.50017300  0.49986600  1
  Ti  Ti0  1  0.00002500  0.50003800  0.99995900  1
  Ti  Ti1  1  0.49999900  0.00004700  0.99993800  1
  Ti  Ti2  1  0.49997500  0.50002200  0.99997200  1
  Cr  Cr0  1  0.00000100  0.99954600  0.00034200  1
  O  O0  1  0.00057400  0.00071500  0.25390900  1
  O  O1  1  0.00017100  0.50585600  0.25620500  1
  O  O2  1  0.50605100  0.00016800  0.25606900  1
  O  O3  1  0.99941300  0.99950000  0.74593500  1
  O  O4  1  0.49455300  0.49459500  0.26772000  1
  O  O5  1  0.99986500  0.49397500  0.74392100  1
  O  O6  1  0.49423400  0.99989400  0.74371400  1
  O  O7  1  0.50517000  0.50521200  0.73259700  1
loop_
_geom_bond_atom_site_label_1
_geom_bond_atom_site_label_2
_geom_bond_distance
_geom_bond_site_symmetry_2
Li0 O0 2.151158 1_665
Li0 O3 2.151423 1_545
Li0 O6 2.194747 1_654
Li0 O2 2.194749 1_556
Li0 O4 2.196230 1_655
Li0 O7 2.196245 1_555
Li1 O3 2.151054 1_445
Li1 O0 2.151227 1_655
Li1 O5 2.194208 1_554
Li1 O1 2.195097 1_546
Li1 O4 2.195871 1_555
Li1 O7 2.196690 1_545
Li2 O3 2.150724 1_554
Li2 O0 2.150866 1_556
Li2 O5 2.192610 1_455
Li2 O2 2.192811 1_565
Li2 O6 2.193650 1_545
Li2 O1 2.193702 1_655
Cr0 O1 2.004592 1_555
Cr0 O6 2.004904 1_554
Cr0 O7 2.005873 1_455
Cr0 O2 2.006015 1_465
Cr0 O5 2.006315 1_464
Cr0 O4 2.007114 1_564
O0 Ti0 2.065789 1_554
O0 Ti1 2.065935 1_554
O0 Ti2 2.070281 1_445
O1 Ti2 2.029767 1_554
O1 Ti1 2.032255 1_455
O2 Ti2 2.030364 1_554
O2 Ti0 2.032836 1_545
O3 Ti0 2.066072 1_655
O3 Ti1 2.066081 1_565
O3 Ti2 2.070314 1_664
O4 Ti1 2.027691 1_564
O4 Ti0 2.027976 1_654
O5 Ti2 2.031103 1_555
O5 Ti1 2.033385 1_664
O6 Ti2 2.030517 1_555
O6 Ti0 2.032610 1_664
O7 Ti0 2.027429 1_555
O7 Ti1 2.027782 1_555
