# generated using pymatgen
data_V3Cr2Fe(PO4)6
_symmetry_space_group_name_H-M   'P 1'
_cell_length_a   8.53919361
_cell_length_b   8.53919361
_cell_length_c   8.53919332
_cell_angle_alpha   60.66307959
_cell_angle_beta   60.66307959
_cell_angle_gamma   60.66308141
_symmetry_Int_Tables_number   1
_chemical_formula_structural   V3Cr2Fe(PO4)6
_chemical_formula_sum   'V3 Cr2 Fe1 P6 O24'
_cell_volume   446.87757040
_cell_formula_units_Z   1
loop_
 _symmetry_equiv_pos_site_id
 _symmetry_equiv_pos_as_xyz
  1  'x, y, z'
loop_
 _atom_site_type_symbol
 _atom_site_label
 _atom_site_symmetry_multiplicity
 _atom_site_fract_x
 _atom_site_fract_y
 _atom_site_fract_z
 _atom_site_occupancy
  V  V0  1  0.35603800  0.35603800  0.35603800  1
  V  V1  1  0.14341300  0.14341300  0.14341300  1
  V  V2  1  0.64324900  0.64324900  0.64324900  1
  Cr  Cr0  1  0.99901200  0.99901200  0.99901200  1
  Cr  Cr1  1  0.49980400  0.49980400  0.49980400  1
  Fe  Fe0  1  0.85376600  0.85376600  0.85376600  1
  P  P0  1  0.75006100  0.04439000  0.45438800  1
  P  P1  1  0.04439000  0.45438800  0.75006100  1
  P  P2  1  0.45438800  0.75006100  0.04439000  1
  P  P3  1  0.54561500  0.25024600  0.95609600  1
  P  P4  1  0.95609600  0.54561500  0.25024600  1
  P  P5  1  0.25024600  0.95609600  0.54561500  1
  O  O0  1  0.88672600  0.49435700  0.68573900  1
  O  O1  1  0.49435700  0.68573900  0.88672600  1
  O  O2  1  0.68573900  0.88672600  0.49435700  1
  O  O3  1  0.90912400  0.06152000  0.25362800  1
  O  O4  1  0.81551800  0.00802600  0.60925200  1
  O  O5  1  0.58833100  0.24333100  0.43709800  1
  O  O6  1  0.06152000  0.25362800  0.90912400  1
  O  O7  1  0.24333100  0.43709800  0.58833100  1
  O  O8  1  0.38971900  0.18552400  0.99348000  1
  O  O9  1  0.43709800  0.58833100  0.24333100  1
  O  O10  1  0.74438900  0.08972500  0.94412900  1
  O  O11  1  0.99348000  0.38971900  0.18552400  1
  O  O12  1  0.00802600  0.60925200  0.81551800  1
  O  O13  1  0.25362800  0.90912400  0.06152000  1
  O  O14  1  0.56375200  0.41049800  0.75609000  1
  O  O15  1  0.60925200  0.81551800  0.00802600  1
  O  O16  1  0.75609000  0.56375200  0.41049800  1
  O  O17  1  0.94412900  0.74438900  0.08972500  1
  O  O18  1  0.41049800  0.75609000  0.56375200  1
  O  O19  1  0.18552400  0.99348000  0.38971900  1
  O  O20  1  0.08972500  0.94412900  0.74438900  1
  O  O21  1  0.32117600  0.11114700  0.50165400  1
  O  O22  1  0.50165400  0.32117600  0.11114700  1
  O  O23  1  0.11114700  0.50165400  0.32117600  1
loop_
_geom_bond_atom_site_label_1
_geom_bond_atom_site_label_2
_geom_bond_distance
_geom_bond_site_symmetry_2
Cr0 O20 2.130622 1_655
Cr0 O17 2.130623 1_556
Cr0 O10 2.130623 1_565
Cr0 O3 2.168342 1_566
Cr0 O6 2.168342 1_665
Cr0 O13 2.168342 1_656
Cr1 O9 2.187413 1_555
Cr1 O7 2.187413 1_555
Cr1 O5 2.187413 1_555
Cr1 O14 2.190151 1_555
Cr1 O16 2.190151 1_555
Cr1 O18 2.190152 1_555
Fe0 O4 1.937261 1_565
Fe0 O15 1.937261 1_556
Fe0 O12 1.937261 1_655
Fe0 O17 2.121509 1_556
Fe0 O20 2.121509 1_655
Fe0 O10 2.121509 1_565
O0 P1 1.523617 1_655
O0 V2 1.941060 1_555
O1 P2 1.523617 1_556
O1 V2 1.941060 1_555
O2 P0 1.523617 1_565
O2 V2 1.941060 1_555
O3 P0 1.572415 1_555
O3 V1 2.063567 1_655
O4 P0 1.519695 1_555
O5 P0 1.571652 1_555
O5 V0 2.040096 1_555
O6 P1 1.572415 1_555
O6 V1 2.063567 1_556
O7 P1 1.571652 1_555
O7 V0 2.040095 1_555
O8 P3 1.520248 1_555
O8 V1 1.960483 1_556
O9 P2 1.571652 1_555
O9 V0 2.040096 1_555
O10 P3 1.567751 1_555
O11 P4 1.520248 1_555
O11 V1 1.960483 1_655
O12 P1 1.519695 1_555
O13 P2 1.572415 1_555
O13 V1 2.063567 1_565
O14 P3 1.572204 1_555
O14 V2 2.035680 1_555
O15 P2 1.519695 1_555
O16 P4 1.572204 1_555
O16 V2 2.035680 1_555
O17 P4 1.567751 1_555
O18 P5 1.572204 1_555
O18 V2 2.035680 1_555
O19 P5 1.520248 1_555
O19 V1 1.960483 1_565
O20 P5 1.567751 1_555
O21 P5 1.528646 1_545
O21 V0 1.925383 1_555
O22 P3 1.528646 1_554
O22 V0 1.925383 1_555
O23 P4 1.528646 1_455
O23 V0 1.925383 1_555
