# generated using pymatgen
data_Li2CrFe3O8
_symmetry_space_group_name_H-M   'P 1'
_cell_length_a   5.89027528
_cell_length_b   5.93014758
_cell_length_c   9.59957320
_cell_angle_alpha   90.05820627
_cell_angle_beta   89.97070700
_cell_angle_gamma   120.22416237
_symmetry_Int_Tables_number   1
_chemical_formula_structural   Li2CrFe3O8
_chemical_formula_sum   'Li4 Cr2 Fe6 O16'
_cell_volume   289.73302387
_cell_formula_units_Z   2
loop_
 _symmetry_equiv_pos_site_id
 _symmetry_equiv_pos_as_xyz
  1  'x, y, z'
loop_
 _atom_site_type_symbol
 _atom_site_label
 _atom_site_symmetry_multiplicity
 _atom_site_fract_x
 _atom_site_fract_y
 _atom_site_fract_z
 _atom_site_occupancy
  Li  Li0  1  0.33601700  0.66796000  0.89438500  1
  Li  Li1  1  0.00051000  0.00004800  0.99742700  1
  Li  Li2  1  0.99949000  0.99953800  0.49742700  1
  Li  Li3  1  0.66398300  0.33194300  0.39438500  1
  Cr  Cr0  1  0.32818200  0.66408000  0.48468000  1
  Cr  Cr1  1  0.67181800  0.33589800  0.98468000  1
  Fe  Fe0  1  0.16941400  0.83118300  0.21291900  1
  Fe  Fe1  1  0.16883200  0.33826800  0.21335800  1
  Fe  Fe2  1  0.66255500  0.83140900  0.21310900  1
  Fe  Fe3  1  0.33744500  0.16885300  0.71310900  1
  Fe  Fe4  1  0.83058600  0.66177000  0.71291900  1
  Fe  Fe5  1  0.83116800  0.16943500  0.71335800  1
  O  O0  1  0.16025700  0.83336300  0.60093800  1
  O  O1  1  0.03752300  0.51829800  0.34095800  1
  O  O2  1  0.33322900  0.66754100  0.10249300  1
  O  O3  1  0.00094600  0.99933500  0.31022400  1
  O  O4  1  0.99905400  0.99838900  0.81022400  1
  O  O5  1  0.15848700  0.32719300  0.60148300  1
  O  O6  1  0.47440800  0.95754700  0.34173300  1
  O  O7  1  0.47229500  0.51483500  0.34121400  1
  O  O8  1  0.33187400  0.16635300  0.09899700  1
  O  O9  1  0.66812600  0.83448000  0.59899700  1
  O  O10  1  0.52559200  0.48314000  0.84173300  1
  O  O11  1  0.52770500  0.04254000  0.84121400  1
  O  O12  1  0.66677100  0.33431200  0.60249300  1
  O  O13  1  0.83974300  0.67310700  0.10093800  1
  O  O14  1  0.96247700  0.48077300  0.84095800  1
  O  O15  1  0.84151300  0.16870700  0.10148400  1
loop_
_geom_bond_atom_site_label_1
_geom_bond_atom_site_label_2
_geom_bond_distance
_geom_bond_site_symmetry_2
Li0 O14 1.969122 1_455
Li0 O10 1.983444 1_555
Li0 O11 1.986526 1_565
Li0 O2 1.997801 1_556
Li1 O4 1.797087 1_445
Li1 O8 1.948067 1_556
Li1 O13 1.948750 1_446
Li1 O15 1.953280 1_456
Li2 O3 1.797087 1_655
Li2 O9 1.948068 1_555
Li2 O0 1.948754 1_655
Li2 O5 1.953271 1_665
Li3 O1 1.969122 1_655
Li3 O6 1.983449 1_545
Li3 O7 1.986525 1_555
Li3 O12 1.997801 1_555
Cr0 O1 2.022845 1_555
Cr0 O6 2.036684 1_555
Cr0 O7 2.037962 1_555
Cr0 O9 2.048842 1_555
Cr0 O0 2.056190 1_555
Cr0 O5 2.059243 1_555
Cr1 O14 2.022845 1_555
Cr1 O10 2.036687 1_555
Cr1 O11 2.037962 1_555
Cr1 O8 2.048843 1_556
Cr1 O13 2.056194 1_556
Cr1 O15 2.059244 1_556
Fe0 O3 1.960850 1_555
Fe0 O2 1.983947 1_555
Fe0 O6 1.990749 1_555
Fe0 O13 1.993124 1_455
Fe0 O1 2.027172 1_555
Fe0 O8 2.037335 1_565
Fe1 O3 1.970829 1_545
Fe1 O7 1.978183 1_555
Fe1 O15 1.982363 1_455
Fe1 O2 1.995663 1_555
Fe1 O1 2.016455 1_555
Fe1 O8 2.036955 1_555
Fe2 O3 1.958411 1_655
Fe2 O2 1.984186 1_555
Fe2 O13 2.028107 1_555
Fe2 O15 2.034883 1_565
Fe2 O6 2.035585 1_555
Fe2 O7 2.043953 1_555
Fe3 O4 1.958412 1_445
Fe3 O12 1.984186 1_555
Fe3 O0 2.028107 1_545
Fe3 O5 2.034888 1_555
Fe3 O10 2.035593 1_555
Fe3 O11 2.043948 1_555
Fe4 O4 1.960845 1_555
Fe4 O12 1.983952 1_555
Fe4 O10 1.990749 1_555
Fe4 O0 1.993124 1_655
Fe4 O14 2.027184 1_555
Fe4 O9 2.037335 1_555
Fe5 O4 1.970824 1_545
Fe5 O11 1.978184 1_555
Fe5 O5 1.982368 1_655
Fe5 O12 1.995667 1_555
Fe5 O14 2.016451 1_555
Fe5 O9 2.036947 1_545
