# generated using pymatgen
data_LuCrO3
_symmetry_space_group_name_H-M   'P 1'
_cell_length_a   5.13477912
_cell_length_b   5.48498586
_cell_length_c   7.45708665
_cell_angle_alpha   90.00000000
_cell_angle_beta   90.00000000
_cell_angle_gamma   90.00000000
_symmetry_Int_Tables_number   1
_chemical_formula_structural   LuCrO3
_chemical_formula_sum   'Lu4 Cr4 O12'
_cell_volume   210.02281173
_cell_formula_units_Z   4
loop_
 _symmetry_equiv_pos_site_id
 _symmetry_equiv_pos_as_xyz
  1  'x, y, z'
loop_
 _atom_site_type_symbol
 _atom_site_label
 _atom_site_symmetry_multiplicity
 _atom_site_fract_x
 _atom_site_fract_y
 _atom_site_fract_z
 _atom_site_occupancy
  Lu  Lu0  1  0.02247452  0.92647791  0.75000000  1
  Lu  Lu1  1  0.47752548  0.42647791  0.75000000  1
  Lu  Lu2  1  0.52247452  0.57352209  0.25000000  1
  Lu  Lu3  1  0.97752548  0.07352209  0.25000000  1
  Cr  Cr0  1  0.00000000  0.50000000  -0.00000000  1
  Cr  Cr1  1  0.00000000  0.50000000  0.50000000  1
  Cr  Cr2  1  0.50000000  -0.00000000  -0.00000000  1
  Cr  Cr3  1  0.50000000  -0.00000000  0.50000000  1
  O  O0  1  0.12348163  0.45328916  0.25000000  1
  O  O1  1  0.18748743  0.19349269  0.56242740  1
  O  O2  1  0.18748743  0.19349269  0.93757260  1
  O  O3  1  0.31251257  0.69349269  0.56242740  1
  O  O4  1  0.31251257  0.69349269  0.93757260  1
  O  O5  1  0.37651837  0.95328916  0.25000000  1
  O  O6  1  0.62348163  0.04671084  0.75000000  1
  O  O7  1  0.68748743  0.30650731  0.06242740  1
  O  O8  1  0.68748743  0.30650731  0.43757260  1
  O  O9  1  0.81251257  0.80650731  0.06242740  1
  O  O10  1  0.81251257  0.80650731  0.43757260  1
  O  O11  1  0.87651837  0.54671084  0.75000000  1
loop_
_geom_bond_atom_site_label_1
_geom_bond_atom_site_label_2
_geom_bond_distance
_geom_bond_site_symmetry_2
Lu0 O6 2.152265 1_465
Lu0 O1 2.195310 1_565
Lu0 O2 2.195310 1_565
Lu0 O11 2.213739 1_455
Lu0 O4 2.409881 1_555
Lu0 O3 2.409881 1_555
Lu0 O10 2.650149 1_455
Lu0 O9 2.650149 1_456
Lu1 O11 2.152265 1_555
Lu1 O3 2.195310 1_555
Lu1 O4 2.195310 1_555
Lu1 O6 2.213739 1_555
Lu1 O1 2.409881 1_555
Lu1 O2 2.409881 1_555
Lu1 O7 2.650149 1_556
Lu1 O8 2.650149 1_555
Lu2 O0 2.152265 1_555
Lu2 O7 2.195310 1_555
Lu2 O8 2.195310 1_555
Lu2 O5 2.213739 1_555
Lu2 O10 2.409881 1_555
Lu2 O9 2.409881 1_555
Lu2 O3 2.650149 1_555
Lu2 O4 2.650149 1_554
Lu3 O5 2.152265 1_645
Lu3 O9 2.195310 1_545
Lu3 O10 2.195310 1_545
Lu3 O0 2.213739 1_655
Lu3 O7 2.409881 1_555
Lu3 O8 2.409881 1_555
Lu3 O1 2.650149 1_655
Lu3 O2 2.650149 1_654
Cr0 O7 1.979417 1_455
Cr0 O4 1.979417 1_554
Cr0 O0 1.985742 1_555
Cr0 O11 1.985742 1_454
Cr0 O2 1.992464 1_554
Cr0 O9 1.992464 1_455
Cr1 O3 1.979417 1_555
Cr1 O8 1.979417 1_455
Cr1 O0 1.985742 1_555
Cr1 O11 1.985742 1_455
Cr1 O1 1.992464 1_555
Cr1 O10 1.992464 1_455
Cr2 O2 1.979417 1_554
Cr2 O9 1.979417 1_545
Cr2 O6 1.985742 1_554
Cr2 O5 1.985742 1_545
Cr2 O7 1.992464 1_555
Cr2 O4 1.992464 1_544
Cr3 O1 1.979417 1_555
Cr3 O10 1.979417 1_545
Cr3 O6 1.985742 1_555
Cr3 O5 1.985742 1_545
Cr3 O3 1.992464 1_545
Cr3 O8 1.992464 1_555
