# generated using pymatgen
data_Li8Fe2O9
_symmetry_space_group_name_H-M   'P 1'
_cell_length_a   5.74139300
_cell_length_b   8.63304643
_cell_length_c   14.82838196
_cell_angle_alpha   87.12611120
_cell_angle_beta   100.86184375
_cell_angle_gamma   109.09543260
_symmetry_Int_Tables_number   1
_chemical_formula_structural   Li8Fe2O9
_chemical_formula_sum   'Li32 Fe8 O36'
_cell_volume   682.04158503
_cell_formula_units_Z   4
loop_
 _symmetry_equiv_pos_site_id
 _symmetry_equiv_pos_as_xyz
  1  'x, y, z'
loop_
 _atom_site_type_symbol
 _atom_site_label
 _atom_site_symmetry_multiplicity
 _atom_site_fract_x
 _atom_site_fract_y
 _atom_site_fract_z
 _atom_site_occupancy
  Li  Li0  1  0.89385700  0.12205400  0.96344300  1
  Li  Li1  1  0.16943700  0.62461500  0.95055500  1
  Li  Li2  1  0.66902100  0.62741600  0.95320800  1
  Li  Li3  1  0.43899800  0.12549100  0.95869300  1
  Li  Li4  1  0.25854000  0.40740900  0.84826300  1
  Li  Li5  1  0.97759900  0.85120100  0.84832000  1
  Li  Li6  1  0.59540400  0.62796700  0.76006000  1
  Li  Li7  1  0.05353400  0.62727000  0.75864100  1
  Li  Li8  1  0.78918400  0.12124300  0.74055700  1
  Li  Li9  1  0.32998000  0.12066200  0.74036700  1
  Li  Li10  1  0.12458200  0.34231400  0.65515000  1
  Li  Li11  1  0.40225600  0.89774800  0.64901600  1
  Li  Li12  1  0.48553700  0.62855600  0.54237000  1
  Li  Li13  1  0.71799600  0.12492100  0.54821800  1
  Li  Li14  1  0.93291100  0.62384000  0.53465900  1
  Li  Li15  1  0.79014900  0.87801800  0.45164300  1
  Li  Li16  1  0.20985100  0.12198200  0.54835700  1
  Li  Li17  1  0.06708900  0.37616000  0.46534100  1
  Li  Li18  1  0.28200400  0.87507900  0.45178200  1
  Li  Li19  1  0.51446300  0.37144400  0.45763000  1
  Li  Li20  1  0.59774400  0.10225200  0.35098400  1
  Li  Li21  1  0.87541800  0.65768600  0.34485000  1
  Li  Li22  1  0.67002000  0.87933800  0.25963300  1
  Li  Li23  1  0.21081600  0.87875700  0.25944300  1
  Li  Li24  1  0.94646600  0.37273000  0.24135900  1
  Li  Li25  1  0.40459600  0.37203300  0.23994000  1
  Li  Li26  1  0.02240100  0.14879900  0.15168000  1
  Li  Li27  1  0.74146000  0.59259100  0.15173700  1
  Li  Li28  1  0.56100200  0.87450900  0.04130700  1
  Li  Li29  1  0.33097900  0.37258400  0.04679200  1
  Li  Li30  1  0.83056300  0.37538500  0.04944500  1
  Li  Li31  1  0.10614300  0.87794600  0.03655700  1
  Fe  Fe0  1  0.49280500  0.87752600  0.84848200  1
  Fe  Fe1  1  0.74302000  0.37103100  0.85417400  1
  Fe  Fe2  1  0.89168900  0.87144700  0.64924300  1
  Fe  Fe3  1  0.64122400  0.37804000  0.64720100  1
  Fe  Fe4  1  0.35877600  0.62196000  0.35279900  1
  Fe  Fe5  1  0.10831100  0.12855300  0.35075700  1
  Fe  Fe6  1  0.25698000  0.62896900  0.14582600  1
  Fe  Fe7  1  0.50719500  0.12247400  0.15151800  1
  O  O0  1  0.77525000  0.88276100  0.94073500  1
  O  O1  1  0.29557700  0.88377700  0.93396700  1
  O  O2  1  0.01802000  0.35878600  0.93645200  1
  O  O3  1  0.54173400  0.36643800  0.93819700  1
  O  O4  1  0.37818600  0.65016200  0.84457800  1
  O  O5  1  0.85846200  0.59648100  0.85791800  1
  O  O6  1  0.61029900  0.12132200  0.84621000  1
  O  O7  1  0.69252700  0.87545700  0.75072800  1
  O  O8  1  0.19223100  0.87380900  0.74798500  1
  O  O9  1  0.91848100  0.37404900  0.74901000  1
  O  O10  1  0.46722500  0.37471800  0.75131700  1
  O  O11  1  0.00707300  0.09857800  0.65498900  1
  O  O12  1  0.77044800  0.62860200  0.65362300  1
  O  O13  1  0.52647300  0.15241200  0.64190900  1
  O  O14  1  0.60940400  0.86940500  0.56229400  1
  O  O15  1  0.36108200  0.38950400  0.56742400  1
  O  O16  1  0.07836000  0.86335000  0.55996900  1
  O  O17  1  0.83749100  0.38505500  0.55983900  1
  O  O18  1  0.16250900  0.61494500  0.44016100  1
  O  O19  1  0.92164000  0.13665000  0.44003100  1
  O  O20  1  0.63891800  0.61049600  0.43257600  1
  O  O21  1  0.39059600  0.13059500  0.43770600  1
  O  O22  1  0.47352700  0.84758800  0.35809100  1
  O  O23  1  0.22955200  0.37139800  0.34637700  1
  O  O24  1  0.99292700  0.90142200  0.34501100  1
  O  O25  1  0.53277500  0.62528200  0.24868300  1
  O  O26  1  0.08151900  0.62595100  0.25099000  1
  O  O27  1  0.80776900  0.12619100  0.25201500  1
  O  O28  1  0.30747300  0.12454300  0.24927200  1
  O  O29  1  0.38970100  0.87867800  0.15379000  1
  O  O30  1  0.14153800  0.40351900  0.14208200  1
  O  O31  1  0.62181400  0.34983800  0.15542200  1
  O  O32  1  0.45826600  0.63356200  0.06180300  1
  O  O33  1  0.98198000  0.64121400  0.06354800  1
  O  O34  1  0.70442300  0.11622300  0.06603300  1
  O  O35  1  0.22475000  0.11723900  0.05926500  1
loop_
_geom_bond_atom_site_label_1
_geom_bond_atom_site_label_2
_geom_bond_distance
_geom_bond_site_symmetry_2
Li0 O0 1.976779 1_545
Li0 O2 1.979250 1_655
Li0 O34 2.019823 1_556
Li0 O6 2.144804 1_555
Li0 O35 2.158293 1_656
Li1 O5 1.989743 1_455
Li1 O32 2.091680 1_556
Li1 O4 2.111091 1_555
Li1 O1 2.131327 1_555
Li1 O2 2.177243 1_555
Li1 O33 2.188791 1_456
Li2 O5 2.014443 1_555
Li2 O0 2.094649 1_555
Li2 O3 2.138100 1_555
Li2 O4 2.142567 1_555
Li2 O33 2.165939 1_556
Li2 O32 2.201122 1_556
Li3 O3 1.992117 1_555
Li3 O1 2.001399 1_545
Li3 O34 2.003744 1_556
Li3 O35 2.089401 1_556
Li3 O6 2.097150 1_555
Li4 O4 1.981808 1_555
Li4 O2 2.009851 1_555
Li4 O3 2.014685 1_555
Li4 O10 2.119627 1_555
Li4 O9 2.156983 1_455
Li5 O1 1.962400 1_655
Li5 O7 2.029300 1_555
Li5 O0 2.036268 1_555
Li5 O8 2.067531 1_655
Li5 O5 2.084451 1_555
Li6 O5 1.965618 1_555
Li6 O4 1.982984 1_555
Li6 O12 2.023455 1_555
Li6 O7 2.028554 1_555
Li6 O10 2.068355 1_555
Li7 O5 1.969649 1_455
Li7 O4 2.006561 1_555
Li7 O8 2.023332 1_555
Li7 O12 2.030595 1_455
Li7 O9 2.069068 1_455
Li8 O13 1.970216 1_555
Li8 O11 1.999117 1_655
Li8 O7 2.015467 1_545
Li8 O6 2.028854 1_555
Li8 O9 2.064546 1_555
Li9 O13 1.964092 1_555
Li9 O11 1.996142 1_555
Li9 O8 2.021530 1_545
Li9 O6 2.023968 1_555
Li9 O10 2.077127 1_555
Li10 O15 1.988087 1_555
Li10 O11 1.988424 1_555
Li10 O9 2.069638 1_455
Li10 O17 2.078019 1_455
Li10 O10 2.145801 1_555
Li11 O14 1.981507 1_555
Li11 O16 2.010583 1_555
Li11 O8 2.030747 1_555
Li11 O7 2.079090 1_555
Li11 O13 2.081456 1_565
Li12 O14 1.982748 1_555
Li12 O15 1.991476 1_555
Li12 O20 2.026335 1_555
Li12 O12 2.092824 1_555
Li12 O18 2.136912 1_555
Li13 O13 1.993777 1_555
Li13 O14 2.097911 1_545
Li13 O17 2.128366 1_555
Li13 O11 2.129203 1_655
Li13 O19 2.136357 1_555
Li13 O21 2.261071 1_555
Li14 O16 1.985836 1_655
Li14 O17 1.987481 1_555
Li14 O20 2.020159 1_555
Li14 O18 2.116665 1_655
Li14 O12 2.153157 1_555
Li15 O22 2.017836 1_555
Li15 O14 2.086515 1_555
Li15 O24 2.098624 1_555
Li15 O16 2.109341 1_655
Li15 O19 2.119544 1_565
Li15 O20 2.197426 1_555
Li16 O13 2.017836 1_555
Li16 O21 2.086515 1_555
Li16 O11 2.098624 1_555
Li16 O19 2.109341 1_455
Li16 O16 2.119544 1_545
Li16 O15 2.197426 1_555
Li17 O19 1.985836 1_455
Li17 O18 1.987481 1_555
Li17 O15 2.020159 1_555
Li17 O17 2.116665 1_455
Li17 O23 2.153157 1_555
Li18 O22 1.993777 1_555
Li18 O21 2.097911 1_565
Li18 O18 2.128366 1_555
Li18 O24 2.129203 1_455
Li18 O16 2.136357 1_555
Li18 O14 2.261071 1_555
Li19 O21 1.982748 1_555
Li19 O20 1.991476 1_555
Li19 O15 2.026335 1_555
Li19 O23 2.092824 1_555
Li19 O17 2.136912 1_555
Li20 O21 1.981507 1_555
Li20 O19 2.010583 1_555
Li20 O27 2.030747 1_555
Li20 O28 2.079090 1_555
Li20 O22 2.081456 1_545
Li21 O20 1.988087 1_555
Li21 O24 1.988424 1_555
Li21 O26 2.069638 1_655
Li21 O18 2.078019 1_655
Li21 O25 2.145801 1_555
Li22 O22 1.964092 1_555
Li22 O24 1.996142 1_555
Li22 O27 2.021530 1_565
Li22 O29 2.023968 1_555
Li22 O25 2.077127 1_555
Li23 O22 1.970216 1_555
Li23 O24 1.999117 1_455
Li23 O28 2.015467 1_565
Li23 O29 2.028854 1_555
Li23 O26 2.064546 1_555
Li24 O30 1.969649 1_655
Li24 O31 2.006561 1_555
Li24 O27 2.023332 1_555
Li24 O23 2.030595 1_655
Li24 O26 2.069068 1_655
Li25 O30 1.965618 1_555
Li25 O31 1.982984 1_555
Li25 O23 2.023455 1_555
Li25 O28 2.028554 1_555
Li25 O25 2.068355 1_555
Li26 O34 1.962400 1_455
Li26 O28 2.029300 1_555
Li26 O35 2.036268 1_555
Li26 O27 2.067531 1_455
Li26 O30 2.084451 1_555
Li27 O31 1.981808 1_555
Li27 O33 2.009851 1_555
Li27 O32 2.014685 1_555
Li27 O25 2.119627 1_555
Li27 O26 2.156983 1_655
Li28 O32 1.992117 1_555
Li28 O34 2.001399 1_565
Li28 O1 2.003744 1_554
Li28 O0 2.089401 1_554
Li28 O29 2.097150 1_555
Li29 O30 2.014443 1_555
Li29 O35 2.094649 1_555
Li29 O32 2.138100 1_555
Li29 O31 2.142567 1_555
Li29 O2 2.165939 1_554
Li29 O3 2.201122 1_554
Li30 O30 1.989743 1_655
Li30 O3 2.091680 1_554
Li30 O31 2.111091 1_555
Li30 O34 2.131327 1_555
Li30 O33 2.177243 1_555
Li30 O2 2.188791 1_654
Li31 O35 1.976779 1_565
Li31 O33 1.979250 1_455
Li31 O1 2.019823 1_554
Li31 O29 2.144804 1_555
Li31 O0 2.158293 1_454
Fe0 O4 1.855012 1_555
Fe0 O1 1.865421 1_555
Fe0 O0 1.904006 1_555
Fe0 O6 1.989591 1_565
Fe0 O7 2.014642 1_555
Fe0 O8 2.049190 1_555
Fe1 O2 1.833806 1_655
Fe1 O5 1.839422 1_555
Fe1 O3 1.843145 1_555
Fe1 O10 1.988082 1_555
Fe1 O9 2.004518 1_555
Fe1 O6 2.039284 1_555
Fe2 O11 1.853796 1_665
Fe2 O14 1.866919 1_555
Fe2 O16 1.870551 1_655
Fe2 O12 1.983077 1_555
Fe2 O8 2.037028 1_655
Fe2 O7 2.062271 1_555
Fe3 O15 1.836161 1_555
Fe3 O13 1.841346 1_555
Fe3 O17 1.857215 1_555
Fe3 O9 1.984740 1_555
Fe3 O10 1.985056 1_555
Fe3 O12 2.045133 1_555
Fe4 O20 1.836161 1_555
Fe4 O22 1.841346 1_555
Fe4 O18 1.857215 1_555
Fe4 O26 1.984740 1_555
Fe4 O25 1.985056 1_555
Fe4 O23 2.045133 1_555
Fe5 O24 1.853796 1_445
Fe5 O21 1.866919 1_555
Fe5 O19 1.870551 1_455
Fe5 O23 1.983077 1_555
Fe5 O27 2.037028 1_455
Fe5 O28 2.062271 1_555
Fe6 O33 1.833806 1_455
Fe6 O30 1.839422 1_555
Fe6 O32 1.843145 1_555
Fe6 O25 1.988082 1_555
Fe6 O26 2.004518 1_555
Fe6 O29 2.039284 1_555
Fe7 O31 1.855012 1_555
Fe7 O34 1.865421 1_555
Fe7 O35 1.904006 1_555
Fe7 O29 1.989591 1_545
Fe7 O28 2.014642 1_555
Fe7 O27 2.049190 1_555
