# generated using pymatgen
data_Pr5(CoB3)2
_symmetry_space_group_name_H-M   'P 1'
_cell_length_a   8.96971496
_cell_length_b   8.96971446
_cell_length_c   8.96971458
_cell_angle_alpha   35.43122106
_cell_angle_beta   35.43122532
_cell_angle_gamma   35.43123025
_symmetry_Int_Tables_number   1
_chemical_formula_structural   Pr5(CoB3)2
_chemical_formula_sum   'Pr5 Co2 B6'
_cell_volume   216.71831307
_cell_formula_units_Z   1
loop_
 _symmetry_equiv_pos_site_id
 _symmetry_equiv_pos_as_xyz
  1  'x, y, z'
loop_
 _atom_site_type_symbol
 _atom_site_label
 _atom_site_symmetry_multiplicity
 _atom_site_fract_x
 _atom_site_fract_y
 _atom_site_fract_z
 _atom_site_occupancy
  Pr  Pr0  1  0.58250067  0.58250067  0.58250067  1
  Pr  Pr1  1  0.41749933  0.41749933  0.41749933  1
  Pr  Pr2  1  0.74968978  0.74968978  0.74968978  1
  Pr  Pr3  1  0.25031022  0.25031022  0.25031022  1
  Pr  Pr4  1  0.00000000  0.00000000  -0.00000000  1
  Co  Co0  1  0.87569118  0.87569118  0.87569118  1
  Co  Co1  1  0.12430882  0.12430882  0.12430882  1
  B  B0  1  0.83357559  0.50000000  0.16642441  1
  B  B1  1  0.50000000  0.16642441  0.83357559  1
  B  B2  1  0.16642441  0.83357559  0.50000000  1
  B  B3  1  0.16642441  0.50000000  0.83357559  1
  B  B4  1  0.50000000  0.83357559  0.16642441  1
  B  B5  1  0.83357559  0.16642441  0.50000000  1
loop_
_geom_bond_atom_site_label_1
_geom_bond_atom_site_label_2
_geom_bond_distance
_geom_bond_site_symmetry_2
Co0 Pr4 3.131757 1_666
Co1 Pr4 3.131757 1_555
B0 B3 1.816967 1_654
B0 B5 1.820934 1_555
B0 B4 1.820935 1_555
B0 Co0 2.108877 1_554
B0 Co1 2.108878 1_655
B0 Pr0 2.763302 1_555
B0 Pr1 2.763302 1_555
B0 Pr2 2.783727 1_554
B0 Pr3 2.783727 1_655
B1 B4 1.816967 1_546
B1 B5 1.820935 1_555
B1 B3 1.820935 1_555
B1 Co1 2.108877 1_556
B1 Co0 2.108878 1_545
B1 Pr0 2.763301 1_555
B1 Pr1 2.763302 1_555
B1 Pr3 2.783727 1_556
B1 Pr2 2.783727 1_545
B2 B5 1.816967 1_465
B2 B3 1.820934 1_555
B2 B4 1.820935 1_555
B2 Co1 2.108877 1_565
B2 Co0 2.108877 1_455
B2 Pr1 2.763302 1_555
B2 Pr0 2.763302 1_555
B2 Pr3 2.783727 1_565
B2 Pr2 2.783727 1_455
B3 Co1 2.108877 1_556
B3 Co0 2.108878 1_455
B3 Pr1 2.763302 1_555
B3 Pr0 2.763302 1_555
B3 Pr3 2.783727 1_556
B3 Pr2 2.783727 1_455
B4 Co0 2.108877 1_554
B4 Co1 2.108878 1_565
B4 Pr1 2.763301 1_555
B4 Pr0 2.763302 1_555
B4 Pr2 2.783727 1_554
B4 Pr3 2.783727 1_565
B5 Co0 2.108877 1_545
B5 Co1 2.108877 1_655
B5 Pr0 2.763302 1_555
B5 Pr1 2.763302 1_555
B5 Pr2 2.783727 1_545
B5 Pr3 2.783727 1_655
