# generated using pymatgen
data_Sr25Cl52
_symmetry_space_group_name_H-M   'P 1'
_cell_length_a   8.65363700
_cell_length_b   13.23776250
_cell_length_c   20.64530692
_cell_angle_alpha   108.65260884
_cell_angle_beta   94.03264542
_cell_angle_gamma   96.25082365
_symmetry_Int_Tables_number   1
_chemical_formula_structural   Sr25Cl52
_chemical_formula_sum   'Sr25 Cl52'
_cell_volume   2213.54967102
_cell_formula_units_Z   1
loop_
 _symmetry_equiv_pos_site_id
 _symmetry_equiv_pos_as_xyz
  1  'x, y, z'
loop_
 _atom_site_type_symbol
 _atom_site_label
 _atom_site_symmetry_multiplicity
 _atom_site_fract_x
 _atom_site_fract_y
 _atom_site_fract_z
 _atom_site_occupancy
  Sr  Sr0  1  0.76002300  0.12045100  0.98006000  1
  Sr  Sr1  1  0.83924100  0.07919900  0.81980300  1
  Sr  Sr2  1  0.32791600  0.83934500  0.86062800  1
  Sr  Sr3  1  0.44068600  0.27919400  0.62023500  1
  Sr  Sr4  1  0.79978400  0.60074700  0.89982700  1
  Sr  Sr5  1  0.91185900  0.04010900  0.65976300  1
  Sr  Sr6  1  0.27564500  0.35722500  0.93912700  1
  Sr  Sr7  1  0.03717000  0.47453200  0.42202500  1
  Sr  Sr8  1  0.40079300  0.80200400  0.69981500  1
  Sr  Sr9  1  0.51880200  0.24268300  0.45730300  1
  Sr  Sr10  1  0.88188700  0.55667500  0.73978800  1
  Sr  Sr11  1  0.64201700  0.67750000  0.21967300  1
  Sr  Sr12  1  0.00000000  0.00000000  0.50000000  1
  Sr  Sr13  1  0.35798300  0.32250000  0.78032700  1
  Sr  Sr14  1  0.11811300  0.44332500  0.26021200  1
  Sr  Sr15  1  0.48119800  0.75731700  0.54269700  1
  Sr  Sr16  1  0.59920700  0.19799600  0.30018500  1
  Sr  Sr17  1  0.23997700  0.87954900  0.01994000  1
  Sr  Sr18  1  0.96283000  0.52546800  0.57797500  1
  Sr  Sr19  1  0.08814100  0.95989100  0.34023700  1
  Sr  Sr20  1  0.72435500  0.64277500  0.06087300  1
  Sr  Sr21  1  0.55931400  0.72080600  0.37976500  1
  Sr  Sr22  1  0.20021600  0.39925300  0.10017300  1
  Sr  Sr23  1  0.67208400  0.16065500  0.13937200  1
  Sr  Sr24  1  0.16075900  0.92080100  0.18019700  1
  Cl  Cl0  1  0.89087600  0.93167500  0.96956000  1
  Cl  Cl1  1  0.18950400  0.02991400  0.87013200  1
  Cl  Cl2  1  0.48584600  0.13668800  0.77032100  1
  Cl  Cl3  1  0.67341700  0.78427200  0.91575800  1
  Cl  Cl4  1  0.98134900  0.88808300  0.81183600  1
  Cl  Cl5  1  0.14934600  0.55038800  0.95004000  1
  Cl  Cl6  1  0.44437000  0.64001700  0.85299200  1
  Cl  Cl7  1  0.79559900  0.24032700  0.66685900  1
  Cl  Cl8  1  0.09022400  0.32984600  0.57001400  1
  Cl  Cl9  1  0.62018700  0.94025800  0.75986000  1
  Cl  Cl10  1  0.56670000  0.09609700  0.60403100  1
  Cl  Cl11  1  0.25857000  0.99190800  0.70815800  1
  Cl  Cl12  1  0.92953000  0.40969400  0.89003200  1
  Cl  Cl13  1  0.68988500  0.52973900  0.37009900  1
  Cl  Cl14  1  0.05039800  0.85007000  0.64988400  1
  Cl  Cl15  1  0.39017200  0.43032900  0.47000400  1
  Cl  Cl16  1  0.75419100  0.74324000  0.74968200  1
  Cl  Cl17  1  0.40979200  0.16968400  0.93000200  1
  Cl  Cl18  1  0.52958100  0.60967000  0.69051800  1
  Cl  Cl19  1  0.86984100  0.18885500  0.51032400  1
  Cl  Cl20  1  0.16957400  0.28996600  0.40992500  1
  Cl  Cl21  1  0.22956500  0.51126600  0.78927500  1
  Cl  Cl22  1  0.65035100  0.05059600  0.44976800  1
  Cl  Cl23  1  0.34964900  0.94940400  0.55023200  1
  Cl  Cl24  1  0.28943500  0.73041300  0.16984400  1
  Cl  Cl25  1  0.98968900  0.63069400  0.26985000  1
  Cl  Cl26  1  0.01031100  0.36930600  0.73015000  1
  Cl  Cl27  1  0.71056500  0.26958700  0.83015600  1
  Cl  Cl28  1  0.77043500  0.48873400  0.21072500  1
  Cl  Cl29  1  0.47041900  0.39033000  0.30948200  1
  Cl  Cl30  1  0.13015900  0.81114500  0.48967600  1
  Cl  Cl31  1  0.83042600  0.71003400  0.59007500  1
  Cl  Cl32  1  0.94960200  0.14993000  0.35011600  1
  Cl  Cl33  1  0.60982800  0.56967100  0.52999600  1
  Cl  Cl34  1  0.24580900  0.25676000  0.25031800  1
  Cl  Cl35  1  0.31011500  0.47026100  0.62990100  1
  Cl  Cl36  1  0.59020800  0.83031600  0.06999800  1
  Cl  Cl37  1  0.74143000  0.00809200  0.29184200  1
  Cl  Cl38  1  0.43330000  0.90390300  0.39596900  1
  Cl  Cl39  1  0.36908800  0.69013700  0.00996400  1
  Cl  Cl40  1  0.07047000  0.59030600  0.10996800  1
  Cl  Cl41  1  0.37981300  0.05974200  0.24014000  1
  Cl  Cl42  1  0.20440100  0.75967300  0.33314100  1
  Cl  Cl43  1  0.90977600  0.67015400  0.42998600  1
  Cl  Cl44  1  0.85065400  0.44961200  0.04996000  1
  Cl  Cl45  1  0.55563000  0.35998300  0.14700800  1
  Cl  Cl46  1  0.32658300  0.21572800  0.08424200  1
  Cl  Cl47  1  0.01865100  0.11191700  0.18816400  1
  Cl  Cl48  1  0.81049600  0.97008600  0.12986800  1
  Cl  Cl49  1  0.51415400  0.86331200  0.22967900  1
  Cl  Cl50  1  0.63091200  0.30986300  0.99003600  1
  Cl  Cl51  1  0.10912400  0.06832500  0.03044000  1
loop_
_geom_bond_atom_site_label_1
_geom_bond_atom_site_label_2
_geom_bond_distance
_geom_bond_site_symmetry_2
Cl0 Cl51 2.426271 1_666
Cl0 Cl3 2.470326 1_555
Cl0 Sr0 2.806830 1_565
Cl0 Sr17 3.339979 1_656
Cl1 Cl4 2.394049 1_445
Cl1 Cl17 2.454135 1_555
Cl1 Sr2 2.865593 1_545
Cl1 Sr1 3.333744 1_455
Cl2 Cl27 2.435091 1_555
Cl2 Sr13 2.759903 1_555
Cl3 Cl6 2.546787 1_555
Cl3 Sr4 2.706338 1_555
Cl3 Sr2 3.360492 1_555
Cl4 Sr1 2.894780 1_565
Cl4 Sr2 3.292040 1_655
Cl5 Sr6 2.838746 1_555
Cl5 Sr4 3.333126 1_455
Cl6 Sr2 2.887601 1_555
Cl6 Sr4 3.303946 1_555
Cl7 Sr5 2.900258 1_555
Cl7 Sr3 3.296842 1_555
Cl8 Sr18 2.885008 1_455
Cl8 Sr3 3.341791 1_555
Cl9 Sr8 2.439643 1_555
Cl9 Sr1 2.441845 1_565
Cl10 Cl23 2.462757 1_545
Cl10 Cl7 2.546050 1_555
Cl10 Sr3 2.698898 1_555
Cl10 Sr5 3.367320 1_555
Cl11 Cl14 2.394102 1_555
Cl11 Cl2 2.537563 1_565
Cl11 Sr8 2.879359 1_555
Cl11 Sr5 3.287905 1_465
Cl12 Cl27 2.448908 1_555
Cl12 Cl5 2.458281 1_655
Cl12 Sr4 2.832152 1_555
Cl12 Sr6 3.310148 1_655
Cl13 Cl29 2.450294 1_555
Cl13 Cl43 2.456300 1_555
Cl13 Sr21 2.836385 1_555
Cl13 Sr7 3.352807 1_655
Cl14 Cl31 2.453865 1_455
Cl14 Sr5 2.858415 1_465
Cl14 Sr8 3.325920 1_555
Cl15 Cl33 2.448181 1_555
Cl15 Cl20 2.460793 1_555
Cl15 Sr9 2.775722 1_555
Cl15 Sr7 3.315040 1_555
Cl16 Cl18 2.435673 1_555
Cl16 Cl4 2.537278 1_555
Cl16 Sr10 2.768684 1_555
Cl17 Cl50 2.462337 1_555
Cl17 Sr6 2.811704 1_555
Cl17 Sr0 3.331489 1_555
Cl18 Cl35 2.450294 1_555
Cl18 Sr8 2.845488 1_555
Cl18 Sr10 3.362679 1_555
Cl19 Cl22 2.442498 1_555
Cl19 Cl8 2.462170 1_655
Cl19 Sr12 2.805404 1_655
Cl19 Sr9 3.381802 1_555
Cl20 Cl32 2.453865 1_455
Cl20 Sr7 2.757551 1_555
Cl20 Sr9 3.296868 1_555
Cl21 Cl6 2.371215 1_555
Cl21 Cl26 2.460067 1_555
Cl21 Sr13 2.802067 1_555
Cl21 Sr10 3.288106 1_455
Cl22 Cl38 2.462757 1_545
Cl22 Sr9 2.861499 1_555
Cl22 Sr12 3.335182 1_655
Cl23 Cl30 2.442498 1_555
Cl23 Sr15 2.861499 1_555
Cl23 Sr12 3.335182 1_565
Cl24 Cl49 2.435091 1_555
Cl24 Cl40 2.448908 1_555
Cl24 Sr24 2.817374 1_555
Cl24 Sr11 3.367949 1_555
Cl25 Cl42 2.369704 1_655
Cl25 Cl28 2.460067 1_555
Cl25 Sr14 2.782524 1_655
Cl25 Sr11 3.299551 1_555
Cl26 Cl7 2.369704 1_455
Cl26 Sr10 2.782524 1_455
Cl26 Sr13 3.299551 1_555
Cl27 Sr1 2.817374 1_555
Cl27 Sr13 3.367949 1_555
Cl28 Cl45 2.371215 1_555
Cl28 Sr11 2.802067 1_555
Cl28 Sr14 3.288106 1_655
Cl29 Cl34 2.435673 1_555
Cl29 Sr16 2.845488 1_555
Cl29 Sr14 3.362679 1_555
Cl30 Cl43 2.462170 1_455
Cl30 Sr12 2.805404 1_565
Cl30 Sr15 3.381802 1_555
Cl31 Cl33 2.460793 1_555
Cl31 Sr18 2.757551 1_555
Cl31 Sr15 3.296868 1_555
Cl32 Cl37 2.394102 1_555
Cl32 Sr19 2.858415 1_645
Cl32 Sr16 3.325920 1_555
Cl33 Sr15 2.775722 1_555
Cl33 Sr18 3.315040 1_555
Cl34 Cl47 2.537278 1_555
Cl34 Sr14 2.768684 1_555
Cl35 Cl8 2.456300 1_555
Cl35 Sr3 2.836385 1_555
Cl35 Sr18 3.352807 1_455
Cl36 Cl48 2.454135 1_555
Cl36 Cl39 2.462337 1_555
Cl36 Sr20 2.811704 1_555
Cl36 Sr17 3.331489 1_555
Cl37 Cl49 2.537563 1_545
Cl37 Sr16 2.879359 1_555
Cl37 Sr19 3.287905 1_645
Cl38 Cl42 2.546050 1_555
Cl38 Sr21 2.698898 1_555
Cl38 Sr19 3.367320 1_555
Cl39 Cl5 2.451113 1_554
Cl39 Sr17 2.808884 1_555
Cl39 Sr20 3.366923 1_555
Cl40 Cl44 2.458281 1_455
Cl40 Sr22 2.832152 1_555
Cl40 Sr20 3.310148 1_455
Cl41 Sr16 2.439643 1_555
Cl41 Sr24 2.441845 1_545
Cl42 Sr19 2.900258 1_555
Cl42 Sr21 3.296842 1_555
Cl43 Sr7 2.885008 1_655
Cl43 Sr21 3.341791 1_555
Cl44 Cl50 2.451113 1_554
Cl44 Sr20 2.838746 1_555
Cl44 Sr22 3.333126 1_655
Cl45 Cl46 2.546787 1_555
Cl45 Sr23 2.887601 1_555
Cl45 Sr22 3.303946 1_555
Cl46 Cl51 2.470326 1_555
Cl46 Sr22 2.706338 1_555
Cl46 Sr23 3.360492 1_555
Cl47 Cl48 2.394049 1_445
Cl47 Sr24 2.894780 1_545
Cl47 Sr23 3.292040 1_455
Cl48 Sr23 2.865593 1_565
Cl48 Sr24 3.333744 1_655
Cl49 Sr11 2.759903 1_555
Cl50 Sr0 2.808884 1_555
Cl50 Sr6 3.366923 1_555
Cl51 Sr17 2.806830 1_545
Cl51 Sr0 3.339979 1_454
