# generated using pymatgen
data_Li2Co(CO3)2
_symmetry_space_group_name_H-M   'P 1'
_cell_length_a   6.49175356
_cell_length_b   7.92947728
_cell_length_c   9.78110651
_cell_angle_alpha   89.99322508
_cell_angle_beta   76.01613199
_cell_angle_gamma   89.99955868
_symmetry_Int_Tables_number   1
_chemical_formula_structural   Li2Co(CO3)2
_chemical_formula_sum   'Li8 Co4 C8 O24'
_cell_volume   488.57265499
_cell_formula_units_Z   4
loop_
 _symmetry_equiv_pos_site_id
 _symmetry_equiv_pos_as_xyz
  1  'x, y, z'
loop_
 _atom_site_type_symbol
 _atom_site_label
 _atom_site_symmetry_multiplicity
 _atom_site_fract_x
 _atom_site_fract_y
 _atom_site_fract_z
 _atom_site_occupancy
  Li  Li0  1  0.58566700  0.08046100  0.17861900  1
  Li  Li1  1  0.08587600  0.08050700  0.67872500  1
  Li  Li2  1  0.83656900  0.41763600  0.42885300  1
  Li  Li3  1  0.33663000  0.41755900  0.92886600  1
  Li  Li4  1  0.04418200  0.91112100  0.38893900  1
  Li  Li5  1  0.54383700  0.91148400  0.88863300  1
  Li  Li6  1  0.79470300  0.58727100  0.13903000  1
  Li  Li7  1  0.29496600  0.58738700  0.63907400  1
  Co  Co0  1  0.76361000  0.49514000  0.75259300  1
  Co  Co1  1  0.01350000  0.00316800  0.00271400  1
  Co  Co2  1  0.26345000  0.49511500  0.25260100  1
  Co  Co3  1  0.51355900  0.00318900  0.50265400  1
  C  C0  1  0.50783600  0.74214700  0.36239500  1
  C  C1  1  0.00790900  0.74214700  0.86243800  1
  C  C2  1  0.25761900  0.75634100  0.11260000  1
  C  C3  1  0.75757600  0.75638200  0.61264900  1
  C  C4  1  0.23878700  0.22960700  0.39291700  1
  C  C5  1  0.73890700  0.22962500  0.89287100  1
  C  C6  1  0.98900100  0.26863800  0.14271400  1
  C  C7  1  0.48919400  0.26859300  0.64271700  1
  O  O0  1  0.39956800  0.75054700  0.49292800  1
  O  O1  1  0.89970200  0.75041400  0.99298200  1
  O  O2  1  0.14937600  0.74772800  0.24312500  1
  O  O3  1  0.64933600  0.74772500  0.74313300  1
  O  O4  1  0.59107500  0.88189100  0.30516100  1
  O  O5  1  0.09098200  0.88193200  0.80525300  1
  O  O6  1  0.34023300  0.61669100  0.05506700  1
  O  O7  1  0.84026600  0.61672000  0.55505900  1
  O  O8  1  0.21414500  0.08778300  0.46335000  1
  O  O9  1  0.71414600  0.08775300  0.96325100  1
  O  O10  1  0.96432100  0.41031700  0.21329300  1
  O  O11  1  0.46450900  0.41027800  0.71325200  1
  O  O12  1  0.53755200  0.60067600  0.29434200  1
  O  O13  1  0.03768600  0.60071300  0.79429300  1
  O  O14  1  0.28770600  0.89810500  0.04487200  1
  O  O15  1  0.78770700  0.89814400  0.54491300  1
  O  O16  1  0.14269100  0.36622600  0.44685200  1
  O  O17  1  0.64283100  0.36623400  0.94684200  1
  O  O18  1  0.89265000  0.13201000  0.19655100  1
  O  O19  1  0.39290500  0.13197900  0.69656400  1
  O  O20  1  0.35728200  0.23838500  0.26584800  1
  O  O21  1  0.85746000  0.23844400  0.76583500  1
  O  O22  1  0.10775600  0.25990900  0.01576800  1
  O  O23  1  0.60786200  0.25987300  0.51571700  1
loop_
_geom_bond_atom_site_label_1
_geom_bond_atom_site_label_2
_geom_bond_distance
_geom_bond_site_symmetry_2
Li0 O20 1.970562 1_555
Li0 O4 2.008221 1_545
Li0 O9 2.070585 1_554
Li0 O18 2.082856 1_555
Li1 O21 1.970466 1_455
Li1 O5 2.007842 1_545
Li1 O8 2.070431 1_555
Li1 O19 2.082741 1_555
Li2 O23 1.970100 1_555
Li2 O7 2.007801 1_555
Li2 O10 2.071599 1_555
Li2 O16 2.077371 1_655
Li3 O22 1.970329 1_556
Li3 O6 2.007972 1_556
Li3 O11 2.072204 1_555
Li3 O17 2.077669 1_555
Li4 O2 1.925824 1_555
Li4 O15 1.970412 1_455
Li4 O8 2.024313 1_565
Li5 O3 1.926120 1_555
Li5 O14 1.970593 1_556
Li5 O9 2.024576 1_565
Li6 O1 1.925551 1_554
Li6 O12 1.969825 1_555
Li6 O10 2.023662 1_555
Li7 O0 1.925822 1_555
Li7 O13 1.969830 1_555
Li7 O11 2.023800 1_555
Co0 O13 2.093721 1_655
Co0 O7 2.108308 1_555
Co0 O17 2.132847 1_555
Co0 O21 2.137554 1_555
Co0 O3 2.145570 1_555
Co0 O11 2.175367 1_555
Co1 O14 2.094613 1_545
Co1 O5 2.106739 1_544
Co1 O18 2.129653 1_455
Co1 O22 2.138485 1_555
Co1 O1 2.146092 1_444
Co1 O9 2.176657 1_454
Co2 O12 2.093995 1_555
Co2 O6 2.108306 1_555
Co2 O16 2.132778 1_555
Co2 O20 2.137782 1_555
Co2 O2 2.145335 1_555
Co2 O10 2.175253 1_455
Co3 O15 2.094616 1_545
Co3 O4 2.107236 1_545
Co3 O19 2.129833 1_555
Co3 O23 2.138158 1_555
Co3 O0 2.145700 1_545
Co3 O8 2.176432 1_555
C0 O12 1.294918 1_555
C0 O4 1.298818 1_555
C0 O0 1.301870 1_555
C1 O13 1.295104 1_555
C1 O5 1.298601 1_555
C1 O1 1.301788 1_455
C2 O14 1.295346 1_555
C2 O6 1.298001 1_555
C2 O2 1.301827 1_555
C3 O15 1.295378 1_555
C3 O7 1.298420 1_555
C3 O3 1.301499 1_555
C4 O20 1.295851 1_555
C4 O16 1.296965 1_555
C4 O8 1.308225 1_555
C5 O21 1.295741 1_555
C5 O17 1.296951 1_555
C5 O9 1.308291 1_555
C6 O22 1.295476 1_655
C6 O18 1.297285 1_555
C6 O10 1.308084 1_555
C7 O23 1.295698 1_555
C7 O19 1.297066 1_555
C7 O11 1.307910 1_555
