# generated using pymatgen
data_Li2VF4
_symmetry_space_group_name_H-M   'P 1'
_cell_length_a   5.26778248
_cell_length_b   5.26778248
_cell_length_c   3.13625100
_cell_angle_alpha   90.00000000
_cell_angle_beta   90.00000000
_cell_angle_gamma   111.72446353
_symmetry_Int_Tables_number   1
_chemical_formula_structural   Li2VF4
_chemical_formula_sum   'Li2 V1 F4'
_cell_volume   80.84819467
_cell_formula_units_Z   1
loop_
 _symmetry_equiv_pos_site_id
 _symmetry_equiv_pos_as_xyz
  1  'x, y, z'
loop_
 _atom_site_type_symbol
 _atom_site_label
 _atom_site_symmetry_multiplicity
 _atom_site_fract_x
 _atom_site_fract_y
 _atom_site_fract_z
 _atom_site_occupancy
  Li  Li0  1  0.50000000  0.00000000  0.50000000  1
  Li  Li1  1  0.00000000  0.50000000  0.50000000  1
  V  V0  1  0.00000000  0.00000000  0.00000000  1
  F  F0  1  0.76035100  0.23964900  0.00000000  1
  F  F1  1  0.23375700  0.23375700  0.50000000  1
  F  F2  1  0.76624300  0.76624300  0.50000000  1
  F  F3  1  0.23964900  0.76035100  0.00000000  1
loop_
_geom_bond_atom_site_label_1
_geom_bond_atom_site_label_2
_geom_bond_distance
_geom_bond_site_symmetry_2
F0 V0 2.089784 1_655
F0 Li1 2.156836 1_655
F0 Li1 2.156836 1_654
F0 Li0 2.156836 1_555
F0 Li0 2.156836 1_554
F1 V0 2.090244 1_556
F1 V0 2.090244 1_555
F1 Li0 2.182161 1_555
F1 Li1 2.182161 1_555
F2 V0 2.090244 1_665
F2 V0 2.090244 1_666
F2 Li0 2.182161 1_565
F2 Li1 2.182161 1_655
F3 V0 2.089784 1_565
F3 Li1 2.156836 1_555
F3 Li1 2.156836 1_554
F3 Li0 2.156836 1_564
F3 Li0 2.156836 1_565
