# generated using pymatgen
data_LiVCr(P2O7)2
_symmetry_space_group_name_H-M   'P 1'
_cell_length_a   7.21401101
_cell_length_b   9.41663497
_cell_length_c   9.47105935
_cell_angle_alpha   117.74511043
_cell_angle_beta   101.57094928
_cell_angle_gamma   101.20047985
_symmetry_Int_Tables_number   1
_chemical_formula_structural   LiVCr(P2O7)2
_chemical_formula_sum   'Li2 V2 Cr2 P8 O28'
_cell_volume   526.25386221
_cell_formula_units_Z   2
loop_
 _symmetry_equiv_pos_site_id
 _symmetry_equiv_pos_as_xyz
  1  'x, y, z'
loop_
 _atom_site_type_symbol
 _atom_site_label
 _atom_site_symmetry_multiplicity
 _atom_site_fract_x
 _atom_site_fract_y
 _atom_site_fract_z
 _atom_site_occupancy
  Li  Li0  1  0.67600400  0.18727900  0.32032800  1
  Li  Li1  1  0.67598600  0.68731600  0.82034400  1
  V  V0  1  0.72440500  0.00681800  0.51159800  1
  V  V1  1  0.72439300  0.50680800  0.01161200  1
  Cr  Cr0  1  0.27198800  0.74630500  0.74117300  1
  Cr  Cr1  1  0.27210900  0.24626500  0.24105700  1
  P  P0  1  0.51689900  0.65135700  0.46858200  1
  P  P1  1  0.51695200  0.15134800  0.96857800  1
  P  P2  1  0.09265200  0.82181800  0.04189500  1
  P  P3  1  0.09267400  0.32184200  0.54185700  1
  P  P4  1  0.91117800  0.70760200  0.42789900  1
  P  P5  1  0.91128400  0.20764300  0.92791200  1
  P  P6  1  0.48058900  0.77903800  0.09944900  1
  P  P7  1  0.48063800  0.27910400  0.59948100  1
  O  O0  1  0.85160000  0.07158000  0.73757700  1
  O  O1  1  0.85151700  0.57152000  0.23758500  1
  O  O2  1  0.89055100  0.21601200  0.52951400  1
  O  O3  1  0.89052100  0.71601200  0.02958800  1
  O  O4  1  0.48901300  0.68418000  0.63615600  1
  O  O5  1  0.48905100  0.18412600  0.13613700  1
  O  O6  1  0.51975900  0.80588400  0.44949600  1
  O  O7  1  0.51979300  0.30586700  0.94948600  1
  O  O8  1  0.60599400  0.94723400  0.26909800  1
  O  O9  1  0.60605900  0.44728800  0.76910700  1
  O  O10  1  0.90425000  0.87753500  0.44530000  1
  O  O11  1  0.90433400  0.37758900  0.94537200  1
  O  O12  1  0.74440400  0.64421400  0.49589800  1
  O  O13  1  0.74444900  0.14418700  0.99584500  1
  O  O14  1  0.25170500  0.73810500  0.09242800  1
  O  O15  1  0.25176300  0.23819200  0.59242700  1
  O  O16  1  0.07768900  0.79563500  0.86740900  1
  O  O17  1  0.07777000  0.29563900  0.36738900  1
  O  O18  1  0.37647600  0.48881500  0.31059100  1
  O  O19  1  0.37650600  0.98881900  0.81056300  1
  O  O20  1  0.49202100  0.79877400  0.94914100  1
  O  O21  1  0.49213400  0.29879600  0.44917200  1
  O  O22  1  0.53860200  0.62781800  0.08773300  1
  O  O23  1  0.53866400  0.12790700  0.58778300  1
  O  O24  1  0.10438100  0.20968700  0.02510000  1
  O  O25  1  0.10429000  0.70970100  0.52508700  1
  O  O26  1  0.15625300  0.50597300  0.68270200  1
  O  O27  1  0.15629100  0.00594000  0.18276000  1
loop_
_geom_bond_atom_site_label_1
_geom_bond_atom_site_label_2
_geom_bond_distance
_geom_bond_site_symmetry_2
Li0 O5 1.963525 1_555
Li0 O8 2.009229 1_545
Li0 O21 2.085337 1_555
Li0 O2 2.121792 1_555
Li1 O4 1.963662 1_555
Li1 O9 2.009062 1_555
Li1 O20 2.085511 1_555
Li1 O3 2.122304 1_556
Cr0 O19 1.987576 1_555
Cr0 O25 1.989662 1_555
Cr0 O16 2.004503 1_555
Cr0 O26 2.009736 1_555
Cr0 O20 2.044092 1_555
Cr0 O4 2.054610 1_555
Cr1 O18 1.987409 1_555
Cr1 O24 1.988837 1_555
Cr1 O17 2.005361 1_555
Cr1 O27 2.010308 1_555
Cr1 O21 2.044820 1_555
Cr1 O5 2.053627 1_555
O0 P5 1.549341 1_555
O0 V0 1.890530 1_555
O1 P4 1.549258 1_555
O1 V1 1.890521 1_555
O2 P3 1.546463 1_655
O2 V0 2.008942 1_555
O3 P2 1.546554 1_655
O3 V1 2.008690 1_555
O4 P0 1.533101 1_555
O5 P1 1.533113 1_554
O6 P0 1.544418 1_555
O6 V0 1.906797 1_565
O7 P1 1.544395 1_555
O7 V1 1.906600 1_556
O8 P6 1.549009 1_555
O8 V0 2.036272 1_565
O9 P7 1.548885 1_555
O9 V1 2.036437 1_556
O10 P4 1.542439 1_555
O10 V0 1.946353 1_565
O11 P5 1.542395 1_555
O11 V1 1.946488 1_556
O12 P4 1.615023 1_555
O12 P0 1.629056 1_555
O13 P5 1.615167 1_555
O13 P1 1.629063 1_555
O14 P6 1.601312 1_555
O14 P2 1.627691 1_555
O15 P7 1.601158 1_555
O15 P3 1.627566 1_555
O16 P2 1.530409 1_556
O17 P3 1.530249 1_555
O18 P0 1.505018 1_555
O19 P1 1.505100 1_565
O20 P6 1.534726 1_556
O21 P7 1.534611 1_555
O22 P6 1.522569 1_555
O22 V1 1.957217 1_555
O23 P7 1.522459 1_555
O23 V0 1.957450 1_555
O24 P5 1.498936 1_454
O25 P4 1.498788 1_455
O26 P3 1.512704 1_555
O27 P2 1.512659 1_545
