# generated using pymatgen
data_Li8SbS6
_symmetry_space_group_name_H-M   'P 1'
_cell_length_a   7.45958283
_cell_length_b   7.45958283
_cell_length_c   7.45958276
_cell_angle_alpha   54.82444073
_cell_angle_beta   54.82444073
_cell_angle_gamma   54.82444298
_symmetry_Int_Tables_number   1
_chemical_formula_structural   Li8SbS6
_chemical_formula_sum   'Li8 Sb1 S6'
_cell_volume   258.14384421
_cell_formula_units_Z   1
loop_
 _symmetry_equiv_pos_site_id
 _symmetry_equiv_pos_as_xyz
  1  'x, y, z'
loop_
 _atom_site_type_symbol
 _atom_site_label
 _atom_site_symmetry_multiplicity
 _atom_site_fract_x
 _atom_site_fract_y
 _atom_site_fract_z
 _atom_site_occupancy
  Li  Li0  1  0.78138500  0.10246800  0.47899800  1
  Li  Li1  1  0.89753200  0.52100200  0.21861500  1
  Li  Li2  1  0.52100200  0.21861500  0.89753200  1
  Li  Li3  1  0.34426700  0.34426700  0.34426700  1
  Li  Li4  1  0.65573300  0.65573300  0.65573300  1
  Li  Li5  1  0.47899800  0.78138500  0.10246800  1
  Li  Li6  1  0.10246800  0.47899800  0.78138500  1
  Li  Li7  1  0.21861500  0.89753200  0.52100200  1
  Sb  Sb0  1  0.00000000  0.00000000  0.00000000  1
  S  S0  1  0.90469200  0.24393000  0.60925300  1
  S  S1  1  0.75607000  0.39074700  0.09530800  1
  S  S2  1  0.39074700  0.09530800  0.75607000  1
  S  S3  1  0.60925300  0.90469200  0.24393000  1
  S  S4  1  0.24393000  0.60925300  0.90469200  1
  S  S5  1  0.09530800  0.75607000  0.39074700  1
loop_
_geom_bond_atom_site_label_1
_geom_bond_atom_site_label_2
_geom_bond_distance
_geom_bond_site_symmetry_2
Li0 S5 2.409575 1_645
Li0 S2 2.424656 1_555
Li0 S1 2.432162 1_555
Li0 S0 2.496625 1_555
Li1 S4 2.409574 1_654
Li1 S0 2.424656 1_555
Li1 S3 2.432162 1_555
Li1 S1 2.496625 1_555
Li2 S3 2.409574 1_546
Li2 S4 2.424656 1_555
Li2 S0 2.432162 1_555
Li2 S2 2.496625 1_555
Li3 S2 2.630186 1_555
Li3 S1 2.630186 1_555
Li3 S5 2.630186 1_555
Li3 S0 2.979062 1_455
Li3 S4 2.979062 1_554
Li3 S3 2.979062 1_545
Li4 S3 2.630186 1_555
Li4 S4 2.630186 1_555
Li4 S0 2.630186 1_555
Li4 S5 2.979062 1_655
Li4 S1 2.979062 1_556
Li4 S2 2.979062 1_565
Li5 S2 2.409574 1_564
Li5 S1 2.424656 1_555
Li5 S5 2.432162 1_555
Li5 S3 2.496625 1_555
Li6 S1 2.409574 1_456
Li6 S5 2.424656 1_555
Li6 S2 2.432162 1_555
Li6 S4 2.496625 1_555
Li7 S0 2.409575 1_465
Li7 S3 2.424656 1_555
Li7 S4 2.432162 1_555
Li7 S5 2.496625 1_555
S0 Sb0 2.664356 1_656
S1 Sb0 2.664356 1_655
S2 Sb0 2.664356 1_556
S3 Sb0 2.664356 1_665
S4 Sb0 2.664356 1_566
S5 Sb0 2.664356 1_565
