# generated using pymatgen
data_TiFe3Sn2(PO4)6
_symmetry_space_group_name_H-M   'P 1'
_cell_length_a   8.92523093
_cell_length_b   8.92523093
_cell_length_c   8.92523110
_cell_angle_alpha   58.14928715
_cell_angle_beta   58.14928715
_cell_angle_gamma   58.14928930
_symmetry_Int_Tables_number   1
_chemical_formula_structural   TiFe3Sn2(PO4)6
_chemical_formula_sum   'Ti1 Fe3 Sn2 P6 O24'
_cell_volume   481.41428687
_cell_formula_units_Z   1
loop_
 _symmetry_equiv_pos_site_id
 _symmetry_equiv_pos_as_xyz
  1  'x, y, z'
loop_
 _atom_site_type_symbol
 _atom_site_label
 _atom_site_symmetry_multiplicity
 _atom_site_fract_x
 _atom_site_fract_y
 _atom_site_fract_z
 _atom_site_occupancy
  Ti  Ti0  1  0.14640700  0.14640700  0.14640700  1
  Fe  Fe0  1  0.85098400  0.85098400  0.85098400  1
  Fe  Fe1  1  0.64929200  0.64929200  0.64929200  1
  Fe  Fe2  1  0.35138600  0.35138600  0.35138600  1
  Sn  Sn0  1  0.99541300  0.99541300  0.99541300  1
  Sn  Sn1  1  0.49929100  0.49929100  0.49929100  1
  P  P0  1  0.53846800  0.96014300  0.24953300  1
  P  P1  1  0.24953300  0.53846800  0.96014300  1
  P  P2  1  0.04098800  0.75156600  0.46156400  1
  P  P3  1  0.75156600  0.46156400  0.04098800  1
  P  P4  1  0.46156400  0.04098800  0.75156600  1
  P  P5  1  0.96014300  0.24953300  0.53846800  1
  O  O0  1  0.49029100  0.88386800  0.70294900  1
  O  O1  1  0.88386800  0.70295000  0.49029100  1
  O  O2  1  0.72405000  0.93805700  0.08090400  1
  O  O3  1  0.70295000  0.49029100  0.88386800  1
  O  O4  1  0.37415100  0.00231700  0.20100900  1
  O  O5  1  0.55359000  0.76899200  0.41952900  1
  O  O6  1  0.08090400  0.72405000  0.93805700  1
  O  O7  1  0.41952900  0.55359000  0.76899200  1
  O  O8  1  0.00705600  0.79726100  0.62090300  1
  O  O9  1  0.76899200  0.41952900  0.55359000  1
  O  O10  1  0.06601100  0.92181300  0.27482200  1
  O  O11  1  0.79726100  0.62090300  0.00705600  1
  O  O12  1  0.20100900  0.37415100  0.00231700  1
  O  O13  1  0.93805700  0.08090400  0.72405000  1
  O  O14  1  0.23264800  0.58159000  0.43988600  1
  O  O15  1  0.00231700  0.20100900  0.37415100  1
  O  O16  1  0.58159000  0.43988600  0.23264800  1
  O  O17  1  0.92181300  0.27482200  0.06601100  1
  O  O18  1  0.43988600  0.23264800  0.58159000  1
  O  O19  1  0.62090300  0.00705600  0.79726100  1
  O  O20  1  0.30172900  0.50557500  0.11596100  1
  O  O21  1  0.27482200  0.06601100  0.92181300  1
  O  O22  1  0.11596100  0.30172900  0.50557500  1
  O  O23  1  0.50557500  0.11596100  0.30172900  1
loop_
_geom_bond_atom_site_label_1
_geom_bond_atom_site_label_2
_geom_bond_distance
_geom_bond_site_symmetry_2
Fe0 O11 1.924191 1_556
Fe0 O8 1.924191 1_655
Fe0 O19 1.924191 1_565
Fe0 O13 2.097323 1_565
Fe0 O6 2.097324 1_655
Fe0 O2 2.097324 1_556
Fe1 O0 1.957485 1_555
Fe1 O1 1.957489 1_555
Fe1 O3 1.957489 1_555
Fe1 O7 2.156293 1_555
Fe1 O9 2.156293 1_555
Fe1 O5 2.156293 1_555
Fe2 O22 1.947479 1_555
Fe2 O20 1.947479 1_555
Fe2 O23 1.947479 1_555
Fe2 O16 2.121269 1_555
Fe2 O14 2.121270 1_555
Fe2 O18 2.121270 1_555
O0 P4 1.538142 1_565
O1 P2 1.538136 1_655
O2 P0 1.544357 1_555
O2 Sn0 2.378256 1_554
O3 P3 1.538136 1_556
O4 P0 1.547818 1_545
O4 Ti0 1.910027 1_555
O5 P0 1.572279 1_555
O5 Sn1 2.365271 1_555
O6 P1 1.544357 1_555
O6 Sn0 2.378256 1_455
O7 P1 1.572279 1_555
O7 Sn1 2.365271 1_555
O8 P2 1.519127 1_555
O9 P5 1.572279 1_555
O9 Sn1 2.365271 1_555
O10 P2 1.558548 1_555
O10 Ti0 2.017927 1_565
O10 Sn0 2.557374 1_454
O11 P3 1.519127 1_555
O12 P1 1.547818 1_554
O12 Ti0 1.910026 1_555
O13 P5 1.544357 1_555
O13 Sn0 2.378256 1_545
O14 P2 1.576922 1_555
O14 Sn1 2.357982 1_555
O15 P5 1.547818 1_455
O15 Ti0 1.910027 1_555
O16 P3 1.576922 1_555
O16 Sn1 2.357982 1_555
O17 P3 1.558548 1_555
O17 Ti0 2.017927 1_655
O17 Sn0 2.557374 1_544
O18 P4 1.576922 1_555
O18 Sn1 2.357982 1_555
O19 P4 1.519127 1_555
O20 P1 1.531608 1_554
O21 P4 1.558548 1_555
O21 Ti0 2.017927 1_556
O21 Sn0 2.557374 1_445
O22 P5 1.531608 1_455
O23 P0 1.531608 1_545
