# generated using pymatgen
data_Li3Fe3SbO8
_symmetry_space_group_name_H-M   'P 1'
_cell_length_a   6.10683529
_cell_length_b   6.10683529
_cell_length_c   6.10251553
_cell_angle_alpha   60.19535420
_cell_angle_beta   60.19535420
_cell_angle_gamma   59.76512075
_symmetry_Int_Tables_number   1
_chemical_formula_structural   Li3Fe3SbO8
_chemical_formula_sum   'Li3 Fe3 Sb1 O8'
_cell_volume   161.10946191
_cell_formula_units_Z   1
loop_
 _symmetry_equiv_pos_site_id
 _symmetry_equiv_pos_as_xyz
  1  'x, y, z'
loop_
 _atom_site_type_symbol
 _atom_site_label
 _atom_site_symmetry_multiplicity
 _atom_site_fract_x
 _atom_site_fract_y
 _atom_site_fract_z
 _atom_site_occupancy
  Li  Li0  1  0.50000000  0.00000000  0.00000000  1
  Li  Li1  1  0.00000000  0.00000000  0.50000000  1
  Li  Li2  1  0.00000000  0.50000000  0.00000000  1
  Fe  Fe0  1  0.00000000  0.50000000  0.50000000  1
  Fe  Fe1  1  0.50000000  0.50000000  0.00000000  1
  Fe  Fe2  1  0.50000000  0.00000000  0.50000000  1
  Sb  Sb0  1  0.00000000  0.00000000  0.00000000  1
  O  O0  1  0.74881000  0.74881000  0.72004700  1
  O  O1  1  0.75936600  0.22457700  0.23990400  1
  O  O2  1  0.23382200  0.23382200  0.75809300  1
  O  O3  1  0.25119000  0.25119000  0.27995300  1
  O  O4  1  0.22457700  0.75936600  0.23990400  1
  O  O5  1  0.24063400  0.77542300  0.76009600  1
  O  O6  1  0.76617800  0.76617800  0.24190700  1
  O  O7  1  0.77542300  0.24063400  0.76009600  1
loop_
_geom_bond_atom_site_label_1
_geom_bond_atom_site_label_2
_geom_bond_distance
_geom_bond_site_symmetry_2
Li0 O6 2.193837 1_545
Li0 O2 2.193837 1_554
Li0 O7 2.243761 1_554
Li0 O4 2.243761 1_545
Li0 O3 2.292999 1_555
Li0 O0 2.292999 1_544
Li1 O7 2.164427 1_455
Li1 O4 2.164427 1_545
Li1 O5 2.164427 1_545
Li1 O1 2.164427 1_455
Li1 O3 2.187176 1_555
Li1 O0 2.187176 1_445
Li2 O2 2.193837 1_554
Li2 O6 2.193837 1_455
Li2 O5 2.243761 1_554
Li2 O1 2.243761 1_455
Li2 O3 2.292999 1_555
Li2 O0 2.292999 1_454
Fe0 O0 2.024422 1_455
Fe0 O3 2.024422 1_555
Fe0 O4 2.105588 1_555
Fe0 O7 2.105588 1_455
Fe0 O2 2.124845 1_555
Fe0 O6 2.124845 1_455
Fe1 O7 2.157645 1_554
Fe1 O5 2.157645 1_554
Fe1 O4 2.157645 1_555
Fe1 O1 2.157645 1_555
Fe1 O3 2.167990 1_555
Fe1 O0 2.167990 1_554
Fe2 O0 2.024422 1_545
Fe2 O3 2.024422 1_555
Fe2 O1 2.105588 1_555
Fe2 O5 2.105588 1_545
Fe2 O6 2.124845 1_545
Fe2 O2 2.124845 1_555
O1 Sb0 2.002831 1_655
O2 Sb0 2.029676 1_556
O4 Sb0 2.002831 1_565
O5 Sb0 2.002831 1_566
O6 Sb0 2.029676 1_665
O7 Sb0 2.002831 1_656
