# generated using pymatgen
data_NaCo3O4
_symmetry_space_group_name_H-M   'P 1'
_cell_length_a   5.36149700
_cell_length_b   5.71879800
_cell_length_c   6.76434300
_cell_angle_alpha   90.00000000
_cell_angle_beta   90.00000000
_cell_angle_gamma   90.00000000
_symmetry_Int_Tables_number   1
_chemical_formula_structural   NaCo3O4
_chemical_formula_sum   'Na2 Co6 O8'
_cell_volume   207.40367395
_cell_formula_units_Z   2
loop_
 _symmetry_equiv_pos_site_id
 _symmetry_equiv_pos_as_xyz
  1  'x, y, z'
loop_
 _atom_site_type_symbol
 _atom_site_label
 _atom_site_symmetry_multiplicity
 _atom_site_fract_x
 _atom_site_fract_y
 _atom_site_fract_z
 _atom_site_occupancy
  Na  Na0  1  0.98975300  0.83421100  0.00000000  1
  Na  Na1  1  0.48975300  0.16578900  0.50000000  1
  Co  Co0  1  0.49830800  0.18254100  0.00000000  1
  Co  Co1  1  0.99411300  0.33247900  0.25353600  1
  Co  Co2  1  0.49411300  0.66752100  0.24646400  1
  Co  Co3  1  0.99830800  0.81745900  0.50000000  1
  Co  Co4  1  0.49411300  0.66752100  0.75353600  1
  Co  Co5  1  0.99411300  0.33247900  0.74646400  1
  O  O0  1  0.85084300  0.21636600  0.00000000  1
  O  O1  1  0.43526300  0.85534400  0.00000000  1
  O  O2  1  0.86114100  0.65355100  0.28439100  1
  O  O3  1  0.36114100  0.34644900  0.21560900  1
  O  O4  1  0.93526300  0.14465600  0.50000000  1
  O  O5  1  0.35084300  0.78363400  0.50000000  1
  O  O6  1  0.36114100  0.34644900  0.78439100  1
  O  O7  1  0.86114100  0.65355100  0.71560900  1
loop_
_geom_bond_atom_site_label_1
_geom_bond_atom_site_label_2
_geom_bond_distance
_geom_bond_site_symmetry_2
Na0 O7 2.289889 1_554
Na0 O2 2.289889 1_555
Na0 O0 2.308883 1_565
Na0 O1 2.391656 1_655
Na1 O6 2.289889 1_555
Na1 O3 2.289889 1_555
Na1 O5 2.308883 1_545
Na1 O4 2.391656 1_555
Co0 O3 1.883233 1_555
Co0 O6 1.883233 1_554
Co0 O0 1.899988 1_555
Co0 O1 1.901459 1_545
Co1 O2 1.980722 1_555
Co1 O3 1.986080 1_655
Co1 O0 1.993041 1_555
Co1 O4 2.008168 1_555
Co2 O3 1.980722 1_555
Co2 O2 1.986080 1_555
Co2 O5 1.993041 1_555
Co2 O1 2.008168 1_555
Co3 O2 1.883233 1_555
Co3 O7 1.883233 1_555
Co3 O5 1.899988 1_655
Co3 O4 1.901459 1_565
Co4 O6 1.980722 1_555
Co4 O7 1.986080 1_555
Co4 O5 1.993041 1_555
Co4 O1 2.008168 1_556
Co5 O7 1.980722 1_555
Co5 O6 1.986080 1_655
Co5 O0 1.993041 1_556
Co5 O4 2.008168 1_555
