# generated using pymatgen
data_Mn3NbCo2(PO4)6
_symmetry_space_group_name_H-M   'P 1'
_cell_length_a   8.55234504
_cell_length_b   8.55234504
_cell_length_c   8.55234479
_cell_angle_alpha   60.85271006
_cell_angle_beta   60.85271006
_cell_angle_gamma   60.85271068
_symmetry_Int_Tables_number   1
_chemical_formula_structural   Mn3NbCo2(PO4)6
_chemical_formula_sum   'Mn3 Nb1 Co2 P6 O24'
_cell_volume   450.82836345
_cell_formula_units_Z   1
loop_
 _symmetry_equiv_pos_site_id
 _symmetry_equiv_pos_as_xyz
  1  'x, y, z'
loop_
 _atom_site_type_symbol
 _atom_site_label
 _atom_site_symmetry_multiplicity
 _atom_site_fract_x
 _atom_site_fract_y
 _atom_site_fract_z
 _atom_site_occupancy
  Mn  Mn0  1  0.35759800  0.35759800  0.35759800  1
  Mn  Mn1  1  0.14413600  0.14413600  0.14413600  1
  Mn  Mn2  1  0.64300700  0.64300700  0.64300700  1
  Nb  Nb0  1  0.85876000  0.85876000  0.85876000  1
  Co  Co0  1  0.00479600  0.00479600  0.00479600  1
  Co  Co1  1  0.50077100  0.50077100  0.50077100  1
  P  P0  1  0.04641000  0.74843000  0.44917600  1
  P  P1  1  0.44917600  0.04641000  0.74843000  1
  P  P2  1  0.74843000  0.44917600  0.04641000  1
  P  P3  1  0.25803800  0.53610400  0.95681600  1
  P  P4  1  0.53610400  0.95681600  0.25803800  1
  P  P5  1  0.95681600  0.25803800  0.53610400  1
  O  O0  1  0.48897300  0.88588100  0.68883300  1
  O  O1  1  0.68883300  0.48897300  0.88588100  1
  O  O2  1  0.88588100  0.68883300  0.48897300  1
  O  O3  1  0.06058500  0.91488000  0.25809200  1
  O  O4  1  0.99515300  0.81620800  0.61433300  1
  O  O5  1  0.24146200  0.59103300  0.44407200  1
  O  O6  1  0.25809200  0.06058500  0.91488000  1
  O  O7  1  0.44407200  0.24146200  0.59103300  1
  O  O8  1  0.19051200  0.38167300  0.99349500  1
  O  O9  1  0.59103300  0.44407200  0.24146200  1
  O  O10  1  0.09261300  0.73586000  0.93761500  1
  O  O11  1  0.38167300  0.99349500  0.19051200  1
  O  O12  1  0.61433300  0.99515300  0.81620800  1
  O  O13  1  0.91488000  0.25809200  0.06058500  1
  O  O14  1  0.41326100  0.55744200  0.75801600  1
  O  O15  1  0.81620800  0.61433300  0.99515300  1
  O  O16  1  0.55744200  0.75801600  0.41326100  1
  O  O17  1  0.73586000  0.93761500  0.09261300  1
  O  O18  1  0.75801600  0.41326100  0.55744200  1
  O  O19  1  0.99349500  0.19051200  0.38167300  1
  O  O20  1  0.93761500  0.09261300  0.73586000  1
  O  O21  1  0.11477400  0.31409600  0.50710900  1
  O  O22  1  0.31409600  0.50710900  0.11477400  1
  O  O23  1  0.50710900  0.11477400  0.31409600  1
loop_
_geom_bond_atom_site_label_1
_geom_bond_atom_site_label_2
_geom_bond_distance
_geom_bond_site_symmetry_2
Mn0 O22 1.946455 1_555
Mn0 O21 1.946455 1_555
Mn0 O23 1.946455 1_555
Mn0 O7 2.076117 1_555
Mn0 O5 2.076117 1_555
Mn0 O9 2.076117 1_555
Mn1 O19 1.918784 1_455
Mn1 O8 1.918784 1_554
Mn1 O11 1.918784 1_545
Mn1 O6 2.032155 1_554
Mn1 O13 2.032155 1_455
Mn1 O3 2.032155 1_545
Mn2 O1 1.956557 1_555
Mn2 O2 1.956557 1_555
Mn2 O0 1.956557 1_555
Mn2 O16 2.044639 1_555
Mn2 O18 2.044639 1_555
Mn2 O14 2.044639 1_555
Nb0 O4 1.953256 1_555
Nb0 O15 1.953256 1_555
Nb0 O12 1.953256 1_555
Nb0 O17 2.033515 1_556
Nb0 O20 2.033516 1_565
Nb0 O10 2.033516 1_655
Co0 O3 2.130362 1_545
Co0 O13 2.130362 1_455
Co0 O6 2.130362 1_554
Co0 O20 2.317018 1_454
Co0 O10 2.317018 1_544
Co0 O17 2.317018 1_445
Co1 O14 2.171789 1_555
Co1 O18 2.171789 1_555
Co1 O16 2.171789 1_555
Co1 O9 2.182775 1_555
Co1 O5 2.182776 1_555
Co1 O7 2.182776 1_555
O0 P1 1.522485 1_565
O1 P2 1.522485 1_556
O2 P0 1.522485 1_655
O3 P0 1.555890 1_555
O4 P0 1.571672 1_655
O5 P0 1.547764 1_555
O6 P1 1.555890 1_555
O7 P1 1.547764 1_555
O8 P3 1.529455 1_555
O9 P2 1.547764 1_555
O10 P3 1.595539 1_555
O11 P4 1.529455 1_555
O12 P1 1.571672 1_565
O13 P2 1.555890 1_555
O14 P3 1.556096 1_555
O15 P2 1.571672 1_556
O16 P4 1.556096 1_555
O17 P4 1.595539 1_555
O18 P5 1.556096 1_555
O19 P5 1.529455 1_555
O20 P5 1.595539 1_555
O21 P5 1.518246 1_455
O22 P3 1.518246 1_554
O23 P4 1.518246 1_545
