# generated using pymatgen
data_Li4MnCo3(PO4)4
_symmetry_space_group_name_H-M   'P 1'
_cell_length_a   6.01533000
_cell_length_b   4.75988300
_cell_length_c   10.35183156
_cell_angle_alpha   89.95970633
_cell_angle_beta   90.00000000
_cell_angle_gamma   90.00000000
_symmetry_Int_Tables_number   1
_chemical_formula_structural   Li4MnCo3(PO4)4
_chemical_formula_sum   'Li4 Mn1 Co3 P4 O16'
_cell_volume   296.39633193
_cell_formula_units_Z   1
loop_
 _symmetry_equiv_pos_site_id
 _symmetry_equiv_pos_as_xyz
  1  'x, y, z'
loop_
 _atom_site_type_symbol
 _atom_site_label
 _atom_site_symmetry_multiplicity
 _atom_site_fract_x
 _atom_site_fract_y
 _atom_site_fract_z
 _atom_site_occupancy
  Li  Li0  1  0.25035600  0.00037400  0.99872500  1
  Li  Li1  1  0.74964400  0.00037400  0.99872500  1
  Li  Li2  1  0.74886900  0.49961000  0.50084200  1
  Li  Li3  1  0.25113100  0.49961000  0.50084200  1
  Mn  Mn0  1  0.00000000  0.97346100  0.28018400  1
  Co  Co0  1  0.50000000  0.02572200  0.72107000  1
  Co  Co1  1  0.50000000  0.47697700  0.21886000  1
  Co  Co2  1  0.00000000  0.52274500  0.77993100  1
  P  P0  1  0.00000000  0.08639600  0.59609800  1
  P  P1  1  0.00000000  0.41577300  0.09113500  1
  P  P2  1  0.50000000  0.58770000  0.90580300  1
  P  P3  1  0.50000000  0.91028700  0.40732100  1
  O  O0  1  0.00000000  0.21017400  0.45754700  1
  O  O1  1  0.20526400  0.22284600  0.66679700  1
  O  O2  1  0.79473600  0.22284600  0.66679700  1
  O  O3  1  0.50000000  0.23285600  0.40126700  1
  O  O4  1  0.50000000  0.26484800  0.90174800  1
  O  O5  1  0.20601000  0.28174800  0.16200600  1
  O  O6  1  0.79399000  0.28174800  0.16200600  1
  O  O7  1  0.00000000  0.29218100  0.95205300  1
  O  O8  1  0.50000000  0.70771300  0.04535200  1
  O  O9  1  0.70499200  0.72558300  0.83496900  1
  O  O10  1  0.29500800  0.72558300  0.83496900  1
  O  O11  1  0.00000000  0.73788600  0.09421400  1
  O  O12  1  0.00000000  0.76309500  0.59882000  1
  O  O13  1  0.70221700  0.76902500  0.33704700  1
  O  O14  1  0.29778300  0.76902500  0.33704700  1
  O  O15  1  0.50000000  0.79381200  0.54782300  1
loop_
_geom_bond_atom_site_label_1
_geom_bond_atom_site_label_2
_geom_bond_distance
_geom_bond_site_symmetry_2
Li0 O8 2.104197 1_546
Li0 O7 2.104678 1_555
Li0 O10 2.158628 1_545
Li0 O5 2.173720 1_556
Li0 O11 2.191884 1_546
Li0 O4 2.201326 1_555
Li1 O8 2.104197 1_546
Li1 O7 2.104678 1_655
Li1 O9 2.158628 1_545
Li1 O6 2.173720 1_556
Li1 O11 2.191884 1_646
Li1 O4 2.201326 1_555
Li2 O0 2.093266 1_655
Li2 O15 2.107038 1_555
Li2 O13 2.143639 1_555
Li2 O2 2.181674 1_555
Li2 O12 2.210300 1_655
Li2 O3 2.217574 1_555
Li3 O0 2.093266 1_555
Li3 O15 2.107038 1_555
Li3 O14 2.143639 1_555
Li3 O1 2.181674 1_555
Li3 O12 2.210300 1_555
Li3 O3 2.217574 1_555
Mn0 O14 2.121607 1_555
Mn0 O13 2.121607 1_455
Mn0 O0 2.154863 1_565
Mn0 O11 2.228564 1_555
Mn0 O6 2.276628 1_465
Mn0 O5 2.276628 1_565
Co0 O1 2.082927 1_555
Co0 O2 2.082927 1_555
Co0 O15 2.106578 1_545
Co0 O4 2.190142 1_555
Co0 O9 2.224706 1_545
Co0 O10 2.224706 1_545
Co1 O5 2.082809 1_555
Co1 O6 2.082809 1_555
Co1 O8 2.104639 1_555
Co1 O13 2.216140 1_555
Co1 O14 2.216140 1_555
Co1 O3 2.216439 1_555
Co2 O7 2.091984 1_555
Co2 O10 2.099201 1_555
Co2 O9 2.099201 1_455
Co2 O12 2.195631 1_555
Co2 O2 2.221756 1_455
Co2 O1 2.221756 1_555
O0 P0 1.550169 1_555
O1 P0 1.575654 1_555
O2 P0 1.575654 1_655
O3 P3 1.536625 1_545
O4 P2 1.537340 1_555
O5 P1 1.574868 1_555
O6 P1 1.574868 1_655
O7 P1 1.555686 1_556
O8 P2 1.553808 1_554
O9 P2 1.577421 1_555
O10 P2 1.577421 1_555
O11 P1 1.533574 1_555
O12 P0 1.539113 1_565
O13 P3 1.568960 1_555
O14 P3 1.568960 1_555
O15 P3 1.556171 1_555
