# generated using pymatgen
data_Li2Co2NiO6
_symmetry_space_group_name_H-M   'P 1'
_cell_length_a   5.83804400
_cell_length_b   5.87933111
_cell_length_c   6.51238653
_cell_angle_alpha   104.81511290
_cell_angle_beta   103.41722144
_cell_angle_gamma   91.17634874
_symmetry_Int_Tables_number   1
_chemical_formula_structural   Li2Co2NiO6
_chemical_formula_sum   'Li4 Co4 Ni2 O12'
_cell_volume   209.44120484
_cell_formula_units_Z   2
loop_
 _symmetry_equiv_pos_site_id
 _symmetry_equiv_pos_as_xyz
  1  'x, y, z'
loop_
 _atom_site_type_symbol
 _atom_site_label
 _atom_site_symmetry_multiplicity
 _atom_site_fract_x
 _atom_site_fract_y
 _atom_site_fract_z
 _atom_site_occupancy
  Li  Li0  1  0.00000000  0.00000000  0.50000000  1
  Li  Li1  1  0.50000000  0.00000000  0.50000000  1
  Li  Li2  1  0.67808500  0.65273900  0.15889700  1
  Li  Li3  1  0.32191500  0.34726100  0.84110300  1
  Co  Co0  1  0.16937900  0.17451700  0.16360800  1
  Co  Co1  1  0.66530600  0.16904700  0.16195500  1
  Co  Co2  1  0.83062100  0.82548300  0.83639200  1
  Co  Co3  1  0.33469400  0.83095300  0.83804500  1
  Ni  Ni0  1  0.00000000  0.50000000  0.50000000  1
  Ni  Ni1  1  0.50000000  0.50000000  0.50000000  1
  O  O0  1  0.25646800  0.25109700  0.47655900  1
  O  O1  1  0.24804900  0.73678900  0.52921300  1
  O  O2  1  0.75195100  0.26321100  0.47078700  1
  O  O3  1  0.74353200  0.74890300  0.52344100  1
  O  O4  1  0.89577100  0.94142300  0.14662100  1
  O  O5  1  0.91448600  0.39777200  0.19164000  1
  O  O6  1  0.42689000  0.94241900  0.14993800  1
  O  O7  1  0.43851000  0.38698900  0.16729600  1
  O  O8  1  0.10422900  0.05857700  0.85337900  1
  O  O9  1  0.57311000  0.05758100  0.85006200  1
  O  O10  1  0.08551400  0.60222800  0.80836000  1
  O  O11  1  0.56149000  0.61301100  0.83270400  1
loop_
_geom_bond_atom_site_label_1
_geom_bond_atom_site_label_2
_geom_bond_distance
_geom_bond_site_symmetry_2
Li0 O0 2.138949 1_555
Li0 O3 2.138949 1_445
Li0 O2 2.154701 1_455
Li0 O1 2.154701 1_545
Li0 O4 2.172841 1_445
Li0 O8 2.172841 1_555
Li1 O3 2.079614 1_545
Li1 O0 2.079614 1_555
Li1 O6 2.154485 1_545
Li1 O9 2.154485 1_555
Li1 O2 2.186659 1_555
Li1 O1 2.186659 1_545
Li2 O11 2.024647 1_554
Li2 O5 2.075848 1_555
Li2 O7 2.095206 1_555
Li2 O4 2.128421 1_555
Li2 O3 2.232825 1_555
Li2 O6 2.273386 1_555
Li3 O7 2.024647 1_556
Li3 O10 2.075848 1_555
Li3 O11 2.095206 1_555
Li3 O8 2.128421 1_555
Li3 O0 2.232825 1_555
Li3 O9 2.273386 1_555
Co0 O8 1.902501 1_554
Co0 O0 1.911895 1_555
Co0 O7 1.978960 1_555
Co0 O5 2.013534 1_455
Co0 O4 2.047534 1_445
Co0 O6 2.052880 1_545
Co1 O7 1.861293 1_555
Co1 O6 1.881166 1_545
Co1 O2 1.885303 1_555
Co1 O5 1.902147 1_555
Co1 O9 1.908467 1_554
Co1 O4 1.918117 1_545
Co2 O4 1.902501 1_556
Co2 O3 1.911895 1_555
Co2 O11 1.978960 1_555
Co2 O10 2.013534 1_655
Co2 O8 2.047534 1_665
Co2 O9 2.052880 1_565
Co3 O11 1.861293 1_555
Co3 O9 1.881166 1_565
Co3 O1 1.885303 1_555
Co3 O10 1.902147 1_555
Co3 O6 1.908467 1_556
Co3 O8 1.918117 1_565
Ni0 O10 1.883707 1_555
Ni0 O5 1.883707 1_455
Ni0 O2 1.930099 1_455
Ni0 O1 1.930099 1_555
Ni0 O0 2.118587 1_555
Ni0 O3 2.118587 1_455
Ni1 O3 1.971236 1_555
Ni1 O0 1.971236 1_555
Ni1 O7 2.039100 1_555
Ni1 O11 2.039100 1_555
Ni1 O1 2.053376 1_555
Ni1 O2 2.053376 1_555
