# generated using pymatgen
data_P2Pb3O8
_symmetry_space_group_name_H-M   'P 1'
_cell_length_a   9.97489657
_cell_length_b   9.97489657
_cell_length_c   14.65975500
_cell_angle_alpha   90.00000000
_cell_angle_beta   90.00000000
_cell_angle_gamma   120.00000381
_symmetry_Int_Tables_number   1
_chemical_formula_structural   P2Pb3O8
_chemical_formula_sum   'P12 Pb18 O48'
_cell_volume   1263.20585517
_cell_formula_units_Z   6
loop_
 _symmetry_equiv_pos_site_id
 _symmetry_equiv_pos_as_xyz
  1  'x, y, z'
loop_
 _atom_site_type_symbol
 _atom_site_label
 _atom_site_symmetry_multiplicity
 _atom_site_fract_x
 _atom_site_fract_y
 _atom_site_fract_z
 _atom_site_occupancy
  P  P0  1  0.01883600  0.62604300  0.37509000  1
  P  P1  1  0.02055900  0.62751500  0.87626900  1
  P  P2  1  0.60720700  0.98116400  0.37509000  1
  P  P3  1  0.60695600  0.97944100  0.87626900  1
  P  P4  1  0.37248500  0.39304400  0.87626900  1
  P  P5  1  0.37395700  0.39279300  0.37509000  1
  P  P6  1  0.62604300  0.60720700  0.62491000  1
  P  P7  1  0.62751500  0.60695600  0.12373100  1
  P  P8  1  0.39279300  0.01883600  0.62491000  1
  P  P9  1  0.39304400  0.02055900  0.12373100  1
  P  P10  1  0.98116400  0.37395700  0.62491000  1
  P  P11  1  0.97944100  0.37248500  0.12373100  1
  Pb  Pb0  1  0.99518100  0.73904900  0.62860200  1
  Pb  Pb1  1  0.00971600  0.74539700  0.12714400  1
  Pb  Pb2  1  0.33333300  0.66666700  0.01748900  1
  Pb  Pb3  1  0.33333300  0.66666700  0.48790300  1
  Pb  Pb4  1  0.33333300  0.66666700  0.74842400  1
  Pb  Pb5  1  0.26095100  0.25613200  0.62860200  1
  Pb  Pb6  1  0.25460300  0.26431900  0.12714400  1
  Pb  Pb7  1  0.73568100  0.99028400  0.12714400  1
  Pb  Pb8  1  0.74386800  0.00481900  0.62860200  1
  Pb  Pb9  1  0.25613200  0.99518100  0.37139800  1
  Pb  Pb10  1  0.26431900  0.00971600  0.87285600  1
  Pb  Pb11  1  0.73904900  0.74386800  0.37139800  1
  Pb  Pb12  1  0.74539700  0.73568100  0.87285600  1
  Pb  Pb13  1  0.66666700  0.33333300  0.51209700  1
  Pb  Pb14  1  0.66666700  0.33333300  0.98251100  1
  Pb  Pb15  1  0.66666700  0.33333300  0.25157600  1
  Pb  Pb16  1  0.99028400  0.25460300  0.87285600  1
  Pb  Pb17  1  0.00481900  0.26095100  0.37139800  1
  O  O0  1  0.08165900  0.73426500  0.78993500  1
  O  O1  1  0.07126000  0.73685600  0.29141800  1
  O  O2  1  0.08704900  0.73663600  0.96086700  1
  O  O3  1  0.08147500  0.73434300  0.46063900  1
  O  O4  1  0.09563900  0.52214800  0.37671900  1
  O  O5  1  0.09356900  0.51919400  0.87449500  1
  O  O6  1  0.31758300  0.83887500  0.62416900  1
  O  O7  1  0.31020200  0.84233700  0.12263200  1
  O  O8  1  0.16112500  0.47870800  0.62416900  1
  O  O9  1  0.15766300  0.46786500  0.12263200  1
  O  O10  1  0.42650900  0.90436100  0.37671900  1
  O  O11  1  0.42562400  0.90643100  0.87449500  1
  O  O12  1  0.26573500  0.34739400  0.78993500  1
  O  O13  1  0.26336400  0.35041400  0.96086700  1
  O  O14  1  0.26314400  0.33440400  0.29141800  1
  O  O15  1  0.26565700  0.34713200  0.46063900  1
  O  O16  1  0.52129200  0.68241700  0.62416900  1
  O  O17  1  0.53213500  0.68979800  0.12263200  1
  O  O18  1  0.47785200  0.57349100  0.37671900  1
  O  O19  1  0.48080600  0.57437600  0.87449500  1
  O  O20  1  0.64958600  0.91295100  0.96086700  1
  O  O21  1  0.65286800  0.91852500  0.46063900  1
  O  O22  1  0.65260600  0.91834100  0.78993500  1
  O  O23  1  0.66559600  0.92874000  0.29141800  1
  O  O24  1  0.33440400  0.07126000  0.70858200  1
  O  O25  1  0.35041400  0.08704900  0.03913300  1
  O  O26  1  0.34739400  0.08165900  0.21006500  1
  O  O27  1  0.34713200  0.08147500  0.53936100  1
  O  O28  1  0.52214800  0.42650900  0.62328100  1
  O  O29  1  0.51919400  0.42562400  0.12550500  1
  O  O30  1  0.46786500  0.31020200  0.87736800  1
  O  O31  1  0.47870800  0.31758300  0.37583100  1
  O  O32  1  0.73434300  0.65286800  0.53936100  1
  O  O33  1  0.73685600  0.66559600  0.70858200  1
  O  O34  1  0.73663600  0.64958600  0.03913300  1
  O  O35  1  0.73426500  0.65260600  0.21006500  1
  O  O36  1  0.57437600  0.09356900  0.12550500  1
  O  O37  1  0.57349100  0.09563900  0.62328100  1
  O  O38  1  0.84233700  0.53213500  0.87736800  1
  O  O39  1  0.83887500  0.52129200  0.37583100  1
  O  O40  1  0.68979800  0.15766300  0.87736800  1
  O  O41  1  0.68241700  0.16112500  0.37583100  1
  O  O42  1  0.90436100  0.47785200  0.62328100  1
  O  O43  1  0.90643100  0.48080600  0.12550500  1
  O  O44  1  0.91852500  0.26565700  0.53936100  1
  O  O45  1  0.92874000  0.26314400  0.70858200  1
  O  O46  1  0.91295100  0.26336400  0.03913300  1
  O  O47  1  0.91834100  0.26573500  0.21006500  1
loop_
_geom_bond_atom_site_label_1
_geom_bond_atom_site_label_2
_geom_bond_distance
_geom_bond_site_symmetry_2
O0 P1 1.567849 1_555
O0 Pb0 2.526112 1_455
O0 Pb10 2.709344 1_565
O1 P0 1.556215 1_555
O1 Pb1 2.497185 1_555
O1 Pb9 2.581339 1_555
O2 P1 1.562305 1_555
O2 Pb1 2.571359 1_556
O2 Pb10 2.719308 1_565
O3 P0 1.566927 1_555
O3 Pb0 2.616571 1_455
O3 Pb9 2.642610 1_555
O4 P0 1.566981 1_555
O4 Pb17 2.292304 1_555
O4 Pb3 2.634081 1_555
O5 P1 1.576514 1_555
O5 Pb16 2.304044 1_455
O5 Pb4 2.789510 1_555
O6 P8 1.561599 1_565
O6 Pb4 2.561889 1_555
O6 Pb3 2.689935 1_555
O6 Pb0 2.852308 1_455
O7 P9 1.540927 1_565
O7 Pb2 2.429791 1_555
O7 Pb1 2.650472 1_555
O8 P10 1.561599 1_455
O8 Pb4 2.561893 1_555
O8 Pb3 2.689938 1_555
O8 Pb5 2.852308 1_555
O9 P11 1.540927 1_455
O9 Pb2 2.429796 1_555
O9 Pb6 2.650472 1_555
O10 P2 1.566981 1_555
O10 Pb9 2.292304 1_555
O10 Pb3 2.634080 1_555
O11 P3 1.576523 1_555
O11 Pb10 2.304035 1_565
O11 Pb4 2.789510 1_555
O12 P4 1.567849 1_555
O12 Pb5 2.526112 1_555
O12 Pb16 2.709344 1_455
O13 P4 1.562306 1_555
O13 Pb6 2.571362 1_556
O13 Pb16 2.719306 1_455
O14 P5 1.556215 1_555
O14 Pb6 2.497185 1_555
O14 Pb17 2.581340 1_555
O15 P5 1.566927 1_555
O15 Pb5 2.616571 1_555
O15 Pb17 2.642610 1_555
O16 P6 1.561599 1_555
O16 Pb4 2.561896 1_555
O16 Pb3 2.689941 1_555
O16 Pb8 2.852308 1_565
O17 P7 1.540927 1_555
O17 Pb2 2.429799 1_555
O17 Pb7 2.650472 1_555
O18 P5 1.566981 1_555
O18 Pb11 2.292304 1_555
O18 Pb3 2.634087 1_555
O19 P4 1.576522 1_555
O19 Pb12 2.304042 1_555
O19 Pb4 2.789510 1_555
O20 P3 1.562300 1_555
O20 Pb7 2.571361 1_556
O20 Pb12 2.719315 1_555
O21 P2 1.566927 1_555
O21 Pb8 2.616571 1_565
O21 Pb11 2.642610 1_555
O22 P3 1.567849 1_555
O22 Pb8 2.526112 1_565
O22 Pb12 2.709344 1_555
O23 P2 1.556215 1_555
O23 Pb7 2.497185 1_555
O23 Pb11 2.581340 1_555
O24 P8 1.556215 1_555
O24 Pb10 2.497185 1_555
O24 Pb5 2.581340 1_555
O25 P9 1.562300 1_555
O25 Pb10 2.571361 1_554
O25 Pb6 2.719315 1_555
O26 P9 1.567849 1_555
O26 Pb9 2.526112 1_545
O26 Pb6 2.709344 1_555
O27 P8 1.566927 1_555
O27 Pb9 2.616571 1_545
O27 Pb5 2.642610 1_555
O28 P6 1.566981 1_555
O28 Pb5 2.292304 1_555
O28 Pb13 2.634087 1_555
O29 P7 1.576522 1_555
O29 Pb6 2.304042 1_555
O29 Pb15 2.789510 1_555
O30 P4 1.540927 1_555
O30 Pb14 2.429799 1_555
O30 Pb10 2.650472 1_555
O31 P5 1.561599 1_555
O31 Pb15 2.561896 1_555
O31 Pb13 2.689941 1_555
O31 Pb9 2.852308 1_545
O32 P6 1.566927 1_555
O32 Pb11 2.616571 1_555
O32 Pb0 2.642610 1_555
O33 P6 1.556215 1_555
O33 Pb12 2.497185 1_555
O33 Pb0 2.581340 1_555
O34 P7 1.562306 1_555
O34 Pb12 2.571362 1_554
O34 Pb1 2.719306 1_655
O35 P7 1.567849 1_555
O35 Pb11 2.526112 1_555
O35 Pb1 2.709344 1_655
O36 P9 1.576523 1_555
O36 Pb7 2.304035 1_545
O36 Pb15 2.789510 1_555
O37 P8 1.566981 1_555
O37 Pb8 2.292304 1_555
O37 Pb13 2.634080 1_555
O38 P1 1.540927 1_655
O38 Pb14 2.429796 1_555
O38 Pb12 2.650472 1_555
O39 P0 1.561599 1_655
O39 Pb15 2.561893 1_555
O39 Pb13 2.689938 1_555
O39 Pb11 2.852308 1_555
O40 P3 1.540927 1_545
O40 Pb14 2.429791 1_555
O40 Pb16 2.650472 1_555
O41 P2 1.561599 1_545
O41 Pb15 2.561889 1_555
O41 Pb13 2.689935 1_555
O41 Pb17 2.852308 1_655
O42 P10 1.566981 1_555
O42 Pb0 2.292304 1_555
O42 Pb13 2.634081 1_555
O43 P11 1.576514 1_555
O43 Pb1 2.304044 1_655
O43 Pb15 2.789510 1_555
O44 P10 1.566927 1_555
O44 Pb17 2.616571 1_655
O44 Pb8 2.642610 1_555
O45 P10 1.556215 1_555
O45 Pb16 2.497185 1_555
O45 Pb8 2.581339 1_555
O46 P11 1.562305 1_555
O46 Pb16 2.571359 1_554
O46 Pb7 2.719308 1_545
O47 P11 1.567849 1_555
O47 Pb17 2.526112 1_655
O47 Pb7 2.709344 1_545
