# generated using pymatgen
data_Li2CuAsCO7
_symmetry_space_group_name_H-M   'P 1'
_cell_length_a   6.34270200
_cell_length_b   5.30582800
_cell_length_c   8.70220433
_cell_angle_alpha   85.72485326
_cell_angle_beta   90.00000000
_cell_angle_gamma   90.00000000
_symmetry_Int_Tables_number   1
_chemical_formula_structural   Li2CuAsCO7
_chemical_formula_sum   'Li4 Cu2 As2 C2 O14'
_cell_volume   292.04291188
_cell_formula_units_Z   2
loop_
 _symmetry_equiv_pos_site_id
 _symmetry_equiv_pos_as_xyz
  1  'x, y, z'
loop_
 _atom_site_type_symbol
 _atom_site_label
 _atom_site_symmetry_multiplicity
 _atom_site_fract_x
 _atom_site_fract_y
 _atom_site_fract_z
 _atom_site_occupancy
  Li  Li0  1  0.49015100  0.79035400  0.77176200  1
  Li  Li1  1  0.00984900  0.79035400  0.77176200  1
  Li  Li2  1  0.50984900  0.20964600  0.22823800  1
  Li  Li3  1  0.99015100  0.20964600  0.22823800  1
  Cu  Cu0  1  0.25000000  0.22271600  0.65577700  1
  Cu  Cu1  1  0.75000000  0.77728400  0.34422300  1
  As  As0  1  0.75000000  0.30152600  0.56512200  1
  As  As1  1  0.25000000  0.69847400  0.43487800  1
  C  C0  1  0.25000000  0.29398900  0.94999400  1
  C  C1  1  0.75000000  0.70601100  0.05000600  1
  O  O0  1  0.75000000  0.75175100  0.90386300  1
  O  O1  1  0.25000000  0.09247200  0.86628900  1
  O  O2  1  0.25000000  0.51134500  0.87793100  1
  O  O3  1  0.95456500  0.18506600  0.68025700  1
  O  O4  1  0.54543500  0.18506600  0.68025700  1
  O  O5  1  0.25000000  0.79852400  0.61508200  1
  O  O6  1  0.75000000  0.63391700  0.55180100  1
  O  O7  1  0.25000000  0.36608300  0.44819900  1
  O  O8  1  0.75000000  0.20147600  0.38491800  1
  O  O9  1  0.45456500  0.81493400  0.31974300  1
  O  O10  1  0.04543500  0.81493400  0.31974300  1
  O  O11  1  0.75000000  0.48865500  0.12206900  1
  O  O12  1  0.75000000  0.90752800  0.13371100  1
  O  O13  1  0.25000000  0.24824900  0.09613700  1
loop_
_geom_bond_atom_site_label_1
_geom_bond_atom_site_label_2
_geom_bond_distance
_geom_bond_site_symmetry_2
Li0 O0 2.011154 1_555
Li0 O5 2.042609 1_555
Li0 O4 2.212327 1_565
Li0 O2 2.271860 1_555
Li0 O1 2.400620 1_565
Li1 O0 2.011154 1_455
Li1 O5 2.042609 1_555
Li1 O3 2.212327 1_465
Li1 O2 2.271860 1_555
Li1 O1 2.400620 1_565
Li2 O13 2.011154 1_555
Li2 O8 2.042609 1_555
Li2 O9 2.212327 1_545
Li2 O11 2.271860 1_555
Li2 O12 2.400620 1_545
Li3 O13 2.011154 1_655
Li3 O8 2.042609 1_555
Li3 O10 2.212327 1_645
Li3 O11 2.271860 1_555
Li3 O12 2.400620 1_545
Cu0 O3 1.894803 1_455
Cu0 O4 1.894803 1_555
Cu0 O7 1.907040 1_555
Cu0 O1 1.909119 1_555
Cu0 O5 2.304311 1_545
Cu0 O2 2.554214 1_555
Cu1 O10 1.894803 1_655
Cu1 O9 1.894803 1_555
Cu1 O6 1.907040 1_555
Cu1 O12 1.909119 1_555
Cu1 O8 2.304311 1_565
Cu1 O11 2.554214 1_555
As0 O8 1.692654 1_555
As0 O4 1.725361 1_555
As0 O3 1.725361 1_555
As0 O6 1.758771 1_555
As1 O5 1.692654 1_555
As1 O10 1.725361 1_555
As1 O9 1.725361 1_555
As1 O7 1.758771 1_555
C0 O2 1.270996 1_555
C0 O13 1.276821 1_556
C0 O1 1.337883 1_555
C1 O11 1.270996 1_555
C1 O0 1.276821 1_554
C1 O12 1.337883 1_555
