# generated using pymatgen
data_Li2MnO2
_symmetry_space_group_name_H-M   'P 1'
_cell_length_a   4.74127564
_cell_length_b   4.74114329
_cell_length_c   5.56439085
_cell_angle_alpha   85.62548451
_cell_angle_beta   64.78467862
_cell_angle_gamma   79.68380421
_symmetry_Int_Tables_number   1
_chemical_formula_structural   Li2MnO2
_chemical_formula_sum   'Li4 Mn2 O4'
_cell_volume   111.33426624
_cell_formula_units_Z   2
loop_
 _symmetry_equiv_pos_site_id
 _symmetry_equiv_pos_as_xyz
  1  'x, y, z'
loop_
 _atom_site_type_symbol
 _atom_site_label
 _atom_site_symmetry_multiplicity
 _atom_site_fract_x
 _atom_site_fract_y
 _atom_site_fract_z
 _atom_site_occupancy
  Li  Li0  1  0.97366100  0.24999900  0.55269100  1
  Li  Li1  1  0.47365600  0.74999900  0.55269900  1
  Li  Li2  1  0.52633900  0.25000000  0.44730900  1
  Li  Li3  1  0.02634400  0.75000000  0.44730100  1
  Mn  Mn0  1  0.75000100  0.74999900  0.99999800  1
  Mn  Mn1  1  0.25000000  0.25000300  0.00000200  1
  O  O0  1  0.14654300  0.49999300  0.70696300  1
  O  O1  1  0.64651900  0.00001300  0.70696300  1
  O  O2  1  0.35345700  0.00000600  0.29303700  1
  O  O3  1  0.85348000  0.49998700  0.29303700  1
loop_
_geom_bond_atom_site_label_1
_geom_bond_atom_site_label_2
_geom_bond_distance
_geom_bond_site_symmetry_2
Li0 O1 1.978940 1_555
Li0 O0 1.978970 1_655
Li0 O2 2.003735 1_655
Li0 O3 2.003819 1_555
Li1 O0 1.978907 1_555
Li1 O1 1.978944 1_565
Li1 O3 2.003860 1_555
Li1 O2 2.003939 1_565
Li2 O3 1.978940 1_555
Li2 O2 1.978970 1_555
Li2 O0 2.003735 1_555
Li2 O1 2.003814 1_555
Li3 O2 1.978907 1_565
Li3 O3 1.978944 1_455
Li3 O1 2.003865 1_465
Li3 O0 2.003939 1_555
Mn0 O1 2.117313 1_565
Mn0 O3 2.117320 1_556
Mn0 O0 2.117343 1_655
Mn0 O2 2.117360 1_566
Mn1 O2 2.117221 1_555
Mn1 O0 2.117224 1_554
Mn1 O3 2.117248 1_455
Mn1 O1 2.117268 1_554
