# generated using pymatgen
data_Tm2WO6
_symmetry_space_group_name_H-M   'P 1'
_cell_length_a   5.54665100
_cell_length_b   10.49748300
_cell_length_c   16.03127700
_cell_angle_alpha   90.00000000
_cell_angle_beta   90.00000000
_cell_angle_gamma   90.00000000
_symmetry_Int_Tables_number   1
_chemical_formula_structural   Tm2WO6
_chemical_formula_sum   'Tm16 W8 O48'
_cell_volume   933.43512395
_cell_formula_units_Z   8
loop_
 _symmetry_equiv_pos_site_id
 _symmetry_equiv_pos_as_xyz
  1  'x, y, z'
loop_
 _atom_site_type_symbol
 _atom_site_label
 _atom_site_symmetry_multiplicity
 _atom_site_fract_x
 _atom_site_fract_y
 _atom_site_fract_z
 _atom_site_occupancy
  Tm  Tm0  1  0.89887800  0.64322900  0.06179500  1
  Tm  Tm1  1  0.39887800  0.85677100  0.06179500  1
  Tm  Tm2  1  0.95379200  0.85346600  0.22872600  1
  Tm  Tm3  1  0.45379200  0.64653400  0.22872600  1
  Tm  Tm4  1  0.95379200  0.35346600  0.27127400  1
  Tm  Tm5  1  0.45379200  0.14653400  0.27127400  1
  Tm  Tm6  1  0.39887800  0.35677100  0.43820500  1
  Tm  Tm7  1  0.89887800  0.14322900  0.43820500  1
  Tm  Tm8  1  0.10112200  0.85677100  0.56179500  1
  Tm  Tm9  1  0.60112200  0.64322900  0.56179500  1
  Tm  Tm10  1  0.54620800  0.85346600  0.72872600  1
  Tm  Tm11  1  0.04620800  0.64653400  0.72872600  1
  Tm  Tm12  1  0.54620800  0.35346600  0.77127400  1
  Tm  Tm13  1  0.04620800  0.14653400  0.77127400  1
  Tm  Tm14  1  0.10112200  0.35677100  0.93820500  1
  Tm  Tm15  1  0.60112200  0.14322900  0.93820500  1
  W  W0  1  0.38756400  0.38053400  0.11987000  1
  W  W1  1  0.88756400  0.11946600  0.11987000  1
  W  W2  1  0.38756400  0.88053400  0.38013000  1
  W  W3  1  0.88756400  0.61946600  0.38013000  1
  W  W4  1  0.11243600  0.38053400  0.61987000  1
  W  W5  1  0.61243600  0.11946600  0.61987000  1
  W  W6  1  0.11243600  0.88053400  0.88013000  1
  W  W7  1  0.61243600  0.61946600  0.88013000  1
  O  O0  1  0.91876900  0.21678000  0.02132000  1
  O  O1  1  0.41876900  0.28322000  0.02132000  1
  O  O2  1  0.11935800  0.46042300  0.07022600  1
  O  O3  1  0.61935800  0.03957700  0.07022600  1
  O  O4  1  0.09734800  0.98569700  0.10685000  1
  O  O5  1  0.59734800  0.51430300  0.10685000  1
  O  O6  1  0.67785300  0.77149300  0.14619000  1
  O  O7  1  0.17785300  0.72850700  0.14619000  1
  O  O8  1  0.66187200  0.26928100  0.17310000  1
  O  O9  1  0.16187200  0.23071900  0.17310000  1
  O  O10  1  0.81065700  0.05412600  0.23136800  1
  O  O11  1  0.31065700  0.44587400  0.23136800  1
  O  O12  1  0.31065700  0.94587400  0.26863200  1
  O  O13  1  0.81065700  0.55412600  0.26863200  1
  O  O14  1  0.66187200  0.76928100  0.32690000  1
  O  O15  1  0.16187200  0.73071900  0.32690000  1
  O  O16  1  0.67785300  0.27149300  0.35381000  1
  O  O17  1  0.17785300  0.22850700  0.35381000  1
  O  O18  1  0.09734800  0.48569700  0.39315000  1
  O  O19  1  0.59734800  0.01430300  0.39315000  1
  O  O20  1  0.11935800  0.96042300  0.42977400  1
  O  O21  1  0.61935800  0.53957700  0.42977400  1
  O  O22  1  0.41876900  0.78322000  0.47868000  1
  O  O23  1  0.91876900  0.71678000  0.47868000  1
  O  O24  1  0.08123100  0.28322000  0.52132000  1
  O  O25  1  0.58123100  0.21678000  0.52132000  1
  O  O26  1  0.38064200  0.46042300  0.57022600  1
  O  O27  1  0.88064200  0.03957700  0.57022600  1
  O  O28  1  0.40265200  0.98569700  0.60685000  1
  O  O29  1  0.90265200  0.51430300  0.60685000  1
  O  O30  1  0.82214700  0.77149300  0.64619000  1
  O  O31  1  0.32214700  0.72850700  0.64619000  1
  O  O32  1  0.83812800  0.26928100  0.67310000  1
  O  O33  1  0.33812800  0.23071900  0.67310000  1
  O  O34  1  0.18934300  0.44587400  0.73136800  1
  O  O35  1  0.68934300  0.05412600  0.73136800  1
  O  O36  1  0.18934300  0.94587400  0.76863200  1
  O  O37  1  0.68934300  0.55412600  0.76863200  1
  O  O38  1  0.83812800  0.76928100  0.82690000  1
  O  O39  1  0.33812800  0.73071900  0.82690000  1
  O  O40  1  0.82214700  0.27149300  0.85381000  1
  O  O41  1  0.32214700  0.22850700  0.85381000  1
  O  O42  1  0.40265200  0.48569700  0.89315000  1
  O  O43  1  0.90265200  0.01430300  0.89315000  1
  O  O44  1  0.38064200  0.96042300  0.92977400  1
  O  O45  1  0.88064200  0.53957700  0.92977400  1
  O  O46  1  0.08123100  0.78322000  0.97868000  1
  O  O47  1  0.58123100  0.71678000  0.97868000  1
loop_
_geom_bond_atom_site_label_1
_geom_bond_atom_site_label_2
_geom_bond_distance
_geom_bond_site_symmetry_2
O0 W1 1.889327 1_555
O0 Tm14 2.226659 1_654
O0 Tm15 2.340031 1_554
O1 W0 1.889327 1_555
O1 Tm15 2.226659 1_554
O1 Tm14 2.340031 1_554
O2 W0 1.884086 1_555
O2 Tm0 2.279559 1_455
O2 Tm14 2.381929 1_554
O3 W1 1.884086 1_555
O3 Tm1 2.279559 1_545
O3 Tm15 2.381929 1_554
O4 W1 1.835596 1_465
O4 Tm1 2.269490 1_555
O4 Tm2 2.525523 1_455
O5 W0 1.835596 1_555
O5 Tm0 2.269490 1_555
O5 Tm3 2.525523 1_555
O6 Tm2 2.198583 1_555
O6 Tm3 2.239636 1_555
O6 Tm1 2.241934 1_555
O6 Tm0 2.268562 1_555
O7 Tm3 2.198583 1_555
O7 Tm2 2.239636 1_455
O7 Tm0 2.241934 1_455
O7 Tm1 2.268562 1_555
O8 W0 2.099302 1_555
O8 W1 2.183715 1_555
O8 Tm5 2.338674 1_555
O8 Tm4 2.424817 1_555
O9 W1 2.099302 1_455
O9 W0 2.183715 1_555
O9 Tm4 2.338674 1_455
O9 Tm5 2.424817 1_555
O10 W1 1.961487 1_555
O10 Tm2 2.251473 1_545
O10 Tm5 2.295282 1_555
O11 W0 1.961487 1_555
O11 Tm3 2.251473 1_555
O11 Tm4 2.295282 1_455
O12 W2 1.961487 1_555
O12 Tm5 2.251473 1_565
O12 Tm2 2.295282 1_455
O13 W3 1.961487 1_555
O13 Tm4 2.251473 1_555
O13 Tm3 2.295282 1_555
O14 W2 2.099302 1_555
O14 W3 2.183715 1_555
O14 Tm3 2.338674 1_555
O14 Tm2 2.424817 1_555
O15 W3 2.099302 1_455
O15 W2 2.183715 1_555
O15 Tm2 2.338674 1_455
O15 Tm3 2.424817 1_555
O16 Tm4 2.198583 1_555
O16 Tm5 2.239636 1_555
O16 Tm6 2.241934 1_555
O16 Tm7 2.268562 1_555
O17 Tm5 2.198583 1_555
O17 Tm4 2.239636 1_455
O17 Tm7 2.241934 1_455
O17 Tm6 2.268562 1_555
O18 W3 1.835596 1_455
O18 Tm6 2.269490 1_555
O18 Tm4 2.525523 1_455
O19 W2 1.835596 1_545
O19 Tm7 2.269490 1_555
O19 Tm5 2.525523 1_555
O20 W2 1.884086 1_555
O20 Tm7 2.279559 1_465
O20 Tm8 2.381929 1_555
O21 W3 1.884086 1_555
O21 Tm6 2.279559 1_555
O21 Tm9 2.381929 1_555
O22 W2 1.889327 1_555
O22 Tm9 2.226659 1_555
O22 Tm8 2.340031 1_555
O23 W3 1.889327 1_555
O23 Tm8 2.226659 1_655
O23 Tm9 2.340031 1_555
O24 W4 1.889327 1_555
O24 Tm7 2.226659 1_455
O24 Tm6 2.340031 1_555
O25 W5 1.889327 1_555
O25 Tm6 2.226659 1_555
O25 Tm7 2.340031 1_555
O26 W4 1.884086 1_555
O26 Tm9 2.279559 1_555
O26 Tm6 2.381929 1_555
O27 W5 1.884086 1_555
O27 Tm8 2.279559 1_645
O27 Tm7 2.381929 1_555
O28 W5 1.835596 1_565
O28 Tm8 2.269490 1_555
O28 Tm10 2.525523 1_555
O29 W4 1.835596 1_655
O29 Tm9 2.269490 1_555
O29 Tm11 2.525523 1_655
O30 Tm10 2.198583 1_555
O30 Tm11 2.239636 1_655
O30 Tm8 2.241934 1_655
O30 Tm9 2.268562 1_555
O31 Tm11 2.198583 1_555
O31 Tm10 2.239636 1_555
O31 Tm9 2.241934 1_555
O31 Tm8 2.268562 1_555
O32 W4 2.099302 1_655
O32 W5 2.183715 1_555
O32 Tm13 2.338674 1_655
O32 Tm12 2.424817 1_555
O33 W5 2.099302 1_555
O33 W4 2.183715 1_555
O33 Tm12 2.338674 1_555
O33 Tm13 2.424817 1_555
O34 W4 1.961487 1_555
O34 Tm11 2.251473 1_555
O34 Tm12 2.295282 1_555
O35 W5 1.961487 1_555
O35 Tm10 2.251473 1_545
O35 Tm13 2.295282 1_655
O36 W6 1.961487 1_555
O36 Tm13 2.251473 1_565
O36 Tm10 2.295282 1_555
O37 W7 1.961487 1_555
O37 Tm12 2.251473 1_555
O37 Tm11 2.295282 1_655
O38 W6 2.099302 1_655
O38 W7 2.183715 1_555
O38 Tm11 2.338674 1_655
O38 Tm10 2.424817 1_555
O39 W7 2.099302 1_555
O39 W6 2.183715 1_555
O39 Tm10 2.338674 1_555
O39 Tm11 2.424817 1_555
O40 Tm12 2.198583 1_555
O40 Tm13 2.239636 1_655
O40 Tm14 2.241934 1_655
O40 Tm15 2.268562 1_555
O41 Tm13 2.198583 1_555
O41 Tm12 2.239636 1_555
O41 Tm15 2.241934 1_555
O41 Tm14 2.268562 1_555
O42 W7 1.835596 1_555
O42 Tm14 2.269490 1_555
O42 Tm12 2.525523 1_555
O43 W6 1.835596 1_645
O43 Tm15 2.269490 1_555
O43 Tm13 2.525523 1_655
O44 W6 1.884086 1_555
O44 Tm15 2.279559 1_565
O44 Tm1 2.381929 1_556
O45 W7 1.884086 1_555
O45 Tm14 2.279559 1_655
O45 Tm0 2.381929 1_556
O46 W6 1.889327 1_555
O46 Tm0 2.226659 1_456
O46 Tm1 2.340031 1_556
O47 W7 1.889327 1_555
O47 Tm1 2.226659 1_556
O47 Tm0 2.340031 1_556
