# generated using pymatgen
data_Li4Mn2Nb3V3O16
_symmetry_space_group_name_H-M   'P 1'
_cell_length_a   6.10565883
_cell_length_b   6.10565883
_cell_length_c   10.07097443
_cell_angle_alpha   89.93972261
_cell_angle_beta   89.93972261
_cell_angle_gamma   60.03057189
_symmetry_Int_Tables_number   1
_chemical_formula_structural   Li4Mn2Nb3V3O16
_chemical_formula_sum   'Li4 Mn2 Nb3 V3 O16'
_cell_volume   325.23747333
_cell_formula_units_Z   1
loop_
 _symmetry_equiv_pos_site_id
 _symmetry_equiv_pos_as_xyz
  1  'x, y, z'
loop_
 _atom_site_type_symbol
 _atom_site_label
 _atom_site_symmetry_multiplicity
 _atom_site_fract_x
 _atom_site_fract_y
 _atom_site_fract_z
 _atom_site_occupancy
  Li  Li0  1  0.33430400  0.33430400  0.09865000  1
  Li  Li1  1  0.99549300  0.99549300  0.99649200  1
  Li  Li2  1  0.99109100  0.99109100  0.50848000  1
  Li  Li3  1  0.66532400  0.66532400  0.61616700  1
  Mn  Mn0  1  0.34147300  0.34147300  0.51406900  1
  Mn  Mn1  1  0.67306300  0.67306300  0.98778700  1
  Nb  Nb0  1  0.17050700  0.17050700  0.78205800  1
  Nb  Nb1  1  0.83476800  0.33947700  0.28435700  1
  Nb  Nb2  1  0.33947700  0.83476800  0.28435700  1
  V  V0  1  0.65918700  0.17425700  0.78746600  1
  V  V1  1  0.17425700  0.65918700  0.78746600  1
  V  V2  1  0.83204000  0.83204000  0.28618800  1
  O  O0  1  0.69067600  0.15718800  0.39135200  1
  O  O1  1  0.48235500  0.48235500  0.67274200  1
  O  O2  1  0.32436000  0.32436000  0.90110200  1
  O  O3  1  0.00365600  0.00365600  0.68632600  1
  O  O4  1  0.00286200  0.00286200  0.18064300  1
  O  O5  1  0.15718800  0.69067600  0.39135200  1
  O  O6  1  0.48159100  0.02971500  0.66937500  1
  O  O7  1  0.02971500  0.48159100  0.66937500  1
  O  O8  1  0.84662300  0.84662300  0.88742300  1
  O  O9  1  0.15658600  0.15658600  0.39825900  1
  O  O10  1  0.96998900  0.51026200  0.17327700  1
  O  O11  1  0.51026200  0.96998900  0.17327700  1
  O  O12  1  0.66149500  0.66149500  0.39938100  1
  O  O13  1  0.84393400  0.31274100  0.89605800  1
  O  O14  1  0.51460100  0.51460100  0.17262900  1
  O  O15  1  0.31274100  0.84393400  0.89605800  1
loop_
_geom_bond_atom_site_label_1
_geom_bond_atom_site_label_2
_geom_bond_distance
_geom_bond_site_symmetry_2
Li0 O2 1.992405 1_554
Li0 O14 2.047660 1_555
Li0 O10 2.068232 1_455
Li0 O11 2.068232 1_545
Li1 O4 1.856311 1_666
Li1 O8 1.920561 1_555
Li1 O13 1.959192 1_565
Li1 O15 1.959192 1_655
Li2 O3 1.796164 1_665
Li2 O5 1.981896 1_655
Li2 O0 1.981896 1_565
Li2 O9 2.071128 1_665
Li3 O7 2.000810 1_655
Li3 O6 2.000810 1_565
Li3 O1 2.016147 1_555
Li3 O12 2.183671 1_555
Mn0 O1 2.185954 1_555
Mn0 O0 2.222595 1_555
Mn0 O5 2.222595 1_555
Mn0 O7 2.274010 1_555
Mn0 O6 2.274010 1_555
Mn0 O9 2.277634 1_555
Mn1 O8 2.094034 1_555
Mn1 O13 2.119199 1_555
Mn1 O15 2.119199 1_555
Mn1 O11 2.442795 1_556
Mn1 O10 2.442795 1_556
Mn1 O14 2.503026 1_556
Nb0 O6 2.000171 1_555
Nb0 O7 2.000171 1_555
Nb0 O3 2.011506 1_555
Nb0 O2 2.022011 1_555
Nb0 O13 2.077348 1_455
Nb0 O15 2.077348 1_545
Nb1 O10 1.968793 1_555
Nb1 O14 2.035824 1_555
Nb1 O0 2.036573 1_555
Nb1 O9 2.057570 1_655
Nb1 O12 2.061771 1_555
Nb1 O4 2.064765 1_655
Nb2 O11 1.968793 1_555
Nb2 O14 2.035824 1_555
Nb2 O5 2.036573 1_555
Nb2 O9 2.057570 1_565
Nb2 O12 2.061771 1_555
Nb2 O4 2.064765 1_565
O0 V2 2.024462 1_545
O1 V0 2.002051 1_555
O1 V1 2.002051 1_555
O2 V1 2.110542 1_555
O2 V0 2.110542 1_555
O3 V0 2.086857 1_455
O3 V1 2.086857 1_545
O4 V2 2.094660 1_445
O5 V2 2.024462 1_455
O6 V0 2.080878 1_555
O7 V1 2.080878 1_555
O8 V0 2.008914 1_565
O8 V1 2.008914 1_655
O10 V2 2.052272 1_555
O11 V2 2.052272 1_555
O12 V2 2.132222 1_555
O13 V0 2.034887 1_555
O15 V1 2.034887 1_555
