# generated using pymatgen
data_Li4(NiO2)5
_symmetry_space_group_name_H-M   'P 1'
_cell_length_a   6.52003300
_cell_length_b   7.46153704
_cell_length_c   7.62680585
_cell_angle_alpha   94.99529769
_cell_angle_beta   89.83814467
_cell_angle_gamma   115.19351688
_symmetry_Int_Tables_number   1
_chemical_formula_structural   Li4(NiO2)5
_chemical_formula_sum   'Li8 Ni10 O20'
_cell_volume   334.22835898
_cell_formula_units_Z   2
loop_
 _symmetry_equiv_pos_site_id
 _symmetry_equiv_pos_as_xyz
  1  'x, y, z'
loop_
 _atom_site_type_symbol
 _atom_site_label
 _atom_site_symmetry_multiplicity
 _atom_site_fract_x
 _atom_site_fract_y
 _atom_site_fract_z
 _atom_site_occupancy
  Li  Li0  1  0.69498600  0.79204000  0.19993700  1
  Li  Li1  1  0.60546900  0.40408900  0.10294300  1
  Li  Li2  1  0.24092100  0.49355700  0.24920000  1
  Li  Li3  1  0.75907900  0.50644300  0.75080000  1
  Li  Li4  1  0.39453100  0.59591100  0.89705700  1
  Li  Li5  1  0.30501400  0.20796000  0.80006300  1
  Li  Li6  1  0.09676900  0.41871900  0.59563300  1
  Li  Li7  1  0.90323100  0.58128100  0.40436700  1
  Ni  Ni0  1  0.14473800  0.10105100  0.15414700  1
  Ni  Ni1  1  0.85526200  0.89894900  0.84585300  1
  Ni  Ni2  1  0.95226800  0.30032900  0.95223600  1
  Ni  Ni3  1  0.04773200  0.69967100  0.04776400  1
  Ni  Ni4  1  0.50000000  0.00000000  0.00000000  1
  Ni  Ni5  1  0.45501800  0.30188500  0.45095200  1
  Ni  Ni6  1  0.54498200  0.69811500  0.54904800  1
  Ni  Ni7  1  0.00000000  0.00000000  0.50000000  1
  Ni  Ni8  1  0.64768700  0.10050500  0.64957800  1
  Ni  Ni9  1  0.35231300  0.89949500  0.35042200  1
  O  O0  1  0.17176700  0.95099100  0.95085900  1
  O  O1  1  0.75560900  0.66748500  0.97082200  1
  O  O2  1  0.24439100  0.33251500  0.02917800  1
  O  O3  1  0.35337500  0.75879600  0.12811900  1
  O  O4  1  0.82823300  0.04900900  0.04914100  1
  O  O5  1  0.92991200  0.46160300  0.14887200  1
  O  O6  1  0.84842000  0.75954800  0.62413500  1
  O  O7  1  0.45912500  0.14362300  0.24195900  1
  O  O8  1  0.54087500  0.85637700  0.75804100  1
  O  O9  1  0.42582800  0.45446600  0.65035100  1
  O  O10  1  0.07008800  0.53839700  0.85112800  1
  O  O11  1  0.97160000  0.14703300  0.73977500  1
  O  O12  1  0.02840000  0.85296700  0.26022500  1
  O  O13  1  0.64662500  0.24120400  0.87188100  1
  O  O14  1  0.57417200  0.54553400  0.34964900  1
  O  O15  1  0.66758600  0.93885400  0.44574700  1
  O  O16  1  0.15158000  0.24045200  0.37586500  1
  O  O17  1  0.25840600  0.66557800  0.46423300  1
  O  O18  1  0.74159400  0.33442200  0.53576700  1
  O  O19  1  0.33241400  0.06114600  0.55425300  1
loop_
_geom_bond_atom_site_label_1
_geom_bond_atom_site_label_2
_geom_bond_distance
_geom_bond_site_symmetry_2
Li0 O1 2.024710 1_554
Li0 O12 2.066806 1_655
Li0 O14 2.105826 1_555
Li0 O15 2.133936 1_555
Li0 O4 2.171188 1_565
Li0 O3 2.198943 1_555
Li1 O5 1.996709 1_555
Li1 O14 2.128661 1_555
Li1 O1 2.130165 1_554
Li1 O13 2.134644 1_554
Li1 O7 2.141504 1_555
Li1 O2 2.242528 1_555
Li2 O17 1.964693 1_555
Li2 O2 1.982949 1_555
Li2 O16 2.053575 1_555
Li2 O5 2.078380 1_455
Li2 O3 2.094335 1_555
Li2 O14 2.167641 1_555
Li3 O18 1.964693 1_555
Li3 O1 1.982949 1_555
Li3 O6 2.053575 1_555
Li3 O10 2.078380 1_655
Li3 O13 2.094335 1_555
Li3 O9 2.167641 1_555
Li4 O10 1.996709 1_555
Li4 O9 2.128661 1_555
Li4 O2 2.130165 1_556
Li4 O3 2.134644 1_556
Li4 O8 2.141504 1_555
Li4 O1 2.242528 1_555
Li5 O2 2.024710 1_556
Li5 O11 2.066806 1_455
Li5 O9 2.105826 1_555
Li5 O19 2.133936 1_555
Li5 O0 2.171188 1_545
Li5 O13 2.198943 1_555
Li6 O17 2.042209 1_555
Li6 O9 2.084910 1_555
Li6 O10 2.109993 1_555
Li6 O18 2.163956 1_455
Li6 O16 2.172430 1_555
Li6 O11 2.226803 1_455
Li7 O18 2.042209 1_555
Li7 O14 2.084910 1_555
Li7 O5 2.109993 1_555
Li7 O17 2.163956 1_655
Li7 O6 2.172430 1_555
Li7 O12 2.226803 1_655
Ni0 O0 1.884866 1_544
Ni0 O16 1.896837 1_555
Ni0 O2 1.908194 1_555
Ni0 O12 1.928310 1_545
Ni0 O7 2.041455 1_555
Ni0 O4 2.079343 1_455
Ni1 O4 1.884866 1_566
Ni1 O6 1.896837 1_555
Ni1 O1 1.908194 1_555
Ni1 O11 1.928310 1_565
Ni1 O8 2.041455 1_555
Ni1 O0 2.079343 1_655
Ni2 O10 1.847607 1_655
Ni2 O5 1.884736 1_556
Ni2 O2 1.903177 1_656
Ni2 O4 1.914062 1_556
Ni2 O11 1.936163 1_555
Ni2 O13 1.937220 1_555
Ni3 O5 1.847607 1_455
Ni3 O10 1.884736 1_554
Ni3 O1 1.903177 1_454
Ni3 O0 1.914062 1_554
Ni3 O12 1.936163 1_555
Ni3 O3 1.937220 1_555
Ni4 O3 1.985955 1_545
Ni4 O13 1.985955 1_554
Ni4 O0 2.041709 1_544
Ni4 O4 2.041709 1_555
Ni4 O7 2.126226 1_555
Ni4 O8 2.126226 1_544
Ni5 O19 1.872642 1_555
Ni5 O9 1.877887 1_555
Ni5 O14 1.882655 1_555
Ni5 O18 1.887300 1_555
Ni5 O7 1.906502 1_555
Ni5 O16 1.908101 1_555
Ni6 O15 1.872642 1_555
Ni6 O14 1.877887 1_555
Ni6 O9 1.882655 1_555
Ni6 O17 1.887300 1_555
Ni6 O8 1.906502 1_555
Ni6 O6 1.908101 1_555
Ni7 O16 1.967986 1_555
Ni7 O6 1.967986 1_445
Ni7 O19 2.051125 1_555
Ni7 O15 2.051125 1_445
Ni7 O11 2.098513 1_455
Ni7 O12 2.098513 1_545
Ni8 O18 1.877689 1_555
Ni8 O8 1.914830 1_545
Ni8 O13 1.916489 1_555
Ni8 O15 1.921960 1_545
Ni8 O19 2.073060 1_555
Ni8 O11 2.096755 1_555
Ni9 O17 1.877689 1_555
Ni9 O7 1.914830 1_565
Ni9 O3 1.916489 1_555
Ni9 O19 1.921960 1_565
Ni9 O15 2.073060 1_555
Ni9 O12 2.096755 1_555
