# generated using pymatgen
data_Mn3CrCu2(PO4)6
_symmetry_space_group_name_H-M   'P 1'
_cell_length_a   8.53030341
_cell_length_b   8.53030341
_cell_length_c   8.53030336
_cell_angle_alpha   59.86906854
_cell_angle_beta   59.86906854
_cell_angle_gamma   59.86906751
_symmetry_Int_Tables_number   1
_chemical_formula_structural   Mn3CrCu2(PO4)6
_chemical_formula_sum   'Mn3 Cr1 Cu2 P6 O24'
_cell_volume   437.60898645
_cell_formula_units_Z   1
loop_
 _symmetry_equiv_pos_site_id
 _symmetry_equiv_pos_as_xyz
  1  'x, y, z'
loop_
 _atom_site_type_symbol
 _atom_site_label
 _atom_site_symmetry_multiplicity
 _atom_site_fract_x
 _atom_site_fract_y
 _atom_site_fract_z
 _atom_site_occupancy
  Mn  Mn0  1  0.14247800  0.14247800  0.14247800  1
  Mn  Mn1  1  0.35781900  0.35781900  0.35781900  1
  Mn  Mn2  1  0.64249800  0.64249800  0.64249800  1
  Cr  Cr0  1  0.85890400  0.85890400  0.85890400  1
  Cu  Cu0  1  0.99909800  0.99909800  0.99909800  1
  Cu  Cu1  1  0.49982000  0.49982000  0.49982000  1
  P  P0  1  0.03910400  0.45949000  0.74979000  1
  P  P1  1  0.45949000  0.74979000  0.03910400  1
  P  P2  1  0.74979000  0.03910400  0.45949000  1
  P  P3  1  0.25111200  0.96228800  0.53928700  1
  P  P4  1  0.53928700  0.25111200  0.96228800  1
  P  P5  1  0.96228800  0.53928700  0.25111200  1
  O  O0  1  0.12514600  0.50646700  0.30484800  1
  O  O1  1  0.30484800  0.12514600  0.50646700  1
  O  O2  1  0.05582500  0.26133300  0.91744200  1
  O  O3  1  0.50646700  0.30484800  0.12514600  1
  O  O4  1  0.01070000  0.61956600  0.80245800  1
  O  O5  1  0.23676300  0.44304200  0.57947500  1
  O  O6  1  0.26133300  0.91744200  0.05582500  1
  O  O7  1  0.44304200  0.57947500  0.23676300  1
  O  O8  1  0.19831400  0.99025500  0.37788600  1
  O  O9  1  0.57947500  0.23676300  0.44304200  1
  O  O10  1  0.08572100  0.94458500  0.73581800  1
  O  O11  1  0.37788600  0.19831400  0.99025500  1
  O  O12  1  0.61956600  0.80245800  0.01070000  1
  O  O13  1  0.91744200  0.05582500  0.26133300  1
  O  O14  1  0.42117300  0.76490000  0.55339700  1
  O  O15  1  0.80245800  0.01070000  0.61956600  1
  O  O16  1  0.55339700  0.42117300  0.76490000  1
  O  O17  1  0.73581800  0.08572100  0.94458500  1
  O  O18  1  0.76490000  0.55339700  0.42117300  1
  O  O19  1  0.99025500  0.37788600  0.19831400  1
  O  O20  1  0.48893900  0.69721200  0.87704900  1
  O  O21  1  0.94458500  0.73581800  0.08572100  1
  O  O22  1  0.69721200  0.87704900  0.48893900  1
  O  O23  1  0.87704900  0.48893900  0.69721200  1
loop_
_geom_bond_atom_site_label_1
_geom_bond_atom_site_label_2
_geom_bond_distance
_geom_bond_site_symmetry_2
Mn0 O19 1.914920 1_455
Mn0 O8 1.914920 1_545
Mn0 O11 1.914920 1_554
Mn0 O6 1.994364 1_545
Mn0 O2 1.994364 1_554
Mn0 O13 1.994364 1_455
Mn1 O0 1.884100 1_555
Mn1 O3 1.884100 1_555
Mn1 O1 1.884100 1_555
Mn1 O9 1.958579 1_555
Mn1 O5 1.958579 1_555
Mn1 O7 1.958579 1_555
Mn2 O23 1.905090 1_555
Mn2 O20 1.905090 1_555
Mn2 O22 1.905090 1_555
Mn2 O14 1.974120 1_555
Mn2 O18 1.974120 1_555
Mn2 O16 1.974120 1_555
Cr0 O4 1.945162 1_655
Cr0 O15 1.945162 1_565
Cr0 O12 1.945162 1_556
Cr0 O17 1.997473 1_565
Cr0 O21 1.997473 1_556
Cr0 O10 1.997473 1_655
Cu0 O10 2.200809 1_655
Cu0 O17 2.200809 1_565
Cu0 O21 2.200809 1_556
Cu0 O13 2.215241 1_566
Cu0 O6 2.215241 1_656
Cu0 O2 2.215241 1_665
Cu1 O7 2.227460 1_555
Cu1 O9 2.227460 1_555
Cu1 O5 2.227460 1_555
Cu1 O16 2.231307 1_555
Cu1 O14 2.231307 1_555
Cu1 O18 2.231307 1_555
O0 P5 1.529202 1_455
O1 P3 1.529202 1_545
O2 P0 1.568000 1_555
O3 P4 1.529202 1_554
O4 P0 1.516442 1_555
O5 P0 1.575172 1_555
O6 P1 1.568000 1_555
O7 P1 1.575172 1_555
O8 P3 1.529786 1_555
O9 P2 1.575172 1_555
O10 P3 1.552082 1_555
O11 P4 1.529786 1_555
O12 P1 1.516442 1_555
O13 P2 1.568000 1_555
O14 P3 1.572771 1_555
O15 P2 1.516442 1_555
O16 P4 1.572771 1_555
O17 P4 1.552082 1_555
O18 P5 1.572771 1_555
O19 P5 1.529786 1_555
O20 P1 1.528377 1_556
O21 P5 1.552082 1_555
O22 P2 1.528377 1_565
O23 P0 1.528377 1_655
