# generated using pymatgen
data_NaCaMgAl(SiO3)4
_symmetry_space_group_name_H-M   'P 1'
_cell_length_a   7.95582000
_cell_length_b   7.58399600
_cell_length_c   8.92106960
_cell_angle_alpha   76.66351977
_cell_angle_beta   90.00000000
_cell_angle_gamma   90.00000000
_symmetry_Int_Tables_number   1
_chemical_formula_structural   NaCaMgAl(SiO3)4
_chemical_formula_sum   'Na2 Ca2 Mg2 Al2 Si8 O24'
_cell_volume   523.75379766
_cell_formula_units_Z   2
loop_
 _symmetry_equiv_pos_site_id
 _symmetry_equiv_pos_as_xyz
  1  'x, y, z'
loop_
 _atom_site_type_symbol
 _atom_site_label
 _atom_site_symmetry_multiplicity
 _atom_site_fract_x
 _atom_site_fract_y
 _atom_site_fract_z
 _atom_site_occupancy
  Na  Na0  1  0.18936500  0.63499900  0.05423700  1
  Na  Na1  1  0.81063500  0.13499900  0.05423700  1
  Ca  Ca0  1  0.16609100  0.01178600  0.23170100  1
  Ca  Ca1  1  0.83390900  0.51178600  0.23170100  1
  Mg  Mg0  1  0.13040400  0.42006800  0.80083700  1
  Mg  Mg1  1  0.86959600  0.92006800  0.80083700  1
  Al  Al0  1  0.11723600  0.52890100  0.43174600  1
  Al  Al1  1  0.88276400  0.02890100  0.43174600  1
  Si  Si0  1  0.22369600  0.02705500  0.82974700  1
  Si  Si1  1  0.36796300  0.22495600  0.52702700  1
  Si  Si2  1  0.77630400  0.52705500  0.82974700  1
  Si  Si3  1  0.63203700  0.72495600  0.52702700  1
  Si  Si4  1  0.47168300  0.35407600  0.03638100  1
  Si  Si5  1  0.52831700  0.85407600  0.03638100  1
  Si  Si6  1  0.76037800  0.31851000  0.57687300  1
  Si  Si7  1  0.23962200  0.81851000  0.57687300  1
  O  O0  1  0.93606100  0.38962300  0.47457200  1
  O  O1  1  0.06393900  0.88962300  0.47457200  1
  O  O2  1  0.73914300  0.71529200  0.70034300  1
  O  O3  1  0.38423200  0.99357800  0.95170800  1
  O  O4  1  0.06165400  0.67891300  0.25649900  1
  O  O5  1  0.26085700  0.21529200  0.70034300  1
  O  O6  1  0.79059300  0.34740300  0.75902200  1
  O  O7  1  0.61576800  0.49357800  0.95170800  1
  O  O8  1  0.93834600  0.17891300  0.25649900  1
  O  O9  1  0.71438700  0.88894100  0.97750700  1
  O  O10  1  0.20940700  0.84740300  0.75902200  1
  O  O11  1  0.28561300  0.38894100  0.97750700  1
  O  O12  1  0.70980100  0.89243400  0.40361000  1
  O  O13  1  0.16044600  0.59693700  0.60858300  1
  O  O14  1  0.94770500  0.54430400  0.92162200  1
  O  O15  1  0.29019900  0.39243400  0.40361000  1
  O  O16  1  0.83955400  0.09693700  0.60858300  1
  O  O17  1  0.53652100  0.18102000  0.15161700  1
  O  O18  1  0.43596300  0.73196800  0.57173000  1
  O  O19  1  0.05229500  0.04430400  0.92162200  1
  O  O20  1  0.46347900  0.68102000  0.15161700  1
  O  O21  1  0.56403700  0.23196800  0.57173000  1
  O  O22  1  0.32511000  0.03433600  0.48174000  1
  O  O23  1  0.67489000  0.53433600  0.48174000  1
loop_
_geom_bond_atom_site_label_1
_geom_bond_atom_site_label_2
_geom_bond_distance
_geom_bond_site_symmetry_2
Na0 O4 2.162485 1_555
Na0 O11 2.264188 1_554
Na0 O20 2.402560 1_555
Na0 O14 2.438151 1_454
Na0 O10 2.756656 1_554
Na1 O8 2.162485 1_555
Na1 O9 2.264188 1_544
Na1 O17 2.402560 1_555
Na1 O19 2.438151 1_654
Na1 O6 2.756656 1_554
Ca0 O8 2.251179 1_455
Ca0 O1 2.299398 1_545
Ca0 O22 2.604117 1_555
Ca0 O4 2.618166 1_545
Ca0 O19 2.866670 1_554
Ca1 O4 2.251179 1_655
Ca1 O0 2.299398 1_555
Ca1 O23 2.604117 1_555
Ca1 O8 2.618166 1_555
Ca1 O14 2.866670 1_554
Mg0 O13 1.933044 1_555
Mg0 O11 1.973042 1_555
Mg0 O14 2.151726 1_455
Mg0 O5 2.221506 1_555
Mg1 O16 1.933044 1_565
Mg1 O9 1.973042 1_555
Mg1 O19 2.151726 1_665
Mg1 O2 2.221506 1_555
Al0 O4 1.764514 1_555
Al0 O15 1.774134 1_555
Al0 O0 1.775710 1_455
Al0 O13 1.802413 1_555
Al1 O8 1.764514 1_555
Al1 O12 1.774134 1_545
Al1 O1 1.775710 1_645
Al1 O16 1.802413 1_555
O0 Si6 1.688274 1_555
O1 Si7 1.688274 1_555
O2 Si2 1.642499 1_555
O2 Si3 1.752089 1_555
O3 Si5 1.623350 1_556
O3 Si0 1.658928 1_565
O5 Si0 1.642499 1_555
O5 Si1 1.752089 1_555
O6 Si2 1.632162 1_555
O6 Si6 1.706041 1_555
O7 Si4 1.623350 1_556
O7 Si2 1.658928 1_555
O9 Si5 1.572611 1_556
O10 Si0 1.632162 1_565
O10 Si7 1.706041 1_555
O11 Si4 1.572611 1_556
O12 Si3 1.600973 1_555
O13 Si7 1.755358 1_555
O14 Si2 1.611788 1_555
O15 Si1 1.600973 1_555
O16 Si6 1.755358 1_555
O17 Si4 1.556604 1_555
O18 Si3 1.614011 1_555
O18 Si7 1.699054 1_555
O19 Si0 1.611788 1_555
O20 Si5 1.556604 1_555
O21 Si1 1.614011 1_555
O21 Si6 1.699054 1_555
O22 Si1 1.624451 1_555
O22 Si7 1.794761 1_545
O23 Si3 1.624451 1_555
O23 Si6 1.794761 1_555
