# generated using pymatgen
data_MgNb5O9
_symmetry_space_group_name_H-M   'P 1'
_cell_length_a   5.62377387
_cell_length_b   5.62377387
_cell_length_c   6.85297400
_cell_angle_alpha   90.00000000
_cell_angle_beta   90.00000000
_cell_angle_gamma   119.99999848
_symmetry_Int_Tables_number   1
_chemical_formula_structural   MgNb5O9
_chemical_formula_sum   'Mg1 Nb5 O9'
_cell_volume   187.70049661
_cell_formula_units_Z   1
loop_
 _symmetry_equiv_pos_site_id
 _symmetry_equiv_pos_as_xyz
  1  'x, y, z'
loop_
 _atom_site_type_symbol
 _atom_site_label
 _atom_site_symmetry_multiplicity
 _atom_site_fract_x
 _atom_site_fract_y
 _atom_site_fract_z
 _atom_site_occupancy
  Mg  Mg0  1  0.00000000  0.00000000  0.50000000  1
  Nb  Nb0  1  0.00000000  0.00000000  0.00000000  1
  Nb  Nb1  1  0.66666700  0.33333300  0.33892000  1
  Nb  Nb2  1  0.33333300  0.66666700  0.18149800  1
  Nb  Nb3  1  0.33333300  0.66666700  0.66108000  1
  Nb  Nb4  1  0.66666700  0.33333300  0.81850200  1
  O  O0  1  0.50000000  0.00000000  0.00000000  1
  O  O1  1  0.50000000  0.50000000  0.00000000  1
  O  O2  1  0.67016800  0.83508400  0.33239100  1
  O  O3  1  0.16491600  0.32983200  0.33239100  1
  O  O4  1  0.16491600  0.83508400  0.33239100  1
  O  O5  1  0.32983200  0.16491600  0.66760900  1
  O  O6  1  0.83508400  0.67016800  0.66760900  1
  O  O7  1  0.83508400  0.16491600  0.66760900  1
  O  O8  1  0.00000000  0.50000000  0.00000000  1
loop_
_geom_bond_atom_site_label_1
_geom_bond_atom_site_label_2
_geom_bond_distance
_geom_bond_site_symmetry_2
Mg0 O4 1.974796 1_545
Mg0 O7 1.974796 1_455
Mg0 O3 1.974796 1_555
Mg0 O5 1.974796 1_555
Mg0 O2 1.974796 1_445
Mg0 O6 1.974796 1_445
Nb0 O4 2.787323 1_545
Nb0 O7 2.787323 1_454
Nb0 O3 2.787323 1_555
Nb0 O5 2.787323 1_554
Nb0 O2 2.787323 1_445
Nb0 O6 2.787323 1_444
Nb0 O0 2.811887 1_555
Nb0 O8 2.811887 1_555
Nb0 O0 2.811887 1_455
Nb0 O8 2.811887 1_545
Nb0 O1 2.811887 1_555
Nb0 O1 2.811887 1_445
Nb1 O7 2.786568 1_555
Nb1 O6 2.786571 1_555
Nb1 O5 2.786571 1_555
Nb1 O3 2.812292 1_655
Nb1 O2 2.812292 1_545
Nb1 O4 2.812295 1_655
Nb1 O4 2.812295 1_545
Nb1 O2 2.812297 1_555
Nb1 O3 2.812297 1_555
Nb1 O0 2.833740 1_555
Nb1 O8 2.833740 1_655
Nb1 O1 2.833743 1_555
Nb2 O4 1.939203 1_555
Nb2 O2 1.939207 1_555
Nb2 O3 1.939207 1_555
Nb2 O0 2.045142 1_565
Nb2 O8 2.045142 1_555
Nb2 O1 2.045146 1_555
Nb3 O4 2.786568 1_555
Nb3 O2 2.786571 1_555
Nb3 O3 2.786571 1_555
Nb3 O5 2.812292 1_565
Nb3 O6 2.812292 1_455
Nb3 O7 2.812295 1_565
Nb3 O7 2.812295 1_455
Nb3 O6 2.812297 1_555
Nb3 O5 2.812297 1_555
Nb3 O8 2.833740 1_556
Nb3 O0 2.833740 1_566
Nb3 O1 2.833743 1_556
Nb4 O7 1.939203 1_555
Nb4 O6 1.939207 1_555
Nb4 O5 1.939207 1_555
Nb4 O8 2.045142 1_656
Nb4 O0 2.045142 1_556
Nb4 O1 2.045146 1_556
