# generated using pymatgen
data_Li2Co2(SO4)3
_symmetry_space_group_name_H-M   'P 1'
_cell_length_a   8.65126400
_cell_length_b   8.76094900
_cell_length_c   24.04798100
_cell_angle_alpha   90.00000000
_cell_angle_beta   90.00000000
_cell_angle_gamma   90.00000000
_symmetry_Int_Tables_number   1
_chemical_formula_structural   Li2Co2(SO4)3
_chemical_formula_sum   'Li16 Co16 S24 O96'
_cell_volume   1822.67542205
_cell_formula_units_Z   8
loop_
 _symmetry_equiv_pos_site_id
 _symmetry_equiv_pos_as_xyz
  1  'x, y, z'
loop_
 _atom_site_type_symbol
 _atom_site_label
 _atom_site_symmetry_multiplicity
 _atom_site_fract_x
 _atom_site_fract_y
 _atom_site_fract_z
 _atom_site_occupancy
  Li  Li0  1  0.03728400  0.62208100  0.29045600  1
  Li  Li1  1  0.03728400  0.87791900  0.79045600  1
  Li  Li2  1  0.14541200  0.56889300  0.50918400  1
  Li  Li3  1  0.14541200  0.93110700  0.00918400  1
  Li  Li4  1  0.35458800  0.06889300  0.50918400  1
  Li  Li5  1  0.35458800  0.43110700  0.00918400  1
  Li  Li6  1  0.46271600  0.12208100  0.29045600  1
  Li  Li7  1  0.46271600  0.37791900  0.79045600  1
  Li  Li8  1  0.53728400  0.62208100  0.20954400  1
  Li  Li9  1  0.53728400  0.87791900  0.70954400  1
  Li  Li10  1  0.64541200  0.56889300  0.99081600  1
  Li  Li11  1  0.64541200  0.93110700  0.49081600  1
  Li  Li12  1  0.85458800  0.43110700  0.49081600  1
  Li  Li13  1  0.85458800  0.06889300  0.99081600  1
  Li  Li14  1  0.96271600  0.12208100  0.20954400  1
  Li  Li15  1  0.96271600  0.37791900  0.70954400  1
  Co  Co0  1  0.00393600  0.39962200  0.06362200  1
  Co  Co1  1  0.00393600  0.10037800  0.56362200  1
  Co  Co2  1  0.99968000  0.79584700  0.17902400  1
  Co  Co3  1  0.99968000  0.70415300  0.67902400  1
  Co  Co4  1  0.50032000  0.29584700  0.17902400  1
  Co  Co5  1  0.50032000  0.20415300  0.67902400  1
  Co  Co6  1  0.49606400  0.60037800  0.56362200  1
  Co  Co7  1  0.49606400  0.89962200  0.06362200  1
  Co  Co8  1  0.50393600  0.39962200  0.43637800  1
  Co  Co9  1  0.50393600  0.10037800  0.93637800  1
  Co  Co10  1  0.49968000  0.70415300  0.82097600  1
  Co  Co11  1  0.49968000  0.79584700  0.32097600  1
  Co  Co12  1  0.00032000  0.29584700  0.32097600  1
  Co  Co13  1  0.00032000  0.20415300  0.82097600  1
  Co  Co14  1  0.99606400  0.89962200  0.43637800  1
  Co  Co15  1  0.99606400  0.60037800  0.93637800  1
  S  S0  1  0.14381100  0.94710800  0.29970800  1
  S  S1  1  0.14381100  0.55289200  0.79970800  1
  S  S2  1  0.14860400  0.25373700  0.44677100  1
  S  S3  1  0.14860400  0.24626300  0.94677100  1
  S  S4  1  0.19685500  0.09425400  0.11651100  1
  S  S5  1  0.19685500  0.40574600  0.61651100  1
  S  S6  1  0.30314500  0.59425400  0.11651100  1
  S  S7  1  0.30314500  0.90574600  0.61651100  1
  S  S8  1  0.35139600  0.75373700  0.44677100  1
  S  S9  1  0.35139600  0.74626300  0.94677100  1
  S  S10  1  0.35618900  0.44710800  0.29970800  1
  S  S11  1  0.35618900  0.05289200  0.79970800  1
  S  S12  1  0.64381100  0.55289200  0.70029200  1
  S  S13  1  0.64381100  0.94710800  0.20029200  1
  S  S14  1  0.64860400  0.24626300  0.55322900  1
  S  S15  1  0.64860400  0.25373700  0.05322900  1
  S  S16  1  0.69685500  0.09425400  0.38348900  1
  S  S17  1  0.69685500  0.40574600  0.88348900  1
  S  S18  1  0.80314500  0.59425400  0.38348900  1
  S  S19  1  0.80314500  0.90574600  0.88348900  1
  S  S20  1  0.85139600  0.75373700  0.05322900  1
  S  S21  1  0.85139600  0.74626300  0.55322900  1
  S  S22  1  0.85618900  0.44710800  0.20029200  1
  S  S23  1  0.85618900  0.05289200  0.70029200  1
  O  O0  1  0.06384500  0.39050100  0.46519800  1
  O  O1  1  0.06384500  0.10949900  0.96519800  1
  O  O2  1  0.08202000  0.09612700  0.27913200  1
  O  O3  1  0.08202000  0.40387300  0.77913200  1
  O  O4  1  0.08362700  0.11068300  0.47488300  1
  O  O5  1  0.08362700  0.38931700  0.97488300  1
  O  O6  1  0.08690800  0.91246100  0.35565400  1
  O  O7  1  0.08690800  0.58753900  0.85565400  1
  O  O8  1  0.09469300  0.19116000  0.08239700  1
  O  O9  1  0.09469300  0.30884000  0.58239700  1
  O  O10  1  0.09188100  0.82295700  0.26104700  1
  O  O11  1  0.09188100  0.67704300  0.76104700  1
  O  O12  1  0.09864300  0.00954800  0.15721200  1
  O  O13  1  0.09864300  0.49045200  0.65721200  1
  O  O14  1  0.13954700  0.23242700  0.38654600  1
  O  O15  1  0.13954700  0.26757300  0.88654600  1
  O  O16  1  0.18349400  0.45389600  0.29817300  1
  O  O17  1  0.18349400  0.04610400  0.79817300  1
  O  O18  1  0.18712400  0.68294500  0.14690600  1
  O  O19  1  0.18712400  0.81705500  0.64690600  1
  O  O20  1  0.18716300  0.76448000  0.46574700  1
  O  O21  1  0.18716300  0.73552000  0.96574700  1
  O  O22  1  0.22730100  0.48332000  0.07724700  1
  O  O23  1  0.22730100  0.01668000  0.57724700  1
  O  O24  1  0.27269900  0.98332000  0.07724700  1
  O  O25  1  0.27269900  0.51668000  0.57724700  1
  O  O26  1  0.31283700  0.23552000  0.96574700  1
  O  O27  1  0.31283700  0.26448000  0.46574700  1
  O  O28  1  0.31287600  0.18294500  0.14690600  1
  O  O29  1  0.31287600  0.31705500  0.64690600  1
  O  O30  1  0.31650600  0.95389600  0.29817300  1
  O  O31  1  0.31650600  0.54610400  0.79817300  1
  O  O32  1  0.36045300  0.73242700  0.38654600  1
  O  O33  1  0.36045300  0.76757300  0.88654600  1
  O  O34  1  0.40135700  0.50954800  0.15721200  1
  O  O35  1  0.40135700  0.99045200  0.65721200  1
  O  O36  1  0.40811900  0.32295700  0.26104700  1
  O  O37  1  0.40811900  0.17704300  0.76104700  1
  O  O38  1  0.40530700  0.69116000  0.08239700  1
  O  O39  1  0.40530700  0.80884000  0.58239700  1
  O  O40  1  0.41309200  0.08753900  0.85565400  1
  O  O41  1  0.41309200  0.41246100  0.35565400  1
  O  O42  1  0.41637300  0.61068300  0.47488300  1
  O  O43  1  0.41637300  0.88931700  0.97488300  1
  O  O44  1  0.41798000  0.59612700  0.27913200  1
  O  O45  1  0.41798000  0.90387300  0.77913200  1
  O  O46  1  0.43615500  0.60949900  0.96519800  1
  O  O47  1  0.43615500  0.89050100  0.46519800  1
  O  O48  1  0.56384500  0.39050100  0.03480200  1
  O  O49  1  0.56384500  0.10949900  0.53480200  1
  O  O50  1  0.58202000  0.09612700  0.22086800  1
  O  O51  1  0.58202000  0.40387300  0.72086800  1
  O  O52  1  0.58362700  0.11068300  0.02511700  1
  O  O53  1  0.58362700  0.38931700  0.52511700  1
  O  O54  1  0.58690800  0.58753900  0.64434600  1
  O  O55  1  0.58690800  0.91246100  0.14434600  1
  O  O56  1  0.59469300  0.19116000  0.41760300  1
  O  O57  1  0.59469300  0.30884000  0.91760300  1
  O  O58  1  0.59188100  0.67704300  0.73895300  1
  O  O59  1  0.59188100  0.82295700  0.23895300  1
  O  O60  1  0.59864300  0.00954800  0.34278800  1
  O  O61  1  0.59864300  0.49045200  0.84278800  1
  O  O62  1  0.63954700  0.23242700  0.11345400  1
  O  O63  1  0.63954700  0.26757300  0.61345400  1
  O  O64  1  0.68349400  0.45389600  0.20182700  1
  O  O65  1  0.68349400  0.04610400  0.70182700  1
  O  O66  1  0.68712400  0.68294500  0.35309400  1
  O  O67  1  0.68712400  0.81705500  0.85309400  1
  O  O68  1  0.68716300  0.76448000  0.03425300  1
  O  O69  1  0.68716300  0.73552000  0.53425300  1
  O  O70  1  0.72730100  0.48332000  0.42275300  1
  O  O71  1  0.72730100  0.01668000  0.92275300  1
  O  O72  1  0.77269900  0.98332000  0.42275300  1
  O  O73  1  0.77269900  0.51668000  0.92275300  1
  O  O74  1  0.81283700  0.26448000  0.03425300  1
  O  O75  1  0.81283700  0.23552000  0.53425300  1
  O  O76  1  0.81287600  0.18294500  0.35309400  1
  O  O77  1  0.81287600  0.31705500  0.85309400  1
  O  O78  1  0.81650600  0.54610400  0.70182700  1
  O  O79  1  0.81650600  0.95389600  0.20182700  1
  O  O80  1  0.86045300  0.73242700  0.11345400  1
  O  O81  1  0.86045300  0.76757300  0.61345400  1
  O  O82  1  0.90135700  0.50954800  0.34278800  1
  O  O83  1  0.90135700  0.99045200  0.84278800  1
  O  O84  1  0.90811900  0.32295700  0.23895300  1
  O  O85  1  0.90811900  0.17704300  0.73895300  1
  O  O86  1  0.90530700  0.69116000  0.41760300  1
  O  O87  1  0.90530700  0.80884000  0.91760300  1
  O  O88  1  0.91309200  0.41246100  0.14434600  1
  O  O89  1  0.91309200  0.08753900  0.64434600  1
  O  O90  1  0.91637300  0.61068300  0.02511700  1
  O  O91  1  0.91637300  0.88931700  0.52511700  1
  O  O92  1  0.91798000  0.59612700  0.22086800  1
  O  O93  1  0.91798000  0.90387300  0.72086800  1
  O  O94  1  0.93615500  0.60949900  0.53480200  1
  O  O95  1  0.93615500  0.89050100  0.03480200  1
loop_
_geom_bond_atom_site_label_1
_geom_bond_atom_site_label_2
_geom_bond_distance
_geom_bond_site_symmetry_2
Li0 O16 1.950769 1_555
Li0 O10 1.954582 1_555
Li0 O92 1.979251 1_455
Li0 O82 1.984590 1_455
Li1 O17 1.950769 1_565
Li1 O11 1.954582 1_555
Li1 O93 1.979251 1_455
Li1 O83 1.984590 1_455
Li2 O94 1.945099 1_455
Li2 O0 2.014806 1_555
Li2 O25 2.025072 1_555
Li2 O20 2.039062 1_555
Li2 O42 2.511875 1_555
Li3 O95 1.945099 1_455
Li3 O1 2.014806 1_564
Li3 O24 2.025072 1_555
Li3 O21 2.039062 1_554
Li3 O43 2.511875 1_554
Li4 O49 1.945099 1_555
Li4 O47 2.014806 1_545
Li4 O23 2.025072 1_555
Li4 O27 2.039062 1_555
Li4 O4 2.511875 1_555
Li5 O48 1.945099 1_555
Li5 O46 2.014806 1_554
Li5 O22 2.025072 1_555
Li5 O26 2.039062 1_554
Li5 O5 2.511875 1_554
Li6 O30 1.950769 1_545
Li6 O36 1.954582 1_555
Li6 O50 1.979251 1_555
Li6 O60 1.984590 1_555
Li7 O31 1.950769 1_555
Li7 O37 1.954582 1_555
Li7 O51 1.979251 1_555
Li7 O61 1.984590 1_555
Li8 O64 1.950769 1_555
Li8 O59 1.954582 1_555
Li8 O44 1.979251 1_555
Li8 O34 1.984590 1_555
Li9 O65 1.950769 1_565
Li9 O58 1.954582 1_555
Li9 O45 1.979251 1_555
Li9 O35 1.984590 1_555
Li10 O46 1.945099 1_555
Li10 O48 2.014806 1_556
Li10 O73 2.025072 1_555
Li10 O68 2.039062 1_556
Li10 O90 2.511875 1_556
Li11 O47 1.945099 1_555
Li11 O49 2.014806 1_565
Li11 O72 2.025072 1_555
Li11 O69 2.039062 1_555
Li11 O91 2.511875 1_555
Li12 O0 1.945099 1_655
Li12 O94 2.014806 1_555
Li12 O70 2.025072 1_555
Li12 O75 2.039062 1_555
Li12 O53 2.511875 1_555
Li13 O1 1.945099 1_655
Li13 O95 2.014806 1_546
Li13 O71 2.025072 1_555
Li13 O74 2.039062 1_556
Li13 O52 2.511875 1_556
Li14 O79 1.950769 1_545
Li14 O84 1.954582 1_555
Li14 O2 1.979251 1_655
Li14 O12 1.984590 1_655
Li15 O78 1.950769 1_555
Li15 O85 1.954582 1_555
Li15 O3 1.979251 1_655
Li15 O13 1.984590 1_655
Co0 O8 2.038577 1_555
Co0 O22 2.092648 1_555
Co0 O88 2.097323 1_455
Co0 O74 2.152633 1_455
Co0 O90 2.202367 1_455
Co0 O5 2.244413 1_554
Co1 O9 2.038577 1_555
Co1 O23 2.092648 1_555
Co1 O89 2.097323 1_455
Co1 O75 2.152633 1_455
Co1 O91 2.202367 1_445
Co1 O4 2.244413 1_555
Co2 O18 2.050515 1_655
Co2 O80 2.060555 1_555
Co2 O12 2.124467 1_665
Co2 O92 2.138626 1_555
Co2 O10 2.140881 1_655
Co2 O79 2.174677 1_555
Co3 O19 2.050515 1_655
Co3 O81 2.060555 1_555
Co3 O13 2.124467 1_655
Co3 O93 2.138626 1_555
Co3 O11 2.140881 1_655
Co3 O78 2.174677 1_555
Co4 O28 2.050515 1_555
Co4 O62 2.060555 1_555
Co4 O34 2.124467 1_555
Co4 O50 2.138626 1_555
Co4 O36 2.140881 1_555
Co4 O64 2.174677 1_555
Co5 O29 2.050515 1_555
Co5 O63 2.060555 1_555
Co5 O35 2.124467 1_545
Co5 O51 2.138626 1_555
Co5 O37 2.140881 1_555
Co5 O65 2.174677 1_555
Co6 O39 2.038577 1_555
Co6 O25 2.092648 1_555
Co6 O54 2.097323 1_555
Co6 O69 2.152633 1_555
Co6 O53 2.202367 1_555
Co6 O42 2.244413 1_555
Co7 O38 2.038577 1_555
Co7 O24 2.092648 1_555
Co7 O55 2.097323 1_555
Co7 O68 2.152633 1_555
Co7 O52 2.202367 1_565
Co7 O43 2.244413 1_554
Co8 O56 2.038577 1_555
Co8 O70 2.092648 1_555
Co8 O41 2.097323 1_555
Co8 O27 2.152633 1_555
Co8 O42 2.202367 1_555
Co8 O53 2.244413 1_555
Co9 O57 2.038577 1_555
Co9 O71 2.092648 1_555
Co9 O40 2.097323 1_555
Co9 O26 2.152633 1_555
Co9 O43 2.202367 1_545
Co9 O52 2.244413 1_556
Co10 O67 2.050515 1_555
Co10 O33 2.060555 1_555
Co10 O61 2.124467 1_555
Co10 O45 2.138626 1_555
Co10 O58 2.140881 1_555
Co10 O31 2.174677 1_555
Co11 O66 2.050515 1_555
Co11 O32 2.060555 1_555
Co11 O60 2.124467 1_565
Co11 O44 2.138626 1_555
Co11 O59 2.140881 1_555
Co11 O30 2.174677 1_555
Co12 O76 2.050515 1_455
Co12 O14 2.060555 1_555
Co12 O82 2.124467 1_455
Co12 O2 2.138626 1_555
Co12 O84 2.140881 1_455
Co12 O16 2.174677 1_555
Co13 O77 2.050515 1_455
Co13 O15 2.060555 1_555
Co13 O83 2.124467 1_445
Co13 O3 2.138626 1_555
Co13 O85 2.140881 1_455
Co13 O17 2.174677 1_555
Co14 O86 2.038577 1_555
Co14 O72 2.092648 1_555
Co14 O6 2.097323 1_655
Co14 O20 2.152633 1_655
Co14 O4 2.202367 1_665
Co14 O91 2.244413 1_555
Co15 O87 2.038577 1_555
Co15 O73 2.092648 1_555
Co15 O7 2.097323 1_655
Co15 O21 2.152633 1_655
Co15 O5 2.202367 1_655
Co15 O90 2.244413 1_556
O0 S2 1.472989 1_555
O1 S3 1.472989 1_555
O2 S0 1.495011 1_545
O3 S1 1.495011 1_555
O4 S2 1.530932 1_555
O5 S3 1.530932 1_555
O6 S0 1.464428 1_555
O7 S1 1.464428 1_555
O8 S4 1.474771 1_555
O9 S5 1.474771 1_555
O10 S0 1.499754 1_555
O11 S1 1.499754 1_555
O12 S4 1.493534 1_555
O13 S5 1.493534 1_555
O14 S2 1.462374 1_555
O15 S3 1.462374 1_555
O16 S10 1.495669 1_555
O17 S11 1.495669 1_555
O18 S6 1.464752 1_555
O19 S7 1.464752 1_555
O20 S8 1.495272 1_555
O21 S9 1.495272 1_555
O22 S6 1.505538 1_555
O23 S7 1.505538 1_545
O24 S4 1.505538 1_565
O25 S5 1.505538 1_555
O26 S3 1.495272 1_555
O27 S2 1.495272 1_555
O28 S4 1.464752 1_555
O29 S5 1.464752 1_555
O30 S0 1.495669 1_555
O31 S1 1.495669 1_555
O32 S8 1.462374 1_555
O33 S9 1.462374 1_555
O34 S6 1.493534 1_555
O35 S7 1.493534 1_555
O36 S10 1.499754 1_555
O37 S11 1.499754 1_555
O38 S6 1.474771 1_555
O39 S7 1.474771 1_555
O40 S11 1.464428 1_555
O41 S10 1.464428 1_555
O42 S8 1.530932 1_555
O43 S9 1.530932 1_555
O44 S10 1.495011 1_555
O45 S11 1.495011 1_565
O46 S9 1.472989 1_555
O47 S8 1.472989 1_555
O48 S15 1.472989 1_555
O49 S14 1.472989 1_555
O50 S13 1.495011 1_545
O51 S12 1.495011 1_555
O52 S15 1.530932 1_555
O53 S14 1.530932 1_555
O54 S12 1.464428 1_555
O55 S13 1.464428 1_555
O56 S16 1.474771 1_555
O57 S17 1.474771 1_555
O58 S12 1.499754 1_555
O59 S13 1.499754 1_555
O60 S16 1.493534 1_555
O61 S17 1.493534 1_555
O62 S15 1.462374 1_555
O63 S14 1.462374 1_555
O64 S22 1.495669 1_555
O65 S23 1.495669 1_555
O66 S18 1.464752 1_555
O67 S19 1.464752 1_555
O68 S20 1.495272 1_555
O69 S21 1.495272 1_555
O70 S18 1.505538 1_555
O71 S19 1.505538 1_545
O72 S16 1.505538 1_565
O73 S17 1.505538 1_555
O74 S15 1.495272 1_555
O75 S14 1.495272 1_555
O76 S16 1.464752 1_555
O77 S17 1.464752 1_555
O78 S12 1.495669 1_555
O79 S13 1.495669 1_555
O80 S20 1.462374 1_555
O81 S21 1.462374 1_555
O82 S18 1.493534 1_555
O83 S19 1.493534 1_555
O84 S22 1.499754 1_555
O85 S23 1.499754 1_555
O86 S18 1.474771 1_555
O87 S19 1.474771 1_555
O88 S22 1.464428 1_555
O89 S23 1.464428 1_555
O90 S20 1.530932 1_555
O91 S21 1.530932 1_555
O92 S22 1.495011 1_555
O93 S23 1.495011 1_565
O94 S21 1.472989 1_555
O95 S20 1.472989 1_555
