# generated using pymatgen
data_Li4Cr2C4SO16
_symmetry_space_group_name_H-M   'P 1'
_cell_length_a   9.64607515
_cell_length_b   9.55069831
_cell_length_c   9.25610865
_cell_angle_alpha   61.69129796
_cell_angle_beta   60.65682064
_cell_angle_gamma   57.65188140
_symmetry_Int_Tables_number   1
_chemical_formula_structural   Li4Cr2C4SO16
_chemical_formula_sum   'Li8 Cr4 C8 S2 O32'
_cell_volume   601.38507611
_cell_formula_units_Z   2
loop_
 _symmetry_equiv_pos_site_id
 _symmetry_equiv_pos_as_xyz
  1  'x, y, z'
loop_
 _atom_site_type_symbol
 _atom_site_label
 _atom_site_symmetry_multiplicity
 _atom_site_fract_x
 _atom_site_fract_y
 _atom_site_fract_z
 _atom_site_occupancy
  Li  Li0  1  0.95228500  0.54771500  0.95228500  1
  Li  Li1  1  0.95387200  0.54612800  0.54612800  1
  Li  Li2  1  0.70387200  0.29612800  0.29612800  1
  Li  Li3  1  0.70228500  0.29771500  0.70228500  1
  Li  Li4  1  0.54771500  0.95228500  0.54771500  1
  Li  Li5  1  0.54612800  0.95387200  0.95387200  1
  Li  Li6  1  0.29612800  0.70387200  0.70387200  1
  Li  Li7  1  0.29771500  0.70228500  0.29771500  1
  Cr  Cr0  1  0.12500000  0.62500000  0.12500000  1
  Cr  Cr1  1  0.62500000  0.12500000  0.12500000  1
  Cr  Cr2  1  0.12500000  0.12500000  0.12500000  1
  Cr  Cr3  1  0.12500000  0.12500000  0.62500000  1
  C  C0  1  0.89593600  0.27611200  0.91676500  1
  C  C1  1  0.97388800  0.35406400  0.33881400  1
  C  C2  1  0.91676500  0.91118600  0.89593600  1
  C  C3  1  0.91118600  0.91676500  0.27611200  1
  C  C4  1  0.33881400  0.33323500  0.97388800  1
  C  C5  1  0.33323500  0.33881400  0.35406400  1
  C  C6  1  0.27611200  0.89593600  0.91118600  1
  C  C7  1  0.35406400  0.97388800  0.33323500  1
  S  S0  1  0.50000000  0.50000000  0.50000000  1
  S  S1  1  0.75000000  0.75000000  0.75000000  1
  O  O0  1  0.01776700  0.28186400  0.93469800  1
  O  O1  1  0.55867900  0.55630800  0.30631900  1
  O  O2  1  0.75865500  0.26800400  0.04500300  1
  O  O3  1  0.98199600  0.49134500  0.32166300  1
  O  O4  1  0.04500300  0.92833700  0.75865500  1
  O  O5  1  0.96753600  0.33686100  0.21123800  1
  O  O6  1  0.30631900  0.57869300  0.55867900  1
  O  O7  1  0.55630800  0.55867900  0.57869300  1
  O  O8  1  0.48436500  0.21123800  0.33686100  1
  O  O9  1  0.92833700  0.04500300  0.26800400  1
  O  O10  1  0.96813600  0.23223300  0.48432900  1
  O  O11  1  0.57869300  0.30631900  0.55630800  1
  O  O12  1  0.93469800  0.76567100  0.01776700  1
  O  O13  1  0.76567100  0.93469800  0.28186400  1
  O  O14  1  0.91313900  0.28246400  0.76563500  1
  O  O15  1  0.21123800  0.48436500  0.96753600  1
  O  O16  1  0.03876200  0.76563500  0.28246400  1
  O  O17  1  0.33686100  0.96753600  0.48436500  1
  O  O18  1  0.48432900  0.31530200  0.96813600  1
  O  O19  1  0.31530200  0.48432900  0.23223300  1
  O  O20  1  0.67130700  0.94368100  0.69369200  1
  O  O21  1  0.28186400  0.01776700  0.76567100  1
  O  O22  1  0.32166300  0.20499700  0.98199600  1
  O  O23  1  0.76563500  0.03876200  0.91313900  1
  O  O24  1  0.69369200  0.69132100  0.67130700  1
  O  O25  1  0.94368100  0.67130700  0.69132100  1
  O  O26  1  0.28246400  0.91313900  0.03876200  1
  O  O27  1  0.20499700  0.32166300  0.49134500  1
  O  O28  1  0.26800400  0.75865500  0.92833700  1
  O  O29  1  0.49134500  0.98199600  0.20499700  1
  O  O30  1  0.69132100  0.69369200  0.94368100  1
  O  O31  1  0.23223300  0.96813600  0.31530200  1
loop_
_geom_bond_atom_site_label_1
_geom_bond_atom_site_label_2
_geom_bond_distance
_geom_bond_site_symmetry_2
Li0 O25 2.149954 1_555
Li0 O30 2.149954 1_555
Li0 O15 2.296235 1_655
Li0 O5 2.296235 1_556
Li0 O12 2.333947 1_556
Li0 O0 2.333947 1_655
Li1 O24 2.124556 1_555
Li1 O25 2.124561 1_555
Li1 O3 2.234008 1_555
Li1 O27 2.234012 1_655
Li1 O14 2.459170 1_555
Li1 O16 2.459170 1_655
Li2 O11 2.124553 1_555
Li2 O1 2.124553 1_555
Li2 O9 2.234013 1_555
Li2 O2 2.234017 1_555
Li2 O5 2.459170 1_555
Li2 O8 2.459170 1_555
Li3 O7 2.149957 1_555
Li3 O11 2.149962 1_555
Li3 O23 2.296235 1_555
Li3 O14 2.296235 1_555
Li3 O18 2.333947 1_555
Li3 O10 2.333947 1_555
Li4 O24 2.149957 1_555
Li4 O20 2.149962 1_555
Li4 O8 2.296235 1_565
Li4 O17 2.296235 1_555
Li4 O21 2.333947 1_565
Li4 O13 2.333947 1_555
Li5 O20 2.124553 1_555
Li5 O30 2.124553 1_555
Li5 O22 2.234013 1_565
Li5 O29 2.234017 1_556
Li5 O26 2.459170 1_556
Li5 O23 2.459170 1_565
Li6 O7 2.124556 1_555
Li6 O6 2.124561 1_555
Li6 O28 2.234008 1_555
Li6 O4 2.234012 1_555
Li6 O17 2.459170 1_555
Li6 O15 2.459170 1_555
Li7 O6 2.149954 1_555
Li7 O1 2.149954 1_555
Li7 O16 2.296235 1_555
Li7 O26 2.296235 1_555
Li7 O31 2.333947 1_555
Li7 O19 2.333947 1_555
Cr0 O19 2.010383 1_555
Cr0 O12 2.010383 1_455
Cr0 O28 2.016270 1_554
Cr0 O3 2.016270 1_455
Cr0 O16 2.023159 1_555
Cr0 O15 2.023159 1_554
Cr1 O13 2.010383 1_545
Cr1 O18 2.010383 1_554
Cr1 O2 2.016268 1_555
Cr1 O29 2.016268 1_545
Cr1 O8 2.023159 1_555
Cr1 O23 2.023159 1_554
Cr2 O31 2.010383 1_545
Cr2 O0 2.010383 1_554
Cr2 O22 2.016276 1_554
Cr2 O9 2.016276 1_455
Cr2 O5 2.023159 1_455
Cr2 O26 2.023159 1_545
Cr3 O21 2.010383 1_555
Cr3 O10 2.010383 1_455
Cr3 O27 2.016276 1_555
Cr3 O4 2.016276 1_545
Cr3 O17 2.023159 1_545
Cr3 O14 2.023159 1_455
C0 O2 1.284731 1_556
C0 O0 1.296366 1_655
C0 O14 1.300326 1_555
C1 O3 1.284731 1_555
C1 O10 1.296360 1_555
C1 O5 1.300335 1_555
C2 O4 1.284731 1_655
C2 O12 1.296360 1_556
C2 O23 1.300329 1_565
C3 O9 1.284731 1_565
C3 O13 1.296356 1_555
C3 O16 1.300329 1_655
C4 O22 1.284731 1_555
C4 O18 1.296356 1_555
C4 O15 1.300329 1_555
C5 O27 1.284731 1_555
C5 O19 1.296360 1_555
C5 O8 1.300329 1_555
C6 O28 1.284731 1_555
C6 O21 1.296360 1_565
C6 O26 1.300335 1_556
C7 O29 1.284731 1_555
C7 O31 1.296366 1_555
C7 O17 1.300326 1_555
O1 S0 1.496769 1_555
O6 S0 1.496768 1_555
O7 S0 1.496761 1_555
O11 S0 1.496768 1_555
O20 S1 1.496768 1_555
O24 S1 1.496761 1_555
O25 S1 1.496768 1_555
O30 S1 1.496769 1_555
