# generated using pymatgen
data_Li12Cr5O16
_symmetry_space_group_name_H-M   'P 1'
_cell_length_a   5.83433800
_cell_length_b   5.83926171
_cell_length_c   9.65833256
_cell_angle_alpha   90.12712401
_cell_angle_beta   89.97452686
_cell_angle_gamma   119.81669085
_symmetry_Int_Tables_number   1
_chemical_formula_structural   Li12Cr5O16
_chemical_formula_sum   'Li12 Cr5 O16'
_cell_volume   285.48307314
_cell_formula_units_Z   1
loop_
 _symmetry_equiv_pos_site_id
 _symmetry_equiv_pos_as_xyz
  1  'x, y, z'
loop_
 _atom_site_type_symbol
 _atom_site_label
 _atom_site_symmetry_multiplicity
 _atom_site_fract_x
 _atom_site_fract_y
 _atom_site_fract_z
 _atom_site_occupancy
  Li  Li0  1  0.99062300  0.00361900  0.07573300  1
  Li  Li1  1  0.65272700  0.82531400  0.73566600  1
  Li  Li2  1  0.78581300  0.16565000  0.95741000  1
  Li  Li3  1  0.83997800  0.20247500  0.23751900  1
  Li  Li4  1  0.62901600  0.83603500  0.49046700  1
  Li  Li5  1  0.64500600  0.31145700  0.74550700  1
  Li  Li6  1  0.79095100  0.62036200  0.96286500  1
  Li  Li7  1  0.31914300  0.68041000  0.25132300  1
  Li  Li8  1  0.15614000  0.33501200  0.46381200  1
  Li  Li9  1  0.84047500  0.66513800  0.23440200  1
  Li  Li10  1  0.34466000  0.17190900  0.95689600  1
  Li  Li11  1  0.15180500  0.86285700  0.45946900  1
  Cr  Cr0  1  0.15713000  0.33243000  0.72511400  1
  Cr  Cr1  1  0.15638500  0.82829300  0.72570600  1
  Cr  Cr2  1  0.69893900  0.36503200  0.48773200  1
  Cr  Cr3  1  0.33609500  0.67670300  0.98659700  1
  Cr  Cr4  1  0.36939700  0.21683700  0.23792100  1
  O  O0  1  0.83884800  0.18195200  0.60211500  1
  O  O1  1  0.45637400  0.49272000  0.85287400  1
  O  O2  1  0.97916800  0.50445000  0.36900600  1
  O  O3  1  0.64213900  0.82558600  0.08140000  1
  O  O4  1  0.82448000  0.65829700  0.60193300  1
  O  O5  1  0.46614000  0.97483900  0.85217000  1
  O  O6  1  0.50544100  0.05006300  0.36051100  1
  O  O7  1  0.18903200  0.35627300  0.11094300  1
  O  O8  1  0.30511700  0.64370700  0.61835800  1
  O  O9  1  0.62150100  0.31480300  0.11565800  1
  O  O10  1  0.00629800  0.50248400  0.85180600  1
  O  O11  1  0.50698100  0.49795500  0.35743100  1
  O  O12  1  0.32879700  0.16793400  0.60828300  1
  O  O13  1  0.16437100  0.81857200  0.09235400  1
  O  O14  1  0.04717900  0.03255800  0.30973800  1
  O  O15  1  0.00431300  0.01433200  0.83607300  1
loop_
_geom_bond_atom_site_label_1
_geom_bond_atom_site_label_2
_geom_bond_distance
_geom_bond_site_symmetry_2
Li0 O3 1.765148 1_545
Li0 O13 1.819647 1_645
Li0 O7 1.822865 1_655
Li0 O14 2.277937 1_655
Li0 O15 2.315969 1_654
Li1 O15 2.027783 1_665
Li1 O5 2.037970 1_555
Li1 O1 2.040032 1_555
Li1 O8 2.092677 1_555
Li1 O4 2.142124 1_555
Li1 O0 2.222974 1_565
Li2 O5 1.919175 1_545
Li2 O10 2.013771 1_655
Li2 O3 2.105757 1_546
Li2 O9 2.199247 1_556
Li2 O15 2.212115 1_655
Li2 O7 2.522687 1_656
Li3 O2 1.987077 1_555
Li3 O14 2.031986 1_655
Li3 O9 2.067961 1_555
Li3 O6 2.070724 1_555
Li3 O7 2.152273 1_655
Li3 O3 2.431031 1_545
Li4 O8 2.061961 1_555
Li4 O0 2.067351 1_565
Li4 O6 2.135642 1_565
Li4 O11 2.155671 1_555
Li4 O4 2.172498 1_555
Li5 O5 1.995513 1_545
Li5 O12 2.078982 1_555
Li5 O10 2.097654 1_655
Li5 O1 2.135263 1_555
Li5 O0 2.147873 1_555
Li5 O4 2.241287 1_555
Li6 O1 2.011465 1_555
Li6 O10 2.014560 1_655
Li6 O3 2.127966 1_556
Li6 O9 2.143568 1_556
Li6 O13 2.266860 1_656
Li6 O15 2.346236 1_665
Li7 O2 2.063603 1_455
Li7 O11 2.133852 1_555
Li7 O13 2.134205 1_555
Li7 O7 2.134864 1_555
Li7 O6 2.147198 1_565
Li7 O3 2.319069 1_555
Li8 O2 1.975902 1_455
Li8 O11 2.053427 1_555
Li8 O0 2.089919 1_455
Li8 O14 2.147178 1_555
Li8 O8 2.159595 1_555
Li8 O12 2.213179 1_555
Li9 O2 1.996673 1_555
Li9 O14 2.001910 1_665
Li9 O11 2.065175 1_555
Li9 O9 2.127026 1_555
Li9 O13 2.139030 1_655
Li9 O3 2.342288 1_555
Li10 O5 1.911780 1_545
Li10 O1 1.933135 1_555
Li10 O9 2.076674 1_556
Li10 O15 2.081283 1_555
Li10 O13 2.219803 1_546
Li10 O7 2.271744 1_556
Li11 O2 2.013516 1_455
Li11 O14 2.013600 1_565
Li11 O6 2.031100 1_565
Li11 O12 2.113344 1_565
Li11 O4 2.168776 1_455
Li11 O8 2.437391 1_555
Cr0 O8 1.886599 1_555
Cr0 O15 1.937693 1_555
Cr0 O1 1.954113 1_555
Cr0 O0 2.001589 1_455
Cr0 O10 2.029866 1_555
Cr0 O12 2.037134 1_555
Cr1 O8 1.978399 1_555
Cr1 O5 1.987363 1_555
Cr1 O15 2.013974 1_565
Cr1 O10 2.054797 1_555
Cr1 O4 2.061431 1_455
Cr1 O12 2.063107 1_565
Cr2 O2 1.824713 1_555
Cr2 O4 1.852180 1_555
Cr2 O0 1.975726 1_555
Cr2 O6 2.023193 1_555
Cr2 O11 2.076190 1_555
Cr2 O12 2.208142 1_555
Cr3 O3 1.799070 1_556
Cr3 O13 1.885233 1_556
Cr3 O5 1.996919 1_555
Cr3 O1 2.014315 1_555
Cr3 O7 2.022869 1_556
Cr3 O10 2.117037 1_555
Cr4 O9 1.746370 1_555
Cr4 O14 1.778656 1_555
Cr4 O11 1.831209 1_555
Cr4 O6 1.937751 1_555
Cr4 O7 2.032720 1_555
Cr4 O13 2.456909 1_545
