# generated using pymatgen
data_Li32Ti13Cr3O48
_symmetry_space_group_name_H-M   'P 1'
_cell_length_a   5.08636300
_cell_length_b   8.82100230
_cell_length_c   19.60869799
_cell_angle_alpha   98.36024036
_cell_angle_beta   94.82437159
_cell_angle_gamma   89.88016011
_symmetry_Int_Tables_number   1
_chemical_formula_structural   Li32Ti13Cr3O48
_chemical_formula_sum   'Li32 Ti13 Cr3 O48'
_cell_volume   867.30127582
_cell_formula_units_Z   1
loop_
 _symmetry_equiv_pos_site_id
 _symmetry_equiv_pos_as_xyz
  1  'x, y, z'
loop_
 _atom_site_type_symbol
 _atom_site_label
 _atom_site_symmetry_multiplicity
 _atom_site_fract_x
 _atom_site_fract_y
 _atom_site_fract_z
 _atom_site_occupancy
  Li  Li0  1  0.99181600  0.17000800  0.24971800  1
  Li  Li1  1  0.87508800  0.37433400  0.37503200  1
  Li  Li2  1  0.75023700  0.24990500  0.99992100  1
  Li  Li3  1  0.74325800  0.91852700  0.99947100  1
  Li  Li4  1  0.99255500  0.16933400  0.74970900  1
  Li  Li5  1  0.76102900  0.58074800  0.49993600  1
  Li  Li6  1  0.87478500  0.37703700  0.87481900  1
  Li  Li7  1  0.75255400  0.25131800  0.50001900  1
  Li  Li8  1  0.74090500  0.91822600  0.50012000  1
  Li  Li9  1  0.62511700  0.12496200  0.12497200  1
  Li  Li10  1  0.75966800  0.58066900  0.99919600  1
  Li  Li11  1  0.50992100  0.33019700  0.25063000  1
  Li  Li12  1  0.62311700  0.12541900  0.62523800  1
  Li  Li13  1  0.50087900  0.00079200  0.25034200  1
  Li  Li14  1  0.49100300  0.66877800  0.25002900  1
  Li  Li15  1  0.50505600  0.32956200  0.74972400  1
  Li  Li16  1  0.37486400  0.87453000  0.37501600  1
  Li  Li17  1  0.49989000  0.00055300  0.75003300  1
  Li  Li18  1  0.24482800  0.75099300  0.99963000  1
  Li  Li19  1  0.49590800  0.67035800  0.75060600  1
  Li  Li20  1  0.24196000  0.41988500  0.00029300  1
  Li  Li21  1  0.37446200  0.87414300  0.87512200  1
  Li  Li22  1  0.25672800  0.08160100  0.49971100  1
  Li  Li23  1  0.24936000  0.75028300  0.49997000  1
  Li  Li24  1  0.12491200  0.62501300  0.12492600  1
  Li  Li25  1  0.23851700  0.41787400  0.50007600  1
  Li  Li26  1  0.00823600  0.82938500  0.24960500  1
  Li  Li27  1  0.25940600  0.07983400  0.99996200  1
  Li  Li28  1  0.12413600  0.62295700  0.62485300  1
  Li  Li29  1  0.99784600  0.50088100  0.24966000  1
  Li  Li30  1  0.00798800  0.83006900  0.75079600  1
  Li  Li31  1  0.99903900  0.50052100  0.75038000  1
  Ti  Ti0  1  0.87385600  0.70973300  0.37497000  1
  Ti  Ti1  1  0.87589500  0.04585800  0.37507300  1
  Ti  Ti2  1  0.87863700  0.04017600  0.87590500  1
  Ti  Ti3  1  0.62609200  0.79118500  0.12478800  1
  Ti  Ti4  1  0.62381600  0.45880300  0.12486400  1
  Ti  Ti5  1  0.63120100  0.79099300  0.62468400  1
  Ti  Ti6  1  0.62038900  0.45769500  0.62348300  1
  Ti  Ti7  1  0.37628200  0.53879900  0.37518600  1
  Ti  Ti8  1  0.37600200  0.54155500  0.87409600  1
  Ti  Ti9  1  0.37462800  0.20854400  0.87486900  1
  Ti  Ti10  1  0.12379200  0.95869000  0.12495500  1
  Ti  Ti11  1  0.12664600  0.29117800  0.12496200  1
  Ti  Ti12  1  0.13069400  0.96074700  0.62720800  1
  Cr  Cr0  1  0.87128200  0.70953500  0.87501900  1
  Cr  Cr1  1  0.37368000  0.20685700  0.37494100  1
  Cr  Cr2  1  0.12016500  0.29028900  0.62505300  1
  O  O0  1  0.96260800  0.10626900  0.06824900  1
  O  O1  1  0.92868500  0.78435800  0.06841900  1
  O  O2  1  0.92787600  0.42753200  0.06712500  1
  O  O3  1  0.96381600  0.11223500  0.56908500  1
  O  O4  1  0.82197500  0.96573600  0.18186700  1
  O  O5  1  0.82277500  0.32248300  0.18279700  1
  O  O6  1  0.92758300  0.78599500  0.56826300  1
  O  O7  1  0.92410600  0.42870600  0.56700900  1
  O  O8  1  0.78775900  0.64350100  0.18165000  1
  O  O9  1  0.71417700  0.85720700  0.31824600  1
  O  O10  1  0.82116300  0.96602700  0.68183900  1
  O  O11  1  0.83129700  0.32095300  0.68210700  1
  O  O12  1  0.67822200  0.53445700  0.31829600  1
  O  O13  1  0.68004000  0.17805900  0.31707400  1
  O  O14  1  0.78479700  0.64315900  0.68168400  1
  O  O15  1  0.71303200  0.85236600  0.81889400  1
  O  O16  1  0.46234600  0.60641800  0.06816500  1
  O  O17  1  0.57104900  0.71448700  0.43180300  1
  O  O18  1  0.56725800  0.07577800  0.43221700  1
  O  O19  1  0.67651700  0.53394600  0.81824400  1
  O  O20  1  0.67703600  0.17620400  0.81724700  1
  O  O21  1  0.42768800  0.92731200  0.06717400  1
  O  O22  1  0.42883200  0.28437100  0.06830400  1
  O  O23  1  0.53656700  0.38978400  0.43099300  1
  O  O24  1  0.46307100  0.60582300  0.56786200  1
  O  O25  1  0.57942100  0.71670300  0.93091500  1
  O  O26  1  0.57235500  0.07221700  0.93273900  1
  O  O27  1  0.32248500  0.82253300  0.18286700  1
  O  O28  1  0.32153300  0.46554900  0.18173800  1
  O  O29  1  0.42725000  0.92783500  0.56713000  1
  O  O30  1  0.42399900  0.28292100  0.56942900  1
  O  O31  1  0.53595500  0.39464900  0.93188600  1
  O  O32  1  0.28773200  0.14354300  0.18157600  1
  O  O33  1  0.21350200  0.35312100  0.31928900  1
  O  O34  1  0.32159700  0.82331200  0.68302100  1
  O  O35  1  0.31900100  0.46259100  0.68085000  1
  O  O36  1  0.17785500  0.67625200  0.31715900  1
  O  O37  1  0.18440100  0.03811900  0.31915100  1
  O  O38  1  0.29093700  0.14232700  0.68197800  1
  O  O39  1  0.21383100  0.35701200  0.81831100  1
  O  O40  1  0.07247800  0.57268700  0.43286000  1
  O  O41  1  0.06891100  0.21616300  0.43178200  1
  O  O42  1  0.17336100  0.67950300  0.81810100  1
  O  O43  1  0.17842300  0.03403700  0.81818900  1
  O  O44  1  0.03549900  0.89462300  0.43191500  1
  O  O45  1  0.06999400  0.57410800  0.93191800  1
  O  O46  1  0.07138500  0.21444400  0.93166200  1
  O  O47  1  0.03969700  0.89325500  0.93135300  1
loop_
_geom_bond_atom_site_label_1
_geom_bond_atom_site_label_2
_geom_bond_distance
_geom_bond_site_symmetry_2
Li0 O32 2.086001 1_655
Li0 O37 2.097184 1_655
Li0 O13 2.142146 1_555
Li0 O5 2.142151 1_555
Li0 O33 2.202176 1_655
Li0 O4 2.208906 1_545
Li1 O41 2.101923 1_655
Li1 O33 2.109093 1_655
Li1 O23 2.112052 1_555
Li1 O12 2.121088 1_555
Li1 O13 2.125731 1_555
Li1 O40 2.143381 1_655
Li2 O2 2.052601 1_556
Li2 O26 2.053229 1_555
Li2 O46 2.191223 1_655
Li2 O22 2.193411 1_556
Li2 O0 2.193571 1_556
Li2 O31 2.200634 1_555
Li3 O47 2.087587 1_655
Li3 O1 2.089069 1_556
Li3 O26 2.150676 1_565
Li3 O21 2.161662 1_556
Li3 O25 2.189257 1_555
Li3 O0 2.216159 1_566
Li4 O43 2.090213 1_655
Li4 O38 2.090339 1_655
Li4 O11 2.132306 1_555
Li4 O20 2.160278 1_555
Li4 O10 2.205596 1_545
Li4 O39 2.218677 1_655
Li5 O17 2.084890 1_555
Li5 O24 2.090995 1_555
Li5 O7 2.131034 1_555
Li5 O40 2.137125 1_655
Li5 O6 2.213758 1_555
Li5 O23 2.248289 1_555
Li6 O19 2.101401 1_555
Li6 O39 2.120408 1_655
Li6 O45 2.124995 1_655
Li6 O31 2.125836 1_555
Li6 O46 2.137930 1_655
Li6 O20 2.158565 1_555
Li7 O7 2.037283 1_555
Li7 O18 2.061607 1_555
Li7 O41 2.171437 1_655
Li7 O3 2.174123 1_555
Li7 O23 2.180765 1_555
Li7 O30 2.234543 1_555
Li8 O6 2.069464 1_555
Li8 O44 2.081359 1_655
Li8 O29 2.144424 1_555
Li8 O18 2.195352 1_565
Li8 O17 2.209650 1_555
Li8 O3 2.262795 1_565
Li9 O32 2.114233 1_555
Li9 O22 2.114386 1_555
Li9 O0 2.116053 1_555
Li9 O4 2.117031 1_545
Li9 O5 2.138514 1_555
Li9 O21 2.138660 1_545
Li10 O25 2.080673 1_555
Li10 O16 2.102574 1_556
Li10 O45 2.136081 1_655
Li10 O2 2.158156 1_556
Li10 O31 2.203344 1_555
Li10 O1 2.216027 1_556
Li11 O33 2.094654 1_555
Li11 O28 2.101200 1_555
Li11 O13 2.135689 1_555
Li11 O5 2.152972 1_555
Li11 O12 2.204525 1_555
Li11 O32 2.218929 1_555
Li12 O38 2.093254 1_555
Li12 O30 2.098417 1_555
Li12 O10 2.117348 1_545
Li12 O3 2.124098 1_555
Li12 O29 2.137126 1_545
Li12 O11 2.142291 1_555
Li13 O13 2.048936 1_555
Li13 O27 2.060456 1_545
Li13 O37 2.180373 1_555
Li13 O9 2.189933 1_545
Li13 O4 2.193596 1_545
Li13 O32 2.195752 1_555
Li14 O12 2.084388 1_555
Li14 O8 2.092346 1_555
Li14 O36 2.145000 1_555
Li14 O27 2.152492 1_555
Li14 O28 2.205483 1_555
Li14 O9 2.224071 1_555
Li15 O39 2.073756 1_555
Li15 O35 2.082715 1_555
Li15 O20 2.160866 1_555
Li15 O38 2.191973 1_555
Li15 O11 2.203982 1_555
Li15 O19 2.218388 1_555
Li16 O17 2.119672 1_555
Li16 O37 2.120404 1_565
Li16 O9 2.124557 1_555
Li16 O44 2.126247 1_555
Li16 O36 2.142279 1_555
Li16 O18 2.147254 1_565
Li17 O20 2.040069 1_555
Li17 O34 2.049754 1_545
Li17 O38 2.171526 1_555
Li17 O43 2.190351 1_555
Li17 O10 2.190480 1_545
Li17 O15 2.228972 1_545
Li18 O45 2.047687 1_555
Li18 O21 2.058656 1_556
Li18 O47 2.168858 1_555
Li18 O1 2.176967 1_456
Li18 O16 2.213334 1_556
Li18 O25 2.251307 1_555
Li19 O14 2.069159 1_555
Li19 O19 2.074942 1_555
Li19 O34 2.163341 1_555
Li19 O15 2.173429 1_555
Li19 O42 2.187074 1_555
Li19 O35 2.260609 1_555
Li20 O31 2.081854 1_554
Li20 O22 2.087215 1_555
Li20 O2 2.144777 1_455
Li20 O45 2.177502 1_554
Li20 O16 2.203442 1_555
Li20 O46 2.224607 1_554
Li21 O47 2.098580 1_555
Li21 O25 2.111001 1_555
Li21 O15 2.115307 1_555
Li21 O43 2.120052 1_565
Li21 O42 2.121553 1_555
Li21 O26 2.141119 1_565
Li22 O41 2.082478 1_555
Li22 O3 2.091775 1_455
Li22 O18 2.140194 1_555
Li22 O29 2.159476 1_545
Li22 O30 2.202523 1_555
Li22 O44 2.207334 1_545
Li23 O40 2.050017 1_555
Li23 O29 2.052227 1_555
Li23 O17 2.192396 1_555
Li23 O6 2.194323 1_455
Li23 O24 2.195856 1_555
Li23 O44 2.197563 1_555
Li24 O1 2.112004 1_455
Li24 O8 2.114595 1_455
Li24 O16 2.116239 1_555
Li24 O28 2.117119 1_555
Li24 O2 2.136728 1_455
Li24 O27 2.139170 1_555
Li25 O30 2.099239 1_555
Li25 O23 2.107341 1_555
Li25 O7 2.145952 1_455
Li25 O40 2.155605 1_555
Li25 O41 2.196054 1_555
Li25 O24 2.220737 1_555
Li26 O9 2.085655 1_455
Li26 O4 2.087235 1_455
Li26 O27 2.144637 1_555
Li26 O36 2.155657 1_555
Li26 O8 2.200620 1_455
Li26 O37 2.263619 1_565
Li27 O46 2.088157 1_555
Li27 O0 2.091422 1_456
Li27 O21 2.144937 1_546
Li27 O26 2.145346 1_555
Li27 O47 2.208715 1_545
Li27 O22 2.214244 1_556
Li28 O35 2.109945 1_555
Li28 O7 2.122671 1_455
Li28 O14 2.125365 1_455
Li28 O24 2.125448 1_555
Li28 O6 2.137889 1_455
Li28 O34 2.159100 1_555
Li29 O36 2.046919 1_655
Li29 O5 2.048856 1_555
Li29 O8 2.178430 1_555
Li29 O12 2.189097 1_555
Li29 O28 2.197172 1_655
Li29 O33 2.241821 1_655
Li30 O15 2.081313 1_455
Li30 O10 2.102445 1_455
Li30 O42 2.128751 1_555
Li30 O34 2.155764 1_555
Li30 O43 2.203952 1_565
Li30 O14 2.223274 1_455
Li31 O11 2.055732 1_555
Li31 O42 2.059203 1_655
Li31 O19 2.190880 1_555
Li31 O39 2.193209 1_655
Li31 O14 2.196655 1_555
Li31 O35 2.204006 1_655
Cr0 O25 1.913695 1_555
Cr0 O15 1.922608 1_555
Cr0 O42 1.969105 1_655
Cr0 O45 1.971370 1_655
Cr0 O47 1.976467 1_655
Cr0 O19 1.984759 1_555
Cr1 O37 1.922090 1_555
Cr1 O18 1.937676 1_555
Cr1 O33 1.942861 1_555
Cr1 O23 1.958278 1_555
Cr1 O41 1.978767 1_555
Cr1 O13 1.998041 1_555
Cr2 O3 1.913336 1_455
Cr2 O11 1.915831 1_455
Cr2 O30 1.960781 1_555
Cr2 O35 1.966386 1_555
Cr2 O38 1.989909 1_555
Cr2 O7 1.997191 1_455
O0 Ti10 1.966297 1_645
O0 Ti11 1.978747 1_655
O1 Ti3 1.964839 1_555
O1 Ti10 1.975902 1_655
O2 Ti4 1.987889 1_555
O2 Ti11 1.988404 1_655
O3 Ti12 2.020015 1_645
O4 Ti10 1.968130 1_655
O4 Ti3 1.983388 1_555
O5 Ti11 1.988270 1_655
O5 Ti4 1.989798 1_555
O6 Ti5 1.940254 1_555
O6 Ti12 2.016713 1_655
O7 Ti6 1.970250 1_555
O8 Ti3 1.969807 1_555
O8 Ti4 1.977765 1_555
O9 Ti0 1.963025 1_555
O9 Ti1 1.999952 1_565
O10 Ti5 1.973422 1_555
O10 Ti12 1.974156 1_655
O11 Ti6 2.029172 1_555
O12 Ti7 1.969772 1_555
O12 Ti0 1.984036 1_555
O13 Ti1 1.958556 1_555
O14 Ti5 1.957759 1_555
O14 Ti6 1.995102 1_555
O15 Ti2 2.003173 1_565
O16 Ti4 1.966982 1_555
O16 Ti3 1.976539 1_555
O17 Ti0 1.972489 1_555
O17 Ti7 1.984121 1_555
O18 Ti1 1.999441 1_555
O19 Ti8 1.949386 1_555
O20 Ti9 1.980083 1_555
O20 Ti2 2.003004 1_555
O21 Ti3 1.983483 1_555
O21 Ti10 1.987759 1_555
O22 Ti11 1.966672 1_555
O22 Ti4 1.976423 1_555
O23 Ti7 1.963086 1_555
O24 Ti6 1.949449 1_555
O24 Ti5 1.989238 1_555
O25 Ti8 2.002761 1_555
O26 Ti9 1.986208 1_555
O26 Ti2 1.986802 1_555
O27 Ti10 1.987937 1_555
O27 Ti3 1.990133 1_555
O28 Ti4 1.969765 1_555
O28 Ti11 1.977545 1_555
O29 Ti12 1.986187 1_555
O29 Ti5 2.000202 1_555
O30 Ti6 1.962455 1_555
O31 Ti8 1.973019 1_555
O31 Ti9 1.983905 1_555
O32 Ti11 1.965351 1_555
O32 Ti10 1.977459 1_545
O33 Ti7 1.974963 1_555
O34 Ti12 1.952551 1_555
O34 Ti5 2.018902 1_555
O35 Ti6 1.973041 1_555
O36 Ti0 1.989654 1_455
O36 Ti7 1.996567 1_555
O37 Ti1 1.984090 1_455
O38 Ti12 1.934225 1_545
O39 Ti8 1.965427 1_555
O39 Ti9 1.969597 1_555
O40 Ti7 1.987422 1_555
O40 Ti0 1.992895 1_455
O41 Ti1 1.947797 1_455
O42 Ti8 1.985334 1_555
O43 Ti2 1.970009 1_455
O43 Ti9 1.980679 1_555
O44 Ti0 1.975934 1_455
O44 Ti1 1.989142 1_465
O45 Ti8 1.997717 1_555
O46 Ti2 1.963882 1_455
O46 Ti9 1.973230 1_555
O47 Ti2 1.946363 1_465
