# generated using pymatgen
data_SbP6(WO8)3
_symmetry_space_group_name_H-M   'P 1'
_cell_length_a   9.04807233
_cell_length_b   9.04807233
_cell_length_c   9.04807182
_cell_angle_alpha   58.61689737
_cell_angle_beta   58.61689737
_cell_angle_gamma   58.61689311
_symmetry_Int_Tables_number   1
_chemical_formula_structural   SbP6(WO8)3
_chemical_formula_sum   'Sb1 P6 W3 O24'
_cell_volume   507.22365391
_cell_formula_units_Z   1
loop_
 _symmetry_equiv_pos_site_id
 _symmetry_equiv_pos_as_xyz
  1  'x, y, z'
loop_
 _atom_site_type_symbol
 _atom_site_label
 _atom_site_symmetry_multiplicity
 _atom_site_fract_x
 _atom_site_fract_y
 _atom_site_fract_z
 _atom_site_occupancy
  Sb  Sb0  1  0.14131100  0.14131100  0.14131100  1
  P  P0  1  0.96126900  0.24575200  0.54186600  1
  P  P1  1  0.54186600  0.96126900  0.24575200  1
  P  P2  1  0.24575200  0.54186600  0.96126900  1
  P  P3  1  0.73903800  0.47006800  0.04187600  1
  P  P4  1  0.47006800  0.04187600  0.73903800  1
  P  P5  1  0.04187600  0.73903800  0.47006800  1
  W  W0  1  0.85616300  0.85616300  0.85616300  1
  W  W1  1  0.64296800  0.64296800  0.64296800  1
  W  W2  1  0.35546800  0.35546800  0.35546800  1
  O  O0  1  0.88124700  0.69231700  0.51572100  1
  O  O1  1  0.69231700  0.51572100  0.88124700  1
  O  O2  1  0.94879200  0.06550000  0.71020800  1
  O  O3  1  0.51572100  0.88124700  0.69231700  1
  O  O4  1  0.78491800  0.40000400  0.59678400  1
  O  O5  1  0.97296600  0.23610300  0.37173500  1
  O  O6  1  0.71020800  0.94879200  0.06550000  1
  O  O7  1  0.59678400  0.78491800  0.40000400  1
  O  O8  1  0.40000400  0.59678400  0.78491800  1
  O  O9  1  0.77487300  0.63475500  0.01582800  1
  O  O10  1  0.90588400  0.29216400  0.05846100  1
  O  O11  1  0.63475500  0.01582800  0.77487300  1
  O  O12  1  0.37173500  0.97296600  0.23610300  1
  O  O13  1  0.06550000  0.71020800  0.94879200  1
  O  O14  1  0.23610300  0.37173500  0.97296600  1
  O  O15  1  0.56783400  0.44416100  0.21837800  1
  O  O16  1  0.44416100  0.21837800  0.56783400  1
  O  O17  1  0.29216400  0.05846100  0.90588400  1
  O  O18  1  0.01582800  0.77487300  0.63475500  1
  O  O19  1  0.21837800  0.56783400  0.44416100  1
  O  O20  1  0.50762500  0.13507000  0.27289400  1
  O  O21  1  0.05846100  0.90588400  0.29216400  1
  O  O22  1  0.27289400  0.50762500  0.13507000  1
  O  O23  1  0.13507000  0.27289400  0.50762500  1
loop_
_geom_bond_atom_site_label_1
_geom_bond_atom_site_label_2
_geom_bond_distance
_geom_bond_site_symmetry_2
O0 P5 1.514732 1_655
O0 W1 2.013714 1_555
O1 P3 1.514732 1_556
O1 W1 2.013714 1_555
O2 P0 1.555019 1_555
O2 W0 1.982281 1_545
O3 P4 1.514732 1_565
O3 W1 2.013714 1_555
O4 P0 1.522484 1_555
O4 W1 2.028315 1_555
O5 P0 1.532681 1_555
O5 Sb0 2.144002 1_655
O6 P1 1.555019 1_555
O6 W0 1.982281 1_554
O7 P1 1.522484 1_555
O7 W1 2.028315 1_555
O8 P2 1.522484 1_555
O8 W1 2.028315 1_555
O9 P3 1.561703 1_555
O9 W0 2.013703 1_554
O10 P3 1.531681 1_555
O10 Sb0 2.128802 1_655
O11 P4 1.561703 1_555
O11 W0 2.013703 1_545
O12 P1 1.532681 1_555
O12 Sb0 2.144002 1_565
O13 P2 1.555019 1_555
O13 W0 1.982281 1_455
O14 P2 1.532681 1_555
O14 Sb0 2.144002 1_556
O15 P3 1.554574 1_555
O15 W2 1.990394 1_555
O16 P4 1.554574 1_555
O16 W2 1.990394 1_555
O17 P4 1.531681 1_555
O17 Sb0 2.128802 1_556
O18 P5 1.561703 1_555
O18 W0 2.013703 1_455
O19 P5 1.554574 1_555
O19 W2 1.990394 1_555
O20 P1 1.563588 1_545
O20 W2 2.012805 1_555
O21 P5 1.531681 1_555
O21 Sb0 2.128802 1_565
O22 P2 1.563588 1_554
O22 W2 2.012805 1_555
O23 P0 1.563588 1_455
O23 W2 2.012805 1_555
