# generated using pymatgen
data_La4MnO8
_symmetry_space_group_name_H-M   'P 1'
_cell_length_a   7.61730900
_cell_length_b   7.61795700
_cell_length_c   13.31758472
_cell_angle_alpha   73.37658977
_cell_angle_beta   89.99959813
_cell_angle_gamma   89.99998495
_symmetry_Int_Tables_number   1
_chemical_formula_structural   La4MnO8
_chemical_formula_sum   'La16 Mn4 O32'
_cell_volume   740.49876564
_cell_formula_units_Z   4
loop_
 _symmetry_equiv_pos_site_id
 _symmetry_equiv_pos_as_xyz
  1  'x, y, z'
loop_
 _atom_site_type_symbol
 _atom_site_label
 _atom_site_symmetry_multiplicity
 _atom_site_fract_x
 _atom_site_fract_y
 _atom_site_fract_z
 _atom_site_occupancy
  La  La0  1  0.75000700  0.81863400  0.86271800  1
  La  La1  1  0.25000600  0.31863700  0.86272200  1
  La  La2  1  0.75000200  0.18136800  0.13728100  1
  La  La3  1  0.25000600  0.68136600  0.13728200  1
  La  La4  1  0.49999200  0.81863900  0.36272000  1
  La  La5  1  0.99999100  0.31863200  0.36272100  1
  La  La6  1  0.99999700  0.68136600  0.63728200  1
  La  La7  1  0.49999500  0.18136500  0.63727900  1
  La  La8  1  0.50000100  0.68480100  0.63053300  1
  La  La9  1  0.00001300  0.18478900  0.63053200  1
  La  La10  1  0.00000500  0.81520700  0.36946700  1
  La  La11  1  0.50000400  0.31521300  0.36946600  1
  La  La12  1  0.74999700  0.68478900  0.13053400  1
  La  La13  1  0.24998900  0.18479100  0.13053200  1
  La  La14  1  0.74999800  0.31520300  0.86947000  1
  La  La15  1  0.24999000  0.81520400  0.86946800  1
  Mn  Mn0  1  0.50002600  0.49999900  0.00000100  1
  Mn  Mn1  1  0.74997300  0.50000100  0.50000000  1
  Mn  Mn2  1  0.00002600  0.99999900  0.99999900  1
  Mn  Mn3  1  0.24997200  0.00000400  0.49999900  1
  O  O0  1  0.75000400  0.90648900  0.68704300  1
  O  O1  1  0.25000300  0.40648800  0.68704500  1
  O  O2  1  0.75000400  0.09351000  0.31295600  1
  O  O3  1  0.25000300  0.59350900  0.31295600  1
  O  O4  1  0.99999700  0.59351100  0.81295600  1
  O  O5  1  0.49999600  0.09350900  0.81295800  1
  O  O6  1  0.49999500  0.90649000  0.18704100  1
  O  O7  1  0.99999500  0.40649200  0.18704200  1
  O  O8  1  0.99999300  0.91865300  0.16276600  1
  O  O9  1  0.49999200  0.41865100  0.16276700  1
  O  O10  1  0.49999500  0.58135000  0.83723300  1
  O  O11  1  0.99999300  0.08134700  0.83723200  1
  O  O12  1  0.75000800  0.58134900  0.33723200  1
  O  O13  1  0.25000900  0.08135100  0.33723000  1
  O  O14  1  0.75000900  0.41864900  0.66276800  1
  O  O15  1  0.25000700  0.91865000  0.66276900  1
  O  O16  1  0.74998900  0.25595600  0.50000000  1
  O  O17  1  0.24998800  0.75595200  0.50000000  1
  O  O18  1  0.50001500  0.25595500  0.00000000  1
  O  O19  1  0.00001300  0.75595200  0.99999900  1
  O  O20  1  0.99404400  0.49999700  0.50000100  1
  O  O21  1  0.49405000  0.99999900  0.50000000  1
  O  O22  1  0.50598800  0.50000000  0.49999900  1
  O  O23  1  0.00598300  0.00000000  0.50000000  1
  O  O24  1  0.75595100  0.00000000  0.00000000  1
  O  O25  1  0.25595300  0.50000000  0.00000100  1
  O  O26  1  0.74998900  0.74404100  0.50000100  1
  O  O27  1  0.24998800  0.24404900  0.50000000  1
  O  O28  1  0.24401800  0.99999900  0.99999900  1
  O  O29  1  0.74401400  0.50000100  0.00000000  1
  O  O30  1  0.50001100  0.74404400  0.99999900  1
  O  O31  1  0.00001200  0.24404800  0.99999800  1
loop_
_geom_bond_atom_site_label_1
_geom_bond_atom_site_label_2
_geom_bond_distance
_geom_bond_site_symmetry_2
La0 O0 2.241786 1_555
La0 O30 2.587912 1_555
La0 O29 2.587942 1_556
La0 O19 2.587992 1_655
La0 O24 2.588205 1_566
La0 O11 2.712553 1_565
La0 O10 2.713028 1_555
La0 O4 2.767085 1_555
La0 O5 2.767086 1_565
La1 O1 2.241812 1_555
La1 O31 2.587858 1_555
La1 O28 2.587940 1_545
La1 O18 2.587983 1_556
La1 O25 2.588154 1_556
La1 O10 2.712565 1_555
La1 O11 2.713087 1_455
La1 O4 2.767072 1_455
La1 O5 2.767123 1_555
La2 O2 2.241786 1_555
La2 O18 2.587880 1_555
La2 O29 2.587936 1_555
La2 O31 2.588014 1_654
La2 O24 2.588205 1_555
La2 O8 2.712594 1_545
La2 O9 2.713012 1_555
La2 O6 2.767075 1_545
La2 O7 2.767108 1_555
La3 O3 2.241774 1_555
La3 O19 2.587930 1_554
La3 O28 2.587947 1_554
La3 O30 2.587986 1_554
La3 O25 2.588193 1_555
La3 O9 2.712567 1_555
La3 O8 2.713041 1_455
La3 O7 2.767075 1_455
La3 O6 2.767076 1_555
La4 O6 2.241837 1_555
La4 O26 2.587937 1_555
La4 O17 2.587953 1_555
La4 O22 2.587959 1_555
La4 O21 2.588147 1_555
La4 O13 2.712529 1_565
La4 O12 2.713090 1_555
La4 O2 2.767066 1_565
La4 O3 2.767135 1_555
La5 O7 2.241837 1_555
La5 O27 2.587918 1_655
La5 O23 2.587919 1_655
La5 O16 2.587934 1_555
La5 O20 2.588176 1_555
La5 O12 2.712557 1_555
La5 O13 2.713066 1_655
La5 O2 2.767088 1_555
La5 O3 2.767098 1_655
La6 O4 2.241774 1_555
La6 O17 2.587892 1_655
La6 O23 2.587947 1_665
La6 O26 2.588004 1_555
La6 O20 2.588211 1_555
La6 O14 2.712585 1_555
La6 O15 2.713026 1_655
La6 O1 2.767077 1_655
La6 O0 2.767096 1_555
La7 O5 2.241837 1_555
La7 O16 2.587884 1_555
La7 O22 2.587941 1_555
La7 O27 2.587980 1_555
La7 O21 2.588171 1_545
La7 O15 2.712569 1_545
La7 O14 2.713056 1_555
La7 O0 2.767082 1_545
La7 O1 2.767118 1_555
La8 O21 2.530089 1_555
La8 O26 2.530375 1_555
La8 O17 2.530522 1_555
La8 O22 2.531064 1_555
La8 O10 2.637696 1_555
La8 O15 2.724285 1_555
La8 O14 2.724680 1_555
La8 O0 2.787869 1_555
La8 O1 2.788365 1_555
La9 O20 2.530137 1_455
La9 O27 2.530298 1_555
La9 O16 2.530579 1_455
La9 O23 2.530970 1_555
La9 O11 2.637696 1_455
La9 O14 2.724397 1_455
La9 O15 2.724535 1_545
La9 O1 2.787876 1_555
La9 O0 2.788354 1_445
La10 O20 2.530164 1_455
La10 O17 2.530371 1_555
La10 O26 2.530531 1_455
La10 O23 2.531006 1_565
La10 O8 2.637709 1_455
La10 O12 2.724349 1_455
La10 O13 2.724611 1_565
La10 O3 2.787893 1_555
La10 O2 2.788334 1_465
La11 O21 2.530186 1_545
La11 O16 2.530391 1_555
La11 O27 2.530531 1_555
La11 O22 2.530972 1_555
La11 O9 2.637683 1_555
La11 O13 2.724364 1_555
La11 O12 2.724571 1_555
La11 O2 2.787923 1_555
La11 O3 2.788297 1_555
La12 O24 2.530169 1_565
La12 O30 2.530405 1_554
La12 O19 2.530539 1_654
La12 O29 2.530989 1_555
La12 O12 2.637670 1_555
La12 O8 2.724362 1_555
La12 O9 2.724587 1_555
La12 O6 2.787906 1_555
La12 O7 2.788285 1_555
La13 O25 2.530142 1_555
La13 O31 2.530345 1_554
La13 O18 2.530572 1_555
La13 O28 2.530999 1_544
La13 O13 2.637670 1_555
La13 O9 2.724392 1_555
La13 O8 2.724539 1_445
La13 O7 2.787882 1_455
La13 O6 2.788348 1_545
La14 O24 2.530101 1_556
La14 O18 2.530329 1_556
La14 O31 2.530486 1_655
La14 O29 2.531001 1_556
La14 O14 2.637721 1_555
La14 O11 2.724337 1_555
La14 O10 2.724625 1_555
La14 O5 2.787907 1_555
La14 O4 2.788345 1_555
La15 O25 2.530125 1_556
La15 O19 2.530302 1_555
La15 O30 2.530552 1_555
La15 O28 2.530994 1_555
La15 O15 2.637683 1_555
La15 O10 2.724366 1_555
La15 O11 2.724573 1_465
La15 O4 2.787855 1_455
La15 O5 2.788363 1_565
Mn0 O29 1.858532 1_555
Mn0 O30 1.859117 1_554
Mn0 O18 1.859121 1_555
Mn0 O25 1.859179 1_555
Mn0 O9 2.077055 1_555
Mn0 O10 2.077080 1_554
Mn1 O22 1.858509 1_555
Mn1 O26 1.859090 1_555
Mn1 O16 1.859124 1_555
Mn1 O20 1.859164 1_555
Mn1 O14 2.077080 1_555
Mn1 O12 2.077080 1_555
Mn2 O28 1.858562 1_555
Mn2 O19 1.859140 1_555
Mn2 O31 1.859151 1_565
Mn2 O24 1.859195 1_466
Mn2 O8 2.077068 1_456
Mn2 O11 2.077068 1_465
Mn3 O23 1.858540 1_555
Mn3 O27 1.859128 1_555
Mn3 O17 1.859174 1_545
Mn3 O21 1.859218 1_545
Mn3 O13 2.077093 1_555
Mn3 O15 2.077106 1_545
