# generated using pymatgen
data_Na6V2B4SO16
_symmetry_space_group_name_H-M   'P 1'
_cell_length_a   9.93543717
_cell_length_b   9.93543717
_cell_length_c   9.93543717
_cell_angle_alpha   60.00000000
_cell_angle_beta   60.00000000
_cell_angle_gamma   60.00000000
_symmetry_Int_Tables_number   1
_chemical_formula_structural   Na6V2B4SO16
_chemical_formula_sum   'Na12 V4 B8 S2 O32'
_cell_volume   693.49917157
_cell_formula_units_Z   2
loop_
 _symmetry_equiv_pos_site_id
 _symmetry_equiv_pos_as_xyz
  1  'x, y, z'
loop_
 _atom_site_type_symbol
 _atom_site_label
 _atom_site_symmetry_multiplicity
 _atom_site_fract_x
 _atom_site_fract_y
 _atom_site_fract_z
 _atom_site_occupancy
  Na  Na0  1  0.53082800  0.96917200  0.53082800  1
  Na  Na1  1  0.96917200  0.96917200  0.53082800  1
  Na  Na2  1  0.53082800  0.53082800  0.96917200  1
  Na  Na3  1  0.96917200  0.53082800  0.53082800  1
  Na  Na4  1  0.71917200  0.28082800  0.28082800  1
  Na  Na5  1  0.96917200  0.53082800  0.96917200  1
  Na  Na6  1  0.28082800  0.71917200  0.28082800  1
  Na  Na7  1  0.71917200  0.71917200  0.28082800  1
  Na  Na8  1  0.28082800  0.71917200  0.71917200  1
  Na  Na9  1  0.53082800  0.96917200  0.96917200  1
  Na  Na10  1  0.28082800  0.28082800  0.71917200  1
  Na  Na11  1  0.71917200  0.28082800  0.71917200  1
  V  V0  1  0.12500000  0.12500000  0.12500000  1
  V  V1  1  0.12500000  0.62500000  0.12500000  1
  V  V2  1  0.12500000  0.12500000  0.62500000  1
  V  V3  1  0.62500000  0.12500000  0.12500000  1
  B  B0  1  0.33726900  0.33726900  0.33726900  1
  B  B1  1  0.33726900  0.98819400  0.33726900  1
  B  B2  1  0.26180600  0.91273100  0.91273100  1
  B  B3  1  0.91273100  0.91273100  0.26180600  1
  B  B4  1  0.33726900  0.33726900  0.98819400  1
  B  B5  1  0.98819400  0.33726900  0.33726900  1
  B  B6  1  0.91273100  0.26180600  0.91273100  1
  B  B7  1  0.91273100  0.91273100  0.91273100  1
  S  S0  1  0.75000000  0.75000000  0.75000000  1
  S  S1  1  0.50000000  0.50000000  0.50000000  1
  O  O0  1  0.49306600  0.22199000  0.30184000  1
  O  O1  1  0.94816000  0.02801000  0.26689600  1
  O  O2  1  0.75693400  0.26689600  0.02801000  1
  O  O3  1  0.22199000  0.30184000  0.49306600  1
  O  O4  1  0.22199000  0.98310400  0.30184000  1
  O  O5  1  0.30184000  0.49306600  0.22199000  1
  O  O6  1  0.26689600  0.75693400  0.94816000  1
  O  O7  1  0.30184000  0.98310400  0.49306600  1
  O  O8  1  0.56168600  0.31494100  0.56168600  1
  O  O9  1  0.68831400  0.68831400  0.68831400  1
  O  O10  1  0.98310400  0.30184000  0.22199000  1
  O  O11  1  0.02801000  0.75693400  0.26689600  1
  O  O12  1  0.75693400  0.94816000  0.26689600  1
  O  O13  1  0.98310400  0.22199000  0.49306600  1
  O  O14  1  0.56168600  0.56168600  0.31494100  1
  O  O15  1  0.31494100  0.56168600  0.56168600  1
  O  O16  1  0.93505900  0.68831400  0.68831400  1
  O  O17  1  0.68831400  0.68831400  0.93505900  1
  O  O18  1  0.26689600  0.02801000  0.75693400  1
  O  O19  1  0.49306600  0.30184000  0.98310400  1
  O  O20  1  0.22199000  0.49306600  0.98310400  1
  O  O21  1  0.26689600  0.94816000  0.02801000  1
  O  O22  1  0.56168600  0.56168600  0.56168600  1
  O  O23  1  0.68831400  0.93505900  0.68831400  1
  O  O24  1  0.94816000  0.26689600  0.75693400  1
  O  O25  1  0.98310400  0.49306600  0.30184000  1
  O  O26  1  0.94816000  0.75693400  0.02801000  1
  O  O27  1  0.02801000  0.26689600  0.94816000  1
  O  O28  1  0.02801000  0.94816000  0.75693400  1
  O  O29  1  0.49306600  0.98310400  0.22199000  1
  O  O30  1  0.30184000  0.22199000  0.98310400  1
  O  O31  1  0.75693400  0.02801000  0.94816000  1
loop_
_geom_bond_atom_site_label_1
_geom_bond_atom_site_label_2
_geom_bond_distance
_geom_bond_site_symmetry_2
Na0 O7 2.413028 1_555
Na0 O0 2.413028 1_565
Na0 O12 2.480752 1_555
Na0 O18 2.480752 1_565
Na0 O9 2.529624 1_555
Na0 O23 2.529629 1_555
Na1 O4 2.413028 1_655
Na1 O13 2.413028 1_565
Na1 O1 2.480752 1_565
Na1 O28 2.480752 1_655
Na1 O16 2.529620 1_555
Na1 O23 2.529620 1_555
Na2 O19 2.413028 1_555
Na2 O5 2.413028 1_556
Na2 O6 2.480752 1_555
Na2 O2 2.480752 1_556
Na2 O9 2.529624 1_555
Na2 O17 2.529629 1_555
Na3 O25 2.413028 1_555
Na3 O3 2.413028 1_655
Na3 O24 2.480752 1_555
Na3 O11 2.480752 1_655
Na3 O9 2.529624 1_555
Na3 O16 2.529629 1_555
Na4 O2 2.413028 1_555
Na4 O1 2.413028 1_555
Na4 O0 2.480752 1_555
Na4 O10 2.480752 1_555
Na4 O14 2.529620 1_555
Na4 O8 2.529620 1_555
Na5 O10 2.413028 1_556
Na5 O20 2.413028 1_655
Na5 O27 2.480752 1_655
Na5 O26 2.480752 1_556
Na5 O16 2.529620 1_555
Na5 O17 2.529620 1_555
Na6 O11 2.413028 1_555
Na6 O21 2.413028 1_555
Na6 O5 2.480752 1_555
Na6 O4 2.480752 1_555
Na6 O14 2.529620 1_555
Na6 O15 2.529620 1_555
Na7 O26 2.413028 1_555
Na7 O12 2.413028 1_555
Na7 O29 2.480752 1_555
Na7 O25 2.480752 1_555
Na7 O22 2.529624 1_555
Na7 O14 2.529629 1_555
Na8 O28 2.413028 1_555
Na8 O6 2.413028 1_555
Na8 O20 2.480752 1_555
Na8 O7 2.480752 1_555
Na8 O22 2.529624 1_555
Na8 O15 2.529629 1_555
Na9 O30 2.413028 1_565
Na9 O29 2.413028 1_556
Na9 O21 2.480752 1_556
Na9 O31 2.480752 1_565
Na9 O23 2.529620 1_555
Na9 O17 2.529620 1_555
Na10 O18 2.413028 1_555
Na10 O27 2.413028 1_555
Na10 O3 2.480752 1_555
Na10 O30 2.480752 1_555
Na10 O8 2.529620 1_555
Na10 O15 2.529620 1_555
Na11 O31 2.413028 1_555
Na11 O24 2.413028 1_555
Na11 O13 2.480752 1_555
Na11 O19 2.480752 1_555
Na11 O22 2.529624 1_555
Na11 O8 2.529629 1_555
B0 O0 1.384614 1_555
B0 O3 1.384614 1_555
B0 O5 1.384614 1_555
B1 O7 1.384610 1_555
B1 O29 1.384613 1_555
B1 O4 1.384620 1_555
B2 O6 1.384610 1_555
B2 O18 1.384613 1_565
B2 O21 1.384620 1_556
B3 O12 1.384610 1_555
B3 O11 1.384613 1_655
B3 O1 1.384620 1_565
B4 O19 1.384610 1_555
B4 O20 1.384613 1_555
B4 O30 1.384620 1_555
B5 O25 1.384610 1_555
B5 O13 1.384613 1_555
B5 O10 1.384620 1_555
B6 O24 1.384610 1_555
B6 O2 1.384613 1_556
B6 O27 1.384620 1_655
B7 O26 1.384614 1_556
B7 O31 1.384614 1_565
B7 O28 1.384614 1_655
O0 V3 1.964863 1_555
O1 V0 1.964863 1_655
O2 V3 1.964863 1_555
O3 V2 1.964863 1_555
O4 V0 1.964863 1_565
O5 V1 1.964863 1_555
O6 V1 1.964863 1_556
O7 V2 1.964863 1_565
O8 S1 1.501245 1_555
O9 S0 1.501237 1_555
O10 V0 1.964863 1_655
O11 V1 1.964863 1_555
O12 V3 1.964863 1_565
O13 V2 1.964863 1_655
O14 S1 1.501245 1_555
O15 S1 1.501245 1_555
O16 S0 1.501245 1_555
O17 S0 1.501245 1_555
O18 V2 1.964863 1_555
O19 V3 1.964863 1_556
O20 V1 1.964863 1_556
O21 V0 1.964863 1_565
O22 S1 1.501237 1_555
O23 S0 1.501245 1_555
O24 V2 1.964863 1_655
O25 V1 1.964863 1_655
O26 V1 1.964863 1_655
O27 V0 1.964863 1_556
O28 V2 1.964863 1_565
O29 V3 1.964863 1_565
O30 V0 1.964863 1_556
O31 V3 1.964863 1_556
