# generated using pymatgen
data_RbLi2Mn2(BO3)3
_symmetry_space_group_name_H-M   'P 1'
_cell_length_a   5.21608500
_cell_length_b   6.60934300
_cell_length_c   12.57364922
_cell_angle_alpha   89.98933706
_cell_angle_beta   90.00000000
_cell_angle_gamma   90.00000000
_symmetry_Int_Tables_number   1
_chemical_formula_structural   RbLi2Mn2(BO3)3
_chemical_formula_sum   'Rb2 Li4 Mn4 B6 O18'
_cell_volume   433.47522756
_cell_formula_units_Z   2
loop_
 _symmetry_equiv_pos_site_id
 _symmetry_equiv_pos_as_xyz
  1  'x, y, z'
loop_
 _atom_site_type_symbol
 _atom_site_label
 _atom_site_symmetry_multiplicity
 _atom_site_fract_x
 _atom_site_fract_y
 _atom_site_fract_z
 _atom_site_occupancy
  Rb  Rb0  1  0.20996400  0.00000000  0.75000000  1
  Rb  Rb1  1  0.79003600  0.00000000  0.25000000  1
  Li  Li0  1  0.15453700  0.49703800  0.86541000  1
  Li  Li1  1  0.15453700  0.50296200  0.63459000  1
  Li  Li2  1  0.84546300  0.49703800  0.36541000  1
  Li  Li3  1  0.84546300  0.50296200  0.13459000  1
  Mn  Mn0  1  0.67323800  0.23244200  0.56120200  1
  Mn  Mn1  1  0.32676200  0.23244200  0.06120200  1
  Mn  Mn2  1  0.67323800  0.76755800  0.93879800  1
  Mn  Mn3  1  0.32676200  0.76755800  0.43879800  1
  B  B0  1  0.81070000  0.19399500  0.96587000  1
  B  B1  1  0.18930000  0.19399500  0.46587000  1
  B  B2  1  0.64698900  0.50000000  0.75000000  1
  B  B3  1  0.35301100  0.50000000  0.25000000  1
  B  B4  1  0.81070000  0.80600500  0.53413000  1
  B  B5  1  0.18930000  0.80600500  0.03413000  1
  O  O0  1  0.68533400  0.05433200  0.90395600  1
  O  O1  1  0.31466600  0.05433200  0.40395600  1
  O  O2  1  0.06630100  0.24129800  0.95018000  1
  O  O3  1  0.93369900  0.24129800  0.45018000  1
  O  O4  1  0.31446600  0.29198400  0.54883200  1
  O  O5  1  0.68553400  0.29198400  0.04883200  1
  O  O6  1  0.79749300  0.41558200  0.66818000  1
  O  O7  1  0.20250700  0.41558200  0.16818000  1
  O  O8  1  0.38936400  0.50000000  0.75000000  1
  O  O9  1  0.61063600  0.50000000  0.25000000  1
  O  O10  1  0.79749300  0.58441800  0.83182000  1
  O  O11  1  0.20250700  0.58441800  0.33182000  1
  O  O12  1  0.31446600  0.70801600  0.95116800  1
  O  O13  1  0.68553400  0.70801600  0.45116800  1
  O  O14  1  0.06630100  0.75870200  0.54982000  1
  O  O15  1  0.93369900  0.75870200  0.04982000  1
  O  O16  1  0.68533400  0.94566800  0.59604400  1
  O  O17  1  0.31466600  0.94566800  0.09604400  1
loop_
_geom_bond_atom_site_label_1
_geom_bond_atom_site_label_2
_geom_bond_distance
_geom_bond_site_symmetry_2
Li0 O8 1.899068 1_555
Li0 O12 1.950279 1_555
Li0 O10 1.995057 1_455
Li0 O2 2.050428 1_555
Li1 O8 1.899068 1_555
Li1 O4 1.950279 1_555
Li1 O6 1.995057 1_455
Li1 O14 2.050428 1_555
Li2 O9 1.899068 1_555
Li2 O13 1.950279 1_555
Li2 O11 1.995057 1_655
Li2 O3 2.050428 1_555
Li3 O9 1.899068 1_555
Li3 O5 1.950279 1_555
Li3 O7 1.995057 1_655
Li3 O15 2.050428 1_555
Mn0 O4 1.918625 1_555
Mn0 O6 1.922272 1_555
Mn0 O16 1.946302 1_545
Mn0 O3 1.948803 1_555
Mn1 O5 1.918625 1_555
Mn1 O7 1.922272 1_555
Mn1 O17 1.946302 1_545
Mn1 O2 1.948803 1_554
Mn2 O12 1.918625 1_555
Mn2 O10 1.922272 1_555
Mn2 O0 1.946302 1_565
Mn2 O15 1.948803 1_556
Mn3 O13 1.918625 1_555
Mn3 O11 1.922272 1_555
Mn3 O1 1.946302 1_565
Mn3 O14 1.948803 1_555
B0 O0 1.373315 1_555
B0 O2 1.383532 1_655
B0 O5 1.390709 1_556
B1 O1 1.373315 1_555
B1 O3 1.383532 1_455
B1 O4 1.390709 1_555
B2 O8 1.343794 1_555
B2 O6 1.409322 1_555
B2 O10 1.409322 1_555
B3 O9 1.343794 1_555
B3 O11 1.409322 1_555
B3 O7 1.409322 1_555
B4 O16 1.373315 1_555
B4 O14 1.383532 1_655
B4 O13 1.390709 1_555
B5 O17 1.373315 1_555
B5 O15 1.383532 1_455
B5 O12 1.390709 1_554
O0 Rb0 3.166190 1_555
O0 Rb0 3.371202 1_655
O1 Rb1 3.166190 1_555
O1 Rb1 3.371202 1_455
O2 Rb0 3.072742 1_555
O3 Rb1 3.072742 1_555
O4 Rb0 3.227610 1_555
O5 Rb1 3.227610 1_555
O8 Rb0 3.434605 1_555
O8 Rb0 3.434605 1_565
O9 Rb1 3.434605 1_555
O9 Rb1 3.434605 1_565
O12 Rb0 3.227610 1_565
O13 Rb1 3.227610 1_565
O14 Rb0 3.072742 1_565
O15 Rb1 3.072742 1_565
O16 Rb0 3.166190 1_565
O16 Rb0 3.371202 1_665
O17 Rb1 3.166190 1_565
O17 Rb1 3.371202 1_465
