# generated using pymatgen
data_Li3V2H4(OF5)2
_symmetry_space_group_name_H-M   'P 1'
_cell_length_a   6.43555000
_cell_length_b   7.84452600
_cell_length_c   11.87302287
_cell_angle_alpha   53.20322348
_cell_angle_beta   90.00000000
_cell_angle_gamma   90.00000000
_symmetry_Int_Tables_number   1
_chemical_formula_structural   Li3V2H4(OF5)2
_chemical_formula_sum   'Li6 V4 H8 O4 F20'
_cell_volume   479.97520311
_cell_formula_units_Z   2
loop_
 _symmetry_equiv_pos_site_id
 _symmetry_equiv_pos_as_xyz
  1  'x, y, z'
loop_
 _atom_site_type_symbol
 _atom_site_label
 _atom_site_symmetry_multiplicity
 _atom_site_fract_x
 _atom_site_fract_y
 _atom_site_fract_z
 _atom_site_occupancy
  Li  Li0  1  0.72710100  0.71704600  0.77689700  1
  Li  Li1  1  0.73346700  0.23163900  0.77068900  1
  Li  Li2  1  0.27743200  0.77352300  0.72913800  1
  Li  Li3  1  0.26653300  0.23163900  0.27068900  1
  Li  Li4  1  0.72256800  0.77352300  0.22913800  1
  Li  Li5  1  0.27289900  0.71704600  0.27689700  1
  V  V0  1  0.01854900  0.74600200  0.00284000  1
  V  V1  1  0.48023000  0.24958100  0.00214600  1
  V  V2  1  0.98145100  0.74600200  0.50284000  1
  V  V3  1  0.51977000  0.24958100  0.50214600  1
  H  H0  1  0.07312800  0.36306300  0.96745800  1
  H  H1  1  0.41384100  0.89949700  0.95560800  1
  H  H2  1  0.92468300  0.11969500  0.53098700  1
  H  H3  1  0.92687200  0.36306300  0.46745800  1
  H  H4  1  0.58886500  0.63668800  0.52675700  1
  H  H5  1  0.58615900  0.89949700  0.45560800  1
  H  H6  1  0.07531700  0.11969500  0.03098700  1
  H  H7  1  0.41113500  0.63668800  0.02675700  1
  O  O0  1  0.16517700  0.24342800  0.99623300  1
  O  O1  1  0.32831800  0.76937600  0.98559500  1
  O  O2  1  0.83482300  0.24342800  0.49623300  1
  O  O3  1  0.67168200  0.76937600  0.48559500  1
  F  F0  1  0.77353800  0.26648600  0.98919800  1
  F  F1  1  0.01937500  0.65345200  0.88535500  1
  F  F2  1  0.73469100  0.72003900  0.01775300  1
  F  F3  1  0.99116700  0.02167300  0.84351100  1
  F  F4  1  0.93692900  0.47801600  0.66560600  1
  F  F5  1  0.50486000  0.11621200  0.90183600  1
  F  F6  1  0.98386700  0.84446200  0.61855200  1
  F  F7  1  0.47787900  0.54682900  0.82224900  1
  F  F8  1  0.22646200  0.26648600  0.48919800  1
  F  F9  1  0.52569800  0.95232200  0.68106700  1
  F  F10  1  0.98062500  0.65345200  0.38535500  1
  F  F11  1  0.55957000  0.37335400  0.60407000  1
  F  F12  1  0.00883300  0.02167300  0.34351100  1
  F  F13  1  0.26530900  0.72003900  0.51775300  1
  F  F14  1  0.06307100  0.47801600  0.16560600  1
  F  F15  1  0.49514000  0.11621200  0.40183600  1
  F  F16  1  0.01613300  0.84446200  0.11855200  1
  F  F17  1  0.52212100  0.54682900  0.32224900  1
  F  F18  1  0.47430200  0.95232200  0.18106700  1
  F  F19  1  0.44043000  0.37335400  0.10407000  1
loop_
_geom_bond_atom_site_label_1
_geom_bond_atom_site_label_2
_geom_bond_distance
_geom_bond_site_symmetry_2
H0 O0 0.981982 1_555
H1 O1 1.017955 1_555
H2 O2 0.983369 1_555
H3 O2 0.981982 1_555
H4 O3 0.998465 1_555
H5 O3 1.017955 1_555
H6 O0 0.983369 1_554
H7 O1 0.998465 1_554
O0 V1 2.030328 1_556
O1 V0 2.001186 1_556
O2 V3 2.030328 1_555
O3 V2 2.001186 1_555
F0 V1 1.892042 1_556
F1 V0 1.919911 1_556
F1 Li0 2.162286 1_455
F1 Li2 2.234403 1_555
F2 V0 1.834875 1_655
F3 V0 1.839951 1_646
F3 Li1 2.122467 1_555
F4 V2 1.835557 1_555
F4 Li1 2.029240 1_555
F5 H1 1.529899 1_545
F5 Li1 1.928708 1_555
F5 V1 2.007690 1_556
F6 V2 1.937898 1_555
F6 Li2 2.174303 1_655
F6 Li0 2.238967 1_555
F7 Li2 1.921845 1_555
F7 Li0 1.945251 1_555
F7 V1 2.008268 1_556
F8 V3 1.892042 1_555
F9 Li0 1.966025 1_555
F9 Li2 1.971487 1_555
F9 V3 2.004383 1_565
F10 V2 1.919911 1_555
F10 Li5 2.162286 1_655
F10 Li4 2.234403 1_555
F11 Li1 1.940946 1_555
F11 V3 1.969863 1_555
F12 V2 1.839951 1_445
F12 Li3 2.122467 1_555
F13 V2 1.834875 1_455
F14 V0 1.835557 1_555
F14 Li3 2.029240 1_555
F15 H5 1.529899 1_545
F15 Li3 1.928708 1_555
F15 V3 2.007690 1_555
F16 V0 1.937898 1_555
F16 Li4 2.174303 1_455
F16 Li5 2.238967 1_555
F17 Li4 1.921845 1_555
F17 Li5 1.945251 1_555
F17 V3 2.008268 1_555
F18 Li5 1.966025 1_555
F18 Li4 1.971487 1_555
F18 V1 2.004383 1_565
F19 Li3 1.940946 1_555
F19 V1 1.969863 1_555
