# generated using pymatgen
data_Sr2Zn(HO)6
_symmetry_space_group_name_H-M   'P 1'
_cell_length_a   6.82261400
_cell_length_b   6.34177300
_cell_length_c   11.17646096
_cell_angle_alpha   59.55012969
_cell_angle_beta   90.00000000
_cell_angle_gamma   90.00000000
_symmetry_Int_Tables_number   1
_chemical_formula_structural   Sr2Zn(HO)6
_chemical_formula_sum   'Sr4 Zn2 H12 O12'
_cell_volume   416.87877794
_cell_formula_units_Z   2
loop_
 _symmetry_equiv_pos_site_id
 _symmetry_equiv_pos_as_xyz
  1  'x, y, z'
loop_
 _atom_site_type_symbol
 _atom_site_label
 _atom_site_symmetry_multiplicity
 _atom_site_fract_x
 _atom_site_fract_y
 _atom_site_fract_z
 _atom_site_occupancy
  Sr  Sr0  1  0.57542600  0.17155200  0.65074100  1
  Sr  Sr1  1  0.92457400  0.17155200  0.15074100  1
  Sr  Sr2  1  0.42457400  0.82844800  0.34925900  1
  Sr  Sr3  1  0.07542600  0.82844800  0.84925900  1
  Zn  Zn0  1  0.50000000  0.50000000  0.00000000  1
  Zn  Zn1  1  0.00000000  0.50000000  0.50000000  1
  H  H0  1  0.67729200  0.82126500  0.58112400  1
  H  H1  1  0.82270800  0.82126500  0.08112400  1
  H  H2  1  0.32270800  0.17873500  0.41887600  1
  H  H3  1  0.17729200  0.17873500  0.91887600  1
  H  H4  1  0.73911900  0.91253600  0.52064200  1
  H  H5  1  0.76088100  0.91253600  0.02064200  1
  H  H6  1  0.26088100  0.08746400  0.47935800  1
  H  H7  1  0.23911900  0.08746400  0.97935800  1
  H  H8  1  0.22197800  0.51887200  0.15385800  1
  H  H9  1  0.27802200  0.51887200  0.65385800  1
  H  H10  1  0.77802200  0.48112800  0.84614200  1
  H  H11  1  0.72197800  0.48112800  0.34614200  1
  O  O0  1  0.61444500  0.21656200  0.25126900  1
  O  O1  1  0.88555500  0.21656200  0.75126900  1
  O  O2  1  0.38555500  0.78343800  0.74873100  1
  O  O3  1  0.11444500  0.78343800  0.24873100  1
  O  O4  1  0.70213100  0.52874200  0.41605000  1
  O  O5  1  0.79786900  0.52874200  0.91605000  1
  O  O6  1  0.29786900  0.47125800  0.58395000  1
  O  O7  1  0.20213100  0.47125800  0.08395000  1
  O  O8  1  0.06375200  0.84052100  0.36366300  1
  O  O9  1  0.43624800  0.84052100  0.86366300  1
  O  O10  1  0.93624800  0.15947900  0.63633700  1
  O  O11  1  0.56375200  0.15947900  0.13633700  1
loop_
_geom_bond_atom_site_label_1
_geom_bond_atom_site_label_2
_geom_bond_distance
_geom_bond_site_symmetry_2
H0 H4 0.757186 1_555
H1 H5 0.757186 1_555
H2 H6 0.757186 1_555
H3 H7 0.757186 1_555
H8 O7 0.979341 1_555
H9 O6 0.979341 1_555
H10 O5 0.979341 1_555
H11 O4 0.979341 1_555
O0 O11 1.540134 1_555
O0 Sr1 2.479090 1_555
O0 Sr2 2.490682 1_545
O1 O10 1.540134 1_555
O1 Sr0 2.479090 1_555
O1 Sr3 2.490682 1_645
O2 O9 1.540134 1_555
O2 Sr3 2.479090 1_555
O2 Sr0 2.490682 1_565
O3 O8 1.540134 1_555
O3 Sr2 2.479090 1_555
O3 Sr1 2.490682 1_465
O4 Zn1 2.206862 1_655
O4 Sr2 2.513497 1_555
O4 Sr0 2.595455 1_555
O5 Zn0 2.206862 1_556
O5 Sr3 2.513497 1_655
O5 Sr1 2.595455 1_556
O6 Zn1 2.206862 1_555
O6 Sr0 2.513497 1_555
O6 Sr2 2.595455 1_555
O7 Zn0 2.206862 1_555
O7 Sr1 2.513497 1_455
O7 Sr3 2.595455 1_554
O8 Zn1 1.959410 1_555
O8 Sr1 2.430696 1_465
O8 Sr2 2.470725 1_555
O9 Zn0 1.959410 1_556
O9 Sr0 2.430696 1_565
O9 Sr3 2.470725 1_555
O10 Zn1 1.959410 1_655
O10 Sr3 2.430696 1_645
O10 Sr0 2.470725 1_555
O11 Zn0 1.959410 1_555
O11 Sr2 2.430696 1_545
O11 Sr1 2.470725 1_555
