# generated using pymatgen
data_Li2CoSiO4
_symmetry_space_group_name_H-M   'P 1'
_cell_length_a   5.09589900
_cell_length_b   6.36846700
_cell_length_c   10.77205377
_cell_angle_alpha   89.38687014
_cell_angle_beta   90.00000000
_cell_angle_gamma   90.00000000
_symmetry_Int_Tables_number   1
_chemical_formula_structural   Li2CoSiO4
_chemical_formula_sum   'Li8 Co4 Si4 O16'
_cell_volume   349.56614098
_cell_formula_units_Z   4
loop_
 _symmetry_equiv_pos_site_id
 _symmetry_equiv_pos_as_xyz
  1  'x, y, z'
loop_
 _atom_site_type_symbol
 _atom_site_label
 _atom_site_symmetry_multiplicity
 _atom_site_fract_x
 _atom_site_fract_y
 _atom_site_fract_z
 _atom_site_occupancy
  Li  Li0  1  0.19331300  0.00431200  0.83101800  1
  Li  Li1  1  0.30668700  0.00431200  0.33101800  1
  Li  Li2  1  0.30264100  0.22561800  0.57330000  1
  Li  Li3  1  0.19735900  0.22561800  0.07330000  1
  Li  Li4  1  0.80264100  0.77438200  0.92670000  1
  Li  Li5  1  0.69735900  0.77438200  0.42670000  1
  Li  Li6  1  0.69331300  0.99568800  0.66898200  1
  Li  Li7  1  0.80668700  0.99568800  0.16898200  1
  Co  Co0  1  0.19533700  0.50037500  0.83926100  1
  Co  Co1  1  0.69533700  0.49962500  0.66073900  1
  Co  Co2  1  0.30466300  0.50037500  0.33926100  1
  Co  Co3  1  0.80466300  0.49962500  0.16073900  1
  Si  Si0  1  0.69237900  0.24485100  0.91155200  1
  Si  Si1  1  0.80762100  0.24485100  0.41155200  1
  Si  Si2  1  0.19237900  0.75514900  0.58844800  1
  Si  Si3  1  0.30762100  0.75514900  0.08844800  1
  O  O0  1  0.80310500  0.04083100  0.83968600  1
  O  O1  1  0.69689500  0.04083100  0.33968600  1
  O  O2  1  0.36706500  0.25061500  0.91034900  1
  O  O3  1  0.69979000  0.25049000  0.55589400  1
  O  O4  1  0.13293500  0.25061500  0.41034900  1
  O  O5  1  0.79526100  0.46805700  0.83959400  1
  O  O6  1  0.80021000  0.25049000  0.05589400  1
  O  O7  1  0.70473900  0.46805700  0.33959400  1
  O  O8  1  0.29526100  0.53194300  0.66040600  1
  O  O9  1  0.19979000  0.74951000  0.94410600  1
  O  O10  1  0.20473900  0.53194300  0.16040600  1
  O  O11  1  0.86706500  0.74938500  0.58965100  1
  O  O12  1  0.30021000  0.74951000  0.44410600  1
  O  O13  1  0.63293500  0.74938500  0.08965100  1
  O  O14  1  0.30310500  0.95916900  0.66031400  1
  O  O15  1  0.19689500  0.95916900  0.16031400  1
loop_
_geom_bond_atom_site_label_1
_geom_bond_atom_site_label_2
_geom_bond_distance
_geom_bond_site_symmetry_2
Li0 O14 1.946355 1_545
Li0 O2 2.000837 1_555
Li0 O0 2.004307 1_455
Li0 O9 2.018891 1_545
Li1 O15 1.946355 1_545
Li1 O4 2.000837 1_555
Li1 O1 2.004307 1_555
Li1 O12 2.018891 1_545
Li2 O14 1.929743 1_545
Li2 O4 1.961730 1_555
Li2 O3 2.038505 1_555
Li2 O8 2.174102 1_555
Li3 O15 1.929743 1_545
Li3 O2 1.961730 1_554
Li3 O6 2.038505 1_455
Li3 O10 2.174102 1_555
Li4 O0 1.929743 1_565
Li4 O13 1.961730 1_556
Li4 O9 2.038505 1_655
Li4 O5 2.174102 1_555
Li5 O1 1.929743 1_565
Li5 O11 1.961730 1_555
Li5 O12 2.038505 1_555
Li5 O7 2.174102 1_555
Li6 O0 1.946355 1_565
Li6 O11 2.000837 1_555
Li6 O14 2.004307 1_555
Li6 O3 2.018891 1_565
Li7 O1 1.946355 1_565
Li7 O13 2.000837 1_555
Li7 O15 2.004307 1_655
Li7 O6 2.018891 1_565
Co0 O9 1.957479 1_555
Co0 O2 1.963699 1_555
Co0 O8 2.000835 1_555
Co0 O5 2.049109 1_455
Co1 O3 1.957479 1_555
Co1 O11 1.963699 1_555
Co1 O5 2.000835 1_555
Co1 O8 2.049109 1_555
Co2 O12 1.957479 1_555
Co2 O4 1.963699 1_555
Co2 O10 2.000835 1_555
Co2 O7 2.049109 1_555
Co3 O6 1.957479 1_555
Co3 O13 1.963699 1_555
Co3 O7 2.000835 1_555
Co3 O10 2.049109 1_655
O0 Si0 1.620916 1_555
O1 Si1 1.620916 1_555
O2 Si0 1.658221 1_555
O3 Si1 1.649854 1_555
O4 Si1 1.658221 1_455
O5 Si0 1.694911 1_555
O6 Si0 1.649854 1_554
O7 Si1 1.694911 1_555
O8 Si2 1.694911 1_555
O9 Si3 1.649854 1_556
O10 Si3 1.694911 1_555
O11 Si2 1.658221 1_655
O12 Si2 1.649854 1_555
O13 Si3 1.658221 1_555
O14 Si2 1.620916 1_555
O15 Si3 1.620916 1_555
