# generated using pymatgen
data_Li3Ni8(OF3)4
_symmetry_space_group_name_H-M   'P 1'
_cell_length_a   6.02637622
_cell_length_b   6.02637622
_cell_length_c   10.22651026
_cell_angle_alpha   71.00304308
_cell_angle_beta   71.00304308
_cell_angle_gamma   58.18252645
_symmetry_Int_Tables_number   1
_chemical_formula_structural   Li3Ni8(OF3)4
_chemical_formula_sum   'Li3 Ni8 O4 F12'
_cell_volume   292.87529857
_cell_formula_units_Z   1
loop_
 _symmetry_equiv_pos_site_id
 _symmetry_equiv_pos_as_xyz
  1  'x, y, z'
loop_
 _atom_site_type_symbol
 _atom_site_label
 _atom_site_symmetry_multiplicity
 _atom_site_fract_x
 _atom_site_fract_y
 _atom_site_fract_z
 _atom_site_occupancy
  Li  Li0  1  0.00000000  0.00000000  0.50000000  1
  Li  Li1  1  0.19253000  0.19253000  0.92491700  1
  Li  Li2  1  0.80747000  0.80747000  0.07508300  1
  Ni  Ni0  1  0.00000000  0.50000000  0.50000000  1
  Ni  Ni1  1  0.50000000  0.00000000  0.50000000  1
  Ni  Ni2  1  0.75341300  0.26009900  0.74611800  1
  Ni  Ni3  1  0.26009900  0.75341300  0.74611800  1
  Ni  Ni4  1  0.74429600  0.74429600  0.76282200  1
  Ni  Ni5  1  0.25570400  0.25570400  0.23717800  1
  Ni  Ni6  1  0.24658700  0.73990100  0.25388200  1
  Ni  Ni7  1  0.73990100  0.24658700  0.25388200  1
  O  O0  1  0.12241700  0.12241700  0.61258400  1
  O  O1  1  0.64159900  0.64159900  0.63003500  1
  O  O2  1  0.35840100  0.35840100  0.36996500  1
  O  O3  1  0.87758300  0.87758300  0.38741600  1
  F  F0  1  0.64310400  0.11079300  0.63306400  1
  F  F1  1  0.11079300  0.64310400  0.63306400  1
  F  F2  1  0.38642600  0.38642600  0.85921200  1
  F  F3  1  0.87733400  0.87733400  0.86847800  1
  F  F4  1  0.86765400  0.37435600  0.86586200  1
  F  F5  1  0.37435600  0.86765400  0.86586200  1
  F  F6  1  0.13234600  0.62564400  0.13413800  1
  F  F7  1  0.62564400  0.13234600  0.13413800  1
  F  F8  1  0.12266600  0.12266600  0.13152200  1
  F  F9  1  0.61357400  0.61357400  0.14078800  1
  F  F10  1  0.35689600  0.88920700  0.36693600  1
  F  F11  1  0.88920700  0.35689600  0.36693600  1
loop_
_geom_bond_atom_site_label_1
_geom_bond_atom_site_label_2
_geom_bond_distance
_geom_bond_site_symmetry_2
Li0 O0 2.023340 1_555
Li0 O3 2.023340 1_445
Ni0 O1 2.021639 1_455
Ni0 O2 2.021639 1_555
Ni0 O3 2.030977 1_455
Ni0 O0 2.030977 1_555
Ni1 O1 2.021639 1_545
Ni1 O2 2.021639 1_555
Ni1 O3 2.030977 1_545
Ni1 O0 2.030977 1_555
Ni2 O1 2.063837 1_555
Ni2 O0 2.076890 1_655
Ni3 O1 2.063837 1_555
Ni3 O0 2.076890 1_565
Ni4 O1 2.026878 1_555
Ni5 O2 2.026878 1_555
Ni6 O2 2.063837 1_555
Ni6 O3 2.076890 1_455
Ni7 O2 2.063837 1_555
Ni7 O3 2.076890 1_545
F0 Li0 2.023685 1_655
F0 Ni4 2.051691 1_545
F0 Ni2 2.096782 1_555
F0 Ni1 2.236945 1_555
F1 Li0 2.023685 1_565
F1 Ni4 2.051691 1_455
F1 Ni3 2.096782 1_555
F1 Ni0 2.236945 1_555
F2 Li1 1.897262 1_555
F2 Ni3 1.985203 1_555
F2 Ni2 1.985203 1_555
F3 Li2 1.961451 1_556
F3 Ni4 2.063672 1_555
F3 Ni2 2.087377 1_565
F3 Ni3 2.087377 1_655
F4 Li1 1.864234 1_655
F4 Ni4 1.966279 1_555
F4 Ni2 2.011290 1_555
F5 Li1 1.864234 1_565
F5 Ni4 1.966279 1_555
F5 Ni3 2.011290 1_555
F6 Li2 1.864234 1_455
F6 Ni5 1.966279 1_555
F6 Ni6 2.011290 1_555
F7 Li2 1.864234 1_545
F7 Ni5 1.966279 1_555
F7 Ni7 2.011290 1_555
F8 Li1 1.961451 1_554
F8 Ni5 2.063672 1_555
F8 Ni6 2.087377 1_545
F8 Ni7 2.087377 1_455
F9 Li2 1.897262 1_555
F9 Ni6 1.985203 1_555
F9 Ni7 1.985203 1_555
F10 Li0 2.023685 1_565
F10 Ni5 2.051691 1_565
F10 Ni6 2.096782 1_555
F10 Ni1 2.236945 1_565
F11 Li0 2.023685 1_655
F11 Ni5 2.051691 1_655
F11 Ni7 2.096782 1_555
F11 Ni0 2.236945 1_655
