# generated using pymatgen
data_Li2FeH12(SO7)2
_symmetry_space_group_name_H-M   'P 1'
_cell_length_a   11.79557000
_cell_length_b   5.96759300
_cell_length_c   8.92982503
_cell_angle_alpha   78.25659415
_cell_angle_beta   90.00000000
_cell_angle_gamma   90.00000000
_symmetry_Int_Tables_number   1
_chemical_formula_structural   Li2FeH12(SO7)2
_chemical_formula_sum   'Li4 Fe2 H24 S4 O28'
_cell_volume   615.42386666
_cell_formula_units_Z   2
loop_
 _symmetry_equiv_pos_site_id
 _symmetry_equiv_pos_as_xyz
  1  'x, y, z'
loop_
 _atom_site_type_symbol
 _atom_site_label
 _atom_site_symmetry_multiplicity
 _atom_site_fract_x
 _atom_site_fract_y
 _atom_site_fract_z
 _atom_site_occupancy
  Li  Li0  1  0.38620300  0.69435600  0.13357100  1
  Li  Li1  1  0.88620300  0.30564400  0.36642900  1
  Li  Li2  1  0.11379700  0.69435600  0.63357100  1
  Li  Li3  1  0.61379700  0.30564400  0.86642900  1
  Fe  Fe0  1  0.00000000  0.00000000  0.00000000  1
  Fe  Fe1  1  0.50000000  0.00000000  0.50000000  1
  H  H0  1  0.06118800  0.35149000  0.09974400  1
  H  H1  1  0.84682300  0.64838100  0.03531100  1
  H  H2  1  0.40157800  0.07342400  0.21788500  1
  H  H3  1  0.64063700  0.09780700  0.25567800  1
  H  H4  1  0.30760300  0.98161100  0.34405200  1
  H  H5  1  0.10215600  0.66876500  0.20715000  1
  H  H6  1  0.60215600  0.33123500  0.29285000  1
  H  H7  1  0.80760300  0.01838900  0.15594800  1
  H  H8  1  0.14063700  0.90219300  0.24432200  1
  H  H9  1  0.90157800  0.92657600  0.28211500  1
  H  H10  1  0.34682300  0.35161900  0.46468900  1
  H  H11  1  0.56118800  0.64851000  0.40025600  1
  H  H12  1  0.43881200  0.35149000  0.59974400  1
  H  H13  1  0.65317700  0.64838100  0.53531100  1
  H  H14  1  0.09842200  0.07342400  0.71788500  1
  H  H15  1  0.85936300  0.09780700  0.75567800  1
  H  H16  1  0.19239700  0.98161100  0.84405200  1
  H  H17  1  0.39784400  0.66876500  0.70715000  1
  H  H18  1  0.89784400  0.33123500  0.79285000  1
  H  H19  1  0.69239700  0.01838900  0.65594800  1
  H  H20  1  0.35936300  0.90219300  0.74432200  1
  H  H21  1  0.59842200  0.92657600  0.78211500  1
  H  H22  1  0.15317700  0.35161900  0.96468900  1
  H  H23  1  0.93881200  0.64851000  0.90025600  1
  S  S0  1  0.62776900  0.72615000  0.08456100  1
  S  S1  1  0.12776900  0.27385000  0.41543900  1
  S  S2  1  0.87223100  0.72615000  0.58456100  1
  S  S3  1  0.37223100  0.27385000  0.91543900  1
  O  O0  1  0.07342400  0.30943300  0.99895900  1
  O  O1  1  0.43284300  0.26452100  0.06283600  1
  O  O2  1  0.88429700  0.05247900  0.19188600  1
  O  O3  1  0.72523600  0.56557900  0.09946500  1
  O  O4  1  0.66602300  0.96176000  0.09641000  1
  O  O5  1  0.13090500  0.82156600  0.15846000  1
  O  O6  1  0.04437200  0.36595700  0.28938600  1
  O  O7  1  0.54437200  0.63404300  0.21061400  1
  O  O8  1  0.63090500  0.17843400  0.34154000  1
  O  O9  1  0.16602300  0.03824000  0.40359000  1
  O  O10  1  0.22523600  0.43442100  0.40053500  1
  O  O11  1  0.38429700  0.94752100  0.30811400  1
  O  O12  1  0.42657600  0.30943300  0.49895900  1
  O  O13  1  0.06715700  0.26452100  0.56283600  1
  O  O14  1  0.93284300  0.73547900  0.43716400  1
  O  O15  1  0.57342400  0.69056700  0.50104100  1
  O  O16  1  0.61570300  0.05247900  0.69188600  1
  O  O17  1  0.77476400  0.56557900  0.59946500  1
  O  O18  1  0.83397700  0.96176000  0.59641000  1
  O  O19  1  0.36909500  0.82156600  0.65846000  1
  O  O20  1  0.45562800  0.36595700  0.78938600  1
  O  O21  1  0.95562800  0.63404300  0.71061400  1
  O  O22  1  0.86909500  0.17843400  0.84154000  1
  O  O23  1  0.33397700  0.03824000  0.90359000  1
  O  O24  1  0.27476400  0.43442100  0.90053500  1
  O  O25  1  0.11570300  0.94752100  0.80811400  1
  O  O26  1  0.56715700  0.73547900  0.93716400  1
  O  O27  1  0.92657600  0.69056700  0.00104100  1
loop_
_geom_bond_atom_site_label_1
_geom_bond_atom_site_label_2
_geom_bond_distance
_geom_bond_site_symmetry_2
Li0 O7 1.995715 1_555
Li1 O6 1.995715 1_655
Li2 O21 1.995715 1_455
Li3 O20 1.995715 1_555
Fe0 O0 2.037894 1_554
Fe0 O27 2.037894 1_445
Fe0 O5 2.215183 1_545
Fe0 O22 2.215183 1_454
Fe0 O25 2.261694 1_544
Fe0 O2 2.261694 1_455
Fe1 O12 2.037894 1_555
Fe1 O15 2.037894 1_545
Fe1 O8 2.215183 1_555
Fe1 O19 2.215183 1_545
Fe1 O11 2.261694 1_545
Fe1 O16 2.261694 1_555
H0 O0 0.992852 1_554
H0 O6 1.724573 1_555
H1 O27 1.005309 1_555
H1 O3 1.585568 1_555
H2 O11 1.004408 1_545
H2 O1 1.646445 1_555
H3 O8 0.991327 1_555
H4 O11 0.994657 1_555
H5 O5 0.986982 1_555
H6 O8 0.986982 1_555
H7 O2 0.994657 1_555
H8 O5 0.991327 1_555
H9 O2 1.004408 1_565
H9 O14 1.646445 1_555
H10 O12 1.005309 1_555
H10 O10 1.585568 1_555
H11 O15 0.992852 1_555
H11 O7 1.724573 1_555
H12 O12 0.992852 1_555
H12 O20 1.724573 1_555
H13 O15 1.005309 1_555
H13 O17 1.585568 1_555
H14 O25 1.004408 1_545
H14 O13 1.646445 1_555
H15 O22 0.991327 1_555
H16 O25 0.994657 1_555
H17 O19 0.986982 1_555
H18 O22 0.986982 1_555
H19 O16 0.994657 1_555
H20 O19 0.991327 1_555
H21 O16 1.004408 1_565
H21 O26 1.646445 1_555
H22 O0 1.005309 1_555
H22 O24 1.585568 1_555
H23 O27 0.992852 1_556
H23 O21 1.724573 1_555
O1 S3 1.488922 1_554
O3 S0 1.485178 1_555
O4 S0 1.500755 1_555
O6 S1 1.511626 1_555
O7 S0 1.511626 1_555
O9 S1 1.500755 1_555
O10 S1 1.485178 1_555
O13 S1 1.488922 1_555
O14 S2 1.488922 1_555
O17 S2 1.485178 1_555
O18 S2 1.500755 1_555
O20 S3 1.511626 1_555
O21 S2 1.511626 1_555
O23 S3 1.500755 1_555
O24 S3 1.485178 1_555
O26 S0 1.488922 1_556
