# generated using pymatgen
data_Li3Mn(BO2)5
_symmetry_space_group_name_H-M   'P 1'
_cell_length_a   6.98764000
_cell_length_b   7.18951496
_cell_length_c   9.46578408
_cell_angle_alpha   80.59641689
_cell_angle_beta   110.73906483
_cell_angle_gamma   117.77258195
_symmetry_Int_Tables_number   1
_chemical_formula_structural   Li3Mn(BO2)5
_chemical_formula_sum   'Li6 Mn2 B10 O20'
_cell_volume   393.49461022
_cell_formula_units_Z   2
loop_
 _symmetry_equiv_pos_site_id
 _symmetry_equiv_pos_as_xyz
  1  'x, y, z'
loop_
 _atom_site_type_symbol
 _atom_site_label
 _atom_site_symmetry_multiplicity
 _atom_site_fract_x
 _atom_site_fract_y
 _atom_site_fract_z
 _atom_site_occupancy
  Li  Li0  1  0.22128000  0.49167900  0.75536000  1
  Li  Li1  1  0.79912900  0.98783000  0.83975100  1
  Li  Li2  1  0.02585900  0.81921200  0.53315800  1
  Li  Li3  1  0.97414100  0.18078800  0.46684200  1
  Li  Li4  1  0.20087100  0.01217000  0.16024900  1
  Li  Li5  1  0.77872000  0.50832100  0.24464000  1
  Mn  Mn0  1  0.22307600  0.47937900  0.12039600  1
  Mn  Mn1  1  0.77692400  0.52062100  0.87960400  1
  B  B0  1  0.30450400  0.18394400  0.92480400  1
  B  B1  1  0.40662300  0.13433300  0.70547300  1
  B  B2  1  0.36219000  0.24239300  0.43093200  1
  B  B3  1  0.22005900  0.82813500  0.86321200  1
  B  B4  1  0.73985800  0.27712700  0.60002800  1
  B  B5  1  0.26014200  0.72287300  0.39997200  1
  B  B6  1  0.77994100  0.17186500  0.13678800  1
  B  B7  1  0.63781000  0.75760700  0.56906800  1
  B  B8  1  0.59337700  0.86566700  0.29452700  1
  B  B9  1  0.69549600  0.81605600  0.07519600  1
  O  O0  1  0.26738700  0.29019400  0.00491300  1
  O  O1  1  0.27039000  0.15574400  0.54976700  1
  O  O2  1  0.40516500  0.26964800  0.81045600  1
  O  O3  1  0.22077500  0.24677400  0.29233600  1
  O  O4  1  0.13587000  0.61963200  0.89402000  1
  O  O5  1  0.64961600  0.20691600  0.72228200  1
  O  O6  1  0.05263700  0.69909400  0.38149300  1
  O  O7  1  0.70015600  0.09142100  0.25848200  1
  O  O8  1  0.59693000  0.31358300  0.46077300  1
  O  O9  1  0.76739200  0.03255900  0.04245200  1
  O  O10  1  0.23260800  0.96744100  0.95754800  1
  O  O11  1  0.40307000  0.68641700  0.53922700  1
  O  O12  1  0.29984400  0.90857900  0.74151800  1
  O  O13  1  0.94736300  0.30090600  0.61850700  1
  O  O14  1  0.35038400  0.79308400  0.27771800  1
  O  O15  1  0.86413000  0.38036800  0.10598000  1
  O  O16  1  0.77922500  0.75322600  0.70766400  1
  O  O17  1  0.59483500  0.73035200  0.18954400  1
  O  O18  1  0.72961000  0.84425600  0.45023300  1
  O  O19  1  0.73261300  0.70980600  0.99508700  1
loop_
_geom_bond_atom_site_label_1
_geom_bond_atom_site_label_2
_geom_bond_distance
_geom_bond_site_symmetry_2
Li0 O13 1.897600 1_455
Li0 O4 2.094312 1_555
Li0 O2 2.374031 1_555
Li0 O0 2.561249 1_556
Li0 O11 2.646986 1_555
Li1 O9 2.098461 1_566
Li1 O16 2.185151 1_555
Li1 O5 2.224278 1_565
Li1 O19 2.243047 1_555
Li2 O6 1.894149 1_555
Li2 O18 2.020933 1_455
Li2 O12 2.135790 1_555
Li2 O1 2.208988 1_565
Li3 O13 1.894149 1_555
Li3 O1 2.020933 1_655
Li3 O7 2.135790 1_555
Li3 O18 2.208988 1_545
Li4 O10 2.098461 1_544
Li4 O3 2.185151 1_555
Li4 O14 2.224278 1_545
Li4 O0 2.243047 1_555
Li5 O6 1.897600 1_655
Li5 O15 2.094312 1_555
Li5 O17 2.374031 1_555
Li5 O19 2.561249 1_554
Li5 O8 2.646986 1_555
Mn0 O0 2.063702 1_555
Mn0 O3 2.133044 1_555
Mn0 O4 2.218464 1_554
Mn0 O15 2.223013 1_455
Mn0 O17 2.290389 1_555
Mn0 O14 2.526917 1_555
Mn1 O19 2.063702 1_555
Mn1 O16 2.133044 1_555
Mn1 O15 2.218464 1_556
Mn1 O4 2.223013 1_655
Mn1 O2 2.290389 1_555
Mn1 O5 2.526917 1_555
B0 O0 1.318714 1_556
B0 O2 1.401195 1_555
B0 O10 1.412510 1_545
B1 O1 1.473419 1_555
B1 O12 1.475877 1_545
B1 O5 1.480107 1_555
B1 O2 1.505455 1_555
B2 O3 1.340131 1_555
B2 O8 1.403206 1_555
B2 O1 1.405176 1_555
B3 O4 1.354641 1_555
B3 O12 1.381625 1_555
B3 O10 1.401110 1_555
B4 O13 1.327167 1_555
B4 O8 1.415055 1_555
B4 O5 1.421585 1_555
B5 O6 1.327167 1_555
B5 O11 1.415055 1_555
B5 O14 1.421585 1_555
B6 O15 1.354641 1_555
B6 O7 1.381625 1_555
B6 O9 1.401110 1_555
B7 O16 1.340131 1_555
B7 O11 1.403206 1_555
B7 O18 1.405176 1_555
B8 O18 1.473419 1_555
B8 O7 1.475877 1_565
B8 O14 1.480107 1_555
B8 O17 1.505455 1_555
B9 O19 1.318714 1_554
B9 O17 1.401195 1_555
B9 O9 1.412510 1_565
