# generated using pymatgen
data_K2Mg2O3
_symmetry_space_group_name_H-M   'P 1'
_cell_length_a   6.66151729
_cell_length_b   6.20705139
_cell_length_c   6.30843655
_cell_angle_alpha   90.00000000
_cell_angle_beta   126.42422169
_cell_angle_gamma   90.00000000
_symmetry_Int_Tables_number   1
_chemical_formula_structural   K2Mg2O3
_chemical_formula_sum   'K4 Mg4 O6'
_cell_volume   209.88596603
_cell_formula_units_Z   2
loop_
 _symmetry_equiv_pos_site_id
 _symmetry_equiv_pos_as_xyz
  1  'x, y, z'
loop_
 _atom_site_type_symbol
 _atom_site_label
 _atom_site_symmetry_multiplicity
 _atom_site_fract_x
 _atom_site_fract_y
 _atom_site_fract_z
 _atom_site_occupancy
  K  K0  1  0.17897423  0.36989766  0.25137549  1
  K  K1  1  0.82102577  0.86989766  0.24862451  1
  K  K2  1  0.17897423  0.13010234  0.75137549  1
  K  K3  1  0.82102577  0.63010234  0.74862451  1
  Mg  Mg0  1  0.33717602  0.60847116  0.76154309  1
  Mg  Mg1  1  0.33717602  0.89152884  0.26154309  1
  Mg  Mg2  1  0.66282398  0.10847116  0.73845691  1
  Mg  Mg3  1  0.66282398  0.39152884  0.23845691  1
  O  O0  1  0.00000000  0.50000000  0.50000000  1
  O  O1  1  0.00000000  0.00000000  0.00000000  1
  O  O2  1  0.41653224  0.85853451  0.62280818  1
  O  O3  1  0.58346776  0.35853451  0.87719182  1
  O  O4  1  0.41653224  0.64146549  0.12280818  1
  O  O5  1  0.58346776  0.14146549  0.37719182  1
loop_
_geom_bond_atom_site_label_1
_geom_bond_atom_site_label_2
_geom_bond_distance
_geom_bond_site_symmetry_2
K0 O0 2.598875 1_555
K0 O1 2.638652 1_555
K0 O5 2.713157 1_555
K0 O4 2.743657 1_555
K1 O1 2.598875 1_665
K1 O0 2.638652 1_655
K1 O4 2.713157 1_555
K1 O5 2.743657 1_565
K2 O1 2.598875 1_556
K2 O0 2.638652 1_555
K2 O3 2.713157 1_555
K2 O2 2.743657 1_545
K3 O0 2.598875 1_655
K3 O1 2.638652 1_666
K3 O2 2.713157 1_555
K3 O3 2.743657 1_555
Mg0 O0 1.954411 1_555
Mg0 O2 2.001008 1_555
Mg0 O4 2.021049 1_556
Mg0 O3 2.051682 1_555
Mg1 O1 1.954411 1_565
Mg1 O4 2.001008 1_555
Mg1 O2 2.021049 1_555
Mg1 O5 2.051682 1_565
Mg2 O1 1.954411 1_656
Mg2 O3 2.001008 1_555
Mg2 O5 2.021049 1_555
Mg2 O2 2.051682 1_545
Mg3 O0 1.954411 1_655
Mg3 O5 2.001008 1_555
Mg3 O3 2.021049 1_554
Mg3 O4 2.051682 1_555
