# generated using pymatgen
data_Sr24Fe16O53
_symmetry_space_group_name_H-M   'P 1'
_cell_length_a   11.96197042
_cell_length_b   11.96197042
_cell_length_c   11.11588301
_cell_angle_alpha   76.57790548
_cell_angle_beta   76.57790548
_cell_angle_gamma   117.45638758
_symmetry_Int_Tables_number   1
_chemical_formula_structural   Sr24Fe16O53
_chemical_formula_sum   'Sr24 Fe16 O53'
_cell_volume   1262.42888464
_cell_formula_units_Z   1
loop_
 _symmetry_equiv_pos_site_id
 _symmetry_equiv_pos_as_xyz
  1  'x, y, z'
loop_
 _atom_site_type_symbol
 _atom_site_label
 _atom_site_symmetry_multiplicity
 _atom_site_fract_x
 _atom_site_fract_y
 _atom_site_fract_z
 _atom_site_occupancy
  Sr  Sr0  1  0.00000000  0.00000000  0.50000000  1
  Sr  Sr1  1  0.43516400  0.06941200  0.62419700  1
  Sr  Sr2  1  0.06941200  0.43516400  0.62419700  1
  Sr  Sr3  1  0.25976500  0.25976500  0.62011300  1
  Sr  Sr4  1  0.18307700  0.81692300  0.50000000  1
  Sr  Sr5  1  0.81692300  0.18307700  0.50000000  1
  Sr  Sr6  1  0.68084500  0.31899300  0.25141000  1
  Sr  Sr7  1  0.25133000  0.25133000  0.12439800  1
  Sr  Sr8  1  0.49987700  0.49987700  0.26006700  1
  Sr  Sr9  1  0.31899300  0.68084500  0.25141000  1
  Sr  Sr10  1  0.93058800  0.56483600  0.37580300  1
  Sr  Sr11  1  0.06677500  0.43340400  0.12464500  1
  Sr  Sr12  1  0.43340400  0.06677500  0.12464500  1
  Sr  Sr13  1  0.00000000  0.00000000  0.00000000  1
  Sr  Sr14  1  0.74023500  0.74023500  0.37988700  1
  Sr  Sr15  1  0.56483600  0.93058800  0.37580300  1
  Sr  Sr16  1  0.18138900  0.81861100  0.00000000  1
  Sr  Sr17  1  0.81861100  0.18138900  0.00000000  1
  Sr  Sr18  1  0.74867000  0.74867000  0.87560200  1
  Sr  Sr19  1  0.93322500  0.56659600  0.87535500  1
  Sr  Sr20  1  0.68100700  0.31915500  0.74859000  1
  Sr  Sr21  1  0.50012300  0.50012300  0.73993300  1
  Sr  Sr22  1  0.31915500  0.68100700  0.74859000  1
  Sr  Sr23  1  0.56659600  0.93322500  0.87535500  1
  Fe  Fe0  1  0.40175400  0.59824600  0.50000000  1
  Fe  Fe1  1  0.59824600  0.40175400  0.50000000  1
  Fe  Fe2  1  0.15380300  0.34443100  0.37491600  1
  Fe  Fe3  1  0.84619700  0.65556900  0.62508400  1
  Fe  Fe4  1  0.34443100  0.15380300  0.37491600  1
  Fe  Fe5  1  0.65556900  0.84619700  0.62508400  1
  Fe  Fe6  1  0.89434200  0.10489600  0.25058700  1
  Fe  Fe7  1  0.10489600  0.89434200  0.25058700  1
  Fe  Fe8  1  0.65536500  0.84573600  0.12421800  1
  Fe  Fe9  1  0.60500300  0.39499700  0.00000000  1
  Fe  Fe10  1  0.34463500  0.15426400  0.87578200  1
  Fe  Fe11  1  0.15426400  0.34463500  0.87578200  1
  Fe  Fe12  1  0.39499700  0.60500300  0.00000000  1
  Fe  Fe13  1  0.84573600  0.65536500  0.12421800  1
  Fe  Fe14  1  0.10565800  0.89510400  0.74941300  1
  Fe  Fe15  1  0.89510400  0.10565800  0.74941300  1
  O  O0  1  0.27923900  0.47070000  0.68697800  1
  O  O1  1  0.03023800  0.21004800  0.56935200  1
  O  O2  1  0.47070000  0.27923900  0.68697800  1
  O  O3  1  0.21004800  0.03023800  0.56935200  1
  O  O4  1  0.50000000  0.50000000  0.50000000  1
  O  O5  1  0.30442700  0.69557300  0.50000000  1
  O  O6  1  0.27878100  0.47049500  0.43808400  1
  O  O7  1  0.72121900  0.52950500  0.56191600  1
  O  O8  1  0.96861200  0.79008500  0.68979200  1
  O  O9  1  0.69557300  0.30442700  0.50000000  1
  O  O10  1  0.74868400  0.74868400  0.62412000  1
  O  O11  1  0.05356700  0.43751000  0.37362200  1
  O  O12  1  0.47049500  0.27878100  0.43808400  1
  O  O13  1  0.20991500  0.03138800  0.31020800  1
  O  O14  1  0.03138800  0.20991500  0.31020800  1
  O  O15  1  0.25131600  0.25131600  0.37588000  1
  O  O16  1  0.94643300  0.56249000  0.62637800  1
  O  O17  1  0.52950500  0.72121900  0.56191600  1
  O  O18  1  0.43751000  0.05356700  0.37362200  1
  O  O19  1  0.56249000  0.94643300  0.62637800  1
  O  O20  1  0.79008500  0.96861200  0.68979200  1
  O  O21  1  0.19989100  0.80116100  0.25098600  1
  O  O22  1  0.80116100  0.19989100  0.25098600  1
  O  O23  1  0.46909200  0.28942300  0.18036200  1
  O  O24  1  0.28942300  0.46909200  0.18036200  1
  O  O25  1  0.03131000  0.20986500  0.06968000  1
  O  O26  1  0.96976200  0.78995200  0.43064800  1
  O  O27  1  0.20986500  0.03131000  0.06968000  1
  O  O28  1  0.78995200  0.96976200  0.43064800  1
  O  O29  1  0.52930000  0.72076100  0.31302200  1
  O  O30  1  0.72076100  0.52930000  0.31302200  1
  O  O31  1  0.46916300  0.28972800  0.94024000  1
  O  O32  1  0.94546200  0.56194000  0.11950000  1
  O  O33  1  0.30067900  0.69932100  0.00000000  1
  O  O34  1  0.05453800  0.43806000  0.88050000  1
  O  O35  1  0.21003400  0.03026700  0.81023500  1
  O  O36  1  0.78996600  0.96973300  0.18976500  1
  O  O37  1  0.25134500  0.25134500  0.87294300  1
  O  O38  1  0.53083700  0.71027200  0.05976000  1
  O  O39  1  0.03026700  0.21003400  0.81023500  1
  O  O40  1  0.43806000  0.05453800  0.88050000  1
  O  O41  1  0.28972800  0.46916300  0.94024000  1
  O  O42  1  0.71027200  0.53083700  0.05976000  1
  O  O43  1  0.74865500  0.74865500  0.12705700  1
  O  O44  1  0.96973300  0.78996600  0.18976500  1
  O  O45  1  0.56194000  0.94546200  0.11950000  1
  O  O46  1  0.69932100  0.30067900  0.00000000  1
  O  O47  1  0.96869000  0.79013500  0.93032000  1
  O  O48  1  0.79013500  0.96869000  0.93032000  1
  O  O49  1  0.53090800  0.71057700  0.81963800  1
  O  O50  1  0.80010900  0.19883900  0.74901400  1
  O  O51  1  0.71057700  0.53090800  0.81963800  1
  O  O52  1  0.19883900  0.80010900  0.74901400  1
loop_
_geom_bond_atom_site_label_1
_geom_bond_atom_site_label_2
_geom_bond_distance
_geom_bond_site_symmetry_2
Fe0 O0 1.961445 1_555
Fe0 O29 1.961445 1_555
Fe0 O6 1.964220 1_555
Fe0 O17 1.964220 1_555
Fe0 O5 1.990156 1_555
Fe0 O4 2.008948 1_555
Fe1 O2 1.961445 1_555
Fe1 O30 1.961445 1_555
Fe1 O12 1.964220 1_555
Fe1 O7 1.964220 1_555
Fe1 O9 1.990156 1_555
Fe1 O4 2.008948 1_555
Fe2 O15 1.949282 1_555
Fe2 O6 1.975352 1_555
Fe2 O11 1.977162 1_555
Fe2 O14 2.025898 1_555
Fe2 O1 2.037900 1_555
Fe2 O24 2.043465 1_555
Fe3 O10 1.949282 1_555
Fe3 O7 1.975352 1_555
Fe3 O16 1.977162 1_555
Fe3 O8 2.025898 1_555
Fe3 O26 2.037900 1_555
Fe3 O51 2.043465 1_555
Fe4 O15 1.949282 1_555
Fe4 O12 1.975352 1_555
Fe4 O18 1.977162 1_555
Fe4 O13 2.025898 1_555
Fe4 O3 2.037900 1_555
Fe4 O23 2.043465 1_555
Fe5 O10 1.949282 1_555
Fe5 O17 1.975352 1_555
Fe5 O19 1.977162 1_555
Fe5 O20 2.025898 1_555
Fe5 O28 2.037900 1_555
Fe5 O49 2.043465 1_555
Fe6 O28 1.911728 1_545
Fe6 O36 1.915177 1_545
Fe6 O14 1.922658 1_655
Fe6 O22 1.923974 1_555
Fe6 O25 1.925100 1_655
Fe7 O26 1.911728 1_455
Fe7 O44 1.915177 1_455
Fe7 O13 1.922658 1_565
Fe7 O21 1.923974 1_555
Fe7 O27 1.925100 1_565
Fe8 O43 1.946594 1_555
Fe8 O45 1.975408 1_555
Fe8 O29 1.977081 1_555
Fe8 O48 2.033808 1_554
Fe8 O38 2.041248 1_555
Fe8 O36 2.041421 1_555
Fe9 O31 1.915693 1_554
Fe9 O42 1.915693 1_555
Fe9 O51 1.917185 1_554
Fe9 O23 1.917185 1_555
Fe9 O46 1.928627 1_555
Fe10 O37 1.946594 1_555
Fe10 O40 1.975408 1_555
Fe10 O2 1.977081 1_555
Fe10 O27 2.033808 1_556
Fe10 O31 2.041248 1_555
Fe10 O35 2.041421 1_555
Fe11 O37 1.946594 1_555
Fe11 O34 1.975408 1_555
Fe11 O0 1.977081 1_555
Fe11 O25 2.033808 1_556
Fe11 O41 2.041248 1_555
Fe11 O39 2.041421 1_555
Fe12 O41 1.915693 1_554
Fe12 O38 1.915693 1_555
Fe12 O49 1.917185 1_554
Fe12 O24 1.917185 1_555
Fe12 O33 1.928627 1_555
Fe13 O43 1.946594 1_555
Fe13 O32 1.975408 1_555
Fe13 O30 1.977081 1_555
Fe13 O47 2.033808 1_554
Fe13 O42 2.041248 1_555
Fe13 O44 2.041421 1_555
Fe14 O3 1.911728 1_565
Fe14 O35 1.915177 1_565
Fe14 O8 1.922658 1_455
Fe14 O52 1.923974 1_555
Fe14 O47 1.925100 1_455
Fe15 O1 1.911728 1_655
Fe15 O39 1.915177 1_655
Fe15 O20 1.922658 1_545
Fe15 O50 1.923974 1_555
Fe15 O48 1.925100 1_545
O0 Sr22 2.621015 1_555
O0 Sr2 2.633355 1_555
O0 Sr3 2.717030 1_555
O0 Sr21 2.722558 1_555
O1 Sr0 2.688652 1_555
O1 Sr5 2.734765 1_455
O1 Sr2 2.752045 1_555
O1 Sr3 2.753115 1_555
O2 Sr20 2.621015 1_555
O2 Sr1 2.633355 1_555
O2 Sr3 2.717030 1_555
O2 Sr21 2.722558 1_555
O3 Sr0 2.688652 1_555
O3 Sr4 2.734765 1_545
O3 Sr1 2.752045 1_555
O3 Sr3 2.753115 1_555
O4 Sr21 2.667751 1_555
O4 Sr8 2.667751 1_555
O4 Sr14 2.668551 1_555
O4 Sr3 2.668551 1_555
O5 Sr4 2.481381 1_555
O5 Sr15 2.763832 1_555
O5 Sr2 2.763832 1_555
O5 Sr22 2.779928 1_555
O5 Sr9 2.779928 1_555
O6 Sr9 2.620123 1_555
O6 Sr2 2.635071 1_555
O6 Sr3 2.718416 1_555
O6 Sr8 2.724748 1_555
O7 Sr20 2.620123 1_555
O7 Sr10 2.635071 1_555
O7 Sr14 2.718416 1_555
O7 Sr21 2.724748 1_555
O8 Sr0 2.683372 1_665
O8 Sr18 2.689544 1_555
O8 Sr4 2.747505 1_655
O8 Sr19 2.751709 1_555
O9 Sr5 2.481381 1_555
O9 Sr10 2.763832 1_555
O9 Sr1 2.763832 1_555
O9 Sr20 2.779928 1_555
O9 Sr6 2.779928 1_555
O10 Sr21 2.762602 1_555
O10 Sr14 2.763379 1_555
O10 Sr0 2.791685 1_665
O10 Sr18 2.795367 1_555
O11 Sr10 2.559507 1_455
O11 Sr5 2.733831 1_455
O11 Sr11 2.748499 1_555
O11 Sr2 2.829958 1_555
O11 Sr9 2.835210 1_555
O12 Sr6 2.620123 1_555
O12 Sr1 2.635071 1_555
O12 Sr3 2.718416 1_555
O12 Sr8 2.724748 1_555
O13 Sr0 2.683372 1_555
O13 Sr7 2.689544 1_555
O13 Sr4 2.747505 1_545
O13 Sr12 2.751709 1_555
O14 Sr0 2.683372 1_555
O14 Sr7 2.689544 1_555
O14 Sr5 2.747505 1_455
O14 Sr11 2.751709 1_555
O15 Sr8 2.762602 1_555
O15 Sr3 2.763379 1_555
O15 Sr0 2.791685 1_555
O15 Sr7 2.795367 1_555
O16 Sr2 2.559507 1_655
O16 Sr4 2.733831 1_655
O16 Sr19 2.748499 1_555
O16 Sr10 2.829958 1_555
O16 Sr20 2.835210 1_555
O17 Sr22 2.620123 1_555
O17 Sr15 2.635071 1_555
O17 Sr14 2.718416 1_555
O17 Sr21 2.724748 1_555
O18 Sr15 2.559507 1_545
O18 Sr4 2.733831 1_545
O18 Sr12 2.748499 1_555
O18 Sr1 2.829958 1_555
O18 Sr6 2.835210 1_555
O19 Sr1 2.559507 1_565
O19 Sr5 2.733831 1_565
O19 Sr23 2.748499 1_555
O19 Sr15 2.829958 1_555
O19 Sr22 2.835210 1_555
O20 Sr0 2.683372 1_665
O20 Sr18 2.689544 1_555
O20 Sr5 2.747505 1_565
O20 Sr23 2.751709 1_555
O21 Sr9 2.447836 1_555
O21 Sr4 2.785082 1_555
O21 Sr12 2.791595 1_565
O21 Sr16 2.816943 1_555
O21 Sr10 2.828496 1_455
O22 Sr6 2.447836 1_555
O22 Sr5 2.785082 1_555
O22 Sr11 2.791595 1_655
O22 Sr17 2.816943 1_555
O22 Sr15 2.828496 1_545
O23 Sr7 2.677552 1_555
O23 Sr6 2.719748 1_555
O23 Sr12 2.738452 1_555
O23 Sr8 2.755028 1_555
O24 Sr7 2.677552 1_555
O24 Sr9 2.719748 1_555
O24 Sr11 2.738452 1_555
O24 Sr8 2.755028 1_555
O25 Sr13 2.685641 1_555
O25 Sr7 2.687409 1_555
O25 Sr17 2.725363 1_455
O25 Sr11 2.745196 1_555
O26 Sr0 2.688652 1_665
O26 Sr4 2.734765 1_655
O26 Sr10 2.752045 1_555
O26 Sr14 2.753115 1_555
O27 Sr13 2.685641 1_555
O27 Sr7 2.687409 1_555
O27 Sr16 2.725363 1_545
O27 Sr12 2.745196 1_555
O28 Sr0 2.688652 1_665
O28 Sr5 2.734765 1_565
O28 Sr15 2.752045 1_555
O28 Sr14 2.753115 1_555
O29 Sr9 2.621015 1_555
O29 Sr15 2.633355 1_555
O29 Sr14 2.717030 1_555
O29 Sr8 2.722558 1_555
O30 Sr6 2.621015 1_555
O30 Sr10 2.633355 1_555
O30 Sr14 2.717030 1_555
O30 Sr8 2.722558 1_555
O31 Sr7 2.678568 1_556
O31 Sr20 2.721569 1_555
O31 Sr12 2.738694 1_556
O31 Sr21 2.754088 1_555
O32 Sr11 2.555058 1_655
O32 Sr19 2.740709 1_554
O32 Sr16 2.744402 1_655
O32 Sr10 2.822415 1_555
O32 Sr6 2.828299 1_555
O33 Sr16 2.439258 1_555
O33 Sr23 2.795257 1_554
O33 Sr11 2.795257 1_555
O33 Sr9 2.819398 1_555
O33 Sr22 2.819398 1_554
O34 Sr19 2.555058 1_455
O34 Sr11 2.740709 1_556
O34 Sr17 2.744402 1_456
O34 Sr2 2.822415 1_555
O34 Sr22 2.828299 1_555
O35 Sr13 2.690575 1_556
O35 Sr16 2.713340 1_546
O35 Sr1 2.747770 1_555
O35 Sr3 2.752014 1_555
O36 Sr13 2.690575 1_665
O36 Sr17 2.713340 1_565
O36 Sr15 2.747770 1_555
O36 Sr14 2.752014 1_555
O37 Sr21 2.765149 1_555
O37 Sr3 2.765252 1_555
O37 Sr13 2.792011 1_556
O37 Sr7 2.795061 1_556
O38 Sr18 2.678568 1_554
O38 Sr9 2.721569 1_555
O38 Sr23 2.738694 1_554
O38 Sr8 2.754088 1_555
O39 Sr13 2.690575 1_556
O39 Sr17 2.713340 1_456
O39 Sr2 2.747770 1_555
O39 Sr3 2.752014 1_555
O40 Sr23 2.555058 1_545
O40 Sr12 2.740709 1_556
O40 Sr16 2.744402 1_546
O40 Sr1 2.822415 1_555
O40 Sr20 2.828299 1_555
O41 Sr7 2.678568 1_556
O41 Sr22 2.721569 1_555
O41 Sr11 2.738694 1_556
O41 Sr21 2.754088 1_555
O42 Sr18 2.678568 1_554
O42 Sr6 2.721569 1_555
O42 Sr19 2.738694 1_554
O42 Sr8 2.754088 1_555
O43 Sr8 2.765149 1_555
O43 Sr14 2.765252 1_555
O43 Sr13 2.792011 1_665
O43 Sr18 2.795061 1_554
O44 Sr13 2.690575 1_665
O44 Sr16 2.713340 1_655
O44 Sr10 2.747770 1_555
O44 Sr14 2.752014 1_555
O45 Sr12 2.555058 1_565
O45 Sr23 2.740709 1_554
O45 Sr17 2.744402 1_565
O45 Sr15 2.822415 1_555
O45 Sr9 2.828299 1_555
O46 Sr17 2.439258 1_555
O46 Sr19 2.795257 1_554
O46 Sr12 2.795257 1_555
O46 Sr6 2.819398 1_555
O46 Sr20 2.819398 1_554
O47 Sr13 2.685641 1_666
O47 Sr18 2.687409 1_555
O47 Sr16 2.725363 1_656
O47 Sr19 2.745196 1_555
O48 Sr13 2.685641 1_666
O48 Sr18 2.687409 1_555
O48 Sr17 2.725363 1_566
O48 Sr23 2.745196 1_555
O49 Sr18 2.677552 1_555
O49 Sr22 2.719748 1_555
O49 Sr23 2.738452 1_555
O49 Sr21 2.755028 1_555
O50 Sr20 2.447836 1_555
O50 Sr5 2.785082 1_555
O50 Sr23 2.791595 1_545
O50 Sr17 2.816943 1_556
O50 Sr2 2.828496 1_655
O51 Sr18 2.677552 1_555
O51 Sr20 2.719748 1_555
O51 Sr19 2.738452 1_555
O51 Sr21 2.755028 1_555
O52 Sr22 2.447836 1_555
O52 Sr4 2.785082 1_555
O52 Sr19 2.791595 1_455
O52 Sr16 2.816943 1_556
O52 Sr1 2.828496 1_565
