# generated using pymatgen
data_Li2Cr2O7
_symmetry_space_group_name_H-M   'P 1'
_cell_length_a   5.43284500
_cell_length_b   7.62163858
_cell_length_c   7.82360566
_cell_angle_alpha   102.04977125
_cell_angle_beta   102.48971457
_cell_angle_gamma   90.58154236
_symmetry_Int_Tables_number   1
_chemical_formula_structural   Li2Cr2O7
_chemical_formula_sum   'Li4 Cr4 O14'
_cell_volume   308.79901528
_cell_formula_units_Z   2
loop_
 _symmetry_equiv_pos_site_id
 _symmetry_equiv_pos_as_xyz
  1  'x, y, z'
loop_
 _atom_site_type_symbol
 _atom_site_label
 _atom_site_symmetry_multiplicity
 _atom_site_fract_x
 _atom_site_fract_y
 _atom_site_fract_z
 _atom_site_occupancy
  Li  Li0  1  0.80480800  0.25274100  0.68863100  1
  Li  Li1  1  0.76593000  0.77566200  0.07907400  1
  Li  Li2  1  0.23407000  0.22433800  0.92092600  1
  Li  Li3  1  0.19519200  0.74725900  0.31136900  1
  Cr  Cr0  1  0.78074400  0.24906200  0.13607800  1
  Cr  Cr1  1  0.75473700  0.76292400  0.52348900  1
  Cr  Cr2  1  0.24526300  0.23707600  0.47651100  1
  Cr  Cr3  1  0.21925600  0.75093800  0.86392200  1
  O  O0  1  0.97567400  0.65898500  0.67182800  1
  O  O1  1  0.88332400  0.27145900  0.95618900  1
  O  O2  1  0.73518800  0.03733800  0.13431400  1
  O  O3  1  0.82986300  0.72258500  0.32522300  1
  O  O4  1  0.77564100  0.97770800  0.60738000  1
  O  O5  1  0.53645300  0.31137300  0.50130300  1
  O  O6  1  0.48930900  0.65787900  0.87074300  1
  O  O7  1  0.51069100  0.34212100  0.12925700  1
  O  O8  1  0.46354700  0.68862700  0.49869700  1
  O  O9  1  0.22435900  0.02229200  0.39262000  1
  O  O10  1  0.17013700  0.27741500  0.67477700  1
  O  O11  1  0.26481200  0.96266200  0.86568600  1
  O  O12  1  0.11667600  0.72854100  0.04381100  1
  O  O13  1  0.02432600  0.34101500  0.32817200  1
loop_
_geom_bond_atom_site_label_1
_geom_bond_atom_site_label_2
_geom_bond_distance
_geom_bond_site_symmetry_2
Li0 O5 1.958485 1_555
Li0 O1 2.017908 1_555
Li0 O10 2.020007 1_655
Li0 O4 2.053435 1_545
Li1 O2 1.967335 1_565
Li1 O6 2.005793 1_554
Li1 O3 2.007908 1_555
Li1 O12 2.009009 1_655
Li2 O11 1.967335 1_545
Li2 O7 2.005793 1_556
Li2 O10 2.007908 1_555
Li2 O1 2.009009 1_455
Li3 O8 1.958485 1_555
Li3 O12 2.017908 1_555
Li3 O3 2.020007 1_455
Li3 O9 2.053435 1_565
Cr0 O2 1.626819 1_555
Cr0 O7 1.631413 1_555
Cr0 O1 1.660743 1_554
Cr0 O13 1.783876 1_655
Cr1 O4 1.624453 1_555
Cr1 O8 1.632240 1_555
Cr1 O3 1.656640 1_555
Cr1 O0 1.793271 1_555
Cr2 O9 1.624453 1_555
Cr2 O5 1.632240 1_555
Cr2 O10 1.656640 1_555
Cr2 O13 1.793271 1_555
Cr3 O11 1.626819 1_555
Cr3 O6 1.631413 1_555
Cr3 O12 1.660743 1_556
Cr3 O0 1.783876 1_455
