# generated using pymatgen
data_Mn6OF11
_symmetry_space_group_name_H-M   'P 1'
_cell_length_a   4.95835000
_cell_length_b   5.91164399
_cell_length_c   16.21647648
_cell_angle_alpha   90.60232878
_cell_angle_beta   90.02336847
_cell_angle_gamma   90.04695785
_symmetry_Int_Tables_number   1
_chemical_formula_structural   Mn6OF11
_chemical_formula_sum   'Mn12 O2 F22'
_cell_volume   475.31089129
_cell_formula_units_Z   2
loop_
 _symmetry_equiv_pos_site_id
 _symmetry_equiv_pos_as_xyz
  1  'x, y, z'
loop_
 _atom_site_type_symbol
 _atom_site_label
 _atom_site_symmetry_multiplicity
 _atom_site_fract_x
 _atom_site_fract_y
 _atom_site_fract_z
 _atom_site_occupancy
  Mn  Mn0  1  0.99577500  0.14517200  0.58301700  1
  Mn  Mn1  1  0.99285900  0.83083600  0.75072100  1
  Mn  Mn2  1  0.97016700  0.18971200  0.91001900  1
  Mn  Mn3  1  0.99986600  0.16238600  0.25067100  1
  Mn  Mn4  1  0.98504200  0.83356700  0.42352300  1
  Mn  Mn5  1  0.01141400  0.83183400  0.07798900  1
  Mn  Mn6  1  0.50548000  0.33236200  0.41867300  1
  Mn  Mn7  1  0.50203800  0.33012600  0.08336800  1
  Mn  Mn8  1  0.50132500  0.33472800  0.75078800  1
  Mn  Mn9  1  0.50580700  0.64108900  0.91246400  1
  Mn  Mn10  1  0.52771200  0.68749900  0.57914000  1
  Mn  Mn11  1  0.49870800  0.67078500  0.25166400  1
  O  O0  1  0.79384900  0.91370300  0.53342100  1
  O  O1  1  0.69982100  0.40931100  0.86184900  1
  F  F0  1  0.77838700  0.11345900  0.69268300  1
  F  F1  1  0.76356800  0.10392000  0.35847500  1
  F  F2  1  0.78627200  0.11077400  0.02543800  1
  F  F3  1  0.75824500  0.88968500  0.86158800  1
  F  F4  1  0.77367400  0.88845400  0.19008500  1
  F  F5  1  0.71715800  0.61175300  0.69261100  1
  F  F6  1  0.74578400  0.39406400  0.52969100  1
  F  F7  1  0.73239500  0.60430000  0.36086200  1
  F  F8  1  0.72994900  0.39191100  0.19301100  1
  F  F9  1  0.72111200  0.61145700  0.02255000  1
  F  F10  1  0.26272400  0.39096000  0.97403800  1
  F  F11  1  0.26508600  0.61587200  0.80857600  1
  F  F12  1  0.25771700  0.36531100  0.63842200  1
  F  F13  1  0.28956900  0.61769200  0.47429400  1
  F  F14  1  0.27140600  0.60717200  0.13957300  1
  F  F15  1  0.27521400  0.38876000  0.30712900  1
  F  F16  1  0.21161900  0.11557500  0.80555000  1
  F  F17  1  0.22916600  0.12183500  0.47815100  1
  F  F18  1  0.23368700  0.88529300  0.64264000  1
  F  F19  1  0.25219100  0.86897900  0.96541300  1
  F  F20  1  0.23445300  0.10180700  0.13950700  1
  F  F21  1  0.22076200  0.88785600  0.31240900  1
loop_
_geom_bond_atom_site_label_1
_geom_bond_atom_site_label_2
_geom_bond_distance
_geom_bond_site_symmetry_2
Mn0 O0 1.869671 1_545
Mn2 O1 2.028712 1_555
Mn4 O0 2.069682 1_555
Mn8 O1 2.094729 1_555
Mn9 O1 1.858954 1_555
Mn10 O0 2.024346 1_555
F0 Mn0 2.089957 1_555
F0 Mn8 2.112869 1_555
F0 Mn1 2.200750 1_545
F1 Mn6 2.095345 1_555
F1 Mn3 2.135916 1_555
F1 Mn4 2.215931 1_545
F2 Mn7 2.128075 1_555
F2 Mn2 2.138096 1_554
F2 Mn5 2.173338 1_645
F3 Mn9 2.104862 1_555
F3 Mn1 2.166993 1_555
F3 Mn2 2.198590 1_565
F4 Mn11 2.130035 1_555
F4 Mn5 2.189888 1_655
F4 Mn3 2.192768 1_565
F5 Mn1 2.098697 1_555
F5 Mn10 2.117886 1_555
F5 Mn8 2.178930 1_555
F6 Mn0 2.116139 1_555
F6 Mn6 2.185780 1_555
F6 Mn10 2.189942 1_555
F7 Mn4 2.099050 1_555
F7 Mn11 2.155581 1_555
F7 Mn6 2.181457 1_555
F8 Mn3 2.129599 1_555
F8 Mn7 2.134443 1_555
F8 Mn11 2.215451 1_555
F9 Mn9 2.088697 1_554
F9 Mn5 2.132764 1_655
F9 Mn7 2.225089 1_555
F10 Mn2 2.137147 1_455
F10 Mn9 2.159938 1_555
F10 Mn7 2.166354 1_556
F11 Mn9 2.068296 1_555
F11 Mn1 2.084210 1_455
F11 Mn8 2.232471 1_555
F12 Mn0 2.039468 1_455
F12 Mn8 2.194886 1_555
F12 Mn10 2.525764 1_555
F13 Mn10 2.106700 1_555
F13 Mn4 2.147250 1_455
F13 Mn6 2.185547 1_555
F14 Mn5 2.110157 1_555
F14 Mn11 2.167722 1_555
F14 Mn7 2.189376 1_555
F15 Mn3 2.112656 1_455
F15 Mn6 2.167553 1_555
F15 Mn11 2.201363 1_555
F16 Mn2 2.117149 1_455
F16 Mn8 2.133705 1_555
F16 Mn1 2.182952 1_445
F17 Mn0 2.060838 1_455
F17 Mn6 2.092804 1_555
F17 Mn4 2.262312 1_445
F18 Mn10 2.128785 1_555
F18 Mn1 2.148118 1_455
F18 Mn0 2.172544 1_465
F19 Mn9 2.028033 1_555
F19 Mn5 2.194551 1_556
F19 Mn2 2.529141 1_465
F20 Mn7 2.105900 1_555
F20 Mn3 2.172489 1_455
F20 Mn5 2.174429 1_545
F21 Mn11 2.119863 1_555
F21 Mn4 2.174644 1_455
F21 Mn3 2.207271 1_465
