# generated using pymatgen
data_La3Mn3O10
_symmetry_space_group_name_H-M   'P 1'
_cell_length_a   5.45732526
_cell_length_b   5.45531387
_cell_length_c   22.85851270
_cell_angle_alpha   96.96690671
_cell_angle_beta   89.49606072
_cell_angle_gamma   61.13215353
_symmetry_Int_Tables_number   1
_chemical_formula_structural   La3Mn3O10
_chemical_formula_sum   'La9 Mn9 O30'
_cell_volume   589.78578953
_cell_formula_units_Z   3
loop_
 _symmetry_equiv_pos_site_id
 _symmetry_equiv_pos_as_xyz
  1  'x, y, z'
loop_
 _atom_site_type_symbol
 _atom_site_label
 _atom_site_symmetry_multiplicity
 _atom_site_fract_x
 _atom_site_fract_y
 _atom_site_fract_z
 _atom_site_occupancy
  La  La0  1  0.74772000  0.49863400  0.74838400  1
  La  La1  1  0.95309500  0.09668100  0.14288200  1
  La  La2  1  0.54747900  0.90427100  0.35942000  1
  La  La3  1  0.65176200  0.69914600  0.04371700  1
  La  La4  1  0.34604600  0.30163500  0.95813900  1
  La  La5  1  0.04364300  0.90619200  0.85953500  1
  La  La6  1  0.44548000  0.10036300  0.64493200  1
  La  La7  1  0.15689000  0.69242300  0.53972800  1
  La  La8  1  0.24728800  0.50860900  0.25335000  1
  Mn  Mn0  1  0.69410400  0.60368300  0.89946600  1
  Mn  Mn1  1  0.80380800  0.39340500  0.59627900  1
  Mn  Mn2  1  0.90200500  0.19930000  0.30244600  1
  Mn  Mn3  1  0.60009500  0.80144400  0.20087000  1
  Mn  Mn4  1  0.39783400  0.20262800  0.80009100  1
  Mn  Mn5  1  0.49937600  0.00150000  0.49728800  1
  Mn  Mn6  1  0.09668300  0.80178000  0.69997400  1
  Mn  Mn7  1  0.19519800  0.60443800  0.40176900  1
  Mn  Mn8  1  0.30587300  0.39629600  0.10128000  1
  O  O0  1  0.87711200  0.78982700  0.45776900  1
  O  O1  1  0.81150600  0.94385800  0.24737300  1
  O  O2  1  0.78541800  0.84803300  0.94459600  1
  O  O3  1  0.00539100  0.45807600  0.34324300  1
  O  O4  1  0.90029700  0.62178500  0.13794000  1
  O  O5  1  0.81668000  0.35521700  0.95480400  1
  O  O6  1  0.57624300  0.84598600  0.83539900  1
  O  O7  1  0.96537000  0.05744600  0.63750600  1
  O  O8  1  0.63464500  0.74055400  0.56095800  1
  O  O9  1  0.77194700  0.45562700  0.23540700  1
  O  O10  1  0.61740000  0.33479500  0.84627400  1
  O  O11  1  0.47676200  0.59359900  0.66201700  1
  O  O12  1  0.39811100  0.75137700  0.44979600  1
  O  O13  1  0.29740200  0.98500300  0.26337100  1
  O  O14  1  0.65952800  0.20714800  0.06333800  1
  O  O15  1  0.34015000  0.79321500  0.93737900  1
  O  O16  1  0.70548100  0.01893600  0.73721600  1
  O  O17  1  0.58345200  0.25090200  0.55554600  1
  O  O18  1  0.52415600  0.40282300  0.33798600  1
  O  O19  1  0.38443000  0.66826400  0.15358600  1
  O  O20  1  0.22518300  0.54835900  0.76431600  1
  O  O21  1  0.36779000  0.26474000  0.44234100  1
  O  O22  1  0.42283300  0.15298100  0.16477200  1
  O  O23  1  0.04776400  0.91298300  0.35386500  1
  O  O24  1  0.18338300  0.64472200  0.04583400  1
  O  O25  1  0.09791100  0.38136500  0.86285900  1
  O  O26  1  0.99538300  0.54419500  0.65272000  1
  O  O27  1  0.21346200  0.15429700  0.05564600  1
  O  O28  1  0.18813700  0.06512300  0.75056300  1
  O  O29  1  0.14214700  0.19618300  0.54602600  1
loop_
_geom_bond_atom_site_label_1
_geom_bond_atom_site_label_2
_geom_bond_distance
_geom_bond_site_symmetry_2
La0 O6 2.400701 1_555
La0 O11 2.431518 1_555
La0 O28 2.431957 1_655
La0 O26 2.659810 1_555
La0 O10 2.717091 1_555
La0 O16 2.718074 1_555
La0 O20 2.747541 1_555
La0 O20 2.769650 1_655
La0 O16 2.778476 1_565
La1 O14 2.370810 1_555
La1 O19 2.428962 1_645
La1 O9 2.524719 1_555
La1 O27 2.574411 1_655
La1 O4 2.730916 1_545
La1 O4 2.753879 1_555
La1 O22 2.768001 1_655
La1 O22 2.792472 1_555
La1 O1 2.840725 1_545
La1 O24 2.865622 1_645
La2 O21 2.371170 1_565
La2 O3 2.489685 1_655
La2 O13 2.565893 1_555
La2 O12 2.583184 1_555
La2 O23 2.708856 1_555
La2 O23 2.755564 1_655
La2 O18 2.764676 1_565
La2 O18 2.784183 1_555
La2 O0 2.829675 1_555
La2 O1 3.008720 1_555
La2 O3 3.110671 1_565
La2 O9 3.299619 1_555
La3 O5 2.423480 1_554
La3 O27 2.459780 1_565
La3 O4 2.525031 1_555
La3 O2 2.704593 1_554
La3 O24 2.712603 1_555
La3 O14 2.754879 1_555
La3 O24 2.771614 1_655
La3 O14 2.774046 1_565
La4 O24 2.400761 1_556
La4 O2 2.457741 1_545
La4 O25 2.545465 1_555
La4 O27 2.665562 1_556
La4 O5 2.723019 1_555
La4 O5 2.762430 1_455
La4 O15 2.764695 1_555
La4 O15 2.772395 1_545
La5 O15 2.349085 1_555
La5 O10 2.429502 1_465
La5 O2 2.529882 1_455
La5 O20 2.567789 1_555
La5 O25 2.739886 1_565
La5 O25 2.743215 1_555
La5 O6 2.776391 1_455
La5 O6 2.804722 1_555
La5 O5 2.829450 1_465
La5 O28 2.954291 1_565
La6 O8 2.386975 1_545
La6 O26 2.464289 1_455
La6 O16 2.516324 1_555
La6 O17 2.528487 1_555
La6 O7 2.733838 1_555
La6 O7 2.745750 1_455
La6 O11 2.758918 1_555
La6 O11 2.762574 1_545
La6 O29 2.764410 1_555
La6 O28 2.855364 1_555
La7 O0 2.373157 1_455
La7 O17 2.482610 1_555
La7 O12 2.565919 1_555
La7 O7 2.631118 1_465
La7 O29 2.696284 1_565
La7 O8 2.765767 1_455
La7 O29 2.767758 1_555
La7 O8 2.784716 1_555
La7 O21 2.797481 1_555
La7 O26 3.042460 1_455
La7 O17 3.116566 1_465
La7 O11 3.270258 1_555
La8 O18 2.416450 1_555
La8 O1 2.438094 1_455
La8 O22 2.449406 1_555
La8 O3 2.545991 1_555
La8 O13 2.724779 1_555
La8 O19 2.756891 1_555
La8 O9 2.757059 1_555
La8 O13 2.773447 1_545
La8 O9 2.773986 1_455
La8 O23 2.781751 1_555
Mn0 O15 1.837402 1_555
Mn0 O2 1.845618 1_555
Mn0 O5 1.854765 1_555
Mn0 O6 1.992709 1_555
Mn0 O10 1.993612 1_555
Mn0 O25 2.041595 1_655
Mn1 O29 1.905534 1_655
Mn1 O17 1.914213 1_555
Mn1 O8 1.945900 1_555
Mn1 O7 1.974283 1_555
Mn1 O26 2.007715 1_555
Mn1 O11 2.075772 1_555
Mn2 O3 1.907846 1_655
Mn2 O18 1.919844 1_555
Mn2 O23 1.927699 1_645
Mn2 O1 2.005121 1_545
Mn2 O13 2.024263 1_645
Mn2 O9 2.094768 1_555
Mn3 O9 1.930747 1_555
Mn3 O19 1.933610 1_555
Mn3 O1 1.936849 1_555
Mn3 O4 1.944211 1_555
Mn3 O13 1.945976 1_555
Mn3 O22 1.975101 1_565
Mn4 O10 1.934401 1_555
Mn4 O25 1.940789 1_555
Mn4 O20 1.945653 1_555
Mn4 O28 1.949285 1_555
Mn4 O16 1.967803 1_555
Mn4 O6 1.987549 1_545
Mn5 O21 1.900834 1_555
Mn5 O12 1.930053 1_545
Mn5 O0 1.953112 1_545
Mn5 O29 1.960935 1_555
Mn5 O17 2.002263 1_555
Mn5 O8 2.048517 1_545
Mn6 O11 1.949274 1_555
Mn6 O26 1.959426 1_455
Mn6 O28 1.987378 1_565
Mn6 O16 1.991800 1_465
Mn6 O7 2.008446 1_465
Mn6 O20 2.035063 1_555
Mn7 O0 1.904322 1_455
Mn7 O12 1.933660 1_555
Mn7 O23 1.958204 1_555
Mn7 O21 1.982008 1_555
Mn7 O3 2.015957 1_555
Mn7 O18 2.053452 1_555
Mn8 O14 1.836403 1_555
Mn8 O27 1.844823 1_555
Mn8 O24 1.856530 1_555
Mn8 O22 1.985250 1_555
Mn8 O19 2.001867 1_555
Mn8 O4 2.050049 1_455
