# generated using pymatgen
data_LiV4O5F7
_symmetry_space_group_name_H-M   'P 1'
_cell_length_a   5.18441564
_cell_length_b   5.36637793
_cell_length_c   8.98954666
_cell_angle_alpha   105.96045475
_cell_angle_beta   89.48326707
_cell_angle_gamma   118.66667225
_symmetry_Int_Tables_number   1
_chemical_formula_structural   LiV4O5F7
_chemical_formula_sum   'Li1 V4 O5 F7'
_cell_volume   208.73675146
_cell_formula_units_Z   1
loop_
 _symmetry_equiv_pos_site_id
 _symmetry_equiv_pos_as_xyz
  1  'x, y, z'
loop_
 _atom_site_type_symbol
 _atom_site_label
 _atom_site_symmetry_multiplicity
 _atom_site_fract_x
 _atom_site_fract_y
 _atom_site_fract_z
 _atom_site_occupancy
  Li  Li0  1  0.81443300  0.61851600  0.59308500  1
  V  V0  1  0.98103400  0.01655300  0.00653500  1
  V  V1  1  0.74889100  0.51876900  0.23763900  1
  V  V2  1  0.50397900  0.95953900  0.50317700  1
  V  V3  1  0.21185100  0.49252700  0.74069100  1
  O  O0  1  0.84194600  0.25088300  0.67251600  1
  O  O1  1  0.82923400  0.23160200  0.08251300  1
  O  O2  1  0.78540900  0.73172500  0.12200400  1
  O  O3  1  0.67571600  0.75095800  0.42666100  1
  O  O4  1  0.26549600  0.76052400  0.62787600  1
  F  F0  1  0.72594500  0.27659100  0.38508200  1
  F  F1  1  0.68334200  0.74459000  0.81519300  1
  F  F2  1  0.36164000  0.27718800  0.58010600  1
  F  F3  1  0.32340000  0.23817100  0.17509800  1
  F  F4  1  0.22836400  0.25686300  0.87639200  1
  F  F5  1  0.17407600  0.75138300  0.32831300  1
  F  F6  1  0.17819800  0.76272900  0.92408400  1
loop_
_geom_bond_atom_site_label_1
_geom_bond_atom_site_label_2
_geom_bond_distance
_geom_bond_site_symmetry_2
Li0 O4 2.078332 1_655
Li0 O3 2.086901 1_555
Li0 O0 2.338573 1_555
O0 V3 1.712630 1_655
O0 V2 1.985636 1_545
O1 V0 1.686965 1_555
O1 V1 1.979020 1_555
O2 V1 1.692511 1_555
O2 V0 1.951570 1_565
O3 V2 1.743689 1_555
O3 V1 1.965030 1_555
O4 V2 1.814499 1_555
O4 V3 1.894064 1_555
F0 V1 2.063036 1_555
F0 Li0 2.096341 1_555
F0 V2 2.106882 1_545
F1 V0 1.994209 1_566
F1 Li0 2.140099 1_555
F1 V3 2.147645 1_555
F2 V3 1.986387 1_555
F2 V2 2.116112 1_545
F2 Li0 2.154379 1_555
F3 V1 1.954353 1_555
F3 V0 1.973119 1_455
F4 V0 1.972850 1_456
F4 V3 2.012218 1_555
F5 V2 1.973301 1_555
F5 V1 1.978527 1_455
F6 V3 1.942623 1_555
F6 V0 2.053419 1_466
