# generated using pymatgen
data_Na5LaO4
_symmetry_space_group_name_H-M   'P 1'
_cell_length_a   15.36469300
_cell_length_b   15.36469300
_cell_length_c   5.57121600
_cell_angle_alpha   90.00000000
_cell_angle_beta   90.00000000
_cell_angle_gamma   90.00000000
_symmetry_Int_Tables_number   1
_chemical_formula_structural   Na5LaO4
_chemical_formula_sum   'Na40 La8 O32'
_cell_volume   1315.21808151
_cell_formula_units_Z   8
loop_
 _symmetry_equiv_pos_site_id
 _symmetry_equiv_pos_as_xyz
  1  'x, y, z'
loop_
 _atom_site_type_symbol
 _atom_site_label
 _atom_site_symmetry_multiplicity
 _atom_site_fract_x
 _atom_site_fract_y
 _atom_site_fract_z
 _atom_site_occupancy
  Na  Na0  1  0.98905700  0.01094300  0.25000000  1
  Na  Na1  1  0.01094300  0.98905700  0.75000000  1
  Na  Na2  1  0.98905700  0.48905700  0.25000000  1
  Na  Na3  1  0.01094300  0.51094300  0.75000000  1
  Na  Na4  1  0.10442100  0.35659400  0.81037300  1
  Na  Na5  1  0.10442100  0.14340600  0.81037300  1
  Na  Na6  1  0.12268100  0.62268100  0.25000000  1
  Na  Na7  1  0.12268100  0.87731900  0.25000000  1
  Na  Na8  1  0.14340600  0.10442100  0.31037300  1
  Na  Na9  1  0.14340600  0.39557900  0.31037300  1
  Na  Na10  1  0.25000000  0.25000000  0.36279800  1
  Na  Na11  1  0.25000000  0.75000000  0.75000000  1
  Na  Na12  1  0.25000000  0.75000000  0.25000000  1
  Na  Na13  1  0.25000000  0.25000000  0.86279800  1
  Na  Na14  1  0.35659400  0.10442100  0.31037300  1
  Na  Na15  1  0.35659400  0.39557900  0.31037300  1
  Na  Na16  1  0.37731900  0.62268100  0.25000000  1
  Na  Na17  1  0.37731900  0.87731900  0.25000000  1
  Na  Na18  1  0.39557900  0.14340600  0.81037300  1
  Na  Na19  1  0.39557900  0.35659400  0.81037300  1
  Na  Na20  1  0.51094300  0.01094300  0.25000000  1
  Na  Na21  1  0.48905700  0.98905700  0.75000000  1
  Na  Na22  1  0.51094300  0.48905700  0.25000000  1
  Na  Na23  1  0.48905700  0.51094300  0.75000000  1
  Na  Na24  1  0.60442100  0.64340600  0.18962700  1
  Na  Na25  1  0.60442100  0.85659400  0.18962700  1
  Na  Na26  1  0.62268100  0.12268100  0.75000000  1
  Na  Na27  1  0.62268100  0.37731900  0.75000000  1
  Na  Na28  1  0.64340600  0.60442100  0.68962700  1
  Na  Na29  1  0.64340600  0.89557900  0.68962700  1
  Na  Na30  1  0.75000000  0.25000000  0.25000000  1
  Na  Na31  1  0.75000000  0.25000000  0.75000000  1
  Na  Na32  1  0.75000000  0.75000000  0.13720200  1
  Na  Na33  1  0.75000000  0.75000000  0.63720200  1
  Na  Na34  1  0.85659400  0.60442100  0.68962700  1
  Na  Na35  1  0.85659400  0.89557900  0.68962700  1
  Na  Na36  1  0.87731900  0.12268100  0.75000000  1
  Na  Na37  1  0.87731900  0.37731900  0.75000000  1
  Na  Na38  1  0.89557900  0.64340600  0.18962700  1
  Na  Na39  1  0.89557900  0.85659400  0.18962700  1
  La  La0  1  0.01933300  0.75000000  0.71337300  1
  La  La1  1  0.25000000  0.51933300  0.78662700  1
  La  La2  1  0.25000000  0.98066700  0.78662700  1
  La  La3  1  0.48066700  0.75000000  0.71337300  1
  La  La4  1  0.51933300  0.25000000  0.28662700  1
  La  La5  1  0.75000000  0.01933300  0.21337300  1
  La  La6  1  0.75000000  0.48066700  0.21337300  1
  La  La7  1  0.98066700  0.25000000  0.28662700  1
  O  O0  1  0.00642000  0.12398600  0.50764100  1
  O  O1  1  0.00642000  0.37601400  0.50764100  1
  O  O2  1  0.12398600  0.00642000  0.00764100  1
  O  O3  1  0.12398600  0.49358000  0.00764100  1
  O  O4  1  0.12363000  0.25000000  0.10869300  1
  O  O5  1  0.12548700  0.75000000  0.99957900  1
  O  O6  1  0.25000000  0.12363000  0.60869300  1
  O  O7  1  0.25000000  0.62548700  0.50042100  1
  O  O8  1  0.25000000  0.87451300  0.50042100  1
  O  O9  1  0.25000000  0.37637000  0.60869300  1
  O  O10  1  0.37451300  0.75000000  0.99957900  1
  O  O11  1  0.37637000  0.25000000  0.10869300  1
  O  O12  1  0.37601400  0.49358000  0.00764100  1
  O  O13  1  0.37601400  0.00642000  0.00764100  1
  O  O14  1  0.49358000  0.12398600  0.50764100  1
  O  O15  1  0.49358000  0.37601400  0.50764100  1
  O  O16  1  0.50642000  0.62398600  0.49235900  1
  O  O17  1  0.50642000  0.87601400  0.49235900  1
  O  O18  1  0.62398600  0.99358000  0.99235900  1
  O  O19  1  0.62398600  0.50642000  0.99235900  1
  O  O20  1  0.62363000  0.75000000  0.89130700  1
  O  O21  1  0.62548700  0.25000000  0.00042100  1
  O  O22  1  0.75000000  0.12548700  0.49957900  1
  O  O23  1  0.75000000  0.37451300  0.49957900  1
  O  O24  1  0.75000000  0.62363000  0.39130700  1
  O  O25  1  0.75000000  0.87637000  0.39130700  1
  O  O26  1  0.87451300  0.25000000  0.00042100  1
  O  O27  1  0.87637000  0.75000000  0.89130700  1
  O  O28  1  0.87601400  0.99358000  0.99235900  1
  O  O29  1  0.87601400  0.50642000  0.99235900  1
  O  O30  1  0.99358000  0.62398600  0.49235900  1
  O  O31  1  0.99358000  0.87601400  0.49235900  1
loop_
_geom_bond_atom_site_label_1
_geom_bond_atom_site_label_2
_geom_bond_distance
_geom_bond_site_symmetry_2
Na0 O28 2.268962 1_544
Na0 O0 2.268962 1_655
Na0 O31 2.475052 1_545
Na0 O2 2.475052 1_655
Na1 O2 2.268962 1_566
Na1 O31 2.268962 1_455
Na1 O0 2.475052 1_565
Na1 O28 2.475052 1_455
Na2 O1 2.268962 1_655
Na2 O29 2.268962 1_554
Na2 O30 2.475052 1_555
Na2 O3 2.475052 1_655
Na3 O3 2.268962 1_556
Na3 O30 2.268962 1_455
Na3 O29 2.475052 1_455
Na3 O1 2.475052 1_555
Na4 O1 2.280548 1_555
Na4 O4 2.351958 1_556
Na4 O3 2.393362 1_556
Na4 O9 2.521503 1_555
Na5 O0 2.280548 1_555
Na5 O4 2.351958 1_556
Na5 O2 2.393362 1_556
Na5 O6 2.521503 1_555
Na6 O3 2.399623 1_555
Na6 O30 2.399623 1_455
Na6 O7 2.403141 1_555
Na6 O5 2.403141 1_554
Na7 O31 2.399623 1_455
Na7 O2 2.399623 1_565
Na7 O5 2.403141 1_554
Na7 O8 2.403141 1_555
Na8 O2 2.280548 1_555
Na8 O6 2.351958 1_555
Na8 O0 2.393362 1_555
Na8 O4 2.521503 1_555
Na9 O3 2.280548 1_555
Na9 O9 2.351958 1_555
Na9 O1 2.393362 1_555
Na9 O4 2.521503 1_555
Na10 O6 2.376272 1_555
Na10 O9 2.376272 1_555
Na10 O4 2.402932 1_555
Na10 O11 2.402932 1_555
Na11 O8 2.365025 1_555
Na11 O10 2.365025 1_555
Na11 O7 2.365025 1_555
Na11 O5 2.365025 1_555
Na12 O7 2.367786 1_555
Na12 O10 2.367786 1_554
Na12 O8 2.367786 1_555
Na12 O5 2.367786 1_554
Na13 O4 2.376272 1_556
Na13 O11 2.376272 1_556
Na13 O6 2.402932 1_555
Na13 O9 2.402932 1_555
Na14 O13 2.280548 1_555
Na14 O6 2.351958 1_555
Na14 O14 2.393362 1_555
Na14 O11 2.521503 1_555
Na15 O12 2.280548 1_555
Na15 O9 2.351958 1_555
Na15 O15 2.393362 1_555
Na15 O11 2.521503 1_555
Na16 O12 2.399623 1_555
Na16 O16 2.399623 1_555
Na16 O7 2.403141 1_555
Na16 O10 2.403141 1_554
Na17 O13 2.399623 1_565
Na17 O17 2.399623 1_555
Na17 O8 2.403141 1_555
Na17 O10 2.403141 1_554
Na18 O14 2.280548 1_555
Na18 O11 2.351958 1_556
Na18 O13 2.393362 1_556
Na18 O6 2.521503 1_555
Na19 O15 2.280548 1_555
Na19 O11 2.351958 1_556
Na19 O12 2.393362 1_556
Na19 O9 2.521503 1_555
Na20 O14 2.268962 1_555
Na20 O18 2.268962 1_544
Na20 O17 2.475052 1_545
Na20 O13 2.475052 1_555
Na21 O13 2.268962 1_566
Na21 O17 2.268962 1_555
Na21 O14 2.475052 1_565
Na21 O18 2.475052 1_555
Na22 O15 2.268962 1_555
Na22 O19 2.268962 1_554
Na22 O16 2.475052 1_555
Na22 O12 2.475052 1_555
Na23 O12 2.268962 1_556
Na23 O16 2.268962 1_555
Na23 O19 2.475052 1_555
Na23 O15 2.475052 1_555
Na24 O16 2.280548 1_555
Na24 O20 2.351958 1_554
Na24 O19 2.393362 1_554
Na24 O24 2.521503 1_555
Na25 O17 2.280548 1_555
Na25 O20 2.351958 1_554
Na25 O18 2.393362 1_554
Na25 O25 2.521503 1_555
Na26 O14 2.399623 1_555
Na26 O18 2.399623 1_545
Na26 O21 2.403141 1_556
Na26 O22 2.403141 1_555
Na27 O15 2.399623 1_555
Na27 O19 2.399623 1_555
Na27 O21 2.403141 1_556
Na27 O23 2.403141 1_555
Na28 O19 2.280548 1_555
Na28 O24 2.351958 1_555
Na28 O16 2.393362 1_555
Na28 O20 2.521503 1_555
Na29 O18 2.280548 1_555
Na29 O25 2.351958 1_555
Na29 O17 2.393362 1_555
Na29 O20 2.521503 1_555
Na30 O26 2.365025 1_555
Na30 O23 2.365025 1_555
Na30 O21 2.365025 1_555
Na30 O22 2.365025 1_555
Na31 O21 2.367786 1_556
Na31 O23 2.367786 1_555
Na31 O26 2.367786 1_556
Na31 O22 2.367786 1_555
Na32 O20 2.376272 1_554
Na32 O27 2.376272 1_554
Na32 O24 2.402932 1_555
Na32 O25 2.402932 1_555
Na33 O24 2.376272 1_555
Na33 O25 2.376272 1_555
Na33 O20 2.402932 1_555
Na33 O27 2.402932 1_555
Na34 O29 2.280548 1_555
Na34 O24 2.351958 1_555
Na34 O30 2.393362 1_555
Na34 O27 2.521503 1_555
Na35 O28 2.280548 1_555
Na35 O25 2.351958 1_555
Na35 O31 2.393362 1_555
Na35 O27 2.521503 1_555
Na36 O28 2.399623 1_545
Na36 O0 2.399623 1_655
Na36 O22 2.403141 1_555
Na36 O26 2.403141 1_556
Na37 O1 2.399623 1_655
Na37 O29 2.399623 1_555
Na37 O26 2.403141 1_556
Na37 O23 2.403141 1_555
Na38 O30 2.280548 1_555
Na38 O27 2.351958 1_554
Na38 O29 2.393362 1_554
Na38 O24 2.521503 1_555
Na39 O31 2.280548 1_555
Na39 O27 2.351958 1_554
Na39 O28 2.393362 1_554
Na39 O25 2.521503 1_555
La0 O5 2.280947 1_555
La0 O31 2.328401 1_455
La0 O30 2.328401 1_455
La0 O27 2.409910 1_455
La1 O7 2.280947 1_555
La1 O12 2.328401 1_556
La1 O3 2.328401 1_556
La1 O9 2.409910 1_555
La2 O8 2.280947 1_555
La2 O13 2.328401 1_566
La2 O2 2.328401 1_566
La2 O6 2.409910 1_565
La3 O10 2.280947 1_555
La3 O17 2.328401 1_555
La3 O16 2.328401 1_555
La3 O20 2.409910 1_555
La4 O21 2.280947 1_555
La4 O15 2.328401 1_555
La4 O14 2.328401 1_555
La4 O11 2.409910 1_555
La5 O22 2.280947 1_555
La5 O28 2.328401 1_544
La5 O18 2.328401 1_544
La5 O25 2.409910 1_545
La6 O23 2.280947 1_555
La6 O29 2.328401 1_554
La6 O19 2.328401 1_554
La6 O24 2.409910 1_555
La7 O26 2.280947 1_555
La7 O1 2.328401 1_655
La7 O0 2.328401 1_655
La7 O4 2.409910 1_655
