# generated using pymatgen
data_Y2Hg2O5
_symmetry_space_group_name_H-M   'P 1'
_cell_length_a   3.57498300
_cell_length_b   11.86287600
_cell_length_c   13.40216000
_cell_angle_alpha   90.00000000
_cell_angle_beta   90.00000000
_cell_angle_gamma   90.00000000
_symmetry_Int_Tables_number   1
_chemical_formula_structural   Y2Hg2O5
_chemical_formula_sum   'Y8 Hg8 O20'
_cell_volume   568.37997711
_cell_formula_units_Z   4
loop_
 _symmetry_equiv_pos_site_id
 _symmetry_equiv_pos_as_xyz
  1  'x, y, z'
loop_
 _atom_site_type_symbol
 _atom_site_label
 _atom_site_symmetry_multiplicity
 _atom_site_fract_x
 _atom_site_fract_y
 _atom_site_fract_z
 _atom_site_occupancy
  Y  Y0  1  0.23592100  0.03139500  0.66975700  1
  Y  Y1  1  0.23956800  0.21891000  0.00218200  1
  Y  Y2  1  0.73956800  0.28109000  0.50218200  1
  Y  Y3  1  0.73592100  0.46860500  0.16975700  1
  Y  Y4  1  0.26407900  0.53139500  0.66975700  1
  Y  Y5  1  0.26043200  0.71891000  0.00218200  1
  Y  Y6  1  0.76043200  0.78109000  0.50218200  1
  Y  Y7  1  0.76407900  0.96860500  0.16975700  1
  Hg  Hg0  1  0.30000200  0.00347600  0.40083400  1
  Hg  Hg1  1  0.19961500  0.24610400  0.27136100  1
  Hg  Hg2  1  0.69961500  0.25389600  0.77136100  1
  Hg  Hg3  1  0.80000200  0.49652400  0.90083400  1
  Hg  Hg4  1  0.19999800  0.50347600  0.40083400  1
  Hg  Hg5  1  0.30038500  0.74610400  0.27136100  1
  Hg  Hg6  1  0.80038500  0.75389600  0.77136100  1
  Hg  Hg7  1  0.69999800  0.99652400  0.90083400  1
  O  O0  1  0.26087700  0.06283200  0.23294800  1
  O  O1  1  0.74626700  0.09996400  0.04607500  1
  O  O2  1  0.23772800  0.12534400  0.83597000  1
  O  O3  1  0.73801800  0.14995800  0.62620700  1
  O  O4  1  0.24177200  0.18688800  0.43952700  1
  O  O5  1  0.74177200  0.31311200  0.93952700  1
  O  O6  1  0.23801800  0.35004200  0.12620700  1
  O  O7  1  0.73772800  0.37465600  0.33597000  1
  O  O8  1  0.24626700  0.40003600  0.54607500  1
  O  O9  1  0.76087700  0.43716800  0.73294800  1
  O  O10  1  0.23912300  0.56283200  0.23294800  1
  O  O11  1  0.75373300  0.59996400  0.04607500  1
  O  O12  1  0.26227200  0.62534400  0.83597000  1
  O  O13  1  0.76198200  0.64995800  0.62620700  1
  O  O14  1  0.25822800  0.68688800  0.43952700  1
  O  O15  1  0.75822800  0.81311200  0.93952700  1
  O  O16  1  0.26198200  0.85004200  0.12620700  1
  O  O17  1  0.76227200  0.87465600  0.33597000  1
  O  O18  1  0.25373300  0.90003600  0.54607500  1
  O  O19  1  0.73912300  0.93716800  0.73294800  1
loop_
_geom_bond_atom_site_label_1
_geom_bond_atom_site_label_2
_geom_bond_distance
_geom_bond_site_symmetry_2
Hg0 O4 2.246403 1_555
Hg0 O18 2.306980 1_545
Hg0 O0 2.361784 1_555
Hg0 O17 2.412912 1_545
Hg0 O17 2.605103 1_445
Hg1 O0 2.244963 1_555
Hg1 O6 2.307301 1_555
Hg1 O4 2.365532 1_555
Hg1 O7 2.408731 1_455
Hg1 O7 2.603112 1_555
Hg2 O9 2.244963 1_555
Hg2 O3 2.307301 1_555
Hg2 O5 2.365532 1_555
Hg2 O2 2.408731 1_555
Hg2 O2 2.603112 1_655
Hg3 O5 2.246403 1_555
Hg3 O11 2.306980 1_556
Hg3 O9 2.361784 1_555
Hg3 O12 2.412912 1_655
Hg3 O12 2.605103 1_555
Hg4 O14 2.246403 1_555
Hg4 O8 2.306980 1_555
Hg4 O10 2.361784 1_555
Hg4 O7 2.412912 1_455
Hg4 O7 2.605103 1_555
Hg5 O10 2.244963 1_555
Hg5 O16 2.307301 1_555
Hg5 O14 2.365532 1_555
Hg5 O17 2.408731 1_555
Hg5 O17 2.603112 1_455
Hg6 O19 2.244963 1_555
Hg6 O13 2.307301 1_555
Hg6 O15 2.365532 1_555
Hg6 O12 2.408731 1_655
Hg6 O12 2.603112 1_555
Hg7 O15 2.246403 1_555
Hg7 O1 2.306980 1_566
Hg7 O19 2.361784 1_555
Hg7 O2 2.412912 1_565
Hg7 O2 2.605103 1_665
O0 Y7 2.262974 1_445
O0 Y7 2.280986 1_545
O1 Y7 2.275961 1_545
O1 Y1 2.333918 1_655
O1 Y1 2.370318 1_555
O2 Y1 2.488827 1_556
O2 Y0 2.490868 1_555
O3 Y2 2.276587 1_555
O3 Y0 2.342495 1_655
O3 Y0 2.353908 1_555
O4 Y2 2.262953 1_555
O4 Y2 2.275367 1_455
O5 Y1 2.262953 1_656
O5 Y1 2.275367 1_556
O6 Y1 2.276587 1_555
O6 Y3 2.342495 1_555
O6 Y3 2.353908 1_455
O7 Y2 2.488827 1_555
O7 Y3 2.490868 1_555
O8 Y4 2.275961 1_555
O8 Y2 2.333918 1_555
O8 Y2 2.370318 1_455
O9 Y4 2.262974 1_555
O9 Y4 2.280986 1_655
O10 Y3 2.262974 1_555
O10 Y3 2.280986 1_455
O11 Y3 2.275961 1_555
O11 Y5 2.333918 1_555
O11 Y5 2.370318 1_655
O12 Y5 2.488827 1_556
O12 Y4 2.490868 1_555
O13 Y6 2.276587 1_555
O13 Y4 2.342495 1_555
O13 Y4 2.353908 1_655
O14 Y6 2.262953 1_455
O14 Y6 2.275367 1_555
O15 Y5 2.262953 1_556
O15 Y5 2.275367 1_656
O16 Y5 2.276587 1_555
O16 Y7 2.342495 1_455
O16 Y7 2.353908 1_555
O17 Y6 2.488827 1_555
O17 Y7 2.490868 1_555
O18 Y0 2.275961 1_565
O18 Y6 2.333918 1_455
O18 Y6 2.370318 1_555
O19 Y0 2.262974 1_665
O19 Y0 2.280986 1_565
