# generated using pymatgen
data_Li4TiCrO6
_symmetry_space_group_name_H-M   'P 1'
_cell_length_a   5.07002419
_cell_length_b   8.76763056
_cell_length_c   9.81108159
_cell_angle_alpha   81.54033241
_cell_angle_beta   94.84840014
_cell_angle_gamma   89.86349445
_symmetry_Int_Tables_number   1
_chemical_formula_structural   Li4TiCrO6
_chemical_formula_sum   'Li16 Ti4 Cr4 O24'
_cell_volume   429.78588248
_cell_formula_units_Z   4
loop_
 _symmetry_equiv_pos_site_id
 _symmetry_equiv_pos_as_xyz
  1  'x, y, z'
loop_
 _atom_site_type_symbol
 _atom_site_label
 _atom_site_symmetry_multiplicity
 _atom_site_fract_x
 _atom_site_fract_y
 _atom_site_fract_z
 _atom_site_occupancy
  Li  Li0  1  0.24853900  0.25193400  0.00025300  1
  Li  Li1  1  0.74786300  0.75113100  0.00036500  1
  Li  Li2  1  0.49834200  0.00157500  0.50046200  1
  Li  Li3  1  0.99880300  0.50164900  0.50012300  1
  Li  Li4  1  0.37443900  0.12333900  0.74976800  1
  Li  Li5  1  0.87510300  0.62324900  0.75039200  1
  Li  Li6  1  0.12815700  0.37402600  0.25003800  1
  Li  Li7  1  0.62807900  0.87390400  0.25006300  1
  Li  Li8  1  0.48654600  0.33520800  0.49900000  1
  Li  Li9  1  0.98775600  0.83519600  0.49911100  1
  Li  Li10  1  0.75267400  0.42391800  0.99854900  1
  Li  Li11  1  0.25361700  0.92384600  0.99899900  1
  Li  Li12  1  0.74736700  0.07402900  0.00141100  1
  Li  Li13  1  0.24771800  0.57391100  0.00124500  1
  Li  Li14  1  0.01652100  0.16335400  0.50127100  1
  Li  Li15  1  0.51560200  0.66331800  0.50096300  1
  Ti  Ti0  1  0.62305000  0.20984800  0.24960100  1
  Ti  Ti1  1  0.12346400  0.70998400  0.24947000  1
  Ti  Ti2  1  0.86973600  0.29318400  0.74879700  1
  Ti  Ti3  1  0.37595800  0.79335800  0.75049600  1
  Cr  Cr0  1  0.62763000  0.54054000  0.25060800  1
  Cr  Cr1  1  0.37236300  0.45684000  0.74964000  1
  Cr  Cr2  1  0.12716200  0.04087000  0.25029000  1
  Cr  Cr3  1  0.87683800  0.95674000  0.75068700  1
  O  O0  1  0.32566500  0.17940400  0.36654200  1
  O  O1  1  0.82579600  0.67929200  0.36660000  1
  O  O2  1  0.41910600  0.07119700  0.13568300  1
  O  O3  1  0.91904300  0.57096200  0.13588400  1
  O  O4  1  0.06831900  0.42668000  0.86582400  1
  O  O5  1  0.56776300  0.92728400  0.86688800  1
  O  O6  1  0.18323200  0.32557000  0.63559200  1
  O  O7  1  0.68440200  0.82622300  0.63574000  1
  O  O8  1  0.56475600  0.28834200  0.86231000  1
  O  O9  1  0.06389600  0.78764700  0.86209700  1
  O  O10  1  0.71478400  0.14109600  0.63788400  1
  O  O11  1  0.21637800  0.64074600  0.63825100  1
  O  O12  1  0.78617400  0.36169200  0.36236100  1
  O  O13  1  0.28617500  0.86184800  0.36210200  1
  O  O14  1  0.93112600  0.21289900  0.13819100  1
  O  O15  1  0.43113600  0.71268000  0.13831800  1
  O  O16  1  0.46103300  0.39216900  0.13565800  1
  O  O17  1  0.96102500  0.89228900  0.13548700  1
  O  O18  1  0.68052300  0.46592200  0.63519400  1
  O  O19  1  0.18163200  0.96550900  0.63563200  1
  O  O20  1  0.82730800  0.03424600  0.36146100  1
  O  O21  1  0.32730100  0.53410100  0.36151800  1
  O  O22  1  0.03468900  0.10329900  0.86133400  1
  O  O23  1  0.53541200  0.60395300  0.86184900  1
loop_
_geom_bond_atom_site_label_1
_geom_bond_atom_site_label_2
_geom_bond_distance
_geom_bond_site_symmetry_2
Li0 O4 2.028990 1_554
Li0 O2 2.050397 1_555
Li0 O16 2.163844 1_555
Li0 O8 2.178520 1_554
Li0 O14 2.184703 1_455
Li0 O22 2.238518 1_554
Li1 O5 2.032259 1_554
Li1 O3 2.048607 1_555
Li1 O17 2.168890 1_555
Li1 O9 2.179951 1_654
Li1 O15 2.181716 1_555
Li1 O23 2.224266 1_554
Li2 O0 2.029783 1_555
Li2 O7 2.048448 1_545
Li2 O19 2.162420 1_545
Li2 O13 2.179304 1_545
Li2 O10 2.181733 1_555
Li2 O20 2.235055 1_555
Li3 O1 2.027379 1_555
Li3 O6 2.050237 1_655
Li3 O18 2.167948 1_555
Li3 O12 2.177775 1_555
Li3 O11 2.186474 1_655
Li3 O21 2.230542 1_655
Li4 O19 2.098034 1_545
Li4 O5 2.110986 1_545
Li4 O22 2.111801 1_555
Li4 O10 2.116110 1_555
Li4 O8 2.130648 1_555
Li4 O6 2.135954 1_555
Li5 O18 2.104764 1_555
Li5 O4 2.107753 1_655
Li5 O23 2.110881 1_555
Li5 O9 2.118705 1_655
Li5 O11 2.121620 1_655
Li5 O7 2.141514 1_555
Li6 O16 2.098050 1_555
Li6 O0 2.108430 1_555
Li6 O21 2.111201 1_555
Li6 O14 2.115497 1_455
Li6 O12 2.126315 1_455
Li6 O3 2.140405 1_455
Li7 O17 2.099489 1_555
Li7 O1 2.108943 1_555
Li7 O20 2.112664 1_565
Li7 O15 2.115362 1_555
Li7 O13 2.124415 1_555
Li7 O2 2.143170 1_565
Li8 O18 2.073621 1_555
Li8 O12 2.100746 1_555
Li8 O6 2.117444 1_555
Li8 O0 2.137441 1_555
Li8 O21 2.151579 1_555
Li8 O10 2.265826 1_555
Li9 O19 2.073329 1_655
Li9 O13 2.098498 1_655
Li9 O7 2.118160 1_555
Li9 O1 2.140249 1_555
Li9 O20 2.155311 1_565
Li9 O11 2.269803 1_655
Li10 O16 2.073973 1_556
Li10 O8 2.089243 1_555
Li10 O3 2.124443 1_556
Li10 O4 2.144870 1_655
Li10 O23 2.150072 1_555
Li10 O14 2.270527 1_556
Li11 O17 2.073423 1_456
Li11 O9 2.101017 1_555
Li11 O2 2.120395 1_566
Li11 O5 2.134338 1_555
Li11 O22 2.155178 1_565
Li11 O15 2.268408 1_556
Li12 O22 2.076792 1_654
Li12 O14 2.103832 1_555
Li12 O5 2.128028 1_544
Li12 O17 2.139392 1_545
Li12 O2 2.206147 1_555
Li12 O8 2.296520 1_554
Li13 O23 2.073737 1_554
Li13 O15 2.104535 1_555
Li13 O4 2.136544 1_554
Li13 O16 2.140149 1_555
Li13 O3 2.210134 1_455
Li13 O9 2.295199 1_554
Li14 O20 2.079124 1_455
Li14 O10 2.108541 1_455
Li14 O0 2.126084 1_555
Li14 O19 2.140371 1_545
Li14 O6 2.200636 1_555
Li14 O12 2.295479 1_455
Li15 O21 2.075351 1_555
Li15 O11 2.103176 1_555
Li15 O1 2.127892 1_555
Li15 O18 2.136626 1_555
Li15 O7 2.211597 1_555
Li15 O13 2.294269 1_555
Cr0 O12 1.909523 1_555
Cr0 O3 1.927594 1_555
Cr0 O21 1.941187 1_555
Cr0 O15 1.949908 1_555
Cr0 O16 1.988326 1_555
Cr0 O1 2.001078 1_555
Cr1 O8 1.919972 1_555
Cr1 O6 1.923260 1_555
Cr1 O11 1.936237 1_555
Cr1 O23 1.956537 1_555
Cr1 O4 1.988923 1_555
Cr1 O18 1.994735 1_555
Cr2 O13 1.911769 1_545
Cr2 O2 1.929027 1_555
Cr2 O20 1.940697 1_455
Cr2 O14 1.947402 1_455
Cr2 O17 1.987901 1_445
Cr2 O0 2.002105 1_555
Cr3 O9 1.906153 1_655
Cr3 O7 1.931901 1_555
Cr3 O22 1.933539 1_665
Cr3 O10 1.956056 1_565
Cr3 O19 1.984445 1_655
Cr3 O5 2.009791 1_555
O0 Ti0 1.965991 1_555
O1 Ti1 1.968441 1_655
O2 Ti0 2.001623 1_555
O3 Ti1 2.003047 1_655
O4 Ti2 1.976741 1_455
O5 Ti3 1.959771 1_555
O6 Ti2 2.012030 1_455
O7 Ti3 2.000120 1_555
O8 Ti2 1.977498 1_555
O9 Ti3 1.995417 1_555
O10 Ti2 1.966423 1_555
O11 Ti3 1.986404 1_555
O12 Ti0 1.991033 1_555
O13 Ti1 1.989614 1_555
O14 Ti0 1.978730 1_555
O15 Ti1 1.975663 1_555
O16 Ti0 1.947427 1_555
O17 Ti1 1.948283 1_655
O18 Ti2 1.942149 1_555
O19 Ti3 1.955405 1_555
O20 Ti0 1.987570 1_555
O21 Ti1 1.988997 1_555
O22 Ti2 1.996652 1_455
O23 Ti3 1.978718 1_555
