# generated using pymatgen
data_LiFePO4
_symmetry_space_group_name_H-M   'P 1'
_cell_length_a   4.93536700
_cell_length_b   7.70223500
_cell_length_c   18.47944730
_cell_angle_alpha   89.25448525
_cell_angle_beta   90.00000000
_cell_angle_gamma   90.00000000
_symmetry_Int_Tables_number   1
_chemical_formula_structural   LiFePO4
_chemical_formula_sum   'Li8 Fe8 P8 O32'
_cell_volume   702.40635283
_cell_formula_units_Z   8
loop_
 _symmetry_equiv_pos_site_id
 _symmetry_equiv_pos_as_xyz
  1  'x, y, z'
loop_
 _atom_site_type_symbol
 _atom_site_label
 _atom_site_symmetry_multiplicity
 _atom_site_fract_x
 _atom_site_fract_y
 _atom_site_fract_z
 _atom_site_occupancy
  Li  Li0  1  0.77370800  0.01571600  0.58649700  1
  Li  Li1  1  0.72629200  0.01571600  0.08649700  1
  Li  Li2  1  0.35326100  0.51078600  0.81415800  1
  Li  Li3  1  0.14673900  0.51078600  0.31415800  1
  Li  Li4  1  0.85326100  0.48921400  0.68584200  1
  Li  Li5  1  0.64673900  0.48921400  0.18584200  1
  Li  Li6  1  0.27370800  0.98428400  0.91350300  1
  Li  Li7  1  0.22629200  0.98428400  0.41350300  1
  Fe  Fe0  1  0.77987300  0.16603700  0.77339900  1
  Fe  Fe1  1  0.72012700  0.16603700  0.27339900  1
  Fe  Fe2  1  0.22533200  0.34268800  0.51733900  1
  Fe  Fe3  1  0.27466800  0.34268800  0.01733900  1
  Fe  Fe4  1  0.72533200  0.65731200  0.98266100  1
  Fe  Fe5  1  0.77466800  0.65731200  0.48266100  1
  Fe  Fe6  1  0.27987300  0.83396300  0.72660100  1
  Fe  Fe7  1  0.22012700  0.83396300  0.22660100  1
  P  P0  1  0.35148400  0.24522100  0.68227700  1
  P  P1  1  0.14851600  0.24522100  0.18227700  1
  P  P2  1  0.71814500  0.24992000  0.93620200  1
  P  P3  1  0.78185500  0.24992000  0.43620200  1
  P  P4  1  0.21814500  0.75008000  0.56379800  1
  P  P5  1  0.28185500  0.75008000  0.06379800  1
  P  P6  1  0.85148400  0.75477900  0.81772300  1
  P  P7  1  0.64851600  0.75477900  0.31772300  1
  O  O0  1  0.46834600  0.06875600  0.71194500  1
  O  O1  1  0.03165400  0.06875600  0.21194500  1
  O  O2  1  0.60284000  0.17417700  0.00773600  1
  O  O3  1  0.60322500  0.14579000  0.87173800  1
  O  O4  1  0.43396200  0.25295100  0.60247700  1
  O  O5  1  0.04011900  0.25812100  0.69428200  1
  O  O6  1  0.89716000  0.17417700  0.50773600  1
  O  O7  1  0.89677500  0.14579000  0.37173800  1
  O  O8  1  0.06603800  0.25295100  0.10247700  1
  O  O9  1  0.45988100  0.25812100  0.19428200  1
  O  O10  1  0.03257100  0.24684700  0.93531500  1
  O  O11  1  0.46742900  0.24684700  0.43531500  1
  O  O12  1  0.50163600  0.38683400  0.72724600  1
  O  O13  1  0.99836400  0.38683400  0.22724600  1
  O  O14  1  0.59795200  0.43933700  0.92940200  1
  O  O15  1  0.90204800  0.43933700  0.42940200  1
  O  O16  1  0.09795200  0.56066300  0.57059800  1
  O  O17  1  0.40204800  0.56066300  0.07059800  1
  O  O18  1  0.00163600  0.61316600  0.77275400  1
  O  O19  1  0.49836400  0.61316600  0.27275400  1
  O  O20  1  0.53257100  0.75315300  0.56468500  1
  O  O21  1  0.96742900  0.75315300  0.06468500  1
  O  O22  1  0.54011900  0.74187900  0.80571800  1
  O  O23  1  0.93396200  0.74704900  0.89752300  1
  O  O24  1  0.10322500  0.85421000  0.62826200  1
  O  O25  1  0.10284000  0.82582300  0.49226400  1
  O  O26  1  0.95988100  0.74187900  0.30571800  1
  O  O27  1  0.56603800  0.74704900  0.39752300  1
  O  O28  1  0.39677500  0.85421000  0.12826200  1
  O  O29  1  0.39716000  0.82582300  0.99226400  1
  O  O30  1  0.96834600  0.93124400  0.78805500  1
  O  O31  1  0.53165400  0.93124400  0.28805500  1
loop_
_geom_bond_atom_site_label_1
_geom_bond_atom_site_label_2
_geom_bond_distance
_geom_bond_site_symmetry_2
Li0 O6 1.983177 1_555
Li0 O24 2.182412 1_645
Li0 O20 2.385331 1_545
Li0 O4 2.500322 1_555
Li1 O2 1.983177 1_555
Li1 O28 2.182412 1_545
Li1 O21 2.385331 1_545
Li1 O8 2.500322 1_655
Li2 O22 2.008915 1_555
Li2 O12 2.016710 1_555
Li2 O18 2.050156 1_555
Li2 O14 2.503225 1_555
Li3 O26 2.008915 1_455
Li3 O13 2.016710 1_455
Li3 O19 2.050156 1_555
Li3 O15 2.503225 1_455
Li4 O5 2.008915 1_655
Li4 O18 2.016710 1_655
Li4 O12 2.050156 1_555
Li4 O16 2.503225 1_655
Li5 O9 2.008915 1_555
Li5 O19 2.016710 1_555
Li5 O13 2.050156 1_555
Li5 O17 2.503225 1_555
Li6 O29 1.983177 1_555
Li6 O3 2.182412 1_565
Li6 O10 2.385331 1_565
Li6 O23 2.500322 1_455
Li7 O25 1.983177 1_555
Li7 O7 2.182412 1_465
Li7 O11 2.385331 1_565
Li7 O27 2.500322 1_555
Fe0 O3 2.019757 1_555
Fe0 O30 2.048480 1_545
Fe0 O0 2.058432 1_555
Fe0 O5 2.064781 1_655
Fe0 O12 2.338266 1_555
Fe1 O7 2.019757 1_555
Fe1 O31 2.048480 1_545
Fe1 O1 2.058432 1_655
Fe1 O9 2.064781 1_555
Fe1 O13 2.338266 1_555
Fe2 O4 1.996226 1_555
Fe2 O16 2.055615 1_555
Fe2 O11 2.073452 1_555
Fe2 O6 2.084544 1_455
Fe2 O15 2.389369 1_455
Fe3 O8 1.996226 1_555
Fe3 O17 2.055615 1_555
Fe3 O10 2.073452 1_554
Fe3 O2 2.084544 1_555
Fe3 O14 2.389369 1_554
Fe4 O23 1.996226 1_555
Fe4 O14 2.055615 1_555
Fe4 O21 2.073452 1_556
Fe4 O29 2.084544 1_555
Fe4 O17 2.389369 1_556
Fe5 O27 1.996226 1_555
Fe5 O15 2.055615 1_555
Fe5 O20 2.073452 1_555
Fe5 O25 2.084544 1_655
Fe5 O16 2.389369 1_655
Fe6 O24 2.019757 1_555
Fe6 O0 2.048480 1_565
Fe6 O30 2.058432 1_455
Fe6 O22 2.064781 1_555
Fe6 O18 2.338266 1_555
Fe7 O28 2.019757 1_555
Fe7 O1 2.048480 1_565
Fe7 O31 2.058432 1_555
Fe7 O26 2.064781 1_455
Fe7 O19 2.338266 1_555
O0 P0 1.568818 1_555
O1 P1 1.568818 1_555
O2 P2 1.546468 1_554
O3 P2 1.552064 1_555
O4 P0 1.530222 1_555
O5 P0 1.555992 1_555
O6 P3 1.546468 1_555
O7 P3 1.552064 1_555
O8 P1 1.530222 1_555
O9 P1 1.555992 1_555
O10 P2 1.552078 1_455
O11 P3 1.552078 1_555
O12 P0 1.566212 1_555
O13 P1 1.566212 1_655
O14 P2 1.578414 1_555
O15 P3 1.578414 1_555
O16 P4 1.578414 1_555
O17 P5 1.578414 1_555
O18 P6 1.566212 1_455
O19 P7 1.566212 1_555
O20 P4 1.552078 1_555
O21 P5 1.552078 1_655
O22 P6 1.555992 1_555
O23 P6 1.530222 1_555
O24 P4 1.552064 1_555
O25 P4 1.546468 1_555
O26 P7 1.555992 1_555
O27 P7 1.530222 1_555
O28 P5 1.552064 1_555
O29 P5 1.546468 1_556
O30 P6 1.568818 1_555
O31 P7 1.568818 1_555
