# generated using pymatgen
data_Li2Cu2F5
_symmetry_space_group_name_H-M   'P 1'
_cell_length_a   5.56381500
_cell_length_b   5.56381500
_cell_length_c   7.25360071
_cell_angle_alpha   77.42876073
_cell_angle_beta   77.42876073
_cell_angle_gamma   91.08796602
_symmetry_Int_Tables_number   1
_chemical_formula_structural   Li2Cu2F5
_chemical_formula_sum   'Li4 Cu4 F10'
_cell_volume   213.38584992
_cell_formula_units_Z   2
loop_
 _symmetry_equiv_pos_site_id
 _symmetry_equiv_pos_as_xyz
  1  'x, y, z'
loop_
 _atom_site_type_symbol
 _atom_site_label
 _atom_site_symmetry_multiplicity
 _atom_site_fract_x
 _atom_site_fract_y
 _atom_site_fract_z
 _atom_site_occupancy
  Li  Li0  1  0.27519900  0.74632100  0.97934800  1
  Li  Li1  1  0.25367900  0.72480100  0.52065200  1
  Li  Li2  1  0.74632100  0.27519900  0.47934800  1
  Li  Li3  1  0.72480100  0.25367900  0.02065200  1
  Cu  Cu0  1  0.79058400  0.79805800  0.87923200  1
  Cu  Cu1  1  0.79805800  0.79058400  0.37923200  1
  Cu  Cu2  1  0.20194200  0.20941600  0.62076800  1
  Cu  Cu3  1  0.20941600  0.20194200  0.12076800  1
  F  F0  1  0.50000000  0.00000000  0.00000000  1
  F  F1  1  0.71500100  0.92660300  0.62031900  1
  F  F2  1  0.16018500  0.83981500  0.75000000  1
  F  F3  1  0.50000000  0.50000000  0.00000000  1
  F  F4  1  0.92660300  0.71500100  0.12031900  1
  F  F5  1  0.00000000  0.50000000  0.50000000  1
  F  F6  1  0.50000000  0.50000000  0.50000000  1
  F  F7  1  0.07339700  0.28499900  0.87968100  1
  F  F8  1  0.83981500  0.16018500  0.25000000  1
  F  F9  1  0.28499900  0.07339700  0.37968100  1
loop_
_geom_bond_atom_site_label_1
_geom_bond_atom_site_label_2
_geom_bond_distance
_geom_bond_site_symmetry_2
Cu0 F1 1.996486 1_555
Cu0 F4 2.020394 1_556
Cu0 F2 2.051675 1_655
Cu0 F0 2.127111 1_566
Cu0 F3 2.186473 1_556
Cu1 F4 1.996486 1_555
Cu1 F1 2.020394 1_555
Cu1 F8 2.051675 1_565
Cu1 F5 2.127111 1_655
Cu1 F6 2.186473 1_555
Cu2 F7 1.996486 1_555
Cu2 F9 2.020394 1_555
Cu2 F2 2.051675 1_545
Cu2 F5 2.127111 1_555
Cu2 F6 2.186473 1_555
Cu3 F9 1.996486 1_555
Cu3 F7 2.020394 1_554
Cu3 F8 2.051675 1_455
Cu3 F0 2.127111 1_555
Cu3 F3 2.186473 1_555
F0 Li0 1.919764 1_544
F0 Li3 1.919764 1_555
F1 Li2 1.970786 1_565
F2 Li1 1.883346 1_555
F2 Li0 1.883346 1_555
F3 Li0 1.876788 1_554
F3 Li3 1.876788 1_555
F4 Li0 1.970786 1_654
F5 Li2 1.919764 1_455
F5 Li1 1.919764 1_555
F6 Li2 1.876788 1_555
F6 Li1 1.876788 1_555
F7 Li3 1.970786 1_456
F8 Li3 1.883346 1_555
F8 Li2 1.883346 1_555
F9 Li1 1.970786 1_545
