# generated using pymatgen
data_Fe3O4
_symmetry_space_group_name_H-M   'P 1'
_cell_length_a   2.94267094
_cell_length_b   5.09881565
_cell_length_c   9.99026188
_cell_angle_alpha   90.10936990
_cell_angle_beta   90.23295843
_cell_angle_gamma   73.27708706
_symmetry_Int_Tables_number   1
_chemical_formula_structural   Fe3O4
_chemical_formula_sum   'Fe6 O8'
_cell_volume   143.55458019
_cell_formula_units_Z   2
loop_
 _symmetry_equiv_pos_site_id
 _symmetry_equiv_pos_as_xyz
  1  'x, y, z'
loop_
 _atom_site_type_symbol
 _atom_site_label
 _atom_site_symmetry_multiplicity
 _atom_site_fract_x
 _atom_site_fract_y
 _atom_site_fract_z
 _atom_site_occupancy
  Fe  Fe0  1  0.87062600  0.25469900  0.57330000  1
  Fe  Fe1  1  0.13122800  0.72794000  0.42391100  1
  Fe  Fe2  1  0.86383800  0.27242700  0.92476800  1
  Fe  Fe3  1  0.12882200  0.74983800  0.07520000  1
  Fe  Fe4  1  0.61795000  0.76484900  0.73978200  1
  Fe  Fe5  1  0.38411900  0.23823800  0.23945600  1
  O  O0  1  0.96440300  0.07240200  0.75335100  1
  O  O1  1  0.04104800  0.92290000  0.25425600  1
  O  O2  1  0.76925500  0.46980000  0.10998700  1
  O  O3  1  0.22478000  0.55047400  0.88605100  1
  O  O4  1  0.77060600  0.44658900  0.38549600  1
  O  O5  1  0.23455400  0.52824500  0.61382700  1
  O  O6  1  0.50661600  0.98169900  0.50968900  1
  O  O7  1  0.49215400  0.01989900  0.01092600  1
loop_
_geom_bond_atom_site_label_1
_geom_bond_atom_site_label_2
_geom_bond_distance
_geom_bond_site_symmetry_2
Fe0 O0 2.007580 1_555
Fe0 O5 2.027329 1_655
Fe0 O5 2.028385 1_555
Fe0 O6 2.082785 1_545
Fe0 O6 2.085926 1_645
Fe0 O4 2.097827 1_555
Fe1 O1 1.944796 1_555
Fe1 O4 2.048336 1_555
Fe1 O4 2.049888 1_455
Fe1 O6 2.103989 1_455
Fe1 O6 2.106961 1_555
Fe1 O5 2.133894 1_555
Fe2 O0 1.970830 1_555
Fe2 O3 2.039076 1_555
Fe2 O3 2.039520 1_655
Fe2 O2 2.085679 1_556
Fe2 O7 2.101759 1_556
Fe2 O7 2.106787 1_656
Fe3 O1 1.977826 1_555
Fe3 O2 2.038001 1_455
Fe3 O2 2.039411 1_555
Fe3 O7 2.075510 1_565
Fe3 O7 2.080237 1_465
Fe3 O3 2.125003 1_554
Fe4 O0 2.105939 1_565
Fe4 O0 2.107563 1_465
Fe4 O5 2.253347 1_555
Fe4 O5 2.254795 1_655
Fe4 O3 2.319569 1_655
Fe4 O3 2.327291 1_555
Fe4 O6 2.531589 1_555
Fe5 O1 2.133984 1_645
Fe5 O1 2.135995 1_545
Fe5 O2 2.257900 1_455
Fe5 O2 2.266990 1_555
Fe5 O4 2.286164 1_555
Fe5 O4 2.329872 1_455
Fe5 O7 2.519006 1_555
