# generated using pymatgen
data_Li2CrCuO4
_symmetry_space_group_name_H-M   'P 1'
_cell_length_a   2.95251577
_cell_length_b   5.10700024
_cell_length_c   5.12133036
_cell_angle_alpha   109.48537638
_cell_angle_beta   90.00059831
_cell_angle_gamma   90.00099879
_symmetry_Int_Tables_number   1
_chemical_formula_structural   Li2CrCuO4
_chemical_formula_sum   'Li2 Cr1 Cu1 O4'
_cell_volume   72.79921281
_cell_formula_units_Z   1
loop_
 _symmetry_equiv_pos_site_id
 _symmetry_equiv_pos_as_xyz
  1  'x, y, z'
loop_
 _atom_site_type_symbol
 _atom_site_label
 _atom_site_symmetry_multiplicity
 _atom_site_fract_x
 _atom_site_fract_y
 _atom_site_fract_z
 _atom_site_occupancy
  Li  Li0  1  0.00000000  0.00000000  0.00000000  1
  Li  Li1  1  0.50000000  0.50000000  0.00000000  1
  Cr  Cr0  1  0.50000100  0.99999900  0.50000000  1
  Cu  Cu0  1  0.00000000  0.50000100  0.49999900  1
  O  O0  1  0.00001100  0.23843000  0.72745600  1
  O  O1  1  0.99998800  0.76157100  0.27254500  1
  O  O2  1  0.50000900  0.74607200  0.72709400  1
  O  O3  1  0.49999100  0.25392800  0.27290600  1
loop_
_geom_bond_atom_site_label_1
_geom_bond_atom_site_label_2
_geom_bond_distance
_geom_bond_site_symmetry_2
Li0 O0 2.136535 1_554
Li0 O1 2.136535 1_445
Li0 O3 2.145951 1_555
Li0 O2 2.145951 1_444
Li0 O2 2.146039 1_544
Li0 O3 2.146039 1_455
Li1 O0 2.160536 1_554
Li1 O1 2.160539 1_555
Li1 O0 2.160632 1_654
Li1 O1 2.160639 1_455
Li1 O2 2.168969 1_554
Li1 O3 2.168969 1_555
Cr0 O2 2.010101 1_555
Cr0 O3 2.010110 1_565
Cr0 O1 2.018083 1_555
Cr0 O1 2.018090 1_455
Cr0 O0 2.018092 1_665
Cr0 O0 2.018098 1_565
Cu0 O2 2.033753 1_555
Cu0 O3 2.033754 1_455
Cu0 O2 2.033764 1_455
Cu0 O3 2.033765 1_555
Cu0 O1 2.044379 1_455
Cu0 O0 2.044396 1_555
