# generated using pymatgen
data_LiSnPO4
_symmetry_space_group_name_H-M   'P 1'
_cell_length_a   5.39672000
_cell_length_b   8.68467700
_cell_length_c   25.14235400
_cell_angle_alpha   90.00000000
_cell_angle_beta   90.00000000
_cell_angle_gamma   90.00000000
_symmetry_Int_Tables_number   1
_chemical_formula_structural   LiSnPO4
_chemical_formula_sum   'Li12 Sn12 P12 O48'
_cell_volume   1178.39120838
_cell_formula_units_Z   12
loop_
 _symmetry_equiv_pos_site_id
 _symmetry_equiv_pos_as_xyz
  1  'x, y, z'
loop_
 _atom_site_type_symbol
 _atom_site_label
 _atom_site_symmetry_multiplicity
 _atom_site_fract_x
 _atom_site_fract_y
 _atom_site_fract_z
 _atom_site_occupancy
  Li  Li0  1  0.74168300  0.92923300  0.09046700  1
  Li  Li1  1  0.22471600  0.41783900  0.07372100  1
  Li  Li2  1  0.73476600  0.58296100  0.25946600  1
  Li  Li3  1  0.23476600  0.08296100  0.24053400  1
  Li  Li4  1  0.72471600  0.91783900  0.42627900  1
  Li  Li5  1  0.24168300  0.42923300  0.40953300  1
  Li  Li6  1  0.74168300  0.57076700  0.59046700  1
  Li  Li7  1  0.22471600  0.08216100  0.57372100  1
  Li  Li8  1  0.73476600  0.91703900  0.75946600  1
  Li  Li9  1  0.23476600  0.41703900  0.74053400  1
  Li  Li10  1  0.72471600  0.58216100  0.92627900  1
  Li  Li11  1  0.24168300  0.07076700  0.90953300  1
  Sn  Sn0  1  0.74132800  0.25791100  0.98214100  1
  Sn  Sn1  1  0.21678400  0.75692000  0.18387400  1
  Sn  Sn2  1  0.75725300  0.24940000  0.14928400  1
  Sn  Sn3  1  0.25725300  0.74940000  0.35071600  1
  Sn  Sn4  1  0.71678400  0.25692000  0.31612600  1
  Sn  Sn5  1  0.24132800  0.75791100  0.51785900  1
  Sn  Sn6  1  0.74132800  0.24208900  0.48214100  1
  Sn  Sn7  1  0.21678400  0.74308000  0.68387400  1
  Sn  Sn8  1  0.75725300  0.25060000  0.64928400  1
  Sn  Sn9  1  0.25725300  0.75060000  0.85071600  1
  Sn  Sn10  1  0.71678400  0.24308000  0.81612600  1
  Sn  Sn11  1  0.24132800  0.74208900  0.01785900  1
  P  P0  1  0.72472500  0.58200700  0.06162300  1
  P  P1  1  0.25508200  0.08408600  0.10420900  1
  P  P2  1  0.72747700  0.92360300  0.22668700  1
  P  P3  1  0.22747700  0.42360300  0.27331300  1
  P  P4  1  0.75508200  0.58408600  0.39579100  1
  P  P5  1  0.22472500  0.08200700  0.43837700  1
  P  P6  1  0.72472500  0.91799300  0.56162300  1
  P  P7  1  0.25508200  0.41591400  0.60420900  1
  P  P8  1  0.72747700  0.57639700  0.72668700  1
  P  P9  1  0.22747700  0.07639700  0.77331300  1
  P  P10  1  0.75508200  0.91591400  0.89579100  1
  P  P11  1  0.22472500  0.41799300  0.93837700  1
  O  O0  1  0.69637600  0.54038600  0.00232200  1
  O  O1  1  0.37821400  0.95701200  0.07017400  1
  O  O2  1  0.41426800  0.23616000  0.09803600  1
  O  O3  1  0.98566600  0.11872800  0.08403400  1
  O  O4  1  0.88089000  0.73454600  0.06582800  1
  O  O5  1  0.45731900  0.60952900  0.08472000  1
  O  O6  1  0.86280800  0.45625800  0.09394100  1
  O  O7  1  0.24815900  0.04275500  0.16388400  1
  O  O8  1  0.74199300  0.96779200  0.16745400  1
  O  O9  1  0.09630800  0.54844400  0.23929500  1
  O  O10  1  0.49526900  0.39300900  0.25143400  1
  O  O11  1  0.07275700  0.26949100  0.26895400  1
  O  O12  1  0.57275700  0.76949100  0.23104600  1
  O  O13  1  0.99526900  0.89300900  0.24856600  1
  O  O14  1  0.59630800  0.04844400  0.26070500  1
  O  O15  1  0.24199300  0.46779200  0.33254600  1
  O  O16  1  0.74815900  0.54275500  0.33611600  1
  O  O17  1  0.36280800  0.95625800  0.40605900  1
  O  O18  1  0.95731900  0.10952900  0.41528000  1
  O  O19  1  0.38089000  0.23454600  0.43417200  1
  O  O20  1  0.48566600  0.61872800  0.41596600  1
  O  O21  1  0.91426800  0.73616000  0.40196400  1
  O  O22  1  0.87821400  0.45701200  0.42982600  1
  O  O23  1  0.19637600  0.04038600  0.49767800  1
  O  O24  1  0.69637600  0.95961400  0.50232200  1
  O  O25  1  0.37821400  0.54298800  0.57017400  1
  O  O26  1  0.41426800  0.26384000  0.59803600  1
  O  O27  1  0.98566600  0.38127200  0.58403400  1
  O  O28  1  0.88089000  0.76545400  0.56582800  1
  O  O29  1  0.45731900  0.89047100  0.58472000  1
  O  O30  1  0.86280800  0.04374200  0.59394100  1
  O  O31  1  0.24815900  0.45724500  0.66388400  1
  O  O32  1  0.74199300  0.53220800  0.66745400  1
  O  O33  1  0.09630800  0.95155600  0.73929500  1
  O  O34  1  0.49526900  0.10699100  0.75143400  1
  O  O35  1  0.07275700  0.23050900  0.76895400  1
  O  O36  1  0.57275700  0.73050900  0.73104600  1
  O  O37  1  0.99526900  0.60699100  0.74856600  1
  O  O38  1  0.59630800  0.45155600  0.76070500  1
  O  O39  1  0.24199300  0.03220800  0.83254600  1
  O  O40  1  0.74815900  0.95724500  0.83611600  1
  O  O41  1  0.36280800  0.54374200  0.90605900  1
  O  O42  1  0.95731900  0.39047100  0.91528000  1
  O  O43  1  0.38089000  0.26545400  0.93417200  1
  O  O44  1  0.48566600  0.88127200  0.91596600  1
  O  O45  1  0.91426800  0.76384000  0.90196400  1
  O  O46  1  0.87821400  0.04298800  0.92982600  1
  O  O47  1  0.19637600  0.45961400  0.99767800  1
loop_
_geom_bond_atom_site_label_1
_geom_bond_atom_site_label_2
_geom_bond_distance
_geom_bond_site_symmetry_2
Li0 O4 1.951137 1_555
Li0 O8 1.964389 1_555
Li0 O1 2.041118 1_555
Li0 O3 2.113816 1_565
Li1 O47 1.952019 1_554
Li1 O2 1.977297 1_555
Li1 O6 2.045590 1_455
Li1 O5 2.103255 1_555
Li2 O16 1.959872 1_555
Li2 O12 1.974653 1_555
Li2 O9 2.038139 1_655
Li2 O10 2.105410 1_555
Li3 O7 1.959872 1_555
Li3 O11 1.974653 1_555
Li3 O14 2.038139 1_555
Li3 O13 2.105410 1_445
Li4 O24 1.952019 1_555
Li4 O21 1.977297 1_555
Li4 O17 2.045590 1_555
Li4 O18 2.103255 1_565
Li5 O19 1.951137 1_555
Li5 O15 1.964389 1_555
Li5 O22 2.041118 1_455
Li5 O20 2.113816 1_555
Li6 O28 1.951137 1_555
Li6 O32 1.964389 1_555
Li6 O25 2.041118 1_555
Li6 O27 2.113816 1_555
Li7 O23 1.952019 1_555
Li7 O26 1.977297 1_555
Li7 O30 2.045590 1_455
Li7 O29 2.103255 1_545
Li8 O40 1.959872 1_555
Li8 O36 1.974653 1_555
Li8 O33 2.038139 1_655
Li8 O34 2.105410 1_565
Li9 O31 1.959872 1_555
Li9 O35 1.974653 1_555
Li9 O38 2.038139 1_555
Li9 O37 2.105410 1_455
Li10 O0 1.952019 1_556
Li10 O45 1.977297 1_555
Li10 O41 2.045590 1_555
Li10 O42 2.103255 1_555
Li11 O43 1.951137 1_555
Li11 O39 1.964389 1_555
Li11 O46 2.041118 1_455
Li11 O44 2.113816 1_545
O0 P0 1.541767 1_555
O0 Sn0 2.516846 1_554
O1 P1 1.546530 1_565
O1 Sn11 2.399950 1_555
O2 P1 1.583160 1_555
O2 Sn2 2.258234 1_555
O3 P1 1.569019 1_655
O3 Sn2 2.344939 1_555
O4 P0 1.573665 1_555
O4 Sn11 2.289671 1_655
O5 P0 1.573830 1_555
O5 Sn11 2.347336 1_555
O6 P0 1.551842 1_555
O6 Sn2 2.342656 1_555
O7 P1 1.543162 1_555
O7 Sn1 2.538406 1_545
O8 P2 1.539903 1_555
O8 Sn2 2.489338 1_565
O9 P3 1.551812 1_555
O9 Sn1 2.375376 1_555
O10 P3 1.569010 1_555
O10 Sn4 2.339125 1_555
O11 P3 1.581314 1_555
O11 Sn4 2.260337 1_455
O12 P2 1.581314 1_555
O12 Sn1 2.260337 1_555
O13 P2 1.569010 1_555
O13 Sn1 2.339125 1_655
O14 P2 1.551812 1_545
O14 Sn4 2.375376 1_555
O15 P3 1.539903 1_555
O15 Sn3 2.489338 1_555
O16 P4 1.543162 1_555
O16 Sn4 2.538406 1_555
O17 P5 1.551842 1_565
O17 Sn3 2.342656 1_555
O18 P5 1.573830 1_655
O18 Sn6 2.347336 1_555
O19 P5 1.573665 1_555
O19 Sn6 2.289671 1_555
O20 P4 1.569019 1_555
O20 Sn3 2.344939 1_555
O21 P4 1.583160 1_555
O21 Sn3 2.258234 1_655
O22 P4 1.546530 1_555
O22 Sn6 2.399950 1_555
O23 P5 1.541767 1_555
O23 Sn5 2.516846 1_545
O24 P6 1.541767 1_555
O24 Sn6 2.516846 1_565
O25 P7 1.546530 1_555
O25 Sn5 2.399950 1_555
O26 P7 1.583160 1_555
O26 Sn8 2.258234 1_555
O27 P7 1.569019 1_655
O27 Sn8 2.344939 1_555
O28 P6 1.573665 1_555
O28 Sn5 2.289671 1_655
O29 P6 1.573830 1_555
O29 Sn5 2.347336 1_555
O30 P6 1.551842 1_545
O30 Sn8 2.342656 1_555
O31 P7 1.543162 1_555
O31 Sn7 2.538406 1_555
O32 P8 1.539903 1_555
O32 Sn8 2.489338 1_555
O33 P9 1.551812 1_565
O33 Sn7 2.375376 1_555
O34 P9 1.569010 1_555
O34 Sn10 2.339125 1_555
O35 P9 1.581314 1_555
O35 Sn10 2.260337 1_455
O36 P8 1.581314 1_555
O36 Sn7 2.260337 1_555
O37 P8 1.569010 1_555
O37 Sn7 2.339125 1_655
O38 P8 1.551812 1_555
O38 Sn10 2.375376 1_555
O39 P9 1.539903 1_555
O39 Sn9 2.489338 1_545
O40 P10 1.543162 1_555
O40 Sn10 2.538406 1_565
O41 P11 1.551842 1_555
O41 Sn9 2.342656 1_555
O42 P11 1.573830 1_655
O42 Sn0 2.347336 1_555
O43 P11 1.573665 1_555
O43 Sn0 2.289671 1_555
O44 P10 1.569019 1_555
O44 Sn9 2.344939 1_555
O45 P10 1.583160 1_555
O45 Sn9 2.258234 1_655
O46 P10 1.546530 1_545
O46 Sn0 2.399950 1_555
O47 P11 1.541767 1_555
O47 Sn11 2.516846 1_556
