# generated using pymatgen
data_Co15O28
_symmetry_space_group_name_H-M   'P 1'
_cell_length_a   7.62718900
_cell_length_b   8.14510071
_cell_length_c   8.62208705
_cell_angle_alpha   104.90696825
_cell_angle_beta   105.96886422
_cell_angle_gamma   103.24558255
_symmetry_Int_Tables_number   1
_chemical_formula_structural   Co15O28
_chemical_formula_sum   'Co15 O28'
_cell_volume   470.99936195
_cell_formula_units_Z   1
loop_
 _symmetry_equiv_pos_site_id
 _symmetry_equiv_pos_as_xyz
  1  'x, y, z'
loop_
 _atom_site_type_symbol
 _atom_site_label
 _atom_site_symmetry_multiplicity
 _atom_site_fract_x
 _atom_site_fract_y
 _atom_site_fract_z
 _atom_site_occupancy
  Co  Co0  1  0.14134400  0.92701900  0.57176600  1
  Co  Co1  1  0.42882100  0.78903000  0.71520100  1
  Co  Co2  1  0.08068700  0.21957300  0.78479700  1
  Co  Co3  1  0.70640100  0.63859700  0.85939300  1
  Co  Co4  1  0.21375900  0.64241200  0.35624800  1
  Co  Co5  1  0.63626200  0.92550500  0.07279000  1
  Co  Co6  1  0.00000000  0.50000000  0.00000000  1
  Co  Co7  1  0.36373800  0.07449500  0.92721000  1
  Co  Co8  1  0.50000000  0.50000000  0.50000000  1
  Co  Co9  1  0.91931300  0.78042700  0.21520300  1
  Co  Co10  1  0.78624100  0.35758800  0.64375200  1
  Co  Co11  1  0.29359900  0.36140300  0.14060700  1
  Co  Co12  1  0.57117900  0.21097000  0.28479900  1
  Co  Co13  1  0.00000000  0.00000000  0.00000000  1
  Co  Co14  1  0.85865600  0.07298100  0.42823400  1
  O  O0  1  0.09500900  0.99151800  0.78876300  1
  O  O1  1  0.38164500  0.84506700  0.91904000  1
  O  O2  1  0.16982700  0.70246300  0.56618700  1
  O  O3  1  0.02818000  0.26339200  0.99337100  1
  O  O4  1  0.18250000  0.86783300  0.36339000  1
  O  O5  1  0.04771400  0.44248300  0.79369000  1
  O  O6  1  0.69988300  0.87292500  0.86952600  1
  O  O7  1  0.59827100  0.98894600  0.28433500  1
  O  O8  1  0.45286000  0.55994900  0.70866300  1
  O  O9  1  0.33689700  0.30341200  0.93355000  1
  O  O10  1  0.47154700  0.72530200  0.50304200  1
  O  O11  1  0.88015200  0.84484900  0.42393800  1
  O  O12  1  0.74191200  0.41714700  0.85435300  1
  O  O13  1  0.24184400  0.41596400  0.34840200  1
  O  O14  1  0.75815600  0.58403600  0.65159800  1
  O  O15  1  0.25808800  0.58285300  0.14564700  1
  O  O16  1  0.11984800  0.15515100  0.57606200  1
  O  O17  1  0.66310300  0.69658800  0.06645000  1
  O  O18  1  0.40172900  0.01105400  0.71566500  1
  O  O19  1  0.52845300  0.27469800  0.49695800  1
  O  O20  1  0.54714000  0.44005100  0.29133700  1
  O  O21  1  0.81750000  0.13216700  0.63661000  1
  O  O22  1  0.30011700  0.12707500  0.13047400  1
  O  O23  1  0.83017300  0.29753700  0.43381300  1
  O  O24  1  0.97182000  0.73660800  0.00662900  1
  O  O25  1  0.95228600  0.55751700  0.20631000  1
  O  O26  1  0.61835500  0.15493300  0.08096000  1
  O  O27  1  0.90499100  0.00848200  0.21123700  1
loop_
_geom_bond_atom_site_label_1
_geom_bond_atom_site_label_2
_geom_bond_distance
_geom_bond_site_symmetry_2
Co0 O4 1.868924 1_555
Co0 O18 1.880538 1_565
Co0 O2 1.880807 1_555
Co0 O16 1.894345 1_565
Co0 O11 1.895834 1_455
Co0 O0 1.960764 1_555
Co1 O1 1.853959 1_555
Co1 O18 1.865751 1_565
Co1 O2 1.883941 1_555
Co1 O8 1.904383 1_555
Co1 O10 1.907562 1_555
Co1 O6 1.970510 1_555
Co2 O16 1.866898 1_555
Co2 O9 1.867845 1_555
Co2 O5 1.874526 1_555
Co2 O0 1.893973 1_545
Co2 O21 1.906505 1_455
Co2 O3 1.911375 1_555
Co3 O8 1.860136 1_555
Co3 O17 1.865840 1_556
Co3 O12 1.875825 1_555
Co3 O6 1.900798 1_555
Co3 O14 1.903452 1_555
Co3 O24 1.915993 1_556
Co4 O10 1.872548 1_555
Co4 O13 1.891364 1_555
Co4 O2 1.892442 1_555
Co4 O4 1.892702 1_555
Co4 O15 1.899108 1_555
Co4 O25 1.901632 1_455
Co5 O1 1.873916 1_554
Co5 O7 1.884757 1_555
Co5 O26 1.889506 1_565
Co5 O17 1.910521 1_555
Co5 O6 1.915031 1_554
Co5 O27 1.920064 1_565
Co6 O12 1.871472 1_454
Co6 O15 1.871472 1_555
Co6 O5 1.876617 1_554
Co6 O25 1.876617 1_455
Co6 O3 1.975715 1_554
Co6 O24 1.975715 1_455
Co7 O26 1.873916 1_556
Co7 O18 1.884757 1_555
Co7 O1 1.889506 1_545
Co7 O9 1.910521 1_555
Co7 O22 1.915031 1_556
Co7 O0 1.920064 1_545
Co8 O13 1.886784 1_555
Co8 O14 1.886784 1_555
Co8 O19 1.891103 1_555
Co8 O10 1.891103 1_555
Co8 O20 1.894437 1_555
Co8 O8 1.894437 1_555
Co9 O11 1.866898 1_555
Co9 O17 1.867845 1_555
Co9 O25 1.874526 1_555
Co9 O27 1.893973 1_565
Co9 O4 1.906505 1_655
Co9 O24 1.911375 1_555
Co10 O19 1.872548 1_555
Co10 O14 1.891364 1_555
Co10 O23 1.892442 1_555
Co10 O21 1.892702 1_555
Co10 O12 1.899108 1_555
Co10 O5 1.901632 1_655
Co11 O20 1.860136 1_555
Co11 O9 1.865840 1_554
Co11 O15 1.875825 1_555
Co11 O22 1.900798 1_555
Co11 O13 1.903452 1_555
Co11 O3 1.915993 1_554
Co12 O26 1.853959 1_555
Co12 O7 1.865751 1_545
Co12 O23 1.883941 1_555
Co12 O20 1.904383 1_555
Co12 O19 1.907562 1_555
Co12 O22 1.970510 1_555
Co13 O6 2.115398 1_444
Co13 O22 2.115398 1_555
Co13 O24 2.123806 1_445
Co13 O3 2.123806 1_554
Co13 O27 2.128719 1_455
Co13 O0 2.128719 1_544
Co14 O21 1.868924 1_555
Co14 O7 1.880538 1_545
Co14 O23 1.880807 1_555
Co14 O11 1.894345 1_545
Co14 O16 1.895834 1_655
Co14 O27 1.960764 1_555
