# generated using pymatgen
data_Li4Cr3Cu3(WO8)2
_symmetry_space_group_name_H-M   'P 1'
_cell_length_a   5.96282771
_cell_length_b   5.88611662
_cell_length_c   9.78771643
_cell_angle_alpha   89.96963985
_cell_angle_beta   87.22925894
_cell_angle_gamma   119.56250724
_symmetry_Int_Tables_number   1
_chemical_formula_structural   Li4Cr3Cu3(WO8)2
_chemical_formula_sum   'Li4 Cr3 Cu3 W2 O16'
_cell_volume   298.34022615
_cell_formula_units_Z   1
loop_
 _symmetry_equiv_pos_site_id
 _symmetry_equiv_pos_as_xyz
  1  'x, y, z'
loop_
 _atom_site_type_symbol
 _atom_site_label
 _atom_site_symmetry_multiplicity
 _atom_site_fract_x
 _atom_site_fract_y
 _atom_site_fract_z
 _atom_site_occupancy
  Li  Li0  1  0.32734300  0.66367200  0.90864100  1
  Li  Li1  1  0.99476200  0.99735800  0.98943900  1
  Li  Li2  1  0.00752800  0.00375800  0.48341100  1
  Li  Li3  1  0.68967300  0.34484800  0.41161800  1
  Cr  Cr0  1  0.65853600  0.82923900  0.21583700  1
  Cr  Cr1  1  0.82775700  0.66037300  0.71422100  1
  Cr  Cr2  1  0.82769600  0.16731900  0.71420100  1
  Cu  Cu0  1  0.16748000  0.83003300  0.21199000  1
  Cu  Cu1  1  0.16751300  0.33762600  0.21192400  1
  Cu  Cu2  1  0.33506900  0.16759600  0.71221800  1
  W  W0  1  0.35528100  0.67768200  0.48728900  1
  W  W1  1  0.65275900  0.32643900  0.98496700  1
  O  O0  1  0.16264800  0.81946600  0.58481800  1
  O  O1  1  0.06478300  0.53252500  0.35113800  1
  O  O2  1  0.33286400  0.66647200  0.11949000  1
  O  O3  1  0.99912600  0.99967800  0.29539800  1
  O  O4  1  0.99910500  0.99961900  0.80322600  1
  O  O5  1  0.16258500  0.34310900  0.58480900  1
  O  O6  1  0.52220100  0.97760300  0.36101000  1
  O  O7  1  0.52196700  0.54445600  0.36104800  1
  O  O8  1  0.31996300  0.15988700  0.08352300  1
  O  O9  1  0.66036300  0.83015700  0.60211900  1
  O  O10  1  0.52142100  0.48651400  0.84831100  1
  O  O11  1  0.52133500  0.03486600  0.84824200  1
  O  O12  1  0.66542800  0.33266400  0.61454600  1
  O  O13  1  0.78901500  0.64108800  0.08168800  1
  O  O14  1  0.95666700  0.47835400  0.84102000  1
  O  O15  1  0.78913500  0.14790000  0.08170200  1
loop_
_geom_bond_atom_site_label_1
_geom_bond_atom_site_label_2
_geom_bond_distance
_geom_bond_site_symmetry_2
Li0 O11 1.974827 1_565
Li0 O10 1.975003 1_555
Li0 O2 2.065528 1_556
Li0 O14 2.067947 1_455
Li1 O4 1.821480 1_555
Li1 O8 1.966330 1_666
Li1 O15 2.017403 1_566
Li1 O13 2.017483 1_556
Li2 O3 1.843166 1_445
Li2 O0 2.023628 1_545
Li2 O5 2.024387 1_555
Li2 O9 2.087660 1_445
Li3 O7 1.957550 1_555
Li3 O6 1.958118 1_545
Li3 O12 1.983154 1_555
Li3 O1 2.001706 1_655
Cr0 O3 1.969934 1_555
Cr0 O2 1.980005 1_555
Cr0 O7 2.007906 1_555
Cr0 O6 2.008148 1_555
Cr0 O15 2.074965 1_565
Cr0 O13 2.075773 1_555
Cr1 O12 1.964794 1_555
Cr1 O4 1.965941 1_555
Cr1 O10 2.007138 1_555
Cr1 O14 2.045097 1_555
Cr1 O9 2.070732 1_555
Cr1 O0 2.092302 1_655
Cr2 O12 1.963220 1_555
Cr2 O4 1.964432 1_545
Cr2 O11 2.006998 1_555
Cr2 O14 2.046794 1_555
Cr2 O9 2.071661 1_545
Cr2 O5 2.092219 1_655
Cu0 O2 1.889573 1_555
Cu0 O3 1.892636 1_455
Cu0 O1 2.038421 1_555
Cu0 O8 2.079028 1_565
Cu0 O13 2.399880 1_455
Cu0 O6 2.417114 1_555
Cu1 O2 1.888393 1_555
Cu1 O3 1.892285 1_445
Cu1 O1 2.040175 1_555
Cu1 O8 2.080781 1_555
Cu1 O15 2.399049 1_455
Cu1 O7 2.416763 1_555
Cu2 O4 1.912149 1_445
Cu2 O12 1.914865 1_555
Cu2 O11 2.148158 1_555
Cu2 O10 2.149510 1_555
Cu2 O5 2.202558 1_555
Cu2 O0 2.204245 1_545
O0 W0 1.941088 1_555
O1 W0 2.066478 1_555
O5 W0 1.941329 1_555
O6 W0 1.944166 1_555
O7 W0 1.944463 1_555
O8 W1 1.929710 1_554
O9 W0 1.991410 1_555
O10 W1 2.029332 1_555
O11 W1 2.031534 1_555
O13 W1 1.891522 1_554
O14 W1 2.054604 1_555
O15 W1 1.891761 1_554
