# generated using pymatgen
data_Na5LiCo2P2(CO7)2
_symmetry_space_group_name_H-M   'P 1'
_cell_length_a   5.20056032
_cell_length_b   6.65246581
_cell_length_c   8.86278051
_cell_angle_alpha   89.52564631
_cell_angle_beta   88.36004390
_cell_angle_gamma   90.05487871
_symmetry_Int_Tables_number   1
_chemical_formula_structural   Na5LiCo2P2(CO7)2
_chemical_formula_sum   'Na5 Li1 Co2 P2 C2 O14'
_cell_volume   306.48531170
_cell_formula_units_Z   1
loop_
 _symmetry_equiv_pos_site_id
 _symmetry_equiv_pos_as_xyz
  1  'x, y, z'
loop_
 _atom_site_type_symbol
 _atom_site_label
 _atom_site_symmetry_multiplicity
 _atom_site_fract_x
 _atom_site_fract_y
 _atom_site_fract_z
 _atom_site_occupancy
  Na  Na0  1  0.76734800  0.23891000  0.08203600  1
  Na  Na1  1  0.25589700  0.49314600  0.26880500  1
  Na  Na2  1  0.74509400  0.99431000  0.73246900  1
  Na  Na3  1  0.74668900  0.50805300  0.73095800  1
  Na  Na4  1  0.22553900  0.75380000  0.91808700  1
  Li  Li0  1  0.22870500  0.02035600  0.29098900  1
  Co  Co0  1  0.22286200  0.24864500  0.65071900  1
  Co  Co1  1  0.78133400  0.75547900  0.34493300  1
  P  P0  1  0.71779400  0.24685800  0.41274700  1
  P  P1  1  0.29501900  0.75561700  0.57980700  1
  C  C0  1  0.70926400  0.75158300  0.06128800  1
  C  C1  1  0.27945300  0.24199600  0.94337300  1
  O  O0  1  0.29630600  0.23063000  0.08847300  1
  O  O1  1  0.93728400  0.74567200  0.11829700  1
  O  O2  1  0.51128500  0.76311800  0.15441500  1
  O  O3  1  0.82558100  0.06951600  0.31591400  1
  O  O4  1  0.77443300  0.44051000  0.31739800  1
  O  O5  1  0.16311100  0.76616800  0.42552100  1
  O  O6  1  0.41872900  0.22327000  0.43685200  1
  O  O7  1  0.59334400  0.75757200  0.55320100  1
  O  O8  1  0.84666100  0.25336300  0.56767700  1
  O  O9  1  0.21932900  0.56265900  0.67230100  1
  O  O10  1  0.21633600  0.93594500  0.68304600  1
  O  O11  1  0.48420500  0.24682900  0.85457300  1
  O  O12  1  0.05642800  0.24926800  0.87933300  1
  O  O13  1  0.68197500  0.74672200  0.91679300  1
loop_
_geom_bond_atom_site_label_1
_geom_bond_atom_site_label_2
_geom_bond_distance
_geom_bond_site_symmetry_2
Na0 O12 2.309873 1_654
Na0 O3 2.378242 1_555
Na0 O0 2.449270 1_555
Na0 O4 2.490355 1_555
Na0 O11 2.530496 1_554
Na0 O0 2.753696 1_655
Na1 O5 2.337931 1_555
Na1 O0 2.382452 1_555
Na1 O2 2.430140 1_555
Na1 O6 2.487846 1_555
Na1 O4 2.551787 1_455
Na1 O1 2.727957 1_455
Na1 O4 2.765130 1_555
Na2 O8 2.300964 1_565
Na2 O13 2.326593 1_555
Na2 O7 2.395463 1_555
Na2 O11 2.405066 1_565
Na2 O10 2.508357 1_655
Na2 O12 2.710059 1_665
Na2 O10 2.823817 1_555
Na3 O8 2.287882 1_555
Na3 O13 2.315044 1_555
Na3 O7 2.429896 1_555
Na3 O11 2.441701 1_555
Na3 O9 2.523088 1_655
Na3 O12 2.716032 1_655
Na3 O9 2.829184 1_555
Na4 O1 2.290141 1_456
Na4 O13 2.373936 1_555
Na4 O10 2.402902 1_555
Na4 O9 2.532373 1_555
Na4 O2 2.603711 1_556
Na4 O13 2.827537 1_455
Li0 O5 2.083182 1_545
Li0 O3 2.127661 1_455
Li0 O6 2.137625 1_555
Li0 O0 2.285437 1_555
Li0 O2 2.547649 1_545
Co0 O10 2.097622 1_545
Co0 O9 2.099333 1_555
Co0 O8 2.110102 1_455
Co0 O6 2.133998 1_555
Co0 O12 2.180428 1_555
Co0 O11 2.291683 1_555
Co1 O7 2.064041 1_555
Co1 O4 2.111879 1_555
Co1 O3 2.114312 1_565
Co1 O5 2.130482 1_655
Co1 O1 2.146072 1_555
Co1 O2 2.227214 1_555
C0 O13 1.293164 1_554
C0 O1 1.302722 1_555
C0 O2 1.303746 1_555
C1 O0 1.293067 1_556
C1 O11 1.306073 1_555
C1 O12 1.306551 1_555
O3 P0 1.559832 1_555
O4 P0 1.558046 1_555
O5 P1 1.548387 1_555
O6 P0 1.571368 1_555
O7 P1 1.562614 1_555
O8 P0 1.545978 1_555
O9 P1 1.561355 1_555
O10 P1 1.562506 1_555
