# generated using pymatgen
data_Cr(PO3)2
_symmetry_space_group_name_H-M   'P 1'
_cell_length_a   5.01532936
_cell_length_b   6.91409296
_cell_length_c   13.52888229
_cell_angle_alpha   90.61755972
_cell_angle_beta   97.09160655
_cell_angle_gamma   103.97898346
_symmetry_Int_Tables_number   1
_chemical_formula_structural   Cr(PO3)2
_chemical_formula_sum   'Cr4 P8 O24'
_cell_volume   451.35568942
_cell_formula_units_Z   4
loop_
 _symmetry_equiv_pos_site_id
 _symmetry_equiv_pos_as_xyz
  1  'x, y, z'
loop_
 _atom_site_type_symbol
 _atom_site_label
 _atom_site_symmetry_multiplicity
 _atom_site_fract_x
 _atom_site_fract_y
 _atom_site_fract_z
 _atom_site_occupancy
  Cr  Cr0  1  0.69367300  0.88722300  0.94367900  1
  Cr  Cr1  1  0.80642800  0.11287800  0.55632800  1
  Cr  Cr2  1  0.19365500  0.88728800  0.44358100  1
  Cr  Cr3  1  0.30638500  0.11273700  0.05643300  1
  P  P0  1  0.16289400  0.37634200  0.40136000  1
  P  P1  1  0.66292200  0.37633600  0.90140800  1
  P  P2  1  0.57342000  0.19715200  0.31181800  1
  P  P3  1  0.07339800  0.19710500  0.81183000  1
  P  P4  1  0.92657200  0.80283900  0.18818000  1
  P  P5  1  0.42659300  0.80288300  0.68817100  1
  P  P6  1  0.33710100  0.62365600  0.09864000  1
  P  P7  1  0.83707200  0.62365900  0.59858900  1
  O  O0  1  0.13140500  0.20648400  0.47342900  1
  O  O1  1  0.63147900  0.20653400  0.97346300  1
  O  O2  1  0.55467400  0.05300900  0.39670500  1
  O  O3  1  0.05466700  0.05303900  0.89671300  1
  O  O4  1  0.94532400  0.94698400  0.10329200  1
  O  O5  1  0.44531800  0.94695000  0.60328800  1
  O  O6  1  0.36857800  0.79351300  0.02657100  1
  O  O7  1  0.86851500  0.79345800  0.52653500  1
  O  O8  1  0.25503800  0.58602300  0.44166500  1
  O  O9  1  0.75502000  0.58598700  0.94171300  1
  O  O10  1  0.52052700  0.11659400  0.20702300  1
  O  O11  1  0.02052600  0.11659900  0.70703600  1
  O  O12  1  0.97946500  0.88339600  0.29297400  1
  O  O13  1  0.47946600  0.88338800  0.79296500  1
  O  O14  1  0.24495400  0.41397700  0.05833200  1
  O  O15  1  0.74497000  0.41400700  0.55828600  1
  O  O16  1  0.87295100  0.35193400  0.32948200  1
  O  O17  1  0.37295400  0.35187600  0.82951000  1
  O  O18  1  0.36749300  0.34106100  0.32402900  1
  O  O19  1  0.86749900  0.34102600  0.82406300  1
  O  O20  1  0.13249600  0.65892800  0.17596800  1
  O  O21  1  0.63249100  0.65896300  0.67593500  1
  O  O22  1  0.62704100  0.64805800  0.17051700  1
  O  O23  1  0.12703700  0.64811200  0.67048800  1
loop_
_geom_bond_atom_site_label_1
_geom_bond_atom_site_label_2
_geom_bond_distance
_geom_bond_site_symmetry_2
Cr0 O6 2.071850 1_556
Cr0 O3 2.071946 1_665
Cr0 O9 2.178014 1_555
Cr0 O13 2.180953 1_555
Cr0 O1 2.340591 1_565
Cr0 O4 2.341471 1_556
Cr1 O0 2.071358 1_655
Cr1 O5 2.072632 1_545
Cr1 O15 2.177487 1_555
Cr1 O11 2.180770 1_655
Cr1 O7 2.341142 1_545
Cr1 O2 2.341811 1_555
Cr2 O2 2.071305 1_565
Cr2 O7 2.072670 1_455
Cr2 O8 2.178267 1_555
Cr2 O12 2.179610 1_455
Cr2 O0 2.340079 1_565
Cr2 O5 2.342555 1_555
Cr3 O4 2.071449 1_445
Cr3 O1 2.072601 1_554
Cr3 O14 2.178181 1_555
Cr3 O10 2.179347 1_555
Cr3 O6 2.340192 1_545
Cr3 O3 2.342820 1_554
O0 P0 1.525757 1_555
O1 P1 1.525342 1_555
O2 P2 1.525461 1_555
O3 P3 1.525076 1_555
O4 P4 1.525481 1_555
O5 P5 1.525080 1_555
O6 P6 1.525752 1_555
O7 P7 1.525318 1_555
O8 P0 1.486518 1_555
O9 P1 1.486325 1_555
O10 P2 1.486397 1_555
O11 P3 1.486272 1_555
O12 P4 1.486382 1_555
O13 P5 1.486269 1_555
O14 P6 1.486519 1_555
O15 P7 1.486323 1_555
O16 P2 1.608808 1_555
O16 P0 1.617847 1_655
O17 P3 1.608875 1_555
O17 P1 1.618036 1_555
O18 P0 1.608568 1_555
O18 P2 1.618345 1_555
O19 P1 1.608682 1_555
O19 P3 1.618348 1_655
O20 P6 1.608543 1_555
O20 P4 1.618346 1_455
O21 P7 1.608695 1_555
O21 P5 1.618346 1_555
O22 P4 1.608804 1_555
O22 P6 1.617833 1_555
O23 P5 1.608876 1_555
O23 P7 1.618037 1_455
