# generated using pymatgen
data_SmBO3
_symmetry_space_group_name_H-M   'P 1'
_cell_length_a   4.05241451
_cell_length_b   4.05241451
_cell_length_c   8.81102400
_cell_angle_alpha   90.00000000
_cell_angle_beta   90.00000000
_cell_angle_gamma   117.36994138
_symmetry_Int_Tables_number   1
_chemical_formula_structural   SmBO3
_chemical_formula_sum   'Sm2 B2 O6'
_cell_volume   128.49753616
_cell_formula_units_Z   2
loop_
 _symmetry_equiv_pos_site_id
 _symmetry_equiv_pos_as_xyz
  1  'x, y, z'
loop_
 _atom_site_type_symbol
 _atom_site_label
 _atom_site_symmetry_multiplicity
 _atom_site_fract_x
 _atom_site_fract_y
 _atom_site_fract_z
 _atom_site_occupancy
  Sm  Sm0  1  0.05605300  0.05605300  0.50000000  1
  Sm  Sm1  1  0.05605300  0.05605300  0.00000000  1
  B  B0  1  0.49920800  0.75668300  0.75000000  1
  B  B1  1  0.75668300  0.49920800  0.25000000  1
  O  O0  1  0.33234600  0.67519700  0.60691500  1
  O  O1  1  0.33234600  0.67519700  0.89308500  1
  O  O2  1  0.88022400  0.94775800  0.75000000  1
  O  O3  1  0.67519700  0.33234600  0.10691500  1
  O  O4  1  0.67519700  0.33234600  0.39308500  1
  O  O5  1  0.94775800  0.88022400  0.25000000  1
loop_
_geom_bond_atom_site_label_1
_geom_bond_atom_site_label_2
_geom_bond_distance
_geom_bond_site_symmetry_2
B0 O2 1.372705 1_555
B0 O1 1.396568 1_555
B0 O0 1.396568 1_555
B1 O5 1.372705 1_555
B1 O4 1.396568 1_555
B1 O3 1.396568 1_555
O0 Sm0 2.419351 1_555
O0 Sm0 2.472242 1_565
O0 Sm0 2.776452 1_665
O1 Sm1 2.419351 1_556
O1 Sm1 2.472242 1_566
O1 Sm1 2.776452 1_666
O2 Sm0 2.294540 1_665
O2 Sm1 2.294540 1_666
O3 Sm1 2.419351 1_555
O3 Sm1 2.472242 1_655
O3 Sm1 2.776452 1_665
O4 Sm0 2.419351 1_555
O4 Sm0 2.472242 1_655
O4 Sm0 2.776452 1_665
O5 Sm0 2.294540 1_665
O5 Sm1 2.294540 1_665
