# generated using pymatgen
data_Li4Mn2Cr3Co3O16
_symmetry_space_group_name_H-M   'P 1'
_cell_length_a   5.74605632
_cell_length_b   5.74605632
_cell_length_c   9.28373366
_cell_angle_alpha   89.85889219
_cell_angle_beta   89.85889219
_cell_angle_gamma   60.32211743
_symmetry_Int_Tables_number   1
_chemical_formula_structural   Li4Mn2Cr3Co3O16
_chemical_formula_sum   'Li4 Mn2 Cr3 Co3 O16'
_cell_volume   266.31267135
_cell_formula_units_Z   1
loop_
 _symmetry_equiv_pos_site_id
 _symmetry_equiv_pos_as_xyz
  1  'x, y, z'
loop_
 _atom_site_type_symbol
 _atom_site_label
 _atom_site_symmetry_multiplicity
 _atom_site_fract_x
 _atom_site_fract_y
 _atom_site_fract_z
 _atom_site_occupancy
  Li  Li0  1  0.33119100  0.33119100  0.10546700  1
  Li  Li1  1  0.00854600  0.00854600  0.00492300  1
  Li  Li2  1  0.00760500  0.00760500  0.50297600  1
  Li  Li3  1  0.66516600  0.66516600  0.59965700  1
  Mn  Mn0  1  0.33049500  0.33049500  0.51391300  1
  Mn  Mn1  1  0.66515300  0.66515300  0.01745100  1
  Cr  Cr0  1  0.65977900  0.17156200  0.78861800  1
  Cr  Cr1  1  0.17156200  0.65977900  0.78861800  1
  Cr  Cr2  1  0.83106100  0.83106100  0.29139600  1
  Co  Co0  1  0.17093600  0.17093600  0.78696500  1
  Co  Co1  1  0.83093300  0.34164100  0.28629600  1
  Co  Co2  1  0.34164100  0.83093300  0.28629600  1
  O  O0  1  0.66980400  0.16206000  0.39785200  1
  O  O1  1  0.47934100  0.47934100  0.65433600  1
  O  O2  1  0.33019800  0.33019800  0.89803400  1
  O  O3  1  0.00397500  0.00397500  0.69131300  1
  O  O4  1  0.00393100  0.00393100  0.19261400  1
  O  O5  1  0.16206000  0.66980400  0.39785200  1
  O  O6  1  0.47443500  0.03976100  0.65744800  1
  O  O7  1  0.03976100  0.47443500  0.65744800  1
  O  O8  1  0.83467500  0.83467500  0.90143300  1
  O  O9  1  0.16691300  0.16691300  0.39726400  1
  O  O10  1  0.95673600  0.52149400  0.15888100  1
  O  O11  1  0.52149400  0.95673600  0.15888100  1
  O  O12  1  0.66285400  0.66285400  0.39311700  1
  O  O13  1  0.83626700  0.33464800  0.90062500  1
  O  O14  1  0.51978800  0.51978800  0.16287500  1
  O  O15  1  0.33464800  0.83626700  0.90062500  1
loop_
_geom_bond_atom_site_label_1
_geom_bond_atom_site_label_2
_geom_bond_distance
_geom_bond_site_symmetry_2
Li0 O2 1.925806 1_554
Li0 O11 1.933582 1_545
Li0 O10 1.933582 1_455
Li0 O14 1.949725 1_555
Li1 O4 1.742946 1_555
Li1 O13 1.894093 1_454
Li1 O15 1.894093 1_544
Li1 O8 1.979203 1_444
Li2 O3 1.748740 1_555
Li2 O9 1.860096 1_555
Li2 O5 1.951128 1_545
Li2 O0 1.951128 1_455
Li3 O1 1.913521 1_555
Li3 O12 1.917665 1_555
Li3 O6 1.946484 1_565
Li3 O7 1.946484 1_655
Mn0 O9 1.955682 1_555
Mn0 O7 1.968955 1_555
Mn0 O6 1.968955 1_555
Mn0 O1 1.974298 1_555
Mn0 O5 2.006282 1_555
Mn0 O0 2.006282 1_555
Mn1 O10 1.961748 1_555
Mn1 O11 1.961748 1_555
Mn1 O14 1.974298 1_555
Mn1 O15 1.976232 1_554
Mn1 O13 1.976232 1_554
Mn1 O8 1.996754 1_554
Cr0 O2 1.932572 1_555
Cr0 O3 1.940221 1_655
Cr0 O8 1.980628 1_545
Cr0 O1 1.984063 1_555
Cr0 O13 1.984666 1_555
Cr0 O6 2.000077 1_555
Cr1 O2 1.932572 1_555
Cr1 O3 1.940221 1_565
Cr1 O8 1.980628 1_455
Cr1 O1 1.984063 1_555
Cr1 O15 1.984666 1_555
Cr1 O7 2.000077 1_555
Cr2 O12 1.917347 1_555
Cr2 O5 1.926737 1_655
Cr2 O0 1.926737 1_565
Cr2 O4 1.944857 1_665
Cr2 O10 1.983293 1_555
Cr2 O11 1.983293 1_555
Co0 O3 1.883914 1_555
Co0 O2 1.891229 1_555
Co0 O6 1.935885 1_555
Co0 O7 1.935885 1_555
Co0 O13 1.974822 1_455
Co0 O15 1.974822 1_545
Co1 O12 1.887318 1_555
Co1 O4 1.898421 1_655
Co1 O10 1.928549 1_555
Co1 O14 1.936282 1_555
Co1 O9 1.970205 1_655
Co1 O0 1.982585 1_555
Co2 O12 1.887318 1_555
Co2 O4 1.898421 1_565
Co2 O11 1.928549 1_555
Co2 O14 1.936282 1_555
Co2 O9 1.970205 1_565
Co2 O5 1.982585 1_555
