# generated using pymatgen
data_Ba3(ClO)2
_symmetry_space_group_name_H-M   'P 1'
_cell_length_a   6.34792700
_cell_length_b   10.79339300
_cell_length_c   12.63299900
_cell_angle_alpha   90.00000000
_cell_angle_beta   90.00000000
_cell_angle_gamma   90.00000000
_symmetry_Int_Tables_number   1
_chemical_formula_structural   Ba3(ClO)2
_chemical_formula_sum   'Ba12 Cl8 O8'
_cell_volume   865.55840129
_cell_formula_units_Z   4
loop_
 _symmetry_equiv_pos_site_id
 _symmetry_equiv_pos_as_xyz
  1  'x, y, z'
loop_
 _atom_site_type_symbol
 _atom_site_label
 _atom_site_symmetry_multiplicity
 _atom_site_fract_x
 _atom_site_fract_y
 _atom_site_fract_z
 _atom_site_occupancy
  Ba  Ba0  1  0.25000000  0.70205000  0.04681600  1
  Ba  Ba1  1  0.25000000  0.05866200  0.08238700  1
  Ba  Ba2  1  0.75000000  0.85884200  0.21322800  1
  Ba  Ba3  1  0.25000000  0.35884200  0.28677200  1
  Ba  Ba4  1  0.75000000  0.55866200  0.41761300  1
  Ba  Ba5  1  0.75000000  0.20205000  0.45318400  1
  Ba  Ba6  1  0.25000000  0.79795000  0.54681600  1
  Ba  Ba7  1  0.25000000  0.44133800  0.58238700  1
  Ba  Ba8  1  0.75000000  0.64115800  0.71322800  1
  Ba  Ba9  1  0.25000000  0.14115800  0.78677200  1
  Ba  Ba10  1  0.75000000  0.94133800  0.91761300  1
  Ba  Ba11  1  0.75000000  0.29795000  0.95318400  1
  Cl  Cl0  1  0.75000000  0.55771900  0.13469400  1
  Cl  Cl1  1  0.75000000  0.17745800  0.19543100  1
  Cl  Cl2  1  0.25000000  0.67745800  0.30456900  1
  Cl  Cl3  1  0.25000000  0.05771900  0.36530600  1
  Cl  Cl4  1  0.75000000  0.94228100  0.63469400  1
  Cl  Cl5  1  0.75000000  0.32254200  0.69543100  1
  Cl  Cl6  1  0.25000000  0.82254200  0.80456900  1
  Cl  Cl7  1  0.25000000  0.44228100  0.86530600  1
  O  O0  1  0.99989600  0.87223700  0.07269200  1
  O  O1  1  0.50010400  0.87223700  0.07269200  1
  O  O2  1  0.00010400  0.37223700  0.42730800  1
  O  O3  1  0.49989600  0.37223700  0.42730800  1
  O  O4  1  0.99989600  0.62776300  0.57269200  1
  O  O5  1  0.50010400  0.62776300  0.57269200  1
  O  O6  1  0.49989600  0.12776300  0.92730800  1
  O  O7  1  0.00010400  0.12776300  0.92730800  1
loop_
_geom_bond_atom_site_label_1
_geom_bond_atom_site_label_2
_geom_bond_distance
_geom_bond_site_symmetry_2
Ba0 O1 2.449826 1_555
Ba0 O0 2.449826 1_455
Ba0 Cl2 3.266994 1_555
Ba0 Cl6 3.325180 1_554
Ba0 Cl7 3.622037 1_554
Ba0 Cl0 3.705848 1_455
Ba0 Cl0 3.705848 1_555
Ba1 O0 2.566006 1_445
Ba1 O1 2.566006 1_545
Ba1 O6 2.628842 1_554
Ba1 O7 2.628842 1_554
Ba1 Cl3 3.574130 1_555
Ba1 Cl1 3.709115 1_555
Ba1 Cl1 3.709115 1_455
Ba2 O1 2.385232 1_555
Ba2 O0 2.385232 1_555
Ba2 Cl0 3.398191 1_555
Ba2 Cl1 3.446289 1_565
Ba2 Cl2 3.903631 1_655
Ba2 Cl2 3.903631 1_555
Ba3 O3 2.385232 1_555
Ba3 O2 2.385232 1_555
Ba3 Cl3 3.398191 1_555
Ba3 Cl2 3.446289 1_555
Ba3 Cl1 3.903631 1_455
Ba3 Cl1 3.903631 1_555
Ba4 O2 2.566006 1_655
Ba4 O3 2.566006 1_555
Ba4 O4 2.628842 1_555
Ba4 O5 2.628842 1_555
Ba4 Cl0 3.574130 1_555
Ba4 Cl2 3.709115 1_555
Ba4 Cl2 3.709115 1_655
Ba5 O2 2.449826 1_655
Ba5 O3 2.449826 1_555
Ba5 Cl1 3.266994 1_555
Ba5 Cl5 3.325180 1_555
Ba5 Cl4 3.622037 1_545
Ba5 Cl3 3.705848 1_655
Ba5 Cl3 3.705848 1_555
Ba6 O5 2.449826 1_555
Ba6 O4 2.449826 1_455
Ba6 Cl6 3.266994 1_555
Ba6 Cl2 3.325180 1_555
Ba6 Cl3 3.622037 1_565
Ba6 Cl4 3.705848 1_455
Ba6 Cl4 3.705848 1_555
Ba7 O5 2.566006 1_555
Ba7 O4 2.566006 1_455
Ba7 O3 2.628842 1_555
Ba7 O2 2.628842 1_555
Ba7 Cl7 3.574130 1_555
Ba7 Cl5 3.709115 1_555
Ba7 Cl5 3.709115 1_455
Ba8 O4 2.385232 1_555
Ba8 O5 2.385232 1_555
Ba8 Cl4 3.398191 1_555
Ba8 Cl5 3.446289 1_555
Ba8 Cl6 3.903631 1_555
Ba8 Cl6 3.903631 1_655
Ba9 O6 2.385232 1_555
Ba9 O7 2.385232 1_555
Ba9 Cl7 3.398191 1_555
Ba9 Cl6 3.446289 1_545
Ba9 Cl5 3.903631 1_455
Ba9 Cl5 3.903631 1_555
Ba10 O7 2.566006 1_665
Ba10 O6 2.566006 1_565
Ba10 O1 2.628842 1_556
Ba10 O0 2.628842 1_556
Ba10 Cl4 3.574130 1_555
Ba10 Cl6 3.709115 1_555
Ba10 Cl6 3.709115 1_655
Ba11 O7 2.449826 1_655
Ba11 O6 2.449826 1_555
Ba11 Cl5 3.266994 1_555
Ba11 Cl1 3.325180 1_556
Ba11 Cl0 3.622037 1_556
Ba11 Cl7 3.705848 1_655
Ba11 Cl7 3.705848 1_555
