# generated using pymatgen
data_Li12Mn3VP4(CO7)4
_symmetry_space_group_name_H-M   'P 1'
_cell_length_a   6.62103000
_cell_length_b   8.52927400
_cell_length_c   10.00008452
_cell_angle_alpha   85.44371267
_cell_angle_beta   90.00000000
_cell_angle_gamma   90.00000000
_symmetry_Int_Tables_number   1
_chemical_formula_structural   Li12Mn3VP4(CO7)4
_chemical_formula_sum   'Li12 Mn3 V1 P4 C4 O28'
_cell_volume   562.94588758
_cell_formula_units_Z   1
loop_
 _symmetry_equiv_pos_site_id
 _symmetry_equiv_pos_as_xyz
  1  'x, y, z'
loop_
 _atom_site_type_symbol
 _atom_site_label
 _atom_site_symmetry_multiplicity
 _atom_site_fract_x
 _atom_site_fract_y
 _atom_site_fract_z
 _atom_site_occupancy
  Li  Li0  1  0.00000000  0.90934600  0.62065300  1
  Li  Li1  1  0.00000000  0.90781600  0.12030800  1
  Li  Li2  1  0.22273000  0.72670000  0.87719600  1
  Li  Li3  1  0.77727000  0.72670000  0.87719600  1
  Li  Li4  1  0.22287200  0.72563600  0.37685100  1
  Li  Li5  1  0.77712800  0.72563600  0.37685100  1
  Li  Li6  1  0.72226200  0.27351700  0.62290200  1
  Li  Li7  1  0.27773800  0.27351700  0.62290200  1
  Li  Li8  1  0.72300000  0.27393400  0.12336700  1
  Li  Li9  1  0.27700000  0.27393400  0.12336700  1
  Li  Li10  1  0.50000000  0.09137000  0.87912000  1
  Li  Li11  1  0.50000000  0.09162400  0.37905000  1
  Mn  Mn0  1  0.50000000  0.65938700  0.61022700  1
  Mn  Mn1  1  0.50000000  0.65947200  0.11027400  1
  Mn  Mn2  1  0.00000000  0.34057200  0.89011700  1
  V  V0  1  0.00000000  0.33128500  0.39595200  1
  P  P0  1  0.00000000  0.59066800  0.63911100  1
  P  P1  1  0.00000000  0.58870700  0.14087700  1
  P  P2  1  0.50000000  0.40994900  0.86013700  1
  P  P3  1  0.50000000  0.41022600  0.35987100  1
  C  C0  1  0.50000000  0.96711600  0.64789100  1
  C  C1  1  0.50000000  0.96717500  0.14791200  1
  C  C2  1  0.00000000  0.03296500  0.85202700  1
  C  C3  1  0.00000000  0.03449400  0.35082600  1
  O  O0  1  0.50000000  0.93020500  0.52460900  1
  O  O1  1  0.00000000  0.88711600  0.82249100  1
  O  O2  1  0.50000000  0.93020900  0.02495800  1
  O  O3  1  0.50000000  0.85542100  0.74476100  1
  O  O4  1  0.00000000  0.88874400  0.32349000  1
  O  O5  1  0.50000000  0.85553300  0.24508200  1
  O  O6  1  0.18392000  0.69033000  0.58598700  1
  O  O7  1  0.81608000  0.69033000  0.58598700  1
  O  O8  1  0.18345500  0.68936700  0.08706400  1
  O  O9  1  0.81654500  0.68936700  0.08706400  1
  O  O10  1  0.50000000  0.57956000  0.90576800  1
  O  O11  1  0.00000000  0.57560500  0.79599700  1
  O  O12  1  0.50000000  0.57964200  0.40595100  1
  O  O13  1  0.00000000  0.57295100  0.29800800  1
  O  O14  1  0.50000000  0.42374900  0.70296200  1
  O  O15  1  0.00000000  0.42176300  0.59214000  1
  O  O16  1  0.50000000  0.42400700  0.20291200  1
  O  O17  1  0.00000000  0.42066000  0.09257000  1
  O  O18  1  0.31617200  0.31050100  0.91361600  1
  O  O19  1  0.68382800  0.31050100  0.91361600  1
  O  O20  1  0.68318900  0.31034800  0.41371400  1
  O  O21  1  0.31681100  0.31034800  0.41371400  1
  O  O22  1  0.00000000  0.14463500  0.75483600  1
  O  O23  1  0.50000000  0.11289700  0.67725200  1
  O  O24  1  0.00000000  0.14645900  0.25425700  1
  O  O25  1  0.00000000  0.06987000  0.97503700  1
  O  O26  1  0.50000000  0.11303400  0.17745500  1
  O  O27  1  0.00000000  0.07510200  0.47371500  1
loop_
_geom_bond_atom_site_label_1
_geom_bond_atom_site_label_2
_geom_bond_distance
_geom_bond_site_symmetry_2
Li0 O27 1.956485 1_565
Li0 O1 2.012231 1_555
Li0 O7 2.279376 1_455
Li0 O6 2.279376 1_555
Li0 O22 2.501159 1_565
Li1 O25 1.924024 1_564
Li1 O4 2.025417 1_555
Li1 O9 2.270658 1_455
Li1 O8 2.270658 1_555
Li1 O24 2.523986 1_565
Li2 O1 2.056005 1_555
Li2 O8 2.113616 1_556
Li2 O11 2.158974 1_555
Li2 O10 2.229326 1_555
Li2 O3 2.469516 1_555
Li3 O1 2.056005 1_655
Li3 O9 2.113616 1_556
Li3 O11 2.158974 1_655
Li3 O10 2.229326 1_555
Li3 O3 2.469516 1_555
Li4 O4 2.068753 1_555
Li4 O6 2.104994 1_555
Li4 O13 2.158297 1_555
Li4 O12 2.223612 1_555
Li4 O5 2.469544 1_555
Li5 O4 2.068753 1_655
Li5 O7 2.104994 1_555
Li5 O13 2.158297 1_655
Li5 O12 2.223612 1_555
Li5 O5 2.469544 1_555
Li6 O23 2.054152 1_555
Li6 O20 2.106476 1_555
Li6 O14 2.147437 1_555
Li6 O15 2.239021 1_655
Li6 O22 2.469869 1_655
Li7 O23 2.054152 1_555
Li7 O21 2.106476 1_555
Li7 O14 2.147437 1_555
Li7 O15 2.239021 1_555
Li7 O22 2.469869 1_555
Li8 O26 2.058645 1_555
Li8 O19 2.111925 1_554
Li8 O16 2.147784 1_555
Li8 O17 2.227876 1_655
Li8 O24 2.456206 1_655
Li9 O26 2.058645 1_555
Li9 O18 2.111925 1_554
Li9 O16 2.147784 1_555
Li9 O17 2.227876 1_555
Li9 O24 2.456206 1_555
Li10 O2 1.922992 1_546
Li10 O23 2.012452 1_555
Li10 O19 2.279497 1_555
Li10 O18 2.279497 1_555
Li10 O3 2.506973 1_545
Li11 O0 1.922478 1_545
Li11 O26 2.009722 1_555
Li11 O21 2.274716 1_555
Li11 O20 2.274716 1_555
Li11 O5 2.505654 1_545
Mn0 O6 2.120839 1_555
Mn0 O7 2.120839 1_555
Mn0 O14 2.145520 1_555
Mn0 O12 2.203705 1_555
Mn0 O3 2.227787 1_555
Mn0 O0 2.398832 1_555
Mn1 O8 2.121813 1_555
Mn1 O9 2.121813 1_555
Mn1 O16 2.143841 1_555
Mn1 O10 2.206438 1_554
Mn1 O5 2.229790 1_555
Mn1 O2 2.397341 1_555
Mn2 O18 2.119832 1_555
Mn2 O19 2.119832 1_455
Mn2 O11 2.145872 1_555
Mn2 O17 2.187493 1_556
Mn2 O22 2.232091 1_555
Mn2 O25 2.395959 1_555
C0 O0 1.296398 1_555
C0 O23 1.300104 1_565
C0 O3 1.303598 1_555
C1 O2 1.293366 1_555
C1 O26 1.301302 1_565
C1 O5 1.305352 1_555
C2 O25 1.293743 1_555
C2 O1 1.301198 1_545
C2 O22 1.305656 1_555
C3 O4 1.293878 1_545
C3 O27 1.302990 1_555
C3 O24 1.303089 1_555
O6 P0 1.554330 1_555
O7 P0 1.554330 1_655
O8 P1 1.558431 1_555
O9 P1 1.558431 1_655
O10 P2 1.551104 1_555
O11 P0 1.563920 1_555
O12 P3 1.551174 1_555
O13 P1 1.566387 1_555
O13 V0 2.210714 1_555
O14 P2 1.566812 1_555
O15 P0 1.550347 1_555
O15 V0 2.164514 1_555
O16 P3 1.564659 1_555
O17 P1 1.548473 1_555
O18 P2 1.553968 1_555
O19 P2 1.553968 1_555
O20 P3 1.553665 1_555
O20 V0 2.111490 1_655
O21 P3 1.553665 1_555
O21 V0 2.111490 1_555
O24 V0 2.201774 1_555
O27 V0 2.260359 1_555
