# generated using pymatgen
data_Co4NiO8
_symmetry_space_group_name_H-M   'P 1'
_cell_length_a   5.63162984
_cell_length_b   5.63162984
_cell_length_c   5.88420717
_cell_angle_alpha   60.60600608
_cell_angle_beta   60.60600608
_cell_angle_gamma   59.78757355
_symmetry_Int_Tables_number   1
_chemical_formula_structural   Co4NiO8
_chemical_formula_sum   'Co4 Ni1 O8'
_cell_volume   132.93659982
_cell_formula_units_Z   1
loop_
 _symmetry_equiv_pos_site_id
 _symmetry_equiv_pos_as_xyz
  1  'x, y, z'
loop_
 _atom_site_type_symbol
 _atom_site_label
 _atom_site_symmetry_multiplicity
 _atom_site_fract_x
 _atom_site_fract_y
 _atom_site_fract_z
 _atom_site_occupancy
  Co  Co0  1  0.50000000  0.50000000  0.50000000  1
  Co  Co1  1  0.00000000  0.00000000  0.00000000  1
  Co  Co2  1  0.50000000  0.00000000  0.00000000  1
  Co  Co3  1  0.00000000  0.50000000  0.00000000  1
  Ni  Ni0  1  0.50000000  0.50000000  0.00000000  1
  O  O0  1  0.26732100  0.26732100  0.19556800  1
  O  O1  1  0.75093800  0.27800100  0.20516000  1
  O  O2  1  0.27800100  0.75093800  0.20516000  1
  O  O3  1  0.75912500  0.75912500  0.20616300  1
  O  O4  1  0.24087500  0.24087500  0.79383700  1
  O  O5  1  0.72199900  0.24906200  0.79484000  1
  O  O6  1  0.24906200  0.72199900  0.79484000  1
  O  O7  1  0.73267900  0.73267900  0.80443200  1
loop_
_geom_bond_atom_site_label_1
_geom_bond_atom_site_label_2
_geom_bond_distance
_geom_bond_site_symmetry_2
Co0 O3 2.106707 1_555
Co0 O4 2.106707 1_555
Co0 O2 2.124700 1_555
Co0 O1 2.124700 1_555
Co0 O5 2.124700 1_555
Co0 O6 2.124700 1_555
Co1 O4 1.942456 1_554
Co1 O3 1.942456 1_445
Co1 O5 1.964406 1_454
Co1 O6 1.964406 1_544
Co1 O2 1.964406 1_545
Co1 O1 1.964406 1_455
Co2 O0 1.882213 1_555
Co2 O7 1.882213 1_544
Co2 O3 1.889826 1_545
Co2 O4 1.889826 1_554
Co2 O5 1.899710 1_554
Co2 O2 1.899710 1_545
Co3 O0 1.882213 1_555
Co3 O7 1.882213 1_454
Co3 O3 1.889826 1_455
Co3 O4 1.889826 1_554
Co3 O6 1.899710 1_554
Co3 O1 1.899710 1_455
Ni0 O1 1.852698 1_555
Ni0 O2 1.852698 1_555
Ni0 O6 1.852698 1_554
Ni0 O5 1.852698 1_554
Ni0 O7 1.877765 1_554
Ni0 O0 1.877765 1_555
