# generated using pymatgen
data_Li3V2O6
_symmetry_space_group_name_H-M   'P 1'
_cell_length_a   5.03865117
_cell_length_b   5.03865117
_cell_length_c   5.09531467
_cell_angle_alpha   79.66038468
_cell_angle_beta   79.66038468
_cell_angle_gamma   119.28753748
_symmetry_Int_Tables_number   1
_chemical_formula_structural   Li3V2O6
_chemical_formula_sum   'Li3 V2 O6'
_cell_volume   105.46955156
_cell_formula_units_Z   1
loop_
 _symmetry_equiv_pos_site_id
 _symmetry_equiv_pos_as_xyz
  1  'x, y, z'
loop_
 _atom_site_type_symbol
 _atom_site_label
 _atom_site_symmetry_multiplicity
 _atom_site_fract_x
 _atom_site_fract_y
 _atom_site_fract_z
 _atom_site_occupancy
  Li  Li0  1  0.00000000  0.00000000  0.00000000  1
  Li  Li1  1  0.34576700  0.65423300  0.00000000  1
  Li  Li2  1  0.65423300  0.34576700  0.00000000  1
  V  V0  1  0.16583900  0.83416100  0.50000000  1
  V  V1  1  0.83416100  0.16583900  0.50000000  1
  O  O0  1  0.80247000  0.80247000  0.73265100  1
  O  O1  1  0.19753000  0.19753000  0.26734900  1
  O  O2  1  0.57500900  0.96217500  0.27429600  1
  O  O3  1  0.03782500  0.42499100  0.72570400  1
  O  O4  1  0.96217500  0.57500900  0.27429600  1
  O  O5  1  0.42499100  0.03782500  0.72570400  1
loop_
_geom_bond_atom_site_label_1
_geom_bond_atom_site_label_2
_geom_bond_distance
_geom_bond_site_symmetry_2
Li0 O1 1.959857 1_555
Li0 O0 1.959857 1_444
Li0 O4 2.237398 1_445
Li0 O3 2.237398 1_554
Li0 O2 2.237398 1_445
Li0 O5 2.237398 1_554
Li1 O5 1.980798 1_564
Li1 O4 1.980798 1_455
Li1 O1 2.129977 1_555
Li1 O0 2.129977 1_554
Li1 O3 2.302064 1_554
Li1 O2 2.302064 1_555
Li2 O3 1.980798 1_654
Li2 O2 1.980798 1_545
Li2 O1 2.129977 1_555
Li2 O0 2.129977 1_554
Li2 O4 2.302064 1_555
Li2 O5 2.302064 1_554
O0 V1 1.910450 1_565
O0 V0 1.910450 1_655
O1 V1 1.910450 1_455
O1 V0 1.910450 1_545
O2 V0 1.889614 1_555
O2 V1 1.931934 1_565
O3 V0 1.889614 1_555
O3 V1 1.931934 1_455
O4 V1 1.889614 1_555
O4 V0 1.931934 1_655
O5 V1 1.889614 1_555
O5 V0 1.931934 1_545
