# generated using pymatgen
data_Sn2P2O7
_symmetry_space_group_name_H-M   'P 1'
_cell_length_a   7.14499700
_cell_length_b   7.30133696
_cell_length_c   7.30575228
_cell_angle_alpha   81.65448278
_cell_angle_beta   80.76935059
_cell_angle_gamma   62.64931617
_symmetry_Int_Tables_number   1
_chemical_formula_structural   Sn2P2O7
_chemical_formula_sum   'Sn4 P4 O14'
_cell_volume   333.02601805
_cell_formula_units_Z   2
loop_
 _symmetry_equiv_pos_site_id
 _symmetry_equiv_pos_as_xyz
  1  'x, y, z'
loop_
 _atom_site_type_symbol
 _atom_site_label
 _atom_site_symmetry_multiplicity
 _atom_site_fract_x
 _atom_site_fract_y
 _atom_site_fract_z
 _atom_site_occupancy
  Sn  Sn0  1  0.09280000  0.23999000  0.17172500  1
  Sn  Sn1  1  0.29745500  0.62019100  0.32761300  1
  Sn  Sn2  1  0.70254500  0.37980900  0.67238700  1
  Sn  Sn3  1  0.90720000  0.76001000  0.82827500  1
  P  P0  1  0.21741000  0.25176400  0.66416600  1
  P  P1  1  0.64453400  0.17439200  0.14507300  1
  P  P2  1  0.35546600  0.82560800  0.85492700  1
  P  P3  1  0.78259000  0.74823600  0.33583400  1
  O  O0  1  0.08857400  0.22870100  0.52702700  1
  O  O1  1  0.06140200  0.36353000  0.83251200  1
  O  O2  1  0.38434200  0.02430500  0.74437400  1
  O  O3  1  0.41458000  0.34647100  0.14153100  1
  O  O4  1  0.35917500  0.35447400  0.57698900  1
  O  O5  1  0.24908700  0.88866600  0.05100500  1
  O  O6  1  0.22652900  0.76930200  0.74427900  1
  O  O7  1  0.77347100  0.23069800  0.25572100  1
  O  O8  1  0.75091300  0.11133400  0.94899500  1
  O  O9  1  0.64082500  0.64552600  0.42301100  1
  O  O10  1  0.58542000  0.65352900  0.85846900  1
  O  O11  1  0.61565800  0.97569500  0.25562600  1
  O  O12  1  0.93859800  0.63647000  0.16748800  1
  O  O13  1  0.91142600  0.77129900  0.47297300  1
loop_
_geom_bond_atom_site_label_1
_geom_bond_atom_site_label_2
_geom_bond_distance
_geom_bond_site_symmetry_2
O0 P0 1.538454 1_555
O0 Sn2 2.560620 1_455
O0 Sn0 2.580823 1_555
O1 P0 1.561014 1_555
O1 Sn0 2.519719 1_556
O1 Sn3 2.578597 1_455
O2 P0 1.626555 1_555
O2 P2 1.637384 1_545
O3 P1 1.544707 1_555
O3 Sn1 2.330124 1_555
O3 Sn0 2.714588 1_555
O4 P0 1.531786 1_555
O4 Sn1 2.392327 1_555
O4 Sn2 2.746274 1_555
O5 P2 1.536987 1_554
O5 Sn0 2.512657 1_565
O5 Sn1 2.548990 1_555
O6 P2 1.534462 1_555
O6 Sn3 2.295182 1_455
O7 P1 1.534462 1_555
O7 Sn0 2.295182 1_655
O8 P1 1.536987 1_556
O8 Sn3 2.512657 1_545
O8 Sn2 2.548990 1_555
O9 P3 1.531786 1_555
O9 Sn2 2.392327 1_555
O9 Sn1 2.746274 1_555
O10 P2 1.544707 1_555
O10 Sn2 2.330124 1_555
O10 Sn3 2.714588 1_555
O11 P3 1.626555 1_555
O11 P1 1.637384 1_565
O12 P3 1.561014 1_555
O12 Sn3 2.519719 1_554
O12 Sn0 2.578597 1_655
O13 P3 1.538454 1_555
O13 Sn1 2.560620 1_655
O13 Sn3 2.580823 1_555
