# generated using pymatgen
data_Li3MnV(PO4)3
_symmetry_space_group_name_H-M   'P 1'
_cell_length_a   12.03685681
_cell_length_b   10.44740651
_cell_length_c   10.31825607
_cell_angle_alpha   70.84901705
_cell_angle_beta   55.07645324
_cell_angle_gamma   54.07452971
_symmetry_Int_Tables_number   1
_chemical_formula_structural   Li3MnV(PO4)3
_chemical_formula_sum   'Li12 Mn4 V4 P12 O48'
_cell_volume   861.45954458
_cell_formula_units_Z   4
loop_
 _symmetry_equiv_pos_site_id
 _symmetry_equiv_pos_as_xyz
  1  'x, y, z'
loop_
 _atom_site_type_symbol
 _atom_site_label
 _atom_site_symmetry_multiplicity
 _atom_site_fract_x
 _atom_site_fract_y
 _atom_site_fract_z
 _atom_site_occupancy
  Li  Li0  1  0.00479100  0.36848200  0.87292000  1
  Li  Li1  1  0.37708000  0.49619200  0.24520900  1
  Li  Li2  1  0.50000000  0.50000000  0.50000000  1
  Li  Li3  1  0.36848200  0.00479100  0.75380800  1
  Li  Li4  1  0.25000000  0.25000000  0.25000000  1
  Li  Li5  1  0.49619200  0.37708000  0.88151800  1
  Li  Li6  1  0.75380800  0.87292000  0.36848200  1
  Li  Li7  1  0.00000000  0.00000000  0.00000000  1
  Li  Li8  1  0.88151800  0.24520900  0.49619200  1
  Li  Li9  1  0.75000000  0.75000000  0.75000000  1
  Li  Li10  1  0.87292000  0.75380800  0.00479100  1
  Li  Li11  1  0.24520900  0.88151800  0.37708000  1
  Mn  Mn0  1  0.12500000  0.62500000  0.12500000  1
  Mn  Mn1  1  0.12500000  0.12500000  0.12500000  1
  Mn  Mn2  1  0.62500000  0.12500000  0.12500000  1
  Mn  Mn3  1  0.12500000  0.12500000  0.62500000  1
  V  V0  1  0.12500000  0.62500000  0.62500000  1
  V  V1  1  0.62500000  0.62500000  0.12500000  1
  V  V2  1  0.62500000  0.62500000  0.62500000  1
  V  V3  1  0.62500000  0.12500000  0.62500000  1
  P  P0  1  0.99913200  0.50086800  0.50086800  1
  P  P1  1  0.87250000  0.50192300  0.25200200  1
  P  P2  1  0.37357600  0.25200200  0.50192300  1
  P  P3  1  0.25200200  0.37357600  0.87250000  1
  P  P4  1  0.74807700  0.37750000  0.87642400  1
  P  P5  1  0.74913200  0.25086800  0.25086800  1
  P  P6  1  0.50086800  0.99913200  0.99913200  1
  P  P7  1  0.99799800  0.87642400  0.37750000  1
  P  P8  1  0.50192300  0.87250000  0.37357600  1
  P  P9  1  0.87642400  0.99799800  0.74807700  1
  P  P10  1  0.37750000  0.74807700  0.99799800  1
  P  P11  1  0.25086800  0.74913200  0.74913200  1
  O  O0  1  0.73964200  0.51638000  0.92014300  1
  O  O1  1  0.12650900  0.50950000  0.33279000  1
  O  O2  1  0.34063100  0.61857000  0.03147700  1
  O  O3  1  0.00664000  0.53877000  0.63159000  1
  O  O4  1  0.82728000  0.53335900  0.12252900  1
  O  O5  1  0.12252900  0.51683200  0.82728000  1
  O  O6  1  0.32985700  0.42616600  0.51035800  1
  O  O7  1  0.24067700  0.21852300  0.63143000  1
  O  O8  1  0.41436000  0.24472700  0.33172500  1
  O  O9  1  0.61857000  0.34063100  0.00932300  1
  O  O10  1  0.00918800  0.33172500  0.24472700  1
  O  O11  1  0.42700000  0.61841000  0.71123000  1
  O  O12  1  0.61841000  0.42700000  0.24336000  1
  O  O13  1  0.24472700  0.41436000  0.00918800  1
  O  O14  1  0.21852300  0.24067700  0.90936900  1
  O  O15  1  0.42616600  0.32985700  0.73362000  1
  O  O16  1  0.03120200  0.33279000  0.50950000  1
  O  O17  1  0.73362000  0.51035800  0.42616600  1
  O  O18  1  0.51683200  0.12252900  0.53335900  1
  O  O19  1  0.91827500  0.24081200  0.83564000  1
  O  O20  1  0.74050000  0.12349100  0.21879800  1
  O  O21  1  0.71123000  0.24336000  0.42700000  1
  O  O22  1  0.33279000  0.03120200  0.12650900  1
  O  O23  1  0.71664100  0.42272000  0.73316800  1
  O  O24  1  0.53335900  0.82728000  0.51683200  1
  O  O25  1  0.91721000  0.21879800  0.12349100  1
  O  O26  1  0.53877000  0.00664000  0.82300000  1
  O  O27  1  0.50950000  0.12650900  0.03120200  1
  O  O28  1  0.33172500  0.00918800  0.41436000  1
  O  O29  1  0.73316800  0.12747100  0.71664100  1
  O  O30  1  0.51638000  0.73964200  0.82383400  1
  O  O31  1  0.21879800  0.91721000  0.74050000  1
  O  O32  1  0.82383400  0.92014300  0.51638000  1
  O  O33  1  0.03147700  0.00932300  0.34063100  1
  O  O34  1  0.00527300  0.83564000  0.24081200  1
  O  O35  1  0.63159000  0.82300000  0.00664000  1
  O  O36  1  0.82300000  0.63159000  0.53877000  1
  O  O37  1  0.24081200  0.91827500  0.00527300  1
  O  O38  1  0.63143000  0.90936900  0.24067700  1
  O  O39  1  0.83564000  0.00527300  0.91827500  1
  O  O40  1  0.00932300  0.03147700  0.61857000  1
  O  O41  1  0.92014300  0.82383400  0.73964200  1
  O  O42  1  0.12747100  0.73316800  0.42272000  1
  O  O43  1  0.42272000  0.71664100  0.12747100  1
  O  O44  1  0.24336000  0.71123000  0.61841000  1
  O  O45  1  0.90936900  0.63143000  0.21852300  1
  O  O46  1  0.12349100  0.74050000  0.91721000  1
  O  O47  1  0.51035800  0.73362000  0.32985700  1
loop_
_geom_bond_atom_site_label_1
_geom_bond_atom_site_label_2
_geom_bond_distance
_geom_bond_site_symmetry_2
Li0 O14 2.300052 1_555
Li0 O19 2.331688 1_455
Li0 O0 2.395313 1_455
Li0 O7 2.442536 1_555
Li0 O5 2.442699 1_555
Li0 O25 2.530309 1_456
Li0 O3 2.538221 1_555
Li0 O4 2.541049 1_456
Li1 O2 2.300055 1_555
Li1 O8 2.331678 1_555
Li1 O6 2.395312 1_555
Li1 O9 2.442530 1_555
Li1 O43 2.442708 1_555
Li1 O1 2.530298 1_555
Li1 O12 2.538225 1_555
Li1 O42 2.541054 1_555
Li2 O12 2.313767 1_555
Li2 O21 2.313767 1_555
Li2 O44 2.313767 1_555
Li2 O11 2.313767 1_555
Li2 O6 2.519878 1_555
Li2 O15 2.519883 1_555
Li2 O47 2.519886 1_555
Li2 O17 2.519889 1_555
Li3 O7 2.300065 1_555
Li3 O37 2.331681 1_546
Li3 O30 2.395306 1_545
Li3 O14 2.442524 1_555
Li3 O18 2.442702 1_555
Li3 O31 2.530321 1_545
Li3 O26 2.538214 1_555
Li3 O24 2.541057 1_545
Li4 O22 2.371921 1_555
Li4 O27 2.371926 1_555
Li4 O16 2.371927 1_555
Li4 O1 2.371930 1_555
Li4 O13 2.525838 1_555
Li4 O10 2.525838 1_555
Li4 O8 2.525838 1_555
Li4 O28 2.525838 1_555
Li5 O9 2.300073 1_556
Li5 O13 2.331677 1_556
Li5 O15 2.395293 1_555
Li5 O2 2.442541 1_556
Li5 O23 2.442709 1_555
Li5 O27 2.530305 1_556
Li5 O11 2.538220 1_555
Li5 O29 2.541050 1_555
Li6 O38 2.300073 1_555
Li6 O34 2.331677 1_655
Li6 O32 2.395293 1_555
Li6 O45 2.442541 1_555
Li6 O24 2.442709 1_555
Li6 O20 2.530305 1_565
Li6 O36 2.538220 1_555
Li6 O18 2.541050 1_565
Li7 O25 2.371921 1_455
Li7 O20 2.371926 1_455
Li7 O31 2.371927 1_544
Li7 O46 2.371930 1_544
Li7 O37 2.525838 1_545
Li7 O39 2.525838 1_454
Li7 O19 2.525838 1_454
Li7 O34 2.525838 1_545
Li8 O40 2.300065 1_655
Li8 O10 2.331681 1_655
Li8 O17 2.395306 1_555
Li8 O33 2.442524 1_655
Li8 O29 2.442702 1_555
Li8 O16 2.530321 1_655
Li8 O21 2.538214 1_555
Li8 O23 2.541057 1_555
Li9 O35 2.313767 1_556
Li9 O26 2.313767 1_565
Li9 O3 2.313767 1_655
Li9 O36 2.313767 1_555
Li9 O41 2.519878 1_555
Li9 O32 2.519883 1_555
Li9 O0 2.519886 1_555
Li9 O30 2.519889 1_555
Li10 O45 2.300055 1_555
Li10 O39 2.331678 1_564
Li10 O41 2.395312 1_554
Li10 O38 2.442530 1_555
Li10 O4 2.442708 1_555
Li10 O46 2.530298 1_654
Li10 O35 2.538225 1_555
Li10 O5 2.541054 1_654
Li11 O33 2.300052 1_565
Li11 O28 2.331688 1_565
Li11 O47 2.395313 1_555
Li11 O40 2.442536 1_565
Li11 O42 2.442699 1_555
Li11 O22 2.530309 1_565
Li11 O44 2.538221 1_555
Li11 O43 2.541049 1_555
Mn0 O1 2.091568 1_555
Mn0 O46 2.091568 1_554
Mn0 O13 2.092783 1_555
Mn0 O34 2.092783 1_555
Mn0 O2 2.154675 1_555
Mn0 O45 2.154675 1_455
Mn1 O22 2.091571 1_555
Mn1 O25 2.091571 1_455
Mn1 O10 2.092783 1_555
Mn1 O37 2.092783 1_545
Mn1 O14 2.154670 1_554
Mn1 O33 2.154670 1_555
Mn2 O27 2.091560 1_555
Mn2 O20 2.091560 1_555
Mn2 O8 2.092783 1_555
Mn2 O39 2.092783 1_554
Mn2 O38 2.154673 1_545
Mn2 O9 2.154673 1_555
Mn3 O16 2.091565 1_555
Mn3 O31 2.091565 1_545
Mn3 O28 2.092783 1_555
Mn3 O19 2.092783 1_455
Mn3 O40 2.154664 1_555
Mn3 O7 2.154664 1_555
O0 P4 1.588443 1_555
O0 V1 2.014085 1_556
O1 P0 1.543290 1_455
O2 P10 1.539265 1_554
O3 P0 1.586280 1_455
O3 V0 2.049615 1_555
O4 P1 1.588641 1_555
O4 V1 2.013719 1_555
O5 P3 1.588638 1_555
O5 V0 2.013719 1_555
O6 P2 1.588443 1_555
O6 V0 2.014080 1_555
O7 P2 1.539281 1_555
O8 P2 1.545162 1_555
O9 P4 1.539269 1_554
O10 P1 1.545157 1_455
O11 P11 1.586280 1_555
O11 V2 2.049615 1_555
O12 P5 1.586280 1_555
O12 V1 2.049615 1_555
O13 P3 1.545152 1_554
O14 P3 1.539285 1_555
O15 P3 1.588443 1_555
O15 V3 2.014082 1_555
O16 P0 1.543285 1_455
O17 P1 1.588443 1_555
O17 V2 2.014077 1_555
O18 P2 1.588633 1_555
O18 V3 2.013719 1_555
O19 P4 1.545159 1_555
O20 P5 1.543295 1_555
O21 P5 1.586280 1_555
O21 V3 2.049615 1_555
O22 P6 1.543287 1_544
O23 P4 1.588631 1_555
O23 V2 2.013719 1_555
O24 P8 1.588631 1_555
O24 V2 2.013719 1_555
O25 P5 1.543287 1_555
O26 P6 1.586280 1_545
O26 V3 2.049615 1_555
O27 P6 1.543295 1_544
O28 P8 1.545159 1_545
O29 P9 1.588633 1_545
O29 V3 2.013719 1_555
O30 P10 1.588443 1_555
O30 V2 2.014077 1_555
O31 P11 1.543285 1_555
O32 P7 1.588443 1_555
O32 V3 2.014082 1_565
O33 P7 1.539285 1_445
O34 P7 1.545152 1_455
O35 P6 1.586280 1_554
O35 V1 2.049615 1_555
O36 P0 1.586280 1_555
O36 V2 2.049615 1_555
O37 P10 1.545157 1_554
O38 P8 1.539269 1_555
O39 P9 1.545162 1_545
O40 P9 1.539281 1_445
O41 P9 1.588443 1_555
O41 V0 2.014080 1_655
O42 P7 1.588638 1_455
O42 V0 2.013719 1_555
O43 P10 1.588641 1_554
O43 V1 2.013719 1_555
O44 P11 1.586280 1_555
O44 V0 2.049615 1_555
O45 P1 1.539265 1_555
O46 P11 1.543290 1_555
O47 P8 1.588443 1_555
O47 V1 2.014085 1_555
