# generated using pymatgen
data_Li5Co9(P2O7)8
_symmetry_space_group_name_H-M   'P 1'
_cell_length_a   10.71074798
_cell_length_b   9.62331804
_cell_length_c   12.62677834
_cell_angle_alpha   83.37091466
_cell_angle_beta   65.42450339
_cell_angle_gamma   108.65587955
_symmetry_Int_Tables_number   1
_chemical_formula_structural   Li5Co9(P2O7)8
_chemical_formula_sum   'Li5 Co9 P16 O56'
_cell_volume   1073.75243681
_cell_formula_units_Z   1
loop_
 _symmetry_equiv_pos_site_id
 _symmetry_equiv_pos_as_xyz
  1  'x, y, z'
loop_
 _atom_site_type_symbol
 _atom_site_label
 _atom_site_symmetry_multiplicity
 _atom_site_fract_x
 _atom_site_fract_y
 _atom_site_fract_z
 _atom_site_occupancy
  Li  Li0  1  0.79691100  0.14268400  0.68378200  1
  Li  Li1  1  0.49259700  0.05123300  0.91401900  1
  Li  Li2  1  0.46837200  0.07249600  0.42481900  1
  Li  Li3  1  0.98571100  0.55818100  0.41201100  1
  Li  Li4  1  0.32990500  0.64940800  0.16653100  1
  Co  Co0  1  0.00099700  0.99882500  0.00236700  1
  Co  Co1  1  0.29422100  0.69217400  0.92275200  1
  Co  Co2  1  0.80733600  0.20223300  0.41571000  1
  Co  Co3  1  0.44477700  0.44632700  0.31771500  1
  Co  Co4  1  0.55628400  0.55592600  0.68952200  1
  Co  Co5  1  0.93966500  0.93365900  0.80206500  1
  Co  Co6  1  0.19125400  0.78811900  0.58170200  1
  Co  Co7  1  0.70570300  0.30513200  0.07314100  1
  Co  Co8  1  0.06202900  0.06066800  0.20120500  1
  P  P0  1  0.40869100  0.20919500  0.13120800  1
  P  P1  1  0.08239300  0.29184600  0.37331000  1
  P  P2  1  0.23355500  0.53407600  0.72729500  1
  P  P3  1  0.44857800  0.76801000  0.33824500  1
  P  P4  1  0.58839600  0.78869000  0.86967600  1
  P  P5  1  0.72788600  0.03711100  0.22813900  1
  P  P6  1  0.95466800  0.25983900  0.84159100  1
  P  P7  1  0.77245400  0.45659600  0.26894800  1
  P  P8  1  0.31526800  0.36877100  0.98400700  1
  P  P9  1  0.90224700  0.71088900  0.63011100  1
  P  P10  1  0.18257700  0.13000400  0.51538700  1
  P  P11  1  0.04628200  0.73028100  0.15768900  1
  P  P12  1  0.68244300  0.63345900  0.02115500  1
  P  P13  1  0.56220400  0.23027000  0.64911300  1
  P  P14  1  0.81275200  0.87767200  0.48582600  1
  P  P15  1  0.27677300  0.96567000  0.77063300  1
  O  O0  1  0.63093000  0.85578400  0.27822100  1
  O  O1  1  0.89028100  0.05190800  0.15461000  1
  O  O2  1  0.69958400  0.10071300  0.33816000  1
  O  O3  1  0.20090400  0.60249300  0.83335000  1
  O  O4  1  0.97568300  0.77408800  0.70908500  1
  O  O5  1  0.17671100  0.59554400  0.64579700  1
  O  O6  1  0.01859900  0.66816700  0.53537400  1
  O  O7  1  0.51949100  0.72368700  0.79048900  1
  O  O8  1  0.68041600  0.72609300  0.53162100  1
  O  O9  1  0.56201500  0.60054200  0.15114300  1
  O  O10  1  0.60839500  0.65151200  0.93496400  1
  O  O11  1  0.80752800  0.39133800  0.16117400  1
  O  O12  1  0.01065100  0.22610100  0.29388400  1
  O  O13  1  0.61290100  0.17792700  0.73619200  1
  O  O14  1  0.90159300  0.86142100  0.56026200  1
  O  O15  1  0.86431900  0.64013700  0.22143300  1
  O  O16  1  0.89358200  0.33141500  0.94201400  1
  O  O17  1  0.74176300  0.59195700  0.70434000  1
  O  O18  1  0.81941400  0.79022300  0.97229600  1
  O  O19  1  0.33499100  0.90811800  0.85103200  1
  O  O20  1  0.17837600  0.21213400  0.03356700  1
  O  O21  1  0.74301800  0.92346700  0.80002000  1
  O  O22  1  0.60815900  0.42851000  0.34240300  1
  O  O23  1  0.39724000  0.78666100  0.24619500  1
  O  O24  1  0.90068000  0.26620600  0.75013900  1
  O  O25  1  0.31547000  0.28159600  0.47294300  1
  O  O26  1  0.06787500  0.89860700  0.10926400  1
  O  O27  1  0.13597200  0.35271800  0.77781500  1
  O  O28  1  0.10772900  0.66821800  0.04999300  1
  O  O29  1  0.27338900  0.50233100  0.01591300  1
  O  O30  1  0.77736400  0.01578800  0.51417500  1
  O  O31  1  0.41942700  0.59974100  0.39058000  1
  O  O32  1  0.23288100  0.00091700  0.48594400  1
  O  O33  1  0.11552300  0.95595000  0.84671100  1
  O  O34  1  0.47426600  0.27110600  0.21387400  1
  O  O35  1  0.23328900  0.42648800  0.30358900  1
  O  O36  1  0.39622500  0.35335900  0.06486200  1
  O  O37  1  0.93395200  0.09438100  0.89633000  1
  O  O38  1  0.06495800  0.08822600  0.65041700  1
  O  O39  1  0.10068500  0.70633100  0.24753800  1
  O  O40  1  0.83957700  0.40533500  0.34609900  1
  O  O41  1  0.29103600  0.89639500  0.66669900  1
  O  O42  1  0.94920500  0.31674000  0.47148000  1
  O  O43  1  0.60098900  0.40081100  0.61045300  1
  O  O44  1  0.92248200  0.91050700  0.34996300  1
  O  O45  1  0.24848900  0.08458000  0.20098000  1
  O  O46  1  0.42327200  0.39729600  0.85136500  1
  O  O47  1  0.61289000  0.17388200  0.53379900  1
  O  O48  1  0.39203300  0.84185000  0.44050900  1
  O  O49  1  0.72800100  0.50139400  0.99589900  1
  O  O50  1  0.46457000  0.82197100  0.96811300  1
  O  O51  1  0.66704800  0.10067200  0.15329900  1
  O  O52  1  0.09865100  0.15064300  0.43743700  1
  O  O53  1  0.52548000  0.17055500  0.03341300  1
  O  O54  1  0.37991200  0.14685400  0.71250300  1
  O  O55  1  0.39579800  0.55210400  0.65879400  1
loop_
_geom_bond_atom_site_label_1
_geom_bond_atom_site_label_2
_geom_bond_distance
_geom_bond_site_symmetry_2
Li0 O24 1.873405 1_555
Li0 O13 1.957535 1_555
Li0 O21 2.176954 1_545
Li0 O42 2.496127 1_555
Li0 O30 2.633375 1_555
Li1 O13 2.035890 1_555
Li1 O53 2.073140 1_556
Li1 O50 2.117084 1_545
Li1 O19 2.293725 1_545
Li2 O48 2.058396 1_545
Li2 O32 2.139754 1_555
Li2 O2 2.156641 1_555
Li2 O47 2.521301 1_555
Li3 O39 1.981910 1_655
Li3 O6 2.066214 1_655
Li3 O42 2.210648 1_555
Li3 O40 2.280194 1_555
Li4 O23 1.891378 1_555
Li4 O35 2.213782 1_555
Li4 O50 2.369865 1_554
Li4 O39 2.504972 1_555
Li4 O9 2.608963 1_555
Li4 O29 2.649064 1_555
Co0 O33 2.010853 1_554
Co0 O1 2.020079 1_465
Co0 O37 2.022839 1_464
Co0 O26 2.052006 1_555
Co0 O18 2.499804 1_454
Co0 O20 2.508515 1_565
Co1 O28 1.890723 1_556
Co1 O3 1.905177 1_555
Co1 O29 1.948299 1_556
Co1 O19 1.996317 1_555
Co1 O7 2.183107 1_555
Co1 O50 2.189447 1_555
Co2 O47 1.895984 1_555
Co2 O40 1.905527 1_555
Co2 O30 1.911162 1_555
Co2 O2 1.919579 1_555
Co2 O12 1.993316 1_655
Co2 O42 2.004264 1_555
Co3 O31 1.860674 1_555
Co3 O22 1.955055 1_555
Co3 O25 1.973053 1_555
Co3 O9 2.023178 1_555
Co3 O34 2.273536 1_555
Co3 O35 2.294913 1_555
Co4 O55 1.903731 1_555
Co4 O43 1.964177 1_555
Co4 O17 1.996334 1_555
Co4 O46 2.000715 1_555
Co4 O8 2.018128 1_555
Co4 O7 2.202571 1_555
Co5 O38 1.899451 1_665
Co5 O18 2.014752 1_555
Co5 O37 2.058567 1_565
Co5 O4 2.074556 1_555
Co5 O21 2.088104 1_555
Co5 O33 2.136420 1_655
Co6 O5 1.864891 1_555
Co6 O41 1.969663 1_555
Co6 O48 1.989265 1_555
Co6 O32 2.061580 1_565
Co6 O4 2.144248 1_455
Co6 O6 2.187344 1_555
Co7 O16 1.913407 1_554
Co7 O49 1.915151 1_554
Co7 O51 1.933313 1_555
Co7 O11 1.937966 1_555
Co7 O53 2.238543 1_555
Co7 O34 2.256574 1_555
Co8 O44 1.872595 1_445
Co8 O45 1.934577 1_555
Co8 O20 2.022268 1_555
Co8 O26 2.050348 1_545
Co8 O1 2.132995 1_455
Co8 O12 2.159113 1_555
O0 P5 1.600907 1_565
O0 P3 1.633418 1_555
O1 P5 1.541252 1_555
O2 P5 1.536605 1_555
O3 P2 1.520001 1_555
O4 P9 1.571407 1_555
O5 P2 1.546143 1_555
O6 P9 1.534400 1_455
O7 P4 1.548738 1_555
O8 P14 1.507306 1_555
O9 P12 1.521729 1_555
O10 P4 1.595209 1_555
O10 P12 1.614338 1_556
O11 P7 1.520003 1_555
O12 P1 1.572581 1_555
O13 P13 1.516993 1_555
O14 P9 1.610297 1_555
O14 P14 1.618170 1_555
O15 P7 1.612535 1_555
O15 P11 1.628234 1_655
O16 P6 1.519965 1_555
O17 P9 1.515475 1_555
O18 P12 1.557267 1_556
O19 P15 1.530956 1_555
O20 P8 1.555187 1_554
O21 P4 1.532756 1_555
O22 P7 1.519927 1_555
O23 P3 1.494013 1_555
O24 P6 1.494424 1_555
O25 P10 1.515889 1_555
O26 P11 1.570129 1_555
O27 P2 1.602078 1_555
O27 P6 1.625118 1_455
O28 P11 1.527623 1_555
O29 P8 1.534132 1_554
O30 P14 1.535478 1_545
O31 P3 1.553764 1_555
O32 P10 1.529675 1_555
O33 P15 1.552525 1_555
O34 P0 1.556750 1_555
O35 P1 1.509766 1_555
O36 P0 1.608584 1_555
O36 P8 1.612408 1_554
O37 P6 1.566701 1_555
O38 P10 1.544925 1_555
O39 P11 1.501723 1_555
O40 P7 1.551682 1_555
O41 P15 1.513415 1_555
O42 P1 1.563748 1_655
O43 P13 1.521343 1_555
O44 P14 1.544126 1_555
O45 P0 1.529947 1_555
O46 P8 1.515845 1_555
O47 P13 1.556484 1_555
O48 P3 1.541358 1_555
O49 P12 1.521805 1_556
O50 P4 1.548857 1_555
O51 P5 1.524953 1_555
O52 P1 1.595946 1_555
O52 P10 1.619032 1_555
O53 P0 1.531865 1_555
O54 P15 1.611523 1_545
O54 P13 1.626733 1_555
O55 P2 1.523235 1_555
