# generated using pymatgen
data_BaYb2O4
_symmetry_space_group_name_H-M   'P 1'
_cell_length_a   3.54447900
_cell_length_b   10.37406600
_cell_length_c   12.11522300
_cell_angle_alpha   90.00000000
_cell_angle_beta   90.00000000
_cell_angle_gamma   90.00000000
_symmetry_Int_Tables_number   1
_chemical_formula_structural   BaYb2O4
_chemical_formula_sum   'Ba4 Yb8 O16'
_cell_volume   445.48473463
_cell_formula_units_Z   4
loop_
 _symmetry_equiv_pos_site_id
 _symmetry_equiv_pos_as_xyz
  1  'x, y, z'
loop_
 _atom_site_type_symbol
 _atom_site_label
 _atom_site_symmetry_multiplicity
 _atom_site_fract_x
 _atom_site_fract_y
 _atom_site_fract_z
 _atom_site_occupancy
  Ba  Ba0  1  0.25000000  0.74844700  0.65410300  1
  Ba  Ba1  1  0.75000000  0.75155300  0.15410300  1
  Ba  Ba2  1  0.25000000  0.24844700  0.84589700  1
  Ba  Ba3  1  0.75000000  0.25155300  0.34589700  1
  Yb  Yb0  1  0.25000000  0.57796400  0.39120200  1
  Yb  Yb1  1  0.25000000  0.57896400  0.89237200  1
  Yb  Yb2  1  0.75000000  0.92103600  0.39237200  1
  Yb  Yb3  1  0.75000000  0.92203600  0.89120200  1
  Yb  Yb4  1  0.25000000  0.07796400  0.10879800  1
  Yb  Yb5  1  0.25000000  0.07896400  0.60762800  1
  Yb  Yb6  1  0.75000000  0.42103600  0.10762800  1
  Yb  Yb7  1  0.75000000  0.42203600  0.60879800  1
  O  O0  1  0.75000000  0.51620600  0.27796800  1
  O  O1  1  0.25000000  0.56992300  0.08036000  1
  O  O2  1  0.75000000  0.61846900  0.51756400  1
  O  O3  1  0.75000000  0.71333200  0.83331400  1
  O  O4  1  0.25000000  0.78666800  0.33331400  1
  O  O5  1  0.25000000  0.88153100  0.01756400  1
  O  O6  1  0.75000000  0.93007700  0.58036000  1
  O  O7  1  0.25000000  0.98379400  0.77796800  1
  O  O8  1  0.75000000  0.01620600  0.22203200  1
  O  O9  1  0.25000000  0.06992300  0.41964000  1
  O  O10  1  0.75000000  0.11846900  0.98243600  1
  O  O11  1  0.75000000  0.21333200  0.66668600  1
  O  O12  1  0.25000000  0.28666800  0.16668600  1
  O  O13  1  0.25000000  0.38153100  0.48243600  1
  O  O14  1  0.75000000  0.43007700  0.91964000  1
  O  O15  1  0.25000000  0.48379400  0.72203200  1
loop_
_geom_bond_atom_site_label_1
_geom_bond_atom_site_label_2
_geom_bond_distance
_geom_bond_site_symmetry_2
Ba0 O6 2.736674 1_455
Ba0 O6 2.736674 1_555
Ba0 O2 2.774058 1_455
Ba0 O2 2.774058 1_555
Ba0 O3 2.826228 1_455
Ba0 O3 2.826228 1_555
Ba0 O7 2.865817 1_555
Ba0 O15 2.866219 1_555
Ba1 O1 2.736674 1_655
Ba1 O1 2.736674 1_555
Ba1 O5 2.774058 1_655
Ba1 O5 2.774058 1_555
Ba1 O4 2.826228 1_555
Ba1 O4 2.826228 1_655
Ba1 O0 2.865817 1_555
Ba1 O8 2.866219 1_565
Ba2 O14 2.736674 1_455
Ba2 O14 2.736674 1_555
Ba2 O10 2.774058 1_555
Ba2 O10 2.774058 1_455
Ba2 O11 2.826228 1_555
Ba2 O11 2.826228 1_455
Ba2 O15 2.865817 1_555
Ba2 O7 2.866219 1_545
Ba3 O9 2.736674 1_555
Ba3 O9 2.736674 1_655
Ba3 O13 2.774058 1_655
Ba3 O13 2.774058 1_555
Ba3 O12 2.826228 1_555
Ba3 O12 2.826228 1_655
Ba3 O8 2.865817 1_555
Ba3 O0 2.866219 1_555
O0 Yb6 2.287717 1_555
O0 Yb0 2.330942 1_555
O0 Yb0 2.330942 1_655
O1 Yb1 2.279447 1_554
O1 Yb6 2.373952 1_455
O1 Yb6 2.373952 1_555
O2 Yb7 2.318275 1_555
O2 Yb0 2.379300 1_555
O2 Yb0 2.379300 1_655
O3 Yb3 2.275864 1_555
O3 Yb1 2.365555 1_555
O3 Yb1 2.365555 1_655
O4 Yb0 2.275864 1_555
O4 Yb2 2.365555 1_555
O4 Yb2 2.365555 1_455
O5 Yb4 2.318275 1_565
O5 Yb3 2.379300 1_454
O5 Yb3 2.379300 1_554
O6 Yb2 2.279447 1_555
O6 Yb5 2.373952 1_665
O6 Yb5 2.373952 1_565
O7 Yb5 2.287717 1_565
O7 Yb3 2.330942 1_555
O7 Yb3 2.330942 1_455
O8 Yb2 2.287717 1_545
O8 Yb4 2.330942 1_555
O8 Yb4 2.330942 1_655
O9 Yb5 2.279447 1_555
O9 Yb2 2.373952 1_545
O9 Yb2 2.373952 1_445
O10 Yb3 2.318275 1_545
O10 Yb4 2.379300 1_656
O10 Yb4 2.379300 1_556
O11 Yb7 2.275864 1_555
O11 Yb5 2.365555 1_555
O11 Yb5 2.365555 1_655
O12 Yb4 2.275864 1_555
O12 Yb6 2.365555 1_555
O12 Yb6 2.365555 1_455
O13 Yb0 2.318275 1_555
O13 Yb7 2.379300 1_455
O13 Yb7 2.379300 1_555
O14 Yb6 2.279447 1_556
O14 Yb1 2.373952 1_555
O14 Yb1 2.373952 1_655
O15 Yb1 2.287717 1_555
O15 Yb7 2.330942 1_455
O15 Yb7 2.330942 1_555
