# generated using pymatgen
data_Li3CrO4
_symmetry_space_group_name_H-M   'P 1'
_cell_length_a   5.83664600
_cell_length_b   4.95354500
_cell_length_c   5.09157855
_cell_angle_alpha   70.05007760
_cell_angle_beta   90.00000000
_cell_angle_gamma   90.00000000
_symmetry_Int_Tables_number   1
_chemical_formula_structural   Li3CrO4
_chemical_formula_sum   'Li6 Cr2 O8'
_cell_volume   138.37438366
_cell_formula_units_Z   2
loop_
 _symmetry_equiv_pos_site_id
 _symmetry_equiv_pos_as_xyz
  1  'x, y, z'
loop_
 _atom_site_type_symbol
 _atom_site_label
 _atom_site_symmetry_multiplicity
 _atom_site_fract_x
 _atom_site_fract_y
 _atom_site_fract_z
 _atom_site_occupancy
  Li  Li0  1  0.63190500  0.25000000  0.00000000  1
  Li  Li1  1  0.36809500  0.75000000  0.00000000  1
  Li  Li2  1  0.38615000  0.25000000  0.50000000  1
  Li  Li3  1  0.87954200  0.25000000  0.50000000  1
  Li  Li4  1  0.61385000  0.75000000  0.50000000  1
  Li  Li5  1  0.12045800  0.75000000  0.50000000  1
  Cr  Cr0  1  0.15485800  0.25000000  0.00000000  1
  Cr  Cr1  1  0.84514200  0.75000000  0.00000000  1
  O  O0  1  0.35618800  0.02524900  0.23720900  1
  O  O1  1  0.10553200  0.48964400  0.21620600  1
  O  O2  1  0.64381200  0.52524900  0.23720900  1
  O  O3  1  0.89446800  0.98964400  0.21620600  1
  O  O4  1  0.10553200  0.01035600  0.78379400  1
  O  O5  1  0.35618800  0.47475100  0.76279100  1
  O  O6  1  0.89446800  0.51035600  0.78379400  1
  O  O7  1  0.64381200  0.97475100  0.76279100  1
loop_
_geom_bond_atom_site_label_1
_geom_bond_atom_site_label_2
_geom_bond_distance
_geom_bond_site_symmetry_2
Li0 O3 2.062720 1_545
Li0 O6 2.062720 1_554
Li0 O5 2.090533 1_554
Li0 O0 2.090533 1_555
Li0 O2 2.108622 1_555
Li0 O7 2.108622 1_544
Li1 O4 2.062720 1_564
Li1 O1 2.062720 1_555
Li1 O2 2.090533 1_555
Li1 O7 2.090533 1_554
Li1 O0 2.108622 1_565
Li1 O5 2.108622 1_554
Li2 O5 2.019128 1_555
Li2 O0 2.019128 1_555
Li2 O7 2.160106 1_545
Li2 O2 2.160106 1_555
Li2 O1 2.238121 1_555
Li2 O4 2.238121 1_555
Li3 O1 2.016531 1_655
Li3 O4 2.016531 1_655
Li3 O7 2.073022 1_545
Li3 O2 2.073022 1_555
Li3 O6 2.242869 1_555
Li3 O3 2.242869 1_545
Li4 O7 2.019128 1_555
Li4 O2 2.019128 1_555
Li4 O0 2.160106 1_565
Li4 O5 2.160106 1_555
Li4 O6 2.238121 1_555
Li4 O3 2.238121 1_555
Li5 O6 2.016531 1_455
Li5 O3 2.016531 1_455
Li5 O0 2.073022 1_565
Li5 O5 2.073022 1_555
Li5 O4 2.242869 1_565
Li5 O1 2.242869 1_555
Cr0 O0 1.778045 1_555
Cr0 O5 1.778045 1_554
Cr0 O1 1.896215 1_555
Cr0 O4 1.896215 1_554
Cr0 O3 2.053315 1_445
Cr0 O6 2.053315 1_454
Cr1 O2 1.778045 1_555
Cr1 O7 1.778045 1_554
Cr1 O3 1.896215 1_555
Cr1 O6 1.896215 1_554
Cr1 O4 2.053315 1_664
Cr1 O1 2.053315 1_655
