# generated using pymatgen
data_Fe4O5F3
_symmetry_space_group_name_H-M   'P 1'
_cell_length_a   4.74351000
_cell_length_b   6.06040167
_cell_length_c   9.47395862
_cell_angle_alpha   89.79650690
_cell_angle_beta   85.82527827
_cell_angle_gamma   89.76571674
_symmetry_Int_Tables_number   1
_chemical_formula_structural   Fe4O5F3
_chemical_formula_sum   'Fe8 O10 F6'
_cell_volume   271.62699068
_cell_formula_units_Z   2
loop_
 _symmetry_equiv_pos_site_id
 _symmetry_equiv_pos_as_xyz
  1  'x, y, z'
loop_
 _atom_site_type_symbol
 _atom_site_label
 _atom_site_symmetry_multiplicity
 _atom_site_fract_x
 _atom_site_fract_y
 _atom_site_fract_z
 _atom_site_occupancy
  Fe  Fe0  1  0.00193000  0.99999600  0.99559100  1
  Fe  Fe1  1  0.97588600  0.50110100  0.00877000  1
  Fe  Fe2  1  0.01883000  0.99218800  0.50493100  1
  Fe  Fe3  1  0.00739800  0.50722500  0.50887700  1
  Fe  Fe4  1  0.55365700  0.24009300  0.76369100  1
  Fe  Fe5  1  0.48645000  0.75760600  0.72930100  1
  Fe  Fe6  1  0.50218800  0.25043000  0.25426600  1
  Fe  Fe7  1  0.45591100  0.75265700  0.23323800  1
  O  O0  1  0.19934900  0.74801800  0.59170500  1
  O  O1  1  0.16781600  0.75242500  0.08966000  1
  O  O2  1  0.30654300  0.00027900  0.84795900  1
  O  O3  1  0.30778900  0.00808800  0.34485800  1
  O  O4  1  0.30216600  0.49275800  0.34668800  1
  O  O5  1  0.70910800  0.00152200  0.64930000  1
  O  O6  1  0.69780800  0.49616200  0.65574300  1
  O  O7  1  0.68890700  0.00541000  0.15073100  1
  O  O8  1  0.67911900  0.49634200  0.15680000  1
  O  O9  1  0.82224200  0.24862300  0.91095100  1
  F  F0  1  0.19996800  0.25034900  0.59837300  1
  F  F1  1  0.19616500  0.25410300  0.09874000  1
  F  F2  1  0.30018500  0.49911200  0.85126100  1
  F  F3  1  0.81214100  0.75082700  0.40220800  1
  F  F4  1  0.79316100  0.74457300  0.89952100  1
  F  F5  1  0.81528700  0.25011700  0.40683900  1
loop_
_geom_bond_atom_site_label_1
_geom_bond_atom_site_label_2
_geom_bond_distance
_geom_bond_site_symmetry_2
Fe0 O9 1.928813 1_465
Fe0 O1 1.935851 1_556
Fe0 O2 1.936452 1_565
Fe0 O7 2.012031 1_466
Fe1 O8 1.913613 1_555
Fe1 O9 1.961834 1_554
Fe1 O1 1.963996 1_655
Fe2 O0 1.918927 1_555
Fe2 O5 1.933828 1_465
Fe2 O3 1.971114 1_565
Fe3 O0 1.922865 1_555
Fe3 O6 1.949296 1_455
Fe3 O4 2.002734 1_555
Fe4 O5 1.922165 1_555
Fe4 O6 1.953813 1_555
Fe4 O9 1.957571 1_555
Fe4 O2 1.998277 1_555
Fe5 O5 1.939946 1_565
Fe5 O0 1.953724 1_555
Fe5 O6 1.973434 1_555
Fe5 O2 2.004186 1_565
Fe6 O3 1.905490 1_555
Fe6 O8 1.914606 1_555
Fe6 O4 1.923667 1_555
Fe6 O7 1.955683 1_555
Fe7 O3 1.975562 1_565
Fe7 O8 1.985278 1_555
Fe7 O1 1.997126 1_555
Fe7 O4 2.012775 1_555
Fe7 O7 2.014556 1_565
F0 Fe3 2.017078 1_555
F0 Fe2 2.025191 1_545
F0 Fe4 2.377541 1_555
F1 Fe1 2.041297 1_455
F1 Fe0 2.080584 1_544
F1 Fe6 2.142351 1_555
F2 Fe1 2.063753 1_456
F2 Fe5 2.102308 1_555
F2 Fe4 2.108710 1_555
F3 Fe3 2.042831 1_655
F3 Fe2 2.051520 1_655
F3 Fe7 2.410737 1_555
F4 Fe1 2.027081 1_556
F4 Fe0 2.087836 1_655
F4 Fe5 2.250190 1_555
F5 Fe3 2.084092 1_655
F5 Fe2 2.085010 1_645
F5 Fe6 2.146554 1_555
