# generated using pymatgen
data_V3P2H12C3N2O15
_symmetry_space_group_name_H-M   'P 1'
_cell_length_a   8.49655600
_cell_length_b   10.66764900
_cell_length_c   16.90546000
_cell_angle_alpha   90.00000000
_cell_angle_beta   90.00000000
_cell_angle_gamma   90.00000000
_symmetry_Int_Tables_number   1
_chemical_formula_structural   V3P2H12C3N2O15
_chemical_formula_sum   'V12 P8 H48 C12 N8 O60'
_cell_volume   1532.28176827
_cell_formula_units_Z   4
loop_
 _symmetry_equiv_pos_site_id
 _symmetry_equiv_pos_as_xyz
  1  'x, y, z'
loop_
 _atom_site_type_symbol
 _atom_site_label
 _atom_site_symmetry_multiplicity
 _atom_site_fract_x
 _atom_site_fract_y
 _atom_site_fract_z
 _atom_site_occupancy
  V  V0  1  0.32034200  0.72194000  0.25000000  1
  V  V1  1  0.17965800  0.22194000  0.25000000  1
  V  V2  1  0.67965800  0.27806000  0.75000000  1
  V  V3  1  0.82034200  0.77806000  0.75000000  1
  V  V4  1  0.71277400  0.64551400  0.56879100  1
  V  V5  1  0.78722600  0.14551400  0.93120900  1
  V  V6  1  0.28722600  0.35448600  0.06879100  1
  V  V7  1  0.21277400  0.85448600  0.43120900  1
  V  V8  1  0.28722600  0.35448600  0.43120900  1
  V  V9  1  0.21277400  0.85448600  0.06879100  1
  V  V10  1  0.71277400  0.64551400  0.93120900  1
  V  V11  1  0.78722600  0.14551400  0.56879100  1
  P  P0  1  0.46664000  0.63022300  0.41368000  1
  P  P1  1  0.03336000  0.13022300  0.08632000  1
  P  P2  1  0.53336000  0.36977700  0.91368000  1
  P  P3  1  0.96664000  0.86977700  0.58632000  1
  P  P4  1  0.53336000  0.36977700  0.58632000  1
  P  P5  1  0.96664000  0.86977700  0.91368000  1
  P  P6  1  0.46664000  0.63022300  0.08632000  1
  P  P7  1  0.03336000  0.13022300  0.41368000  1
  H  H0  1  0.78934300  0.29747000  0.25000000  1
  H  H1  1  0.71065700  0.79747000  0.25000000  1
  H  H2  1  0.21065700  0.70253000  0.75000000  1
  H  H3  1  0.28934300  0.20253000  0.75000000  1
  H  H4  1  0.86373500  0.91019100  0.25000000  1
  H  H5  1  0.63626500  0.41019100  0.25000000  1
  H  H6  1  0.13626500  0.08980900  0.75000000  1
  H  H7  1  0.36373500  0.58980900  0.75000000  1
  H  H8  1  0.53356500  0.95253800  0.17682900  1
  H  H9  1  0.96643500  0.45253800  0.32317100  1
  H  H10  1  0.46643500  0.04746200  0.67682900  1
  H  H11  1  0.03356500  0.54746200  0.82317100  1
  H  H12  1  0.46643500  0.04746200  0.82317100  1
  H  H13  1  0.03356500  0.54746200  0.67682900  1
  H  H14  1  0.53356500  0.95253800  0.32317100  1
  H  H15  1  0.96643500  0.45253800  0.17682900  1
  H  H16  1  0.68995100  0.06153000  0.17540600  1
  H  H17  1  0.81004900  0.56153000  0.32459400  1
  H  H18  1  0.31004900  0.93847000  0.67540600  1
  H  H19  1  0.18995100  0.43847000  0.82459400  1
  H  H20  1  0.31004900  0.93847000  0.82459400  1
  H  H21  1  0.18995100  0.43847000  0.67540600  1
  H  H22  1  0.68995100  0.06153000  0.32459400  1
  H  H23  1  0.81004900  0.56153000  0.17540600  1
  H  H24  1  0.84379000  0.91274500  0.09866000  1
  H  H25  1  0.65621000  0.41274500  0.40134000  1
  H  H26  1  0.15621000  0.08725500  0.59866000  1
  H  H27  1  0.34379000  0.58725500  0.90134000  1
  H  H28  1  0.15621000  0.08725500  0.90134000  1
  H  H29  1  0.34379000  0.58725500  0.59866000  1
  H  H30  1  0.84379000  0.91274500  0.40134000  1
  H  H31  1  0.65621000  0.41274500  0.09866000  1
  H  H32  1  0.67788400  0.95486800  0.05307400  1
  H  H33  1  0.82211600  0.45486800  0.44692600  1
  H  H34  1  0.32211600  0.04513200  0.55307400  1
  H  H35  1  0.17788400  0.54513200  0.94692600  1
  H  H36  1  0.32211600  0.04513200  0.94692600  1
  H  H37  1  0.17788400  0.54513200  0.55307400  1
  H  H38  1  0.67788400  0.95486800  0.44692600  1
  H  H39  1  0.82211600  0.45486800  0.05307400  1
  H  H40  1  0.69154900  0.81277400  0.09375800  1
  H  H41  1  0.80845100  0.31277400  0.40624200  1
  H  H42  1  0.30845100  0.18722600  0.59375800  1
  H  H43  1  0.19154900  0.68722600  0.90624200  1
  H  H44  1  0.30845100  0.18722600  0.90624200  1
  H  H45  1  0.19154900  0.68722600  0.59375800  1
  H  H46  1  0.69154900  0.81277400  0.40624200  1
  H  H47  1  0.80845100  0.31277400  0.09375800  1
  C  C0  1  0.76529500  0.39898200  0.25000000  1
  C  C1  1  0.73470500  0.89898200  0.25000000  1
  C  C2  1  0.23470500  0.60101800  0.75000000  1
  C  C3  1  0.26529500  0.10101800  0.75000000  1
  C  C4  1  0.83760100  0.46103200  0.17718800  1
  C  C5  1  0.66239900  0.96103200  0.32281200  1
  C  C6  1  0.16239900  0.53896800  0.67718800  1
  C  C7  1  0.33760100  0.03896800  0.82281200  1
  C  C8  1  0.16239900  0.53896800  0.82281200  1
  C  C9  1  0.33760100  0.03896800  0.67718800  1
  C  C10  1  0.83760100  0.46103200  0.32281200  1
  C  C11  1  0.66239900  0.96103200  0.17718800  1
  N  N0  1  0.72200800  0.90635300  0.10196000  1
  N  N1  1  0.77799200  0.40635300  0.39804000  1
  N  N2  1  0.27799200  0.09364700  0.60196000  1
  N  N3  1  0.22200800  0.59364700  0.89804000  1
  N  N4  1  0.27799200  0.09364700  0.89804000  1
  N  N5  1  0.22200800  0.59364700  0.60196000  1
  N  N6  1  0.72200800  0.90635300  0.39804000  1
  N  N7  1  0.77799200  0.40635300  0.10196000  1
  O  O0  1  0.44867600  0.48497900  0.41440300  1
  O  O1  1  0.05132400  0.98497900  0.08559700  1
  O  O2  1  0.55132400  0.51502100  0.91440300  1
  O  O3  1  0.94867600  0.01502100  0.58559700  1
  O  O4  1  0.55132400  0.51502100  0.58559700  1
  O  O5  1  0.94867600  0.01502100  0.91440300  1
  O  O6  1  0.44867600  0.48497900  0.08559700  1
  O  O7  1  0.05132400  0.98497900  0.41440300  1
  O  O8  1  0.62343200  0.66502700  0.45498400  1
  O  O9  1  0.87656800  0.16502700  0.04501600  1
  O  O10  1  0.37656800  0.33497300  0.95498400  1
  O  O11  1  0.12343200  0.83497300  0.54501600  1
  O  O12  1  0.37656800  0.33497300  0.54501600  1
  O  O13  1  0.12343200  0.83497300  0.95498400  1
  O  O14  1  0.62343200  0.66502700  0.04501600  1
  O  O15  1  0.87656800  0.16502700  0.45498400  1
  O  O16  1  0.32455200  0.69446900  0.45383000  1
  O  O17  1  0.17544800  0.19446900  0.04617000  1
  O  O18  1  0.67544800  0.30553100  0.95383000  1
  O  O19  1  0.82455200  0.80553100  0.54617000  1
  O  O20  1  0.67544800  0.30553100  0.54617000  1
  O  O21  1  0.82455200  0.80553100  0.95383000  1
  O  O22  1  0.32455200  0.69446900  0.04617000  1
  O  O23  1  0.17544800  0.19446900  0.45383000  1
  O  O24  1  0.48325600  0.67347900  0.32617000  1
  O  O25  1  0.01674400  0.17347900  0.17383000  1
  O  O26  1  0.51674400  0.32652100  0.82617000  1
  O  O27  1  0.98325600  0.82652100  0.67383000  1
  O  O28  1  0.51674400  0.32652100  0.67383000  1
  O  O29  1  0.98325600  0.82652100  0.82617000  1
  O  O30  1  0.48325600  0.67347900  0.17383000  1
  O  O31  1  0.01674400  0.17347900  0.32617000  1
  O  O32  1  0.25429900  0.83170100  0.17190300  1
  O  O33  1  0.24570100  0.33170100  0.32809700  1
  O  O34  1  0.74570100  0.16829900  0.67190300  1
  O  O35  1  0.75429900  0.66829900  0.82809700  1
  O  O36  1  0.74570100  0.16829900  0.82809700  1
  O  O37  1  0.75429900  0.66829900  0.67190300  1
  O  O38  1  0.25429900  0.83170100  0.32809700  1
  O  O39  1  0.24570100  0.33170100  0.17190300  1
  O  O40  1  0.19424700  0.61021300  0.25000000  1
  O  O41  1  0.30575300  0.11021300  0.25000000  1
  O  O42  1  0.80575300  0.38978700  0.75000000  1
  O  O43  1  0.69424700  0.88978700  0.75000000  1
  O  O44  1  0.35164500  0.95118300  0.03891400  1
  O  O45  1  0.14835500  0.45118300  0.46108600  1
  O  O46  1  0.64835500  0.04881700  0.53891400  1
  O  O47  1  0.85164500  0.54881700  0.96108600  1
  O  O48  1  0.64835500  0.04881700  0.96108600  1
  O  O49  1  0.85164500  0.54881700  0.53891400  1
  O  O50  1  0.35164500  0.95118300  0.46108600  1
  O  O51  1  0.14835500  0.45118300  0.03891400  1
  O  O52  1  0.02577700  0.73618500  0.09253600  1
  O  O53  1  0.47422300  0.23618500  0.40746400  1
  O  O54  1  0.97422300  0.26381500  0.59253600  1
  O  O55  1  0.52577700  0.76381500  0.90746400  1
  O  O56  1  0.97422300  0.26381500  0.90746400  1
  O  O57  1  0.52577700  0.76381500  0.59253600  1
  O  O58  1  0.02577700  0.73618500  0.40746400  1
  O  O59  1  0.47422300  0.23618500  0.09253600  1
loop_
_geom_bond_atom_site_label_1
_geom_bond_atom_site_label_2
_geom_bond_distance
_geom_bond_site_symmetry_2
H24 N0 1.038471 1_555
H25 N1 1.038471 1_555
H26 N2 1.038471 1_555
H27 N3 1.038471 1_555
H28 N4 1.038471 1_555
H29 N5 1.038471 1_555
H30 N6 1.038471 1_555
H31 N7 1.038471 1_555
H32 N0 1.044703 1_555
H33 N1 1.044703 1_555
H34 N2 1.044703 1_555
H35 N3 1.044703 1_555
H36 N4 1.044703 1_555
H37 N5 1.044703 1_555
H38 N6 1.044703 1_555
H39 N7 1.044703 1_555
H40 N0 1.040548 1_555
H41 N1 1.040548 1_555
H42 N2 1.040548 1_555
H43 N3 1.040548 1_555
H44 N4 1.040548 1_555
H45 N5 1.040548 1_555
H46 N6 1.040548 1_555
H47 N7 1.040548 1_555
C0 H0 1.102002 1_555
C0 H5 1.102812 1_555
C1 H1 1.102002 1_555
C1 H4 1.102812 1_555
C2 H2 1.102002 1_555
C2 H7 1.102812 1_555
C3 H3 1.102002 1_555
C3 H6 1.102812 1_555
C4 H23 1.097752 1_555
C4 H15 1.098406 1_555
C4 N7 1.487996 1_555
C5 H22 1.097752 1_565
C5 H14 1.098406 1_555
C5 N6 1.487996 1_555
C6 H21 1.097752 1_555
C6 H13 1.098406 1_555
C6 N5 1.487996 1_555
C7 H20 1.097752 1_545
C7 H12 1.098406 1_555
C7 N4 1.487996 1_555
C8 H19 1.097752 1_555
C8 H11 1.098406 1_555
C8 N3 1.487996 1_555
C9 H18 1.097752 1_545
C9 H10 1.098406 1_555
C9 N2 1.487996 1_555
C10 H17 1.097752 1_555
C10 H9 1.098406 1_555
C10 N1 1.487996 1_555
C11 H16 1.097752 1_565
C11 H8 1.098406 1_555
C11 N0 1.487996 1_555
O0 P0 1.556960 1_555
O0 V8 1.974914 1_555
O1 P1 1.556960 1_565
O1 V9 1.974914 1_555
O2 P2 1.556960 1_555
O2 V10 1.974914 1_555
O3 P3 1.556960 1_545
O3 V11 1.974914 1_555
O4 P4 1.556960 1_555
O4 V4 1.974914 1_555
O5 P5 1.556960 1_545
O5 V5 1.974914 1_555
O6 P6 1.556960 1_555
O6 V6 1.974914 1_555
O7 P7 1.556960 1_565
O7 V7 1.974914 1_555
O8 P0 1.549243 1_555
O8 V4 2.078745 1_555
O9 P1 1.549243 1_655
O9 V5 2.078745 1_554
O10 P2 1.549243 1_555
O10 V6 2.078745 1_556
O11 P3 1.549243 1_455
O11 V7 2.078745 1_555
O12 P4 1.549243 1_555
O12 V8 2.078745 1_555
O13 P5 1.549243 1_455
O13 V9 2.078745 1_556
O14 P6 1.549243 1_555
O14 V10 2.078745 1_554
O15 P7 1.549243 1_655
O15 V11 2.078745 1_555
O16 P0 1.545280 1_555
O16 V7 1.990501 1_555
O17 P1 1.545280 1_555
O17 V6 1.990501 1_555
O18 P2 1.545280 1_555
O18 V5 1.990501 1_555
O19 P3 1.545280 1_555
O19 V4 1.990501 1_555
O20 P4 1.545280 1_555
O20 V11 1.990501 1_555
O21 P5 1.545280 1_555
O21 V10 1.990501 1_555
O22 P6 1.545280 1_555
O22 V9 1.990501 1_555
O23 P7 1.545280 1_555
O23 V8 1.990501 1_555
O24 P0 1.556108 1_555
O24 V0 1.959956 1_555
O25 P1 1.556108 1_555
O25 V1 1.959956 1_555
O26 P2 1.556108 1_555
O26 V2 1.959956 1_555
O27 P3 1.556108 1_555
O27 V3 1.959956 1_555
O28 P4 1.556108 1_555
O28 V2 1.959956 1_555
O29 P5 1.556108 1_555
O29 V3 1.959956 1_555
O30 P6 1.556108 1_555
O30 V0 1.959956 1_555
O31 P7 1.556108 1_555
O31 V1 1.959956 1_555
O32 V9 1.795036 1_555
O32 V0 1.851747 1_555
O33 V8 1.795036 1_555
O33 V1 1.851747 1_555
O34 V11 1.795036 1_555
O34 V2 1.851747 1_555
O35 V10 1.795036 1_555
O35 V3 1.851747 1_555
O36 V5 1.795036 1_555
O36 V2 1.851747 1_555
O37 V4 1.795036 1_555
O37 V3 1.851747 1_555
O38 V7 1.795036 1_555
O38 V0 1.851747 1_555
O39 V6 1.795036 1_555
O39 V1 1.851747 1_555
O40 V0 1.602617 1_555
O41 V1 1.602617 1_555
O42 V2 1.602617 1_555
O43 V3 1.602617 1_555
O44 V9 1.646629 1_555
O45 V8 1.646629 1_555
O46 V11 1.646629 1_555
O47 V10 1.646629 1_555
O48 V5 1.646629 1_555
O49 V4 1.646629 1_555
O50 V7 1.646629 1_555
O51 V6 1.646629 1_555
O52 V9 2.068368 1_555
O53 V8 2.068368 1_555
O54 V11 2.068368 1_555
O55 V10 2.068368 1_555
O56 V5 2.068368 1_555
O57 V4 2.068368 1_555
O58 V7 2.068368 1_555
O59 V6 2.068368 1_555
