# generated using pymatgen
data_Mn3F10
_symmetry_space_group_name_H-M   'P 1'
_cell_length_a   6.27757400
_cell_length_b   7.67263822
_cell_length_c   9.70437437
_cell_angle_alpha   110.94860615
_cell_angle_beta   108.63175129
_cell_angle_gamma   92.03757603
_symmetry_Int_Tables_number   1
_chemical_formula_structural   Mn3F10
_chemical_formula_sum   'Mn6 F20'
_cell_volume   407.67594804
_cell_formula_units_Z   2
loop_
 _symmetry_equiv_pos_site_id
 _symmetry_equiv_pos_as_xyz
  1  'x, y, z'
loop_
 _atom_site_type_symbol
 _atom_site_label
 _atom_site_symmetry_multiplicity
 _atom_site_fract_x
 _atom_site_fract_y
 _atom_site_fract_z
 _atom_site_occupancy
  Mn  Mn0  1  0.92164800  0.51718300  0.83716100  1
  Mn  Mn1  1  0.80999200  0.97822700  0.62249400  1
  Mn  Mn2  1  0.25735100  0.99225500  0.99712800  1
  Mn  Mn3  1  0.19000800  0.02177300  0.37750600  1
  Mn  Mn4  1  0.07835200  0.48281700  0.16283900  1
  Mn  Mn5  1  0.74264900  0.00774500  0.00287200  1
  F  F0  1  0.33521700  0.02066500  0.20733500  1
  F  F1  1  0.34811800  0.46433500  0.27731400  1
  F  F2  1  0.99056300  0.79642800  0.94915700  1
  F  F3  1  0.86992000  0.25599900  0.74169700  1
  F  F4  1  0.50007500  0.18073200  0.04405300  1
  F  F5  1  0.76311700  0.73025400  0.53560900  1
  F  F6  1  0.92194500  0.46030600  0.27782200  1
  F  F7  1  0.12505600  0.98256200  0.79232700  1
  F  F8  1  0.19324500  0.50183500  0.00120800  1
  F  F9  1  0.00000000  0.00000000  0.50000000  1
  F  F10  1  0.87494400  0.01743800  0.20767300  1
  F  F11  1  0.07805500  0.53969400  0.72217800  1
  F  F12  1  0.23688300  0.26974600  0.46439100  1
  F  F13  1  0.49992500  0.81926800  0.95594700  1
  F  F14  1  0.13008000  0.74400100  0.25830300  1
  F  F15  1  0.00943700  0.20357200  0.05084300  1
  F  F16  1  0.65188200  0.53566500  0.72268600  1
  F  F17  1  0.50000000  0.00000000  0.50000000  1
  F  F18  1  0.80675500  0.49816500  0.99879200  1
  F  F19  1  0.66478300  0.97933500  0.79266500  1
loop_
_geom_bond_atom_site_label_1
_geom_bond_atom_site_label_2
_geom_bond_distance
_geom_bond_site_symmetry_2
F0 Mn2 1.866836 1_544
F0 Mn3 2.123802 1_555
F1 Mn4 1.746345 1_555
F2 Mn0 1.981778 1_555
F2 Mn2 2.025308 1_655
F2 Mn5 2.327240 1_566
F3 Mn0 1.847587 1_555
F3 Mn1 1.980882 1_545
F4 Mn2 1.883985 1_544
F4 Mn5 2.096063 1_555
F5 Mn1 1.752705 1_555
F6 Mn4 1.750649 1_655
F7 Mn2 1.865614 1_555
F7 Mn1 2.121915 1_455
F8 Mn0 1.967020 1_454
F8 Mn4 1.969978 1_555
F9 Mn1 1.974222 1_445
F9 Mn3 1.974222 1_555
F10 Mn5 1.865614 1_555
F10 Mn3 2.121915 1_655
F11 Mn0 1.750649 1_455
F12 Mn3 1.752705 1_555
F13 Mn5 1.883985 1_566
F13 Mn2 2.096063 1_555
F14 Mn4 1.847587 1_555
F14 Mn3 1.980882 1_565
F15 Mn4 1.981778 1_555
F15 Mn5 2.025308 1_455
F15 Mn2 2.327240 1_544
F16 Mn0 1.746345 1_555
F17 Mn3 1.978611 1_555
F17 Mn1 1.978611 1_545
F18 Mn4 1.967020 1_656
F18 Mn0 1.969978 1_555
F19 Mn5 1.866836 1_566
F19 Mn1 2.123802 1_555
