# generated using pymatgen
data_Ba4Y2O7
_symmetry_space_group_name_H-M   'P 1'
_cell_length_a   11.26686400
_cell_length_b   7.58007700
_cell_length_c   18.97922593
_cell_angle_alpha   87.17524510
_cell_angle_beta   90.00000000
_cell_angle_gamma   90.00000000
_symmetry_Int_Tables_number   1
_chemical_formula_structural   Ba4Y2O7
_chemical_formula_sum   'Ba24 Y12 O42'
_cell_volume   1618.92656566
_cell_formula_units_Z   6
loop_
 _symmetry_equiv_pos_site_id
 _symmetry_equiv_pos_as_xyz
  1  'x, y, z'
loop_
 _atom_site_type_symbol
 _atom_site_label
 _atom_site_symmetry_multiplicity
 _atom_site_fract_x
 _atom_site_fract_y
 _atom_site_fract_z
 _atom_site_occupancy
  Ba  Ba0  1  0.60450700  0.15157800  0.09268300  1
  Ba  Ba1  1  0.24957800  0.08316000  0.08758800  1
  Ba  Ba2  1  0.89549300  0.65157800  0.09268300  1
  Ba  Ba3  1  0.25042200  0.58316000  0.08758800  1
  Ba  Ba4  1  0.06942300  0.32810000  0.24990000  1
  Ba  Ba5  1  0.72419400  0.46961300  0.25802600  1
  Ba  Ba6  1  0.43057700  0.82810000  0.24990000  1
  Ba  Ba7  1  0.77580600  0.96961300  0.25802600  1
  Ba  Ba8  1  0.21729200  0.98980800  0.41545200  1
  Ba  Ba9  1  0.56864700  0.17483000  0.41989200  1
  Ba  Ba10  1  0.28270800  0.48980800  0.41545200  1
  Ba  Ba11  1  0.93135300  0.67483000  0.41989200  1
  Ba  Ba12  1  0.06864700  0.32517000  0.58010800  1
  Ba  Ba13  1  0.71729200  0.51019200  0.58454800  1
  Ba  Ba14  1  0.43135300  0.82517000  0.58010800  1
  Ba  Ba15  1  0.78270800  0.01019200  0.58454800  1
  Ba  Ba16  1  0.22419400  0.03038700  0.74197400  1
  Ba  Ba17  1  0.56942300  0.17190000  0.75010000  1
  Ba  Ba18  1  0.27580600  0.53038700  0.74197400  1
  Ba  Ba19  1  0.93057700  0.67190000  0.75010000  1
  Ba  Ba20  1  0.74957800  0.41684000  0.91241200  1
  Ba  Ba21  1  0.10450700  0.34842200  0.90731700  1
  Ba  Ba22  1  0.75042200  0.91684000  0.91241200  1
  Ba  Ba23  1  0.39549300  0.84842200  0.90731700  1
  Y  Y0  1  0.92947500  0.17245900  0.08670500  1
  Y  Y1  1  0.57052500  0.67245900  0.08670500  1
  Y  Y2  1  0.42525500  0.31815600  0.24065600  1
  Y  Y3  1  0.07474500  0.81815600  0.24065600  1
  Y  Y4  1  0.92300200  0.18144800  0.41716300  1
  Y  Y5  1  0.57699800  0.68144800  0.41716300  1
  Y  Y6  1  0.42300200  0.31855200  0.58283700  1
  Y  Y7  1  0.07699800  0.81855200  0.58283700  1
  Y  Y8  1  0.92525500  0.18184400  0.75934400  1
  Y  Y9  1  0.57474500  0.68184400  0.75934400  1
  Y  Y10  1  0.42947500  0.32754100  0.91329500  1
  Y  Y11  1  0.07052500  0.82754100  0.91329500  1
  O  O0  1  0.81183600  0.15042300  0.99901500  1
  O  O1  1  0.68816400  0.65042300  0.99901500  1
  O  O2  1  0.05911800  0.37999400  0.08285300  1
  O  O3  1  0.44088200  0.87999400  0.08285300  1
  O  O4  1  0.80453400  0.26457900  0.15806500  1
  O  O5  1  0.48064400  0.44609100  0.14048500  1
  O  O6  1  0.69546600  0.76457900  0.15806500  1
  O  O7  1  0.01935600  0.94609100  0.14048500  1
  O  O8  1  0.27086200  0.14366600  0.23440900  1
  O  O9  1  0.55414900  0.11736400  0.23363400  1
  O  O10  1  0.22913800  0.64366600  0.23440900  1
  O  O11  1  0.94585100  0.61736400  0.23363400  1
  O  O12  1  0.49087100  0.46369200  0.33228200  1
  O  O13  1  0.76788500  0.21183100  0.35104100  1
  O  O14  1  0.00912900  0.96369200  0.33228200  1
  O  O15  1  0.73211500  0.71183100  0.35104100  1
  O  O16  1  0.06166100  0.37092000  0.38881600  1
  O  O17  1  0.43833900  0.87092000  0.38881600  1
  O  O18  1  0.33280200  0.19602800  0.49199000  1
  O  O19  1  0.83280200  0.30397200  0.50801000  1
  O  O20  1  0.50000000  0.50000000  0.50000000  1
  O  O21  1  0.16719800  0.69602800  0.49199000  1
  O  O22  1  0.66719800  0.80397200  0.50801000  1
  O  O23  1  0.00000000  0.00000000  0.50000000  1
  O  O24  1  0.56166100  0.12908000  0.61118400  1
  O  O25  1  0.93833900  0.62908000  0.61118400  1
  O  O26  1  0.26788500  0.28816900  0.64895900  1
  O  O27  1  0.99087100  0.03630800  0.66771800  1
  O  O28  1  0.23211500  0.78816900  0.64895900  1
  O  O29  1  0.50912900  0.53630800  0.66771800  1
  O  O30  1  0.05414900  0.38263600  0.76636600  1
  O  O31  1  0.77086200  0.35633400  0.76559100  1
  O  O32  1  0.44585100  0.88263600  0.76636600  1
  O  O33  1  0.72913800  0.85633400  0.76559100  1
  O  O34  1  0.98064400  0.05390900  0.85951500  1
  O  O35  1  0.30453400  0.23542100  0.84193500  1
  O  O36  1  0.51935600  0.55390900  0.85951500  1
  O  O37  1  0.19546600  0.73542100  0.84193500  1
  O  O38  1  0.55911800  0.12000600  0.91714700  1
  O  O39  1  0.94088200  0.62000600  0.91714700  1
  O  O40  1  0.31183600  0.34957700  0.00098500  1
  O  O41  1  0.18816400  0.84957700  0.00098500  1
loop_
_geom_bond_atom_site_label_1
_geom_bond_atom_site_label_2
_geom_bond_distance
_geom_bond_site_symmetry_2
Ba0 O4 2.730814 1_555
Ba0 O9 2.734442 1_555
Ba0 O3 2.776554 1_545
Ba0 O5 2.820287 1_555
Ba0 O0 2.935753 1_554
Ba0 O6 3.291903 1_545
Ba0 O38 3.390652 1_554
Ba1 O41 2.569471 1_545
Ba1 O40 2.635282 1_555
Ba1 O3 2.653129 1_545
Ba1 O8 2.856340 1_555
Ba1 O7 2.951748 1_545
Ba1 O2 3.107344 1_555
Ba2 O6 2.730814 1_555
Ba2 O11 2.734442 1_555
Ba2 O2 2.776554 1_655
Ba2 O7 2.820287 1_655
Ba2 O1 2.935753 1_554
Ba2 O4 3.291903 1_555
Ba2 O39 3.390652 1_554
Ba3 O40 2.569471 1_555
Ba3 O41 2.635282 1_555
Ba3 O2 2.653129 1_555
Ba3 O10 2.856340 1_555
Ba3 O5 2.951748 1_555
Ba3 O3 3.107344 1_555
Ba4 O11 2.602823 1_455
Ba4 O16 2.673682 1_555
Ba4 O8 2.689320 1_555
Ba4 O10 2.996166 1_555
Ba4 O2 3.177558 1_555
Ba4 O14 3.179694 1_545
Ba5 O15 2.610538 1_555
Ba5 O13 2.614755 1_555
Ba5 O4 2.669218 1_555
Ba5 O11 2.766665 1_555
Ba5 O6 2.878380 1_555
Ba5 O12 2.982055 1_555
Ba6 O9 2.602823 1_565
Ba6 O17 2.673682 1_555
Ba6 O10 2.689320 1_555
Ba6 O8 2.996166 1_565
Ba6 O3 3.177558 1_555
Ba6 O12 3.179694 1_555
Ba7 O13 2.610538 1_565
Ba7 O15 2.614755 1_555
Ba7 O6 2.669218 1_555
Ba7 O9 2.766665 1_565
Ba7 O4 2.878380 1_565
Ba7 O14 2.982055 1_655
Ba8 O18 2.543848 1_565
Ba8 O21 2.658727 1_555
Ba8 O17 2.704665 1_555
Ba8 O14 2.839418 1_555
Ba8 O23 2.930322 1_565
Ba9 O13 2.605605 1_555
Ba9 O17 2.818534 1_545
Ba9 O12 2.822796 1_555
Ba9 O18 2.996798 1_555
Ba9 O20 3.058505 1_555
Ba9 O22 3.386583 1_545
Ba10 O21 2.543848 1_555
Ba10 O18 2.658727 1_555
Ba10 O16 2.704665 1_555
Ba10 O12 2.839418 1_555
Ba10 O20 2.930322 1_555
Ba11 O15 2.605605 1_555
Ba11 O16 2.818534 1_655
Ba11 O14 2.822796 1_655
Ba11 O21 2.996798 1_655
Ba11 O23 3.058505 1_665
Ba11 O19 3.386583 1_555
Ba12 O26 2.605605 1_555
Ba12 O25 2.818534 1_455
Ba12 O27 2.822796 1_455
Ba12 O19 2.996798 1_455
Ba12 O23 3.058505 1_555
Ba12 O21 3.386583 1_555
Ba13 O19 2.543848 1_555
Ba13 O22 2.658727 1_555
Ba13 O25 2.704665 1_555
Ba13 O29 2.839418 1_555
Ba13 O20 2.930322 1_555
Ba14 O28 2.605605 1_555
Ba14 O24 2.818534 1_565
Ba14 O29 2.822796 1_555
Ba14 O22 2.996798 1_555
Ba14 O20 3.058505 1_555
Ba14 O18 3.386583 1_565
Ba15 O22 2.543848 1_545
Ba15 O19 2.658727 1_555
Ba15 O24 2.704665 1_555
Ba15 O27 2.839418 1_555
Ba15 O23 2.930322 1_655
Ba16 O28 2.610538 1_545
Ba16 O26 2.614755 1_555
Ba16 O35 2.669218 1_555
Ba16 O32 2.766665 1_545
Ba16 O37 2.878380 1_545
Ba16 O27 2.982055 1_455
Ba17 O32 2.602823 1_545
Ba17 O24 2.673682 1_555
Ba17 O31 2.689320 1_555
Ba17 O33 2.996166 1_545
Ba17 O38 3.177558 1_555
Ba17 O29 3.179694 1_555
Ba18 O26 2.610538 1_555
Ba18 O28 2.614755 1_555
Ba18 O37 2.669218 1_555
Ba18 O30 2.766665 1_555
Ba18 O35 2.878380 1_555
Ba18 O29 2.982055 1_555
Ba19 O30 2.602823 1_655
Ba19 O25 2.673682 1_555
Ba19 O33 2.689320 1_555
Ba19 O31 2.996166 1_555
Ba19 O39 3.177558 1_555
Ba19 O27 3.179694 1_565
Ba20 O1 2.569471 1_555
Ba20 O0 2.635282 1_555
Ba20 O39 2.653129 1_555
Ba20 O31 2.856340 1_555
Ba20 O36 2.951748 1_555
Ba20 O38 3.107344 1_555
Ba21 O35 2.730814 1_555
Ba21 O30 2.734442 1_555
Ba21 O39 2.776554 1_455
Ba21 O34 2.820287 1_455
Ba21 O40 2.935753 1_556
Ba21 O37 3.291903 1_555
Ba21 O2 3.390652 1_556
Ba22 O0 2.569471 1_565
Ba22 O1 2.635282 1_555
Ba22 O38 2.653129 1_565
Ba22 O33 2.856340 1_555
Ba22 O34 2.951748 1_565
Ba22 O39 3.107344 1_555
Ba23 O37 2.730814 1_555
Ba23 O32 2.734442 1_555
Ba23 O38 2.776554 1_565
Ba23 O36 2.820287 1_555
Ba23 O41 2.935753 1_556
Ba23 O35 3.291903 1_565
Ba23 O3 3.390652 1_556
O0 Y0 2.140538 1_556
O1 Y1 2.140538 1_556
O2 Y0 2.145299 1_455
O3 Y1 2.145299 1_555
O4 Y0 2.096828 1_555
O5 Y2 2.182339 1_555
O5 Y1 2.199771 1_555
O6 Y1 2.096828 1_555
O7 Y3 2.182339 1_555
O7 Y0 2.199771 1_465
O8 Y2 2.191998 1_555
O9 Y2 2.112645 1_555
O10 Y3 2.191998 1_555
O11 Y3 2.112645 1_655
O12 Y2 2.230854 1_555
O12 Y5 2.554109 1_555
O13 Y4 2.157274 1_555
O14 Y3 2.230854 1_555
O14 Y4 2.554109 1_465
O15 Y5 2.157274 1_555
O16 Y4 2.171780 1_455
O17 Y5 2.171780 1_555
O18 Y6 2.241893 1_555
O19 Y4 2.241893 1_555
O20 Y6 2.214255 1_555
O20 Y5 2.214255 1_555
O21 Y7 2.241893 1_555
O22 Y5 2.241893 1_555
O23 Y7 2.214255 1_545
O23 Y4 2.214255 1_455
O24 Y6 2.171780 1_555
O25 Y7 2.171780 1_655
O26 Y6 2.157274 1_555
O27 Y8 2.230854 1_555
O27 Y7 2.554109 1_645
O28 Y7 2.157274 1_555
O29 Y9 2.230854 1_555
O29 Y6 2.554109 1_555
O30 Y8 2.112645 1_455
O31 Y8 2.191998 1_555
O32 Y9 2.112645 1_555
O33 Y9 2.191998 1_555
O34 Y8 2.182339 1_555
O34 Y11 2.199771 1_645
O35 Y10 2.096828 1_555
O36 Y9 2.182339 1_555
O36 Y10 2.199771 1_555
O37 Y11 2.096828 1_555
O38 Y10 2.145299 1_555
O39 Y11 2.145299 1_655
O40 Y10 2.140538 1_554
O41 Y11 2.140538 1_554
