# generated using pymatgen
data_LiVCuO4
_symmetry_space_group_name_H-M   'P 1'
_cell_length_a   6.16601131
_cell_length_b   6.16601131
_cell_length_c   6.16601131
_cell_angle_alpha   125.49443394
_cell_angle_beta   124.98213110
_cell_angle_gamma   81.14439655
_symmetry_Int_Tables_number   1
_chemical_formula_structural   LiVCuO4
_chemical_formula_sum   'Li2 V2 Cu2 O8'
_cell_volume   150.65133675
_cell_formula_units_Z   2
loop_
 _symmetry_equiv_pos_site_id
 _symmetry_equiv_pos_as_xyz
  1  'x, y, z'
loop_
 _atom_site_type_symbol
 _atom_site_label
 _atom_site_symmetry_multiplicity
 _atom_site_fract_x
 _atom_site_fract_y
 _atom_site_fract_z
 _atom_site_occupancy
  Li  Li0  1  0.40005400  0.15005400  0.25000000  1
  Li  Li1  1  0.59994600  0.84994600  0.75000000  1
  V  V0  1  0.50000000  0.50000000  0.00000000  1
  V  V1  1  0.00000000  0.50000000  0.50000000  1
  Cu  Cu0  1  0.00000000  0.00000000  0.50000000  1
  Cu  Cu1  1  0.00000000  0.50000000  0.00000000  1
  O  O0  1  0.25791100  0.28778700  0.97012400  1
  O  O1  1  0.26523600  0.29251200  0.52727700  1
  O  O2  1  0.26523600  0.73795900  0.97272300  1
  O  O3  1  0.81766300  0.28778700  0.52987600  1
  O  O4  1  0.18233700  0.71221300  0.47012400  1
  O  O5  1  0.73476400  0.70748800  0.47272300  1
  O  O6  1  0.73476400  0.26204100  0.02727700  1
  O  O7  1  0.74208900  0.71221300  0.02987600  1
loop_
_geom_bond_atom_site_label_1
_geom_bond_atom_site_label_2
_geom_bond_distance
_geom_bond_site_symmetry_2
Li0 O2 2.011607 1_544
Li0 O1 2.011608 1_555
Li0 O0 2.050841 1_554
Li0 O3 2.050841 1_555
Li1 O6 2.011607 1_566
Li1 O5 2.011608 1_555
Li1 O4 2.050841 1_555
Li1 O7 2.050841 1_556
Cu0 O3 1.921051 1_455
Cu0 O0 1.921051 1_555
Cu0 O4 1.921051 1_545
Cu0 O7 1.921051 1_445
Cu0 O1 2.489296 1_555
Cu0 O5 2.489296 1_445
Cu1 O3 1.921051 1_454
Cu1 O4 1.921051 1_555
Cu1 O7 1.921051 1_455
Cu1 O0 1.921051 1_554
Cu1 O2 2.489301 1_554
Cu1 O6 2.489301 1_455
O0 V0 1.995122 1_556
O1 V0 1.905261 1_556
O1 V1 1.905265 1_555
O2 V0 1.905261 1_556
O2 V1 1.905261 1_555
O3 V1 1.995122 1_655
O4 V1 1.995122 1_555
O5 V0 1.905261 1_555
O5 V1 1.905265 1_655
O6 V1 1.905261 1_655
O6 V0 1.905261 1_555
O7 V0 1.995122 1_555
