# generated using pymatgen
data_LaTa2NO5
_symmetry_space_group_name_H-M   'P 1'
_cell_length_a   5.52784400
_cell_length_b   7.74141368
_cell_length_c   11.31722639
_cell_angle_alpha   89.96766149
_cell_angle_beta   89.59580040
_cell_angle_gamma   89.96225386
_symmetry_Int_Tables_number   1
_chemical_formula_structural   LaTa2NO5
_chemical_formula_sum   'La4 Ta8 N4 O20'
_cell_volume   484.28953918
_cell_formula_units_Z   4
loop_
 _symmetry_equiv_pos_site_id
 _symmetry_equiv_pos_as_xyz
  1  'x, y, z'
loop_
 _atom_site_type_symbol
 _atom_site_label
 _atom_site_symmetry_multiplicity
 _atom_site_fract_x
 _atom_site_fract_y
 _atom_site_fract_z
 _atom_site_occupancy
  La  La0  1  0.44607900  0.25221500  0.96514000  1
  La  La1  1  0.95075500  0.74759800  0.53656900  1
  La  La2  1  0.04364900  0.25232900  0.45458200  1
  La  La3  1  0.55111400  0.74624100  0.04137500  1
  Ta  Ta0  1  0.96251900  0.00410100  0.85890100  1
  Ta  Ta1  1  0.95981900  0.49746000  0.85936900  1
  Ta  Ta2  1  0.45650200  0.00360100  0.64322500  1
  Ta  Ta3  1  0.45828300  0.49549400  0.64208000  1
  Ta  Ta4  1  0.53619500  0.00728500  0.35627100  1
  Ta  Ta5  1  0.53614100  0.50462700  0.34984300  1
  Ta  Ta6  1  0.04989900  0.50346800  0.14676900  1
  Ta  Ta7  1  0.03701200  0.99348200  0.14297800  1
  N  N0  1  0.04713200  0.24913800  0.85228100  1
  N  N1  1  0.45382200  0.24856800  0.35956300  1
  N  N2  1  0.37355200  0.55589200  0.20762500  1
  N  N3  1  0.94924700  0.75092700  0.14448600  1
  O  O0  1  0.22891100  0.96439000  0.97597300  1
  O  O1  1  0.22920400  0.53585800  0.97332500  1
  O  O2  1  0.84927800  0.75023000  0.87467100  1
  O  O3  1  0.62653700  0.44738100  0.78639700  1
  O  O4  1  0.62812800  0.05169900  0.78617400  1
  O  O5  1  0.13333300  0.94180600  0.71079500  1
  O  O6  1  0.13358300  0.55793200  0.71074100  1
  O  O7  1  0.54453400  0.75029800  0.64349700  1
  O  O8  1  0.35302700  0.24916000  0.62368700  1
  O  O9  1  0.73393900  0.46551600  0.53139300  1
  O  O10  1  0.72782100  0.03306600  0.52624800  1
  O  O11  1  0.27040900  0.96278400  0.47902000  1
  O  O12  1  0.27237400  0.53602800  0.47920600  1
  O  O13  1  0.65442700  0.74907700  0.38367700  1
  O  O14  1  0.87340300  0.44300600  0.29178900  1
  O  O15  1  0.87168300  0.05553600  0.29043500  1
  O  O16  1  0.36992900  0.94482200  0.21130700  1
  O  O17  1  0.14590100  0.24892600  0.11991500  1
  O  O18  1  0.77171700  0.46413200  0.01855800  1
  O  O19  1  0.77014200  0.03593300  0.02213300  1
loop_
_geom_bond_atom_site_label_1
_geom_bond_atom_site_label_2
_geom_bond_distance
_geom_bond_site_symmetry_2
La0 O17 2.404419 1_556
La0 O1 2.502508 1_555
La0 O18 2.513458 1_556
La0 O0 2.534177 1_545
La0 O19 2.537625 1_556
La0 N0 2.556405 1_555
La0 O3 2.709222 1_555
La0 O4 2.738112 1_555
La1 O13 2.391084 1_555
La1 O9 2.492605 1_555
La1 O12 2.499173 1_655
La1 O11 2.511557 1_655
La1 O10 2.532635 1_565
La1 O7 2.543396 1_555
La1 O6 2.661870 1_655
La1 O5 2.683318 1_655
La2 N1 2.502749 1_555
La2 O9 2.527314 1_455
La2 O14 2.545276 1_455
La2 O12 2.551276 1_555
La2 O10 2.563077 1_455
La2 O8 2.575667 1_555
La2 O11 2.583117 1_545
La2 O15 2.589515 1_455
La3 O2 2.496602 1_554
La3 N3 2.498605 1_555
La3 O18 2.513158 1_555
La3 O1 2.537071 1_554
La3 O19 2.557737 1_565
La3 O0 2.566191 1_554
La3 N2 2.578283 1_555
La3 O16 2.653127 1_555
N0 Ta0 1.955313 1_455
N0 Ta1 1.983248 1_455
N1 Ta4 1.922600 1_555
N1 Ta5 2.036849 1_555
N2 Ta5 1.890776 1_555
N2 Ta6 1.964329 1_555
N3 Ta7 1.939726 1_655
N3 Ta6 1.994697 1_655
O0 Ta0 2.011191 1_465
O0 Ta7 2.172578 1_556
O1 Ta1 1.999296 1_455
O1 Ta6 2.206946 1_556
O2 Ta1 2.056634 1_555
O2 Ta0 2.070226 1_565
O3 Ta3 1.921363 1_555
O3 Ta1 2.061374 1_555
O4 Ta2 1.918006 1_555
O4 Ta0 2.061614 1_555
O5 Ta0 1.977777 1_465
O5 Ta2 1.996593 1_565
O6 Ta1 1.986961 1_455
O6 Ta3 2.009647 1_555
O7 Ta2 2.020097 1_565
O7 Ta3 2.029751 1_555
O8 Ta2 1.997410 1_555
O8 Ta3 2.005501 1_555
O9 Ta3 1.979365 1_555
O9 Ta5 2.353572 1_555
O10 Ta2 2.006526 1_555
O10 Ta4 2.211756 1_555
O11 Ta4 2.044124 1_565
O11 Ta2 2.153965 1_565
O12 Ta5 2.073220 1_555
O12 Ta3 2.139607 1_555
O13 Ta5 2.039920 1_555
O13 Ta4 2.125881 1_565
O14 Ta6 1.960030 1_655
O14 Ta5 2.029004 1_555
O15 Ta7 1.956968 1_645
O15 Ta4 2.028556 1_555
O16 Ta4 1.947523 1_565
O16 Ta7 2.036044 1_555
O17 Ta6 2.062508 1_555
O17 Ta7 2.083195 1_545
O18 Ta1 2.089696 1_554
O18 Ta6 2.143682 1_655
O19 Ta7 2.044992 1_645
O19 Ta0 2.139322 1_554
