# generated using pymatgen
data_Li2V3SnO8
_symmetry_space_group_name_H-M   'P 1'
_cell_length_a   5.87579617
_cell_length_b   5.86836702
_cell_length_c   9.91510087
_cell_angle_alpha   90.10877057
_cell_angle_beta   89.94568392
_cell_angle_gamma   119.95817436
_symmetry_Int_Tables_number   1
_chemical_formula_structural   Li2V3SnO8
_chemical_formula_sum   'Li4 V6 Sn2 O16'
_cell_volume   296.20600592
_cell_formula_units_Z   2
loop_
 _symmetry_equiv_pos_site_id
 _symmetry_equiv_pos_as_xyz
  1  'x, y, z'
loop_
 _atom_site_type_symbol
 _atom_site_label
 _atom_site_symmetry_multiplicity
 _atom_site_fract_x
 _atom_site_fract_y
 _atom_site_fract_z
 _atom_site_occupancy
  Li  Li0  1  0.33320300  0.66902000  0.89490000  1
  Li  Li1  1  0.00134800  0.99721800  0.99192000  1
  Li  Li2  1  0.99865200  0.99587000  0.49192000  1
  Li  Li3  1  0.66679700  0.33581700  0.39490000  1
  V  V0  1  0.17664100  0.82468200  0.21539100  1
  V  V1  1  0.64729000  0.82358500  0.21346300  1
  V  V2  1  0.35271000  0.17629400  0.71346300  1
  V  V3  1  0.82420500  0.17685800  0.71342800  1
  V  V4  1  0.17579500  0.35265300  0.21342800  1
  V  V5  1  0.82335900  0.64804100  0.71539100  1
  Sn  Sn0  1  0.33393000  0.66639200  0.49428400  1
  Sn  Sn1  1  0.66607000  0.33246100  0.99428400  1
  O  O0  1  0.16127500  0.83928200  0.60481400  1
  O  O1  1  0.03381300  0.51709400  0.34036100  1
  O  O2  1  0.33200200  0.66835200  0.09676100  1
  O  O3  1  0.00048100  0.99997700  0.30315500  1
  O  O4  1  0.99951900  0.99949600  0.80315500  1
  O  O5  1  0.16058200  0.31957900  0.60341800  1
  O  O6  1  0.48462600  0.96770600  0.33979300  1
  O  O7  1  0.48277300  0.51634900  0.33877300  1
  O  O8  1  0.31990500  0.16009600  0.10345800  1
  O  O9  1  0.68009500  0.84019200  0.60345800  1
  O  O10  1  0.51537400  0.48308000  0.83979300  1
  O  O11  1  0.51722700  0.03357600  0.83877300  1
  O  O12  1  0.66799800  0.33635000  0.59676100  1
  O  O13  1  0.83872500  0.67800700  0.10481400  1
  O  O14  1  0.96618700  0.48328100  0.84036100  1
  O  O15  1  0.83941800  0.15899600  0.10341800  1
loop_
_geom_bond_atom_site_label_1
_geom_bond_atom_site_label_2
_geom_bond_distance
_geom_bond_site_symmetry_2
Li0 O11 1.936168 1_565
Li0 O14 1.945099 1_455
Li0 O10 1.948864 1_555
Li0 O2 2.001482 1_556
Li1 O4 1.871777 1_455
Li1 O8 1.962974 1_566
Li1 O13 1.973145 1_456
Li1 O15 1.981145 1_466
Li2 O3 1.871777 1_655
Li2 O9 1.962974 1_555
Li2 O0 1.973145 1_655
Li2 O5 1.981150 1_665
Li3 O7 1.936168 1_555
Li3 O1 1.945099 1_655
Li3 O6 1.948864 1_545
Li3 O12 2.001482 1_555
O0 V2 2.027194 1_565
O0 V5 2.044241 1_455
O0 Sn0 2.069115 1_555
O1 V0 1.997852 1_555
O1 V4 2.002150 1_555
O1 Sn0 2.159499 1_555
O2 V0 1.971990 1_555
O2 V1 1.978723 1_555
O2 V4 1.980063 1_555
O3 V0 1.986244 1_555
O3 V4 2.002994 1_565
O3 V1 2.005910 1_455
O4 V5 1.986244 1_555
O4 V3 2.002994 1_565
O4 V2 2.005910 1_665
O5 V2 2.031213 1_555
O5 V3 2.035634 1_455
O5 Sn0 2.070360 1_555
O6 V0 1.996015 1_555
O6 V1 1.999701 1_555
O6 Sn0 2.168188 1_555
O7 V4 1.997509 1_555
O7 V1 1.998606 1_555
O7 Sn0 2.163106 1_555
O8 V4 2.032728 1_555
O8 V0 2.041165 1_545
O8 Sn1 2.068142 1_554
O9 V3 2.032724 1_565
O9 V5 2.041169 1_555
O9 Sn0 2.068142 1_555
O10 V5 1.996015 1_555
O10 V2 1.999705 1_555
O10 Sn1 2.168192 1_555
O11 V3 1.997509 1_555
O11 V2 1.998602 1_555
O11 Sn1 2.163102 1_555
O12 V5 1.971991 1_555
O12 V2 1.978723 1_555
O12 V3 1.980063 1_555
O13 V1 2.027198 1_555
O13 V0 2.044241 1_655
O13 Sn1 2.069120 1_554
O14 V5 1.997852 1_555
O14 V3 2.002150 1_555
O14 Sn1 2.159499 1_555
O15 V1 2.031205 1_545
O15 V4 2.035635 1_655
O15 Sn1 2.070359 1_554
