# generated using pymatgen
data_K2W3O10
_symmetry_space_group_name_H-M   'P 1'
_cell_length_a   3.88825900
_cell_length_b   11.29373200
_cell_length_c   33.20060235
_cell_angle_alpha   70.70714367
_cell_angle_beta   90.00000000
_cell_angle_gamma   90.00000000
_symmetry_Int_Tables_number   1
_chemical_formula_structural   K2W3O10
_chemical_formula_sum   'K12 W18 O60'
_cell_volume   1376.06198164
_cell_formula_units_Z   6
loop_
 _symmetry_equiv_pos_site_id
 _symmetry_equiv_pos_as_xyz
  1  'x, y, z'
loop_
 _atom_site_type_symbol
 _atom_site_label
 _atom_site_symmetry_multiplicity
 _atom_site_fract_x
 _atom_site_fract_y
 _atom_site_fract_z
 _atom_site_occupancy
  K  K0  1  0.51601600  0.36421500  0.04745900  1
  K  K1  1  0.50512500  0.71428400  0.65202800  1
  K  K2  1  0.53565600  0.11318500  0.15240100  1
  K  K3  1  0.53565600  0.88681500  0.34759900  1
  K  K4  1  0.50512500  0.28571600  0.84797200  1
  K  K5  1  0.51601600  0.63578500  0.45254100  1
  K  K6  1  0.48398400  0.36421500  0.54745900  1
  K  K7  1  0.49487500  0.71428400  0.15202800  1
  K  K8  1  0.46434400  0.11318500  0.65240100  1
  K  K9  1  0.46434400  0.88681500  0.84759900  1
  K  K10  1  0.49487500  0.28571600  0.34797200  1
  K  K11  1  0.48398400  0.63578500  0.95254100  1
  W  W0  1  0.96692700  0.59803300  0.84888600  1
  W  W1  1  0.03728800  0.99389100  0.44856300  1
  W  W2  1  0.03492000  0.15273300  0.26427500  1
  W  W3  1  0.03067400  0.70686200  0.55430600  1
  W  W4  1  0.02927300  0.50000000  0.75000000  1
  W  W5  1  0.03067400  0.29313800  0.94569400  1
  W  W6  1  0.96692700  0.40196700  0.65111400  1
  W  W7  1  0.03492000  0.84726700  0.23572500  1
  W  W8  1  0.03728800  0.00610900  0.05143700  1
  W  W9  1  0.96271200  0.99389100  0.94856300  1
  W  W10  1  0.96508000  0.15273300  0.76427500  1
  W  W11  1  0.03307300  0.59803300  0.34888600  1
  W  W12  1  0.96932600  0.70686200  0.05430600  1
  W  W13  1  0.97072700  0.50000000  0.25000000  1
  W  W14  1  0.96932600  0.29313800  0.44569400  1
  W  W15  1  0.96508000  0.84726700  0.73572500  1
  W  W16  1  0.96271200  0.00610900  0.55143700  1
  W  W17  1  0.03307300  0.40196700  0.15111400  1
  O  O0  1  0.99646900  0.83933500  0.58953500  1
  O  O1  1  0.48223300  0.58446900  0.84861700  1
  O  O2  1  0.01128900  0.33528500  0.10844200  1
  O  O3  1  0.99391700  0.68203000  0.72959900  1
  O  O4  1  0.01481900  0.25000700  0.19708700  1
  O  O5  1  0.00256900  0.87958000  0.50907100  1
  O  O6  1  0.51938500  0.99499500  0.45286400  1
  O  O7  1  0.52066000  0.15791800  0.25940200  1
  O  O8  1  0.02049200  0.07430100  0.32073200  1
  O  O9  1  0.01420200  0.38200300  0.98179000  1
  O  O10  1  0.99424000  0.49557000  0.80786500  1
  O  O11  1  0.99975700  0.41887700  0.89223400  1
  O  O12  1  0.51413300  0.71801800  0.55602600  1
  O  O13  1  0.01802300  0.89283700  0.41737400  1
  O  O14  1  0.50670500  0.50000000  0.75000000  1
  O  O15  1  0.01075400  0.00000000  0.25000000  1
  O  O16  1  0.51413300  0.28198200  0.94397400  1
  O  O17  1  0.99975700  0.58112300  0.60776600  1
  O  O18  1  0.99424000  0.50443000  0.69213500  1
  O  O19  1  0.01802300  0.10716300  0.08262600  1
  O  O20  1  0.01420200  0.61799700  0.51821000  1
  O  O21  1  0.00256900  0.12042000  0.99092900  1
  O  O22  1  0.99391700  0.31797000  0.77040100  1
  O  O23  1  0.48223300  0.41553100  0.65138300  1
  O  O24  1  0.02049200  0.92569900  0.17926800  1
  O  O25  1  0.52066000  0.84208200  0.24059800  1
  O  O26  1  0.99646900  0.16066500  0.91046500  1
  O  O27  1  0.51938500  0.00500500  0.04713600  1
  O  O28  1  0.01481900  0.74999300  0.30291300  1
  O  O29  1  0.01128900  0.66471500  0.39155800  1
  O  O30  1  0.98871100  0.33528500  0.60844200  1
  O  O31  1  0.98518100  0.25000700  0.69708700  1
  O  O32  1  0.48061500  0.99499500  0.95286400  1
  O  O33  1  0.00353100  0.83933500  0.08953500  1
  O  O34  1  0.47934000  0.15791800  0.75940200  1
  O  O35  1  0.97950800  0.07430100  0.82073200  1
  O  O36  1  0.51776700  0.58446900  0.34861700  1
  O  O37  1  0.00608300  0.68203000  0.22959900  1
  O  O38  1  0.99743100  0.87958000  0.00907100  1
  O  O39  1  0.98579800  0.38200300  0.48179000  1
  O  O40  1  0.98197700  0.89283700  0.91737400  1
  O  O41  1  0.00576000  0.49557000  0.30786500  1
  O  O42  1  0.00024300  0.41887700  0.39223400  1
  O  O43  1  0.48586700  0.71801800  0.05602600  1
  O  O44  1  0.98924600  0.00000000  0.75000000  1
  O  O45  1  0.49329500  0.50000000  0.25000000  1
  O  O46  1  0.98197700  0.10716300  0.58262600  1
  O  O47  1  0.48586700  0.28198200  0.44397400  1
  O  O48  1  0.00024300  0.58112300  0.10776600  1
  O  O49  1  0.00576000  0.50443000  0.19213500  1
  O  O50  1  0.98579800  0.61799700  0.01821000  1
  O  O51  1  0.97950800  0.92569900  0.67926800  1
  O  O52  1  0.47934000  0.84208200  0.74059800  1
  O  O53  1  0.48061500  0.00500500  0.54713600  1
  O  O54  1  0.99743100  0.12042000  0.49092900  1
  O  O55  1  0.98518100  0.74999300  0.80291300  1
  O  O56  1  0.00608300  0.31797000  0.27040100  1
  O  O57  1  0.98871100  0.66471500  0.89155800  1
  O  O58  1  0.51776700  0.41553100  0.15138300  1
  O  O59  1  0.00353100  0.16066500  0.41046500  1
loop_
_geom_bond_atom_site_label_1
_geom_bond_atom_site_label_2
_geom_bond_distance
_geom_bond_site_symmetry_2
K0 O2 2.734490 1_655
K0 O2 2.760501 1_555
K0 O9 2.873445 1_654
K0 O9 2.882974 1_554
K1 O0 2.830727 1_555
K1 O0 2.876586 1_455
K1 O18 2.986911 1_555
K1 O18 3.041508 1_455
K1 O17 3.095229 1_555
K1 O17 3.121339 1_455
K1 O3 3.123711 1_555
K1 O12 3.173834 1_555
K1 O3 3.177494 1_455
K1 O14 3.351919 1_555
K1 O51 3.368682 1_555
K1 O23 3.382343 1_555
K1 O51 3.481752 1_455
K2 O24 2.754072 1_645
K2 O24 2.836094 1_545
K2 O19 2.998832 1_655
K2 O2 3.069685 1_655
K2 O19 3.086449 1_555
K2 O4 3.094328 1_655
K2 O2 3.187437 1_555
K2 O4 3.194514 1_555
K3 O8 2.754072 1_665
K3 O8 2.836094 1_565
K3 O13 2.998832 1_655
K3 O29 3.069685 1_655
K3 O13 3.086449 1_555
K3 O28 3.094328 1_655
K3 O29 3.187437 1_555
K3 O28 3.194514 1_555
K4 O26 2.830727 1_555
K4 O26 2.876586 1_455
K4 O10 2.986911 1_555
K4 O10 3.041508 1_455
K4 O11 3.095229 1_555
K4 O11 3.121339 1_455
K4 O22 3.123711 1_555
K4 O16 3.173834 1_555
K4 O22 3.177494 1_455
K4 O14 3.351919 1_555
K4 O35 3.368682 1_555
K4 O1 3.382343 1_555
K4 O35 3.481752 1_455
K5 O29 2.734490 1_655
K5 O29 2.760501 1_555
K5 O20 2.873445 1_655
K5 O20 2.882974 1_555
K6 O30 2.734490 1_455
K6 O30 2.760501 1_555
K6 O39 2.873445 1_455
K6 O39 2.882974 1_555
K7 O33 2.830727 1_555
K7 O33 2.876586 1_655
K7 O49 2.986911 1_555
K7 O49 3.041508 1_655
K7 O48 3.095229 1_555
K7 O48 3.121339 1_655
K7 O37 3.123711 1_555
K7 O43 3.173834 1_555
K7 O37 3.177494 1_655
K7 O45 3.351919 1_555
K7 O24 3.368682 1_555
K7 O58 3.382343 1_555
K7 O24 3.481752 1_655
K8 O51 2.754072 1_445
K8 O51 2.836094 1_545
K8 O46 2.998832 1_455
K8 O30 3.069685 1_455
K8 O46 3.086449 1_555
K8 O31 3.094328 1_455
K8 O30 3.187437 1_555
K8 O31 3.194514 1_555
K9 O35 2.754072 1_465
K9 O35 2.836094 1_565
K9 O40 2.998832 1_455
K9 O57 3.069685 1_455
K9 O40 3.086449 1_555
K9 O55 3.094328 1_455
K9 O57 3.187437 1_555
K9 O55 3.194514 1_555
K10 O59 2.830727 1_555
K10 O59 2.876586 1_655
K10 O41 2.986911 1_555
K10 O41 3.041508 1_655
K10 O42 3.095229 1_555
K10 O42 3.121339 1_655
K10 O56 3.123711 1_555
K10 O47 3.173834 1_555
K10 O56 3.177494 1_655
K10 O45 3.351919 1_555
K10 O8 3.368682 1_555
K10 O36 3.382343 1_555
K10 O8 3.481752 1_655
K11 O57 2.734490 1_455
K11 O57 2.760501 1_555
K11 O50 2.873445 1_456
K11 O50 2.882974 1_556
O0 W16 1.894847 1_565
O0 W3 2.186409 1_655
O1 W0 1.891092 1_555
O1 W0 2.009735 1_455
O2 W17 1.812864 1_555
O3 W4 1.945214 1_655
O3 W15 1.946080 1_555
O4 W17 1.883909 1_555
O4 W2 2.137663 1_555
O5 W1 2.001706 1_555
O5 W3 2.033861 1_555
O5 W16 2.317898 1_465
O6 W1 1.880303 1_555
O6 W1 2.019127 1_655
O7 W2 1.894853 1_555
O7 W2 2.005405 1_655
O8 W2 1.789982 1_555
O9 W5 1.800639 1_555
O10 W4 1.910071 1_655
O10 W0 2.060730 1_555
O11 W5 1.875047 1_655
O11 W0 2.063308 1_555
O12 W3 1.886157 1_555
O12 W3 2.014384 1_655
O13 W1 1.778001 1_555
O14 W4 1.856379 1_555
O14 W4 2.031880 1_655
O15 W2 1.936239 1_555
O15 W7 1.936239 1_545
O16 W5 1.886157 1_555
O16 W5 2.014384 1_655
O17 W3 1.875047 1_655
O17 W6 2.063308 1_555
O18 W4 1.910071 1_655
O18 W6 2.060730 1_555
O19 W8 1.778001 1_555
O20 W3 1.800639 1_555
O21 W8 2.001706 1_556
O21 W5 2.033861 1_555
O21 W9 2.317898 1_445
O22 W4 1.945214 1_655
O22 W10 1.946080 1_555
O23 W6 1.891092 1_555
O23 W6 2.009735 1_455
O24 W7 1.789982 1_555
O25 W7 1.894853 1_555
O25 W7 2.005405 1_655
O26 W9 1.894847 1_545
O26 W5 2.186409 1_655
O27 W8 1.880303 1_555
O27 W8 2.019127 1_655
O28 W11 1.883909 1_555
O28 W7 2.137663 1_555
O29 W11 1.812864 1_555
O30 W6 1.812864 1_555
O31 W6 1.883909 1_555
O31 W10 2.137663 1_555
O32 W9 1.880303 1_555
O32 W9 2.019127 1_455
O33 W8 1.894847 1_565
O33 W12 2.186409 1_455
O34 W10 1.894853 1_555
O34 W10 2.005405 1_455
O35 W10 1.789982 1_555
O36 W11 1.891092 1_555
O36 W11 2.009735 1_655
O37 W13 1.945214 1_455
O37 W7 1.946080 1_555
O38 W9 2.001706 1_554
O38 W12 2.033861 1_555
O38 W8 2.317898 1_665
O39 W14 1.800639 1_555
O40 W9 1.778001 1_555
O41 W13 1.910071 1_455
O41 W11 2.060730 1_555
O42 W14 1.875047 1_455
O42 W11 2.063308 1_555
O43 W12 1.886157 1_555
O43 W12 2.014384 1_455
O44 W10 1.936239 1_555
O44 W15 1.936239 1_545
O45 W13 1.856379 1_555
O45 W13 2.031880 1_455
O46 W16 1.778001 1_555
O47 W14 1.886157 1_555
O47 W14 2.014384 1_455
O48 W12 1.875047 1_455
O48 W17 2.063308 1_555
O49 W13 1.910071 1_455
O49 W17 2.060730 1_555
O50 W12 1.800639 1_555
O51 W15 1.789982 1_555
O52 W15 1.894853 1_555
O52 W15 2.005405 1_455
O53 W16 1.880303 1_555
O53 W16 2.019127 1_455
O54 W16 2.001706 1_555
O54 W14 2.033861 1_555
O54 W1 2.317898 1_645
O55 W0 1.883909 1_555
O55 W15 2.137663 1_555
O56 W13 1.945214 1_455
O56 W2 1.946080 1_555
O57 W0 1.812864 1_555
O58 W17 1.891092 1_555
O58 W17 2.009735 1_655
O59 W1 1.894847 1_545
O59 W14 2.186409 1_455
