# generated using pymatgen
data_Li7Fe4(PO4)6
_symmetry_space_group_name_H-M   'P 1'
_cell_length_a   8.70072279
_cell_length_b   8.64547606
_cell_length_c   8.91799475
_cell_angle_alpha   61.50091523
_cell_angle_beta   118.89881261
_cell_angle_gamma   120.08955513
_symmetry_Int_Tables_number   1
_chemical_formula_structural   Li7Fe4(PO4)6
_chemical_formula_sum   'Li7 Fe4 P6 O24'
_cell_volume   483.11044674
_cell_formula_units_Z   1
loop_
 _symmetry_equiv_pos_site_id
 _symmetry_equiv_pos_as_xyz
  1  'x, y, z'
loop_
 _atom_site_type_symbol
 _atom_site_label
 _atom_site_symmetry_multiplicity
 _atom_site_fract_x
 _atom_site_fract_y
 _atom_site_fract_z
 _atom_site_occupancy
  Li  Li0  1  0.86692200  0.70383000  0.34382700  1
  Li  Li1  1  0.72149900  0.60278100  0.84447500  1
  Li  Li2  1  0.21478700  0.99146700  0.56588200  1
  Li  Li3  1  0.40179600  0.75100400  0.86610900  1
  Li  Li4  1  0.74182000  0.03578200  0.39716900  1
  Li  Li5  1  0.27162400  0.38690700  0.17205900  1
  Li  Li6  1  0.15486500  0.30404300  0.66055500  1
  Fe  Fe0  1  0.85558600  0.15523000  0.06182600  1
  Fe  Fe1  1  0.35737300  0.66869800  0.54130100  1
  Fe  Fe2  1  0.64056700  0.33391000  0.44673100  1
  Fe  Fe3  1  0.14126800  0.84915800  0.93890100  1
  P  P0  1  0.75854900  0.96379100  0.74947800  1
  P  P1  1  0.94876800  0.46025600  0.24665000  1
  P  P2  1  0.53737500  0.75064300  0.24702600  1
  P  P3  1  0.46517900  0.24681200  0.74759000  1
  P  P4  1  0.04661500  0.53727800  0.75536500  1
  P  P5  1  0.24543100  0.03883300  0.25336600  1
  O  O0  1  0.89414000  0.88769600  0.76132800  1
  O  O1  1  0.73629600  0.88424900  0.23210200  1
  O  O2  1  0.96305100  0.60225800  0.05953300  1
  O  O3  1  0.56948500  0.79208000  0.75295200  1
  O  O4  1  0.85713700  0.50612100  0.60282600  1
  O  O5  1  0.52031400  0.79489400  0.38697100  1
  O  O6  1  0.80820600  0.48615500  0.28526600  1
  O  O7  1  0.87854700  0.25632500  0.24569100  1
  O  O8  1  0.18778800  0.97103600  0.09771600  1
  O  O9  1  0.38180700  0.78323900  0.06241400  1
  O  O10  1  0.25116900  0.87215300  0.43451600  1
  O  O11  1  0.52131300  0.54540300  0.30211100  1
  O  O12  1  0.47752900  0.44968000  0.69973800  1
  O  O13  1  0.74000900  0.12217700  0.56515300  1
  O  O14  1  0.62245600  0.20662300  0.92441900  1
  O  O15  1  0.82586600  0.03686500  0.90362000  1
  O  O16  1  0.12775400  0.74668900  0.75305400  1
  O  O17  1  0.19872200  0.51441900  0.72933300  1
  O  O18  1  0.47370200  0.20885000  0.59790600  1
  O  O19  1  0.14190100  0.49183900  0.39916700  1
  O  O20  1  0.42997400  0.21017600  0.25823800  1
  O  O21  1  0.03273900  0.40438300  0.94481900  1
  O  O22  1  0.26443200  0.11044400  0.76112100  1
  O  O23  1  0.10341100  0.10838900  0.24088400  1
loop_
_geom_bond_atom_site_label_1
_geom_bond_atom_site_label_2
_geom_bond_distance
_geom_bond_site_symmetry_2
Li0 O6 1.947127 1_555
Li0 O1 1.979255 1_555
Li0 O4 2.130833 1_555
Li0 O11 2.516334 1_555
Li1 O12 2.022098 1_555
Li1 O2 2.049572 1_556
Li1 O0 2.120642 1_555
Li1 O3 2.224020 1_555
Li2 O16 2.020388 1_555
Li2 O18 2.081741 1_565
Li2 O10 2.091835 1_555
Li2 O22 2.193825 1_565
Li2 O23 2.415147 1_565
Li3 O3 1.958248 1_555
Li3 O9 1.995279 1_556
Li3 O16 2.079974 1_555
Li3 O17 2.338246 1_555
Li4 O7 1.922617 1_555
Li4 O13 1.976060 1_555
Li4 O5 2.011609 1_545
Li4 O1 2.365255 1_545
Li5 O11 2.009675 1_555
Li5 O23 2.059374 1_555
Li5 O21 2.097923 1_554
Li5 O20 2.188656 1_555
Li6 O22 1.963589 1_555
Li6 O17 1.993068 1_555
Li6 O19 2.097714 1_555
Li6 O12 2.348682 1_555
Fe0 O14 1.948111 1_554
Fe0 O15 1.965826 1_554
Fe0 O21 2.045721 1_654
Fe0 O23 2.072161 1_655
Fe0 O7 2.090066 1_555
Fe0 O1 2.135873 1_545
Fe1 O5 1.999117 1_555
Fe1 O10 2.008845 1_555
Fe1 O19 2.034144 1_555
Fe1 O12 2.163062 1_555
Fe1 O3 2.164960 1_555
Fe1 O17 2.180157 1_555
Fe2 O18 2.005308 1_555
Fe2 O13 2.018631 1_555
Fe2 O20 2.025100 1_555
Fe2 O6 2.056611 1_555
Fe2 O4 2.081975 1_555
Fe2 O11 2.107547 1_555
Fe3 O8 1.929367 1_556
Fe3 O0 2.041049 1_455
Fe3 O2 2.054311 1_456
Fe3 O9 2.070494 1_556
Fe3 O22 2.135870 1_565
Fe3 O16 2.157289 1_555
O0 P0 1.557927 1_555
O1 P2 1.555252 1_555
O2 P1 1.549091 1_555
O3 P0 1.570828 1_555
O4 P4 1.542002 1_655
O5 P2 1.554867 1_555
O6 P1 1.555531 1_555
O7 P1 1.552753 1_555
O8 P5 1.526650 1_565
O9 P2 1.551747 1_555
O10 P5 1.568917 1_565
O11 P2 1.547652 1_555
O12 P3 1.552703 1_555
O13 P0 1.555749 1_545
O14 P3 1.532405 1_555
O15 P0 1.520307 1_545
O16 P4 1.572719 1_555
O17 P4 1.564430 1_555
O18 P3 1.559899 1_555
O19 P1 1.559981 1_455
O20 P5 1.543835 1_555
O21 P4 1.547522 1_555
O22 P3 1.567938 1_555
O23 P5 1.564979 1_555
