# generated using pymatgen
data_K3BaPCO7
_symmetry_space_group_name_H-M   'P 1'
_cell_length_a   7.85202400
_cell_length_b   5.81913100
_cell_length_c   10.24431724
_cell_angle_alpha   88.76304916
_cell_angle_beta   90.00000000
_cell_angle_gamma   90.00000000
_symmetry_Int_Tables_number   1
_chemical_formula_structural   K3BaPCO7
_chemical_formula_sum   'K6 Ba2 P2 C2 O14'
_cell_volume   467.97381769
_cell_formula_units_Z   2
loop_
 _symmetry_equiv_pos_site_id
 _symmetry_equiv_pos_as_xyz
  1  'x, y, z'
loop_
 _atom_site_type_symbol
 _atom_site_label
 _atom_site_symmetry_multiplicity
 _atom_site_fract_x
 _atom_site_fract_y
 _atom_site_fract_z
 _atom_site_occupancy
  K  K0  1  0.25000000  0.76118500  0.91562900  1
  K  K1  1  0.00732200  0.25178200  0.74626100  1
  K  K2  1  0.49267800  0.25178200  0.74626100  1
  K  K3  1  0.50732200  0.74821800  0.25373900  1
  K  K4  1  0.99267800  0.74821800  0.25373900  1
  K  K5  1  0.75000000  0.23881500  0.08437100  1
  Ba  Ba0  1  0.75000000  0.76715300  0.62700000  1
  Ba  Ba1  1  0.25000000  0.23284700  0.37300000  1
  P  P0  1  0.25000000  0.70141600  0.59436500  1
  P  P1  1  0.75000000  0.29858400  0.40563500  1
  C  C0  1  0.75000000  0.73767000  0.94038200  1
  C  C1  1  0.25000000  0.26233000  0.05961800  1
  O  O0  1  0.25000000  0.27770500  0.93223900  1
  O  O1  1  0.75000000  0.93927600  0.88184600  1
  O  O2  1  0.75000000  0.55094600  0.87142700  1
  O  O3  1  0.08829800  0.78590100  0.66790000  1
  O  O4  1  0.41170200  0.78590100  0.66790000  1
  O  O5  1  0.25000000  0.43271900  0.59550300  1
  O  O6  1  0.75000000  0.21219000  0.55201200  1
  O  O7  1  0.25000000  0.78781000  0.44798800  1
  O  O8  1  0.75000000  0.56728100  0.40449700  1
  O  O9  1  0.58829800  0.21409900  0.33210000  1
  O  O10  1  0.91170200  0.21409900  0.33210000  1
  O  O11  1  0.25000000  0.44905400  0.12857300  1
  O  O12  1  0.25000000  0.06072400  0.11815400  1
  O  O13  1  0.75000000  0.72229500  0.06776100  1
loop_
_geom_bond_atom_site_label_1
_geom_bond_atom_site_label_2
_geom_bond_distance
_geom_bond_site_symmetry_2
K0 O12 2.738410 1_566
K0 O11 2.808342 1_556
K0 O0 2.814905 1_555
K0 O3 2.838580 1_555
K0 O4 2.838580 1_555
K0 O0 3.014175 1_565
K1 O5 2.656045 1_555
K1 O0 2.701111 1_555
K1 O6 2.848716 1_455
K1 O3 2.914154 1_545
K1 O2 2.975495 1_455
K1 O1 3.034733 1_445
K1 O3 3.255965 1_555
K2 O5 2.656045 1_555
K2 O0 2.701111 1_555
K2 O6 2.848716 1_555
K2 O4 2.914154 1_545
K2 O2 2.975495 1_555
K2 O1 3.034733 1_545
K2 O4 3.255965 1_555
K3 O8 2.656045 1_555
K3 O13 2.701111 1_555
K3 O7 2.848716 1_555
K3 O9 2.914154 1_565
K3 O11 2.975495 1_555
K3 O12 3.034733 1_565
K3 O9 3.255965 1_555
K4 O8 2.656045 1_555
K4 O13 2.701111 1_555
K4 O7 2.848716 1_655
K4 O10 2.914154 1_565
K4 O11 2.975495 1_655
K4 O12 3.034733 1_665
K4 O10 3.255965 1_555
K5 O1 2.738410 1_544
K5 O2 2.808342 1_554
K5 O13 2.814905 1_555
K5 O9 2.838580 1_555
K5 O10 2.838580 1_555
K5 O13 3.014175 1_545
Ba0 O8 2.581248 1_555
Ba0 O6 2.685318 1_565
Ba0 O3 2.691744 1_655
Ba0 O4 2.691744 1_555
Ba0 O2 2.777922 1_555
Ba0 O1 2.816379 1_555
Ba1 O5 2.581248 1_555
Ba1 O7 2.685318 1_545
Ba1 O10 2.691744 1_455
Ba1 O9 2.691744 1_555
Ba1 O11 2.777922 1_555
Ba1 O12 2.816379 1_555
C0 O1 1.305968 1_555
C0 O13 1.306046 1_556
C0 O2 1.308729 1_555
C1 O12 1.305968 1_555
C1 O0 1.306046 1_554
C1 O11 1.308729 1_555
O3 P0 1.561180 1_555
O4 P0 1.561180 1_555
O5 P0 1.563375 1_555
O6 P1 1.571240 1_555
O7 P0 1.571240 1_555
O8 P1 1.563375 1_555
O9 P1 1.561180 1_555
O10 P1 1.561180 1_555
