# generated using pymatgen
data_LiNiPO4
_symmetry_space_group_name_H-M   'P 1'
_cell_length_a   7.69323200
_cell_length_b   8.48745500
_cell_length_c   17.27548465
_cell_angle_alpha   61.97458120
_cell_angle_beta   90.00000000
_cell_angle_gamma   90.00000000
_symmetry_Int_Tables_number   1
_chemical_formula_structural   LiNiPO4
_chemical_formula_sum   'Li12 Ni12 P12 O48'
_cell_volume   995.74694159
_cell_formula_units_Z   12
loop_
 _symmetry_equiv_pos_site_id
 _symmetry_equiv_pos_as_xyz
  1  'x, y, z'
loop_
 _atom_site_type_symbol
 _atom_site_label
 _atom_site_symmetry_multiplicity
 _atom_site_fract_x
 _atom_site_fract_y
 _atom_site_fract_z
 _atom_site_occupancy
  Li  Li0  1  0.98334200  0.27639500  0.93691400  1
  Li  Li1  1  0.03194500  0.63564900  0.58577500  1
  Li  Li2  1  0.86505800  0.01421600  0.24362300  1
  Li  Li3  1  0.36505800  0.98578400  0.25637700  1
  Li  Li4  1  0.53194500  0.36435100  0.91422500  1
  Li  Li5  1  0.48334200  0.72360500  0.56308600  1
  Li  Li6  1  0.51665800  0.27639500  0.43691400  1
  Li  Li7  1  0.46805500  0.63564900  0.08577500  1
  Li  Li8  1  0.63494200  0.01421600  0.74362300  1
  Li  Li9  1  0.13494200  0.98578400  0.75637700  1
  Li  Li10  1  0.96805500  0.36435100  0.41422500  1
  Li  Li11  1  0.01665800  0.72360500  0.06308600  1
  Ni  Ni0  1  0.66975300  0.65060600  0.40166600  1
  Ni  Ni1  1  0.82784900  0.32908200  0.75677000  1
  Ni  Ni2  1  0.66671100  0.99913100  0.08115600  1
  Ni  Ni3  1  0.16671100  0.00086900  0.41884400  1
  Ni  Ni4  1  0.32784900  0.67091800  0.74323000  1
  Ni  Ni5  1  0.16975300  0.34939400  0.09833400  1
  Ni  Ni6  1  0.83024700  0.65060600  0.90166600  1
  Ni  Ni7  1  0.67215100  0.32908200  0.25677000  1
  Ni  Ni8  1  0.83328900  0.99913100  0.58115600  1
  Ni  Ni9  1  0.33328900  0.00086900  0.91884400  1
  Ni  Ni10  1  0.17215100  0.67091800  0.24323000  1
  Ni  Ni11  1  0.33024700  0.34939400  0.59833400  1
  P  P0  1  0.26070300  0.64621900  0.41281200  1
  P  P1  1  0.22382500  0.31833100  0.76876500  1
  P  P2  1  0.26645600  0.02857500  0.07530500  1
  P  P3  1  0.76645600  0.97142500  0.42469500  1
  P  P4  1  0.72382500  0.68166900  0.73123500  1
  P  P5  1  0.76070300  0.35378100  0.08718800  1
  P  P6  1  0.23929700  0.64621900  0.91281200  1
  P  P7  1  0.27617500  0.31833100  0.26876500  1
  P  P8  1  0.23354400  0.02857500  0.57530500  1
  P  P9  1  0.73354400  0.97142500  0.92469500  1
  P  P10  1  0.77617500  0.68166900  0.23123500  1
  P  P11  1  0.73929700  0.35378100  0.58718800  1
  O  O0  1  0.56804900  0.42925900  0.60436400  1
  O  O1  1  0.88856200  0.40527900  0.63181200  1
  O  O2  1  0.78426000  0.09236800  0.96643900  1
  O  O3  1  0.05059900  0.27142700  0.82082500  1
  O  O4  1  0.37196700  0.26700400  0.83701500  1
  O  O5  1  0.75959100  0.79300400  0.28128200  1
  O  O6  1  0.22514100  0.57219800  0.51181000  1
  O  O7  1  0.28094700  0.90907000  0.17604600  1
  O  O8  1  0.44384000  0.12135400  0.03820800  1
  O  O9  1  0.22888400  0.51753100  0.69759700  1
  O  O10  1  0.27214400  0.85284100  0.37052900  1
  O  O11  1  0.13111200  0.17973800  0.05022000  1
  O  O12  1  0.63111200  0.82026200  0.44978000  1
  O  O13  1  0.77214400  0.14715900  0.12947100  1
  O  O14  1  0.72888400  0.48246900  0.80240300  1
  O  O15  1  0.94384000  0.87864600  0.46179200  1
  O  O16  1  0.78094700  0.09093000  0.32395400  1
  O  O17  1  0.72514100  0.42780200  0.98819000  1
  O  O18  1  0.87196700  0.73299600  0.66298500  1
  O  O19  1  0.25959100  0.20699600  0.21871800  1
  O  O20  1  0.55059900  0.72857300  0.67917500  1
  O  O21  1  0.28426000  0.90763200  0.53356100  1
  O  O22  1  0.38856200  0.59472100  0.86818800  1
  O  O23  1  0.06804900  0.57074100  0.89563600  1
  O  O24  1  0.93195100  0.42925900  0.10436400  1
  O  O25  1  0.61143800  0.40527900  0.13181200  1
  O  O26  1  0.71574000  0.09236800  0.46643900  1
  O  O27  1  0.44940100  0.27142700  0.32082500  1
  O  O28  1  0.74040900  0.79300400  0.78128200  1
  O  O29  1  0.12803300  0.26700400  0.33701500  1
  O  O30  1  0.27485900  0.57219800  0.01181000  1
  O  O31  1  0.21905300  0.90907000  0.67604600  1
  O  O32  1  0.05616000  0.12135400  0.53820800  1
  O  O33  1  0.27111600  0.51753100  0.19759700  1
  O  O34  1  0.22785600  0.85284100  0.87052900  1
  O  O35  1  0.36888800  0.17973800  0.55022000  1
  O  O36  1  0.86888800  0.82026200  0.94978000  1
  O  O37  1  0.72785600  0.14715900  0.62947100  1
  O  O38  1  0.77111600  0.48246900  0.30240300  1
  O  O39  1  0.55616000  0.87864600  0.96179200  1
  O  O40  1  0.71905300  0.09093000  0.82395400  1
  O  O41  1  0.77485900  0.42780200  0.48819000  1
  O  O42  1  0.24040900  0.20699600  0.71871800  1
  O  O43  1  0.62803300  0.73299600  0.16298500  1
  O  O44  1  0.94940100  0.72857300  0.17917500  1
  O  O45  1  0.21574000  0.90763200  0.03356100  1
  O  O46  1  0.11143800  0.59472100  0.36818800  1
  O  O47  1  0.43195100  0.57074100  0.39563600  1
loop_
_geom_bond_atom_site_label_1
_geom_bond_atom_site_label_2
_geom_bond_distance
_geom_bond_site_symmetry_2
Li0 O11 2.070712 1_656
Li0 O2 2.072885 1_555
Li0 O3 2.090688 1_655
Li0 O23 2.345274 1_655
Li1 O1 2.052076 1_455
Li1 O6 2.185977 1_555
Li1 O18 2.238784 1_455
Li1 O15 2.269237 1_455
Li1 O9 2.283072 1_555
Li2 O5 1.859797 1_545
Li2 O13 1.892619 1_555
Li2 O16 1.902011 1_555
Li3 O19 1.859797 1_565
Li3 O10 1.892619 1_555
Li3 O7 1.902011 1_555
Li4 O22 2.052076 1_555
Li4 O17 2.185977 1_555
Li4 O4 2.238784 1_555
Li4 O8 2.269237 1_556
Li4 O14 2.283072 1_555
Li5 O12 2.070712 1_555
Li5 O21 2.072885 1_555
Li5 O20 2.090688 1_555
Li5 O0 2.345274 1_555
Li6 O35 2.070712 1_555
Li6 O26 2.072885 1_555
Li6 O27 2.090688 1_555
Li6 O47 2.345274 1_555
Li7 O25 2.052076 1_555
Li7 O30 2.185977 1_555
Li7 O43 2.238784 1_555
Li7 O39 2.269237 1_554
Li7 O33 2.283072 1_555
Li8 O28 1.859797 1_545
Li8 O37 1.892619 1_555
Li8 O40 1.902011 1_555
Li9 O42 1.859797 1_565
Li9 O34 1.892619 1_555
Li9 O31 1.902011 1_555
Li10 O46 2.052076 1_655
Li10 O41 2.185977 1_555
Li10 O29 2.238784 1_655
Li10 O32 2.269237 1_655
Li10 O38 2.283072 1_555
Li11 O36 2.070712 1_454
Li11 O45 2.072885 1_555
Li11 O44 2.090688 1_455
Li11 O24 2.345274 1_455
Ni0 O41 1.951379 1_555
Ni0 O47 1.970694 1_555
Ni0 O5 1.975220 1_555
Ni0 O12 1.994351 1_555
Ni1 O14 1.964799 1_555
Ni1 O3 1.972758 1_655
Ni1 O40 1.982097 1_555
Ni1 O1 1.996123 1_555
Ni2 O8 1.960402 1_565
Ni2 O2 1.974281 1_564
Ni2 O13 1.979527 1_565
Ni2 O43 2.046571 1_555
Ni3 O15 1.960402 1_445
Ni3 O21 1.974281 1_545
Ni3 O10 1.979527 1_545
Ni3 O29 2.046571 1_555
Ni4 O9 1.964799 1_555
Ni4 O20 1.972758 1_555
Ni4 O31 1.982097 1_555
Ni4 O22 1.996123 1_555
Ni5 O30 1.951379 1_555
Ni5 O24 1.970694 1_455
Ni5 O19 1.975220 1_555
Ni5 O11 1.994351 1_555
Ni6 O17 1.951379 1_555
Ni6 O23 1.970694 1_655
Ni6 O28 1.975220 1_555
Ni6 O36 1.994351 1_555
Ni7 O38 1.964799 1_555
Ni7 O27 1.972758 1_555
Ni7 O16 1.982097 1_555
Ni7 O25 1.996123 1_555
Ni8 O32 1.960402 1_665
Ni8 O26 1.974281 1_565
Ni8 O37 1.979527 1_565
Ni8 O18 2.046571 1_555
Ni9 O39 1.960402 1_545
Ni9 O45 1.974281 1_546
Ni9 O34 1.979527 1_545
Ni9 O4 2.046571 1_555
Ni10 O33 1.964799 1_555
Ni10 O44 1.972758 1_455
Ni10 O7 1.982097 1_555
Ni10 O46 1.996123 1_555
Ni11 O6 1.951379 1_555
Ni11 O0 1.970694 1_555
Ni11 O42 1.975220 1_555
Ni11 O35 1.994351 1_555
O0 P11 1.553299 1_555
O1 P11 1.555840 1_555
O2 P9 1.556157 1_545
O3 P1 1.551413 1_555
O4 P1 1.547953 1_555
O5 P10 1.557070 1_555
O6 P0 1.544269 1_555
O7 P2 1.552806 1_565
O8 P2 1.555265 1_555
O9 P1 1.555055 1_555
O10 P0 1.553374 1_555
O11 P2 1.547755 1_555
O12 P3 1.547755 1_555
O13 P5 1.553374 1_555
O14 P4 1.555055 1_555
O15 P3 1.555265 1_555
O16 P3 1.552806 1_545
O17 P5 1.544269 1_556
O18 P4 1.547953 1_555
O19 P7 1.557070 1_555
O20 P4 1.551413 1_555
O21 P8 1.556157 1_565
O22 P6 1.555840 1_555
O23 P6 1.553299 1_555
O24 P5 1.553299 1_555
O25 P5 1.555840 1_555
O26 P3 1.556157 1_545
O27 P7 1.551413 1_555
O28 P4 1.557070 1_555
O29 P7 1.547953 1_555
O30 P6 1.544269 1_554
O31 P8 1.552806 1_565
O32 P8 1.555265 1_555
O33 P7 1.555055 1_555
O34 P6 1.553374 1_555
O35 P8 1.547755 1_555
O36 P9 1.547755 1_555
O37 P11 1.553374 1_555
O38 P10 1.555055 1_555
O39 P9 1.555265 1_555
O40 P9 1.552806 1_545
O41 P11 1.544269 1_555
O42 P1 1.557070 1_555
O43 P10 1.547953 1_555
O44 P10 1.551413 1_555
O45 P2 1.556157 1_565
O46 P0 1.555840 1_555
O47 P0 1.553299 1_555
