# generated using pymatgen
data_Li2Cu4Si4O13
_symmetry_space_group_name_H-M   'P 1'
_cell_length_a   7.11102700
_cell_length_b   7.64794140
_cell_length_c   10.09796653
_cell_angle_alpha   70.60496813
_cell_angle_beta   87.36974845
_cell_angle_gamma   84.75821544
_symmetry_Int_Tables_number   1
_chemical_formula_structural   Li2Cu4Si4O13
_chemical_formula_sum   'Li4 Cu8 Si8 O26'
_cell_volume   515.77316660
_cell_formula_units_Z   2
loop_
 _symmetry_equiv_pos_site_id
 _symmetry_equiv_pos_as_xyz
  1  'x, y, z'
loop_
 _atom_site_type_symbol
 _atom_site_label
 _atom_site_symmetry_multiplicity
 _atom_site_fract_x
 _atom_site_fract_y
 _atom_site_fract_z
 _atom_site_occupancy
  Li  Li0  1  0.20503300  0.61400200  0.88561500  1
  Li  Li1  1  0.76149400  0.43387000  0.57418400  1
  Li  Li2  1  0.23850600  0.56613000  0.42581600  1
  Li  Li3  1  0.79496700  0.38599800  0.11438500  1
  Cu  Cu0  1  0.90796600  0.82371000  0.00054000  1
  Cu  Cu1  1  0.44017400  0.80739600  0.98465900  1
  Cu  Cu2  1  0.41205900  0.82171300  0.61827000  1
  Cu  Cu3  1  0.95179400  0.78384400  0.63877200  1
  Cu  Cu4  1  0.04820600  0.21615600  0.36122800  1
  Cu  Cu5  1  0.58794100  0.17828700  0.38173000  1
  Cu  Cu6  1  0.55982600  0.19260400  0.01534100  1
  Cu  Cu7  1  0.09203400  0.17629000  0.99946000  1
  Si  Si0  1  0.71558900  0.58857800  0.82871400  1
  Si  Si1  1  0.28946600  0.40448200  0.71088700  1
  Si  Si2  1  0.61175400  0.11683300  0.72103100  1
  Si  Si3  1  0.05202500  0.10029600  0.71476800  1
  Si  Si4  1  0.94797500  0.89970400  0.28523200  1
  Si  Si5  1  0.38824600  0.88316700  0.27896900  1
  Si  Si6  1  0.71053400  0.59551800  0.28911300  1
  Si  Si7  1  0.28441100  0.41142200  0.17128600  1
  O  O0  1  0.09041200  0.00831500  0.88329600  1
  O  O1  1  0.74058100  0.37242800  0.93181700  1
  O  O2  1  0.49951100  0.68890300  0.83598300  1
  O  O3  1  0.89423500  0.70456100  0.85531000  1
  O  O4  1  0.24625000  0.36182700  0.87623800  1
  O  O5  1  0.58431300  0.01911100  0.89031400  1
  O  O6  1  0.12137800  0.96262400  0.62683100  1
  O  O7  1  0.56366100  0.01515100  0.61241800  1
  O  O8  1  0.76685300  0.61507400  0.66267700  1
  O  O9  1  0.25945600  0.62335900  0.61474700  1
  O  O10  1  0.82939100  0.17148200  0.68654800  1
  O  O11  1  0.50424000  0.32813700  0.67585500  1
  O  O12  1  0.14700100  0.29865900  0.64492000  1
  O  O13  1  0.85299900  0.70134100  0.35508000  1
  O  O14  1  0.49576000  0.67186300  0.32414500  1
  O  O15  1  0.17060900  0.82851800  0.31345200  1
  O  O16  1  0.74054400  0.37664100  0.38525300  1
  O  O17  1  0.23314700  0.38492600  0.33732300  1
  O  O18  1  0.43633900  0.98484900  0.38758200  1
  O  O19  1  0.87862200  0.03737600  0.37316900  1
  O  O20  1  0.41568700  0.98088900  0.10968600  1
  O  O21  1  0.75375000  0.63817300  0.12376200  1
  O  O22  1  0.10576500  0.29543900  0.14469000  1
  O  O23  1  0.50048900  0.31109700  0.16401700  1
  O  O24  1  0.25941900  0.62757200  0.06818300  1
  O  O25  1  0.90958800  0.99168500  0.11670400  1
loop_
_geom_bond_atom_site_label_1
_geom_bond_atom_site_label_2
_geom_bond_distance
_geom_bond_site_symmetry_2
Li0 O24 1.938793 1_556
Li0 O4 1.957013 1_555
Li0 O2 2.212806 1_555
Li0 O3 2.258199 1_455
Li1 O8 1.885677 1_555
Li1 O10 1.976993 1_555
Li1 O16 2.108583 1_555
Li1 O11 2.144985 1_555
Li2 O17 1.885677 1_555
Li2 O15 1.976993 1_555
Li2 O9 2.108583 1_555
Li2 O14 2.144985 1_555
Li3 O1 1.938793 1_554
Li3 O21 1.957013 1_555
Li3 O23 2.212806 1_555
Li3 O22 2.258199 1_655
Cu0 O21 1.936698 1_555
Cu0 O3 1.976756 1_554
Cu0 O25 2.007800 1_555
Cu0 O0 2.040034 1_664
Cu1 O24 1.925619 1_556
Cu1 O5 1.941405 1_565
Cu1 O2 2.007205 1_555
Cu1 O20 2.105954 1_556
Cu2 O7 1.892566 1_565
Cu2 O9 1.954561 1_555
Cu2 O2 2.186006 1_555
Cu2 O6 2.253880 1_555
Cu2 O18 2.255010 1_555
Cu3 O6 1.875289 1_655
Cu3 O8 1.878275 1_555
Cu3 O3 2.097383 1_555
Cu3 O9 2.451563 1_655
Cu4 O19 1.875289 1_455
Cu4 O17 1.878275 1_555
Cu4 O22 2.097383 1_555
Cu4 O16 2.451563 1_455
Cu5 O18 1.892566 1_545
Cu5 O16 1.954561 1_555
Cu5 O23 2.186006 1_555
Cu5 O19 2.253880 1_555
Cu5 O7 2.255010 1_555
Cu6 O1 1.925619 1_554
Cu6 O20 1.941405 1_545
Cu6 O23 2.007205 1_555
Cu6 O5 2.105954 1_554
Cu7 O4 1.936698 1_555
Cu7 O22 1.976756 1_556
Cu7 O0 2.007800 1_555
Cu7 O25 2.040034 1_446
O0 Si3 1.636434 1_555
O1 Si0 1.633556 1_555
O2 Si0 1.663337 1_555
O3 Si0 1.693572 1_555
O4 Si1 1.611908 1_555
O5 Si2 1.632870 1_555
O6 Si3 1.620569 1_565
O7 Si2 1.604401 1_555
O8 Si0 1.648275 1_555
O9 Si1 1.632354 1_555
O10 Si2 1.631912 1_555
O10 Si3 1.632443 1_655
O11 Si2 1.649496 1_555
O11 Si1 1.650228 1_555
O12 Si3 1.639493 1_555
O12 Si1 1.641606 1_555
O13 Si4 1.639493 1_555
O13 Si6 1.641606 1_555
O14 Si5 1.649496 1_555
O14 Si6 1.650228 1_555
O15 Si5 1.631912 1_555
O15 Si4 1.632443 1_455
O16 Si6 1.632354 1_555
O17 Si7 1.648275 1_555
O18 Si5 1.604401 1_555
O19 Si4 1.620569 1_545
O20 Si5 1.632870 1_555
O21 Si6 1.611908 1_555
O22 Si7 1.693572 1_555
O23 Si7 1.663337 1_555
O24 Si7 1.633556 1_555
O25 Si4 1.636434 1_555
