# generated using pymatgen
data_LiNi6O7
_symmetry_space_group_name_H-M   'P 1'
_cell_length_a   5.04612579
_cell_length_b   5.82369989
_cell_length_c   8.77958215
_cell_angle_alpha   89.95685252
_cell_angle_beta   95.56661336
_cell_angle_gamma   106.73341777
_symmetry_Int_Tables_number   1
_chemical_formula_structural   LiNi6O7
_chemical_formula_sum   'Li2 Ni12 O14'
_cell_volume   245.81610214
_cell_formula_units_Z   2
loop_
 _symmetry_equiv_pos_site_id
 _symmetry_equiv_pos_as_xyz
  1  'x, y, z'
loop_
 _atom_site_type_symbol
 _atom_site_label
 _atom_site_symmetry_multiplicity
 _atom_site_fract_x
 _atom_site_fract_y
 _atom_site_fract_z
 _atom_site_occupancy
  Li  Li0  1  0.64079994  0.28607581  0.77935700  1
  Li  Li1  1  0.35920006  0.71392419  0.22064300  1
  Ni  Ni0  1  0.78583234  0.57176054  0.07169705  1
  Ni  Ni1  1  0.77920283  0.06960960  0.06975408  1
  Ni  Ni2  1  0.64432504  0.78549729  0.78411155  1
  Ni  Ni3  1  0.35567496  0.21450271  0.21588845  1
  Ni  Ni4  1  0.50000000  0.50000000  0.50000000  1
  Ni  Ni5  1  0.50000000  0.00000000  0.50000000  1
  Ni  Ni6  1  0.21416766  0.42823946  0.92830295  1
  Ni  Ni7  1  0.22079717  0.93039040  0.93024592  1
  Ni  Ni8  1  0.07037803  0.64074195  0.64385999  1
  Ni  Ni9  1  0.07517642  0.14609706  0.64541550  1
  Ni  Ni10  1  0.92962197  0.35925805  0.35614001  1
  Ni  Ni11  1  0.92482358  0.85390294  0.35458450  1
  O  O0  1  0.94433803  0.10578214  0.86145373  1
  O  O1  1  0.64037964  0.53141575  0.28799427  1
  O  O2  1  0.64056159  0.03945105  0.28828630  1
  O  O3  1  0.78664061  0.82325243  0.57117867  1
  O  O4  1  0.78536252  0.32015218  0.56775475  1
  O  O5  1  0.50401754  0.74665313  0.99533043  1
  O  O6  1  0.49598246  0.25334687  0.00466957  1
  O  O7  1  0.35962036  0.46858425  0.71200573  1
  O  O8  1  0.35943841  0.96054895  0.71171370  1
  O  O9  1  0.05453407  0.38325240  0.13632542  1
  O  O10  1  0.05566197  0.89421786  0.13854627  1
  O  O11  1  0.21463748  0.67984782  0.43224525  1
  O  O12  1  0.21335939  0.17674757  0.42882133  1
  O  O13  1  0.94546593  0.61674760  0.86367458  1
loop_
_geom_bond_atom_site_label_1
_geom_bond_atom_site_label_2
_geom_bond_distance
_geom_bond_site_symmetry_2
Li0 O7 2.048715 1_555
Li0 O4 2.049847 1_555
Li0 O8 2.061704 1_545
Li0 O0 2.163055 1_555
Li0 O6 2.164048 1_556
Li0 O13 2.167148 1_555
Li1 O1 2.048715 1_555
Li1 O11 2.049847 1_555
Li1 O2 2.061704 1_565
Li1 O10 2.163055 1_555
Li1 O5 2.164048 1_554
Li1 O9 2.167148 1_555
Ni0 O9 2.018063 1_655
Ni0 O10 2.024632 1_655
Ni0 O5 2.038934 1_554
Ni0 O6 2.048664 1_555
Ni0 O13 2.053350 1_554
Ni0 O1 2.090586 1_555
Ni1 O9 1.997743 1_655
Ni1 O10 2.002597 1_645
Ni1 O5 2.052929 1_544
Ni1 O6 2.057970 1_555
Ni1 O0 2.068142 1_554
Ni1 O2 2.095362 1_555
Ni2 O5 2.037930 1_555
Ni2 O7 2.041932 1_555
Ni2 O8 2.043421 1_555
Ni2 O3 2.056180 1_555
Ni2 O0 2.099652 1_565
Ni2 O13 2.101400 1_555
Ni3 O6 2.037930 1_555
Ni3 O1 2.041932 1_555
Ni3 O2 2.043421 1_555
Ni3 O12 2.056180 1_555
Ni3 O10 2.099652 1_545
Ni3 O9 2.101400 1_555
Ni4 O7 2.044613 1_555
Ni4 O1 2.044613 1_555
Ni4 O11 2.055663 1_555
Ni4 O4 2.055663 1_555
Ni4 O12 2.070027 1_555
Ni4 O3 2.070027 1_555
Ni5 O2 2.042586 1_555
Ni5 O8 2.042586 1_545
Ni5 O11 2.047710 1_545
Ni5 O4 2.047710 1_555
Ni5 O3 2.055037 1_545
Ni5 O12 2.055037 1_555
Ni6 O13 2.018063 1_455
Ni6 O0 2.024632 1_455
Ni6 O6 2.038934 1_556
Ni6 O5 2.048664 1_555
Ni6 O9 2.053350 1_556
Ni6 O7 2.090586 1_555
Ni7 O13 1.997743 1_455
Ni7 O0 2.002597 1_465
Ni7 O6 2.052929 1_566
Ni7 O5 2.057970 1_555
Ni7 O10 2.068142 1_556
Ni7 O8 2.095362 1_555
Ni8 O7 2.041023 1_555
Ni8 O11 2.049344 1_555
Ni8 O8 2.054265 1_555
Ni8 O4 2.066376 1_455
Ni8 O3 2.070010 1_455
Ni8 O13 2.079938 1_455
Ni9 O7 2.053223 1_555
Ni9 O0 2.059516 1_455
Ni9 O4 2.071284 1_455
Ni9 O8 2.072110 1_545
Ni9 O12 2.078279 1_555
Ni9 O3 2.078717 1_445
Ni10 O1 2.041023 1_555
Ni10 O4 2.049344 1_555
Ni10 O2 2.054265 1_555
Ni10 O11 2.066376 1_655
Ni10 O12 2.070010 1_655
Ni10 O9 2.079938 1_655
Ni11 O1 2.053223 1_555
Ni11 O10 2.059516 1_655
Ni11 O11 2.071284 1_655
Ni11 O2 2.072110 1_565
Ni11 O3 2.078279 1_555
Ni11 O12 2.078717 1_665
