# generated using pymatgen
data_Sm3TaO7
_symmetry_space_group_name_H-M   'P 1'
_cell_length_a   7.59720800
_cell_length_b   7.67783800
_cell_length_c   10.83912200
_cell_angle_alpha   90.00000000
_cell_angle_beta   90.00000000
_cell_angle_gamma   90.00000000
_symmetry_Int_Tables_number   1
_chemical_formula_structural   Sm3TaO7
_chemical_formula_sum   'Sm12 Ta4 O28'
_cell_volume   632.24742002
_cell_formula_units_Z   4
loop_
 _symmetry_equiv_pos_site_id
 _symmetry_equiv_pos_as_xyz
  1  'x, y, z'
loop_
 _atom_site_type_symbol
 _atom_site_label
 _atom_site_symmetry_multiplicity
 _atom_site_fract_x
 _atom_site_fract_y
 _atom_site_fract_z
 _atom_site_occupancy
  Sm  Sm0  1  0.01214500  0.79420800  0.25000000  1
  Sm  Sm1  1  0.25164100  0.96240500  0.52193700  1
  Sm  Sm2  1  0.25164100  0.96240500  0.97806300  1
  Sm  Sm3  1  0.24835900  0.46240500  0.02193700  1
  Sm  Sm4  1  0.24835900  0.46240500  0.47806300  1
  Sm  Sm5  1  0.48785500  0.29420800  0.75000000  1
  Sm  Sm6  1  0.51214500  0.70579200  0.25000000  1
  Sm  Sm7  1  0.75164100  0.53759500  0.52193700  1
  Sm  Sm8  1  0.75164100  0.53759500  0.97806300  1
  Sm  Sm9  1  0.74835900  0.03759500  0.02193700  1
  Sm  Sm10  1  0.74835900  0.03759500  0.47806300  1
  Sm  Sm11  1  0.98785500  0.20579200  0.75000000  1
  Ta  Ta0  1  0.99898000  0.74879700  0.75000000  1
  Ta  Ta1  1  0.50102000  0.24879700  0.25000000  1
  Ta  Ta2  1  0.49898000  0.75120300  0.75000000  1
  Ta  Ta3  1  0.00102000  0.25120300  0.25000000  1
  O  O0  1  0.03412100  0.05045800  0.12605600  1
  O  O1  1  0.03412100  0.05045800  0.37394400  1
  O  O2  1  0.03942100  0.58657600  0.61415000  1
  O  O3  1  0.03942100  0.58657600  0.88585000  1
  O  O4  1  0.24753900  0.32535200  0.25000000  1
  O  O5  1  0.25528100  0.73101200  0.11682500  1
  O  O6  1  0.25528100  0.73101200  0.38317500  1
  O  O7  1  0.24471900  0.23101200  0.61682500  1
  O  O8  1  0.24471900  0.23101200  0.88317500  1
  O  O9  1  0.25246100  0.82535200  0.75000000  1
  O  O10  1  0.46057900  0.08657600  0.11415000  1
  O  O11  1  0.46057900  0.08657600  0.38585000  1
  O  O12  1  0.46587900  0.55045800  0.62605600  1
  O  O13  1  0.46587900  0.55045800  0.87394400  1
  O  O14  1  0.53412100  0.44954200  0.12605600  1
  O  O15  1  0.53412100  0.44954200  0.37394400  1
  O  O16  1  0.53942100  0.91342400  0.61415000  1
  O  O17  1  0.53942100  0.91342400  0.88585000  1
  O  O18  1  0.74753900  0.17464800  0.25000000  1
  O  O19  1  0.75528100  0.76898800  0.11682500  1
  O  O20  1  0.75528100  0.76898800  0.38317500  1
  O  O21  1  0.74471900  0.26898800  0.61682500  1
  O  O22  1  0.74471900  0.26898800  0.88317500  1
  O  O23  1  0.75246100  0.67464800  0.75000000  1
  O  O24  1  0.96057900  0.41342400  0.11415000  1
  O  O25  1  0.96057900  0.41342400  0.38585000  1
  O  O26  1  0.96587900  0.94954200  0.62605600  1
  O  O27  1  0.96587900  0.94954200  0.87394400  1
loop_
_geom_bond_atom_site_label_1
_geom_bond_atom_site_label_2
_geom_bond_distance
_geom_bond_site_symmetry_2
O0 Ta3 2.060012 1_555
O0 Sm0 2.388213 1_545
O0 Sm2 2.400237 1_544
O0 Sm9 2.448798 1_455
O1 Ta3 2.060012 1_555
O1 Sm0 2.388213 1_545
O1 Sm1 2.400237 1_545
O1 Sm10 2.448798 1_455
O2 Ta0 1.952927 1_455
O2 Sm4 2.367358 1_555
O2 Sm7 2.433199 1_455
O3 Ta0 1.952927 1_455
O3 Sm3 2.367358 1_556
O3 Sm8 2.433199 1_455
O4 Ta3 1.957472 1_555
O4 Ta1 2.013451 1_555
O4 Sm4 2.686654 1_555
O4 Sm3 2.686654 1_555
O5 Sm3 2.305158 1_555
O5 Sm2 2.327930 1_554
O5 Sm0 2.393972 1_555
O5 Sm6 2.435024 1_555
O6 Sm4 2.305158 1_555
O6 Sm1 2.327930 1_555
O6 Sm0 2.393972 1_555
O6 Sm6 2.435024 1_555
O7 Sm1 2.305158 1_545
O7 Sm4 2.327930 1_555
O7 Sm5 2.393972 1_555
O7 Sm11 2.435024 1_455
O8 Sm2 2.305158 1_545
O8 Sm3 2.327930 1_556
O8 Sm5 2.393972 1_555
O8 Sm11 2.435024 1_455
O9 Ta2 1.957472 1_555
O9 Ta0 2.013451 1_455
O9 Sm2 2.686654 1_555
O9 Sm1 2.686654 1_555
O10 Ta1 1.952927 1_555
O10 Sm2 2.367358 1_544
O10 Sm9 2.433199 1_555
O11 Ta1 1.952927 1_555
O11 Sm1 2.367358 1_545
O11 Sm10 2.433199 1_555
O12 Ta2 2.060012 1_555
O12 Sm5 2.388213 1_555
O12 Sm4 2.400237 1_555
O12 Sm7 2.448798 1_555
O13 Ta2 2.060012 1_555
O13 Sm5 2.388213 1_555
O13 Sm3 2.400237 1_556
O13 Sm8 2.448798 1_555
O14 Ta1 2.060012 1_555
O14 Sm6 2.388213 1_555
O14 Sm8 2.400237 1_554
O14 Sm3 2.448798 1_555
O15 Ta1 2.060012 1_555
O15 Sm6 2.388213 1_555
O15 Sm7 2.400237 1_555
O15 Sm4 2.448798 1_555
O16 Ta2 1.952927 1_555
O16 Sm10 2.367358 1_565
O16 Sm1 2.433199 1_555
O17 Ta2 1.952927 1_555
O17 Sm9 2.367358 1_566
O17 Sm2 2.433199 1_555
O18 Ta1 1.957472 1_555
O18 Ta3 2.013451 1_655
O18 Sm10 2.686654 1_555
O18 Sm9 2.686654 1_555
O19 Sm9 2.305158 1_565
O19 Sm8 2.327930 1_554
O19 Sm6 2.393972 1_555
O19 Sm0 2.435024 1_655
O20 Sm10 2.305158 1_565
O20 Sm7 2.327930 1_555
O20 Sm6 2.393972 1_555
O20 Sm0 2.435024 1_655
O21 Sm7 2.305158 1_555
O21 Sm10 2.327930 1_555
O21 Sm11 2.393972 1_555
O21 Sm5 2.435024 1_555
O22 Sm8 2.305158 1_555
O22 Sm9 2.327930 1_556
O22 Sm11 2.393972 1_555
O22 Sm5 2.435024 1_555
O23 Ta0 1.957472 1_555
O23 Ta2 2.013451 1_555
O23 Sm8 2.686654 1_555
O23 Sm7 2.686654 1_555
O24 Ta3 1.952927 1_655
O24 Sm8 2.367358 1_554
O24 Sm3 2.433199 1_655
O25 Ta3 1.952927 1_655
O25 Sm7 2.367358 1_555
O25 Sm4 2.433199 1_655
O26 Ta0 2.060012 1_555
O26 Sm11 2.388213 1_565
O26 Sm10 2.400237 1_565
O26 Sm1 2.448798 1_655
O27 Ta0 2.060012 1_555
O27 Sm11 2.388213 1_565
O27 Sm9 2.400237 1_566
O27 Sm2 2.448798 1_655
