# generated using pymatgen
data_Li2Cr2SiO6
_symmetry_space_group_name_H-M   'P 1'
_cell_length_a   9.42904757
_cell_length_b   8.94628530
_cell_length_c   5.11396728
_cell_angle_alpha   79.11330879
_cell_angle_beta   68.70526330
_cell_angle_gamma   32.18142790
_symmetry_Int_Tables_number   1
_chemical_formula_structural   Li2Cr2SiO6
_chemical_formula_sum   'Li4 Cr4 Si2 O12'
_cell_volume   207.87793460
_cell_formula_units_Z   2
loop_
 _symmetry_equiv_pos_site_id
 _symmetry_equiv_pos_as_xyz
  1  'x, y, z'
loop_
 _atom_site_type_symbol
 _atom_site_label
 _atom_site_symmetry_multiplicity
 _atom_site_fract_x
 _atom_site_fract_y
 _atom_site_fract_z
 _atom_site_occupancy
  Li  Li0  1  0.58983900  0.58983900  0.91016100  1
  Li  Li1  1  0.91016100  0.91016100  0.58983900  1
  Li  Li2  1  0.66016100  0.66016100  0.33983900  1
  Li  Li3  1  0.33983900  0.33983900  0.66016100  1
  Cr  Cr0  1  0.42061000  0.42061000  0.07939000  1
  Cr  Cr1  1  0.07939000  0.07939000  0.42061000  1
  Cr  Cr2  1  0.17061000  0.17061000  0.82939000  1
  Cr  Cr3  1  0.82939000  0.82939000  0.17061000  1
  Si  Si0  1  0.25000000  0.25000000  0.25000000  1
  Si  Si1  1  0.00000000  0.00000000  0.00000000  1
  O  O0  1  0.87185400  0.28631900  0.14516300  1
  O  O1  1  0.14516300  0.69666400  0.87185400  1
  O  O2  1  0.03785700  0.46214300  0.03785700  1
  O  O3  1  0.10483700  0.55333600  0.37814600  1
  O  O4  1  0.55333600  0.10483700  0.96368100  1
  O  O5  1  0.21214300  0.78785700  0.21214300  1
  O  O6  1  0.96368100  0.37814600  0.55333600  1
  O  O7  1  0.78785700  0.21214300  0.78785700  1
  O  O8  1  0.37814600  0.96368100  0.10483700  1
  O  O9  1  0.69666400  0.14516300  0.28631900  1
  O  O10  1  0.46214300  0.03785700  0.46214300  1
  O  O11  1  0.28631900  0.87185400  0.69666400  1
loop_
_geom_bond_atom_site_label_1
_geom_bond_atom_site_label_2
_geom_bond_distance
_geom_bond_site_symmetry_2
Li0 O5 2.136713 1_556
Li0 O7 2.136713 1_555
Li0 O8 2.162187 1_556
Li0 O6 2.162187 1_555
Li0 O0 2.180505 1_556
Li0 O11 2.180505 1_555
Li1 O7 2.136713 1_565
Li1 O5 2.136713 1_655
Li1 O4 2.162187 1_565
Li1 O3 2.162187 1_655
Li1 O1 2.180505 1_655
Li1 O9 2.180505 1_565
Li2 O10 2.136713 1_565
Li2 O2 2.136713 1_655
Li2 O11 2.162187 1_555
Li2 O0 2.162187 1_555
Li2 O6 2.180505 1_555
Li2 O8 2.180505 1_555
Li3 O2 2.136713 1_556
Li3 O10 2.136713 1_555
Li3 O1 2.162187 1_555
Li3 O9 2.162187 1_555
Li3 O4 2.180505 1_555
Li3 O3 2.180505 1_555
Cr0 O3 2.001495 1_555
Cr0 O4 2.001495 1_554
Cr0 O5 2.015082 1_555
Cr0 O7 2.015082 1_554
Cr0 O9 2.031161 1_555
Cr0 O1 2.031161 1_554
Cr1 O6 2.001495 1_455
Cr1 O8 2.001495 1_545
Cr1 O7 2.015082 1_455
Cr1 O5 2.015082 1_545
Cr1 O11 2.031161 1_545
Cr1 O0 2.031161 1_455
Cr2 O0 2.001495 1_456
Cr2 O11 2.001495 1_545
Cr2 O2 2.015082 1_556
Cr2 O10 2.015082 1_555
Cr2 O8 2.031161 1_546
Cr2 O6 2.031161 1_455
Cr3 O9 2.001495 1_565
Cr3 O1 2.001495 1_654
Cr3 O10 2.015082 1_565
Cr3 O2 2.015082 1_655
Cr3 O3 2.031161 1_655
Cr3 O4 2.031161 1_564
O0 Si1 1.843913 1_655
O1 Si1 1.843913 1_566
O2 Si0 1.775513 1_555
O3 Si0 1.843913 1_555
O4 Si0 1.843913 1_556
O5 Si1 1.775513 1_565
O6 Si0 1.843913 1_655
O7 Si1 1.775513 1_656
O8 Si0 1.843913 1_565
O9 Si1 1.843913 1_655
O10 Si0 1.775513 1_555
O11 Si1 1.843913 1_566
