# generated using pymatgen
data_Na4(NiO2)5
_symmetry_space_group_name_H-M   'P 1'
_cell_length_a   5.10596605
_cell_length_b   6.23860398
_cell_length_c   6.82420129
_cell_angle_alpha   109.78552084
_cell_angle_beta   96.36864967
_cell_angle_gamma   106.10650318
_symmetry_Int_Tables_number   1
_chemical_formula_structural   Na4(NiO2)5
_chemical_formula_sum   'Na4 Ni5 O10'
_cell_volume   191.40641926
_cell_formula_units_Z   1
loop_
 _symmetry_equiv_pos_site_id
 _symmetry_equiv_pos_as_xyz
  1  'x, y, z'
loop_
 _atom_site_type_symbol
 _atom_site_label
 _atom_site_symmetry_multiplicity
 _atom_site_fract_x
 _atom_site_fract_y
 _atom_site_fract_z
 _atom_site_occupancy
  Na  Na0  1  0.81485833  0.62140326  0.62528722  1
  Na  Na1  1  0.18512500  0.37860355  0.37472482  1
  Na  Na2  1  0.59965352  0.19306306  0.18886139  1
  Na  Na3  1  0.40034498  0.80697644  0.81118028  1
  Ni  Ni0  1  0.39881940  0.30104795  0.79569449  1
  Ni  Ni1  1  0.60118519  0.69893821  0.20429277  1
  Ni  Ni2  1  -0.00000024  0.49998454  -0.00001328  1
  Ni  Ni3  1  0.79652701  0.09790018  0.59796251  1
  Ni  Ni4  1  0.20347003  0.90208546  0.40202353  1
  O  O0  1  0.87120109  0.01074615  0.32595827  1
  O  O1  1  0.12880808  0.98925888  0.67404596  1
  O  O2  1  0.67127088  0.61469061  0.92696551  1
  O  O3  1  0.32872870  0.38529901  0.07302555  1
  O  O4  1  0.89806580  0.59277595  0.28750502  1
  O  O5  1  0.10194672  0.40722141  0.71247786  1
  O  O6  1  0.68860192  0.18307095  0.86019806  1
  O  O7  1  0.31138106  0.81691210  0.13979970  1
  O  O8  1  0.48155589  0.22269096  0.52164937  1
  O  O9  1  0.51845665  0.77733131  0.47835797  1
loop_
_geom_bond_atom_site_label_1
_geom_bond_atom_site_label_2
_geom_bond_distance
_geom_bond_site_symmetry_2
Na0 O2 2.270187 1_555
Na0 O1 2.295761 1_655
Na0 O9 2.320045 1_555
Na0 O4 2.346596 1_555
Na0 O5 2.391595 1_655
Na0 O8 2.403511 1_555
Na1 O3 2.270332 1_555
Na1 O0 2.295702 1_455
Na1 O8 2.320064 1_555
Na1 O5 2.346368 1_555
Na1 O4 2.391510 1_455
Na1 O9 2.403645 1_555
Na2 O7 2.286416 1_545
Na2 O3 2.301407 1_555
Na2 O6 2.321128 1_554
Na2 O0 2.323585 1_555
Na2 O4 2.349661 1_555
Na2 O8 2.374182 1_555
Na3 O6 2.286190 1_565
Na3 O2 2.301504 1_555
Na3 O7 2.320946 1_556
Na3 O1 2.323506 1_555
Na3 O5 2.349786 1_555
Na3 O9 2.374415 1_555
Ni0 O1 1.881058 1_545
Ni0 O3 1.888736 1_556
Ni0 O8 1.893618 1_555
Ni0 O2 1.895502 1_555
Ni0 O6 1.898376 1_555
Ni0 O5 1.918261 1_555
Ni1 O0 1.881149 1_565
Ni1 O2 1.888703 1_554
Ni1 O9 1.893725 1_555
Ni1 O3 1.895497 1_555
Ni1 O7 1.898438 1_555
Ni1 O4 1.918239 1_555
Ni2 O6 1.997360 1_454
Ni2 O7 1.997382 1_555
Ni2 O5 2.020002 1_554
Ni2 O4 2.020036 1_455
Ni2 O3 2.073592 1_555
Ni2 O2 2.073643 1_454
Ni3 O0 1.864216 1_555
Ni3 O6 1.877760 1_555
Ni3 O9 1.934945 1_545
Ni3 O5 1.950759 1_655
Ni3 O8 2.060844 1_555
Ni3 O1 2.070820 1_645
Ni4 O1 1.864307 1_555
Ni4 O7 1.877655 1_555
Ni4 O8 1.935132 1_565
Ni4 O4 1.950674 1_455
Ni4 O9 2.060799 1_555
Ni4 O0 2.070809 1_465
