# generated using pymatgen
data_Li2MnPO4F
_symmetry_space_group_name_H-M   'P 1'
_cell_length_a   5.13672100
_cell_length_b   11.53000200
_cell_length_c   13.24081300
_cell_angle_alpha   90.00000000
_cell_angle_beta   90.00000000
_cell_angle_gamma   90.00000000
_symmetry_Int_Tables_number   1
_chemical_formula_structural   Li2MnPO4F
_chemical_formula_sum   'Li16 Mn8 P8 O32 F8'
_cell_volume   784.20573213
_cell_formula_units_Z   8
loop_
 _symmetry_equiv_pos_site_id
 _symmetry_equiv_pos_as_xyz
  1  'x, y, z'
loop_
 _atom_site_type_symbol
 _atom_site_label
 _atom_site_symmetry_multiplicity
 _atom_site_fract_x
 _atom_site_fract_y
 _atom_site_fract_z
 _atom_site_occupancy
  Li  Li0  1  0.21751300  0.17827300  0.23746600  1
  Li  Li1  1  0.21751300  0.67827300  0.76253400  1
  Li  Li2  1  0.21972400  0.39683400  0.63612900  1
  Li  Li3  1  0.21972400  0.89683400  0.36387100  1
  Li  Li4  1  0.28027600  0.39683400  0.13612900  1
  Li  Li5  1  0.28027600  0.89683400  0.86387100  1
  Li  Li6  1  0.28248700  0.67827300  0.26253400  1
  Li  Li7  1  0.28248700  0.17827300  0.73746600  1
  Li  Li8  1  0.71751300  0.82172700  0.26253400  1
  Li  Li9  1  0.71751300  0.32172700  0.73746600  1
  Li  Li10  1  0.71972400  0.10316600  0.13612900  1
  Li  Li11  1  0.71972400  0.60316600  0.86387100  1
  Li  Li12  1  0.78027600  0.60316600  0.36387100  1
  Li  Li13  1  0.78027600  0.10316600  0.63612900  1
  Li  Li14  1  0.78248700  0.82172700  0.76253400  1
  Li  Li15  1  0.78248700  0.32172700  0.23746600  1
  Mn  Mn0  1  0.22928200  0.16436100  0.50591800  1
  Mn  Mn1  1  0.22928200  0.66436100  0.49408200  1
  Mn  Mn2  1  0.27071800  0.66436100  0.99408200  1
  Mn  Mn3  1  0.27071800  0.16436100  0.00591800  1
  Mn  Mn4  1  0.72928200  0.33563900  0.00591800  1
  Mn  Mn5  1  0.72928200  0.83563900  0.99408200  1
  Mn  Mn6  1  0.77071800  0.33563900  0.50591800  1
  Mn  Mn7  1  0.77071800  0.83563900  0.49408200  1
  P  P0  1  0.20908600  0.91501800  0.12957800  1
  P  P1  1  0.20908600  0.41501800  0.87042200  1
  P  P2  1  0.29091400  0.41501800  0.37042200  1
  P  P3  1  0.29091400  0.91501800  0.62957800  1
  P  P4  1  0.70908600  0.08498200  0.37042200  1
  P  P5  1  0.70908600  0.58498200  0.62957800  1
  P  P6  1  0.79091400  0.58498200  0.12957800  1
  P  P7  1  0.79091400  0.08498200  0.87042200  1
  O  O0  1  0.09660700  0.59190400  0.12577200  1
  O  O1  1  0.09660700  0.09190400  0.87422800  1
  O  O2  1  0.18412800  0.35529400  0.46929200  1
  O  O3  1  0.18412800  0.85529400  0.53070800  1
  O  O4  1  0.18065500  0.35393200  0.27710500  1
  O  O5  1  0.18065500  0.85393200  0.72289500  1
  O  O6  1  0.20476400  0.04410700  0.62823600  1
  O  O7  1  0.20476400  0.54410700  0.37176400  1
  O  O8  1  0.29523600  0.04410700  0.12823600  1
  O  O9  1  0.29523600  0.54410700  0.87176400  1
  O  O10  1  0.31934500  0.85393200  0.22289500  1
  O  O11  1  0.31934500  0.35393200  0.77710500  1
  O  O12  1  0.31587200  0.85529400  0.03070800  1
  O  O13  1  0.31587200  0.35529400  0.96929200  1
  O  O14  1  0.40339300  0.09190400  0.37422800  1
  O  O15  1  0.40339300  0.59190400  0.62577200  1
  O  O16  1  0.59660700  0.90809600  0.62577200  1
  O  O17  1  0.59660700  0.40809600  0.37422800  1
  O  O18  1  0.68412800  0.64470600  0.03070800  1
  O  O19  1  0.68412800  0.14470600  0.96929200  1
  O  O20  1  0.68065500  0.64606800  0.22289500  1
  O  O21  1  0.68065500  0.14606800  0.77710500  1
  O  O22  1  0.70476400  0.45589300  0.12823600  1
  O  O23  1  0.70476400  0.95589300  0.87176400  1
  O  O24  1  0.79523600  0.95589300  0.37176400  1
  O  O25  1  0.79523600  0.45589300  0.62823600  1
  O  O26  1  0.81934500  0.14606800  0.27710500  1
  O  O27  1  0.81934500  0.64606800  0.72289500  1
  O  O28  1  0.81587200  0.14470600  0.46929200  1
  O  O29  1  0.81587200  0.64470600  0.53070800  1
  O  O30  1  0.90339300  0.90809600  0.12577200  1
  O  O31  1  0.90339300  0.40809600  0.87422800  1
  F  F0  1  0.00000000  0.25000000  0.10595900  1
  F  F1  1  0.00000000  0.25000000  0.63722400  1
  F  F2  1  0.00000000  0.75000000  0.36277600  1
  F  F3  1  0.00000000  0.75000000  0.89404100  1
  F  F4  1  0.50000000  0.25000000  0.60595900  1
  F  F5  1  0.50000000  0.25000000  0.13722400  1
  F  F6  1  0.50000000  0.75000000  0.39404100  1
  F  F7  1  0.50000000  0.75000000  0.86277600  1
loop_
_geom_bond_atom_site_label_1
_geom_bond_atom_site_label_2
_geom_bond_distance
_geom_bond_site_symmetry_2
Li0 O4 2.100798 1_555
Li0 O26 2.143948 1_455
Li0 O8 2.155033 1_555
Li0 O14 2.276510 1_555
Li1 O5 2.100798 1_555
Li1 O27 2.143948 1_455
Li1 O9 2.155033 1_555
Li1 O15 2.276510 1_555
Li2 O11 1.997720 1_555
Li2 O2 2.267767 1_555
Li2 O25 2.286721 1_455
Li2 O15 2.442872 1_555
Li3 O10 1.997720 1_555
Li3 O3 2.267767 1_555
Li3 O24 2.286721 1_455
Li3 O14 2.442872 1_565
Li4 O4 1.997720 1_555
Li4 O13 2.267767 1_554
Li4 O22 2.286721 1_555
Li4 O0 2.442872 1_555
Li5 O5 1.997720 1_555
Li5 O12 2.267767 1_556
Li5 O23 2.286721 1_555
Li5 O1 2.442872 1_565
Li6 O10 2.100798 1_555
Li6 O20 2.143948 1_555
Li6 O7 2.155033 1_555
Li6 O0 2.276510 1_555
Li7 O11 2.100798 1_555
Li7 O21 2.143948 1_555
Li7 O6 2.155033 1_555
Li7 O1 2.276510 1_555
Li8 O20 2.100798 1_555
Li8 O10 2.143948 1_555
Li8 O24 2.155033 1_555
Li8 O30 2.276510 1_555
Li9 O21 2.100798 1_555
Li9 O11 2.143948 1_555
Li9 O25 2.155033 1_555
Li9 O31 2.276510 1_555
Li10 O26 1.997720 1_555
Li10 O19 2.267767 1_554
Li10 O8 2.286721 1_555
Li10 O30 2.442872 1_545
Li11 O27 1.997720 1_555
Li11 O18 2.267767 1_556
Li11 O9 2.286721 1_555
Li11 O31 2.442872 1_555
Li12 O20 1.997720 1_555
Li12 O29 2.267767 1_555
Li12 O7 2.286721 1_655
Li12 O17 2.442872 1_555
Li13 O21 1.997720 1_555
Li13 O28 2.267767 1_555
Li13 O6 2.286721 1_655
Li13 O16 2.442872 1_545
Li14 O27 2.100798 1_555
Li14 O5 2.143948 1_655
Li14 O23 2.155033 1_555
Li14 O16 2.276510 1_555
Li15 O26 2.100798 1_555
Li15 O4 2.143948 1_655
Li15 O22 2.155033 1_555
Li15 O17 2.276510 1_555
Mn0 O14 2.130317 1_555
Mn0 O6 2.135742 1_555
Mn0 O28 2.190000 1_455
Mn0 O2 2.266142 1_555
Mn1 O15 2.130317 1_555
Mn1 O7 2.135742 1_555
Mn1 O29 2.190000 1_455
Mn1 O3 2.266142 1_555
Mn2 O0 2.130317 1_556
Mn2 O9 2.135742 1_555
Mn2 O18 2.190000 1_556
Mn2 O12 2.266142 1_556
Mn3 O1 2.130317 1_554
Mn3 O8 2.135742 1_555
Mn3 O19 2.190000 1_554
Mn3 O13 2.266142 1_554
Mn4 O31 2.130317 1_554
Mn4 O22 2.135742 1_555
Mn4 O13 2.190000 1_554
Mn4 O19 2.266142 1_554
Mn5 O30 2.130317 1_556
Mn5 O23 2.135742 1_555
Mn5 O12 2.190000 1_556
Mn5 O18 2.266142 1_556
Mn6 O17 2.130317 1_555
Mn6 O25 2.135742 1_555
Mn6 O2 2.190000 1_655
Mn6 O28 2.266142 1_555
Mn7 O16 2.130317 1_555
Mn7 O24 2.135742 1_555
Mn7 O3 2.190000 1_655
Mn7 O29 2.266142 1_555
O0 P6 1.573094 1_455
O1 P7 1.573094 1_455
O2 P2 1.577616 1_555
O3 P3 1.577616 1_555
O4 P2 1.530860 1_555
O5 P3 1.530860 1_555
O6 P3 1.552891 1_545
O7 P2 1.552891 1_555
O8 P0 1.552891 1_545
O9 P1 1.552891 1_555
O10 P0 1.530860 1_555
O11 P1 1.530860 1_555
O12 P0 1.577616 1_555
O13 P1 1.577616 1_555
O14 P4 1.573094 1_555
O15 P5 1.573094 1_555
O16 P3 1.573094 1_555
O17 P2 1.573094 1_555
O18 P6 1.577616 1_555
O19 P7 1.577616 1_555
O20 P6 1.530860 1_555
O21 P7 1.530860 1_555
O22 P6 1.552891 1_555
O23 P7 1.552891 1_565
O24 P4 1.552891 1_565
O25 P5 1.552891 1_555
O26 P4 1.530860 1_555
O27 P5 1.530860 1_555
O28 P4 1.577616 1_555
O29 P5 1.577616 1_555
O30 P0 1.573094 1_655
O31 P1 1.573094 1_655
F0 Mn3 2.159491 1_555
F0 Mn4 2.159491 1_455
F0 Li15 2.228071 1_455
F0 Li0 2.228071 1_555
F0 Li10 2.257997 1_455
F0 Li4 2.257997 1_555
F1 Li2 2.034778 1_555
F1 Li13 2.034778 1_455
F1 Li7 2.133355 1_555
F1 Li9 2.133355 1_455
F1 Mn0 2.320524 1_555
F1 Mn6 2.320524 1_455
F2 Li3 2.034778 1_555
F2 Li12 2.034778 1_455
F2 Li6 2.133355 1_555
F2 Li8 2.133355 1_455
F2 Mn1 2.320524 1_555
F2 Mn7 2.320524 1_455
F3 Mn2 2.159491 1_555
F3 Mn5 2.159491 1_455
F3 Li1 2.228071 1_555
F3 Li14 2.228071 1_455
F3 Li11 2.257997 1_455
F3 Li5 2.257997 1_555
F4 Mn6 2.159491 1_555
F4 Mn0 2.159491 1_555
F4 Li7 2.228071 1_555
F4 Li9 2.228071 1_555
F4 Li2 2.257997 1_555
F4 Li13 2.257997 1_555
F5 Li10 2.034778 1_555
F5 Li4 2.034778 1_555
F5 Li15 2.133355 1_555
F5 Li0 2.133355 1_555
F5 Mn3 2.320524 1_555
F5 Mn4 2.320524 1_555
F6 Mn7 2.159491 1_555
F6 Mn1 2.159491 1_555
F6 Li8 2.228071 1_555
F6 Li6 2.228071 1_555
F6 Li3 2.257997 1_555
F6 Li12 2.257997 1_555
F7 Li11 2.034778 1_555
F7 Li5 2.034778 1_555
F7 Li1 2.133355 1_555
F7 Li14 2.133355 1_555
F7 Mn5 2.320524 1_555
F7 Mn2 2.320524 1_555
