# generated using pymatgen
data_Li4Ti2Nb3Ni3O16
_symmetry_space_group_name_H-M   'P 1'
_cell_length_a   5.98211046
_cell_length_b   9.78890508
_cell_length_c   10.51692910
_cell_angle_alpha   90.92967897
_cell_angle_beta   89.99934403
_cell_angle_gamma   89.99949163
_symmetry_Int_Tables_number   1
_chemical_formula_structural   Li4Ti2Nb3Ni3O16
_chemical_formula_sum   'Li8 Ti4 Nb6 Ni6 O32'
_cell_volume   615.77254020
_cell_formula_units_Z   2
loop_
 _symmetry_equiv_pos_site_id
 _symmetry_equiv_pos_as_xyz
  1  'x, y, z'
loop_
 _atom_site_type_symbol
 _atom_site_label
 _atom_site_symmetry_multiplicity
 _atom_site_fract_x
 _atom_site_fract_y
 _atom_site_fract_z
 _atom_site_occupancy
  Li  Li0  1  0.50000500  0.89489500  0.16578800  1
  Li  Li1  1  0.00000500  0.89488900  0.66578400  1
  Li  Li2  1  0.49995400  0.98400100  0.48509400  1
  Li  Li3  1  0.99995500  0.98401000  0.98512900  1
  Li  Li4  1  0.50000500  0.50109700  0.49171300  1
  Li  Li5  1  0.00000200  0.50110200  0.99171900  1
  Li  Li6  1  0.00001900  0.40489900  0.33479600  1
  Li  Li7  1  0.50001900  0.40491100  0.83479900  1
  Ti  Ti0  1  0.50003000  0.50776400  0.16969700  1
  Ti  Ti1  1  0.00002900  0.50775400  0.66970400  1
  Ti  Ti2  1  0.99996300  0.98168900  0.35830600  1
  Ti  Ti3  1  0.49996000  0.98171000  0.85826200  1
  Nb  Nb0  1  0.00005300  0.72754400  0.17780200  1
  Nb  Nb1  1  0.50005400  0.72752500  0.67778400  1
  Nb  Nb2  1  0.74864600  0.21788400  0.09124100  1
  Nb  Nb3  1  0.24864000  0.21789100  0.59123300  1
  Nb  Nb4  1  0.25133400  0.21787900  0.09124200  1
  Nb  Nb5  1  0.75133900  0.21788400  0.59123200  1
  Ni  Ni0  1  0.24490200  0.70772800  0.41530000  1
  Ni  Ni1  1  0.74486700  0.70778400  0.91530400  1
  Ni  Ni2  1  0.75524800  0.70769900  0.41527000  1
  Ni  Ni3  1  0.25527900  0.70774600  0.91526900  1
  Ni  Ni4  1  0.99995200  0.20799700  0.82993600  1
  Ni  Ni5  1  0.49995600  0.20801300  0.32996700  1
  O  O0  1  0.49999200  0.34226400  0.01448600  1
  O  O1  1  0.99999100  0.34224900  0.51445500  1
  O  O2  1  0.49999100  0.09514000  0.16371200  1
  O  O3  1  0.99999000  0.09512500  0.66370200  1
  O  O4  1  0.49998800  0.31440600  0.49409300  1
  O  O5  1  0.99998800  0.31438400  0.99407100  1
  O  O6  1  0.00010100  0.79976500  0.00412400  1
  O  O7  1  0.50009900  0.79976300  0.50410900  1
  O  O8  1  0.99998800  0.09507500  0.16483100  1
  O  O9  1  0.49998800  0.09507200  0.66483500  1
  O  O10  1  0.50002300  0.58973400  0.32654100  1
  O  O11  1  0.00002100  0.58974300  0.82653500  1
  O  O12  1  0.00008800  0.60165300  0.32260100  1
  O  O13  1  0.50009000  0.60166700  0.82260700  1
  O  O14  1  0.00001800  0.85076900  0.47871700  1
  O  O15  1  0.50001600  0.85079400  0.97871800  1
  O  O16  1  0.74590000  0.59443700  0.09073800  1
  O  O17  1  0.24592100  0.59441000  0.59071200  1
  O  O18  1  0.25416500  0.59444500  0.09073800  1
  O  O19  1  0.75414600  0.59442100  0.59071300  1
  O  O20  1  0.72571500  0.34197300  0.23424300  1
  O  O21  1  0.22570200  0.34199500  0.73422400  1
  O  O22  1  0.27427900  0.34197600  0.23423600  1
  O  O23  1  0.77428800  0.34199800  0.73421600  1
  O  O24  1  0.22079300  0.84875500  0.25616800  1
  O  O25  1  0.72078500  0.84874900  0.75614600  1
  O  O26  1  0.77923100  0.84873600  0.25614600  1
  O  O27  1  0.27923800  0.84872900  0.75612400  1
  O  O28  1  0.24357300  0.09381000  0.42126200  1
  O  O29  1  0.74357700  0.09377900  0.92128000  1
  O  O30  1  0.75635100  0.09380000  0.42126600  1
  O  O31  1  0.25634600  0.09377000  0.92128400  1
loop_
_geom_bond_atom_site_label_1
_geom_bond_atom_site_label_2
_geom_bond_distance
_geom_bond_site_symmetry_2
Li0 O2 1.960655 1_565
Li0 O24 1.977680 1_555
Li0 O26 1.977694 1_555
Li0 O15 2.007355 1_554
Li1 O3 1.960569 1_465
Li1 O25 1.977629 1_455
Li1 O27 1.977640 1_555
Li1 O14 2.007361 1_555
Li2 O7 1.817764 1_555
Li2 O28 1.995430 1_565
Li2 O30 1.995439 1_565
Li2 O9 2.165357 1_565
Li3 O6 1.817806 1_656
Li3 O29 1.995265 1_565
Li3 O31 1.995265 1_665
Li3 O8 2.164973 1_566
Li4 O4 1.828078 1_555
Li4 O10 1.954294 1_555
Li4 O17 2.048838 1_555
Li4 O19 2.049173 1_555
Li5 O5 1.828333 1_455
Li5 O11 1.954425 1_555
Li5 O16 2.049117 1_456
Li5 O18 2.049452 1_556
Li6 O12 1.932347 1_555
Li6 O1 1.995939 1_455
Li6 O22 2.041671 1_555
Li6 O20 2.041881 1_455
Li7 O13 1.932364 1_555
Li7 O0 1.996209 1_556
Li7 O23 2.041809 1_555
Li7 O21 2.042034 1_555
Nb0 O24 1.949130 1_555
Nb0 O26 1.949228 1_455
Nb0 O6 1.969269 1_555
Nb0 O12 1.974485 1_555
Nb0 O18 2.192702 1_555
Nb0 O16 2.192949 1_455
Nb1 O25 1.949153 1_555
Nb1 O27 1.949257 1_555
Nb1 O7 1.969302 1_555
Nb1 O13 1.974477 1_555
Nb1 O19 2.192678 1_555
Nb1 O17 2.192946 1_555
Nb2 O20 1.922721 1_555
Nb2 O5 2.056371 1_554
Nb2 O2 2.065649 1_555
Nb2 O8 2.082079 1_555
Nb2 O0 2.092487 1_555
Nb2 O29 2.145078 1_554
Nb3 O21 1.922725 1_555
Nb3 O4 2.056307 1_555
Nb3 O3 2.065746 1_455
Nb3 O9 2.082210 1_555
Nb3 O1 2.092435 1_455
Nb3 O28 2.145035 1_555
Nb4 O22 1.922714 1_555
Nb4 O5 2.056421 1_454
Nb4 O2 2.065622 1_555
Nb4 O8 2.082066 1_455
Nb4 O0 2.092539 1_555
Nb4 O31 2.145068 1_554
Nb5 O23 1.922738 1_555
Nb5 O4 2.056351 1_555
Nb5 O3 2.065711 1_555
Nb5 O9 2.082190 1_555
Nb5 O1 2.092486 1_555
Nb5 O30 2.145002 1_555
Ni0 O7 1.996828 1_555
Ni0 O12 2.034851 1_555
Ni0 O10 2.121223 1_555
Ni0 O14 2.126279 1_555
Ni0 O17 2.167987 1_555
Ni0 O24 2.191444 1_555
Ni1 O6 1.996816 1_656
Ni1 O13 2.034888 1_555
Ni1 O11 2.121658 1_655
Ni1 O15 2.125935 1_555
Ni1 O16 2.168336 1_556
Ni1 O25 2.191255 1_555
Ni2 O7 1.996851 1_555
Ni2 O12 2.034642 1_655
Ni2 O10 2.121412 1_555
Ni2 O14 2.126118 1_655
Ni2 O19 2.168063 1_555
Ni2 O26 2.191391 1_555
Ni3 O6 1.996866 1_556
Ni3 O13 2.034645 1_555
Ni3 O11 2.121777 1_555
Ni3 O15 2.125848 1_555
Ni3 O18 2.168417 1_556
Ni3 O27 2.191213 1_555
Ni4 O5 2.001489 1_555
Ni4 O3 2.052939 1_555
Ni4 O29 2.135397 1_555
Ni4 O31 2.135546 1_655
Ni4 O23 2.144582 1_555
Ni4 O21 2.144847 1_655
Ni5 O4 2.001438 1_555
Ni5 O2 2.053130 1_555
Ni5 O28 2.135117 1_555
Ni5 O30 2.135241 1_555
Ni5 O22 2.144456 1_555
Ni5 O20 2.144711 1_555
O0 Ti0 2.281082 1_555
O1 Ti1 2.281398 1_655
O8 Ti2 2.333555 1_545
O9 Ti3 2.332996 1_545
O10 Ti0 1.822580 1_555
O11 Ti1 1.822536 1_555
O14 Ti2 1.816238 1_455
O15 Ti3 1.816546 1_555
O16 Ti0 1.896203 1_555
O17 Ti1 1.896384 1_555
O18 Ti0 1.896219 1_555
O19 Ti1 1.896390 1_655
O20 Ti0 2.225551 1_555
O21 Ti1 2.225191 1_555
O22 Ti0 2.225754 1_555
O23 Ti1 2.225397 1_655
O24 Ti2 2.132341 1_455
O25 Ti3 2.132368 1_555
O26 Ti2 2.132234 1_555
O27 Ti3 2.132248 1_555
O28 Ti2 1.934729 1_445
O29 Ti3 1.934692 1_545
O30 Ti2 1.934671 1_545
O31 Ti3 1.934617 1_545
