# generated using pymatgen
data_Fe4OF7
_symmetry_space_group_name_H-M   'P 1'
_cell_length_a   7.54872319
_cell_length_b   7.54872319
_cell_length_c   5.79870242
_cell_angle_alpha   73.21339842
_cell_angle_beta   73.21339842
_cell_angle_gamma   79.26699622
_symmetry_Int_Tables_number   1
_chemical_formula_structural   Fe4OF7
_chemical_formula_sum   'Fe8 O2 F14'
_cell_volume   300.95596726
_cell_formula_units_Z   2
loop_
 _symmetry_equiv_pos_site_id
 _symmetry_equiv_pos_as_xyz
  1  'x, y, z'
loop_
 _atom_site_type_symbol
 _atom_site_label
 _atom_site_symmetry_multiplicity
 _atom_site_fract_x
 _atom_site_fract_y
 _atom_site_fract_z
 _atom_site_occupancy
  Fe  Fe0  1  0.75283500  0.49201500  0.51836800  1
  Fe  Fe1  1  0.99931200  0.74888400  0.00062700  1
  Fe  Fe2  1  0.74888400  0.99931200  0.50062700  1
  Fe  Fe3  1  0.25244200  0.52201200  0.48955300  1
  Fe  Fe4  1  0.49201500  0.75283500  0.01836800  1
  Fe  Fe5  1  0.99531100  0.24887000  0.98673700  1
  Fe  Fe6  1  0.24887000  0.99531100  0.48673700  1
  Fe  Fe7  1  0.52201200  0.25244200  0.98955300  1
  O  O0  1  0.75986400  0.31655300  0.86420100  1
  O  O1  1  0.31655300  0.75986400  0.36420100  1
  F  F0  1  0.83451000  0.27241000  0.34449700  1
  F  F1  1  0.72669300  0.66857400  0.15996400  1
  F  F2  1  0.97022700  0.92961000  0.65548700  1
  F  F3  1  0.46711100  0.41146600  0.65727100  1
  F  F4  1  0.66857400  0.72669300  0.65996400  1
  F  F5  1  0.92961000  0.97022700  0.15548700  1
  F  F6  1  0.41146600  0.46711100  0.15727100  1
  F  F7  1  0.08474100  0.52791500  0.83401400  1
  F  F8  1  0.56919900  0.02729000  0.85059800  1
  F  F9  1  0.02729000  0.56919900  0.35059800  1
  F  F10  1  0.52791500  0.08474100  0.33401400  1
  F  F11  1  0.27241000  0.83451000  0.84449700  1
  F  F12  1  0.24154000  0.18061600  0.13868100  1
  F  F13  1  0.18061600  0.24154000  0.63868100  1
loop_
_geom_bond_atom_site_label_1
_geom_bond_atom_site_label_2
_geom_bond_distance
_geom_bond_site_symmetry_2
Fe0 O0 2.068758 1_555
Fe3 O1 1.831099 1_555
Fe4 O1 2.068758 1_555
Fe5 O0 2.026411 1_555
Fe6 O1 2.026411 1_555
Fe7 O0 1.831099 1_555
F0 Fe0 2.090553 1_555
F0 Fe5 2.118202 1_554
F0 Fe2 2.137201 1_545
F1 Fe4 2.082266 1_555
F1 Fe1 2.121112 1_555
F1 Fe0 2.161830 1_555
F2 Fe2 2.035015 1_555
F2 Fe1 2.116598 1_556
F2 Fe6 2.132403 1_655
F3 Fe3 2.050859 1_555
F3 Fe7 2.065256 1_555
F3 Fe0 2.207398 1_555
F4 Fe0 2.082266 1_555
F4 Fe2 2.121112 1_555
F4 Fe4 2.161830 1_556
F5 Fe1 2.035015 1_555
F5 Fe2 2.116598 1_555
F5 Fe5 2.132403 1_564
F6 Fe7 2.050859 1_554
F6 Fe3 2.065256 1_555
F6 Fe4 2.207398 1_555
F7 Fe3 2.040616 1_555
F7 Fe1 2.074116 1_456
F7 Fe5 2.187210 1_455
F8 Fe7 2.016075 1_555
F8 Fe4 2.129834 1_546
F8 Fe2 2.133936 1_545
F9 Fe3 2.016075 1_555
F9 Fe0 2.129834 1_455
F9 Fe1 2.133936 1_455
F10 Fe7 2.040616 1_554
F10 Fe2 2.074116 1_545
F10 Fe6 2.187210 1_545
F11 Fe4 2.090553 1_556
F11 Fe6 2.118202 1_555
F11 Fe1 2.137201 1_456
F12 Fe6 2.106687 1_545
F12 Fe7 2.150242 1_554
F12 Fe5 2.196273 1_454
F13 Fe5 2.106687 1_455
F13 Fe3 2.150242 1_555
F13 Fe6 2.196273 1_545
