# generated using pymatgen
data_LiMn3(O2F)2
_symmetry_space_group_name_H-M   'P 1'
_cell_length_a   5.08485470
_cell_length_b   5.54105833
_cell_length_c   5.30663868
_cell_angle_alpha   120.01130198
_cell_angle_beta   59.99989865
_cell_angle_gamma   114.32614274
_symmetry_Int_Tables_number   1
_chemical_formula_structural   LiMn3(O2F)2
_chemical_formula_sum   'Li1 Mn3 O4 F2'
_cell_volume   109.48256754
_cell_formula_units_Z   1
loop_
 _symmetry_equiv_pos_site_id
 _symmetry_equiv_pos_as_xyz
  1  'x, y, z'
loop_
 _atom_site_type_symbol
 _atom_site_label
 _atom_site_symmetry_multiplicity
 _atom_site_fract_x
 _atom_site_fract_y
 _atom_site_fract_z
 _atom_site_occupancy
  Li  Li0  1  0.61751400  0.90631100  0.62684500  1
  Mn  Mn0  1  0.15824300  0.44067100  0.14766100  1
  Mn  Mn1  1  0.38367700  0.07608400  0.34715000  1
  Mn  Mn2  1  0.83298100  0.51258800  0.84977900  1
  O  O0  1  0.08687600  0.27816200  0.46007300  1
  O  O1  1  0.53423600  0.73306300  0.22516200  1
  O  O2  1  0.78612900  0.28001900  0.06208200  1
  O  O3  1  0.43817700  0.24960000  0.73891100  1
  F  F0  1  0.24149600  0.79467000  0.96916000  1
  F  F1  1  0.92067200  0.72883100  0.57317600  1
loop_
_geom_bond_atom_site_label_1
_geom_bond_atom_site_label_2
_geom_bond_distance
_geom_bond_site_symmetry_2
Li0 O1 2.040904 1_555
Li0 O3 2.135111 1_565
Li0 O2 2.467951 1_566
Li0 O0 2.526911 1_665
Mn0 O2 1.909476 1_455
Mn0 O3 1.925816 1_554
Mn0 O1 2.004275 1_555
Mn0 O0 2.076910 1_555
Mn1 O3 1.918407 1_555
Mn1 O0 1.925401 1_555
Mn1 O1 2.022426 1_545
Mn1 O2 2.112413 1_555
Mn2 O0 1.911885 1_655
Mn2 O1 1.958742 1_556
Mn2 O2 1.979323 1_556
Mn2 O3 2.100745 1_555
F0 Li0 2.003664 1_555
F0 Mn1 2.090501 1_566
F0 Mn2 2.193137 1_455
F0 Mn0 2.386972 1_556
F1 Li0 1.988529 1_555
F1 Mn0 2.088596 1_655
F1 Mn2 2.110398 1_555
F1 Mn1 2.537024 1_665
