# generated using pymatgen
data_Na3CoBAsO7
_symmetry_space_group_name_H-M   'P 1'
_cell_length_a   5.29307494
_cell_length_b   11.39472785
_cell_length_c   11.38640119
_cell_angle_alpha   106.36316743
_cell_angle_beta   90.83927695
_cell_angle_gamma   89.13550885
_symmetry_Int_Tables_number   1
_chemical_formula_structural   Na3CoBAsO7
_chemical_formula_sum   'Na12 Co4 B4 As4 O28'
_cell_volume   658.81940657
_cell_formula_units_Z   4
loop_
 _symmetry_equiv_pos_site_id
 _symmetry_equiv_pos_as_xyz
  1  'x, y, z'
loop_
 _atom_site_type_symbol
 _atom_site_label
 _atom_site_symmetry_multiplicity
 _atom_site_fract_x
 _atom_site_fract_y
 _atom_site_fract_z
 _atom_site_occupancy
  Na  Na0  1  0.76207400  0.16563300  0.08397400  1
  Na  Na1  1  0.75815500  0.66576300  0.58467100  1
  Na  Na2  1  0.23800400  0.83439900  0.91606200  1
  Na  Na3  1  0.24175900  0.33420700  0.41534000  1
  Na  Na4  1  0.24504900  0.12234800  0.87743700  1
  Na  Na5  1  0.24343600  0.62214300  0.37774300  1
  Na  Na6  1  0.24580400  0.37241500  0.12827400  1
  Na  Na7  1  0.24308100  0.87268900  0.62764300  1
  Na  Na8  1  0.75429800  0.62760100  0.87170800  1
  Na  Na9  1  0.75697400  0.12730400  0.37236000  1
  Na  Na10  1  0.75493400  0.87764700  0.12255300  1
  Na  Na11  1  0.75643800  0.37785400  0.62227000  1
  Co  Co0  1  0.77656700  0.04206200  0.70809700  1
  Co  Co1  1  0.22346500  0.95793200  0.29186800  1
  Co  Co2  1  0.77681400  0.54194100  0.20816300  1
  Co  Co3  1  0.22313100  0.45804500  0.79183900  1
  B  B0  1  0.74034800  0.40656000  0.34324600  1
  B  B1  1  0.73739700  0.90710100  0.84326800  1
  B  B2  1  0.25958000  0.59341900  0.65675300  1
  B  B3  1  0.26266600  0.09290800  0.15671500  1
  As  As0  1  0.71324000  0.33742500  0.91275800  1
  As  As1  1  0.71414800  0.83726900  0.41300700  1
  As  As2  1  0.28674400  0.66257400  0.08726100  1
  As  As3  1  0.28587200  0.16272000  0.58697100  1
  O  O0  1  0.31453700  0.16515400  0.08489900  1
  O  O1  1  0.31079700  0.66565800  0.58488900  1
  O  O2  1  0.68552300  0.83487100  0.91509900  1
  O  O3  1  0.68909900  0.33432600  0.41511400  1
  O  O4  1  0.97759300  0.43690900  0.31187400  1
  O  O5  1  0.97514400  0.93847900  0.81337400  1
  O  O6  1  0.02234900  0.56299700  0.68806800  1
  O  O7  1  0.02492200  0.06148900  0.18657000  1
  O  O8  1  0.54630800  0.46276200  0.28877900  1
  O  O9  1  0.54423600  0.96201800  0.78703200  1
  O  O10  1  0.45364200  0.53729300  0.71128500  1
  O  O11  1  0.45582200  0.03801300  0.21297400  1
  O  O12  1  0.39105600  0.35615600  0.89347100  1
  O  O13  1  0.39214100  0.85667700  0.39433800  1
  O  O14  1  0.60892300  0.64390200  0.10660200  1
  O  O15  1  0.60789700  0.14333000  0.60562900  1
  O  O16  1  0.13135600  0.58067300  0.16891500  1
  O  O17  1  0.13041200  0.08117500  0.66887300  1
  O  O18  1  0.86859400  0.41935300  0.83111700  1
  O  O19  1  0.86962700  0.91879900  0.33109200  1
  O  O20  1  0.79098300  0.18395800  0.87031200  1
  O  O21  1  0.79154600  0.68365900  0.37071700  1
  O  O22  1  0.79038800  0.37963300  0.06639500  1
  O  O23  1  0.79244700  0.87943000  0.56655400  1
  O  O24  1  0.20963600  0.62035800  0.93361200  1
  O  O25  1  0.20752500  0.12058800  0.43343600  1
  O  O26  1  0.20905100  0.81604600  0.12967600  1
  O  O27  1  0.20846700  0.31633200  0.62932200  1
loop_
_geom_bond_atom_site_label_1
_geom_bond_atom_site_label_2
_geom_bond_distance
_geom_bond_site_symmetry_2
Na0 O7 2.322121 1_655
Na0 O0 2.369120 1_555
Na0 O20 2.506757 1_554
Na0 O22 2.509101 1_555
Na1 O6 2.322060 1_655
Na1 O1 2.367956 1_555
Na1 O23 2.510095 1_555
Na1 O21 2.510247 1_555
Na1 O10 2.854420 1_555
Na1 O1 2.925123 1_655
Na2 O5 2.322357 1_455
Na2 O2 2.369032 1_555
Na2 O26 2.506346 1_556
Na2 O24 2.509471 1_555
Na3 O4 2.322011 1_455
Na3 O3 2.367864 1_555
Na3 O25 2.509438 1_555
Na3 O27 2.510434 1_555
Na3 O8 2.854777 1_555
Na3 O3 2.925214 1_455
Na4 O0 2.298726 1_556
Na4 O17 2.359353 1_555
Na4 O9 2.409552 1_545
Na4 O5 2.482206 1_445
Na4 O20 2.500250 1_455
Na4 O12 2.740871 1_555
Na5 O1 2.293019 1_555
Na5 O16 2.358645 1_555
Na5 O8 2.411954 1_555
Na5 O4 2.482797 1_455
Na5 O21 2.488829 1_455
Na5 O13 2.751695 1_555
Na6 O0 2.296945 1_555
Na6 O16 2.357655 1_555
Na6 O8 2.415364 1_555
Na6 O4 2.472993 1_455
Na6 O22 2.508160 1_455
Na6 O12 2.747759 1_554
Na7 O1 2.294155 1_555
Na7 O17 2.357280 1_565
Na7 O9 2.407096 1_555
Na7 O23 2.480943 1_455
Na7 O5 2.491630 1_455
Na7 O13 2.738022 1_555
Na8 O2 2.297063 1_555
Na8 O18 2.357398 1_555
Na8 O10 2.415206 1_555
Na8 O6 2.472915 1_655
Na8 O24 2.507871 1_655
Na8 O14 2.748842 1_556
Na9 O3 2.294177 1_555
Na9 O19 2.357430 1_545
Na9 O11 2.406969 1_555
Na9 O25 2.480454 1_655
Na9 O7 2.492198 1_655
Na9 O15 2.737624 1_555
Na10 O2 2.298604 1_554
Na10 O19 2.359175 1_555
Na10 O11 2.409592 1_565
Na10 O7 2.482201 1_665
Na10 O26 2.500478 1_655
Na10 O14 2.740390 1_555
Na11 O3 2.293102 1_555
Na11 O18 2.358920 1_555
Na11 O10 2.412228 1_555
Na11 O6 2.482158 1_655
Na11 O27 2.489580 1_655
Na11 O15 2.751216 1_555
Co0 O9 1.918358 1_545
Co0 O17 2.016881 1_655
Co0 O15 2.046184 1_555
Co0 O20 2.085318 1_555
Co0 O23 2.086894 1_545
Co0 O5 2.158166 1_545
Co1 O11 1.918423 1_565
Co1 O19 2.016914 1_455
Co1 O13 2.046107 1_555
Co1 O26 2.085083 1_555
Co1 O25 2.087238 1_565
Co1 O7 2.158043 1_565
Co2 O8 1.917776 1_555
Co2 O16 2.019128 1_655
Co2 O14 2.042692 1_555
Co2 O22 2.085335 1_555
Co2 O21 2.086888 1_555
Co2 O4 2.162745 1_555
Co3 O10 1.917839 1_555
Co3 O18 2.019070 1_455
Co3 O12 2.042757 1_555
Co3 O24 2.085389 1_555
Co3 O27 2.086564 1_555
Co3 O6 2.162589 1_555
B0 O3 1.346644 1_555
B0 O4 1.385627 1_555
B0 O8 1.426497 1_555
B1 O2 1.347009 1_555
B1 O5 1.386362 1_555
B1 O9 1.426260 1_555
B2 O1 1.346616 1_555
B2 O6 1.385618 1_555
B2 O10 1.426502 1_555
B3 O0 1.347015 1_555
B3 O7 1.386360 1_555
B3 O11 1.426249 1_555
As0 O18 1.716500 1_555
As0 O20 1.723028 1_555
As0 O22 1.723166 1_556
As0 O12 1.733908 1_555
As1 O19 1.715832 1_555
As1 O23 1.723602 1_555
As1 O21 1.724137 1_555
As1 O13 1.733089 1_555
As2 O16 1.716476 1_555
As2 O26 1.723021 1_555
As2 O24 1.723246 1_554
As2 O14 1.733876 1_555
As3 O17 1.715798 1_555
As3 O25 1.723534 1_555
As3 O27 1.724165 1_555
As3 O15 1.733134 1_555
