# generated using pymatgen
data_Li6(CoO2)5
_symmetry_space_group_name_H-M   'P 1'
_cell_length_a   5.44464500
_cell_length_b   6.34520396
_cell_length_c   8.35098088
_cell_angle_alpha   77.36764142
_cell_angle_beta   76.95440219
_cell_angle_gamma   67.41628612
_symmetry_Int_Tables_number   1
_chemical_formula_structural   Li6(CoO2)5
_chemical_formula_sum   'Li6 Co5 O10'
_cell_volume   256.69685747
_cell_formula_units_Z   1
loop_
 _symmetry_equiv_pos_site_id
 _symmetry_equiv_pos_as_xyz
  1  'x, y, z'
loop_
 _atom_site_type_symbol
 _atom_site_label
 _atom_site_symmetry_multiplicity
 _atom_site_fract_x
 _atom_site_fract_y
 _atom_site_fract_z
 _atom_site_occupancy
  Li  Li0  1  0.05014800  0.29588000  0.42793300  1
  Li  Li1  1  0.04565500  0.16884000  0.06095400  1
  Li  Li2  1  0.04573500  0.73803900  0.25236200  1
  Li  Li3  1  0.95426500  0.26196100  0.74763800  1
  Li  Li4  1  0.94985200  0.70412000  0.57206700  1
  Li  Li5  1  0.95434500  0.83116000  0.93904600  1
  Co  Co0  1  0.50000000  0.50000000  0.50000000  1
  Co  Co1  1  0.50174600  0.29144300  0.09435000  1
  Co  Co2  1  0.50600300  0.89125900  0.29660900  1
  Co  Co3  1  0.49399700  0.10874100  0.70339100  1
  Co  Co4  1  0.49825400  0.70855700  0.90565000  1
  O  O0  1  0.24368000  0.35917300  0.59387100  1
  O  O1  1  0.25456400  0.58603600  0.05227600  1
  O  O2  1  0.25590500  0.16734900  0.22210900  1
  O  O3  1  0.25467500  0.76100200  0.41141800  1
  O  O4  1  0.24109500  0.99341000  0.85971300  1
  O  O5  1  0.74532500  0.23899800  0.58858200  1
  O  O6  1  0.74543600  0.41396400  0.94772400  1
  O  O7  1  0.75890500  0.00659000  0.14028700  1
  O  O8  1  0.75632000  0.64082700  0.40612900  1
  O  O9  1  0.74409500  0.83265100  0.77789100  1
loop_
_geom_bond_atom_site_label_1
_geom_bond_atom_site_label_2
_geom_bond_distance
_geom_bond_site_symmetry_2
Li0 O2 1.979045 1_555
Li0 O5 1.981831 1_455
Li0 O0 2.102269 1_555
Li0 O8 2.156598 1_455
Li1 O2 1.950208 1_555
Li1 O6 2.021618 1_454
Li1 O4 2.072872 1_544
Li1 O7 2.098943 1_455
Li2 O3 1.993442 1_555
Li2 O8 1.999760 1_455
Li2 O1 2.004966 1_555
Li2 O7 2.033929 1_465
Li3 O5 1.993442 1_555
Li3 O0 1.999760 1_655
Li3 O6 2.004966 1_555
Li3 O4 2.033929 1_645
Li4 O9 1.979045 1_555
Li4 O3 1.981831 1_655
Li4 O8 2.102269 1_555
Li4 O0 2.156598 1_655
Li5 O9 1.950208 1_555
Li5 O1 2.021618 1_656
Li5 O7 2.072872 1_566
Li5 O4 2.098943 1_655
Co0 O5 1.812525 1_555
Co0 O3 1.812525 1_555
Co0 O8 1.875675 1_555
Co0 O0 1.875675 1_555
Co1 O2 1.829557 1_555
Co1 O7 1.835732 1_555
Co1 O1 1.850079 1_555
Co1 O6 1.872582 1_554
Co2 O2 1.839508 1_565
Co2 O3 1.845163 1_555
Co2 O8 1.866194 1_555
Co2 O7 1.918418 1_565
Co3 O9 1.839508 1_545
Co3 O5 1.845163 1_555
Co3 O0 1.866194 1_555
Co3 O4 1.918418 1_545
Co4 O9 1.829557 1_555
Co4 O4 1.835732 1_555
Co4 O6 1.850079 1_555
Co4 O1 1.872582 1_556
