# generated using pymatgen
data_Li2Sn(BO3)2
_symmetry_space_group_name_H-M   'P 1'
_cell_length_a   8.98132500
_cell_length_b   5.22364600
_cell_length_c   10.48521604
_cell_angle_alpha   86.81687050
_cell_angle_beta   90.00000000
_cell_angle_gamma   90.00000000
_symmetry_Int_Tables_number   1
_chemical_formula_structural   Li2Sn(BO3)2
_chemical_formula_sum   'Li8 Sn4 B8 O24'
_cell_volume   491.15771188
_cell_formula_units_Z   4
loop_
 _symmetry_equiv_pos_site_id
 _symmetry_equiv_pos_as_xyz
  1  'x, y, z'
loop_
 _atom_site_type_symbol
 _atom_site_label
 _atom_site_symmetry_multiplicity
 _atom_site_fract_x
 _atom_site_fract_y
 _atom_site_fract_z
 _atom_site_occupancy
  Li  Li0  1  0.34321000  0.05362100  0.38995100  1
  Li  Li1  1  0.02815300  0.05488700  0.84893000  1
  Li  Li2  1  0.84321000  0.94637900  0.61004900  1
  Li  Li3  1  0.52815300  0.94511300  0.15107000  1
  Li  Li4  1  0.48417600  0.57852900  0.33835300  1
  Li  Li5  1  0.45862400  0.61193400  0.93263500  1
  Li  Li6  1  0.98417600  0.42147100  0.66164700  1
  Li  Li7  1  0.95862400  0.38806600  0.06736500  1
  Sn  Sn0  1  0.69453200  0.11619200  0.87803400  1
  Sn  Sn1  1  0.19453200  0.88380800  0.12196600  1
  Sn  Sn2  1  0.83018100  0.59555800  0.37640800  1
  Sn  Sn3  1  0.33018100  0.40444200  0.62359200  1
  B  B0  1  0.66874500  0.07830700  0.36579300  1
  B  B1  1  0.35080800  0.10464200  0.88164200  1
  B  B2  1  0.16874500  0.92169300  0.63420700  1
  B  B3  1  0.85080800  0.89535800  0.11835800  1
  B  B4  1  0.17096200  0.58030800  0.38013600  1
  B  B5  1  0.79945800  0.57373700  0.87150300  1
  B  B6  1  0.67096200  0.41969200  0.61986400  1
  B  B7  1  0.29945800  0.42626300  0.12849700  1
  O  O0  1  0.68889400  0.17830400  0.68100100  1
  O  O1  1  0.34305500  0.17595400  0.15293300  1
  O  O2  1  0.05100400  0.07051200  0.66218900  1
  O  O3  1  0.98421200  0.02447900  0.09498100  1
  O  O4  1  0.72155900  0.01269500  0.07243900  1
  O  O5  1  0.80782300  0.97637800  0.40432300  1
  O  O6  1  0.30782300  0.02362200  0.59567700  1
  O  O7  1  0.22155900  0.98730500  0.92756100  1
  O  O8  1  0.48421200  0.97552100  0.90501900  1
  O  O9  1  0.55100400  0.92948800  0.33781100  1
  O  O10  1  0.18889400  0.82169600  0.31899900  1
  O  O11  1  0.84305500  0.82404600  0.84706700  1
  O  O12  1  0.15811900  0.65194000  0.64407500  1
  O  O13  1  0.84860400  0.65375000  0.18045900  1
  O  O14  1  0.39788000  0.63214600  0.13031500  1
  O  O15  1  0.53641000  0.53780100  0.59541000  1
  O  O16  1  0.80095700  0.55059400  0.57767800  1
  O  O17  1  0.65306200  0.50406000  0.89776200  1
  O  O18  1  0.15306200  0.49594000  0.10223800  1
  O  O19  1  0.30095700  0.44940600  0.42232200  1
  O  O20  1  0.03641000  0.46219900  0.40459000  1
  O  O21  1  0.89788000  0.36785400  0.86968500  1
  O  O22  1  0.65811900  0.34806000  0.35592500  1
  O  O23  1  0.34860400  0.34625000  0.81954100  1
loop_
_geom_bond_atom_site_label_1
_geom_bond_atom_site_label_2
_geom_bond_distance
_geom_bond_site_symmetry_2
Li0 O10 2.010512 1_545
Li0 O9 2.059527 1_545
Li0 O19 2.147430 1_555
Li0 O6 2.177390 1_555
Li0 O1 2.531429 1_555
Li1 O7 1.946627 1_545
Li1 O2 1.965929 1_555
Li1 O21 2.031869 1_455
Li1 O11 2.054431 1_445
Li2 O0 2.010512 1_565
Li2 O2 2.059527 1_665
Li2 O16 2.147430 1_555
Li2 O5 2.177390 1_555
Li2 O11 2.531429 1_555
Li3 O4 1.946627 1_565
Li3 O9 1.965929 1_555
Li3 O14 2.031869 1_555
Li3 O1 2.054431 1_565
Li4 O9 1.928745 1_555
Li4 O19 1.967736 1_555
Li4 O22 1.974652 1_555
Li4 O14 2.317212 1_555
Li5 O17 1.877155 1_555
Li5 O8 1.919045 1_555
Li5 O23 2.119295 1_555
Li5 O14 2.151568 1_556
Li6 O2 1.928745 1_655
Li6 O16 1.967736 1_555
Li6 O12 1.974652 1_655
Li6 O21 2.317212 1_555
Li7 O18 1.877155 1_655
Li7 O3 1.919045 1_555
Li7 O13 2.119295 1_555
Li7 O21 2.151568 1_554
B0 O9 1.354242 1_545
B0 O5 1.408219 1_545
B0 O22 1.410379 1_555
B1 O7 1.386449 1_545
B1 O23 1.387785 1_555
B1 O8 1.390035 1_545
B2 O2 1.354242 1_565
B2 O6 1.408219 1_565
B2 O12 1.410379 1_555
B3 O4 1.386449 1_565
B3 O13 1.387785 1_555
B3 O3 1.390035 1_565
B4 O20 1.374474 1_555
B4 O10 1.391773 1_555
B4 O19 1.411648 1_555
B5 O11 1.375276 1_555
B5 O17 1.387778 1_555
B5 O21 1.393068 1_555
B6 O15 1.374474 1_555
B6 O0 1.391773 1_555
B6 O16 1.411648 1_555
B7 O1 1.375276 1_555
B7 O18 1.387778 1_555
B7 O14 1.393068 1_555
O0 Sn0 2.074000 1_555
O1 Sn1 2.066087 1_545
O3 Sn1 2.040848 1_645
O4 Sn0 2.093754 1_554
O5 Sn2 2.036626 1_555
O6 Sn3 2.036626 1_555
O7 Sn1 2.093754 1_556
O8 Sn0 2.040848 1_565
O10 Sn1 2.074000 1_555
O11 Sn0 2.066087 1_565
O12 Sn3 2.033837 1_555
O13 Sn2 2.066802 1_555
O14 Sn1 2.249119 1_555
O15 Sn3 1.995098 1_555
O16 Sn2 2.126647 1_555
O17 Sn0 2.081604 1_555
O18 Sn1 2.081604 1_555
O19 Sn3 2.126647 1_555
O20 Sn2 1.995098 1_455
O21 Sn0 2.249119 1_555
O22 Sn2 2.033837 1_555
O23 Sn3 2.066802 1_555
