# generated using pymatgen
data_Mn2NbV3(PO4)6
_symmetry_space_group_name_H-M   'P 1'
_cell_length_a   8.73006913
_cell_length_b   8.73006913
_cell_length_c   8.73006949
_cell_angle_alpha   59.97171730
_cell_angle_beta   59.97171730
_cell_angle_gamma   59.97171106
_symmetry_Int_Tables_number   1
_chemical_formula_structural   Mn2NbV3(PO4)6
_chemical_formula_sum   'Mn2 Nb1 V3 P6 O24'
_cell_volume   470.17487996
_cell_formula_units_Z   1
loop_
 _symmetry_equiv_pos_site_id
 _symmetry_equiv_pos_as_xyz
  1  'x, y, z'
loop_
 _atom_site_type_symbol
 _atom_site_label
 _atom_site_symmetry_multiplicity
 _atom_site_fract_x
 _atom_site_fract_y
 _atom_site_fract_z
 _atom_site_occupancy
  Mn  Mn0  1  0.99572600  0.99572600  0.99572600  1
  Mn  Mn1  1  0.49945100  0.49945100  0.49945100  1
  Nb  Nb0  1  0.14375500  0.14375500  0.14375500  1
  V  V0  1  0.64321700  0.64321700  0.64321700  1
  V  V1  1  0.85474500  0.85474500  0.85474500  1
  V  V2  1  0.35688200  0.35688200  0.35688200  1
  P  P0  1  0.95630500  0.25259900  0.54817900  1
  P  P1  1  0.54817900  0.95630500  0.25259900  1
  P  P2  1  0.25259900  0.54817900  0.95630500  1
  P  P3  1  0.74470000  0.46204100  0.04156600  1
  P  P4  1  0.46204100  0.04156600  0.74470000  1
  P  P5  1  0.04156600  0.74470000  0.46204100  1
  O  O0  1  0.50624700  0.11489000  0.30755900  1
  O  O1  1  0.30755900  0.50624700  0.11489000  1
  O  O2  1  0.11489000  0.30755900  0.50624700  1
  O  O3  1  0.93993700  0.08654500  0.73601600  1
  O  O4  1  0.00106100  0.19137200  0.38280100  1
  O  O5  1  0.76446700  0.41193400  0.55654300  1
  O  O6  1  0.73601600  0.93993700  0.08654500  1
  O  O7  1  0.55654300  0.76446700  0.41193300  1
  O  O8  1  0.80837200  0.61488300  0.00580300  1
  O  O9  1  0.41193400  0.55654300  0.76446700  1
  O  O10  1  0.91280000  0.26502000  0.06141700  1
  O  O11  1  0.61488300  0.00580300  0.80837200  1
  O  O12  1  0.38280100  0.00106100  0.19137200  1
  O  O13  1  0.08654500  0.73601600  0.93993700  1
  O  O14  1  0.58756000  0.44003500  0.23575700  1
  O  O15  1  0.19137200  0.38280100  0.00106100  1
  O  O16  1  0.44003500  0.23575700  0.58756000  1
  O  O17  1  0.26502000  0.06141700  0.91280000  1
  O  O18  1  0.23575700  0.58756000  0.44003500  1
  O  O19  1  0.00580300  0.80837200  0.61488300  1
  O  O20  1  0.06141700  0.91280000  0.26502000  1
  O  O21  1  0.88320100  0.69457000  0.49205700  1
  O  O22  1  0.69457000  0.49205700  0.88320100  1
  O  O23  1  0.49205700  0.88320100  0.69457000  1
loop_
_geom_bond_atom_site_label_1
_geom_bond_atom_site_label_2
_geom_bond_distance
_geom_bond_site_symmetry_2
Mn0 O13 2.219453 1_655
Mn0 O6 2.219453 1_556
Mn0 O3 2.219453 1_565
Mn0 O10 2.368632 1_566
Mn0 O17 2.368632 1_665
Mn0 O20 2.368632 1_656
Mn1 O18 2.276788 1_555
Mn1 O16 2.276788 1_555
Mn1 O14 2.276788 1_555
Mn1 O7 2.277883 1_555
Mn1 O5 2.277886 1_555
Mn1 O9 2.277886 1_555
Nb0 O12 1.956476 1_555
Nb0 O15 1.956476 1_555
Nb0 O4 1.956476 1_555
Nb0 O10 2.062840 1_455
Nb0 O17 2.062840 1_554
Nb0 O20 2.062840 1_545
O0 P1 1.504243 1_545
O0 V2 1.984998 1_555
O1 P2 1.504243 1_554
O1 V2 1.984998 1_555
O2 P0 1.504243 1_455
O2 V2 1.984998 1_555
O3 P0 1.550662 1_555
O3 V1 2.087592 1_545
O4 P0 1.587946 1_455
O5 P0 1.546841 1_555
O5 V0 2.087635 1_555
O6 P1 1.550662 1_555
O6 V1 2.087592 1_554
O7 P1 1.546838 1_555
O7 V0 2.087643 1_555
O8 P3 1.529235 1_555
O8 V1 1.959124 1_554
O9 P2 1.546841 1_555
O9 V0 2.087635 1_555
O10 P3 1.603740 1_555
O11 P4 1.529234 1_555
O11 V1 1.959124 1_545
O12 P1 1.587946 1_545
O13 P2 1.550662 1_555
O13 V1 2.087592 1_455
O14 P3 1.550173 1_555
O14 V2 2.065002 1_555
O15 P2 1.587946 1_554
O16 P4 1.550173 1_555
O16 V2 2.065002 1_555
O17 P4 1.603740 1_555
O18 P5 1.550173 1_555
O18 V2 2.065002 1_555
O19 P5 1.529235 1_555
O19 V1 1.959124 1_455
O20 P5 1.603740 1_555
O21 P5 1.516510 1_655
O21 V0 1.978032 1_555
O22 P3 1.516510 1_556
O22 V0 1.978032 1_555
O23 P4 1.516510 1_565
O23 V0 1.978032 1_555
