# generated using pymatgen
data_Li4VCr3O8
_symmetry_space_group_name_H-M   'P 1'
_cell_length_a   5.14628697
_cell_length_b   5.96595440
_cell_length_c   5.92948039
_cell_angle_alpha   119.79130420
_cell_angle_beta   90.00134011
_cell_angle_gamma   73.07072744
_symmetry_Int_Tables_number   1
_chemical_formula_structural   Li4VCr3O8
_chemical_formula_sum   'Li4 V1 Cr3 O8'
_cell_volume   148.83208086
_cell_formula_units_Z   1
loop_
 _symmetry_equiv_pos_site_id
 _symmetry_equiv_pos_as_xyz
  1  'x, y, z'
loop_
 _atom_site_type_symbol
 _atom_site_label
 _atom_site_symmetry_multiplicity
 _atom_site_fract_x
 _atom_site_fract_y
 _atom_site_fract_z
 _atom_site_occupancy
  Li  Li0  1  0.99329700  0.00312700  0.00152400  1
  Li  Li1  1  0.00673700  0.99683100  0.49847800  1
  Li  Li2  1  0.50000400  0.00001500  0.25000400  1
  Li  Li3  1  0.49999500  0.99999300  0.75000800  1
  V  V0  1  0.50008100  0.49996900  0.75002400  1
  Cr  Cr0  1  0.50014500  0.50009900  0.24991900  1
  Cr  Cr1  1  0.99987400  0.49999200  0.50121800  1
  Cr  Cr2  1  0.99988100  0.49999800  0.99885700  1
  O  O0  1  0.23867200  0.26971200  0.63487400  1
  O  O1  1  0.76130500  0.73026700  0.86515600  1
  O  O2  1  0.24256700  0.27672700  0.13839400  1
  O  O3  1  0.75747700  0.72324500  0.36160300  1
  O  O4  1  0.74395000  0.27326200  0.38497300  1
  O  O5  1  0.25603300  0.72674400  0.11498800  1
  O  O6  1  0.25595500  0.72683200  0.61165800  1
  O  O7  1  0.74402500  0.27318500  0.88832000  1
loop_
_geom_bond_atom_site_label_1
_geom_bond_atom_site_label_2
_geom_bond_distance
_geom_bond_site_symmetry_2
Li0 O1 2.133782 1_544
Li0 O7 2.136104 1_554
Li0 O4 2.137304 1_555
Li0 O5 2.191704 1_645
Li0 O6 2.191865 1_644
Li0 O2 2.207188 1_655
Li1 O0 2.133645 1_565
Li1 O6 2.135641 1_555
Li1 O5 2.137357 1_555
Li1 O7 2.191896 1_465
Li1 O4 2.192181 1_465
Li1 O3 2.207087 1_455
Li2 O1 2.167052 1_544
Li2 O0 2.167194 1_555
Li2 O2 2.174931 1_555
Li2 O3 2.175212 1_545
Li2 O4 2.183912 1_555
Li2 O5 2.184117 1_545
Li3 O0 2.166846 1_565
Li3 O1 2.166906 1_555
Li3 O2 2.175448 1_566
Li3 O3 2.175637 1_555
Li3 O6 2.183925 1_555
Li3 O7 2.184018 1_565
Cr0 O3 2.028620 1_555
Cr0 O2 2.030611 1_555
Cr0 O7 2.032580 1_554
Cr0 O5 2.032809 1_555
Cr0 O4 2.033448 1_555
Cr0 O6 2.033899 1_555
Cr1 O1 2.030624 1_555
Cr1 O0 2.030852 1_655
Cr1 O3 2.035542 1_555
Cr1 O2 2.036231 1_655
Cr1 O4 2.037267 1_555
Cr1 O6 2.038401 1_655
Cr2 O1 2.030535 1_555
Cr2 O0 2.031282 1_655
Cr2 O3 2.035269 1_556
Cr2 O2 2.035905 1_656
Cr2 O7 2.037312 1_555
Cr2 O5 2.038312 1_656
O0 V0 2.075389 1_555
O1 V0 2.074757 1_555
O4 V0 2.047477 1_555
O5 V0 2.047471 1_554
O6 V0 2.048520 1_555
O7 V0 2.047503 1_555
