# generated using pymatgen
data_Li2Fe2(CO3)3
_symmetry_space_group_name_H-M   'P 1'
_cell_length_a   6.04456445
_cell_length_b   6.04456782
_cell_length_c   10.08856953
_cell_angle_alpha   90.02257444
_cell_angle_beta   90.02348097
_cell_angle_gamma   108.34933165
_symmetry_Int_Tables_number   1
_chemical_formula_structural   Li2Fe2(CO3)3
_chemical_formula_sum   'Li4 Fe4 C6 O18'
_cell_volume   349.86201632
_cell_formula_units_Z   2
loop_
 _symmetry_equiv_pos_site_id
 _symmetry_equiv_pos_as_xyz
  1  'x, y, z'
loop_
 _atom_site_type_symbol
 _atom_site_label
 _atom_site_symmetry_multiplicity
 _atom_site_fract_x
 _atom_site_fract_y
 _atom_site_fract_z
 _atom_site_occupancy
  Li  Li0  1  0.12390000  0.72220200  0.24613600  1
  Li  Li1  1  0.12377000  0.72193100  0.75402700  1
  Li  Li2  1  0.72222200  0.12394400  0.24612800  1
  Li  Li3  1  0.72193900  0.12375700  0.75404400  1
  Fe  Fe0  1  0.59654300  0.59657400  0.25540600  1
  Fe  Fe1  1  0.59618800  0.59617000  0.74482000  1
  Fe  Fe2  1  0.93414300  0.93415100  0.50054200  1
  Fe  Fe3  1  0.91768500  0.91766800  0.00019800  1
  C  C0  1  0.24090400  0.24090700  0.24983700  1
  C  C1  1  0.24063300  0.24063000  0.74984400  1
  C  C2  1  0.46624200  0.87457100  0.99998000  1
  C  C3  1  0.47753500  0.88082900  0.50005600  1
  C  C4  1  0.87457400  0.46624100  0.99997700  1
  C  C5  1  0.88082600  0.47753000  0.50005100  1
  O  O0  1  0.05725100  0.05724200  0.25056500  1
  O  O1  1  0.05697400  0.05697700  0.74867000  1
  O  O2  1  0.26556500  0.89664900  0.99987100  1
  O  O3  1  0.27699200  0.90175200  0.49995400  1
  O  O4  1  0.89665900  0.26555800  0.99987700  1
  O  O5  1  0.90176100  0.27700900  0.49994100  1
  O  O6  1  0.22776500  0.45135100  0.24957600  1
  O  O7  1  0.22756100  0.45104500  0.75027400  1
  O  O8  1  0.45135900  0.22779600  0.24957800  1
  O  O9  1  0.45104800  0.22754200  0.75028500  1
  O  O10  1  0.58099900  0.86501900  0.10980900  1
  O  O11  1  0.59301500  0.87235400  0.60997400  1
  O  O12  1  0.86500400  0.58099200  0.10980500  1
  O  O13  1  0.87235600  0.59301000  0.60997400  1
  O  O14  1  0.59316300  0.87248600  0.39022800  1
  O  O15  1  0.58094800  0.86497500  0.89017400  1
  O  O16  1  0.87246400  0.59317900  0.39022900  1
  O  O17  1  0.86499300  0.58094300  0.89017000  1
loop_
_geom_bond_atom_site_label_1
_geom_bond_atom_site_label_2
_geom_bond_distance
_geom_bond_site_symmetry_2
Li0 O6 1.929480 1_555
Li0 O12 2.055601 1_455
Li0 O16 2.070682 1_455
Li0 O0 2.186149 1_565
Li1 O7 1.929461 1_555
Li1 O17 2.054951 1_455
Li1 O13 2.068921 1_455
Li1 O1 2.186848 1_565
Li2 O8 1.929504 1_555
Li2 O10 2.055652 1_545
Li2 O14 2.070838 1_545
Li2 O0 2.186236 1_655
Li3 O9 1.929468 1_555
Li3 O15 2.054878 1_545
Li3 O11 2.069012 1_545
Li3 O1 2.186741 1_655
Fe0 O8 2.123838 1_555
Fe0 O6 2.123856 1_555
Fe0 O14 2.156756 1_555
Fe0 O16 2.156810 1_555
Fe0 O10 2.212937 1_555
Fe0 O12 2.213116 1_555
Fe1 O7 2.122934 1_555
Fe1 O9 2.122950 1_555
Fe1 O13 2.158609 1_555
Fe1 O11 2.158688 1_555
Fe1 O17 2.211570 1_555
Fe1 O15 2.211636 1_555
Fe2 O3 2.142115 1_655
Fe2 O5 2.142130 1_565
Fe2 O11 2.264363 1_555
Fe2 O13 2.264426 1_555
Fe2 O16 2.267032 1_555
Fe2 O14 2.267075 1_555
Fe2 O1 2.649282 1_665
Fe2 O0 2.668665 1_665
Fe3 O2 2.146174 1_654
Fe3 O4 2.146251 1_564
Fe3 O12 2.249370 1_555
Fe3 O10 2.249482 1_555
Fe3 O17 2.250788 1_554
Fe3 O15 2.250816 1_554
Fe3 O0 2.711421 1_665
Fe3 O1 2.722901 1_664
C0 O6 1.299237 1_555
C0 O8 1.299241 1_555
C0 O0 1.299591 1_555
C1 O7 1.298915 1_555
C1 O9 1.298950 1_555
C1 O1 1.299589 1_555
C2 O2 1.261393 1_555
C2 O10 1.317889 1_556
C2 O15 1.318023 1_555
C3 O3 1.257751 1_555
C3 O11 1.319653 1_555
C3 O14 1.319658 1_555
C4 O4 1.261447 1_555
C4 O12 1.317894 1_556
C4 O17 1.317990 1_555
C5 O5 1.257648 1_555
C5 O16 1.319689 1_555
C5 O13 1.319699 1_555
