# generated using pymatgen
data_Li3Cr4P9O32
_symmetry_space_group_name_H-M   'P 1'
_cell_length_a   13.77032900
_cell_length_b   13.77032900
_cell_length_c   6.25750700
_cell_angle_alpha   90.00000000
_cell_angle_beta   90.00000000
_cell_angle_gamma   90.00000000
_symmetry_Int_Tables_number   1
_chemical_formula_structural   Li3Cr4P9O32
_chemical_formula_sum   'Li6 Cr8 P18 O64'
_cell_volume   1186.56074686
_cell_formula_units_Z   2
loop_
 _symmetry_equiv_pos_site_id
 _symmetry_equiv_pos_as_xyz
  1  'x, y, z'
loop_
 _atom_site_type_symbol
 _atom_site_label
 _atom_site_symmetry_multiplicity
 _atom_site_fract_x
 _atom_site_fract_y
 _atom_site_fract_z
 _atom_site_occupancy
  Li  Li0  1  0.50000000  0.00000000  0.35420600  1
  Li  Li1  1  0.00000000  0.50000000  0.64579400  1
  Li  Li2  1  0.50000000  0.00000000  0.85420600  1
  Li  Li3  1  0.50000000  0.50000000  0.50000000  1
  Li  Li4  1  0.00000000  0.50000000  0.14579400  1
  Li  Li5  1  0.00000000  0.00000000  0.00000000  1
  Cr  Cr0  1  0.30500400  0.37973500  0.12308200  1
  Cr  Cr1  1  0.69499600  0.62026500  0.12308200  1
  Cr  Cr2  1  0.19499600  0.87973500  0.37691800  1
  Cr  Cr3  1  0.62026500  0.30500400  0.87691800  1
  Cr  Cr4  1  0.37973500  0.69499600  0.87691800  1
  Cr  Cr5  1  0.80500400  0.12026500  0.37691800  1
  Cr  Cr6  1  0.12026500  0.19499600  0.62308200  1
  Cr  Cr7  1  0.87973500  0.80500400  0.62308200  1
  P  P0  1  0.94130900  0.30397200  0.39032800  1
  P  P1  1  0.25230200  0.39253800  0.63336700  1
  P  P2  1  0.69602800  0.94130900  0.60967200  1
  P  P3  1  0.10746200  0.24769800  0.13336700  1
  P  P4  1  0.60746200  0.25230200  0.36663300  1
  P  P5  1  0.75230200  0.10746200  0.86663300  1
  P  P6  1  0.89253800  0.75230200  0.13336700  1
  P  P7  1  0.80397200  0.44130900  0.89032800  1
  P  P8  1  0.55869100  0.80397200  0.10967200  1
  P  P9  1  0.50000000  0.50000000  0.00000000  1
  P  P10  1  0.19602800  0.55869100  0.89032800  1
  P  P11  1  0.44130900  0.19602800  0.10967200  1
  P  P12  1  0.05869100  0.69602800  0.39032800  1
  P  P13  1  0.00000000  0.00000000  0.50000000  1
  P  P14  1  0.30397200  0.05869100  0.60967200  1
  P  P15  1  0.39253800  0.74769800  0.36663300  1
  P  P16  1  0.74769800  0.60746200  0.63336700  1
  P  P17  1  0.24769800  0.89253800  0.86663300  1
  O  O0  1  0.31204600  0.39348100  0.42731800  1
  O  O1  1  0.39348100  0.68795400  0.57268200  1
  O  O2  1  0.32019100  0.36628600  0.81973900  1
  O  O3  1  0.77637300  0.49629600  0.66737600  1
  O  O4  1  0.55712900  0.91282400  0.09483500  1
  O  O5  1  0.84016600  0.25663800  0.36026500  1
  O  O6  1  0.06264500  0.06291500  0.65281000  1
  O  O7  1  0.56291500  0.56264500  0.15281000  1
  O  O8  1  0.24988300  0.00568400  0.42835600  1
  O  O9  1  0.65903200  0.16585400  0.87730600  1
  O  O10  1  0.18795400  0.89348100  0.07268200  1
  O  O11  1  0.25663800  0.15983400  0.63973500  1
  O  O12  1  0.43708500  0.43735500  0.15281000  1
  O  O13  1  0.50568400  0.74988300  0.92835600  1
  O  O14  1  0.22362700  0.50370400  0.66737600  1
  O  O15  1  0.74988300  0.49431600  0.07164400  1
  O  O16  1  0.58717600  0.94287100  0.59483500  1
  O  O17  1  0.74336200  0.84016600  0.63973500  1
  O  O18  1  0.15983400  0.74336200  0.36026500  1
  O  O19  1  0.91282400  0.44287100  0.90516500  1
  O  O20  1  0.99629600  0.27637300  0.16737600  1
  O  O21  1  0.25011700  0.50568400  0.07164400  1
  O  O22  1  0.41282400  0.05712900  0.59483500  1
  O  O23  1  0.60651900  0.31204600  0.57268200  1
  O  O24  1  0.13371400  0.17980900  0.31973900  1
  O  O25  1  0.44287100  0.08717600  0.09483500  1
  O  O26  1  0.36628600  0.67980900  0.18026100  1
  O  O27  1  0.63371400  0.32019100  0.18026100  1
  O  O28  1  0.86628600  0.82019100  0.31973900  1
  O  O29  1  0.72362700  0.99629600  0.83262400  1
  O  O30  1  0.84096800  0.66585400  0.62269400  1
  O  O31  1  0.56264500  0.43708500  0.84719000  1
  O  O32  1  0.93708500  0.06264500  0.34719000  1
  O  O33  1  0.65983400  0.75663800  0.13973500  1
  O  O34  1  0.34096800  0.83414600  0.87730600  1
  O  O35  1  0.67980900  0.63371400  0.81973900  1
  O  O36  1  0.89348100  0.81204600  0.92731800  1
  O  O37  1  0.16585400  0.34096800  0.12269400  1
  O  O38  1  0.43735500  0.56291500  0.84719000  1
  O  O39  1  0.82019100  0.13371400  0.68026100  1
  O  O40  1  0.34016600  0.24336200  0.13973500  1
  O  O41  1  0.66585400  0.15903200  0.37730600  1
  O  O42  1  0.83414600  0.65903200  0.12269400  1
  O  O43  1  0.93735500  0.93708500  0.65281000  1
  O  O44  1  0.10651900  0.18795400  0.92731800  1
  O  O45  1  0.81204600  0.10651900  0.07268200  1
  O  O46  1  0.75663800  0.34016600  0.86026500  1
  O  O47  1  0.05712900  0.58717600  0.40516500  1
  O  O48  1  0.33414600  0.84096800  0.37730600  1
  O  O49  1  0.75011700  0.99431600  0.42835600  1
  O  O50  1  0.06291500  0.93735500  0.34719000  1
  O  O51  1  0.17980900  0.86628600  0.68026100  1
  O  O52  1  0.99431600  0.24988300  0.57164400  1
  O  O53  1  0.00568400  0.75011700  0.57164400  1
  O  O54  1  0.24336200  0.65983400  0.86026500  1
  O  O55  1  0.49629600  0.22362700  0.33262400  1
  O  O56  1  0.49431600  0.25011700  0.92835600  1
  O  O57  1  0.27637300  0.00370400  0.83262400  1
  O  O58  1  0.15903200  0.33414600  0.62269400  1
  O  O59  1  0.94287100  0.41282400  0.40516500  1
  O  O60  1  0.68795400  0.60651900  0.42731800  1
  O  O61  1  0.00370400  0.72362700  0.16737600  1
  O  O62  1  0.50370400  0.77637300  0.33262400  1
  O  O63  1  0.08717600  0.55712900  0.90516500  1
loop_
_geom_bond_atom_site_label_1
_geom_bond_atom_site_label_2
_geom_bond_distance
_geom_bond_site_symmetry_2
Li0 O16 2.080188 1_545
Li0 O22 2.080188 1_555
Li0 O25 2.166591 1_555
Li0 O4 2.166591 1_545
Li1 O47 2.080188 1_555
Li1 O59 2.080188 1_455
Li1 O63 2.166591 1_555
Li1 O19 2.166591 1_455
Li2 O25 2.080188 1_556
Li2 O4 2.080188 1_546
Li2 O16 2.166591 1_545
Li2 O22 2.166591 1_555
Li3 O7 2.492926 1_555
Li3 O38 2.492926 1_555
Li3 O12 2.492926 1_555
Li3 O31 2.492926 1_555
Li4 O63 2.080188 1_554
Li4 O19 2.080188 1_454
Li4 O47 2.166591 1_555
Li4 O59 2.166591 1_455
Li5 O6 2.492926 1_554
Li5 O32 2.492926 1_455
Li5 O50 2.492926 1_545
Li5 O43 2.492926 1_444
Cr0 O0 1.915602 1_555
Cr0 O2 1.918616 1_554
Cr0 O21 1.919077 1_555
Cr0 O40 1.942116 1_555
Cr0 O37 1.989116 1_555
Cr0 O12 1.993036 1_555
Cr1 O60 1.915602 1_555
Cr1 O35 1.918616 1_554
Cr1 O15 1.919077 1_555
Cr1 O33 1.942116 1_555
Cr1 O42 1.989116 1_555
Cr1 O7 1.993036 1_555
Cr2 O10 1.915602 1_555
Cr2 O51 1.918616 1_555
Cr2 O8 1.919077 1_565
Cr2 O18 1.942116 1_555
Cr2 O48 1.989116 1_555
Cr2 O50 1.993036 1_555
Cr3 O23 1.915602 1_555
Cr3 O27 1.918616 1_556
Cr3 O56 1.919077 1_555
Cr3 O46 1.942116 1_555
Cr3 O9 1.989116 1_555
Cr3 O31 1.993036 1_555
Cr4 O1 1.915602 1_555
Cr4 O26 1.918616 1_556
Cr4 O13 1.919077 1_555
Cr4 O54 1.942116 1_555
Cr4 O34 1.989116 1_555
Cr4 O38 1.993036 1_555
Cr5 O45 1.915602 1_555
Cr5 O39 1.918616 1_555
Cr5 O49 1.919077 1_545
Cr5 O5 1.942116 1_555
Cr5 O41 1.989116 1_555
Cr5 O32 1.993036 1_555
Cr6 O44 1.915602 1_555
Cr6 O24 1.918616 1_555
Cr6 O52 1.919077 1_455
Cr6 O11 1.942116 1_555
Cr6 O58 1.989116 1_555
Cr6 O6 1.993036 1_555
Cr7 O36 1.915602 1_555
Cr7 O28 1.918616 1_555
Cr7 O53 1.919077 1_655
Cr7 O17 1.942116 1_555
Cr7 O30 1.989116 1_555
Cr7 O43 1.993036 1_555
O0 P1 1.529518 1_555
O1 P15 1.529518 1_555
O2 P1 1.537762 1_555
O3 P16 1.595159 1_555
O3 P7 1.632220 1_555
O4 P8 1.501954 1_555
O5 P0 1.549211 1_555
O6 P13 1.552117 1_555
O7 P9 1.552117 1_555
O8 P14 1.541050 1_555
O9 P5 1.516765 1_555
O10 P17 1.529518 1_554
O11 P14 1.549211 1_555
O12 P9 1.552117 1_555
O13 P8 1.541050 1_556
O14 P1 1.595159 1_555
O14 P10 1.632220 1_555
O15 P7 1.541050 1_554
O16 P2 1.501954 1_555
O17 P2 1.549211 1_555
O18 P12 1.549211 1_555
O19 P7 1.501954 1_555
O20 P3 1.595159 1_655
O20 P0 1.632220 1_555
O21 P10 1.541050 1_554
O22 P14 1.501954 1_555
O23 P4 1.529518 1_555
O24 P3 1.537762 1_555
O25 P11 1.501954 1_555
O26 P15 1.537762 1_555
O27 P4 1.537762 1_555
O28 P6 1.537762 1_555
O29 P5 1.595159 1_565
O29 P2 1.632220 1_555
O30 P16 1.516765 1_555
O31 P9 1.552117 1_556
O32 P13 1.552117 1_655
O33 P8 1.549211 1_555
O34 P17 1.516765 1_555
O35 P16 1.537762 1_555
O36 P6 1.529518 1_556
O37 P3 1.516765 1_555
O38 P9 1.552117 1_556
O39 P5 1.537762 1_555
O40 P11 1.549211 1_555
O41 P4 1.516765 1_555
O42 P6 1.516765 1_555
O43 P13 1.552117 1_665
O44 P3 1.529518 1_556
O45 P5 1.529518 1_554
O46 P7 1.549211 1_555
O47 P12 1.501954 1_555
O48 P15 1.516765 1_555
O49 P2 1.541050 1_555
O50 P13 1.552117 1_565
O51 P17 1.537762 1_555
O52 P0 1.541050 1_555
O53 P12 1.541050 1_555
O54 P10 1.549211 1_555
O55 P4 1.595159 1_555
O55 P11 1.632220 1_555
O56 P11 1.541050 1_556
O57 P17 1.595159 1_545
O57 P14 1.632220 1_555
O58 P1 1.516765 1_555
O59 P0 1.501954 1_555
O60 P16 1.529518 1_555
O61 P6 1.595159 1_455
O61 P12 1.632220 1_555
O62 P15 1.595159 1_555
O62 P8 1.632220 1_555
O63 P10 1.501954 1_555
