# generated using pymatgen
data_Li8V3P8O29
_symmetry_space_group_name_H-M   'P 1'
_cell_length_a   9.86809014
_cell_length_b   9.87148435
_cell_length_c   13.79625648
_cell_angle_alpha   90.04962262
_cell_angle_beta   90.26999808
_cell_angle_gamma   59.91260986
_symmetry_Int_Tables_number   1
_chemical_formula_structural   Li8V3P8O29
_chemical_formula_sum   'Li16 V6 P16 O58'
_cell_volume   1162.83708898
_cell_formula_units_Z   2
loop_
 _symmetry_equiv_pos_site_id
 _symmetry_equiv_pos_as_xyz
  1  'x, y, z'
loop_
 _atom_site_type_symbol
 _atom_site_label
 _atom_site_symmetry_multiplicity
 _atom_site_fract_x
 _atom_site_fract_y
 _atom_site_fract_z
 _atom_site_occupancy
  Li  Li0  1  0.90119200  0.76663100  0.06283700  1
  Li  Li1  1  0.76301100  0.90134200  0.56203700  1
  Li  Li2  1  0.90043800  0.33522900  0.56099100  1
  Li  Li3  1  0.66381800  0.66723400  0.88052000  1
  Li  Li4  1  0.76505600  0.33300100  0.06382000  1
  Li  Li5  1  0.33198100  0.90185100  0.06392000  1
  Li  Li6  1  0.66515200  0.23660600  0.43803500  1
  Li  Li7  1  0.33463000  0.76367100  0.56216200  1
  Li  Li8  1  0.66807100  0.09841700  0.93612400  1
  Li  Li9  1  0.23474100  0.66712900  0.93609400  1
  Li  Li10  1  0.33591900  0.33246700  0.11945600  1
  Li  Li11  1  0.09955300  0.66475200  0.43908100  1
  Li  Li12  1  0.23711200  0.09855600  0.43786600  1
  Li  Li13  1  0.09886300  0.23346600  0.93697500  1
  Li  Li14  1  0.99995200  0.00026000  0.99995400  1
  Li  Li15  1  0.99980900  0.00028400  0.50008900  1
  V  V0  1  0.56523800  0.43554400  0.25102600  1
  V  V1  1  0.43523000  0.56423300  0.74862700  1
  V  V2  1  0.56405100  0.00130200  0.74840100  1
  V  V3  1  0.43581800  0.99877900  0.25161700  1
  V  V4  1  0.99896000  0.56452000  0.25127900  1
  V  V5  1  0.00095000  0.43552800  0.74864200  1
  P  P0  1  0.91135600  0.77469100  0.84359800  1
  P  P1  1  0.77344000  0.91212000  0.34371600  1
  P  P2  1  0.91316600  0.31417100  0.34400100  1
  P  P3  1  0.66780400  0.66480900  0.12523400  1
  P  P4  1  0.66739600  0.66748500  0.62521600  1
  P  P5  1  0.77636600  0.31430700  0.84385500  1
  P  P6  1  0.68561200  0.22682500  0.65533600  1
  P  P7  1  0.31484900  0.91012400  0.84455000  1
  P  P8  1  0.68505100  0.08995900  0.15558300  1
  P  P9  1  0.31479500  0.77297700  0.34460100  1
  P  P10  1  0.22372600  0.68564700  0.15619500  1
  P  P11  1  0.33297100  0.33248700  0.37449000  1
  P  P12  1  0.33215400  0.33495000  0.87502400  1
  P  P13  1  0.08674900  0.68604400  0.65593100  1
  P  P14  1  0.22643000  0.08794100  0.65624200  1
  P  P15  1  0.08871300  0.22534100  0.15640400  1
  O  O0  1  0.99393300  0.77446900  0.56665000  1
  O  O1  1  0.92178800  0.74795100  0.34240100  1
  O  O2  1  0.77564900  0.99694200  0.06636900  1
  O  O3  1  0.74898600  0.92067400  0.84557500  1
  O  O4  1  0.89520500  0.62644300  0.83173100  1
  O  O5  1  0.81763100  0.66799400  0.16713300  1
  O  O6  1  0.90661300  0.47225100  0.33040200  1
  O  O7  1  0.99603100  0.23087100  0.06644600  1
  O  O8  1  0.92478100  0.32966500  0.84391800  1
  O  O9  1  0.67898500  0.80930200  0.66570000  1
  O  O10  1  0.62557300  0.90257800  0.33336100  1
  O  O11  1  0.81673600  0.51294200  0.67169600  1
  O  O12  1  0.67527500  0.66565200  0.01563800  1
  O  O13  1  0.67655000  0.65657900  0.51738000  1
  O  O14  1  0.67570600  0.51311800  0.16201800  1
  O  O15  1  0.47880300  0.89068600  0.83506900  1
  O  O16  1  0.51726700  0.81098100  0.16195300  1
  O  O17  1  0.75150300  0.32979900  0.34504900  1
  O  O18  1  0.79164100  0.21011900  0.75085400  1
  O  O19  1  0.77783100  0.22734200  0.56680100  1
  O  O20  1  0.77680900  0.22306400  0.93327500  1
  O  O21  1  0.63178700  0.47849700  0.83572000  1
  O  O22  1  0.51592300  0.67521400  0.66572900  1
  O  O23  1  0.67171800  0.25173600  0.15506200  1
  O  O24  1  0.47184000  0.62470800  0.33254000  1
  O  O25  1  0.32703200  0.92143100  0.34483500  1
  O  O26  1  0.79040700  0.00007900  0.24900600  1
  O  O27  1  0.77727800  0.00178700  0.43274500  1
  O  O28  1  0.22235900  0.99848700  0.56721300  1
  O  O29  1  0.67322400  0.07850300  0.65523200  1
  O  O30  1  0.52778100  0.37533800  0.66722700  1
  O  O31  1  0.32788000  0.74864200  0.84510600  1
  O  O32  1  0.48368300  0.32477500  0.33432800  1
  O  O33  1  0.36855500  0.52145500  0.16458900  1
  O  O34  1  0.22349500  0.77690600  0.06670500  1
  O  O35  1  0.22233500  0.77233200  0.43320800  1
  O  O36  1  0.20838100  0.78984500  0.24916000  1
  O  O37  1  0.24812900  0.67067800  0.65470600  1
  O  O38  1  0.48313700  0.18913600  0.83813600  1
  O  O39  1  0.52128100  0.10931400  0.16484500  1
  O  O40  1  0.32347300  0.48739400  0.83811700  1
  O  O41  1  0.32385100  0.33419000  0.98429100  1
  O  O42  1  0.32465400  0.34240200  0.48264700  1
  O  O43  1  0.18373700  0.48679400  0.32870400  1
  O  O44  1  0.37458700  0.09736500  0.66659800  1
  O  O45  1  0.32120000  0.19074500  0.33434000  1
  O  O46  1  0.07549500  0.67013300  0.15609600  1
  O  O47  1  0.99930800  0.79127400  0.75068700  1
  O  O48  1  0.00381300  0.76907100  0.93356400  1
  O  O49  1  0.09374600  0.52755200  0.66967300  1
  O  O50  1  0.18206100  0.33179800  0.83255500  1
  O  O51  1  0.10481400  0.37338800  0.16828300  1
  O  O52  1  0.25096700  0.07935400  0.15466300  1
  O  O53  1  0.22443400  0.00316900  0.93363700  1
  O  O54  1  0.20935700  0.00010600  0.75103900  1
  O  O55  1  0.07817800  0.25221400  0.65744300  1
  O  O56  1  0.00591500  0.22518400  0.43332200  1
  O  O57  1  0.00047400  0.20890600  0.24930000  1
loop_
_geom_bond_atom_site_label_1
_geom_bond_atom_site_label_2
_geom_bond_distance
_geom_bond_site_symmetry_2
Li0 O46 1.964639 1_655
Li0 O2 1.970376 1_555
Li0 O48 2.061178 1_654
Li0 O5 2.125339 1_555
Li1 O0 1.975505 1_555
Li1 O29 1.987424 1_565
Li1 O9 2.080187 1_555
Li1 O27 2.080894 1_565
Li2 O19 1.974214 1_555
Li2 O55 2.014291 1_655
Li2 O56 2.060608 1_655
Li2 O11 2.155663 1_555
Li3 O12 1.866621 1_556
Li3 O21 2.130666 1_555
Li3 O15 2.132099 1_555
Li3 O4 2.218343 1_555
Li4 O23 1.957035 1_555
Li4 O7 1.976906 1_555
Li4 O14 2.051684 1_555
Li4 O20 2.075404 1_554
Li5 O52 1.969213 1_565
Li5 O34 1.998293 1_555
Li5 O53 2.068389 1_564
Li5 O16 2.076372 1_555
Li6 O17 2.004114 1_555
Li6 O27 2.007901 1_555
Li6 O19 2.068905 1_555
Li6 O32 2.103976 1_555
Li7 O37 1.999848 1_555
Li7 O28 2.007714 1_555
Li7 O35 2.070532 1_555
Li7 O22 2.101525 1_555
Li8 O3 1.969173 1_545
Li8 O20 1.997811 1_555
Li8 O2 2.068368 1_546
Li8 O38 2.073688 1_555
Li9 O31 1.955024 1_555
Li9 O48 1.976600 1_555
Li9 O40 2.047228 1_555
Li9 O34 2.076430 1_556
Li10 O41 1.867558 1_554
Li10 O39 2.131221 1_555
Li10 O33 2.137843 1_555
Li10 O51 2.215461 1_555
Li11 O35 1.973214 1_555
Li11 O1 2.016470 1_455
Li11 O0 2.058890 1_455
Li11 O43 2.153860 1_555
Li12 O56 1.977616 1_555
Li12 O25 1.985735 1_545
Li12 O45 2.080202 1_555
Li12 O28 2.081142 1_545
Li13 O8 1.961316 1_455
Li13 O53 1.970204 1_555
Li13 O7 2.064988 1_456
Li13 O50 2.122317 1_555
Li14 O20 2.379279 1_555
Li14 O34 2.383978 1_646
Li14 O53 2.414123 1_655
Li14 O2 2.414916 1_546
Li14 O7 2.435927 1_556
Li14 O48 2.440953 1_645
Li15 O28 2.371233 1_645
Li15 O27 2.373560 1_555
Li15 O19 2.400402 1_555
Li15 O35 2.407919 1_645
Li15 O56 2.432928 1_655
Li15 O0 2.439116 1_545
O0 P13 1.519096 1_655
O1 P1 1.546355 1_555
O1 V4 2.015343 1_555
O2 P8 1.530574 1_565
O3 P0 1.526427 1_555
O3 V2 2.069709 1_565
O4 P0 1.557890 1_555
O4 V5 1.997611 1_655
O5 P3 1.599885 1_555
O5 V4 1.934630 1_555
O6 P2 1.540685 1_555
O6 V4 1.922232 1_555
O7 P15 1.522863 1_655
O8 P5 1.546147 1_555
O8 V5 2.045502 1_655
O9 P4 1.563151 1_555
O9 V2 2.008371 1_565
O10 P1 1.514682 1_555
O10 V3 1.969525 1_555
O11 P4 1.627567 1_555
O11 V5 1.898902 1_655
O12 P3 1.514391 1_555
O13 P4 1.491422 1_555
O14 P3 1.545879 1_555
O14 V0 2.033197 1_555
O15 P7 1.536962 1_555
O15 V2 2.064570 1_565
O16 P3 1.549872 1_555
O16 V3 2.030869 1_555
O17 P2 1.523962 1_555
O17 V0 2.051080 1_555
O18 P5 1.603393 1_555
O18 P6 1.634900 1_555
O19 P6 1.528156 1_555
O20 P5 1.526805 1_555
O21 P5 1.534727 1_555
O21 V1 2.063034 1_555
O22 P4 1.563954 1_555
O22 V1 2.006920 1_555
O23 P8 1.535267 1_555
O23 V0 2.060712 1_555
O24 P9 1.516366 1_555
O24 V0 1.970182 1_555
O25 P9 1.529571 1_555
O25 V3 2.055702 1_555
O26 P8 1.610533 1_555
O26 P1 1.624519 1_545
O27 P1 1.524746 1_545
O28 P14 1.524219 1_565
O29 P6 1.529104 1_555
O29 V2 2.057076 1_555
O30 P6 1.521377 1_555
O30 V1 1.967441 1_555
O31 P7 1.533666 1_555
O31 V1 2.069614 1_555
O32 P11 1.555269 1_555
O32 V0 2.014285 1_555
O33 P10 1.535980 1_555
O33 V0 2.058620 1_555
O34 P10 1.528300 1_555
O35 P9 1.530765 1_555
O36 P10 1.602900 1_555
O36 P9 1.635924 1_555
O37 P13 1.522314 1_555
O37 V1 2.055884 1_555
O38 P12 1.551240 1_555
O38 V2 2.032039 1_555
O39 P8 1.535225 1_555
O39 V3 2.066252 1_545
O40 P12 1.550108 1_555
O40 V1 2.041826 1_555
O41 P12 1.510315 1_555
O42 P11 1.495229 1_555
O43 P11 1.622268 1_555
O43 V4 1.906517 1_455
O44 P14 1.516894 1_555
O44 V2 1.967952 1_555
O45 P11 1.561762 1_555
O45 V3 2.008031 1_545
O46 P10 1.545219 1_555
O46 V4 2.045224 1_455
O47 P0 1.605133 1_555
O47 P13 1.625473 1_655
O48 P0 1.521435 1_455
O49 P13 1.542922 1_555
O49 V5 1.922468 1_555
O50 P12 1.604995 1_555
O50 V5 1.931467 1_555
O51 P15 1.555660 1_555
O51 V4 1.998389 1_455
O52 P15 1.525715 1_555
O52 V3 2.067217 1_545
O53 P7 1.528729 1_545
O54 P7 1.612222 1_545
O54 P14 1.625160 1_555
O55 P14 1.546523 1_555
O55 V5 2.015151 1_555
O56 P2 1.520862 1_455
O57 P15 1.606110 1_555
O57 P2 1.624710 1_455
