# generated using pymatgen
data_Yb2TiO5
_symmetry_space_group_name_H-M   'P 1'
_cell_length_a   6.05389405
_cell_length_b   6.05389405
_cell_length_c   10.17403700
_cell_angle_alpha   90.00000000
_cell_angle_beta   90.00000000
_cell_angle_gamma   140.66238030
_symmetry_Int_Tables_number   1
_chemical_formula_structural   Yb2TiO5
_chemical_formula_sum   'Yb4 Ti2 O10'
_cell_volume   236.36112215
_cell_formula_units_Z   2
loop_
 _symmetry_equiv_pos_site_id
 _symmetry_equiv_pos_as_xyz
  1  'x, y, z'
loop_
 _atom_site_type_symbol
 _atom_site_label
 _atom_site_symmetry_multiplicity
 _atom_site_fract_x
 _atom_site_fract_y
 _atom_site_fract_z
 _atom_site_occupancy
  Yb  Yb0  1  0.14074200  0.85925800  0.93213500  1
  Yb  Yb1  1  0.14074200  0.85925800  0.56786500  1
  Yb  Yb2  1  0.85925800  0.14074200  0.06786500  1
  Yb  Yb3  1  0.85925800  0.14074200  0.43213500  1
  Ti  Ti0  1  0.19407100  0.80592900  0.25000000  1
  Ti  Ti1  1  0.80592900  0.19407100  0.75000000  1
  O  O0  1  0.05115900  0.94884100  0.35895100  1
  O  O1  1  0.05115900  0.94884100  0.14104900  1
  O  O2  1  0.71434600  0.28565400  0.90667200  1
  O  O3  1  0.71434600  0.28565400  0.59332800  1
  O  O4  1  0.26827200  0.73172800  0.75000000  1
  O  O5  1  0.73172800  0.26827200  0.25000000  1
  O  O6  1  0.28565400  0.71434600  0.09332800  1
  O  O7  1  0.28565400  0.71434600  0.40667200  1
  O  O8  1  0.94884100  0.05115900  0.64104900  1
  O  O9  1  0.94884100  0.05115900  0.85895100  1
loop_
_geom_bond_atom_site_label_1
_geom_bond_atom_site_label_2
_geom_bond_distance
_geom_bond_site_symmetry_2
O0 Ti0 1.970690 1_555
O0 Yb3 2.311154 1_465
O0 Yb1 2.358164 1_555
O1 Ti0 1.970690 1_555
O1 Yb2 2.311154 1_465
O1 Yb0 2.358164 1_554
O2 Ti1 1.905540 1_555
O2 Yb0 2.218852 1_655
O2 Yb0 2.218852 1_545
O2 Yb2 2.327936 1_556
O3 Ti1 1.905540 1_555
O3 Yb1 2.218852 1_655
O3 Yb1 2.218852 1_545
O3 Yb3 2.327936 1_555
O4 Ti1 2.082377 1_455
O4 Ti1 2.082377 1_565
O4 Yb0 2.355407 1_555
O4 Yb1 2.355407 1_555
O5 Ti0 2.082377 1_655
O5 Ti0 2.082377 1_545
O5 Yb3 2.355407 1_555
O5 Yb2 2.355407 1_555
O6 Ti0 1.905540 1_555
O6 Yb2 2.218852 1_565
O6 Yb2 2.218852 1_455
O6 Yb0 2.327936 1_554
O7 Ti0 1.905540 1_555
O7 Yb3 2.218852 1_565
O7 Yb3 2.218852 1_455
O7 Yb1 2.327936 1_555
O8 Ti1 1.970690 1_555
O8 Yb1 2.311154 1_645
O8 Yb3 2.358164 1_555
O9 Ti1 1.970690 1_555
O9 Yb0 2.311154 1_645
O9 Yb2 2.358164 1_556
