# generated using pymatgen
data_MnH30C8(N13O9)2
_symmetry_space_group_name_H-M   'P 1'
_cell_length_a   9.57163300
_cell_length_b   13.07879281
_cell_length_c   14.65708552
_cell_angle_alpha   106.36005299
_cell_angle_beta   104.05025249
_cell_angle_gamma   104.28839557
_symmetry_Int_Tables_number   1
_chemical_formula_structural   MnH30C8(N13O9)2
_chemical_formula_sum   'Mn2 H60 C16 N52 O36'
_cell_volume   1606.99662918
_cell_formula_units_Z   2
loop_
 _symmetry_equiv_pos_site_id
 _symmetry_equiv_pos_as_xyz
  1  'x, y, z'
loop_
 _atom_site_type_symbol
 _atom_site_label
 _atom_site_symmetry_multiplicity
 _atom_site_fract_x
 _atom_site_fract_y
 _atom_site_fract_z
 _atom_site_occupancy
  Mn  Mn0  1  0.73051000  0.66787500  0.86627700  1
  Mn  Mn1  1  0.26949000  0.33212500  0.13372300  1
  H  H0  1  0.98539000  0.72576300  0.83255000  1
  H  H1  1  0.01461000  0.27423700  0.16745000  1
  H  H2  1  0.08400600  0.67118400  0.71067500  1
  H  H3  1  0.91599400  0.32881600  0.28932500  1
  H  H4  1  0.96547600  0.56810900  0.59492900  1
  H  H5  1  0.03452400  0.43189100  0.40507100  1
  H  H6  1  0.72903300  0.46846800  0.57148400  1
  H  H7  1  0.27096700  0.53153200  0.42851600  1
  H  H8  1  0.47225600  0.51499300  0.74910000  1
  H  H9  1  0.52774400  0.48500700  0.25090000  1
  H  H10  1  0.36566000  0.39901400  0.59052000  1
  H  H11  1  0.63434000  0.60098600  0.40948000  1
  H  H12  1  0.48219700  0.37537000  0.51505700  1
  H  H13  1  0.51780300  0.62463000  0.48494300  1
  H  H14  1  0.81227800  0.49170600  0.88163300  1
  H  H15  1  0.18772200  0.50829400  0.11836700  1
  H  H16  1  0.88636200  0.43355200  0.01405200  1
  H  H17  1  0.11363800  0.56644800  0.98594800  1
  H  H18  1  0.85529900  0.49593400  0.12620400  1
  H  H19  1  0.14470100  0.50406600  0.87379600  1
  H  H20  1  0.74684300  0.62472900  0.14364900  1
  H  H21  1  0.25315700  0.37527100  0.85635100  1
  H  H22  1  0.47938200  0.67024600  0.91167800  1
  H  H23  1  0.52061800  0.32975400  0.08832200  1
  H  H24  1  0.44864000  0.71522600  0.06515500  1
  H  H25  1  0.55136000  0.28477400  0.93484500  1
  H  H26  1  0.54885600  0.67331800  0.15583700  1
  H  H27  1  0.45114400  0.32668200  0.84416300  1
  H  H28  1  0.60890600  0.76684000  0.75412200  1
  H  H29  1  0.39109400  0.23316000  0.24587800  1
  H  H30  1  0.50529000  0.90808200  0.79401500  1
  H  H31  1  0.49471000  0.09191800  0.20598500  1
  H  H32  1  0.59341500  0.01916700  0.91225500  1
  H  H33  1  0.40658500  0.98083300  0.08774500  1
  H  H34  1  0.75311400  0.99654900  0.03703300  1
  H  H35  1  0.24688600  0.00345100  0.96296700  1
  H  H36  1  0.98815700  0.78013700  0.01454700  1
  H  H37  1  0.01184300  0.21986300  0.98545300  1
  H  H38  1  0.07218800  0.94494700  0.15020800  1
  H  H39  1  0.92781200  0.05505300  0.84979200  1
  H  H40  1  0.97970800  0.04093300  0.15108600  1
  H  H41  1  0.02029200  0.95906700  0.84891400  1
  H  H42  1  0.98687200  0.16020500  0.40333900  1
  H  H43  1  0.01312800  0.83979500  0.59666100  1
  H  H44  1  0.80949900  0.17673500  0.39728300  1
  H  H45  1  0.19050100  0.82326500  0.60271700  1
  H  H46  1  0.13894500  0.15403000  0.54512500  1
  H  H47  1  0.86105500  0.84597000  0.45487500  1
  H  H48  1  0.07892300  0.14363100  0.64757600  1
  H  H49  1  0.92107700  0.85636900  0.35242400  1
  H  H50  1  0.84602100  0.17420700  0.64799400  1
  H  H51  1  0.15397900  0.82579300  0.35200600  1
  H  H52  1  0.47507000  0.07462200  0.39681200  1
  H  H53  1  0.52493000  0.92537800  0.60318800  1
  H  H54  1  0.62403300  0.01863500  0.38739200  1
  H  H55  1  0.37596700  0.98136500  0.61260800  1
  H  H56  1  0.47860800  0.17430600  0.55643400  1
  H  H57  1  0.52139200  0.82569400  0.44356600  1
  H  H58  1  0.65520700  0.24046100  0.65972400  1
  H  H59  1  0.34479300  0.75953900  0.34027600  1
  C  C0  1  0.86217200  0.60455300  0.70210700  1
  C  C1  1  0.13782800  0.39544700  0.29789300  1
  C  C2  1  0.59083100  0.49638100  0.65784100  1
  C  C3  1  0.40916900  0.50361900  0.34215900  1
  C  C4  1  0.79612600  0.55941600  0.01498800  1
  C  C5  1  0.20387400  0.44058400  0.98501200  1
  C  C6  1  0.61027600  0.65333100  0.02877800  1
  C  C7  1  0.38972400  0.34666900  0.97122200  1
  C  C8  1  0.88284700  0.89303200  0.02763900  1
  C  C9  1  0.11715300  0.10696800  0.97236100  1
  C  C10  1  0.66918900  0.88123600  0.89153000  1
  C  C11  1  0.33081100  0.11876400  0.10847000  1
  C  C12  1  0.92190400  0.15307300  0.52473800  1
  C  C13  1  0.07809600  0.84692700  0.47526200  1
  C  C14  1  0.66068800  0.13963200  0.52536900  1
  C  C15  1  0.33931200  0.86036800  0.47463100  1
  N  N0  1  0.87874000  0.66483500  0.79529900  1
  N  N1  1  0.12126000  0.33516500  0.20470100  1
  N  N2  1  0.97603300  0.62105100  0.66397200  1
  N  N3  1  0.02396700  0.37894900  0.33602800  1
  N  N4  1  0.72569600  0.52264600  0.63791400  1
  N  N5  1  0.27430400  0.47735400  0.36208600  1
  N  N6  1  0.57851000  0.54973200  0.74481800  1
  N  N7  1  0.42149000  0.45026800  0.25518200  1
  N  N8  1  0.47233600  0.41199400  0.58398800  1
  N  N9  1  0.52766400  0.58800600  0.41601200  1
  N  N10  1  0.78785300  0.55770100  0.92368100  1
  N  N11  1  0.21214700  0.44229900  0.07631900  1
  N  N12  1  0.86383300  0.49885300  0.05878100  1
  N  N13  1  0.13616700  0.50114700  0.94121900  1
  N  N14  1  0.73474400  0.62705100  0.07205000  1
  N  N15  1  0.26525600  0.37294900  0.92795000  1
  N  N16  1  0.57997200  0.65581100  0.93727700  1
  N  N17  1  0.42002800  0.34418900  0.06272300  1
  N  N18  1  0.51965900  0.67236000  0.08414200  1
  N  N19  1  0.48034100  0.32764000  0.91585800  1
  N  N20  1  0.66914700  0.78624500  0.82864000  1
  N  N21  1  0.33085300  0.21375500  0.17136000  1
  N  N22  1  0.58825900  0.94324900  0.86304800  1
  N  N23  1  0.41174100  0.05675100  0.13695200  1
  N  N24  1  0.75728400  0.92188200  0.99208100  1
  N  N25  1  0.24271600  0.07811800  0.00791900  1
  N  N26  1  0.89027600  0.79363600  0.98125300  1
  N  N27  1  0.10972400  0.20636400  0.01874700  1
  N  N28  1  0.99726900  0.97185400  0.10899400  1
  N  N29  1  0.00273100  0.02814600  0.89100600  1
  N  N30  1  0.89908800  0.15674000  0.43314300  1
  N  N31  1  0.10091200  0.84326000  0.56685700  1
  N  N32  1  0.05452300  0.15050500  0.57718300  1
  N  N33  1  0.94547700  0.84949500  0.42281700  1
  N  N34  1  0.81141600  0.15214900  0.57015500  1
  N  N35  1  0.18858400  0.84785100  0.42984500  1
  N  N36  1  0.58686800  0.07938300  0.42824100  1
  N  N37  1  0.41313200  0.92061700  0.57175900  1
  N  N38  1  0.59354800  0.18932800  0.58534800  1
  N  N39  1  0.40645200  0.81067200  0.41465200  1
  N  N40  1  0.28800600  0.79008700  0.92046400  1
  N  N41  1  0.71199400  0.20991300  0.07953600  1
  N  N42  1  0.34472600  0.68660700  0.60309800  1
  N  N43  1  0.65527400  0.31339300  0.39690200  1
  N  N44  1  0.16655300  0.41696200  0.68908500  1
  N  N45  1  0.83344700  0.58303800  0.31091500  1
  N  N46  1  0.22418800  0.11768100  0.37221400  1
  N  N47  1  0.77581200  0.88231900  0.62778600  1
  N  N48  1  0.83166500  0.26314600  0.83349300  1
  N  N49  1  0.16833500  0.73685400  0.16650700  1
  N  N50  1  0.72841800  0.92222700  0.25704600  1
  N  N51  1  0.27158200  0.07777300  0.74295400  1
  O  O0  1  0.26987300  0.69196500  0.86285300  1
  O  O1  1  0.73012700  0.30803500  0.13714700  1
  O  O2  1  0.40298300  0.84125800  0.00084100  1
  O  O3  1  0.59701700  0.15874200  0.99915900  1
  O  O4  1  0.19013300  0.83761800  0.89772800  1
  O  O5  1  0.80986700  0.16238200  0.10227200  1
  O  O6  1  0.32434000  0.75153400  0.67698100  1
  O  O7  1  0.67566000  0.24846600  0.32301900  1
  O  O8  1  0.23162900  0.62429000  0.52353000  1
  O  O9  1  0.76837100  0.37571000  0.47647000  1
  O  O10  1  0.47896600  0.68538800  0.60785500  1
  O  O11  1  0.52103400  0.31461200  0.39214500  1
  O  O12  1  0.28993900  0.42165800  0.75395200  1
  O  O13  1  0.71006100  0.57834200  0.24604800  1
  O  O14  1  0.04741500  0.40765900  0.71228300  1
  O  O15  1  0.95258500  0.59234100  0.28771700  1
  O  O16  1  0.17088500  0.42214800  0.60532700  1
  O  O17  1  0.82911500  0.57785200  0.39467300  1
  O  O18  1  0.28713400  0.06360700  0.31930200  1
  O  O19  1  0.71286600  0.93639300  0.68069800  1
  O  O20  1  0.11474500  0.14547000  0.33101800  1
  O  O21  1  0.88525500  0.85453000  0.66898200  1
  O  O22  1  0.27129100  0.14441700  0.46820100  1
  O  O23  1  0.72870900  0.85558300  0.53179900  1
  O  O24  1  0.75807800  0.31808600  0.79492900  1
  O  O25  1  0.24192200  0.68191400  0.20507100  1
  O  O26  1  0.87135100  0.18943300  0.77957400  1
  O  O27  1  0.12864900  0.81056700  0.22042600  1
  O  O28  1  0.86526200  0.28266300  0.92764700  1
  O  O29  1  0.13473800  0.71733700  0.07235300  1
  O  O30  1  0.82686000  0.87637800  0.23938700  1
  O  O31  1  0.17314000  0.12362200  0.76061300  1
  O  O32  1  0.66437600  0.90063700  0.32011900  1
  O  O33  1  0.33562400  0.09936300  0.67988100  1
  O  O34  1  0.69472900  0.98738900  0.21375000  1
  O  O35  1  0.30527100  0.01261100  0.78625000  1
loop_
_geom_bond_atom_site_label_1
_geom_bond_atom_site_label_2
_geom_bond_distance
_geom_bond_site_symmetry_2
Mn0 N6 1.938200 1_555
Mn0 N0 1.953994 1_555
Mn0 N20 1.954134 1_555
Mn0 N26 1.956911 1_555
Mn0 N16 1.972910 1_555
Mn0 N10 1.983589 1_555
Mn1 N7 1.938200 1_555
Mn1 N1 1.953994 1_555
Mn1 N21 1.954134 1_555
Mn1 N27 1.956911 1_555
Mn1 N17 1.972910 1_555
Mn1 N11 1.983589 1_555
H0 N0 1.028550 1_555
H1 N1 1.028550 1_555
H2 N2 1.017716 1_455
H3 N3 1.017716 1_655
H4 N2 1.017255 1_555
H5 N3 1.017255 1_555
H6 N4 1.043431 1_555
H7 N5 1.043431 1_555
H8 N6 1.031348 1_555
H9 N7 1.031348 1_555
H10 N8 1.025484 1_555
H11 N9 1.025484 1_555
H12 N8 1.027180 1_555
H13 N9 1.027180 1_555
H14 N10 1.024391 1_555
H15 N11 1.024391 1_555
H16 N12 1.024620 1_555
H17 N13 1.024620 1_555
H18 N12 1.021580 1_555
H19 N13 1.021580 1_555
H20 N14 1.037460 1_555
H21 N15 1.037460 1_555
H22 N16 1.028421 1_555
H23 N17 1.028421 1_555
H24 N18 1.018822 1_555
H25 N19 1.018822 1_555
H26 N18 1.015276 1_555
H27 N19 1.015276 1_555
H28 N20 1.027446 1_555
H29 N21 1.027446 1_555
H30 N22 1.016555 1_555
H31 N23 1.016555 1_555
H32 N22 1.031309 1_545
H33 N23 1.031309 1_565
H34 N24 1.029027 1_554
H35 N25 1.029027 1_556
H36 N26 1.027252 1_554
H37 N27 1.027252 1_556
H38 N28 1.018317 1_455
H39 N29 1.018317 1_655
H40 N28 1.018057 1_545
H41 N29 1.018057 1_565
H42 N30 1.034145 1_555
H43 N31 1.034145 1_555
H44 N30 1.024332 1_555
H45 N31 1.024332 1_555
H46 N32 1.026662 1_555
H47 N33 1.026662 1_555
H48 N32 1.035745 1_555
H49 N33 1.035745 1_555
H50 N34 1.038511 1_555
H51 N35 1.038511 1_555
H52 N36 1.035750 1_555
H53 N37 1.035750 1_555
H54 N36 1.044608 1_555
H55 N37 1.044608 1_555
H56 N38 1.024003 1_555
H57 N39 1.024003 1_555
H58 N38 1.032490 1_555
H59 N39 1.032490 1_555
C0 N0 1.318685 1_555
C0 N2 1.339540 1_555
C0 N4 1.372563 1_555
C1 N1 1.318685 1_555
C1 N3 1.339540 1_555
C1 N5 1.372563 1_555
C2 N6 1.318514 1_555
C2 N8 1.337612 1_555
C2 N4 1.374910 1_555
C3 N7 1.318514 1_555
C3 N9 1.337612 1_555
C3 N5 1.374910 1_555
C4 N10 1.314748 1_554
C4 N12 1.340608 1_555
C4 N14 1.380406 1_555
C5 N11 1.314748 1_556
C5 N13 1.340608 1_555
C5 N15 1.380406 1_555
C6 N16 1.313052 1_554
C6 N18 1.344342 1_555
C6 N14 1.377603 1_555
C7 N17 1.313052 1_556
C7 N19 1.344342 1_555
C7 N15 1.377603 1_555
C8 N26 1.314703 1_554
C8 N28 1.341716 1_555
C8 N24 1.374379 1_554
C9 N27 1.314703 1_556
C9 N29 1.341716 1_555
C9 N25 1.374379 1_556
C10 N20 1.321967 1_555
C10 N22 1.332660 1_555
C10 N24 1.378272 1_555
C11 N21 1.321967 1_555
C11 N23 1.332660 1_555
C11 N25 1.378272 1_555
C12 N30 1.323415 1_555
C12 N32 1.328590 1_655
C12 N34 1.379034 1_555
C13 N31 1.323415 1_555
C13 N33 1.328590 1_455
C13 N35 1.379034 1_555
C14 N36 1.323503 1_555
C14 N38 1.329240 1_555
C14 N34 1.379193 1_555
C15 N37 1.323503 1_555
C15 N39 1.329240 1_555
C15 N35 1.379193 1_555
N40 O0 1.264312 1_555
N40 O2 1.268743 1_556
N40 O4 1.275806 1_555
N41 O1 1.264312 1_555
N41 O3 1.268743 1_554
N41 O5 1.275806 1_555
N42 O6 1.264200 1_555
N42 O8 1.269753 1_555
N42 O10 1.274093 1_555
N43 O7 1.264200 1_555
N43 O9 1.269753 1_555
N43 O11 1.274093 1_555
N44 O14 1.254545 1_555
N44 O16 1.258442 1_555
N44 O12 1.299460 1_555
N45 O15 1.254545 1_555
N45 O17 1.258442 1_555
N45 O13 1.299460 1_555
N46 O18 1.262077 1_555
N46 O20 1.264310 1_555
N46 O22 1.281382 1_555
N47 O19 1.262077 1_555
N47 O21 1.264310 1_555
N47 O23 1.281382 1_555
N48 O26 1.263177 1_555
N48 O24 1.271701 1_555
N48 O28 1.272239 1_555
N49 O27 1.263177 1_555
N49 O25 1.271701 1_555
N49 O29 1.272239 1_555
N50 O34 1.254578 1_555
N50 O30 1.274475 1_555
N50 O32 1.283314 1_555
N51 O35 1.254578 1_555
N51 O31 1.274475 1_555
N51 O33 1.283314 1_555
