# generated using pymatgen
data_Li4Ti3Mn4(FeO9)2
_symmetry_space_group_name_H-M   'P 1'
_cell_length_a   2.94015800
_cell_length_b   9.17193700
_cell_length_c   25.38956000
_cell_angle_alpha   90.00000000
_cell_angle_beta   90.00000000
_cell_angle_gamma   90.00000000
_symmetry_Int_Tables_number   1
_chemical_formula_structural   Li4Ti3Mn4(FeO9)2
_chemical_formula_sum   'Li8 Ti6 Mn8 Fe4 O36'
_cell_volume   684.67884133
_cell_formula_units_Z   2
loop_
 _symmetry_equiv_pos_site_id
 _symmetry_equiv_pos_as_xyz
  1  'x, y, z'
loop_
 _atom_site_type_symbol
 _atom_site_label
 _atom_site_symmetry_multiplicity
 _atom_site_fract_x
 _atom_site_fract_y
 _atom_site_fract_z
 _atom_site_occupancy
  Li  Li0  1  0.50000000  0.93102100  0.99273300  1
  Li  Li1  1  0.50000000  0.94465500  0.20856900  1
  Li  Li2  1  0.50000000  0.05534500  0.70856900  1
  Li  Li3  1  0.50000000  0.06897900  0.49273300  1
  Li  Li4  1  0.50000000  0.43068600  0.49885600  1
  Li  Li5  1  0.50000000  0.44777200  0.30868800  1
  Li  Li6  1  0.50000000  0.55222800  0.80868800  1
  Li  Li7  1  0.50000000  0.56931400  0.99885600  1
  Ti  Ti0  1  0.50000000  0.75077300  0.10526400  1
  Ti  Ti1  1  0.50000000  0.24922700  0.60526400  1
  Ti  Ti2  1  0.50000000  0.24382600  0.39392700  1
  Ti  Ti3  1  0.00000000  0.40298900  0.69446500  1
  Ti  Ti4  1  0.00000000  0.59701100  0.19446500  1
  Ti  Ti5  1  0.50000000  0.75617400  0.89392700  1
  Mn  Mn0  1  0.50000000  0.76495500  0.31256300  1
  Mn  Mn1  1  0.00000000  0.89813000  0.58660100  1
  Mn  Mn2  1  0.00000000  0.10187000  0.08660100  1
  Mn  Mn3  1  0.50000000  0.23504500  0.81256300  1
  Mn  Mn4  1  0.50000000  0.25813100  0.18606500  1
  Mn  Mn5  1  0.00000000  0.39452900  0.91382400  1
  Mn  Mn6  1  0.00000000  0.60547100  0.41382400  1
  Mn  Mn7  1  0.50000000  0.74186900  0.68606500  1
  Fe  Fe0  1  0.50000000  0.75079500  0.50028000  1
  Fe  Fe1  1  0.00000000  0.89720300  0.80365000  1
  Fe  Fe2  1  0.00000000  0.10279700  0.30365000  1
  Fe  Fe3  1  0.50000000  0.24920500  0.00028000  1
  O  O0  1  0.50000000  0.74319300  0.42050200  1
  O  O1  1  0.50000000  0.76058300  0.58078100  1
  O  O2  1  0.00000000  0.79002300  0.94261300  1
  O  O3  1  0.00000000  0.79549400  0.16136300  1
  O  O4  1  0.00000000  0.86961300  0.66105800  1
  O  O5  1  0.50000000  0.87073800  0.75351700  1
  O  O6  1  0.00000000  0.90438800  0.50856300  1
  O  O7  1  0.00000000  0.88271200  0.28593700  1
  O  O8  1  0.50000000  0.93357900  0.85998900  1
  O  O9  1  0.50000000  0.96428700  0.08731300  1
  O  O10  1  0.50000000  0.03571300  0.58731300  1
  O  O11  1  0.50000000  0.06642100  0.35998900  1
  O  O12  1  0.00000000  0.11728800  0.78593700  1
  O  O13  1  0.00000000  0.09561200  0.00856300  1
  O  O14  1  0.50000000  0.12926200  0.25351700  1
  O  O15  1  0.00000000  0.13038700  0.16105800  1
  O  O16  1  0.00000000  0.20450600  0.66136300  1
  O  O17  1  0.00000000  0.20997700  0.44261300  1
  O  O18  1  0.50000000  0.23941700  0.08078100  1
  O  O19  1  0.50000000  0.25680700  0.92050200  1
  O  O20  1  0.00000000  0.28841800  0.55917600  1
  O  O21  1  0.00000000  0.30485400  0.33999600  1
  O  O22  1  0.00000000  0.36452700  0.83852600  1
  O  O23  1  0.50000000  0.37435000  0.74235500  1
  O  O24  1  0.00000000  0.40266100  0.99162100  1
  O  O25  1  0.00000000  0.38612100  0.20633700  1
  O  O26  1  0.50000000  0.43258700  0.64144300  1
  O  O27  1  0.50000000  0.46853800  0.41364000  1
  O  O28  1  0.50000000  0.53146200  0.91364000  1
  O  O29  1  0.50000000  0.56741300  0.14144300  1
  O  O30  1  0.00000000  0.61387900  0.70633700  1
  O  O31  1  0.00000000  0.59733900  0.49162100  1
  O  O32  1  0.50000000  0.62565000  0.24235500  1
  O  O33  1  0.00000000  0.63547300  0.33852600  1
  O  O34  1  0.00000000  0.69514600  0.83999600  1
  O  O35  1  0.00000000  0.71158200  0.05917600  1
loop_
_geom_bond_atom_site_label_1
_geom_bond_atom_site_label_2
_geom_bond_distance
_geom_bond_site_symmetry_2
Li0 O13 2.145138 1_566
Li0 O13 2.145138 1_666
Li0 O2 2.335141 1_655
Li0 O2 2.335141 1_555
Li0 O9 2.420651 1_556
Li1 O14 2.041886 1_565
Li1 O3 2.338656 1_655
Li1 O3 2.338656 1_555
Li1 O7 2.518440 1_655
Li1 O7 2.518440 1_555
Li1 O15 2.553084 1_665
Li1 O15 2.553084 1_565
Li2 O5 2.041886 1_545
Li2 O16 2.338656 1_555
Li2 O16 2.338656 1_655
Li2 O12 2.518440 1_555
Li2 O12 2.518440 1_655
Li2 O4 2.553084 1_645
Li2 O4 2.553084 1_545
Li3 O6 2.145138 1_645
Li3 O6 2.145138 1_545
Li3 O17 2.335141 1_655
Li3 O17 2.335141 1_555
Li3 O10 2.420651 1_555
Li4 O31 2.128681 1_555
Li4 O31 2.128681 1_655
Li4 O27 2.191274 1_555
Li4 O20 2.491849 1_555
Li4 O20 2.491849 1_655
Li5 O21 2.123978 1_555
Li5 O21 2.123978 1_655
Li5 O32 2.344816 1_555
Li5 O33 2.387236 1_555
Li5 O33 2.387236 1_655
Li6 O34 2.123978 1_555
Li6 O34 2.123978 1_655
Li6 O23 2.344816 1_555
Li6 O22 2.387236 1_655
Li6 O22 2.387236 1_555
Li7 O24 2.128681 1_555
Li7 O24 2.128681 1_655
Li7 O28 2.191274 1_555
Li7 O35 2.491849 1_556
Li7 O35 2.491849 1_656
Mn0 O7 1.945422 1_655
Mn0 O7 1.945422 1_555
Mn0 O33 2.001514 1_555
Mn0 O33 2.001514 1_655
Mn0 O32 2.193170 1_555
Mn1 O4 1.908439 1_555
Mn1 O10 1.937487 1_565
Mn1 O10 1.937487 1_465
Mn1 O1 1.942816 1_555
Mn1 O1 1.942816 1_455
Mn1 O6 1.982182 1_555
Mn2 O15 1.908439 1_555
Mn2 O9 1.937487 1_545
Mn2 O9 1.937487 1_445
Mn2 O18 1.942816 1_555
Mn2 O18 1.942816 1_455
Mn2 O13 1.982182 1_555
Mn3 O12 1.945422 1_555
Mn3 O12 1.945422 1_655
Mn3 O22 2.001514 1_655
Mn3 O22 2.001514 1_555
Mn3 O23 2.193170 1_555
Mn4 O25 1.950417 1_555
Mn4 O25 1.950417 1_655
Mn4 O15 1.984197 1_555
Mn4 O15 1.984197 1_655
Mn4 O14 2.080863 1_555
Mn5 O22 1.931486 1_555
Mn5 O28 1.933531 1_455
Mn5 O28 1.933531 1_555
Mn5 O19 1.945635 1_555
Mn5 O19 1.945635 1_455
Mn5 O24 1.976639 1_555
Mn6 O33 1.931486 1_555
Mn6 O27 1.933531 1_555
Mn6 O27 1.933531 1_455
Mn6 O0 1.945635 1_455
Mn6 O0 1.945635 1_555
Mn6 O31 1.976639 1_555
Mn7 O30 1.950417 1_655
Mn7 O30 1.950417 1_555
Mn7 O4 1.984197 1_555
Mn7 O4 1.984197 1_655
Mn7 O5 2.080863 1_555
Fe0 O0 2.026728 1_555
Fe0 O1 2.045856 1_555
Fe0 O6 2.046930 1_555
Fe0 O6 2.046930 1_655
Fe0 O31 2.047069 1_655
Fe0 O31 2.047069 1_555
Fe1 O5 1.959646 1_455
Fe1 O5 1.959646 1_555
Fe1 O12 2.068096 1_565
Fe1 O34 2.070296 1_555
Fe1 O8 2.078113 1_455
Fe1 O8 2.078113 1_555
Fe2 O14 1.959646 1_555
Fe2 O14 1.959646 1_455
Fe2 O7 2.068096 1_545
Fe2 O21 2.070296 1_555
Fe2 O11 2.078113 1_555
Fe2 O11 2.078113 1_455
Fe3 O19 2.026728 1_554
Fe3 O18 2.045856 1_555
Fe3 O13 2.046930 1_655
Fe3 O13 2.046930 1_555
Fe3 O24 2.047069 1_554
Fe3 O24 2.047069 1_654
O2 Ti5 1.945636 1_555
O2 Ti5 1.945636 1_455
O3 Ti4 2.005112 1_555
O3 Ti0 2.087604 1_455
O3 Ti0 2.087604 1_555
O8 Ti5 1.841219 1_555
O9 Ti0 2.010674 1_555
O10 Ti1 2.010674 1_555
O11 Ti2 1.841219 1_555
O16 Ti3 2.005112 1_555
O16 Ti1 2.087604 1_555
O16 Ti1 2.087604 1_455
O17 Ti2 1.945636 1_555
O17 Ti2 1.945636 1_455
O20 Ti1 1.913009 1_455
O20 Ti1 1.913009 1_555
O21 Ti2 2.085518 1_555
O21 Ti2 2.085518 1_455
O23 Ti3 1.925762 1_555
O23 Ti3 1.925762 1_655
O25 Ti4 1.957615 1_555
O26 Ti1 1.916274 1_555
O26 Ti3 2.011740 1_655
O26 Ti3 2.011740 1_555
O27 Ti2 2.120945 1_555
O28 Ti5 2.120945 1_555
O29 Ti0 1.916274 1_555
O29 Ti4 2.011740 1_555
O29 Ti4 2.011740 1_655
O30 Ti3 1.957615 1_555
O32 Ti4 1.925762 1_655
O32 Ti4 1.925762 1_555
O34 Ti5 2.085518 1_455
O34 Ti5 2.085518 1_555
O35 Ti0 1.913009 1_555
O35 Ti0 1.913009 1_455
