# generated using pymatgen
data_Na3NiPCO7
_symmetry_space_group_name_H-M   'P 1'
_cell_length_a   5.21009446
_cell_length_b   13.37135800
_cell_length_c   8.88406338
_cell_angle_alpha   90.00148076
_cell_angle_beta   88.69745306
_cell_angle_gamma   89.99962013
_symmetry_Int_Tables_number   1
_chemical_formula_structural   Na3NiPCO7
_chemical_formula_sum   'Na12 Ni4 P4 C4 O28'
_cell_volume   618.75757067
_cell_formula_units_Z   4
loop_
 _symmetry_equiv_pos_site_id
 _symmetry_equiv_pos_as_xyz
  1  'x, y, z'
loop_
 _atom_site_type_symbol
 _atom_site_label
 _atom_site_symmetry_multiplicity
 _atom_site_fract_x
 _atom_site_fract_y
 _atom_site_fract_z
 _atom_site_occupancy
  Na  Na0  1  0.77261500  0.12502900  0.08137500  1
  Na  Na1  1  0.77263100  0.62499600  0.08137400  1
  Na  Na2  1  0.22737200  0.37496700  0.91862700  1
  Na  Na3  1  0.22736400  0.87500300  0.91862500  1
  Na  Na4  1  0.25411900  0.00409200  0.27242600  1
  Na  Na5  1  0.25411300  0.50406100  0.27243800  1
  Na  Na6  1  0.25407900  0.24594400  0.27242600  1
  Na  Na7  1  0.25406600  0.74593800  0.27244500  1
  Na  Na8  1  0.74588500  0.49590800  0.72757900  1
  Na  Na9  1  0.74587900  0.99593800  0.72756700  1
  Na  Na10  1  0.74590900  0.25405400  0.72758100  1
  Na  Na11  1  0.74594500  0.75405900  0.72756100  1
  Ni  Ni0  1  0.77883300  0.87510500  0.34770300  1
  Ni  Ni1  1  0.22122200  0.62489700  0.65227400  1
  Ni  Ni2  1  0.77885500  0.37488700  0.34778400  1
  Ni  Ni3  1  0.22112600  0.12514000  0.65224300  1
  P  P0  1  0.71521700  0.12499900  0.41621700  1
  P  P1  1  0.71525700  0.62499100  0.41618100  1
  P  P2  1  0.28477600  0.37499900  0.58378400  1
  P  P3  1  0.28475600  0.87500900  0.58381700  1
  C  C0  1  0.71609200  0.37498500  0.06383300  1
  C  C1  1  0.71607300  0.87500400  0.06381700  1
  C  C2  1  0.28390300  0.12501300  0.93616800  1
  C  C3  1  0.28392200  0.62499700  0.93617800  1
  O  O0  1  0.94220500  0.37498000  0.12382100  1
  O  O1  1  0.94218900  0.87501400  0.12381700  1
  O  O2  1  0.05778400  0.12501900  0.87617800  1
  O  O3  1  0.05781500  0.62498600  0.87617300  1
  O  O4  1  0.30858600  0.12500900  0.08042200  1
  O  O5  1  0.30858100  0.62498500  0.08043200  1
  O  O6  1  0.69139600  0.37499100  0.91957800  1
  O  O7  1  0.69140500  0.87501600  0.91956400  1
  O  O8  1  0.51584900  0.37497400  0.15498100  1
  O  O9  1  0.51584200  0.87500000  0.15496100  1
  O  O10  1  0.48414000  0.12502500  0.84502100  1
  O  O11  1  0.48416400  0.62500000  0.84503900  1
  O  O12  1  0.14161800  0.37500300  0.43334500  1
  O  O13  1  0.14160600  0.87504300  0.43331800  1
  O  O14  1  0.85837300  0.12499600  0.56665900  1
  O  O15  1  0.85840300  0.62495500  0.56668000  1
  O  O16  1  0.41934100  0.12507200  0.45053500  1
  O  O17  1  0.41934900  0.62501500  0.45055500  1
  O  O18  1  0.58064800  0.37492400  0.54946700  1
  O  O19  1  0.58066000  0.87498500  0.54943800  1
  O  O20  1  0.78588000  0.03212600  0.31746300  1
  O  O21  1  0.78593000  0.53207200  0.31746000  1
  O  O22  1  0.78613100  0.21786300  0.31745500  1
  O  O23  1  0.78610600  0.71787400  0.31746200  1
  O  O24  1  0.21387000  0.28213700  0.68254500  1
  O  O25  1  0.21391300  0.78212400  0.68253300  1
  O  O26  1  0.21413000  0.46787000  0.68253400  1
  O  O27  1  0.21407600  0.96792800  0.68254200  1
loop_
_geom_bond_atom_site_label_1
_geom_bond_atom_site_label_2
_geom_bond_distance
_geom_bond_site_symmetry_2
Na0 O2 2.325426 1_654
Na0 O4 2.417842 1_555
Na0 O22 2.439525 1_555
Na0 O20 2.440048 1_555
Na0 O10 2.609890 1_554
Na0 O4 2.792280 1_655
Na1 O3 2.325501 1_654
Na1 O5 2.417949 1_555
Na1 O23 2.439875 1_555
Na1 O21 2.440184 1_555
Na1 O11 2.609728 1_554
Na1 O5 2.792172 1_655
Na2 O0 2.325399 1_456
Na2 O6 2.417816 1_555
Na2 O24 2.439510 1_555
Na2 O26 2.440080 1_555
Na2 O8 2.609897 1_556
Na2 O6 2.792306 1_455
Na3 O1 2.325411 1_456
Na3 O7 2.417901 1_555
Na3 O25 2.439907 1_555
Na3 O27 2.440165 1_555
Na3 O9 2.609769 1_556
Na3 O7 2.792220 1_455
Na4 O13 2.307889 1_545
Na4 O4 2.362724 1_555
Na4 O9 2.421397 1_545
Na4 O16 2.433813 1_555
Na4 O20 2.491527 1_455
Na4 O1 2.731420 1_445
Na4 O20 2.833164 1_555
Na5 O12 2.308038 1_555
Na5 O5 2.362801 1_555
Na5 O8 2.421357 1_555
Na5 O17 2.433656 1_555
Na5 O21 2.491178 1_455
Na5 O0 2.731411 1_455
Na5 O21 2.833387 1_555
Na6 O12 2.308010 1_555
Na6 O4 2.362847 1_555
Na6 O8 2.420919 1_555
Na6 O16 2.432977 1_555
Na6 O22 2.490141 1_455
Na6 O0 2.730900 1_455
Na6 O22 2.834721 1_555
Na7 O13 2.308218 1_555
Na7 O5 2.363074 1_555
Na7 O9 2.421386 1_555
Na7 O17 2.433476 1_555
Na7 O23 2.490153 1_455
Na7 O1 2.731349 1_455
Na7 O23 2.834612 1_555
Na8 O15 2.307913 1_555
Na8 O6 2.362704 1_555
Na8 O11 2.421373 1_555
Na8 O18 2.433895 1_555
Na8 O26 2.491575 1_655
Na8 O3 2.731354 1_655
Na8 O26 2.833152 1_555
Na9 O14 2.308043 1_565
Na9 O7 2.362729 1_555
Na9 O10 2.421355 1_565
Na9 O19 2.433684 1_555
Na9 O27 2.491250 1_655
Na9 O2 2.731375 1_665
Na9 O27 2.833318 1_555
Na10 O14 2.308020 1_555
Na10 O6 2.362824 1_555
Na10 O10 2.420888 1_555
Na10 O18 2.432987 1_555
Na10 O24 2.490219 1_655
Na10 O2 2.730860 1_655
Na10 O24 2.834668 1_555
Na11 O15 2.308249 1_555
Na11 O7 2.363060 1_555
Na11 O11 2.421349 1_555
Na11 O19 2.433583 1_555
Na11 O25 2.490209 1_655
Na11 O3 2.731231 1_655
Na11 O25 2.834589 1_555
Ni0 O19 2.047927 1_555
Ni0 O13 2.053362 1_655
Ni0 O20 2.116922 1_565
Ni0 O23 2.119711 1_555
Ni0 O1 2.145600 1_555
Ni0 O9 2.217256 1_555
Ni1 O17 2.047688 1_555
Ni1 O15 2.053511 1_455
Ni1 O26 2.117027 1_555
Ni1 O25 2.119681 1_555
Ni1 O3 2.145806 1_555
Ni1 O11 2.217254 1_555
Ni2 O18 2.047613 1_555
Ni2 O12 2.053126 1_655
Ni2 O22 2.117065 1_555
Ni2 O21 2.119193 1_555
Ni2 O0 2.146217 1_555
Ni2 O8 2.217731 1_555
Ni3 O16 2.047826 1_555
Ni3 O14 2.053158 1_455
Ni3 O24 2.116675 1_555
Ni3 O27 2.119521 1_545
Ni3 O2 2.145973 1_555
Ni3 O10 2.217583 1_555
C0 O6 1.290920 1_554
C0 O0 1.304000 1_555
C0 O8 1.306045 1_555
C1 O7 1.290885 1_554
C1 O1 1.304060 1_555
C1 O9 1.305975 1_555
C2 O4 1.290903 1_556
C2 O2 1.304036 1_555
C2 O10 1.306015 1_555
C3 O5 1.290888 1_556
C3 O3 1.304036 1_555
C3 O11 1.305993 1_555
O12 P2 1.545282 1_555
O13 P3 1.545728 1_555
O14 P0 1.545300 1_555
O15 P1 1.545717 1_555
O16 P0 1.564589 1_555
O17 P1 1.564838 1_555
O18 P2 1.564567 1_555
O19 P3 1.564825 1_555
O20 P0 1.559704 1_555
O21 P1 1.560042 1_555
O22 P0 1.559980 1_555
O23 P1 1.559894 1_555
O24 P2 1.559945 1_555
O25 P3 1.559894 1_555
O26 P2 1.559643 1_555
O27 P3 1.560070 1_555
