# generated using pymatgen
data_Li8Mn5Fe3(BO3)8
_symmetry_space_group_name_H-M   'P 1'
_cell_length_a   5.24084300
_cell_length_b   5.24244154
_cell_length_c   20.93569472
_cell_angle_alpha   90.75337153
_cell_angle_beta   90.97065974
_cell_angle_gamma   119.85771359
_symmetry_Int_Tables_number   1
_chemical_formula_structural   Li8Mn5Fe3(BO3)8
_chemical_formula_sum   'Li8 Mn5 Fe3 B8 O24'
_cell_volume   498.62812338
_cell_formula_units_Z   1
loop_
 _symmetry_equiv_pos_site_id
 _symmetry_equiv_pos_as_xyz
  1  'x, y, z'
loop_
 _atom_site_type_symbol
 _atom_site_label
 _atom_site_symmetry_multiplicity
 _atom_site_fract_x
 _atom_site_fract_y
 _atom_site_fract_z
 _atom_site_occupancy
  Li  Li0  1  0.67865900  0.65199700  0.33363700  1
  Li  Li1  1  0.65347400  0.67822200  0.08447200  1
  Li  Li2  1  0.67916500  0.65138300  0.83407100  1
  Li  Li3  1  0.65089300  0.67883200  0.58381600  1
  Li  Li4  1  0.34883500  0.33779000  0.20837300  1
  Li  Li5  1  0.33790800  0.34879600  0.45849100  1
  Li  Li6  1  0.34833800  0.33814900  0.70879100  1
  Li  Li7  1  0.33819600  0.34691600  0.95860800  1
  Mn  Mn0  1  0.67408600  0.00588200  0.44065500  1
  Mn  Mn1  1  0.66912000  0.00337700  0.94240400  1
  Mn  Mn2  1  0.32334700  0.00322400  0.56615600  1
  Mn  Mn3  1  0.00329000  0.32296600  0.81658000  1
  Mn  Mn4  1  0.00300600  0.67102300  0.69141400  1
  Fe  Fe0  1  0.31614100  0.00215700  0.06697000  1
  Fe  Fe1  1  0.00416600  0.32086200  0.31534500  1
  Fe  Fe2  1  0.00730900  0.66643600  0.19128800  1
  B  B0  1  0.99604700  0.33844400  0.06372500  1
  B  B1  1  0.99694100  0.34131800  0.56289600  1
  B  B2  1  0.66590000  0.00474800  0.18797600  1
  B  B3  1  0.66555000  0.00479100  0.68795600  1
  B  B4  1  0.33770400  0.99643100  0.31247400  1
  B  B5  1  0.34137200  0.99717100  0.81306100  1
  B  B6  1  0.00591000  0.66582100  0.43712200  1
  B  B7  1  0.00433200  0.66575900  0.93858400  1
  O  O0  1  0.92887100  0.25615400  0.20782800  1
  O  O1  1  0.93053500  0.24711900  0.70905800  1
  O  O2  1  0.74052300  0.07080200  0.04962700  1
  O  O3  1  0.97702100  0.58413200  0.08269500  1
  O  O4  1  0.74674400  0.06959400  0.54773300  1
  O  O5  1  0.96607400  0.57861900  0.58348300  1
  O  O6  1  0.41659500  0.02947300  0.17324300  1
  O  O7  1  0.73102100  0.64114000  0.43016900  1
  O  O8  1  0.42250600  0.03867700  0.67267600  1
  O  O9  1  0.72990300  0.64100500  0.93117000  1
  O  O10  1  0.65302300  0.73640000  0.18142500  1
  O  O11  1  0.64021300  0.73051000  0.68065600  1
  O  O12  1  0.35887000  0.27075400  0.30584600  1
  O  O13  1  0.37156600  0.27293700  0.80596200  1
  O  O14  1  0.27042000  0.35981000  0.05714500  1
  O  O15  1  0.58500800  0.97896400  0.33157200  1
  O  O16  1  0.27277200  0.37155800  0.55560700  1
  O  O17  1  0.57892100  0.96612000  0.83373700  1
  O  O18  1  0.03887700  0.42318200  0.42145600  1
  O  O19  1  0.03782900  0.42270800  0.92322800  1
  O  O20  1  0.24856700  0.93007200  0.45851800  1
  O  O21  1  0.24643900  0.92994600  0.95982900  1
  O  O22  1  0.06973100  0.74226900  0.29828100  1
  O  O23  1  0.06947600  0.74676100  0.79799200  1
loop_
_geom_bond_atom_site_label_1
_geom_bond_atom_site_label_2
_geom_bond_distance
_geom_bond_site_symmetry_2
Li0 O12 1.934709 1_555
Li0 O15 2.004951 1_555
Li0 O22 2.016768 1_655
Li0 O7 2.040253 1_555
Li1 O14 1.934737 1_555
Li1 O3 1.988569 1_555
Li1 O2 2.022837 1_565
Li1 O10 2.048811 1_555
Li2 O13 1.906273 1_555
Li2 O17 1.965150 1_555
Li2 O23 2.012147 1_655
Li2 O9 2.050630 1_555
Li3 O16 1.904615 1_555
Li3 O5 1.966952 1_555
Li3 O4 2.012080 1_565
Li3 O11 2.047299 1_555
Li4 O6 1.956699 1_555
Li4 O10 1.992738 1_555
Li4 O0 2.022044 1_455
Li4 O12 2.079473 1_555
Li5 O18 1.945398 1_555
Li5 O7 1.966314 1_555
Li5 O20 2.003624 1_545
Li5 O16 2.079022 1_555
Li6 O8 1.942658 1_555
Li6 O11 1.961456 1_555
Li6 O1 1.995579 1_455
Li6 O13 2.078841 1_555
Li7 O19 1.943082 1_555
Li7 O9 1.957831 1_555
Li7 O21 1.991348 1_545
Li7 O14 2.105120 1_556
Mn0 O7 2.086333 1_545
Mn0 O20 2.102555 1_545
Mn0 O18 2.118309 1_655
Mn0 O4 2.259815 1_555
Mn0 O15 2.311510 1_545
Mn1 O9 2.087834 1_545
Mn1 O21 2.090548 1_545
Mn1 O19 2.132511 1_655
Mn1 O2 2.263409 1_556
Mn1 O17 2.301580 1_545
Mn2 O16 2.089621 1_555
Mn2 O4 2.111251 1_555
Mn2 O5 2.118184 1_445
Mn2 O8 2.265278 1_555
Mn2 O20 2.275197 1_545
Mn3 O13 2.088165 1_555
Mn3 O23 2.113712 1_555
Mn3 O17 2.115921 1_445
Mn3 O19 2.269960 1_555
Mn3 O1 2.273132 1_455
Mn4 O11 2.083462 1_455
Mn4 O1 2.098860 1_455
Mn4 O8 2.128899 1_565
Mn4 O23 2.251728 1_555
Mn4 O5 2.289324 1_455
Fe0 O14 2.017689 1_555
Fe0 O3 2.056781 1_445
Fe0 O2 2.107581 1_555
Fe0 O21 2.262816 1_544
Fe0 O6 2.263784 1_555
Fe1 O12 2.015345 1_555
Fe1 O15 2.067501 1_445
Fe1 O22 2.096505 1_555
Fe1 O18 2.261356 1_555
Fe1 O0 2.270259 1_455
Fe2 O0 2.014747 1_455
Fe2 O10 2.071668 1_455
Fe2 O6 2.085065 1_565
Fe2 O22 2.259382 1_555
Fe2 O3 2.296479 1_455
B0 O3 1.393698 1_555
B0 O14 1.394976 1_655
B0 O2 1.397849 1_555
B1 O16 1.384943 1_655
B1 O5 1.395780 1_555
B1 O4 1.401252 1_555
B2 O10 1.379322 1_545
B2 O0 1.402425 1_555
B2 O6 1.405377 1_555
B3 O11 1.382741 1_545
B3 O1 1.394804 1_555
B3 O8 1.403331 1_555
B4 O12 1.395236 1_565
B4 O22 1.395796 1_555
B4 O15 1.396300 1_555
B5 O13 1.384126 1_565
B5 O17 1.396127 1_555
B5 O23 1.401672 1_555
B6 O7 1.385713 1_455
B6 O20 1.395445 1_555
B6 O18 1.401868 1_555
B7 O9 1.384028 1_455
B7 O21 1.393159 1_555
B7 O19 1.404127 1_555
