# generated using pymatgen
data_Li7Mn3(SiO6)2
_symmetry_space_group_name_H-M   'P 1'
_cell_length_a   4.93175366
_cell_length_b   4.93175366
_cell_length_c   9.78404034
_cell_angle_alpha   86.58487006
_cell_angle_beta   86.58487006
_cell_angle_gamma   117.95805801
_symmetry_Int_Tables_number   1
_chemical_formula_structural   Li7Mn3(SiO6)2
_chemical_formula_sum   'Li7 Mn3 Si2 O12'
_cell_volume   208.78720676
_cell_formula_units_Z   1
loop_
 _symmetry_equiv_pos_site_id
 _symmetry_equiv_pos_as_xyz
  1  'x, y, z'
loop_
 _atom_site_type_symbol
 _atom_site_label
 _atom_site_symmetry_multiplicity
 _atom_site_fract_x
 _atom_site_fract_y
 _atom_site_fract_z
 _atom_site_occupancy
  Li  Li0  1  0.74899700  0.74899700  0.76035200  1
  Li  Li1  1  0.00000000  0.00000000  0.00000000  1
  Li  Li2  1  0.91626900  0.59031200  0.24558500  1
  Li  Li3  1  0.40968800  0.08373100  0.75441500  1
  Li  Li4  1  0.25100300  0.25100300  0.23964800  1
  Li  Li5  1  0.59031200  0.91626900  0.24558500  1
  Li  Li6  1  0.08373100  0.40968800  0.75441500  1
  Mn  Mn0  1  0.50000000  0.50000000  0.50000000  1
  Mn  Mn1  1  0.83337400  0.16662600  0.50000000  1
  Mn  Mn2  1  0.16662600  0.83337400  0.50000000  1
  Si  Si0  1  0.66813400  0.33186600  0.00000000  1
  Si  Si1  1  0.33186600  0.66813400  0.00000000  1
  O  O0  1  0.90287800  0.90287800  0.37658500  1
  O  O1  1  0.02390200  0.65227200  0.89858400  1
  O  O2  1  0.76599000  0.43226100  0.62089700  1
  O  O3  1  0.59440300  0.59440300  0.10409600  1
  O  O4  1  0.97609800  0.34772800  0.10141600  1
  O  O5  1  0.56773900  0.23401000  0.37910300  1
  O  O6  1  0.40559700  0.40559700  0.89590400  1
  O  O7  1  0.09712200  0.09712200  0.62341500  1
  O  O8  1  0.43226100  0.76599000  0.62089700  1
  O  O9  1  0.65227200  0.02390200  0.89858400  1
  O  O10  1  0.34772800  0.97609800  0.10141600  1
  O  O11  1  0.23401000  0.56773900  0.37910300  1
loop_
_geom_bond_atom_site_label_1
_geom_bond_atom_site_label_2
_geom_bond_distance
_geom_bond_site_symmetry_2
Li0 O6 2.066572 1_555
Li0 O7 2.092455 1_665
Li0 O1 2.154720 1_655
Li0 O9 2.154720 1_565
Li0 O8 2.161434 1_555
Li0 O2 2.161434 1_555
Li1 O10 2.077914 1_545
Li1 O9 2.077914 1_454
Li1 O1 2.077914 1_544
Li1 O4 2.077914 1_455
Li1 O6 2.191473 1_554
Li1 O3 2.191473 1_445
Li2 O4 1.997617 1_555
Li2 O0 2.084255 1_555
Li2 O5 2.091817 1_555
Li2 O11 2.136496 1_655
Li2 O3 2.173710 1_555
Li2 O10 2.379904 1_655
Li3 O9 1.997617 1_555
Li3 O7 2.084255 1_555
Li3 O2 2.091817 1_555
Li3 O8 2.136496 1_545
Li3 O6 2.173710 1_555
Li3 O1 2.379904 1_545
Li4 O3 2.066572 1_555
Li4 O0 2.092455 1_445
Li4 O10 2.154720 1_545
Li4 O4 2.154720 1_455
Li4 O11 2.161434 1_555
Li4 O5 2.161434 1_555
Li5 O10 1.997617 1_555
Li5 O0 2.084255 1_555
Li5 O11 2.091817 1_555
Li5 O5 2.136496 1_565
Li5 O3 2.173710 1_555
Li5 O4 2.379904 1_565
Li6 O1 1.997617 1_555
Li6 O7 2.084255 1_555
Li6 O8 2.091817 1_555
Li6 O2 2.136496 1_455
Li6 O6 2.173710 1_555
Li6 O9 2.379904 1_455
Mn0 O11 1.944293 1_555
Mn0 O5 1.944293 1_555
Mn0 O8 1.944293 1_555
Mn0 O2 1.944293 1_555
Mn0 O0 2.253945 1_555
Mn0 O7 2.253945 1_555
Mn1 O5 1.942117 1_555
Mn1 O2 1.942117 1_555
Mn1 O7 1.955338 1_655
Mn1 O0 1.955338 1_545
Mn1 O11 2.234776 1_655
Mn1 O8 2.234776 1_545
Mn2 O11 1.942117 1_555
Mn2 O8 1.942117 1_555
Mn2 O0 1.955338 1_455
Mn2 O7 1.955338 1_565
Mn2 O5 2.234776 1_565
Mn2 O2 2.234776 1_455
O1 Si1 1.837077 1_556
O1 Si0 1.888418 1_456
O3 Si1 1.844013 1_555
O3 Si0 1.844013 1_555
O4 Si0 1.837077 1_555
O4 Si1 1.888418 1_655
O6 Si0 1.844013 1_556
O6 Si1 1.844013 1_556
O9 Si0 1.837077 1_556
O9 Si1 1.888418 1_546
O10 Si1 1.837077 1_555
O10 Si0 1.888418 1_565
