# generated using pymatgen
data_Li3MnV4O12
_symmetry_space_group_name_H-M   'P 1'
_cell_length_a   6.96085975
_cell_length_b   6.96085975
_cell_length_c   5.84011994
_cell_angle_alpha   74.16035117
_cell_angle_beta   74.16035117
_cell_angle_gamma   83.13341833
_symmetry_Int_Tables_number   1
_chemical_formula_structural   Li3MnV4O12
_chemical_formula_sum   'Li3 Mn1 V4 O12'
_cell_volume   261.58260858
_cell_formula_units_Z   1
loop_
 _symmetry_equiv_pos_site_id
 _symmetry_equiv_pos_as_xyz
  1  'x, y, z'
loop_
 _atom_site_type_symbol
 _atom_site_label
 _atom_site_symmetry_multiplicity
 _atom_site_fract_x
 _atom_site_fract_y
 _atom_site_fract_z
 _atom_site_occupancy
  Li  Li0  1  0.90023700  0.09976300  0.50000000  1
  Li  Li1  1  0.75492800  0.24507200  0.00000000  1
  Li  Li2  1  0.23761600  0.76238400  0.50000000  1
  Mn  Mn0  1  0.08541100  0.91458900  0.00000000  1
  V  V0  1  0.79864400  0.60707900  0.52147600  1
  V  V1  1  0.60990500  0.80274500  0.02190200  1
  V  V2  1  0.39292100  0.20135600  0.47852400  1
  V  V3  1  0.19725500  0.39009500  0.97809800  1
  O  O0  1  0.98412900  0.77764700  0.39614900  1
  O  O1  1  0.89693300  0.37102800  0.58086200  1
  O  O2  1  0.79072800  0.97988900  0.91321300  1
  O  O3  1  0.64303300  0.63767800  0.31290300  1
  O  O4  1  0.62897200  0.10306700  0.41913800  1
  O  O5  1  0.64687200  0.64281800  0.80909200  1
  O  O6  1  0.36232200  0.35696700  0.68709700  1
  O  O7  1  0.36735300  0.89690500  0.08785500  1
  O  O8  1  0.35718200  0.35312800  0.19090800  1
  O  O9  1  0.22235300  0.01587100  0.60385100  1
  O  O10  1  0.10309500  0.63264700  0.91214500  1
  O  O11  1  0.02011100  0.20927200  0.08678700  1
loop_
_geom_bond_atom_site_label_1
_geom_bond_atom_site_label_2
_geom_bond_distance
_geom_bond_site_symmetry_2
Li0 O1 2.063843 1_555
Li0 O4 2.063843 1_555
Li0 O2 2.269273 1_545
Li0 O11 2.269273 1_655
Li0 O0 2.443822 1_545
Li0 O9 2.443822 1_655
Li1 O2 2.014481 1_544
Li1 O11 2.014481 1_655
Li1 O4 2.335042 1_555
Li1 O1 2.335042 1_554
Li2 O9 1.999185 1_565
Li2 O0 1.999185 1_455
Li2 O7 2.295897 1_555
Li2 O10 2.295897 1_555
Mn0 O7 2.141843 1_555
Mn0 O10 2.141843 1_554
Mn0 O9 2.196510 1_564
Mn0 O0 2.196510 1_455
Mn0 O11 2.211324 1_565
Mn0 O2 2.211324 1_454
O0 V0 1.728791 1_555
O1 V0 1.684593 1_555
O2 V1 1.736484 1_556
O3 V0 1.796071 1_555
O3 V1 1.829272 1_555
O4 V2 1.684593 1_555
O5 V0 1.787733 1_555
O5 V1 1.833666 1_556
O6 V2 1.796071 1_555
O6 V3 1.829272 1_555
O7 V1 1.716610 1_555
O8 V2 1.787733 1_555
O8 V3 1.833666 1_554
O9 V2 1.728791 1_555
O10 V3 1.716610 1_555
O11 V3 1.736484 1_554
