# generated using pymatgen
data_Ba2GeO4
_symmetry_space_group_name_H-M   'P 1'
_cell_length_a   11.15967500
_cell_length_b   9.25263900
_cell_length_c   11.11854815
_cell_angle_alpha   85.52407850
_cell_angle_beta   90.00000000
_cell_angle_gamma   90.00000000
_symmetry_Int_Tables_number   1
_chemical_formula_structural   Ba2GeO4
_chemical_formula_sum   'Ba16 Ge8 O32'
_cell_volume   1144.56040763
_cell_formula_units_Z   8
loop_
 _symmetry_equiv_pos_site_id
 _symmetry_equiv_pos_as_xyz
  1  'x, y, z'
loop_
 _atom_site_type_symbol
 _atom_site_label
 _atom_site_symmetry_multiplicity
 _atom_site_fract_x
 _atom_site_fract_y
 _atom_site_fract_z
 _atom_site_occupancy
  Ba  Ba0  1  0.07164300  0.91219800  0.79432200  1
  Ba  Ba1  1  0.42835700  0.91219800  0.29432200  1
  Ba  Ba2  1  0.42113000  0.81931700  0.92779500  1
  Ba  Ba3  1  0.07887000  0.81931700  0.42779500  1
  Ba  Ba4  1  0.41542100  0.65880200  0.58981300  1
  Ba  Ba5  1  0.79119500  0.63121400  0.57697200  1
  Ba  Ba6  1  0.08457900  0.65880200  0.08981300  1
  Ba  Ba7  1  0.70880500  0.63121400  0.07697200  1
  Ba  Ba8  1  0.29119500  0.36878600  0.92302800  1
  Ba  Ba9  1  0.91542100  0.34119800  0.91018700  1
  Ba  Ba10  1  0.20880500  0.36878600  0.42302800  1
  Ba  Ba11  1  0.58457900  0.34119800  0.41018700  1
  Ba  Ba12  1  0.92113000  0.18068300  0.57220500  1
  Ba  Ba13  1  0.57887000  0.18068300  0.07220500  1
  Ba  Ba14  1  0.57164300  0.08780200  0.70567800  1
  Ba  Ba15  1  0.92835700  0.08780200  0.20567800  1
  Ge  Ge0  1  0.79722400  0.97329700  0.92808200  1
  Ge  Ge1  1  0.70277600  0.97329700  0.42808200  1
  Ge  Ge2  1  0.07732200  0.54430700  0.70120400  1
  Ge  Ge3  1  0.42267800  0.54430700  0.20120400  1
  Ge  Ge4  1  0.57732200  0.45569300  0.79879600  1
  Ge  Ge5  1  0.92267800  0.45569300  0.29879600  1
  Ge  Ge6  1  0.29722400  0.02670300  0.57191800  1
  Ge  Ge7  1  0.20277600  0.02670300  0.07191800  1
  O  O0  1  0.35780200  0.95385900  0.71280800  1
  O  O1  1  0.64288500  0.92357600  0.91527800  1
  O  O2  1  0.14219800  0.95385900  0.21280800  1
  O  O3  1  0.85711500  0.92357600  0.41527800  1
  O  O4  1  0.20246000  0.87524300  0.98068800  1
  O  O5  1  0.29754000  0.87524300  0.48068800  1
  O  O6  1  0.61397500  0.83134500  0.49858600  1
  O  O7  1  0.88602500  0.83134500  0.99858600  1
  O  O8  1  0.01590000  0.71589700  0.64671100  1
  O  O9  1  0.48410000  0.71589700  0.14671100  1
  O  O10  1  0.45975500  0.58200800  0.82406000  1
  O  O11  1  0.10140800  0.54403000  0.86096900  1
  O  O12  1  0.04024500  0.58200800  0.32406000  1
  O  O13  1  0.71136200  0.49555000  0.87526000  1
  O  O14  1  0.39859200  0.54403000  0.36096900  1
  O  O15  1  0.21136200  0.50445000  0.62474000  1
  O  O16  1  0.78863800  0.49555000  0.37526000  1
  O  O17  1  0.60140800  0.45597000  0.63903100  1
  O  O18  1  0.28863800  0.50445000  0.12474000  1
  O  O19  1  0.95975500  0.41799200  0.67594000  1
  O  O20  1  0.89859200  0.45597000  0.13903100  1
  O  O21  1  0.54024500  0.41799200  0.17594000  1
  O  O22  1  0.51590000  0.28410300  0.85328900  1
  O  O23  1  0.98410000  0.28410300  0.35328900  1
  O  O24  1  0.11397500  0.16865500  0.00141400  1
  O  O25  1  0.38602500  0.16865500  0.50141400  1
  O  O26  1  0.70246000  0.12475700  0.51931200  1
  O  O27  1  0.79754000  0.12475700  0.01931200  1
  O  O28  1  0.14288500  0.07642400  0.58472200  1
  O  O29  1  0.85780200  0.04614100  0.78719200  1
  O  O30  1  0.35711500  0.07642400  0.08472200  1
  O  O31  1  0.64219800  0.04614100  0.28719200  1
loop_
_geom_bond_atom_site_label_1
_geom_bond_atom_site_label_2
_geom_bond_distance
_geom_bond_site_symmetry_2
Ba0 O4 2.535990 1_555
Ba0 O8 2.616257 1_555
Ba0 O29 2.687334 1_465
Ba0 O28 2.796304 1_565
Ba0 O7 3.121427 1_455
Ba0 O0 3.333698 1_555
Ba0 O11 3.445267 1_555
Ba0 O24 3.465317 1_566
Ba1 O5 2.535990 1_555
Ba1 O9 2.616257 1_555
Ba1 O31 2.687334 1_565
Ba1 O30 2.796304 1_565
Ba1 O6 3.121427 1_555
Ba1 O2 3.333698 1_555
Ba1 O14 3.445267 1_555
Ba1 O25 3.465317 1_565
Ba2 O4 2.572181 1_555
Ba2 O10 2.594728 1_555
Ba2 O9 2.640162 1_556
Ba2 O1 2.655788 1_555
Ba2 O0 2.701564 1_555
Ba2 O30 3.140347 1_566
Ba3 O5 2.572181 1_555
Ba3 O12 2.594728 1_555
Ba3 O8 2.640162 1_555
Ba3 O3 2.655788 1_455
Ba3 O2 2.701564 1_555
Ba3 O28 3.140347 1_565
Ba4 O5 2.614204 1_555
Ba4 O10 2.691499 1_555
Ba4 O15 2.699941 1_555
Ba4 O17 2.822980 1_555
Ba4 O14 2.838797 1_555
Ba4 O6 2.869597 1_555
Ba4 O0 3.212399 1_555
Ba5 O16 2.654387 1_555
Ba5 O17 2.723308 1_555
Ba5 O8 2.756490 1_655
Ba5 O6 2.801427 1_555
Ba5 O19 2.881431 1_555
Ba5 O3 3.214325 1_555
Ba6 O4 2.614204 1_554
Ba6 O12 2.691499 1_555
Ba6 O18 2.699941 1_555
Ba6 O20 2.822980 1_455
Ba6 O11 2.838797 1_554
Ba6 O7 2.869597 1_454
Ba6 O2 3.212399 1_555
Ba7 O13 2.654387 1_554
Ba7 O20 2.723308 1_555
Ba7 O9 2.756490 1_555
Ba7 O7 2.801427 1_554
Ba7 O21 2.881431 1_555
Ba7 O1 3.214325 1_554
Ba8 O18 2.654387 1_556
Ba8 O11 2.723308 1_555
Ba8 O22 2.756490 1_555
Ba8 O24 2.801427 1_556
Ba8 O10 2.881431 1_555
Ba8 O30 3.214325 1_556
Ba9 O27 2.614204 1_556
Ba9 O19 2.691499 1_555
Ba9 O13 2.699941 1_555
Ba9 O11 2.822980 1_655
Ba9 O20 2.838797 1_556
Ba9 O24 2.869597 1_656
Ba9 O29 3.212399 1_555
Ba10 O15 2.654387 1_555
Ba10 O14 2.723308 1_555
Ba10 O23 2.756490 1_455
Ba10 O25 2.801427 1_555
Ba10 O12 2.881431 1_555
Ba10 O28 3.214325 1_555
Ba11 O26 2.614204 1_555
Ba11 O21 2.691499 1_555
Ba11 O16 2.699941 1_555
Ba11 O14 2.822980 1_555
Ba11 O17 2.838797 1_555
Ba11 O25 2.869597 1_555
Ba11 O31 3.212399 1_555
Ba12 O26 2.572181 1_555
Ba12 O19 2.594728 1_555
Ba12 O23 2.640162 1_555
Ba12 O28 2.655788 1_655
Ba12 O29 2.701564 1_555
Ba12 O3 3.140347 1_545
Ba13 O27 2.572181 1_555
Ba13 O21 2.594728 1_555
Ba13 O22 2.640162 1_554
Ba13 O30 2.655788 1_555
Ba13 O31 2.701564 1_555
Ba13 O1 3.140347 1_544
Ba14 O26 2.535990 1_555
Ba14 O22 2.616257 1_555
Ba14 O0 2.687334 1_545
Ba14 O1 2.796304 1_545
Ba14 O25 3.121427 1_555
Ba14 O29 3.333698 1_555
Ba14 O17 3.445267 1_555
Ba14 O6 3.465317 1_545
Ba15 O27 2.535990 1_555
Ba15 O23 2.616257 1_555
Ba15 O2 2.687334 1_645
Ba15 O3 2.796304 1_545
Ba15 O24 3.121427 1_655
Ba15 O31 3.333698 1_555
Ba15 O20 3.445267 1_555
Ba15 O7 3.465317 1_544
Ge0 O7 1.777910 1_555
Ge0 O29 1.788966 1_565
Ge0 O1 1.791286 1_555
Ge0 O27 1.792962 1_566
Ge1 O6 1.777910 1_555
Ge1 O31 1.788966 1_565
Ge1 O3 1.791286 1_555
Ge1 O26 1.792962 1_565
Ge2 O15 1.773490 1_555
Ge2 O8 1.790939 1_555
Ge2 O19 1.793735 1_455
Ge2 O11 1.796380 1_555
Ge3 O18 1.773490 1_555
Ge3 O9 1.790939 1_555
Ge3 O21 1.793735 1_555
Ge3 O14 1.796380 1_555
Ge4 O13 1.773490 1_555
Ge4 O22 1.790939 1_555
Ge4 O10 1.793735 1_555
Ge4 O17 1.796380 1_555
Ge5 O16 1.773490 1_555
Ge5 O23 1.790939 1_555
Ge5 O12 1.793735 1_655
Ge5 O20 1.796380 1_555
Ge6 O25 1.777910 1_555
Ge6 O0 1.788966 1_545
Ge6 O28 1.791286 1_555
Ge6 O5 1.792962 1_545
Ge7 O24 1.777910 1_555
Ge7 O2 1.788966 1_545
Ge7 O30 1.791286 1_555
Ge7 O4 1.792962 1_544
