# generated using pymatgen
data_Cu3OF5
_symmetry_space_group_name_H-M   'P 1'
_cell_length_a   9.60846120
_cell_length_b   4.59602000
_cell_length_c   4.59164176
_cell_angle_alpha   90.00000000
_cell_angle_beta   85.40398606
_cell_angle_gamma   90.00000000
_symmetry_Int_Tables_number   1
_chemical_formula_structural   Cu3OF5
_chemical_formula_sum   'Cu6 O2 F10'
_cell_volume   202.11800568
_cell_formula_units_Z   2
loop_
 _symmetry_equiv_pos_site_id
 _symmetry_equiv_pos_as_xyz
  1  'x, y, z'
loop_
 _atom_site_type_symbol
 _atom_site_label
 _atom_site_symmetry_multiplicity
 _atom_site_fract_x
 _atom_site_fract_y
 _atom_site_fract_z
 _atom_site_occupancy
  Cu  Cu0  1  0.01001700  0.99899200  0.01404300  1
  Cu  Cu1  1  0.16856000  0.53296300  0.47425300  1
  Cu  Cu2  1  0.32651500  0.99594600  0.02117600  1
  Cu  Cu3  1  0.51001700  0.50100800  0.51404300  1
  Cu  Cu4  1  0.66856000  0.96703700  0.97425300  1
  Cu  Cu5  1  0.82651500  0.50405400  0.52117600  1
  O  O0  1  0.16768100  0.82409200  0.19140400  1
  O  O1  1  0.66768100  0.67590800  0.69140400  1
  F  F0  1  0.01296300  0.71650100  0.69798300  1
  F  F1  1  0.15427000  0.23551600  0.77540100  1
  F  F2  1  0.33247100  0.32012600  0.30235100  1
  F  F3  1  0.34714900  0.70985700  0.71811900  1
  F  F4  1  0.51296300  0.78349900  0.19798300  1
  F  F5  1  0.48037300  0.19343600  0.80527200  1
  F  F6  1  0.65427000  0.26448400  0.27540100  1
  F  F7  1  0.84714900  0.79014300  0.21811900  1
  F  F8  1  0.83247100  0.17987400  0.80235100  1
  F  F9  1  0.98037300  0.30656400  0.30527200  1
loop_
_geom_bond_atom_site_label_1
_geom_bond_atom_site_label_2
_geom_bond_distance
_geom_bond_site_symmetry_2
Cu0 F0 1.945757 1_554
Cu0 O0 1.949881 1_555
Cu0 F9 1.951033 1_465
Cu0 F7 2.003336 1_455
Cu0 F1 2.014979 1_564
Cu0 F8 2.193609 1_464
Cu1 O0 1.865180 1_555
Cu1 F0 1.938020 1_555
Cu1 F1 1.941481 1_555
Cu1 F2 1.964965 1_555
Cu1 F3 2.273165 1_555
Cu1 F9 2.275767 1_455
Cu2 O0 1.836507 1_555
Cu2 F3 1.913200 1_554
Cu2 F5 1.938365 1_564
Cu2 F2 1.975311 1_565
Cu2 F4 2.248316 1_555
Cu2 F1 2.350374 1_564
Cu3 F4 1.945757 1_555
Cu3 O1 1.949881 1_555
Cu3 F5 1.951033 1_555
Cu3 F3 2.003336 1_555
Cu3 F6 2.014979 1_555
Cu3 F2 2.193609 1_555
Cu4 O1 1.865180 1_555
Cu4 F4 1.938020 1_556
Cu4 F6 1.941481 1_566
Cu4 F8 1.964965 1_565
Cu4 F7 2.273165 1_556
Cu4 F5 2.275767 1_565
Cu5 O1 1.836507 1_555
Cu5 F7 1.913200 1_555
Cu5 F9 1.938365 1_555
Cu5 F8 1.975311 1_555
Cu5 F0 2.248316 1_655
Cu5 F6 2.350374 1_555
