# generated using pymatgen
data_Li9Mn10O20
_symmetry_space_group_name_H-M   'P 1'
_cell_length_a   5.13076100
_cell_length_b   7.95721245
_cell_length_c   10.58464303
_cell_angle_alpha   105.63652019
_cell_angle_beta   101.21512979
_cell_angle_gamma   105.78322504
_symmetry_Int_Tables_number   1
_chemical_formula_structural   Li9Mn10O20
_chemical_formula_sum   'Li9 Mn10 O20'
_cell_volume   383.36518907
_cell_formula_units_Z   1
loop_
 _symmetry_equiv_pos_site_id
 _symmetry_equiv_pos_as_xyz
  1  'x, y, z'
loop_
 _atom_site_type_symbol
 _atom_site_label
 _atom_site_symmetry_multiplicity
 _atom_site_fract_x
 _atom_site_fract_y
 _atom_site_fract_z
 _atom_site_occupancy
  Li  Li0  1  0.78139500  0.55952200  0.75108700  1
  Li  Li1  1  0.78729400  0.58265600  0.25752300  1
  Li  Li2  1  0.62340400  0.23178700  0.26009300  1
  Li  Li3  1  0.99944800  0.49218300  0.98869200  1
  Li  Li4  1  0.99472100  0.49719600  0.50432500  1
  Li  Li5  1  0.37209700  0.76787700  0.74052500  1
  Li  Li6  1  0.21658100  0.39722300  0.74653400  1
  Li  Li7  1  0.21325200  0.42062700  0.24984100  1
  Li  Li8  1  0.39181000  0.77654000  0.24415800  1
  Mn  Mn0  1  0.99097000  0.00194800  0.74842000  1
  Mn  Mn1  1  0.00607200  0.00690900  0.25001000  1
  Mn  Mn2  1  0.41333100  0.31070200  0.49966500  1
  Mn  Mn3  1  0.42028200  0.31283200  0.99912000  1
  Mn  Mn4  1  0.80607500  0.11256600  0.99782700  1
  Mn  Mn5  1  0.19759400  0.89297100  0.50075000  1
  Mn  Mn6  1  0.79351200  0.10586100  0.49919900  1
  Mn  Mn7  1  0.20434800  0.89876600  0.00297600  1
  Mn  Mn8  1  0.58690900  0.69136600  0.00257900  1
  Mn  Mn9  1  0.58289700  0.68551800  0.50175300  1
  O  O0  1  0.14680600  0.11949400  0.62235000  1
  O  O1  1  0.17249500  0.12819500  0.12521800  1
  O  O2  1  0.60501500  0.47567100  0.88873300  1
  O  O3  1  0.39868300  0.04752300  0.90392600  1
  O  O4  1  0.60553200  0.46860300  0.38113800  1
  O  O5  1  0.42058200  0.06952600  0.38358700  1
  O  O6  1  0.97419900  0.76334400  0.62603800  1
  O  O7  1  0.78537000  0.33763200  0.60656000  1
  O  O8  1  0.00246900  0.77867300  0.11405500  1
  O  O9  1  0.78461200  0.33456600  0.11476300  1
  O  O10  1  0.21713500  0.67490100  0.88759500  1
  O  O11  1  0.04016200  0.24337500  0.88051800  1
  O  O12  1  0.22252800  0.67081300  0.38080400  1
  O  O13  1  0.02339300  0.24033100  0.37253700  1
  O  O14  1  0.56764000  0.92119500  0.61251700  1
  O  O15  1  0.39355300  0.52995700  0.61877300  1
  O  O16  1  0.57679300  0.93232300  0.11813200  1
  O  O17  1  0.40590800  0.53859600  0.11850800  1
  O  O18  1  0.83698200  0.88411900  0.88000100  1
  O  O19  1  0.83880400  0.87837700  0.37150800  1
loop_
_geom_bond_atom_site_label_1
_geom_bond_atom_site_label_2
_geom_bond_distance
_geom_bond_site_symmetry_2
Li0 O7 2.008418 1_555
Li0 O2 2.023665 1_555
Li0 O15 2.111918 1_555
Li0 O10 2.200142 1_655
Li0 O6 2.480857 1_555
Li0 O18 2.482447 1_555
Li1 O4 2.014856 1_555
Li1 O17 2.084652 1_555
Li1 O9 2.133000 1_555
Li1 O12 2.168500 1_655
Li1 O19 2.251634 1_555
Li2 O4 2.009749 1_555
Li2 O9 2.127052 1_555
Li2 O13 2.136173 1_655
Li2 O1 2.261266 1_555
Li2 O5 2.273010 1_555
Li2 O16 2.369235 1_545
Li3 O2 2.044442 1_555
Li3 O11 2.090534 1_655
Li3 O17 2.136898 1_656
Li3 O10 2.219601 1_655
Li3 O9 2.300209 1_556
Li3 O8 2.302163 1_656
Li4 O15 2.073195 1_655
Li4 O4 2.078315 1_555
Li4 O7 2.094689 1_555
Li4 O13 2.202624 1_655
Li4 O6 2.204348 1_555
Li4 O12 2.381966 1_655
Li5 O15 2.027406 1_555
Li5 O10 2.094048 1_555
Li5 O6 2.147470 1_455
Li5 O14 2.254937 1_555
Li5 O18 2.327711 1_555
Li5 O3 2.372744 1_565
Li6 O2 2.068065 1_555
Li6 O15 2.120050 1_555
Li6 O0 2.135522 1_555
Li6 O7 2.256176 1_455
Li6 O11 2.271921 1_555
Li6 O10 2.308227 1_555
Li7 O12 2.078990 1_555
Li7 O4 2.082310 1_555
Li7 O17 2.126928 1_555
Li7 O9 2.186237 1_455
Li7 O1 2.274148 1_555
Li7 O13 2.330231 1_555
Li8 O17 2.028145 1_555
Li8 O12 2.073924 1_555
Li8 O8 2.201845 1_555
Li8 O19 2.220600 1_555
Li8 O16 2.227248 1_555
Li8 O5 2.346977 1_565
Mn0 O6 1.957583 1_545
Mn0 O11 1.964751 1_655
Mn0 O0 1.993941 1_655
Mn0 O18 2.042545 1_545
Mn0 O14 2.174139 1_545
Mn0 O3 2.267794 1_655
Mn1 O13 1.925250 1_555
Mn1 O8 1.982932 1_545
Mn1 O1 2.020610 1_555
Mn1 O19 2.024163 1_445
Mn1 O5 2.155104 1_555
Mn1 O16 2.190485 1_445
Mn2 O15 1.898399 1_555
Mn2 O7 1.943306 1_555
Mn2 O5 1.994848 1_555
Mn2 O13 2.015963 1_555
Mn2 O4 2.186783 1_555
Mn2 O0 2.548566 1_555
Mn3 O17 1.927208 1_556
Mn3 O11 1.942245 1_555
Mn3 O9 1.960208 1_556
Mn3 O3 2.041316 1_555
Mn3 O2 2.126334 1_555
Mn3 O1 2.501458 1_556
Mn4 O9 1.909141 1_556
Mn4 O18 1.973971 1_545
Mn4 O3 1.987677 1_555
Mn4 O1 2.040688 1_656
Mn4 O11 2.159726 1_655
Mn4 O16 2.389938 1_546
Mn5 O12 1.931204 1_555
Mn5 O14 1.950853 1_555
Mn5 O19 2.022904 1_455
Mn5 O0 2.027027 1_565
Mn5 O6 2.195853 1_455
Mn5 O5 2.331800 1_565
Mn6 O7 1.903938 1_555
Mn6 O5 1.959527 1_555
Mn6 O0 1.973413 1_655
Mn6 O19 2.046825 1_545
Mn6 O13 2.243950 1_655
Mn6 O14 2.346337 1_545
Mn7 O10 1.894988 1_554
Mn7 O16 1.962031 1_555
Mn7 O8 1.977199 1_555
Mn7 O3 1.981925 1_564
Mn7 O1 2.001234 1_565
Mn7 O18 2.026069 1_454
Mn8 O2 1.849829 1_554
Mn8 O10 1.994618 1_554
Mn8 O16 1.997380 1_555
Mn8 O8 2.048076 1_655
Mn8 O17 2.116390 1_555
Mn8 O18 2.516312 1_554
Mn9 O4 1.897740 1_555
Mn9 O14 1.956492 1_555
Mn9 O12 1.987987 1_555
Mn9 O6 2.000491 1_555
Mn9 O15 2.156514 1_555
Mn9 O19 2.593837 1_555
