# generated using pymatgen
data_Li2Fe2Co3O10
_symmetry_space_group_name_H-M   'P 1'
_cell_length_a   5.20589492
_cell_length_b   2.91258316
_cell_length_c   23.83384511
_cell_angle_alpha   90.00000000
_cell_angle_beta   94.65284826
_cell_angle_gamma   90.00000000
_symmetry_Int_Tables_number   1
_chemical_formula_structural   Li2Fe2Co3O10
_chemical_formula_sum   'Li4 Fe4 Co6 O20'
_cell_volume   360.19215963
_cell_formula_units_Z   2
loop_
 _symmetry_equiv_pos_site_id
 _symmetry_equiv_pos_as_xyz
  1  'x, y, z'
loop_
 _atom_site_type_symbol
 _atom_site_label
 _atom_site_symmetry_multiplicity
 _atom_site_fract_x
 _atom_site_fract_y
 _atom_site_fract_z
 _atom_site_occupancy
  Li  Li0  1  0.40057367  0.50000000  0.70257297  1
  Li  Li1  1  0.39902979  -0.00000000  0.19889879  1
  Li  Li2  1  0.80276499  0.50000000  0.89893557  1
  Li  Li3  1  0.80215734  0.00000000  0.40143460  1
  Fe  Fe0  1  0.11281687  -0.00000000  0.30110350  1
  Fe  Fe1  1  0.48909140  -0.00000000  0.50380934  1
  Fe  Fe2  1  0.69834334  0.00000000  0.09547683  1
  Fe  Fe3  1  0.89864244  0.50000000  0.19862662  1
  Co  Co0  1  0.09730517  0.50000000  0.79881913  1
  Co  Co1  1  0.29425946  -0.00000000  0.89794568  1
  Co  Co2  1  0.49173568  0.50000000  0.99667151  1
  Co  Co3  1  0.30204110  0.50000000  0.40244932  1
  Co  Co4  1  0.70705030  0.50000000  0.60333886  1
  Co  Co5  1  0.90456956  0.00000000  0.70122165  1
  O  O0  1  0.00594843  0.50000000  0.65698110  1
  O  O1  1  0.19272483  0.50000000  0.94505900  1
  O  O2  1  0.21265017  -0.00000000  0.74694502  1
  O  O3  1  0.02039823  -0.00000000  0.15250618  1
  O  O4  1  0.18045724  -0.00000000  0.44555824  1
  O  O5  1  0.39880550  0.50000000  0.84937133  1
  O  O6  1  0.22437473  0.50000000  0.24979617  1
  O  O7  1  0.41051084  0.50000000  0.55640463  1
  O  O8  1  0.60740845  0.00000000  0.94884752  1
  O  O9  1  0.42235706  0.00000000  0.35943807  1
  O  O10  1  0.60075557  0.00000000  0.65224809  1
  O  O11  1  0.38203156  -0.00000000  0.03823686  1
  O  O12  1  0.60708825  0.50000000  0.45098325  1
  O  O13  1  0.79805922  0.50000000  0.74604919  1
  O  O14  1  0.57648764  0.50000000  0.14623107  1
  O  O15  1  0.81420265  0.00000000  0.56134066  1
  O  O16  1  0.98026970  -0.00000000  0.85014517  1
  O  O17  1  0.77961175  0.00000000  0.24475590  1
  O  O18  1  0.78788243  0.50000000  0.04401554  1
  O  O19  1  0.99713764  0.50000000  0.35407661  1
loop_
_geom_bond_atom_site_label_1
_geom_bond_atom_site_label_2
_geom_bond_distance
_geom_bond_site_symmetry_2
Li0 O2 2.089056 1_565
Li0 O2 2.089056 1_555
Li0 O10 2.201873 1_555
Li0 O10 2.201873 1_565
Li0 O13 2.237795 1_555
Li0 O0 2.244786 1_555
Li1 O6 2.144295 1_555
Li1 O6 2.144295 1_545
Li1 O14 2.176716 1_555
Li1 O14 2.176716 1_545
Li1 O3 2.180438 1_555
Li1 O17 2.183726 1_555
Li2 O16 2.121621 1_555
Li2 O16 2.121621 1_565
Li2 O8 2.183231 1_555
Li2 O8 2.183231 1_565
Li2 O1 2.228826 1_655
Li2 O5 2.327001 1_555
Li3 O9 2.142458 1_555
Li3 O19 2.147323 1_545
Li3 O19 2.147323 1_555
Li3 O4 2.156021 1_655
Li3 O12 2.177433 1_545
Li3 O12 2.177433 1_555
Fe0 O6 2.017089 1_555
Fe0 O6 2.017089 1_545
Fe0 O9 2.041146 1_555
Fe0 O19 2.049595 1_455
Fe0 O19 2.049595 1_445
Fe0 O17 2.105848 1_455
Fe1 O7 1.985626 1_545
Fe1 O7 1.985626 1_555
Fe1 O4 2.036455 1_555
Fe1 O12 2.051537 1_545
Fe1 O12 2.051537 1_555
Fe1 O15 2.090024 1_555
Fe2 O18 1.983726 1_545
Fe2 O18 1.983726 1_555
Fe2 O14 2.027561 1_555
Fe2 O14 2.027561 1_545
Fe2 O11 2.051411 1_555
Fe2 O3 2.070923 1_655
Fe3 O17 1.955520 1_555
Fe3 O17 1.955520 1_565
Fe3 O3 1.960583 1_665
Fe3 O3 1.960583 1_655
Fe3 O6 2.006819 1_655
Fe3 O14 2.008076 1_555
Co0 O5 1.899590 1_555
Co0 O13 1.921155 1_455
Co0 O16 2.027159 1_465
Co0 O16 2.027159 1_455
Co0 O2 2.032335 1_565
Co0 O2 2.032335 1_555
Co1 O16 1.915129 1_455
Co1 O1 1.938391 1_545
Co1 O1 1.938391 1_555
Co1 O8 1.951557 1_555
Co1 O5 1.964567 1_545
Co1 O5 1.964567 1_555
Co2 O18 1.835183 1_556
Co2 O11 1.876206 1_556
Co2 O11 1.876206 1_566
Co2 O1 1.904104 1_555
Co2 O8 1.973316 1_555
Co2 O8 1.973316 1_565
Co3 O19 1.884624 1_455
Co3 O12 1.887307 1_555
Co3 O9 1.915242 1_555
Co3 O9 1.915242 1_565
Co3 O4 1.919004 1_555
Co3 O4 1.919004 1_565
Co4 O7 1.831483 1_555
Co4 O15 1.877365 1_565
Co4 O15 1.877365 1_555
Co4 O0 1.932110 1_655
Co4 O10 1.972432 1_565
Co4 O10 1.972432 1_555
Co5 O2 1.864488 1_655
Co5 O10 1.887975 1_555
Co5 O0 1.897739 1_655
Co5 O0 1.897739 1_645
Co5 O13 1.914641 1_545
Co5 O13 1.914641 1_555
