# generated using pymatgen
data_MoH6NO3F2
_symmetry_space_group_name_H-M   'P 1'
_cell_length_a   8.59078888
_cell_length_b   8.59078888
_cell_length_c   7.99098615
_cell_angle_alpha   77.39712198
_cell_angle_beta   77.39712198
_cell_angle_gamma   113.18510539
_symmetry_Int_Tables_number   1
_chemical_formula_structural   MoH6NO3F2
_chemical_formula_sum   'Mo4 H24 N4 O12 F8'
_cell_volume   497.73316993
_cell_formula_units_Z   4
loop_
 _symmetry_equiv_pos_site_id
 _symmetry_equiv_pos_as_xyz
  1  'x, y, z'
loop_
 _atom_site_type_symbol
 _atom_site_label
 _atom_site_symmetry_multiplicity
 _atom_site_fract_x
 _atom_site_fract_y
 _atom_site_fract_z
 _atom_site_occupancy
  Mo  Mo0  1  0.01057400  0.72404800  0.73680500  1
  Mo  Mo1  1  0.27595200  0.98942600  0.76319500  1
  Mo  Mo2  1  0.98942600  0.27595200  0.26319500  1
  Mo  Mo3  1  0.72404800  0.01057400  0.23680500  1
  H  H0  1  0.37102600  0.53299500  0.86615400  1
  H  H1  1  0.46700500  0.62897400  0.63384600  1
  H  H2  1  0.62897400  0.46700500  0.13384600  1
  H  H3  1  0.53299500  0.37102600  0.36615400  1
  H  H4  1  0.41556700  0.41302300  0.73856900  1
  H  H5  1  0.58697700  0.58443300  0.76143100  1
  H  H6  1  0.58443300  0.58697700  0.26143100  1
  H  H7  1  0.41302300  0.41556700  0.23856900  1
  H  H8  1  0.87981000  0.29546000  0.66111800  1
  H  H9  1  0.70454000  0.12019000  0.83888200  1
  H  H10  1  0.12019000  0.70454000  0.33888200  1
  H  H11  1  0.29546000  0.87981000  0.16111800  1
  H  H12  1  0.12960800  0.24072600  0.65740400  1
  H  H13  1  0.75927400  0.87039200  0.84259600  1
  H  H14  1  0.87039200  0.75927400  0.34259600  1
  H  H15  1  0.24072600  0.12960800  0.15740400  1
  H  H16  1  0.07793000  0.19150200  0.87762200  1
  H  H17  1  0.80849800  0.92207000  0.62237800  1
  H  H18  1  0.92207000  0.80849800  0.12237800  1
  H  H19  1  0.19150200  0.07793000  0.37762200  1
  H  H20  1  0.75115300  0.33416100  0.82487500  1
  H  H21  1  0.66583900  0.24884700  0.67512500  1
  H  H22  1  0.24884700  0.66583900  0.17512500  1
  H  H23  1  0.33416100  0.75115300  0.32487500  1
  N  N0  1  0.46047300  0.53952700  0.75000000  1
  N  N1  1  0.53952700  0.46047300  0.25000000  1
  N  N2  1  0.75088400  0.24911600  0.75000000  1
  N  N3  1  0.24911600  0.75088400  0.25000000  1
  O  O0  1  0.10516400  0.58194200  0.73271600  1
  O  O1  1  0.41805800  0.89483600  0.76728400  1
  O  O2  1  0.89483600  0.41805800  0.26728400  1
  O  O3  1  0.58194200  0.10516400  0.23271600  1
  O  O4  1  0.04117100  0.80487300  0.94557200  1
  O  O5  1  0.19512700  0.95882900  0.55442800  1
  O  O6  1  0.95882900  0.19512700  0.05442800  1
  O  O7  1  0.80487300  0.04117100  0.44557200  1
  O  O8  1  0.80851700  0.84164900  0.73609600  1
  O  O9  1  0.15835100  0.19148300  0.76390400  1
  O  O10  1  0.19148300  0.15835100  0.26390400  1
  O  O11  1  0.84164900  0.80851700  0.23609600  1
  F  F0  1  0.91860100  0.67110800  0.52490000  1
  F  F1  1  0.32889200  0.08139900  0.97510000  1
  F  F2  1  0.08139900  0.32889200  0.47510000  1
  F  F3  1  0.67110800  0.91860100  0.02490000  1
  F  F4  1  0.75935000  0.51426500  0.90791600  1
  F  F5  1  0.48573500  0.24065000  0.59208400  1
  F  F6  1  0.24065000  0.48573500  0.09208400  1
  F  F7  1  0.51426500  0.75935000  0.40791600  1
loop_
_geom_bond_atom_site_label_1
_geom_bond_atom_site_label_2
_geom_bond_distance
_geom_bond_site_symmetry_2
Mo0 O0 1.714263 1_555
Mo0 O4 1.971654 1_555
Mo0 O5 1.974008 1_555
Mo0 O8 2.327330 1_455
Mo1 O1 1.714263 1_555
Mo1 O5 1.971654 1_555
Mo1 O4 1.974008 1_555
Mo1 O9 2.327330 1_565
Mo2 O2 1.714263 1_555
Mo2 O6 1.971654 1_555
Mo2 O7 1.974008 1_555
Mo2 O10 2.327330 1_655
Mo3 O3 1.714263 1_555
Mo3 O7 1.971654 1_555
Mo3 O6 1.974008 1_555
Mo3 O11 2.327330 1_545
H0 N0 1.042698 1_555
H1 N0 1.042698 1_555
H2 N1 1.042698 1_555
H3 N1 1.042698 1_555
H4 N0 1.032866 1_555
H5 N0 1.032866 1_555
H6 N1 1.032866 1_555
H7 N1 1.032866 1_555
H8 N2 1.037205 1_555
H9 N2 1.037205 1_555
H10 N3 1.037205 1_555
H11 N3 1.037205 1_555
H12 O9 0.990478 1_555
H13 O8 0.990478 1_555
H14 O11 0.990478 1_555
H15 O10 0.990478 1_555
H16 O9 1.014529 1_555
H16 O6 1.567630 1_456
H17 O8 1.014529 1_555
H17 O7 1.567630 1_565
H18 O11 1.014529 1_555
H18 O4 1.567630 1_654
H19 O10 1.014529 1_555
H19 O5 1.567630 1_545
H20 N2 1.040103 1_555
H21 N2 1.040103 1_555
H22 N3 1.040103 1_555
H23 N3 1.040103 1_555
F0 Mo0 2.082179 1_655
F1 Mo1 2.082179 1_545
F2 Mo2 2.082179 1_455
F3 Mo3 2.082179 1_565
F4 Mo0 2.085586 1_655
F5 Mo1 2.085586 1_545
F6 Mo2 2.085586 1_455
F7 Mo3 2.085586 1_565
