# generated using pymatgen
data_LiFe2(BO3)2
_symmetry_space_group_name_H-M   'P 1'
_cell_length_a   8.93649800
_cell_length_b   5.28321300
_cell_length_c   10.34232958
_cell_angle_alpha   88.83616908
_cell_angle_beta   90.00000000
_cell_angle_gamma   90.00000000
_symmetry_Int_Tables_number   1
_chemical_formula_structural   LiFe2(BO3)2
_chemical_formula_sum   'Li4 Fe8 B8 O24'
_cell_volume   488.19604153
_cell_formula_units_Z   4
loop_
 _symmetry_equiv_pos_site_id
 _symmetry_equiv_pos_as_xyz
  1  'x, y, z'
loop_
 _atom_site_type_symbol
 _atom_site_label
 _atom_site_symmetry_multiplicity
 _atom_site_fract_x
 _atom_site_fract_y
 _atom_site_fract_z
 _atom_site_occupancy
  Li  Li0  1  0.99078700  0.65832400  0.83658000  1
  Li  Li1  1  0.99532100  0.34301300  0.08614700  1
  Li  Li2  1  0.00921300  0.65832400  0.33658000  1
  Li  Li3  1  0.00467900  0.34301300  0.58614700  1
  Fe  Fe0  1  0.82178900  0.85128400  0.11888300  1
  Fe  Fe1  1  0.82497500  0.14837100  0.36970700  1
  Fe  Fe2  1  0.65876100  0.66682000  0.86623500  1
  Fe  Fe3  1  0.66376500  0.33876500  0.62525500  1
  Fe  Fe4  1  0.34123900  0.66682000  0.36623500  1
  Fe  Fe5  1  0.17821100  0.85128400  0.61888300  1
  Fe  Fe6  1  0.33623500  0.33876500  0.12525500  1
  Fe  Fe7  1  0.17502500  0.14837100  0.86970700  1
  B  B0  1  0.83251500  0.82828500  0.63109900  1
  B  B1  1  0.67477500  0.65850700  0.37710000  1
  B  B2  1  0.83488100  0.17685500  0.86918000  1
  B  B3  1  0.67075500  0.34353000  0.11580500  1
  B  B4  1  0.32522500  0.65850700  0.87710000  1
  B  B5  1  0.32924500  0.34353000  0.61580500  1
  B  B6  1  0.16748500  0.82828500  0.13109900  1
  B  B7  1  0.16511900  0.17685500  0.36918000  1
  O  O0  1  0.96597500  0.69813500  0.63323500  1
  O  O1  1  0.82612400  0.91607400  0.89670300  1
  O  O2  1  0.96616000  0.30406500  0.89051700  1
  O  O3  1  0.80351000  0.77858400  0.32899100  1
  O  O4  1  0.70168500  0.70287100  0.66973500  1
  O  O5  1  0.80180100  0.22146500  0.15897500  1
  O  O6  1  0.82611600  0.08244600  0.59309300  1
  O  O7  1  0.68912700  0.57789000  0.05330300  1
  O  O8  1  0.53939500  0.77053800  0.36307500  1
  O  O9  1  0.69301200  0.42423300  0.43846700  1
  O  O10  1  0.70945000  0.30730100  0.82359000  1
  O  O11  1  0.46060500  0.77053800  0.86307500  1
  O  O12  1  0.53432700  0.23622000  0.13507900  1
  O  O13  1  0.29831500  0.70287100  0.16973500  1
  O  O14  1  0.31087300  0.57789000  0.55330300  1
  O  O15  1  0.46567300  0.23622000  0.63507900  1
  O  O16  1  0.30698800  0.42423300  0.93846700  1
  O  O17  1  0.17387600  0.91607400  0.39670300  1
  O  O18  1  0.19649000  0.77858400  0.82899100  1
  O  O19  1  0.29055000  0.30730100  0.32359000  1
  O  O20  1  0.19819900  0.22146500  0.65897500  1
  O  O21  1  0.03402500  0.69813500  0.13323500  1
  O  O22  1  0.17388400  0.08244600  0.09309300  1
  O  O23  1  0.03384000  0.30406500  0.39051700  1
loop_
_geom_bond_atom_site_label_1
_geom_bond_atom_site_label_2
_geom_bond_distance
_geom_bond_site_symmetry_2
Li0 O18 1.946030 1_655
Li0 O2 1.954529 1_555
Li0 O1 2.107308 1_555
Li0 O0 2.120920 1_555
Li1 O21 1.978380 1_655
Li1 O5 1.987674 1_555
Li1 O2 2.054455 1_554
Li1 O22 2.107748 1_655
Li2 O3 1.946030 1_455
Li2 O23 1.954529 1_555
Li2 O17 2.107308 1_555
Li2 O21 2.120920 1_555
Li3 O0 1.978380 1_455
Li3 O20 1.987674 1_555
Li3 O23 2.054455 1_555
Li3 O6 2.107748 1_455
Fe0 O7 1.997898 1_555
Fe0 O5 2.015370 1_565
Fe0 O21 2.066179 1_655
Fe0 O3 2.205053 1_555
Fe0 O1 2.316651 1_554
Fe1 O9 2.015605 1_555
Fe1 O3 2.016021 1_545
Fe1 O23 2.052810 1_655
Fe1 O5 2.215372 1_555
Fe1 O6 2.329454 1_555
Fe2 O11 1.853756 1_555
Fe2 O7 2.000149 1_556
Fe2 O10 2.010355 1_555
Fe2 O1 2.021686 1_555
Fe2 O4 2.073115 1_555
Fe3 O15 1.853478 1_555
Fe3 O9 1.992162 1_555
Fe3 O4 2.015647 1_555
Fe3 O6 2.016861 1_555
Fe3 O10 2.094772 1_555
Fe4 O8 1.853756 1_555
Fe4 O14 2.000149 1_555
Fe4 O19 2.010355 1_555
Fe4 O17 2.021686 1_555
Fe4 O13 2.073115 1_555
Fe5 O14 1.997898 1_555
Fe5 O20 2.015370 1_565
Fe5 O0 2.066179 1_455
Fe5 O18 2.205053 1_555
Fe5 O17 2.316651 1_555
Fe6 O12 1.853478 1_555
Fe6 O16 1.992162 1_554
Fe6 O13 2.015647 1_555
Fe6 O22 2.016861 1_555
Fe6 O19 2.094772 1_555
Fe7 O16 2.015605 1_555
Fe7 O18 2.016021 1_545
Fe7 O2 2.052810 1_455
Fe7 O20 2.215372 1_555
Fe7 O22 2.329454 1_556
B0 O0 1.376637 1_555
B0 O6 1.392627 1_565
B0 O4 1.398169 1_555
B1 O8 1.353348 1_555
B1 O9 1.389034 1_555
B1 O3 1.400253 1_555
B2 O2 1.372133 1_555
B2 O10 1.393028 1_555
B2 O1 1.403370 1_545
B3 O12 1.357567 1_555
B3 O7 1.394765 1_555
B3 O5 1.405345 1_555
B4 O11 1.353348 1_555
B4 O16 1.389034 1_555
B4 O18 1.400253 1_555
B5 O15 1.357567 1_555
B5 O14 1.394765 1_555
B5 O20 1.405345 1_555
B6 O21 1.376637 1_555
B6 O22 1.392627 1_565
B6 O13 1.398169 1_555
B7 O23 1.372133 1_555
B7 O19 1.393028 1_555
B7 O17 1.403370 1_545
