# generated using pymatgen
data_TiFe3(PO4)6
_symmetry_space_group_name_H-M   'P 1'
_cell_length_a   8.93821034
_cell_length_b   8.93821034
_cell_length_c   8.93821024
_cell_angle_alpha   58.54704875
_cell_angle_beta   58.54704875
_cell_angle_gamma   58.54704911
_symmetry_Int_Tables_number   1
_chemical_formula_structural   TiFe3(PO4)6
_chemical_formula_sum   'Ti1 Fe3 P6 O24'
_cell_volume   488.15804605
_cell_formula_units_Z   1
loop_
 _symmetry_equiv_pos_site_id
 _symmetry_equiv_pos_as_xyz
  1  'x, y, z'
loop_
 _atom_site_type_symbol
 _atom_site_label
 _atom_site_symmetry_multiplicity
 _atom_site_fract_x
 _atom_site_fract_y
 _atom_site_fract_z
 _atom_site_occupancy
  Ti  Ti0  1  0.14013000  0.14013000  0.14013000  1
  Fe  Fe0  1  0.85697600  0.85697600  0.85697600  1
  Fe  Fe1  1  0.64190200  0.64190200  0.64190200  1
  Fe  Fe2  1  0.35743000  0.35743000  0.35743000  1
  P  P0  1  0.24922200  0.53420100  0.96643400  1
  P  P1  1  0.96643400  0.24922200  0.53420100  1
  P  P2  1  0.53420100  0.96643400  0.24922200  1
  P  P3  1  0.46765500  0.03447700  0.74749600  1
  P  P4  1  0.03447700  0.74749600  0.46765500  1
  P  P5  1  0.74749600  0.46765500  0.03447700  1
  O  O0  1  0.72783900  0.48902600  0.86305500  1
  O  O1  1  0.48902600  0.86305500  0.72783900  1
  O  O2  1  0.07906700  0.71130000  0.93746900  1
  O  O3  1  0.86305500  0.72783900  0.48902600  1
  O  O4  1  0.42265400  0.55287200  0.79065600  1
  O  O5  1  0.21303700  0.36317400  0.00633000  1
  O  O6  1  0.93746900  0.07906700  0.71130000  1
  O  O7  1  0.79065600  0.42265400  0.55287200  1
  O  O8  1  0.55287200  0.79065600  0.42265400  1
  O  O9  1  0.63896200  0.00741900  0.77162500  1
  O  O10  1  0.29204900  0.06938900  0.92095900  1
  O  O11  1  0.00741900  0.77162500  0.63896200  1
  O  O12  1  0.00633000  0.21303700  0.36317400  1
  O  O13  1  0.71130000  0.93746900  0.07906700  1
  O  O14  1  0.36317400  0.00633000  0.21303700  1
  O  O15  1  0.44243800  0.20909200  0.57554200  1
  O  O16  1  0.20909200  0.57554200  0.44243800  1
  O  O17  1  0.06938900  0.92095900  0.29204900  1
  O  O18  1  0.77162500  0.63896200  0.00741900  1
  O  O19  1  0.57554200  0.44243800  0.20909200  1
  O  O20  1  0.13670000  0.27466700  0.50875700  1
  O  O21  1  0.92095900  0.29204900  0.06938900  1
  O  O22  1  0.50875700  0.13670000  0.27466700  1
  O  O23  1  0.27466700  0.50875700  0.13670000  1
loop_
_geom_bond_atom_site_label_1
_geom_bond_atom_site_label_2
_geom_bond_distance
_geom_bond_site_symmetry_2
Fe0 O11 1.983358 1_655
Fe0 O18 1.983358 1_556
Fe0 O9 1.983358 1_565
Fe0 O13 1.992243 1_556
Fe0 O6 1.992244 1_565
Fe0 O2 1.992244 1_655
Fe1 O0 2.008718 1_555
Fe1 O3 2.008718 1_555
Fe1 O1 2.008718 1_555
Fe1 O8 2.011348 1_555
Fe1 O4 2.011348 1_555
Fe1 O7 2.011348 1_555
Fe2 O15 1.983164 1_555
Fe2 O19 1.983164 1_555
Fe2 O16 1.983164 1_555
Fe2 O23 1.990776 1_555
Fe2 O20 1.990776 1_555
Fe2 O22 1.990776 1_555
O0 P5 1.534761 1_556
O1 P3 1.534761 1_565
O2 P0 1.535131 1_555
O3 P4 1.534761 1_655
O4 P0 1.534274 1_555
O5 P0 1.547688 1_554
O5 Ti0 1.970715 1_555
O6 P1 1.535131 1_555
O7 P1 1.534274 1_555
O8 P2 1.534274 1_555
O9 P3 1.534028 1_555
O10 P3 1.555313 1_555
O10 Ti0 1.924034 1_556
O11 P4 1.534028 1_555
O12 P1 1.547688 1_455
O12 Ti0 1.970715 1_555
O13 P2 1.535131 1_555
O14 P2 1.547688 1_545
O14 Ti0 1.970715 1_555
O15 P3 1.529706 1_555
O16 P4 1.529706 1_555
O17 P4 1.555313 1_555
O17 Ti0 1.924035 1_565
O18 P5 1.534028 1_555
O19 P5 1.529706 1_555
O20 P1 1.538045 1_455
O21 P5 1.555313 1_555
O21 Ti0 1.924035 1_655
O22 P2 1.538045 1_545
O23 P0 1.538045 1_554
