# generated using pymatgen
data_Li4Fe5Ni(PO4)6
_symmetry_space_group_name_H-M   'P 1'
_cell_length_a   8.35496289
_cell_length_b   8.91460799
_cell_length_c   8.91562770
_cell_angle_alpha   59.93215769
_cell_angle_beta   58.40203386
_cell_angle_gamma   58.61867934
_symmetry_Int_Tables_number   1
_chemical_formula_structural   Li4Fe5Ni(PO4)6
_chemical_formula_sum   'Li4 Fe5 Ni1 P6 O24'
_cell_volume   458.47261119
_cell_formula_units_Z   1
loop_
 _symmetry_equiv_pos_site_id
 _symmetry_equiv_pos_as_xyz
  1  'x, y, z'
loop_
 _atom_site_type_symbol
 _atom_site_label
 _atom_site_symmetry_multiplicity
 _atom_site_fract_x
 _atom_site_fract_y
 _atom_site_fract_z
 _atom_site_occupancy
  Li  Li0  1  0.25148100  0.85467200  0.64250800  1
  Li  Li1  1  0.74813500  0.15417100  0.34298900  1
  Li  Li2  1  0.74713100  0.75756900  0.15002500  1
  Li  Li3  1  0.74669400  0.34523900  0.75704100  1
  Fe  Fe0  1  0.00507100  0.00093400  0.00295300  1
  Fe  Fe1  1  0.06585100  0.64253200  0.64575800  1
  Fe  Fe2  1  0.49955800  0.49551300  0.49799100  1
  Fe  Fe3  1  0.43404900  0.85367300  0.85849600  1
  Fe  Fe4  1  0.95582500  0.34813400  0.34513600  1
  Ni  Ni0  1  0.55390500  0.15200900  0.14811800  1
  P  P0  1  0.25120300  0.25239500  0.55458700  1
  P  P1  1  0.24964300  0.94472300  0.24959600  1
  P  P2  1  0.24987000  0.55489100  0.94468800  1
  P  P3  1  0.74981100  0.45472100  0.04261900  1
  P  P4  1  0.76022400  0.04223700  0.75037000  1
  P  P5  1  0.73846400  0.75317700  0.45650100  1
  O  O0  1  0.05440200  0.09925300  0.31182900  1
  O  O1  1  0.05268000  0.53224900  0.09807400  1
  O  O2  1  0.05409200  0.31963500  0.52880800  1
  O  O3  1  0.23053700  0.09034200  0.74453400  1
  O  O4  1  0.44230100  0.19060900  0.39574600  1
  O  O5  1  0.27335100  0.40505500  0.57481500  1
  O  O6  1  0.23200800  0.92110600  0.09667000  1
  O  O7  1  0.27084400  0.75573900  0.41222400  1
  O  O8  1  0.56549400  0.60864700  0.99640900  1
  O  O9  1  0.27522500  0.58136200  0.74529700  1
  O  O10  1  0.77841200  0.25947600  0.05694000  1
  O  O11  1  0.58568000  0.98432800  0.81601900  1
  O  O12  1  0.44190000  0.97788600  0.18588500  1
  O  O13  1  0.22738800  0.75314100  0.91947400  1
  O  O14  1  0.71995000  0.43331100  0.23958000  1
  O  O15  1  0.43981300  0.39607000  0.97522900  1
  O  O16  1  0.72562400  0.23774400  0.60167400  1
  O  O17  1  0.77617300  0.06479300  0.90573500  1
  O  O18  1  0.72020000  0.60142900  0.43189200  1
  O  O19  1  0.53925400  0.82268700  0.60654500  1
  O  O20  1  0.77478400  0.90431800  0.26023800  1
  O  O21  1  0.91461300  0.68761400  0.51277200  1
  O  O22  1  0.93795300  0.49782700  0.88895200  1
  O  O23  1  0.96040600  0.89178600  0.68228500  1
loop_
_geom_bond_atom_site_label_1
_geom_bond_atom_site_label_2
_geom_bond_distance
_geom_bond_site_symmetry_2
Li0 O9 2.065238 1_555
Li0 O13 2.094419 1_555
Li0 O23 2.127275 1_455
Li0 O19 2.129486 1_555
Li0 O7 2.517368 1_555
Li0 O3 2.576263 1_565
Li1 O14 2.101431 1_555
Li1 O10 2.149783 1_555
Li1 O4 2.210241 1_555
Li1 O0 2.225138 1_655
Li1 O20 2.552052 1_545
Li2 O18 2.128824 1_555
Li2 O20 2.138017 1_555
Li2 O12 2.240898 1_555
Li2 O1 2.262528 1_655
Li2 O17 2.542537 1_564
Li3 O17 2.109078 1_555
Li3 O16 2.151601 1_555
Li3 O15 2.238325 1_555
Li3 O2 2.273159 1_655
Li3 O10 2.507385 1_556
Fe0 O6 2.111550 1_545
Fe0 O3 2.160461 1_554
Fe0 O10 2.177341 1_455
Fe0 O13 2.192992 1_544
Fe0 O20 2.196986 1_445
Fe0 O17 2.200343 1_454
Fe1 O22 1.926682 1_455
Fe1 O21 1.930685 1_455
Fe1 O23 2.050663 1_455
Fe1 O7 2.060262 1_555
Fe1 O5 2.063420 1_555
Fe1 O9 2.072063 1_555
Fe2 O5 2.090119 1_555
Fe2 O18 2.180343 1_555
Fe2 O7 2.180536 1_555
Fe2 O14 2.185688 1_555
Fe2 O9 2.196951 1_555
Fe2 O16 2.209812 1_555
Fe3 O11 1.922756 1_555
Fe3 O8 1.927331 1_555
Fe3 O6 2.045980 1_556
Fe3 O19 2.048077 1_555
Fe3 O13 2.054198 1_555
Fe3 O3 2.073883 1_565
Fe4 O1 2.023193 1_655
Fe4 O0 2.046913 1_655
Fe4 O2 2.048156 1_655
Fe4 O16 2.237153 1_555
Fe4 O14 2.239416 1_555
Fe4 O18 2.257744 1_555
Ni0 O15 2.009366 1_554
Ni0 O12 2.014303 1_545
Ni0 O4 2.032710 1_555
Ni0 O10 2.142507 1_555
Ni0 O17 2.167390 1_554
Ni0 O20 2.181284 1_545
O0 P1 1.530892 1_545
O1 P2 1.527728 1_554
O2 P0 1.534524 1_555
O3 P0 1.576890 1_555
O4 P0 1.534415 1_555
O5 P0 1.569077 1_555
O6 P1 1.566984 1_555
O7 P1 1.575615 1_555
O8 P3 1.523728 1_556
O9 P2 1.580455 1_555
O10 P3 1.574477 1_555
O11 P4 1.523998 1_565
O12 P1 1.536365 1_555
O13 P2 1.584188 1_555
O14 P3 1.561078 1_555
O15 P2 1.524354 1_555
O16 P4 1.562139 1_555
O17 P4 1.573954 1_555
O18 P5 1.564897 1_555
O19 P5 1.538519 1_555
O20 P5 1.573603 1_555
O21 P5 1.530789 1_555
O22 P3 1.529828 1_556
O23 P4 1.542835 1_565
