# generated using pymatgen
data_SnP2O7
_symmetry_space_group_name_H-M   'P 1'
_cell_length_a   5.21660132
_cell_length_b   8.18882930
_cell_length_c   13.43414248
_cell_angle_alpha   71.06201620
_cell_angle_beta   90.00000000
_cell_angle_gamma   90.00000000
_symmetry_Int_Tables_number   1
_chemical_formula_structural   SnP2O7
_chemical_formula_sum   'Sn4 P8 O28'
_cell_volume   542.81401947
_cell_formula_units_Z   4
loop_
 _symmetry_equiv_pos_site_id
 _symmetry_equiv_pos_as_xyz
  1  'x, y, z'
loop_
 _atom_site_type_symbol
 _atom_site_label
 _atom_site_symmetry_multiplicity
 _atom_site_fract_x
 _atom_site_fract_y
 _atom_site_fract_z
 _atom_site_occupancy
  Sn  Sn0  1  0.24720467  0.26846507  0.14745343  1
  Sn  Sn1  1  0.25279533  0.26846507  0.64745343  1
  Sn  Sn2  1  0.74720467  0.73153493  0.35254657  1
  Sn  Sn3  1  0.75279533  0.73153493  0.85254657  1
  P  P0  1  0.27260658  0.82538142  0.69862580  1
  P  P1  1  0.25737893  0.70073767  0.51901247  1
  P  P2  1  0.75737893  0.29926233  0.98098753  1
  P  P3  1  0.77260658  0.17461858  0.80137420  1
  P  P4  1  0.22739342  0.82538142  0.19862580  1
  P  P5  1  0.24262107  0.70073767  0.01901247  1
  P  P6  1  0.74262107  0.29926233  0.48098753  1
  P  P7  1  0.72739342  0.17461858  0.30137420  1
  O  O0  1  0.53301875  0.74018039  0.72640927  1
  O  O1  1  0.22274881  0.83638471  0.57995991  1
  O  O2  1  0.06274063  0.71544343  0.76569844  1
  O  O3  1  0.69415412  0.47347076  0.90286342  1
  O  O4  1  0.53404520  0.71322938  0.48237184  1
  O  O5  1  0.03404520  0.28677062  0.01762816  1
  O  O6  1  0.19415412  0.52652924  0.59713658  1
  O  O7  1  0.57333466  0.23813085  0.07167479  1
  O  O8  1  0.72747757  0.99196885  0.30066400  1
  O  O9  1  0.56274063  0.28455657  0.73430156  1
  O  O10  1  0.72274881  0.16361529  0.92004009  1
  O  O11  1  0.03301875  0.25981961  0.77359073  1
  O  O12  1  0.22747757  0.00803115  0.19933600  1
  O  O13  1  0.07333466  0.76186915  0.42832521  1
  O  O14  1  0.92666534  0.23813085  0.57167479  1
  O  O15  1  0.77252243  0.99196885  0.80066400  1
  O  O16  1  0.96698125  0.74018039  0.22640927  1
  O  O17  1  0.27725119  0.83638471  0.07995991  1
  O  O18  1  0.43725937  0.71544343  0.26569844  1
  O  O19  1  0.27252243  0.00803115  0.69933600  1
  O  O20  1  0.42666534  0.76186915  0.92832521  1
  O  O21  1  0.80584588  0.47347076  0.40286342  1
  O  O22  1  0.96595480  0.71322938  0.98237184  1
  O  O23  1  0.46595480  0.28677062  0.51762816  1
  O  O24  1  0.30584588  0.52652924  0.09713658  1
  O  O25  1  0.93725937  0.28455657  0.23430156  1
  O  O26  1  0.77725119  0.16361529  0.42004009  1
  O  O27  1  0.46698125  0.25981961  0.27359073  1
loop_
_geom_bond_atom_site_label_1
_geom_bond_atom_site_label_2
_geom_bond_distance
_geom_bond_site_symmetry_2
O0 P0 1.517397 1_555
O0 Sn3 2.028069 1_555
O1 P0 1.588685 1_555
O1 P1 1.589725 1_555
O2 P0 1.514731 1_555
O2 Sn3 2.023031 1_455
O3 P2 1.507828 1_555
O3 Sn3 2.022151 1_555
O4 P1 1.517587 1_555
O4 Sn2 2.032510 1_555
O5 P2 1.517587 1_454
O5 Sn0 2.032510 1_555
O6 P1 1.507828 1_555
O6 Sn1 2.022151 1_555
O7 P2 1.503583 1_554
O7 Sn0 2.038774 1_555
O8 P7 1.498811 1_565
O8 Sn2 2.019839 1_555
O9 P3 1.514731 1_555
O9 Sn1 2.023031 1_555
O10 P3 1.588685 1_555
O10 P2 1.589725 1_555
O11 P3 1.517397 1_455
O11 Sn1 2.028069 1_555
O12 P4 1.498811 1_545
O12 Sn0 2.019839 1_555
O13 P1 1.503583 1_555
O13 Sn2 2.038774 1_455
O14 P6 1.503583 1_555
O14 Sn1 2.038774 1_655
O15 P3 1.498811 1_565
O15 Sn3 2.019839 1_555
O16 P4 1.517397 1_655
O16 Sn2 2.028069 1_555
O17 P4 1.588685 1_555
O17 P5 1.589725 1_555
O18 P4 1.514731 1_555
O18 Sn2 2.023031 1_555
O19 P0 1.498811 1_545
O19 Sn1 2.019839 1_555
O20 P5 1.503583 1_556
O20 Sn3 2.038774 1_555
O21 P6 1.507828 1_555
O21 Sn2 2.022151 1_555
O22 P5 1.517587 1_656
O22 Sn3 2.032510 1_555
O23 P6 1.517587 1_555
O23 Sn1 2.032510 1_555
O24 P5 1.507828 1_555
O24 Sn0 2.022151 1_555
O25 P7 1.514731 1_555
O25 Sn0 2.023031 1_655
O26 P7 1.588685 1_555
O26 P6 1.589725 1_555
O27 P7 1.517397 1_555
O27 Sn0 2.028069 1_555
