# generated using pymatgen
data_Li4V4(OF3)3
_symmetry_space_group_name_H-M   'P 1'
_cell_length_a   5.14935139
_cell_length_b   5.57850505
_cell_length_c   9.20919688
_cell_angle_alpha   85.86882682
_cell_angle_beta   74.02262724
_cell_angle_gamma   117.14984980
_symmetry_Int_Tables_number   1
_chemical_formula_structural   Li4V4(OF3)3
_chemical_formula_sum   'Li4 V4 O3 F9'
_cell_volume   220.17633264
_cell_formula_units_Z   1
loop_
 _symmetry_equiv_pos_site_id
 _symmetry_equiv_pos_as_xyz
  1  'x, y, z'
loop_
 _atom_site_type_symbol
 _atom_site_label
 _atom_site_symmetry_multiplicity
 _atom_site_fract_x
 _atom_site_fract_y
 _atom_site_fract_z
 _atom_site_occupancy
  Li  Li0  1  0.32198800  0.77051400  0.14742800  1
  Li  Li1  1  0.76857100  0.99482000  0.40122900  1
  Li  Li2  1  0.29802700  0.20178300  0.63192000  1
  Li  Li3  1  0.77937100  0.48514900  0.90830700  1
  V  V0  1  0.98433000  0.51240400  0.50116300  1
  V  V1  1  0.05861000  0.02711900  0.99757200  1
  V  V2  1  0.51140600  0.27173900  0.25462300  1
  V  V3  1  0.49032100  0.77902500  0.76064700  1
  O  O0  1  0.24019000  0.94356500  0.80950900  1
  O  O1  1  0.39346800  0.18752600  0.06799100  1
  O  O2  1  0.61282900  0.28948600  0.43646700  1
  F  F0  1  0.09976400  0.89736300  0.37107400  1
  F  F1  1  0.26212400  0.47041600  0.29884700  1
  F  F2  1  0.39664500  0.69872500  0.56214100  1
  F  F3  1  0.12196300  0.39210700  0.87206100  1
  F  F4  1  0.91869100  0.63033500  0.11535600  1
  F  F5  1  0.62827800  0.80762300  0.95225900  1
  F  F6  1  0.71776200  0.55810500  0.70855500  1
  F  F7  1  0.73576200  0.03802000  0.19249800  1
  F  F8  1  0.89034200  0.12027400  0.62557200  1
loop_
_geom_bond_atom_site_label_1
_geom_bond_atom_site_label_2
_geom_bond_distance
_geom_bond_site_symmetry_2
Li0 O1 2.215277 1_565
Li1 O2 2.141781 1_565
Li2 O2 1.910495 1_555
Li2 O0 1.959403 1_545
Li3 O1 1.973918 1_556
Li3 O0 2.436463 1_655
O0 V3 1.877068 1_555
O0 V1 1.927068 1_565
O1 V1 1.866959 1_554
O1 V2 1.993522 1_555
O2 V2 1.882857 1_555
O2 V0 2.030775 1_555
F0 Li1 1.971899 1_455
F0 V2 2.095365 1_565
F0 V0 2.114856 1_455
F0 Li0 2.388234 1_555
F1 Li0 1.948884 1_555
F1 V2 2.029189 1_555
F1 V0 2.115162 1_455
F2 Li1 1.946808 1_555
F2 V3 2.044862 1_555
F2 V0 2.151727 1_455
F3 Li3 2.007336 1_455
F3 V3 2.045111 1_555
F3 V1 2.105995 1_555
F4 Li0 1.974931 1_655
F4 V1 2.088891 1_664
F4 V2 2.089442 1_555
F4 Li3 2.291647 1_554
F5 Li0 1.961809 1_556
F5 V3 2.066668 1_555
F5 V1 2.165684 1_665
F5 Li3 2.283457 1_555
F6 Li3 1.995367 1_555
F6 V3 2.052741 1_555
F6 V0 2.131482 1_555
F6 Li2 2.498329 1_555
F7 Li1 1.982635 1_545
F7 V1 2.110683 1_654
F7 V2 2.116647 1_555
F7 Li0 2.147843 1_545
F8 Li2 1.953846 1_655
F8 V3 2.020842 1_545
F8 V0 2.167825 1_555
F8 Li1 2.381682 1_545
