# generated using pymatgen
data_Li24Ti11CrO36
_symmetry_space_group_name_H-M   'P 1'
_cell_length_a   13.47767478
_cell_length_b   13.47767478
_cell_length_c   9.81253174
_cell_angle_alpha   88.16124186
_cell_angle_beta   88.16124186
_cell_angle_gamma   158.17725257
_symmetry_Int_Tables_number   1
_chemical_formula_structural   Li24Ti11CrO36
_chemical_formula_sum   'Li24 Ti11 Cr1 O36'
_cell_volume   653.00305347
_cell_formula_units_Z   1
loop_
 _symmetry_equiv_pos_site_id
 _symmetry_equiv_pos_as_xyz
  1  'x, y, z'
loop_
 _atom_site_type_symbol
 _atom_site_label
 _atom_site_symmetry_multiplicity
 _atom_site_fract_x
 _atom_site_fract_y
 _atom_site_fract_z
 _atom_site_occupancy
  Li  Li0  1  0.72580900  0.78467000  0.24982700  1
  Li  Li1  1  0.66789000  0.83398000  0.74940000  1
  Li  Li2  1  0.21533000  0.27419100  0.75017300  1
  Li  Li3  1  0.41692100  0.58307900  0.50000000  1
  Li  Li4  1  0.61025800  0.88475600  0.25012300  1
  Li  Li5  1  0.16602000  0.33211000  0.25060000  1
  Li  Li6  1  0.91666600  0.08333400  0.00000000  1
  Li  Li7  1  0.11524400  0.38974200  0.74987700  1
  Li  Li8  1  0.55242900  0.94453500  0.75039400  1
  Li  Li9  1  0.05546500  0.44757100  0.24960600  1
  Li  Li10  1  0.49999000  0.99993300  0.24999700  1
  Li  Li11  1  0.24999000  0.75001000  0.00000000  1
  Li  Li12  1  0.00006700  0.50001000  0.75000300  1
  Li  Li13  1  0.75011400  0.24988600  0.50000000  1
  Li  Li14  1  0.94449700  0.55224200  0.25048700  1
  Li  Li15  1  0.44775800  0.05550300  0.74951300  1
  Li  Li16  1  0.88549100  0.61106900  0.75051000  1
  Li  Li17  1  0.08272700  0.91727300  0.50000000  1
  Li  Li18  1  0.38893100  0.11450900  0.24949000  1
  Li  Li19  1  0.83373900  0.66689800  0.24980900  1
  Li  Li20  1  0.58330400  0.41669600  0.00000000  1
  Li  Li21  1  0.78333900  0.72493100  0.74855400  1
  Li  Li22  1  0.33310200  0.16626100  0.75019100  1
  Li  Li23  1  0.27506900  0.21666100  0.25144600  1
  Ti  Ti0  1  0.47259500  0.52740500  0.00000000  1
  Ti  Ti1  1  0.36101200  0.63898800  0.00000000  1
  Ti  Ti2  1  0.30589200  0.69410800  0.50000000  1
  Ti  Ti3  1  0.86118800  0.13881200  0.50000000  1
  Ti  Ti4  1  0.80589700  0.19410300  0.00000000  1
  Ti  Ti5  1  0.19411000  0.80589000  0.50000000  1
  Ti  Ti6  1  0.13919800  0.86080200  0.00000000  1
  Ti  Ti7  1  0.69427200  0.30572800  0.00000000  1
  Ti  Ti8  1  0.63899600  0.36100400  0.50000000  1
  Ti  Ti9  1  0.02757300  0.97242700  0.00000000  1
  Ti  Ti10  1  0.52735600  0.47264400  0.50000000  1
  Cr  Cr0  1  0.97181700  0.02818300  0.50000000  1
  O  O0  1  0.83555100  0.88350400  0.88670100  1
  O  O1  1  0.62452700  0.67332300  0.61164700  1
  O  O2  1  0.11649600  0.16444900  0.11329900  1
  O  O3  1  0.81119500  0.97689600  0.38544900  1
  O  O4  1  0.32667700  0.37547300  0.38835300  1
  O  O5  1  0.52131900  0.68791000  0.11567100  1
  O  O6  1  0.31209000  0.47868100  0.88432900  1
  O  O7  1  0.49785600  0.78290900  0.61367300  1
  O  O8  1  0.02310400  0.18880500  0.61455100  1
  O  O9  1  0.44983000  0.83110100  0.11339300  1
  O  O10  1  0.99788000  0.28310700  0.11341000  1
  O  O11  1  0.21709100  0.50214400  0.38632700  1
  O  O12  1  0.16889900  0.55017000  0.88660700  1
  O  O13  1  0.71689300  0.00212000  0.88659000  1
  O  O14  1  0.95050700  0.33109600  0.61349500  1
  O  O15  1  0.35490000  0.85476700  0.61542000  1
  O  O16  1  0.14523300  0.64510000  0.38458000  1
  O  O17  1  0.66890400  0.04949300  0.38650500  1
  O  O18  1  0.33135000  0.94997000  0.11336400  1
  O  O19  1  0.85471900  0.35464900  0.11555700  1
  O  O20  1  0.64535100  0.14528100  0.88444300  1
  O  O21  1  0.05003000  0.66865000  0.88663600  1
  O  O22  1  0.28329200  0.99794900  0.61328900  1
  O  O23  1  0.83106400  0.44982200  0.61342400  1
  O  O24  1  0.78321500  0.49781600  0.11345800  1
  O  O25  1  0.00205100  0.71670800  0.38671100  1
  O  O26  1  0.55017800  0.16893600  0.38657600  1
  O  O27  1  0.97866000  0.81193300  0.88446500  1
  O  O28  1  0.50218400  0.21678500  0.88654200  1
  O  O29  1  0.68578500  0.51959100  0.61600800  1
  O  O30  1  0.48040900  0.31421500  0.38399200  1
  O  O31  1  0.66463600  0.61673700  0.11362300  1
  O  O32  1  0.18806700  0.02134000  0.11553500  1
  O  O33  1  0.88269400  0.83514800  0.38735800  1
  O  O34  1  0.38326300  0.33536400  0.88637700  1
  O  O35  1  0.16485200  0.11730600  0.61264200  1
loop_
_geom_bond_atom_site_label_1
_geom_bond_atom_site_label_2
_geom_bond_distance
_geom_bond_site_symmetry_2
Li0 O33 2.079936 1_555
Li0 O31 2.094971 1_555
Li0 O3 2.142740 1_555
Li0 O5 2.167768 1_555
Li0 O2 2.187799 1_665
Li0 O4 2.273274 1_555
Li1 O8 2.054176 1_665
Li1 O6 2.056659 1_555
Li1 O1 2.178552 1_555
Li1 O0 2.195342 1_555
Li1 O7 2.196644 1_555
Li1 O13 2.204036 1_565
Li2 O35 2.079936 1_555
Li2 O34 2.094971 1_555
Li2 O8 2.142740 1_555
Li2 O6 2.167768 1_555
Li2 O0 2.187799 1_445
Li2 O1 2.273274 1_555
Li3 O1 2.114753 1_555
Li3 O4 2.114753 1_555
Li3 O11 2.122231 1_555
Li3 O7 2.122231 1_555
Li3 O8 2.130662 1_555
Li3 O3 2.130662 1_555
Li4 O9 2.084099 1_555
Li4 O17 2.084587 1_565
Li4 O5 2.153504 1_555
Li4 O3 2.175323 1_555
Li4 O11 2.196833 1_555
Li4 O10 2.220032 1_565
Li5 O3 2.054176 1_445
Li5 O5 2.056659 1_555
Li5 O4 2.178552 1_555
Li5 O2 2.195342 1_555
Li5 O11 2.196644 1_555
Li5 O10 2.204036 1_455
Li6 O13 2.117673 1_554
Li6 O10 2.117673 1_555
Li6 O0 2.118523 1_544
Li6 O2 2.118523 1_655
Li6 O5 2.140544 1_545
Li6 O6 2.140544 1_654
Li7 O12 2.084099 1_555
Li7 O14 2.084587 1_455
Li7 O6 2.153504 1_555
Li7 O8 2.175323 1_555
Li7 O7 2.196833 1_555
Li7 O13 2.220032 1_455
Li8 O7 2.088559 1_555
Li8 O13 2.089079 1_565
Li8 O15 2.157370 1_555
Li8 O20 2.159108 1_565
Li8 O12 2.201420 1_555
Li8 O14 2.218825 1_565
Li9 O11 2.088559 1_555
Li9 O10 2.089079 1_455
Li9 O16 2.157370 1_555
Li9 O19 2.159108 1_455
Li9 O9 2.201420 1_555
Li9 O17 2.218825 1_455
Li10 O19 2.051015 1_565
Li10 O16 2.051994 1_555
Li10 O18 2.197439 1_555
Li10 O9 2.197561 1_555
Li10 O26 2.198935 1_565
Li10 O17 2.202936 1_565
Li11 O18 2.118175 1_555
Li11 O21 2.118175 1_554
Li11 O9 2.119378 1_555
Li11 O12 2.119378 1_554
Li11 O19 2.139828 1_455
Li11 O20 2.139828 1_564
Li12 O20 2.051015 1_455
Li12 O15 2.051994 1_555
Li12 O21 2.197439 1_555
Li12 O12 2.197561 1_555
Li12 O23 2.198935 1_455
Li12 O14 2.202936 1_455
Li13 O26 2.121833 1_555
Li13 O23 2.121833 1_555
Li13 O14 2.124954 1_555
Li13 O17 2.124954 1_555
Li13 O16 2.138680 1_655
Li13 O15 2.138680 1_545
Li14 O24 2.088404 1_555
Li14 O25 2.089535 1_655
Li14 O19 2.157636 1_555
Li14 O16 2.159784 1_655
Li14 O26 2.200472 1_555
Li14 O18 2.219135 1_655
Li15 O28 2.088404 1_555
Li15 O22 2.089535 1_545
Li15 O20 2.157636 1_555
Li15 O15 2.159784 1_545
Li15 O23 2.200472 1_555
Li15 O21 2.219135 1_545
Li16 O23 2.088435 1_555
Li16 O21 2.089385 1_655
Li16 O27 2.157783 1_555
Li16 O29 2.162773 1_555
Li16 O28 2.200118 1_555
Li16 O22 2.219814 1_655
Li17 O35 2.108184 1_565
Li17 O33 2.108184 1_455
Li17 O22 2.130334 1_555
Li17 O25 2.130334 1_555
Li17 O30 2.150173 1_565
Li17 O29 2.150173 1_455
Li18 O26 2.088435 1_555
Li18 O18 2.089385 1_545
Li18 O32 2.157783 1_555
Li18 O30 2.162773 1_555
Li18 O24 2.200118 1_555
Li18 O25 2.219814 1_545
Li19 O30 2.043019 1_555
Li19 O32 2.048880 1_665
Li19 O24 2.195423 1_555
Li19 O25 2.197072 1_655
Li19 O31 2.197690 1_555
Li19 O33 2.207890 1_555
Li20 O24 2.120271 1_555
Li20 O28 2.120271 1_554
Li20 O31 2.120783 1_555
Li20 O34 2.120783 1_554
Li20 O32 2.139663 1_555
Li20 O27 2.139663 1_554
Li21 O1 2.085720 1_555
Li21 O0 2.086906 1_555
Li21 O29 2.159673 1_555
Li21 O27 2.162847 1_555
Li21 O35 2.191941 1_665
Li21 O34 2.232264 1_555
Li22 O29 2.043019 1_555
Li22 O27 2.048880 1_445
Li22 O28 2.195423 1_555
Li22 O22 2.197072 1_545
Li22 O34 2.197690 1_555
Li22 O35 2.207890 1_555
Li23 O4 2.085720 1_555
Li23 O2 2.086906 1_555
Li23 O30 2.159673 1_555
Li23 O32 2.162847 1_555
Li23 O33 2.191941 1_445
Li23 O31 2.232264 1_555
Cr0 O1 1.937461 1_545
Cr0 O4 1.937461 1_655
Cr0 O3 1.963512 1_545
Cr0 O8 1.963512 1_655
Cr0 O33 1.975020 1_545
Cr0 O35 1.975020 1_655
O0 Ti9 1.970148 1_656
O0 Ti0 1.979395 1_556
O1 Ti10 1.984002 1_555
O2 Ti9 1.970148 1_545
O2 Ti0 1.979395 1_555
O3 Ti3 1.988886 1_565
O4 Ti10 1.984002 1_555
O5 Ti1 1.987836 1_555
O5 Ti0 1.991725 1_555
O6 Ti1 1.987836 1_556
O6 Ti0 1.991725 1_556
O7 Ti2 1.972823 1_555
O7 Ti3 1.981625 1_565
O8 Ti3 1.988886 1_455
O9 Ti1 1.972506 1_555
O9 Ti4 1.979846 1_565
O10 Ti4 1.969780 1_555
O10 Ti1 1.979993 1_655
O11 Ti2 1.972823 1_555
O11 Ti3 1.981625 1_455
O12 Ti1 1.972506 1_556
O12 Ti4 1.979846 1_456
O13 Ti4 1.969780 1_556
O13 Ti1 1.979993 1_546
O14 Ti3 1.970898 1_555
O14 Ti2 1.979273 1_655
O15 Ti2 1.989340 1_555
O15 Ti5 1.991917 1_555
O16 Ti2 1.989340 1_555
O16 Ti5 1.991917 1_555
O17 Ti3 1.970898 1_555
O17 Ti2 1.979273 1_545
O18 Ti6 1.969934 1_555
O18 Ti7 1.979049 1_565
O19 Ti7 1.988661 1_555
O19 Ti4 1.990606 1_555
O20 Ti7 1.988661 1_556
O20 Ti4 1.990606 1_556
O21 Ti6 1.969934 1_556
O21 Ti7 1.979049 1_456
O22 Ti5 1.968401 1_555
O22 Ti8 1.979038 1_565
O23 Ti8 1.972231 1_555
O23 Ti5 1.980091 1_655
O24 Ti7 1.971647 1_555
O24 Ti6 1.979934 1_655
O25 Ti5 1.968401 1_555
O25 Ti8 1.979038 1_455
O26 Ti8 1.972231 1_555
O26 Ti5 1.980091 1_545
O27 Ti9 1.989104 1_656
O27 Ti6 1.989969 1_656
O28 Ti7 1.971647 1_556
O28 Ti6 1.979934 1_546
O29 Ti10 1.987260 1_555
O29 Ti8 1.990367 1_555
O30 Ti10 1.987260 1_555
O30 Ti8 1.990367 1_555
O31 Ti0 1.969075 1_555
O31 Ti9 1.980020 1_655
O32 Ti9 1.989104 1_545
O32 Ti6 1.989969 1_545
O33 Ti10 1.974410 1_555
O34 Ti0 1.969075 1_556
O34 Ti9 1.980020 1_546
O35 Ti10 1.974410 1_555
