# generated using pymatgen
data_Na3NiAsCO7
_symmetry_space_group_name_H-M   'P 1'
_cell_length_a   5.25389631
_cell_length_b   9.07819885
_cell_length_c   13.70156301
_cell_angle_alpha   89.99798581
_cell_angle_beta   90.00235425
_cell_angle_gamma   88.91455329
_symmetry_Int_Tables_number   1
_chemical_formula_structural   Na3NiAsCO7
_chemical_formula_sum   'Na12 Ni4 As4 C4 O28'
_cell_volume   653.39132212
_cell_formula_units_Z   4
loop_
 _symmetry_equiv_pos_site_id
 _symmetry_equiv_pos_as_xyz
  1  'x, y, z'
loop_
 _atom_site_type_symbol
 _atom_site_label
 _atom_site_symmetry_multiplicity
 _atom_site_fract_x
 _atom_site_fract_y
 _atom_site_fract_z
 _atom_site_occupancy
  Na  Na0  1  0.76471000  0.07972700  0.12501500  1
  Na  Na1  1  0.76475300  0.07967300  0.62500100  1
  Na  Na2  1  0.23529300  0.92029400  0.37499100  1
  Na  Na3  1  0.23525300  0.92032200  0.87499700  1
  Na  Na4  1  0.25004000  0.26020800  0.00254500  1
  Na  Na5  1  0.25013100  0.26015000  0.50254000  1
  Na  Na6  1  0.25007100  0.26022100  0.24746800  1
  Na  Na7  1  0.25005800  0.26015700  0.74745900  1
  Na  Na8  1  0.74993100  0.73980000  0.25253500  1
  Na  Na9  1  0.74994200  0.73985000  0.75253800  1
  Na  Na10  1  0.74995600  0.73982800  0.49746300  1
  Na  Na11  1  0.74987000  0.73984800  0.99746200  1
  Ni  Ni0  1  0.78460500  0.34227900  0.87486200  1
  Ni  Ni1  1  0.21537300  0.65763700  0.62514000  1
  Ni  Ni2  1  0.78468500  0.34236200  0.37504500  1
  Ni  Ni3  1  0.21533100  0.65763100  0.12493000  1
  As  As0  1  0.70457900  0.41778900  0.12498600  1
  As  As1  1  0.70459600  0.41777800  0.62500100  1
  As  As2  1  0.29543300  0.58222200  0.37501400  1
  As  As3  1  0.29539400  0.58221000  0.87499300  1
  C  C0  1  0.72403200  0.06074600  0.37502100  1
  C  C1  1  0.72397000  0.06073500  0.87498600  1
  C  C2  1  0.27597100  0.93927000  0.12498300  1
  C  C3  1  0.27602700  0.93925000  0.62501500  1
  O  O0  1  0.29354300  0.08120100  0.12501100  1
  O  O1  1  0.29353600  0.08117700  0.62499900  1
  O  O2  1  0.70645800  0.91882200  0.37498800  1
  O  O3  1  0.70643700  0.91881600  0.87500900  1
  O  O4  1  0.94636800  0.12252100  0.37504100  1
  O  O5  1  0.94629000  0.12252600  0.87498000  1
  O  O6  1  0.05363600  0.87749700  0.12496300  1
  O  O7  1  0.05371700  0.87745100  0.62501600  1
  O  O8  1  0.52151500  0.14589300  0.37501600  1
  O  O9  1  0.52144100  0.14588000  0.87496500  1
  O  O10  1  0.47848600  0.85412800  0.12498900  1
  O  O11  1  0.47857200  0.85412300  0.62503200  1
  O  O12  1  0.37831400  0.44949400  0.12500100  1
  O  O13  1  0.37833900  0.44946000  0.62504300  1
  O  O14  1  0.62170000  0.55052200  0.37500500  1
  O  O15  1  0.62163600  0.55049600  0.87495600  1
  O  O16  1  0.15091700  0.41502900  0.37503000  1
  O  O17  1  0.15083800  0.41504200  0.87498800  1
  O  O18  1  0.84909400  0.58497800  0.12497400  1
  O  O19  1  0.84911600  0.58495800  0.62501300  1
  O  O20  1  0.78217300  0.30683800  0.02657300  1
  O  O21  1  0.78227700  0.30679200  0.52661300  1
  O  O22  1  0.78237900  0.30683700  0.22339000  1
  O  O23  1  0.78242100  0.30676400  0.72337800  1
  O  O24  1  0.21762800  0.69318200  0.27661500  1
  O  O25  1  0.21759000  0.69321500  0.77661000  1
  O  O26  1  0.21782100  0.69316000  0.47343100  1
  O  O27  1  0.21774900  0.69321100  0.97338400  1
loop_
_geom_bond_atom_site_label_1
_geom_bond_atom_site_label_2
_geom_bond_distance
_geom_bond_site_symmetry_2
Na0 O6 2.359909 1_645
Na0 O22 2.466511 1_555
Na0 O20 2.466888 1_555
Na0 O0 2.475245 1_555
Na0 O10 2.563691 1_545
Na0 O0 2.778719 1_655
Na1 O7 2.359979 1_645
Na1 O23 2.466381 1_555
Na1 O21 2.466561 1_555
Na1 O1 2.475504 1_555
Na1 O11 2.563195 1_545
Na1 O1 2.778463 1_655
Na2 O4 2.359885 1_465
Na2 O24 2.466533 1_555
Na2 O26 2.467050 1_555
Na2 O2 2.475235 1_555
Na2 O8 2.563684 1_565
Na2 O2 2.778730 1_455
Na3 O5 2.359850 1_465
Na3 O27 2.466487 1_555
Na3 O25 2.466576 1_555
Na3 O3 2.475331 1_555
Na3 O9 2.563276 1_565
Na3 O3 2.778637 1_455
Na4 O17 2.296509 1_554
Na4 O0 2.344007 1_555
Na4 O9 2.471917 1_554
Na4 O12 2.503225 1_555
Na4 O20 2.508109 1_455
Na4 O5 2.690633 1_454
Na4 O20 2.854592 1_555
Na5 O16 2.296281 1_555
Na5 O1 2.343682 1_555
Na5 O8 2.471060 1_555
Na5 O13 2.503710 1_555
Na5 O21 2.508140 1_455
Na5 O4 2.689858 1_455
Na5 O21 2.854748 1_555
Na6 O16 2.296471 1_555
Na6 O0 2.344082 1_555
Na6 O8 2.471601 1_555
Na6 O12 2.503155 1_555
Na6 O22 2.507252 1_455
Na6 O4 2.690662 1_455
Na6 O22 2.855576 1_555
Na7 O17 2.296627 1_555
Na7 O1 2.343863 1_555
Na7 O9 2.470822 1_555
Na7 O13 2.502931 1_555
Na7 O23 2.506963 1_455
Na7 O5 2.690106 1_455
Na7 O23 2.855851 1_555
Na8 O18 2.296548 1_555
Na8 O2 2.344056 1_555
Na8 O10 2.471584 1_555
Na8 O14 2.503196 1_555
Na8 O24 2.507284 1_655
Na8 O6 2.690646 1_655
Na8 O24 2.855556 1_555
Na9 O19 2.296572 1_555
Na9 O3 2.343895 1_555
Na9 O11 2.470768 1_555
Na9 O15 2.503307 1_555
Na9 O25 2.507041 1_655
Na9 O7 2.690008 1_655
Na9 O25 2.855822 1_555
Na10 O19 2.296587 1_555
Na10 O2 2.344012 1_555
Na10 O11 2.471637 1_555
Na10 O14 2.503343 1_555
Na10 O26 2.508158 1_655
Na10 O7 2.690306 1_655
Na10 O26 2.854666 1_555
Na11 O18 2.296263 1_556
Na11 O3 2.343604 1_555
Na11 O10 2.471174 1_556
Na11 O15 2.504040 1_555
Na11 O27 2.508271 1_655
Na11 O6 2.689972 1_656
Na11 O27 2.854620 1_555
Ni0 O17 2.046179 1_655
Ni0 O15 2.060289 1_555
Ni0 O23 2.100535 1_555
Ni0 O20 2.103495 1_556
Ni0 O5 2.153434 1_555
Ni0 O9 2.276838 1_555
Ni1 O19 2.046038 1_455
Ni1 O13 2.059952 1_555
Ni1 O25 2.100435 1_555
Ni1 O26 2.103583 1_555
Ni1 O7 2.153885 1_555
Ni1 O11 2.277580 1_555
Ni2 O16 2.045876 1_655
Ni2 O14 2.059851 1_555
Ni2 O21 2.101738 1_555
Ni2 O22 2.102870 1_555
Ni2 O4 2.154163 1_555
Ni2 O8 2.277362 1_555
Ni3 O18 2.045858 1_455
Ni3 O12 2.059657 1_555
Ni3 O27 2.101454 1_554
Ni3 O24 2.103312 1_555
Ni3 O6 2.154396 1_555
Ni3 O10 2.277515 1_555
As0 O18 1.709909 1_555
As0 O20 1.727286 1_555
As0 O22 1.727357 1_555
As0 O12 1.732773 1_555
As1 O19 1.709848 1_555
As1 O21 1.727305 1_555
As1 O23 1.727424 1_555
As1 O13 1.732701 1_555
As2 O16 1.709944 1_555
As2 O26 1.727282 1_555
As2 O24 1.727352 1_555
As2 O14 1.732777 1_555
As3 O17 1.709837 1_555
As3 O27 1.727374 1_555
As3 O25 1.727416 1_555
As3 O15 1.732666 1_555
C0 O2 1.293462 1_545
C0 O8 1.303243 1_555
C0 O4 1.305316 1_555
C1 O3 1.293397 1_545
C1 O9 1.303284 1_555
C1 O5 1.305305 1_555
C2 O0 1.293524 1_565
C2 O10 1.303209 1_555
C2 O6 1.305304 1_555
C3 O1 1.293458 1_565
C3 O11 1.303257 1_555
C3 O7 1.305290 1_555
