# generated using pymatgen
data_Li3Fe5O12
_symmetry_space_group_name_H-M   'P 1'
_cell_length_a   5.02471200
_cell_length_b   5.02920532
_cell_length_c   20.16561384
_cell_angle_alpha   88.03605746
_cell_angle_beta   94.30956210
_cell_angle_gamma   119.92909772
_symmetry_Int_Tables_number   1
_chemical_formula_structural   Li3Fe5O12
_chemical_formula_sum   'Li6 Fe10 O24'
_cell_volume   440.38222682
_cell_formula_units_Z   2
loop_
 _symmetry_equiv_pos_site_id
 _symmetry_equiv_pos_as_xyz
  1  'x, y, z'
loop_
 _atom_site_type_symbol
 _atom_site_label
 _atom_site_symmetry_multiplicity
 _atom_site_fract_x
 _atom_site_fract_y
 _atom_site_fract_z
 _atom_site_occupancy
  Li  Li0  1  0.65663900  0.81631800  0.49825700  1
  Li  Li1  1  0.62336000  0.49776500  0.37504900  1
  Li  Li2  1  0.89582800  0.81160000  0.25233300  1
  Li  Li3  1  0.48760300  0.50387700  0.99838500  1
  Li  Li4  1  0.12129100  0.50058900  0.87516400  1
  Li  Li5  1  0.40703800  0.82031000  0.75191200  1
  Fe  Fe0  1  0.53718200  0.82968100  0.12498300  1
  Fe  Fe1  1  0.87111000  0.49605400  0.12489000  1
  Fe  Fe2  1  0.20442100  0.16262900  0.12538200  1
  Fe  Fe3  1  0.29445500  0.84009100  0.37483500  1
  Fe  Fe4  1  0.96396900  0.17923000  0.37494300  1
  Fe  Fe5  1  0.03972600  0.82933900  0.62501400  1
  Fe  Fe6  1  0.37308700  0.49537400  0.62498400  1
  Fe  Fe7  1  0.70620900  0.16253300  0.62499400  1
  Fe  Fe8  1  0.80325900  0.84146900  0.87495500  1
  Fe  Fe9  1  0.46296400  0.17165200  0.87488700  1
  O  O0  1  0.20412700  0.80895200  0.17527100  1
  O  O1  1  0.54217000  0.17667800  0.07493300  1
  O  O2  1  0.20456000  0.51579000  0.07433300  1
  O  O3  1  0.64456500  0.13447500  0.42632400  1
  O  O4  1  0.69996600  0.82953000  0.67595600  1
  O  O5  1  0.62013000  0.87767600  0.32455600  1
  O  O6  1  0.97464400  0.51485600  0.32523600  1
  O  O7  1  0.00905900  0.16747400  0.57480700  1
  O  O8  1  0.67031100  0.49039100  0.57442300  1
  O  O9  1  0.57582700  0.51952500  0.17619600  1
  O  O10  1  0.86540000  0.14881500  0.17503300  1
  O  O11  1  0.15515800  0.15124800  0.92516800  1
  O  O12  1  0.29016000  0.51706500  0.42458400  1
  O  O13  1  0.12417900  0.86816300  0.82483300  1
  O  O14  1  0.00623700  0.87855800  0.42534200  1
  O  O15  1  0.83317700  0.80685300  0.07403600  1
  O  O16  1  0.48501200  0.51296100  0.82485200  1
  O  O17  1  0.23747200  0.13297900  0.32331300  1
  O  O18  1  0.07105100  0.49161600  0.67563600  1
  O  O19  1  0.40938000  0.16867600  0.67525200  1
  O  O20  1  0.77401000  0.50635100  0.92619800  1
  O  O21  1  0.51672300  0.86836800  0.92525200  1
  O  O22  1  0.37916900  0.82819800  0.57411300  1
  O  O23  1  0.74191800  0.13097600  0.82367700  1
loop_
_geom_bond_atom_site_label_1
_geom_bond_atom_site_label_2
_geom_bond_distance
_geom_bond_site_symmetry_2
Li0 O3 2.143045 1_565
Li0 O22 2.167307 1_555
Li0 O12 2.199958 1_555
Li0 O8 2.230378 1_555
Li0 O14 2.270175 1_655
Li0 O7 2.300654 1_665
Li1 O12 2.056803 1_555
Li1 O6 2.059411 1_555
Li1 O3 2.113493 1_555
Li1 O17 2.119281 1_555
Li1 O14 2.135597 1_655
Li1 O5 2.140734 1_555
Li2 O9 2.127701 1_555
Li2 O17 2.151440 1_665
Li2 O6 2.212968 1_555
Li2 O5 2.224054 1_555
Li2 O0 2.280056 1_655
Li2 O10 2.317567 1_565
Li3 O20 2.118014 1_555
Li3 O15 2.187517 1_556
Li3 O2 2.188733 1_556
Li3 O11 2.228934 1_555
Li3 O21 2.266299 1_555
Li3 O1 2.319124 1_556
Li4 O11 2.069685 1_555
Li4 O13 2.072325 1_555
Li4 O20 2.104122 1_455
Li4 O23 2.113316 1_455
Li4 O16 2.129366 1_555
Li4 O21 2.132715 1_555
Li5 O23 2.128958 1_565
Li5 O4 2.186443 1_555
Li5 O13 2.218109 1_555
Li5 O18 2.224391 1_555
Li5 O16 2.251247 1_555
Li5 O19 2.292591 1_565
Fe0 O10 1.879924 1_565
Fe0 O2 1.884102 1_555
Fe0 O15 1.920633 1_555
Fe0 O9 1.923290 1_555
Fe0 O1 1.975896 1_565
Fe0 O0 1.978278 1_555
Fe1 O0 1.880166 1_655
Fe1 O1 1.881009 1_555
Fe1 O15 1.920735 1_555
Fe1 O9 1.923436 1_555
Fe1 O10 1.976436 1_555
Fe1 O2 1.985036 1_655
Fe2 O10 2.010632 1_455
Fe2 O0 2.012684 1_545
Fe2 O1 2.013699 1_555
Fe2 O2 2.021852 1_555
Fe2 O9 2.061697 1_555
Fe2 O15 2.063843 1_445
Fe3 O12 1.871546 1_555
Fe3 O6 1.872400 1_455
Fe3 O3 1.896498 1_565
Fe3 O17 1.897999 1_565
Fe3 O5 1.915511 1_555
Fe3 O14 1.920117 1_555
Fe4 O5 1.882706 1_545
Fe4 O14 1.883425 1_645
Fe4 O3 1.890355 1_555
Fe4 O17 1.891387 1_655
Fe4 O6 1.912723 1_555
Fe4 O12 1.914786 1_655
Fe5 O7 2.015119 1_565
Fe5 O19 2.015294 1_565
Fe5 O8 2.017254 1_455
Fe5 O18 2.018777 1_555
Fe5 O4 2.057935 1_455
Fe5 O22 2.058155 1_555
Fe6 O8 1.881113 1_555
Fe6 O18 1.884130 1_555
Fe6 O4 1.920629 1_555
Fe6 O22 1.921200 1_555
Fe6 O7 1.978718 1_555
Fe6 O19 1.979245 1_555
Fe7 O19 1.878276 1_555
Fe7 O7 1.879506 1_655
Fe7 O22 1.920437 1_545
Fe7 O4 1.922582 1_545
Fe7 O8 1.986242 1_555
Fe7 O18 1.987381 1_655
Fe8 O16 1.882238 1_555
Fe8 O21 1.882335 1_555
Fe8 O23 1.892322 1_565
Fe8 O20 1.893724 1_555
Fe8 O13 1.912984 1_655
Fe8 O11 1.915516 1_665
Fe9 O11 1.871066 1_555
Fe9 O13 1.871085 1_545
Fe9 O23 1.895014 1_555
Fe9 O20 1.896816 1_555
Fe9 O16 1.919656 1_555
Fe9 O21 1.922156 1_545
