# generated using pymatgen
data_CaDyMnSnO6
_symmetry_space_group_name_H-M   'P 1'
_cell_length_a   5.82848700
_cell_length_b   5.46114200
_cell_length_c   9.42017951
_cell_angle_alpha   54.95395916
_cell_angle_beta   90.00000000
_cell_angle_gamma   90.00000000
_symmetry_Int_Tables_number   1
_chemical_formula_structural   CaDyMnSnO6
_chemical_formula_sum   'Ca2 Dy2 Mn2 Sn2 O12'
_cell_volume   245.48130851
_cell_formula_units_Z   2
loop_
 _symmetry_equiv_pos_site_id
 _symmetry_equiv_pos_as_xyz
  1  'x, y, z'
loop_
 _atom_site_type_symbol
 _atom_site_label
 _atom_site_symmetry_multiplicity
 _atom_site_fract_x
 _atom_site_fract_y
 _atom_site_fract_z
 _atom_site_occupancy
  Ca  Ca0  1  0.80858700  0.23588900  0.25144400  1
  Ca  Ca1  1  0.19141300  0.23588900  0.75144400  1
  Dy  Dy0  1  0.32700500  0.77348300  0.24747400  1
  Dy  Dy1  1  0.67299500  0.77348300  0.74747400  1
  Mn  Mn0  1  0.75387300  0.50329500  0.50018400  1
  Mn  Mn1  1  0.24612700  0.50329500  0.00018400  1
  Sn  Sn0  1  0.23943300  0.00129600  0.50044600  1
  Sn  Sn1  1  0.76056700  0.00129600  0.00044600  1
  O  O0  1  0.79220500  0.38248000  0.74182700  1
  O  O1  1  0.07037000  0.13698800  0.05488000  1
  O  O2  1  0.07225000  0.75266900  0.43681800  1
  O  O3  1  0.55216200  0.84378800  0.44910500  1
  O  O4  1  0.55728200  0.23317900  0.05857600  1
  O  O5  1  0.29315500  0.63693200  0.75924500  1
  O  O6  1  0.20779500  0.38248000  0.24182700  1
  O  O7  1  0.92775000  0.75266900  0.93681800  1
  O  O8  1  0.92963000  0.13698800  0.55488000  1
  O  O9  1  0.44271800  0.23317900  0.55857600  1
  O  O10  1  0.44783800  0.84378800  0.94910500  1
  O  O11  1  0.70684500  0.63693200  0.25924500  1
loop_
_geom_bond_atom_site_label_1
_geom_bond_atom_site_label_2
_geom_bond_distance
_geom_bond_site_symmetry_2
Ca0 O11 2.310555 1_555
Ca0 O4 2.340401 1_555
Ca0 O3 2.388918 1_545
Ca0 O6 2.445343 1_655
Ca0 O2 2.661308 1_645
Ca0 O8 2.680846 1_555
Ca0 O1 2.682732 1_655
Ca0 O7 2.761363 1_554
Ca1 O5 2.310555 1_555
Ca1 O9 2.340401 1_555
Ca1 O10 2.388918 1_545
Ca1 O0 2.445343 1_455
Ca1 O7 2.661308 1_445
Ca1 O1 2.680846 1_556
Ca1 O8 2.682732 1_455
Ca1 O2 2.761363 1_555
Dy0 O2 2.272936 1_555
Dy0 O6 2.275007 1_555
Dy0 O1 2.309432 1_565
Dy0 O11 2.318352 1_555
Dy0 O4 2.477861 1_565
Dy0 O3 2.512941 1_555
Dy0 O10 2.702595 1_554
Dy0 O9 2.796204 1_555
Dy1 O7 2.272936 1_555
Dy1 O0 2.275007 1_555
Dy1 O8 2.309432 1_565
Dy1 O5 2.318352 1_555
Dy1 O9 2.477861 1_565
Dy1 O10 2.512941 1_555
Dy1 O3 2.702595 1_555
Dy1 O4 2.796204 1_556
Mn0 O11 1.963891 1_555
Mn0 O0 1.985446 1_555
Mn0 O3 2.010926 1_555
Mn0 O8 2.032961 1_555
Mn0 O2 2.172748 1_655
Mn0 O9 2.199030 1_555
Mn1 O5 1.963891 1_554
Mn1 O6 1.985446 1_555
Mn1 O10 2.010926 1_554
Mn1 O1 2.032961 1_555
Mn1 O7 2.172748 1_454
Mn1 O4 2.199030 1_555
O0 Sn1 2.116188 1_556
O1 Sn1 2.123432 1_455
O2 Sn0 2.021639 1_565
O3 Sn0 2.184939 1_565
O4 Sn1 2.025771 1_555
O5 Sn0 2.104684 1_565
O6 Sn0 2.116188 1_555
O7 Sn1 2.021639 1_566
O8 Sn0 2.123432 1_655
O9 Sn0 2.025771 1_555
O10 Sn1 2.184939 1_566
O11 Sn1 2.104684 1_565
