# generated using pymatgen
data_K2H2OsCCl5O2
_symmetry_space_group_name_H-M   'P 1'
_cell_length_a   7.21945600
_cell_length_b   13.81117900
_cell_length_c   22.47010323
_cell_angle_alpha   81.22320218
_cell_angle_beta   90.00000000
_cell_angle_gamma   90.00000000
_symmetry_Int_Tables_number   1
_chemical_formula_structural   K2H2OsCCl5O2
_chemical_formula_sum   'K16 H16 Os8 C8 Cl40 O16'
_cell_volume   2214.24058904
_cell_formula_units_Z   8
loop_
 _symmetry_equiv_pos_site_id
 _symmetry_equiv_pos_as_xyz
  1  'x, y, z'
loop_
 _atom_site_type_symbol
 _atom_site_label
 _atom_site_symmetry_multiplicity
 _atom_site_fract_x
 _atom_site_fract_y
 _atom_site_fract_z
 _atom_site_occupancy
  K  K0  1  0.59360400  0.86020300  0.79201500  1
  K  K1  1  0.87939400  0.84807900  0.50393900  1
  K  K2  1  0.90639600  0.86020300  0.29201500  1
  K  K3  1  0.08783000  0.67828400  0.78381300  1
  K  K4  1  0.62060600  0.84807900  0.00393900  1
  K  K5  1  0.35509200  0.64330900  0.50856600  1
  K  K6  1  0.41217000  0.67828400  0.28381300  1
  K  K7  1  0.14490800  0.64330900  0.00856600  1
  K  K8  1  0.85509200  0.35669100  0.99143400  1
  K  K9  1  0.58783000  0.32171600  0.71618700  1
  K  K10  1  0.64490800  0.35669100  0.49143400  1
  K  K11  1  0.37939400  0.15192100  0.99606100  1
  K  K12  1  0.91217000  0.32171600  0.21618700  1
  K  K13  1  0.09360400  0.13979700  0.70798500  1
  K  K14  1  0.12060600  0.15192100  0.49606100  1
  K  K15  1  0.40639600  0.13979700  0.20798500  1
  H  H0  1  0.90852400  0.86144100  0.69632400  1
  H  H1  1  0.78514400  0.77325300  0.68687700  1
  H  H2  1  0.59147600  0.86144100  0.19632400  1
  H  H3  1  0.42908900  0.72552900  0.69432900  1
  H  H4  1  0.50530300  0.64906200  0.74513900  1
  H  H5  1  0.71485600  0.77325300  0.18687700  1
  H  H6  1  0.07091100  0.72552900  0.19432900  1
  H  H7  1  0.99469700  0.64906200  0.24513900  1
  H  H8  1  0.00530300  0.35093800  0.75486100  1
  H  H9  1  0.92908900  0.27447100  0.80567100  1
  H  H10  1  0.28514400  0.22674700  0.81312300  1
  H  H11  1  0.49469700  0.35093800  0.25486100  1
  H  H12  1  0.57091100  0.27447100  0.30567100  1
  H  H13  1  0.40852400  0.13855900  0.80367600  1
  H  H14  1  0.21485600  0.22674700  0.31312300  1
  H  H15  1  0.09147600  0.13855900  0.30367600  1
  Os  Os0  1  0.15875400  0.91701400  0.88962400  1
  Os  Os1  1  0.34124600  0.91701400  0.38962400  1
  Os  Os2  1  0.84038200  0.57460900  0.61285500  1
  Os  Os3  1  0.34038200  0.42539100  0.88714500  1
  Os  Os4  1  0.65961800  0.57460900  0.11285500  1
  Os  Os5  1  0.15961800  0.42539100  0.38714500  1
  Os  Os6  1  0.65875400  0.08298600  0.61037600  1
  Os  Os7  1  0.84124600  0.08298600  0.11037600  1
  C  C0  1  0.50562000  0.97527400  0.62397700  1
  C  C1  1  0.99438000  0.97527400  0.12397700  1
  C  C2  1  0.50360000  0.52857000  0.87488400  1
  C  C3  1  0.00360000  0.47143000  0.62511600  1
  C  C4  1  0.99640000  0.52857000  0.37488400  1
  C  C5  1  0.49640000  0.47143000  0.12511600  1
  C  C6  1  0.00562000  0.02472600  0.87602300  1
  C  C7  1  0.49438000  0.02472600  0.37602300  1
  Cl  Cl0  1  0.16637500  0.90114000  0.99561400  1
  Cl  Cl1  1  0.94292400  0.99131400  0.61201600  1
  Cl  Cl2  1  0.17462200  0.92251800  0.78259800  1
  Cl  Cl3  1  0.90155000  0.80781200  0.89481100  1
  Cl  Cl4  1  0.33362500  0.90114000  0.49561400  1
  Cl  Cl5  1  0.55707600  0.99131400  0.11201600  1
  Cl  Cl6  1  0.32537800  0.92251800  0.28259800  1
  Cl  Cl7  1  0.35621100  0.76733000  0.89976500  1
  Cl  Cl8  1  0.59845000  0.80781200  0.39481100  1
  Cl  Cl9  1  0.63013900  0.72152600  0.60291500  1
  Cl  Cl10  1  0.14378900  0.76733000  0.39976500  1
  Cl  Cl11  1  0.08879100  0.68581700  0.61990000  1
  Cl  Cl12  1  0.86986100  0.72152600  0.10291500  1
  Cl  Cl13  1  0.06917100  0.52129800  0.89915700  1
  Cl  Cl14  1  0.86262700  0.60605300  0.50665300  1
  Cl  Cl15  1  0.78560900  0.55143000  0.71903400  1
  Cl  Cl16  1  0.41120900  0.68581700  0.11990000  1
  Cl  Cl17  1  0.28560900  0.44857000  0.78096600  1
  Cl  Cl18  1  0.36262700  0.39394700  0.99334700  1
  Cl  Cl19  1  0.56917100  0.47870200  0.60084300  1
  Cl  Cl20  1  0.43082900  0.52129800  0.39915700  1
  Cl  Cl21  1  0.63737300  0.60605300  0.00665300  1
  Cl  Cl22  1  0.71439100  0.55143000  0.21903400  1
  Cl  Cl23  1  0.58879100  0.31418300  0.88010000  1
  Cl  Cl24  1  0.21439100  0.44857000  0.28096600  1
  Cl  Cl25  1  0.13737300  0.39394700  0.49334700  1
  Cl  Cl26  1  0.93082900  0.47870200  0.10084300  1
  Cl  Cl27  1  0.13013900  0.27847400  0.89708500  1
  Cl  Cl28  1  0.91120900  0.31418300  0.38010000  1
  Cl  Cl29  1  0.85621100  0.23267000  0.60023500  1
  Cl  Cl30  1  0.36986100  0.27847400  0.39708500  1
  Cl  Cl31  1  0.40155000  0.19218800  0.60518900  1
  Cl  Cl32  1  0.64378900  0.23267000  0.10023500  1
  Cl  Cl33  1  0.67462200  0.07748200  0.71740200  1
  Cl  Cl34  1  0.44292400  0.00868600  0.88798400  1
  Cl  Cl35  1  0.66637500  0.09886000  0.50438600  1
  Cl  Cl36  1  0.09845000  0.19218800  0.10518900  1
  Cl  Cl37  1  0.82537800  0.07748200  0.21740200  1
  Cl  Cl38  1  0.05707600  0.00868600  0.38798400  1
  Cl  Cl39  1  0.83362500  0.09886000  0.00438600  1
  O  O0  1  0.40383500  0.90982200  0.63830700  1
  O  O1  1  0.84454400  0.80453200  0.71846700  1
  O  O2  1  0.09616500  0.90982200  0.13830700  1
  O  O3  1  0.43094000  0.70908900  0.73833300  1
  O  O4  1  0.65545600  0.80453200  0.21846700  1
  O  O5  1  0.61268800  0.59119200  0.86215600  1
  O  O6  1  0.06906000  0.70908900  0.23833300  1
  O  O7  1  0.88731200  0.59119200  0.36215600  1
  O  O8  1  0.11268800  0.40880800  0.63784400  1
  O  O9  1  0.93094000  0.29091100  0.76166700  1
  O  O10  1  0.38731200  0.40880800  0.13784400  1
  O  O11  1  0.34454400  0.19546800  0.78153300  1
  O  O12  1  0.56906000  0.29091100  0.26166700  1
  O  O13  1  0.90383500  0.09017800  0.86169300  1
  O  O14  1  0.15545600  0.19546800  0.28153300  1
  O  O15  1  0.59616500  0.09017800  0.36169300  1
loop_
_geom_bond_atom_site_label_1
_geom_bond_atom_site_label_2
_geom_bond_distance
_geom_bond_site_symmetry_2
K0 O1 2.644281 1_555
K0 O3 2.821028 1_555
K2 O4 2.644281 1_555
K2 O6 2.821028 1_655
K3 O3 2.688597 1_555
K3 O1 2.738587 1_455
K6 O6 2.688597 1_555
K6 O4 2.738587 1_555
K9 O9 2.688597 1_555
K9 O11 2.738587 1_555
K12 O12 2.688597 1_555
K12 O14 2.738587 1_655
K13 O11 2.644281 1_555
K13 O9 2.821028 1_455
K15 O14 2.644281 1_555
K15 O12 2.821028 1_555
H0 O1 0.979457 1_555
H1 O1 0.983851 1_555
H2 O4 0.979457 1_555
H3 O3 0.980252 1_555
H4 O3 0.979913 1_555
H5 O4 0.983851 1_555
H6 O6 0.980252 1_555
H7 O6 0.979913 1_655
H8 O9 0.979913 1_455
H9 O9 0.980252 1_555
H10 O11 0.983851 1_555
H11 O12 0.979913 1_555
H12 O12 0.980252 1_555
H13 O11 0.979457 1_555
H14 O14 0.983851 1_555
H15 O14 0.979457 1_555
C0 O0 1.171321 1_555
C0 Os6 1.841175 1_565
C1 O2 1.171321 1_655
C1 Os7 1.841175 1_565
C2 O5 1.172424 1_555
C2 Os3 1.837194 1_555
C3 O8 1.172424 1_555
C3 Os2 1.837194 1_455
C4 O7 1.172424 1_555
C4 Os5 1.837194 1_655
C5 O10 1.172424 1_555
C5 Os4 1.837194 1_555
C6 O13 1.171321 1_455
C6 Os0 1.841175 1_545
C7 O15 1.171321 1_555
C7 Os1 1.841175 1_545
Cl0 Os0 2.358771 1_555
Cl0 K4 3.359169 1_556
Cl0 K7 3.531688 1_556
Cl1 Os6 2.408110 1_565
Cl1 K13 3.374699 1_665
Cl1 K1 3.389325 1_555
Cl1 K14 3.404524 1_665
Cl2 Os0 2.397204 1_555
Cl2 K0 3.143160 1_555
Cl2 K13 3.259277 1_565
Cl2 K3 3.426874 1_555
Cl3 Os0 2.383822 1_655
Cl3 K0 3.208036 1_555
Cl3 K4 3.294265 1_556
Cl3 K3 3.548412 1_655
Cl3 K7 3.606934 1_656
Cl4 Os1 2.358771 1_555
Cl4 K1 3.359169 1_455
Cl4 K5 3.531688 1_555
Cl5 Os7 2.408110 1_565
Cl5 K15 3.374699 1_565
Cl5 K4 3.389325 1_555
Cl5 K11 3.404524 1_564
Cl6 Os1 2.397204 1_555
Cl6 K2 3.143160 1_455
Cl6 K15 3.259277 1_565
Cl6 K6 3.426874 1_555
Cl7 Os0 2.492807 1_555
Cl7 K0 3.081689 1_555
Cl7 K7 3.155953 1_556
Cl7 K4 3.341144 1_556
Cl7 K3 3.610108 1_555
Cl8 Os1 2.383822 1_555
Cl8 K2 3.208036 1_555
Cl8 K1 3.294265 1_555
Cl8 K6 3.548412 1_555
Cl8 K5 3.606934 1_555
Cl9 Os2 2.516477 1_555
Cl9 K1 3.170651 1_555
Cl9 K5 3.209888 1_555
Cl10 Os1 2.492807 1_555
Cl10 K2 3.081689 1_455
Cl10 K5 3.155953 1_555
Cl10 K1 3.341144 1_455
Cl10 K6 3.610108 1_555
Cl11 Os2 2.382119 1_455
Cl11 K5 3.278338 1_555
Cl11 K1 3.509272 1_455
Cl11 K3 3.668715 1_555
Cl12 Os4 2.516477 1_555
Cl12 K4 3.170651 1_555
Cl12 K7 3.209888 1_655
Cl13 Os3 2.402132 1_555
Cl13 K3 3.117943 1_555
Cl13 K8 3.227670 1_455
Cl13 K7 3.232138 1_556
Cl14 Os2 2.364928 1_555
Cl14 K1 3.336101 1_555
Cl14 K5 3.593567 1_655
Cl14 K5 3.701241 1_555
Cl15 Os2 2.391246 1_555
Cl15 K3 3.275221 1_655
Cl15 K9 3.488600 1_555
Cl16 Os4 2.382119 1_555
Cl16 K7 3.278338 1_555
Cl16 K4 3.509272 1_555
Cl16 K6 3.668715 1_555
Cl17 Os3 2.391246 1_555
Cl17 K9 3.275221 1_555
Cl17 K3 3.488600 1_555
Cl18 Os3 2.364928 1_555
Cl18 K11 3.336101 1_555
Cl18 K8 3.593567 1_555
Cl18 K8 3.701241 1_455
Cl19 Os2 2.402132 1_555
Cl19 K9 3.117943 1_555
Cl19 K5 3.227670 1_555
Cl19 K10 3.232138 1_555
Cl20 Os5 2.402132 1_555
Cl20 K6 3.117943 1_555
Cl20 K10 3.227670 1_555
Cl20 K5 3.232138 1_555
Cl21 Os4 2.364928 1_555
Cl21 K4 3.336101 1_555
Cl21 K7 3.593567 1_555
Cl21 K7 3.701241 1_655
Cl22 Os4 2.391246 1_555
Cl22 K6 3.275221 1_555
Cl22 K12 3.488600 1_555
Cl23 Os3 2.382119 1_555
Cl23 K8 3.278338 1_555
Cl23 K11 3.509272 1_555
Cl23 K9 3.668715 1_555
Cl24 Os5 2.391246 1_555
Cl24 K12 3.275221 1_455
Cl24 K6 3.488600 1_555
Cl25 Os5 2.364928 1_555
Cl25 K14 3.336101 1_555
Cl25 K10 3.593567 1_455
Cl25 K10 3.701241 1_555
Cl26 Os4 2.402132 1_555
Cl26 K12 3.117943 1_555
Cl26 K7 3.227670 1_655
Cl26 K8 3.232138 1_554
Cl27 Os3 2.516477 1_555
Cl27 K11 3.170651 1_555
Cl27 K8 3.209888 1_455
Cl28 Os5 2.382119 1_655
Cl28 K10 3.278338 1_555
Cl28 K14 3.509272 1_655
Cl28 K12 3.668715 1_555
Cl29 Os6 2.492807 1_555
Cl29 K13 3.081689 1_655
Cl29 K10 3.155953 1_555
Cl29 K14 3.341144 1_655
Cl29 K9 3.610108 1_555
Cl30 Os5 2.516477 1_555
Cl30 K14 3.170651 1_555
Cl30 K10 3.209888 1_555
Cl31 Os6 2.383822 1_555
Cl31 K13 3.208036 1_555
Cl31 K14 3.294265 1_555
Cl31 K9 3.548412 1_555
Cl31 K10 3.606934 1_555
Cl32 Os7 2.492807 1_555
Cl32 K15 3.081689 1_555
Cl32 K8 3.155953 1_554
Cl32 K11 3.341144 1_554
Cl32 K12 3.610108 1_555
Cl33 Os6 2.397204 1_555
Cl33 K13 3.143160 1_655
Cl33 K0 3.259277 1_545
Cl33 K9 3.426874 1_555
Cl34 Os0 2.408110 1_545
Cl34 K0 3.374699 1_545
Cl34 K11 3.389325 1_555
Cl34 K4 3.404524 1_546
Cl35 Os6 2.358771 1_555
Cl35 K14 3.359169 1_655
Cl35 K10 3.531688 1_555
Cl36 Os7 2.383822 1_455
Cl36 K15 3.208036 1_555
Cl36 K11 3.294265 1_554
Cl36 K12 3.548412 1_455
Cl36 K8 3.606934 1_454
Cl37 Os7 2.397204 1_555
Cl37 K15 3.143160 1_555
Cl37 K2 3.259277 1_545
Cl37 K12 3.426874 1_555
Cl38 Os1 2.408110 1_545
Cl38 K2 3.374699 1_445
Cl38 K14 3.389325 1_555
Cl38 K1 3.404524 1_445
Cl39 Os7 2.358771 1_555
Cl39 K11 3.359169 1_554
Cl39 K8 3.531688 1_554
