# generated using pymatgen
data_MnOF
_symmetry_space_group_name_H-M   'P 1'
_cell_length_a   3.72463500
_cell_length_b   8.93638600
_cell_length_c   5.45922200
_cell_angle_alpha   90.00328269
_cell_angle_beta   89.99975102
_cell_angle_gamma   89.99846789
_symmetry_Int_Tables_number   1
_chemical_formula_structural   MnOF
_chemical_formula_sum   'Mn4 O4 F4'
_cell_volume   181.70898160
_cell_formula_units_Z   4
loop_
 _symmetry_equiv_pos_site_id
 _symmetry_equiv_pos_as_xyz
  1  'x, y, z'
loop_
 _atom_site_type_symbol
 _atom_site_label
 _atom_site_symmetry_multiplicity
 _atom_site_fract_x
 _atom_site_fract_y
 _atom_site_fract_z
 _atom_site_occupancy
  Mn  Mn0  1  0.74998300  0.40469500  0.36701100  1
  Mn  Mn1  1  0.74996900  0.09531000  0.86692700  1
  Mn  Mn2  1  0.25000100  0.90465300  0.13296700  1
  Mn  Mn3  1  0.25002300  0.59532900  0.63292800  1
  O  O0  1  0.74998600  0.95894000  0.13898400  1
  O  O1  1  0.24999200  0.45893100  0.36104200  1
  O  O2  1  0.75001200  0.54107100  0.63896100  1
  O  O3  1  0.24997600  0.04106500  0.86108800  1
  F  F0  1  0.75000700  0.29647500  0.06659100  1
  F  F1  1  0.25000800  0.79647000  0.43346000  1
  F  F2  1  0.75000500  0.20353800  0.56660300  1
  F  F3  1  0.25004000  0.70352300  0.93343900  1
loop_
_geom_bond_atom_site_label_1
_geom_bond_atom_site_label_2
_geom_bond_distance
_geom_bond_site_symmetry_2
Mn0 O2 1.920725 1_555
Mn0 O1 1.924585 1_555
Mn0 O1 1.924674 1_655
Mn1 O0 1.921251 1_546
Mn1 O3 1.924624 1_555
Mn1 O3 1.924650 1_655
Mn2 O3 1.920738 1_564
Mn2 O0 1.924707 1_555
Mn2 O0 1.924789 1_455
Mn3 O1 1.920580 1_555
Mn3 O2 1.924633 1_555
Mn3 O2 1.924737 1_455
F0 Mn0 1.903914 1_555
F0 Mn1 2.102280 1_554
F1 Mn2 1.904185 1_555
F1 Mn3 2.101648 1_555
F2 Mn1 1.903594 1_555
F2 Mn0 2.102122 1_555
F3 Mn3 1.904224 1_555
F3 Mn2 2.101627 1_556
