# generated using pymatgen
data_Na3VO3
_symmetry_space_group_name_H-M   'P 1'
_cell_length_a   5.90028845
_cell_length_b   6.02118764
_cell_length_c   6.48055583
_cell_angle_alpha   63.83738264
_cell_angle_beta   89.25415152
_cell_angle_gamma   87.44270701
_symmetry_Int_Tables_number   1
_chemical_formula_structural   Na3VO3
_chemical_formula_sum   'Na6 V2 O6'
_cell_volume   206.43332133
_cell_formula_units_Z   2
loop_
 _symmetry_equiv_pos_site_id
 _symmetry_equiv_pos_as_xyz
  1  'x, y, z'
loop_
 _atom_site_type_symbol
 _atom_site_label
 _atom_site_symmetry_multiplicity
 _atom_site_fract_x
 _atom_site_fract_y
 _atom_site_fract_z
 _atom_site_occupancy
  Na  Na0  1  0.06536800  0.76105900  0.44916600  1
  Na  Na1  1  0.93455300  0.23903100  0.55067000  1
  Na  Na2  1  0.13751900  0.77698400  0.98405800  1
  Na  Na3  1  0.86251300  0.22298600  0.01588800  1
  Na  Na4  1  0.42945100  0.26774100  0.74742300  1
  Na  Na5  1  0.57038100  0.73236100  0.25257500  1
  V  V0  1  0.62728300  0.81100200  0.68989400  1
  V  V1  1  0.37282000  0.18893300  0.31014200  1
  O  O0  1  0.23869300  0.10549300  0.09564800  1
  O  O1  1  0.76132600  0.89453900  0.90443800  1
  O  O2  1  0.25528900  0.47239900  0.34179800  1
  O  O3  1  0.74468400  0.52754300  0.65822500  1
  O  O4  1  0.30562100  0.92531500  0.63000500  1
  O  O5  1  0.69449700  0.07461600  0.37006800  1
loop_
_geom_bond_atom_site_label_1
_geom_bond_atom_site_label_2
_geom_bond_distance
_geom_bond_site_symmetry_2
Na0 O4 2.356171 1_555
Na0 O2 2.373422 1_555
Na0 O3 2.425585 1_455
Na0 O0 2.556159 1_565
Na0 O5 2.724476 1_465
Na1 O5 2.355020 1_555
Na1 O3 2.373279 1_555
Na1 O2 2.425147 1_655
Na1 O1 2.556929 1_545
Na1 O4 2.725763 1_645
Na2 O4 2.293182 1_555
Na2 O1 2.293824 1_455
Na2 O2 2.323762 1_556
Na2 O0 2.483925 1_566
Na3 O5 2.293631 1_555
Na3 O0 2.293781 1_655
Na3 O3 2.323476 1_554
Na3 O1 2.483012 1_544
Na4 O0 2.324161 1_556
Na4 O3 2.382214 1_555
Na4 O2 2.566171 1_555
Na4 O4 2.626087 1_545
Na4 O1 2.749940 1_545
Na5 O1 2.324252 1_554
Na5 O2 2.382097 1_555
Na5 O3 2.566640 1_555
Na5 O5 2.625981 1_565
Na5 O0 2.748916 1_565
O0 V1 1.868392 1_555
O1 V0 1.868813 1_555
O2 V1 1.906726 1_555
O3 V0 1.906482 1_555
O4 V0 1.973180 1_555
O4 V1 2.026533 1_565
O5 V1 1.973283 1_555
O5 V0 2.026383 1_545
