# generated using pymatgen
data_LiSbWO6
_symmetry_space_group_name_H-M   'P 1'
_cell_length_a   7.33310900
_cell_length_b   7.33310900
_cell_length_c   10.32179300
_cell_angle_alpha   90.00000000
_cell_angle_beta   90.00000000
_cell_angle_gamma   90.00000000
_symmetry_Int_Tables_number   1
_chemical_formula_structural   LiSbWO6
_chemical_formula_sum   'Li4 Sb4 W4 O24'
_cell_volume   555.04912975
_cell_formula_units_Z   4
loop_
 _symmetry_equiv_pos_site_id
 _symmetry_equiv_pos_as_xyz
  1  'x, y, z'
loop_
 _atom_site_type_symbol
 _atom_site_label
 _atom_site_symmetry_multiplicity
 _atom_site_fract_x
 _atom_site_fract_y
 _atom_site_fract_z
 _atom_site_occupancy
  Li  Li0  1  0.50000000  0.23251200  0.00000000  1
  Li  Li1  1  0.76748800  0.50000000  0.25000000  1
  Li  Li2  1  0.50000000  0.76748800  0.50000000  1
  Li  Li3  1  0.23251200  0.50000000  0.75000000  1
  Sb  Sb0  1  0.50000000  0.74240000  0.00000000  1
  Sb  Sb1  1  0.25760000  0.50000000  0.25000000  1
  Sb  Sb2  1  0.50000000  0.25760000  0.50000000  1
  Sb  Sb3  1  0.74240000  0.50000000  0.75000000  1
  W  W0  1  0.00000000  0.74268100  0.00000000  1
  W  W1  1  0.25731900  0.00000000  0.25000000  1
  W  W2  1  0.00000000  0.25731900  0.50000000  1
  W  W3  1  0.74268100  0.00000000  0.75000000  1
  O  O0  1  0.53945200  0.53945200  0.87500000  1
  O  O1  1  0.92658400  0.92658400  0.87500000  1
  O  O2  1  0.55727100  0.94753100  0.87927500  1
  O  O3  1  0.94753100  0.55727100  0.87072500  1
  O  O4  1  0.73411700  0.24470600  0.81774900  1
  O  O5  1  0.26588300  0.24470600  0.18225100  1
  O  O6  1  0.05246900  0.55727100  0.12927500  1
  O  O7  1  0.46054800  0.53945200  0.12500000  1
  O  O8  1  0.07341600  0.92658400  0.12500000  1
  O  O9  1  0.44272900  0.94753100  0.12072500  1
  O  O10  1  0.75529400  0.73411700  0.06774900  1
  O  O11  1  0.75529400  0.26588300  0.43225100  1
  O  O12  1  0.07341600  0.07341600  0.37500000  1
  O  O13  1  0.05246900  0.44272900  0.37072500  1
  O  O14  1  0.46054800  0.46054800  0.37500000  1
  O  O15  1  0.44272900  0.05246900  0.37927500  1
  O  O16  1  0.26588300  0.75529400  0.31774900  1
  O  O17  1  0.73411700  0.75529400  0.68225100  1
  O  O18  1  0.92658400  0.07341600  0.62500000  1
  O  O19  1  0.55727100  0.05246900  0.62072500  1
  O  O20  1  0.53945200  0.46054800  0.62500000  1
  O  O21  1  0.94753100  0.44272900  0.62927500  1
  O  O22  1  0.24470600  0.26588300  0.56774900  1
  O  O23  1  0.24470600  0.73411700  0.93225100  1
loop_
_geom_bond_atom_site_label_1
_geom_bond_atom_site_label_2
_geom_bond_distance
_geom_bond_site_symmetry_2
Li0 O9 2.469087 1_545
Li0 O2 2.469087 1_544
Li0 O5 2.548366 1_555
Li0 O4 2.548366 1_554
Li0 O0 2.610476 1_554
Li0 O7 2.610476 1_555
Li1 O13 2.469087 1_655
Li1 O6 2.469087 1_655
Li1 O10 2.548366 1_555
Li1 O11 2.548366 1_555
Li1 O7 2.610476 1_555
Li1 O14 2.610476 1_555
Li2 O19 2.469087 1_565
Li2 O15 2.469087 1_565
Li2 O17 2.548366 1_555
Li2 O16 2.548366 1_555
Li2 O20 2.610476 1_555
Li2 O14 2.610476 1_555
Li3 O3 2.469087 1_455
Li3 O21 2.469087 1_455
Li3 O23 2.548366 1_555
Li3 O22 2.548366 1_555
Li3 O0 2.610476 1_555
Li3 O20 2.610476 1_555
O0 Sb0 1.990787 1_556
O0 Sb3 1.990787 1_555
O1 W3 1.942470 1_565
O1 W0 1.942470 1_656
O2 W3 1.943484 1_565
O2 Sb0 1.997974 1_556
O3 W0 1.943484 1_656
O3 Sb3 1.997974 1_555
O4 W3 1.926921 1_555
O4 Sb3 1.999363 1_555
O5 W1 1.926921 1_555
O5 Sb1 1.999363 1_555
O6 W0 1.943484 1_555
O6 Sb1 1.997974 1_555
O7 Sb1 1.990787 1_555
O7 Sb0 1.990787 1_555
O8 W1 1.942470 1_565
O8 W0 1.942470 1_555
O9 W1 1.943484 1_565
O9 Sb0 1.997974 1_555
O10 W0 1.926921 1_655
O10 Sb0 1.999363 1_555
O11 W2 1.926921 1_655
O11 Sb2 1.999363 1_555
O12 W2 1.942470 1_555
O12 W1 1.942470 1_555
O13 W2 1.943484 1_555
O13 Sb1 1.997974 1_555
O14 Sb1 1.990787 1_555
O14 Sb2 1.990787 1_555
O15 W1 1.943484 1_555
O15 Sb2 1.997974 1_555
O16 W1 1.926921 1_565
O16 Sb1 1.999363 1_555
O17 W3 1.926921 1_565
O17 Sb3 1.999363 1_555
O18 W2 1.942470 1_655
O18 W3 1.942470 1_555
O19 W3 1.943484 1_555
O19 Sb2 1.997974 1_555
O20 Sb2 1.990787 1_555
O20 Sb3 1.990787 1_555
O21 W2 1.943484 1_655
O21 Sb3 1.997974 1_555
O22 W2 1.926921 1_555
O22 Sb2 1.999363 1_555
O23 W0 1.926921 1_556
O23 Sb0 1.999363 1_556
