# generated using pymatgen
data_Li4TiV5O12
_symmetry_space_group_name_H-M   'P 1'
_cell_length_a   5.14916746
_cell_length_b   5.14916746
_cell_length_c   10.24840431
_cell_angle_alpha   89.40382995
_cell_angle_beta   89.40382995
_cell_angle_gamma   119.22545414
_symmetry_Int_Tables_number   1
_chemical_formula_structural   Li4TiV5O12
_chemical_formula_sum   'Li4 Ti1 V5 O12'
_cell_volume   237.08603727
_cell_formula_units_Z   1
loop_
 _symmetry_equiv_pos_site_id
 _symmetry_equiv_pos_as_xyz
  1  'x, y, z'
loop_
 _atom_site_type_symbol
 _atom_site_label
 _atom_site_symmetry_multiplicity
 _atom_site_fract_x
 _atom_site_fract_y
 _atom_site_fract_z
 _atom_site_occupancy
  Li  Li0  1  0.85964300  0.35430900  0.24957300  1
  Li  Li1  1  0.64569100  0.14035700  0.75042700  1
  Li  Li2  1  0.35430900  0.85964300  0.24957300  1
  Li  Li3  1  0.14035700  0.64569100  0.75042700  1
  Ti  Ti0  1  0.00000000  0.00000000  0.00000000  1
  V  V0  1  0.50000000  0.50000000  0.50000000  1
  V  V1  1  0.84271200  0.15728800  0.50000000  1
  V  V2  1  0.66224400  0.33775600  0.00000000  1
  V  V3  1  0.33775600  0.66224400  0.00000000  1
  V  V4  1  0.15728800  0.84271200  0.50000000  1
  O  O0  1  0.98929900  0.32550300  0.89324600  1
  O  O1  1  0.67449700  0.01070100  0.10675400  1
  O  O2  1  0.83769700  0.49072900  0.60610200  1
  O  O3  1  0.50927100  0.16230300  0.39389800  1
  O  O4  1  0.83194600  0.83194600  0.39571500  1
  O  O5  1  0.68094600  0.68094600  0.89908900  1
  O  O6  1  0.31905400  0.31905400  0.10091100  1
  O  O7  1  0.16805400  0.16805400  0.60428500  1
  O  O8  1  0.49072900  0.83769700  0.60610200  1
  O  O9  1  0.16230300  0.50927100  0.39389800  1
  O  O10  1  0.32550300  0.98929900  0.89324600  1
  O  O11  1  0.01070100  0.67449700  0.10675400  1
loop_
_geom_bond_atom_site_label_1
_geom_bond_atom_site_label_2
_geom_bond_distance
_geom_bond_site_symmetry_2
Li0 O9 2.027663 1_655
Li0 O11 2.034547 1_655
Li0 O3 2.142977 1_555
Li0 O1 2.148818 1_555
Li1 O8 2.027663 1_545
Li1 O10 2.034547 1_545
Li1 O2 2.142977 1_555
Li1 O0 2.148818 1_555
Li2 O3 2.027663 1_565
Li2 O1 2.034547 1_565
Li2 O9 2.142977 1_555
Li2 O11 2.148818 1_555
Li3 O2 2.027663 1_455
Li3 O0 2.034547 1_455
Li3 O8 2.142977 1_555
Li3 O10 2.148818 1_555
O0 Ti0 2.015561 1_656
O0 V2 2.025797 1_556
O0 V3 2.113101 1_656
O1 Ti0 2.015561 1_655
O1 V2 2.025797 1_555
O1 V3 2.113101 1_545
O2 V4 2.045637 1_655
O2 V1 2.052440 1_555
O2 V0 2.080293 1_555
O3 V4 2.045637 1_545
O3 V1 2.052440 1_555
O3 V0 2.080293 1_555
O4 V1 1.974727 1_565
O4 V4 1.974727 1_655
O4 V0 2.014050 1_555
O5 Ti0 1.975518 1_666
O5 V2 1.998827 1_556
O5 V3 1.998827 1_556
O6 Ti0 1.975518 1_555
O6 V3 1.998827 1_555
O6 V2 1.998827 1_555
O7 V1 1.974727 1_455
O7 V4 1.974727 1_545
O7 V0 2.014050 1_555
O8 V1 2.045637 1_565
O8 V4 2.052440 1_555
O8 V0 2.080293 1_555
O9 V1 2.045637 1_455
O9 V4 2.052440 1_555
O9 V0 2.080293 1_555
O10 Ti0 2.015561 1_566
O10 V3 2.025797 1_556
O10 V2 2.113101 1_566
O11 Ti0 2.015561 1_565
O11 V3 2.025797 1_555
O11 V2 2.113101 1_455
