# generated using pymatgen
data_ZrMnH10O5F6
_symmetry_space_group_name_H-M   'P 1'
_cell_length_a   7.63976800
_cell_length_b   8.77552689
_cell_length_c   8.87542040
_cell_angle_alpha   118.85784091
_cell_angle_beta   90.00000000
_cell_angle_gamma   115.80363894
_symmetry_Int_Tables_number   1
_chemical_formula_structural   ZrMnH10O5F6
_chemical_formula_sum   'Zr2 Mn2 H20 O10 F12'
_cell_volume   452.22035798
_cell_formula_units_Z   2
loop_
 _symmetry_equiv_pos_site_id
 _symmetry_equiv_pos_as_xyz
  1  'x, y, z'
loop_
 _atom_site_type_symbol
 _atom_site_label
 _atom_site_symmetry_multiplicity
 _atom_site_fract_x
 _atom_site_fract_y
 _atom_site_fract_z
 _atom_site_occupancy
  Zr  Zr0  1  0.74555400  0.00000000  0.50000000  1
  Zr  Zr1  1  0.24496400  0.00000000  0.50000000  1
  Mn  Mn0  1  0.76532200  0.54097500  0.72516700  1
  Mn  Mn1  1  0.22434700  0.45902500  0.27483300  1
  H  H0  1  0.17264300  0.28159500  0.90407400  1
  H  H1  1  0.89104900  0.71840500  0.09592600  1
  H  H2  1  0.26043200  0.51782500  0.98834500  1
  H  H3  1  0.74260700  0.48217500  0.01165500  1
  H  H4  1  0.18744800  0.38827400  0.56075800  1
  H  H5  1  0.79917500  0.61172600  0.43924200  1
  H  H6  1  0.80046400  0.23296300  0.11467500  1
  H  H7  1  0.56750100  0.76703700  0.88532500  1
  H  H8  1  0.70905300  0.86162100  0.77982300  1
  H  H9  1  0.84743300  0.13837900  0.22017700  1
  H  H10  1  0.13760600  0.86200400  0.77585200  1
  H  H11  1  0.27560200  0.13799600  0.22414800  1
  H  H12  1  0.58075200  0.15837300  0.86976000  1
  H  H13  1  0.42237900  0.84162700  0.13024000  1
  H  H14  1  0.80682400  0.41299300  0.37749300  1
  H  H15  1  0.39383100  0.58700700  0.62250700  1
  H  H16  1  0.50725600  0.23226900  0.04589300  1
  H  H17  1  0.27498700  0.76773100  0.95410700  1
  H  H18  1  0.48765900  0.33980900  0.30955500  1
  H  H19  1  0.14785000  0.66019100  0.69044500  1
  O  O0  1  0.89518800  0.26158500  0.21475900  1
  O  O1  1  0.63360400  0.73841500  0.78524100  1
  O  O2  1  0.35613600  0.25928600  0.21774100  1
  O  O3  1  0.09685000  0.74071400  0.78225900  1
  O  O4  1  0.73913800  0.48950300  0.44580700  1
  O  O5  1  0.24963600  0.51049700  0.55419300  1
  O  O6  1  0.20444800  0.40854700  0.01261600  1
  O  O7  1  0.79590200  0.59145300  0.98738400  1
  O  O8  1  0.62905300  0.25071500  0.00143100  1
  O  O9  1  0.37833800  0.74928500  0.99856900  1
  F  F0  1  0.79597700  0.97081500  0.26311100  1
  F  F1  1  0.82516200  0.02918500  0.73688900  1
  F  F2  1  0.15550600  0.95576800  0.25574800  1
  F  F3  1  0.19973800  0.04423200  0.74425200  1
  F  F4  1  0.50398400  0.01974700  0.64302600  1
  F  F5  1  0.48423700  0.98025300  0.35697400  1
  F  F6  1  0.08563000  0.17942100  0.56738600  1
  F  F7  1  0.90620900  0.82057900  0.43261400  1
  F  F8  1  0.45992500  0.29868800  0.61595900  1
  F  F9  1  0.16123700  0.70131200  0.38404100  1
  F  F10  1  0.82926400  0.29926200  0.61602700  1
  F  F11  1  0.53000200  0.70073800  0.38397300  1
loop_
_geom_bond_atom_site_label_1
_geom_bond_atom_site_label_2
_geom_bond_distance
_geom_bond_site_symmetry_2
Mn0 O7 2.140525 1_555
Mn0 O1 2.219259 1_555
Mn0 O3 2.240959 1_655
Mn0 O4 2.287342 1_555
Mn1 O6 2.140525 1_555
Mn1 O0 2.219265 1_455
Mn1 O2 2.240959 1_555
Mn1 O5 2.287342 1_555
H0 O6 0.978062 1_556
H1 O7 0.978062 1_554
H2 O6 0.995637 1_556
H3 O7 0.995637 1_554
H4 O5 0.998109 1_555
H5 O4 0.998109 1_555
H6 O0 1.001115 1_555
H7 O1 1.001120 1_555
H8 O1 1.005575 1_555
H9 O0 1.005577 1_555
H10 O3 1.001498 1_555
H11 O2 1.001498 1_555
H12 O8 0.992017 1_556
H13 O9 0.992017 1_554
H14 O4 0.997557 1_555
H15 O5 0.997550 1_555
H16 O8 0.989085 1_555
H17 O9 0.989085 1_555
H18 O2 0.999520 1_555
H19 O3 0.999520 1_555
F0 H9 1.581023 1_565
F0 Zr0 2.049528 1_565
F1 H8 1.581024 1_545
F1 Zr0 2.049528 1_555
F2 H11 1.622758 1_565
F2 Zr1 2.067386 1_565
F3 H10 1.622758 1_545
F3 Zr1 2.067386 1_555
F4 H12 1.699787 1_555
F4 Zr1 2.246426 1_555
F4 Zr0 2.261314 1_555
F5 H13 1.699787 1_555
F5 Zr1 2.246426 1_565
F5 Zr0 2.261314 1_565
F6 H4 1.682437 1_555
F6 Zr1 2.253470 1_555
F6 Zr0 2.261997 1_455
F7 H5 1.682436 1_555
F7 Zr1 2.253470 1_665
F7 Zr0 2.261997 1_565
F8 Zr1 2.067650 1_555
F8 Mn0 2.143787 1_555
F9 Zr1 2.067650 1_565
F9 Mn1 2.143787 1_555
F10 Zr0 2.072111 1_555
F10 Mn0 2.143595 1_555
F11 Zr0 2.072111 1_565
F11 Mn1 2.143595 1_555
