# generated using pymatgen
data_Li3Fe3(PO4)4
_symmetry_space_group_name_H-M   'P 1'
_cell_length_a   8.25816500
_cell_length_b   8.89327811
_cell_length_c   13.54413133
_cell_angle_alpha   95.72265680
_cell_angle_beta   90.07984276
_cell_angle_gamma   90.06144947
_symmetry_Int_Tables_number   1
_chemical_formula_structural   Li3Fe3(PO4)4
_chemical_formula_sum   'Li9 Fe9 P12 O48'
_cell_volume   989.75111975
_cell_formula_units_Z   3
loop_
 _symmetry_equiv_pos_site_id
 _symmetry_equiv_pos_as_xyz
  1  'x, y, z'
loop_
 _atom_site_type_symbol
 _atom_site_label
 _atom_site_symmetry_multiplicity
 _atom_site_fract_x
 _atom_site_fract_y
 _atom_site_fract_z
 _atom_site_occupancy
  Li  Li0  1  0.52328100  0.33662300  0.83094100  1
  Li  Li1  1  0.47844100  0.99301400  0.50388200  1
  Li  Li2  1  0.85216700  0.43660600  0.82516400  1
  Li  Li3  1  0.99189000  0.82231200  0.83537500  1
  Li  Li4  1  0.00271200  0.51176200  0.49290400  1
  Li  Li5  1  0.97462300  0.17429300  0.16174100  1
  Li  Li6  1  0.64740700  0.27426700  0.15485100  1
  Li  Li7  1  0.14614100  0.89432100  0.50955600  1
  Li  Li8  1  0.50642400  0.65225000  0.17092500  1
  Fe  Fe0  1  0.14275100  0.23477900  0.83688100  1
  Fe  Fe1  1  0.85427300  0.09835100  0.49507200  1
  Fe  Fe2  1  0.35197400  0.73502900  0.83783600  1
  Fe  Fe3  1  0.34922100  0.40138000  0.50133400  1
  Fe  Fe4  1  0.35753400  0.07255400  0.17247700  1
  Fe  Fe5  1  0.65436700  0.93507200  0.83244600  1
  Fe  Fe6  1  0.65142200  0.59892700  0.49287700  1
  Fe  Fe7  1  0.14943100  0.56464300  0.17426800  1
  Fe  Fe8  1  0.84440300  0.76441000  0.16225000  1
  P  P0  1  0.80688500  0.14462000  0.94684700  1
  P  P1  1  0.30021500  0.02578400  0.72078700  1
  P  P2  1  0.70257400  0.63901400  0.94190600  1
  P  P3  1  0.69964800  0.30765500  0.61234000  1
  P  P4  1  0.20353400  0.52062100  0.72390300  1
  P  P5  1  0.19676600  0.18796500  0.39035900  1
  P  P6  1  0.79690400  0.81296600  0.60874100  1
  P  P7  1  0.79768600  0.47199300  0.27550600  1
  P  P8  1  0.29740900  0.69478200  0.39096700  1
  P  P9  1  0.29577500  0.35427300  0.05678500  1
  P  P10  1  0.69765300  0.97764100  0.27585100  1
  P  P11  1  0.20210900  0.85773100  0.05858900  1
  O  O0  1  0.13447900  0.01952100  0.77804200  1
  O  O1  1  0.63893200  0.14579000  0.88881600  1
  O  O2  1  0.92966400  0.24641000  0.89621000  1
  O  O3  1  0.28080400  0.30808400  0.94518600  1
  O  O4  1  0.35251800  0.19197100  0.75027800  1
  O  O5  1  0.63314900  0.48198700  0.92686300  1
  O  O6  1  0.64694200  0.14100100  0.58273500  1
  O  O7  1  0.70484500  0.35742400  0.72103800  1
  O  O8  1  0.08420000  0.41063300  0.76770000  1
  O  O9  1  0.71629300  0.02729900  0.38710000  1
  O  O10  1  0.07055800  0.08538000  0.43450000  1
  O  O11  1  0.37216200  0.52372000  0.77853800  1
  O  O12  1  0.86348000  0.65372900  0.88952200  1
  O  O13  1  0.36310000  0.18631900  0.44750600  1
  O  O14  1  0.86582500  0.31220500  0.55476800  1
  O  O15  1  0.57421800  0.75662700  0.89689000  1
  O  O16  1  0.21451500  0.80397500  0.94721500  1
  O  O17  1  0.57770400  0.41728400  0.55836200  1
  O  O18  1  0.21868100  0.47495100  0.61137900  1
  O  O19  1  0.57186300  0.08194600  0.23173200  1
  O  O20  1  0.15075800  0.68841300  0.74749200  1
  O  O21  1  0.21535100  0.13868300  0.27859000  1
  O  O22  1  0.15297300  0.35890800  0.41100900  1
  O  O23  1  0.14759500  0.02326600  0.07960200  1
  O  O24  1  0.85163100  0.97306500  0.91956700  1
  O  O25  1  0.85122900  0.64594000  0.58586800  1
  O  O26  1  0.78164600  0.85870000  0.72096700  1
  O  O27  1  0.86676000  0.31450000  0.26203500  1
  O  O28  1  0.42334200  0.91592600  0.77355800  1
  O  O29  1  0.79191900  0.53271600  0.38855500  1
  O  O30  1  0.42629000  0.57820000  0.43585600  1
  O  O31  1  0.79460900  0.18903100  0.05670700  1
  O  O32  1  0.41610000  0.24431500  0.10156900  1
  O  O33  1  0.13743100  0.67989400  0.44401300  1
  O  O34  1  0.62903500  0.81013000  0.55338400  1
  O  O35  1  0.12933500  0.35409000  0.11365200  1
  O  O36  1  0.63665400  0.48587200  0.22304200  1
  O  O37  1  0.91560200  0.92403300  0.56452800  1
  O  O38  1  0.29435800  0.97614700  0.61135900  1
  O  O39  1  0.92465900  0.58876600  0.22907800  1
  O  O40  1  0.28977700  0.63454800  0.27789400  1
  O  O41  1  0.36593300  0.85280300  0.40487400  1
  O  O42  1  0.34722100  0.52231300  0.08055800  1
  O  O43  1  0.65130000  0.80743200  0.25553000  1
  O  O44  1  0.70947000  0.69921900  0.05503300  1
  O  O45  1  0.07878700  0.74726000  0.10574000  1
  O  O46  1  0.36783300  0.85517900  0.11431000  1
  O  O47  1  0.86284500  0.97875600  0.21788600  1
loop_
_geom_bond_atom_site_label_1
_geom_bond_atom_site_label_2
_geom_bond_distance
_geom_bond_site_symmetry_2
Li0 O5 1.959992 1_555
Li0 O4 2.132756 1_555
Li0 O7 2.135105 1_555
Li0 O1 2.161838 1_555
Li0 O11 2.251055 1_555
Li0 O3 2.560125 1_555
Li1 O41 1.968982 1_555
Li1 O38 2.121723 1_555
Li1 O6 2.126176 1_565
Li1 O13 2.170004 1_565
Li1 O34 2.204749 1_555
Li1 O9 2.560565 1_565
Li2 O7 1.939144 1_555
Li2 O12 2.039798 1_555
Li2 O8 2.073657 1_655
Li2 O2 2.126445 1_555
Li2 O5 2.286739 1_555
Li3 O12 2.031784 1_555
Li3 O24 2.035066 1_555
Li3 O20 2.069079 1_655
Li3 O0 2.309807 1_665
Li3 O26 2.369399 1_555
Li3 O16 2.396512 1_655
Li4 O33 2.026800 1_555
Li4 O25 2.069344 1_455
Li4 O22 2.079604 1_555
Li4 O29 2.260268 1_455
Li4 O14 2.329046 1_455
Li4 O18 2.441512 1_555
Li5 O27 1.965045 1_555
Li5 O31 2.069444 1_555
Li5 O47 2.171766 1_545
Li5 O23 2.189204 1_655
Li5 O35 2.195214 1_655
Li5 O21 2.578670 1_655
Li6 O31 1.903901 1_555
Li6 O36 2.014020 1_555
Li6 O32 2.048714 1_555
Li6 O19 2.180255 1_555
Li6 O27 2.324769 1_555
Li7 O38 1.929299 1_555
Li7 O33 2.022782 1_555
Li7 O37 2.052933 1_455
Li7 O10 2.157559 1_565
Li7 O41 2.311987 1_555
Li8 O36 2.013411 1_555
Li8 O42 2.066898 1_555
Li8 O43 2.079989 1_555
Li8 O40 2.318797 1_555
Li8 O46 2.330836 1_555
Li8 O44 2.363579 1_555
Fe0 O3 1.918220 1_555
Fe0 O2 1.934098 1_455
Fe0 O8 1.962191 1_555
Fe0 O0 1.999953 1_555
Fe0 O4 2.107043 1_555
Fe1 O9 1.909386 1_555
Fe1 O37 1.958560 1_545
Fe1 O10 1.965254 1_655
Fe1 O14 1.993148 1_555
Fe1 O6 2.098185 1_555
Fe2 O16 1.919440 1_555
Fe2 O11 1.975952 1_555
Fe2 O28 1.993018 1_555
Fe2 O15 2.002392 1_555
Fe2 O20 2.078941 1_555
Fe3 O18 1.903475 1_555
Fe3 O13 1.981239 1_555
Fe3 O30 1.985418 1_555
Fe3 O17 2.037249 1_555
Fe3 O22 2.041279 1_555
Fe4 O21 1.904661 1_555
Fe4 O19 1.940671 1_555
Fe4 O32 1.944696 1_555
Fe4 O46 2.015411 1_545
Fe4 O23 2.159296 1_555
Fe5 O26 1.909790 1_555
Fe5 O1 1.956115 1_565
Fe5 O15 1.998493 1_555
Fe5 O24 2.018473 1_555
Fe5 O28 2.067119 1_555
Fe6 O29 1.878681 1_555
Fe6 O34 1.981903 1_555
Fe6 O17 2.012937 1_555
Fe6 O30 2.013415 1_555
Fe6 O25 2.090800 1_555
Fe7 O40 1.876050 1_555
Fe7 O35 1.974898 1_555
Fe7 O39 2.003882 1_455
Fe7 O45 2.034829 1_555
Fe7 O42 2.081438 1_555
Fe8 O44 1.874237 1_555
Fe8 O47 1.984278 1_555
Fe8 O39 1.995251 1_555
Fe8 O43 2.048433 1_555
Fe8 O45 2.082553 1_655
O0 P1 1.577699 1_555
O1 P0 1.593806 1_555
O2 P0 1.562586 1_555
O3 P9 1.531089 1_556
O4 P1 1.552693 1_555
O5 P2 1.503860 1_555
O6 P3 1.557711 1_555
O7 P3 1.494995 1_555
O8 P4 1.547614 1_555
O9 P10 1.534793 1_545
O10 P5 1.544182 1_555
O11 P4 1.574970 1_555
O12 P2 1.518868 1_555
O13 P5 1.576532 1_555
O14 P3 1.581796 1_555
O15 P2 1.648364 1_555
O16 P11 1.539879 1_556
O17 P3 1.625224 1_555
O18 P4 1.542888 1_555
O19 P10 1.551615 1_545
O20 P4 1.557387 1_555
O21 P5 1.541348 1_555
O22 P5 1.561033 1_555
O23 P11 1.539192 1_545
O24 P0 1.577958 1_565
O25 P6 1.553616 1_555
O26 P6 1.539177 1_555
O27 P7 1.507142 1_555
O28 P1 1.624385 1_565
O29 P7 1.572793 1_555
O30 P8 1.644275 1_555
O31 P0 1.504525 1_554
O32 P9 1.558923 1_555
O33 P8 1.516684 1_555
O34 P6 1.574115 1_555
O35 P9 1.576594 1_555
O36 P7 1.517831 1_555
O37 P6 1.553257 1_555
O38 P1 1.504369 1_565
O39 P7 1.644115 1_555
O40 P8 1.572385 1_555
O41 P8 1.508591 1_555
O42 P9 1.555564 1_555
O43 P10 1.558523 1_555
O44 P2 1.572788 1_554
O45 P11 1.592167 1_555
O46 P11 1.563228 1_555
O47 P10 1.575424 1_555
