# generated using pymatgen
data_NaCa(PO2)3
_symmetry_space_group_name_H-M   'P 1'
_cell_length_a   9.89348400
_cell_length_b   9.89348400
_cell_length_c   9.89348400
_cell_angle_alpha   90.00000000
_cell_angle_beta   90.00000000
_cell_angle_gamma   90.00000000
_symmetry_Int_Tables_number   1
_chemical_formula_structural   NaCa(PO2)3
_chemical_formula_sum   'Na4 Ca4 P12 O24'
_cell_volume   968.38436125
_cell_formula_units_Z   4
loop_
 _symmetry_equiv_pos_site_id
 _symmetry_equiv_pos_as_xyz
  1  'x, y, z'
loop_
 _atom_site_type_symbol
 _atom_site_label
 _atom_site_symmetry_multiplicity
 _atom_site_fract_x
 _atom_site_fract_y
 _atom_site_fract_z
 _atom_site_occupancy
  Na  Na0  1  0.87175500  0.37175500  0.12824500  1
  Na  Na1  1  0.37175500  0.12824500  0.87175500  1
  Na  Na2  1  0.12824500  0.87175500  0.37175500  1
  Na  Na3  1  0.62824500  0.62824500  0.62824500  1
  Ca  Ca0  1  0.32609900  0.82609900  0.67390100  1
  Ca  Ca1  1  0.82609900  0.67390100  0.32609900  1
  Ca  Ca2  1  0.67390100  0.32609900  0.82609900  1
  Ca  Ca3  1  0.17390100  0.17390100  0.17390100  1
  P  P0  1  0.98190900  0.69853500  0.65995300  1
  P  P1  1  0.34004700  0.48190900  0.80146500  1
  P  P2  1  0.19853500  0.84004700  0.01809100  1
  P  P3  1  0.48190900  0.80146500  0.34004700  1
  P  P4  1  0.84004700  0.01809100  0.19853500  1
  P  P5  1  0.69853500  0.65995300  0.98190900  1
  P  P6  1  0.01809100  0.19853500  0.84004700  1
  P  P7  1  0.65995300  0.98190900  0.69853500  1
  P  P8  1  0.80146500  0.34004700  0.48190900  1
  P  P9  1  0.51809100  0.30146500  0.15995300  1
  P  P10  1  0.15995300  0.51809100  0.30146500  1
  P  P11  1  0.30146500  0.15995300  0.51809100  1
  O  O0  1  0.86270900  0.69453200  0.56186900  1
  O  O1  1  0.43813100  0.36270900  0.80546800  1
  O  O2  1  0.19453200  0.93813100  0.13729100  1
  O  O3  1  0.36270900  0.80546800  0.43813100  1
  O  O4  1  0.93813100  0.13729100  0.19453200  1
  O  O5  1  0.69453200  0.56186900  0.86270900  1
  O  O6  1  0.13729100  0.19453200  0.93813100  1
  O  O7  1  0.56186900  0.86270900  0.69453200  1
  O  O8  1  0.80546800  0.43813100  0.36270900  1
  O  O9  1  0.63729100  0.30546800  0.06186900  1
  O  O10  1  0.06186900  0.63729100  0.30546800  1
  O  O11  1  0.30546800  0.06186900  0.63729100  1
  O  O12  1  0.09837300  0.78784200  0.61122500  1
  O  O13  1  0.38877500  0.59837300  0.71215800  1
  O  O14  1  0.28784200  0.88877500  0.90162700  1
  O  O15  1  0.59837300  0.71215800  0.38877500  1
  O  O16  1  0.88877500  0.90162700  0.28784200  1
  O  O17  1  0.78784200  0.61122500  0.09837300  1
  O  O18  1  0.90162700  0.28784200  0.88877500  1
  O  O19  1  0.61122500  0.09837300  0.78784200  1
  O  O20  1  0.71215800  0.38877500  0.59837300  1
  O  O21  1  0.40162700  0.21215800  0.11122500  1
  O  O22  1  0.11122500  0.40162700  0.21215800  1
  O  O23  1  0.21215800  0.11122500  0.40162700  1
loop_
_geom_bond_atom_site_label_1
_geom_bond_atom_site_label_2
_geom_bond_distance
_geom_bond_site_symmetry_2
Na0 O4 2.498435 1_555
Na0 O8 2.498435 1_555
Na0 O9 2.498435 1_555
Na0 O22 2.527773 1_655
Na0 O18 2.527773 1_554
Na0 O17 2.527773 1_555
Na1 O6 2.498435 1_555
Na1 O1 2.498435 1_555
Na1 O11 2.498435 1_555
Na1 O21 2.527773 1_556
Na1 O14 2.527773 1_545
Na1 O19 2.527773 1_555
Na2 O2 2.498435 1_555
Na2 O3 2.498435 1_555
Na2 O10 2.498435 1_555
Na2 O23 2.527773 1_565
Na2 O16 2.527773 1_455
Na2 O12 2.527773 1_555
Na3 O0 2.498435 1_555
Na3 O7 2.498435 1_555
Na3 O5 2.498435 1_555
Na3 O15 2.527773 1_555
Na3 O13 2.527773 1_555
Na3 O20 2.527773 1_555
Ca0 O12 2.367232 1_555
Ca0 O14 2.367232 1_555
Ca0 O13 2.367232 1_555
Ca0 O3 2.369348 1_555
Ca0 O7 2.369348 1_555
Ca0 O11 2.369348 1_565
Ca1 O17 2.367232 1_555
Ca1 O16 2.367232 1_555
Ca1 O15 2.367232 1_555
Ca1 O8 2.369348 1_555
Ca1 O0 2.369348 1_555
Ca1 O10 2.369348 1_655
Ca2 O19 2.367232 1_555
Ca2 O18 2.367232 1_555
Ca2 O20 2.367232 1_555
Ca2 O1 2.369348 1_555
Ca2 O5 2.369348 1_555
Ca2 O9 2.369348 1_556
Ca3 O23 2.367232 1_555
Ca3 O21 2.367232 1_555
Ca3 O22 2.367232 1_555
Ca3 O2 2.369348 1_545
Ca3 O6 2.369348 1_554
Ca3 O4 2.369348 1_455
O0 P0 1.527739 1_555
O1 P1 1.527739 1_555
O2 P2 1.527739 1_555
O3 P3 1.527739 1_555
O4 P4 1.527739 1_555
O5 P5 1.527739 1_555
O6 P6 1.527739 1_555
O7 P7 1.527739 1_555
O8 P8 1.527739 1_555
O9 P9 1.527739 1_555
O10 P10 1.527739 1_555
O11 P11 1.527739 1_555
O12 P0 1.529944 1_455
O13 P1 1.529944 1_555
O14 P2 1.529944 1_556
O15 P3 1.529944 1_555
O16 P4 1.529944 1_565
O17 P5 1.529944 1_554
O18 P6 1.529944 1_655
O19 P7 1.529944 1_545
O20 P8 1.529944 1_555
O21 P9 1.529944 1_555
O22 P10 1.529944 1_555
O23 P11 1.529944 1_555
