# generated using pymatgen
data_Li3Sb2(PO4)3
_symmetry_space_group_name_H-M   'P 1'
_cell_length_a   9.20421500
_cell_length_b   9.16816100
_cell_length_c   15.91959620
_cell_angle_alpha   54.91824263
_cell_angle_beta   90.00000000
_cell_angle_gamma   90.00000000
_symmetry_Int_Tables_number   1
_chemical_formula_structural   Li3Sb2(PO4)3
_chemical_formula_sum   'Li12 Sb8 P12 O48'
_cell_volume   1099.33731083
_cell_formula_units_Z   4
loop_
 _symmetry_equiv_pos_site_id
 _symmetry_equiv_pos_as_xyz
  1  'x, y, z'
loop_
 _atom_site_type_symbol
 _atom_site_label
 _atom_site_symmetry_multiplicity
 _atom_site_fract_x
 _atom_site_fract_y
 _atom_site_fract_z
 _atom_site_occupancy
  Li  Li0  1  0.10539300  0.21527300  0.70094500  1
  Li  Li1  1  0.72264700  0.17483300  0.74354800  1
  Li  Li2  1  0.76825900  0.61006100  0.18410200  1
  Li  Li3  1  0.26825900  0.38993900  0.31589800  1
  Li  Li4  1  0.22264700  0.82516700  0.75645200  1
  Li  Li5  1  0.60539300  0.78472700  0.79905500  1
  Li  Li6  1  0.39460700  0.21527300  0.20094500  1
  Li  Li7  1  0.77735300  0.17483300  0.24354800  1
  Li  Li8  1  0.73174100  0.61006100  0.68410200  1
  Li  Li9  1  0.23174100  0.38993900  0.81589800  1
  Li  Li10  1  0.27735300  0.82516700  0.25645200  1
  Li  Li11  1  0.89460700  0.78472700  0.29905500  1
  Sb  Sb0  1  0.45367000  0.66234200  0.09862100  1
  Sb  Sb1  1  0.04057500  0.84444700  0.90519600  1
  Sb  Sb2  1  0.54057500  0.15555300  0.59480400  1
  Sb  Sb3  1  0.95367000  0.33765800  0.40137900  1
  Sb  Sb4  1  0.04633000  0.66234200  0.59862100  1
  Sb  Sb5  1  0.45942500  0.84444700  0.40519600  1
  Sb  Sb6  1  0.95942500  0.15555300  0.09480400  1
  Sb  Sb7  1  0.54633000  0.33765800  0.90137900  1
  P  P0  1  0.39942400  0.06338300  0.83654100  1
  P  P1  1  0.08792900  0.74003400  0.16522900  1
  P  P2  1  0.58792900  0.25996600  0.33477100  1
  P  P3  1  0.89942400  0.93661700  0.66345900  1
  P  P4  1  0.10057600  0.06338300  0.33654100  1
  P  P5  1  0.41207100  0.74003400  0.66522900  1
  P  P6  1  0.91207100  0.25996600  0.83477100  1
  P  P7  1  0.60057600  0.93661700  0.16345900  1
  P  P8  1  0.23957500  0.45505500  0.49126300  1
  P  P9  1  0.73957500  0.54494500  0.00873700  1
  P  P10  1  0.26042500  0.45505500  0.99126300  1
  P  P11  1  0.76042500  0.54494500  0.50873700  1
  O  O0  1  0.86856600  0.56061200  0.43002100  1
  O  O1  1  0.71354500  0.35124600  0.59059800  1
  O  O2  1  0.90304100  0.09513200  0.82794200  1
  O  O3  1  0.59838900  0.76060300  0.16755100  1
  O  O4  1  0.37401200  0.33763200  0.55130900  1
  O  O5  1  0.25359400  0.05562900  0.79189200  1
  O  O6  1  0.17031500  0.37813300  0.43367200  1
  O  O7  1  0.41391300  0.90228600  0.95071500  1
  O  O8  1  0.05945700  0.80025800  0.05449300  1
  O  O9  1  0.23507700  0.64382600  0.20849500  1
  O  O10  1  0.95812900  0.62379700  0.23513000  1
  O  O11  1  0.53001900  0.06204500  0.77466200  1
  O  O12  1  0.03001900  0.93795500  0.72533800  1
  O  O13  1  0.45812900  0.37620300  0.26487000  1
  O  O14  1  0.73507700  0.35617400  0.29150500  1
  O  O15  1  0.55945700  0.19974200  0.44550700  1
  O  O16  1  0.91391300  0.09771400  0.54928500  1
  O  O17  1  0.67031500  0.62186700  0.06632800  1
  O  O18  1  0.75359400  0.94437100  0.70810800  1
  O  O19  1  0.87401200  0.66236800  0.94869100  1
  O  O20  1  0.09838900  0.23939700  0.33244900  1
  O  O21  1  0.40304100  0.90486800  0.67205800  1
  O  O22  1  0.21354500  0.64875400  0.90940200  1
  O  O23  1  0.36856600  0.43938800  0.06997900  1
  O  O24  1  0.63143400  0.56061200  0.93002100  1
  O  O25  1  0.78645500  0.35124600  0.09059800  1
  O  O26  1  0.59695900  0.09513200  0.32794200  1
  O  O27  1  0.90161100  0.76060300  0.66755100  1
  O  O28  1  0.12598800  0.33763200  0.05130900  1
  O  O29  1  0.24640600  0.05562900  0.29189200  1
  O  O30  1  0.32968500  0.37813300  0.93367200  1
  O  O31  1  0.08608700  0.90228600  0.45071500  1
  O  O32  1  0.44054300  0.80025800  0.55449300  1
  O  O33  1  0.26492300  0.64382600  0.70849500  1
  O  O34  1  0.54187100  0.62379700  0.73513000  1
  O  O35  1  0.96998100  0.06204500  0.27466200  1
  O  O36  1  0.46998100  0.93795500  0.22533800  1
  O  O37  1  0.04187100  0.37620300  0.76487000  1
  O  O38  1  0.76492300  0.35617400  0.79150500  1
  O  O39  1  0.94054300  0.19974200  0.94550700  1
  O  O40  1  0.58608700  0.09771400  0.04928500  1
  O  O41  1  0.82968500  0.62186700  0.56632800  1
  O  O42  1  0.74640600  0.94437100  0.20810800  1
  O  O43  1  0.62598800  0.66236800  0.44869100  1
  O  O44  1  0.40161100  0.23939700  0.83244900  1
  O  O45  1  0.09695900  0.90486800  0.17205800  1
  O  O46  1  0.28645500  0.64875400  0.40940200  1
  O  O47  1  0.13143400  0.43938800  0.56997900  1
loop_
_geom_bond_atom_site_label_1
_geom_bond_atom_site_label_2
_geom_bond_distance
_geom_bond_site_symmetry_2
Li0 O5 1.913970 1_555
Li0 O47 1.924033 1_555
Li0 O37 2.297894 1_555
Li0 O12 2.441613 1_545
Li0 O2 2.491940 1_455
Li1 O11 1.967067 1_555
Li1 O2 1.991828 1_555
Li1 O1 2.006193 1_555
Li1 O38 2.226530 1_555
Li1 O18 2.496825 1_545
Li2 O10 1.961499 1_555
Li2 O14 1.964682 1_555
Li2 O3 2.000232 1_555
Li2 O17 2.026436 1_555
Li3 O13 1.961499 1_555
Li3 O9 1.964682 1_555
Li3 O20 2.000232 1_555
Li3 O6 2.026436 1_555
Li4 O12 1.967067 1_555
Li4 O21 1.991828 1_555
Li4 O22 2.006193 1_555
Li4 O33 2.226530 1_555
Li4 O5 2.496825 1_565
Li5 O18 1.913970 1_555
Li5 O24 1.924033 1_555
Li5 O34 2.297894 1_555
Li5 O11 2.441613 1_565
Li5 O21 2.491940 1_555
Li6 O29 1.913970 1_555
Li6 O23 1.924033 1_555
Li6 O13 2.297894 1_555
Li6 O36 2.441613 1_545
Li6 O26 2.491940 1_555
Li7 O35 1.967067 1_555
Li7 O26 1.991828 1_555
Li7 O25 2.006193 1_555
Li7 O14 2.226530 1_555
Li7 O42 2.496825 1_545
Li8 O34 1.961499 1_555
Li8 O38 1.964682 1_555
Li8 O27 2.000232 1_555
Li8 O41 2.026436 1_555
Li9 O37 1.961499 1_555
Li9 O33 1.964682 1_555
Li9 O44 2.000232 1_555
Li9 O30 2.026436 1_555
Li10 O36 1.967067 1_555
Li10 O45 1.991828 1_555
Li10 O46 2.006193 1_555
Li10 O9 2.226530 1_555
Li10 O29 2.496825 1_565
Li11 O42 1.913970 1_555
Li11 O0 1.924033 1_555
Li11 O10 2.297894 1_555
Li11 O35 2.441613 1_565
Li11 O45 2.491940 1_655
O0 P11 1.541033 1_555
O0 Sb3 2.463963 1_555
O1 P11 1.542056 1_555
O1 Sb2 2.370650 1_555
O2 P6 1.578410 1_555
O2 Sb1 2.268955 1_645
O3 P7 1.577314 1_555
O3 Sb0 2.219539 1_555
O4 P8 1.555934 1_555
O4 Sb2 2.070695 1_555
O5 P0 1.539481 1_555
O5 Sb1 2.613817 1_545
O6 P8 1.577194 1_555
O6 Sb3 2.144179 1_455
O7 P0 1.554685 1_565
O7 Sb0 2.136188 1_556
O8 P1 1.537008 1_555
O8 Sb1 2.176334 1_554
O9 P1 1.545452 1_555
O9 Sb0 2.606736 1_555
O10 P1 1.561458 1_655
O10 Sb3 2.430507 1_555
O11 P0 1.558622 1_555
O11 Sb2 2.474081 1_555
O12 P3 1.558622 1_455
O12 Sb1 2.474081 1_555
O13 P2 1.561458 1_555
O13 Sb0 2.430507 1_555
O14 P2 1.545452 1_555
O14 Sb3 2.606736 1_555
O15 P2 1.537008 1_555
O15 Sb2 2.176334 1_555
O16 P3 1.554685 1_545
O16 Sb3 2.136188 1_555
O17 P9 1.577194 1_555
O17 Sb0 2.144179 1_555
O18 P3 1.539481 1_555
O18 Sb2 2.613817 1_565
O19 P9 1.555934 1_556
O19 Sb1 2.070695 1_655
O20 P4 1.577314 1_555
O20 Sb3 2.219539 1_455
O21 P5 1.578410 1_555
O21 Sb2 2.268955 1_565
O22 P10 1.542056 1_555
O22 Sb1 2.370650 1_555
O23 P10 1.541033 1_554
O23 Sb0 2.463963 1_555
O24 P9 1.541033 1_556
O24 Sb7 2.463963 1_555
O25 P9 1.542056 1_555
O25 Sb6 2.370650 1_555
O26 P2 1.578410 1_555
O26 Sb5 2.268955 1_545
O27 P3 1.577314 1_555
O27 Sb4 2.219539 1_655
O28 P10 1.555934 1_554
O28 Sb6 2.070695 1_455
O29 P4 1.539481 1_555
O29 Sb5 2.613817 1_545
O30 P10 1.577194 1_555
O30 Sb7 2.144179 1_555
O31 P4 1.554685 1_565
O31 Sb4 2.136188 1_555
O32 P5 1.537008 1_555
O32 Sb5 2.176334 1_555
O33 P5 1.545452 1_555
O33 Sb4 2.606736 1_555
O34 P5 1.561458 1_555
O34 Sb7 2.430507 1_555
O35 P4 1.558622 1_655
O35 Sb6 2.474081 1_555
O36 P7 1.558622 1_555
O36 Sb5 2.474081 1_555
O37 P6 1.561458 1_455
O37 Sb4 2.430507 1_555
O38 P6 1.545452 1_555
O38 Sb7 2.606736 1_555
O39 P6 1.537008 1_555
O39 Sb6 2.176334 1_556
O40 P7 1.554685 1_545
O40 Sb7 2.136188 1_554
O41 P11 1.577194 1_555
O41 Sb4 2.144179 1_655
O42 P7 1.539481 1_555
O42 Sb6 2.613817 1_565
O43 P11 1.555934 1_555
O43 Sb5 2.070695 1_555
O44 P0 1.577314 1_555
O44 Sb7 2.219539 1_555
O45 P1 1.578410 1_555
O45 Sb6 2.268955 1_465
O46 P8 1.542056 1_555
O46 Sb5 2.370650 1_555
O47 P8 1.541033 1_555
O47 Sb4 2.463963 1_555
