# generated using pymatgen
data_LiBiB2O5
_symmetry_space_group_name_H-M   'P 1'
_cell_length_a   7.65538081
_cell_length_b   7.65538081
_cell_length_c   10.57426132
_cell_angle_alpha   69.38086210
_cell_angle_beta   69.38086210
_cell_angle_gamma   90.19308276
_symmetry_Int_Tables_number   1
_chemical_formula_structural   LiBiB2O5
_chemical_formula_sum   'Li4 Bi4 B8 O20'
_cell_volume   537.08185059
_cell_formula_units_Z   4
loop_
 _symmetry_equiv_pos_site_id
 _symmetry_equiv_pos_as_xyz
  1  'x, y, z'
loop_
 _atom_site_type_symbol
 _atom_site_label
 _atom_site_symmetry_multiplicity
 _atom_site_fract_x
 _atom_site_fract_y
 _atom_site_fract_z
 _atom_site_occupancy
  Li  Li0  1  0.89115600  0.10884400  0.25000000  1
  Li  Li1  1  0.35677200  0.64322800  0.25000000  1
  Li  Li2  1  0.64322800  0.35677200  0.75000000  1
  Li  Li3  1  0.10884400  0.89115600  0.75000000  1
  Bi  Bi0  1  0.24370700  0.11118700  0.35701700  1
  Bi  Bi1  1  0.11118700  0.24370700  0.85701700  1
  Bi  Bi2  1  0.88881300  0.75629300  0.14298300  1
  Bi  Bi3  1  0.75629300  0.88881300  0.64298300  1
  B  B0  1  0.65068500  0.14589700  0.12122500  1
  B  B1  1  0.39370300  0.21363000  0.01325200  1
  B  B2  1  0.14589700  0.65068500  0.62122500  1
  B  B3  1  0.21363000  0.39370300  0.51325200  1
  B  B4  1  0.78637000  0.60629700  0.48674800  1
  B  B5  1  0.85410300  0.34931500  0.37877500  1
  B  B6  1  0.60629700  0.78637000  0.98674800  1
  B  B7  1  0.34931500  0.85410300  0.87877500  1
  O  O0  1  0.83720300  0.11782200  0.08375500  1
  O  O1  1  0.54433900  0.10030200  0.26560100  1
  O  O2  1  0.11782200  0.83720300  0.58375500  1
  O  O3  1  0.23347900  0.15127800  0.13714100  1
  O  O4  1  0.61040600  0.72177100  0.12492900  1
  O  O5  1  0.10030200  0.54433900  0.76560100  1
  O  O6  1  0.21879600  0.58134000  0.50832600  1
  O  O7  1  0.41866000  0.78120400  0.99167400  1
  O  O8  1  0.15127800  0.23347900  0.63714100  1
  O  O9  1  0.72177100  0.61040600  0.62492900  1
  O  O10  1  0.27822900  0.38959400  0.37507100  1
  O  O11  1  0.84872200  0.76652100  0.36285900  1
  O  O12  1  0.58134000  0.21879600  0.00832600  1
  O  O13  1  0.78120400  0.41866000  0.49167400  1
  O  O14  1  0.89969800  0.45566100  0.23439900  1
  O  O15  1  0.38959400  0.27822900  0.87507100  1
  O  O16  1  0.76652100  0.84872200  0.86285900  1
  O  O17  1  0.88217800  0.16279700  0.41624500  1
  O  O18  1  0.45566100  0.89969800  0.73439900  1
  O  O19  1  0.16279700  0.88217800  0.91624500  1
loop_
_geom_bond_atom_site_label_1
_geom_bond_atom_site_label_2
_geom_bond_distance
_geom_bond_site_symmetry_2
Li0 O17 1.921476 1_555
Li0 O0 1.921476 1_555
Li0 O11 2.432258 1_545
Li0 O3 2.432258 1_655
Li1 O4 1.871936 1_555
Li1 O10 1.871936 1_555
Li1 O6 2.419674 1_555
Li1 O7 2.419674 1_554
Li2 O15 1.871936 1_555
Li2 O9 1.871936 1_555
Li2 O13 2.419674 1_555
Li2 O12 2.419674 1_556
Li3 O19 1.921476 1_555
Li3 O2 1.921476 1_555
Li3 O16 2.432258 1_455
Li3 O8 2.432258 1_565
Bi0 O1 2.174670 1_555
Bi0 O10 2.228697 1_555
Bi0 O3 2.265364 1_555
Bi0 O2 2.427681 1_545
Bi0 O17 2.677502 1_455
Bi1 O5 2.174670 1_555
Bi1 O15 2.228697 1_555
Bi1 O8 2.265364 1_555
Bi1 O0 2.427681 1_456
Bi1 O19 2.677502 1_545
Bi2 O14 2.174670 1_555
Bi2 O4 2.228697 1_555
Bi2 O11 2.265364 1_555
Bi2 O19 2.427681 1_654
Bi2 O0 2.677502 1_565
Bi3 O18 2.174670 1_555
Bi3 O9 2.228697 1_555
Bi3 O16 2.265364 1_555
Bi3 O17 2.427681 1_565
Bi3 O2 2.677502 1_655
B0 O1 1.364822 1_555
B0 O0 1.380423 1_555
B0 O12 1.413362 1_555
B1 O3 1.368370 1_555
B1 O15 1.379889 1_554
B1 O12 1.418832 1_555
B2 O5 1.364822 1_555
B2 O2 1.380423 1_555
B2 O6 1.413362 1_555
B3 O8 1.368370 1_555
B3 O10 1.379889 1_555
B3 O6 1.418832 1_555
B4 O11 1.368370 1_555
B4 O9 1.379889 1_555
B4 O13 1.418832 1_555
B5 O14 1.364822 1_555
B5 O17 1.380423 1_555
B5 O13 1.413362 1_555
B6 O16 1.368370 1_555
B6 O4 1.379889 1_556
B6 O7 1.418832 1_555
B7 O18 1.364822 1_555
B7 O19 1.380423 1_555
B7 O7 1.413362 1_555
