# generated using pymatgen
data_Li2CoOF3
_symmetry_space_group_name_H-M   'P 1'
_cell_length_a   5.89458800
_cell_length_b   5.89458300
_cell_length_c   8.58897100
_cell_angle_alpha   89.99975453
_cell_angle_beta   89.99945833
_cell_angle_gamma   90.00163297
_symmetry_Int_Tables_number   1
_chemical_formula_structural   Li2CoOF3
_chemical_formula_sum   'Li8 Co4 O4 F12'
_cell_volume   298.43357346
_cell_formula_units_Z   4
loop_
 _symmetry_equiv_pos_site_id
 _symmetry_equiv_pos_as_xyz
  1  'x, y, z'
loop_
 _atom_site_type_symbol
 _atom_site_label
 _atom_site_symmetry_multiplicity
 _atom_site_fract_x
 _atom_site_fract_y
 _atom_site_fract_z
 _atom_site_occupancy
  Li  Li0  1  0.24169600  0.25711400  0.37506300  1
  Li  Li1  1  0.25711100  0.75830900  0.12505600  1
  Li  Li2  1  0.74288900  0.24169000  0.62505600  1
  Li  Li3  1  0.75830000  0.74289400  0.87506400  1
  Li  Li4  1  0.25891000  0.49955200  0.75052000  1
  Li  Li5  1  0.50044600  0.25890900  0.00052400  1
  Li  Li6  1  0.49955600  0.74109000  0.50052700  1
  Li  Li7  1  0.74108900  0.50045100  0.25052100  1
  Co  Co0  1  0.24037300  0.98323100  0.76129600  1
  Co  Co1  1  0.75962200  0.01677100  0.26129500  1
  Co  Co2  1  0.01676800  0.24038000  0.01129600  1
  Co  Co3  1  0.98323400  0.75961600  0.51129700  1
  O  O0  1  0.02800600  0.77272700  0.73219000  1
  O  O1  1  0.22726400  0.02801200  0.98218800  1
  O  O2  1  0.77273800  0.97198200  0.48218700  1
  O  O3  1  0.97199000  0.22727300  0.23218700  1
  F  F0  1  0.01050800  0.25813100  0.76024100  1
  F  F1  1  0.25813500  0.98948400  0.51024100  1
  F  F2  1  0.74185500  0.01051900  0.01024100  1
  F  F3  1  0.98949000  0.74186800  0.26023700  1
  F  F4  1  0.24817100  0.49158700  0.99558900  1
  F  F5  1  0.49158300  0.75184200  0.74559200  1
  F  F6  1  0.50841900  0.24816700  0.24559400  1
  F  F7  1  0.75183900  0.50840800  0.49559000  1
  F  F8  1  0.23305200  0.53011600  0.50010600  1
  F  F9  1  0.46987300  0.23305100  0.75010100  1
  F  F10  1  0.53012900  0.76694800  0.25010700  1
  F  F11  1  0.76695700  0.46988200  0.00009900  1
loop_
_geom_bond_atom_site_label_1
_geom_bond_atom_site_label_2
_geom_bond_distance
_geom_bond_site_symmetry_2
Li0 O3 2.016026 1_455
Li1 O1 2.015968 1_564
Li2 O2 2.016004 1_545
Li3 O0 2.015993 1_655
Li4 O0 2.114326 1_555
Li5 O1 2.114277 1_554
Li6 O2 2.114258 1_555
Li7 O3 2.114330 1_555
Co0 O0 1.780204 1_555
Co0 O1 1.917069 1_565
Co0 F9 2.001930 1_565
Co0 F5 2.017759 1_555
Co0 F0 2.112318 1_565
Co0 F1 2.159158 1_555
Co1 O3 1.780197 1_555
Co1 O2 1.917076 1_545
Co1 F10 2.001914 1_545
Co1 F6 2.017756 1_555
Co1 F3 2.112343 1_545
Co1 F2 2.159153 1_555
Co2 O1 1.780224 1_554
Co2 O3 1.917053 1_455
Co2 F11 2.001958 1_455
Co2 F4 2.017745 1_554
Co2 F2 2.112303 1_455
Co2 F0 2.159157 1_554
Co3 O2 1.780220 1_555
Co3 O0 1.917072 1_655
Co3 F8 2.001977 1_655
Co3 F7 2.017720 1_555
Co3 F1 2.112275 1_655
Co3 F3 2.159198 1_555
F0 Li2 1.961145 1_455
F0 Li4 2.043516 1_555
F1 Li0 1.961152 1_565
F1 Li6 2.043538 1_555
F2 Li3 1.961132 1_544
F2 Li5 2.043474 1_555
F3 Li1 1.961116 1_655
F3 Li7 2.043495 1_555
F4 Li1 1.926439 1_556
F4 Li5 2.023456 1_556
F4 Li4 2.106365 1_555
F5 Li3 1.926449 1_555
F5 Li4 2.023442 1_555
F5 Li6 2.106334 1_555
F6 Li0 1.926446 1_555
F6 Li7 2.023404 1_555
F6 Li5 2.106376 1_555
F7 Li2 1.926408 1_555
F7 Li6 2.023507 1_555
F7 Li7 2.106367 1_555
F8 Li0 1.935381 1_555
F8 Li6 2.003566 1_555
F8 Li4 2.163707 1_555
F9 Li2 1.935445 1_555
F9 Li4 2.003567 1_555
F9 Li5 2.163790 1_556
F10 Li1 1.935501 1_555
F10 Li7 2.003538 1_555
F10 Li6 2.163759 1_555
F11 Li3 1.935387 1_554
F11 Li5 2.003595 1_555
F11 Li7 2.163781 1_555
