# generated using pymatgen
data_LiMn3(PO4)3
_symmetry_space_group_name_H-M   'P 1'
_cell_length_a   8.60220400
_cell_length_b   9.04040851
_cell_length_c   12.59658750
_cell_angle_alpha   104.83539483
_cell_angle_beta   100.39339996
_cell_angle_gamma   103.42831166
_symmetry_Int_Tables_number   1
_chemical_formula_structural   LiMn3(PO4)3
_chemical_formula_sum   'Li4 Mn12 P12 O48'
_cell_volume   890.58458597
_cell_formula_units_Z   4
loop_
 _symmetry_equiv_pos_site_id
 _symmetry_equiv_pos_as_xyz
  1  'x, y, z'
loop_
 _atom_site_type_symbol
 _atom_site_label
 _atom_site_symmetry_multiplicity
 _atom_site_fract_x
 _atom_site_fract_y
 _atom_site_fract_z
 _atom_site_occupancy
  Li  Li0  1  0.49245700  0.26201800  0.76103800  1
  Li  Li1  1  0.50114400  0.00044600  0.50235800  1
  Li  Li2  1  0.50861700  0.73916900  0.23898500  1
  Li  Li3  1  0.98688500  0.12835000  0.11743300  1
  Mn  Mn0  1  0.61300200  0.89096900  0.95743700  1
  Mn  Mn1  1  0.26476600  0.49525200  0.76163800  1
  Mn  Mn2  1  0.93241100  0.48206700  0.86669300  1
  Mn  Mn3  1  0.06723100  0.01834200  0.63347300  1
  Mn  Mn4  1  0.38399700  0.60726900  0.54136300  1
  Mn  Mn5  1  0.73558700  0.00286900  0.74245100  1
  Mn  Mn6  1  0.27293000  0.99074600  0.25915900  1
  Mn  Mn7  1  0.61459400  0.39452300  0.45975200  1
  Mn  Mn8  1  0.93548300  0.98583700  0.37010200  1
  Mn  Mn9  1  0.06535700  0.52020500  0.13057600  1
  Mn  Mn10  1  0.73340000  0.50683000  0.24014400  1
  Mn  Mn11  1  0.38287400  0.10345700  0.03808800  1
  P  P0  1  0.13075100  0.23570200  0.88825500  1
  P  P1  1  0.34834800  0.88123600  0.74774200  1
  P  P2  1  0.70824400  0.26707300  0.97991400  1
  P  P3  1  0.65062000  0.61543000  0.74926900  1
  P  P4  1  0.13392500  0.73993700  0.39172200  1
  P  P5  1  0.28906500  0.23054600  0.51953500  1
  P  P6  1  0.71118700  0.76979500  0.48051000  1
  P  P7  1  0.86565900  0.26036800  0.60893400  1
  P  P8  1  0.34471900  0.37985200  0.24973400  1
  P  P9  1  0.29148600  0.73275300  0.01996500  1
  P  P10  1  0.65335600  0.11942200  0.24995100  1
  P  P11  1  0.87053700  0.76903100  0.11351700  1
  O  O0  1  0.04689500  0.36170800  0.94920400  1
  O  O1  1  0.40806700  0.92654200  0.88183600  1
  O  O2  1  0.16994400  0.63380900  0.90274900  1
  O  O3  1  0.18125900  0.15294000  0.97720300  1
  O  O4  1  0.17751600  0.90735900  0.71838700  1
  O  O5  1  0.53152800  0.25987900  0.99298900  1
  O  O6  1  0.27231400  0.31498500  0.84569300  1
  O  O7  1  0.47688300  0.98615100  0.70670900  1
  O  O8  1  0.99722700  0.38322200  0.71487700  1
  O  O9  1  0.66912200  0.79612800  0.80029400  1
  O  O10  1  0.33001800  0.70060800  0.69991300  1
  O  O11  1  0.52165400  0.50730900  0.78676200  1
  O  O12  1  0.72508400  0.34475200  0.88412800  1
  O  O13  1  0.04364000  0.85935100  0.45144400  1
  O  O14  1  0.74134400  0.10065700  0.93949800  1
  O  O15  1  0.82274000  0.59222100  0.78068300  1
  O  O16  1  0.18726300  0.65015700  0.47368900  1
  O  O17  1  0.26785400  0.39818400  0.56686400  1
  O  O18  1  0.83277700  0.86519000  0.59823500  1
  O  O19  1  0.59341600  0.57458500  0.61510700  1
  O  O20  1  0.27556900  0.14658400  0.61291800  1
  O  O21  1  0.53444500  0.76999900  0.49531000  1
  O  O22  1  0.28281300  0.83627000  0.36198700  1
  O  O23  1  0.01160700  0.89649900  0.21271800  1
  O  O24  1  0.99339800  0.10948600  0.78662200  1
  O  O25  1  0.71841900  0.16346800  0.63969700  1
  O  O26  1  0.46513100  0.22945100  0.50239800  1
  O  O27  1  0.72723000  0.85263600  0.38632400  1
  O  O28  1  0.40098500  0.42534400  0.38372900  1
  O  O29  1  0.16669400  0.13430400  0.40152900  1
  O  O30  1  0.73083500  0.60079300  0.43249400  1
  O  O31  1  0.81147900  0.34801600  0.52557100  1
  O  O32  1  0.16580800  0.39069300  0.20971000  1
  O  O33  1  0.26439500  0.90088600  0.06437000  1
  O  O34  1  0.95723300  0.14128600  0.54984800  1
  O  O35  1  0.27368200  0.65708100  0.11758400  1
  O  O36  1  0.47155100  0.48913100  0.21174400  1
  O  O37  1  0.66856500  0.29902500  0.29860700  1
  O  O38  1  0.32539100  0.19826800  0.20114500  1
  O  O39  1  0.00346400  0.61788000  0.28491700  1
  O  O40  1  0.53085300  0.01277000  0.29382200  1
  O  O41  1  0.73042500  0.68710300  0.15602100  1
  O  O42  1  0.46878500  0.73892200  0.00816900  1
  O  O43  1  0.82720400  0.09498200  0.27555200  1
  O  O44  1  0.81929100  0.86763100  0.03517700  1
  O  O45  1  0.83281800  0.36353700  0.09809400  1
  O  O46  1  0.59125600  0.07266300  0.11632100  1
  O  O47  1  0.95002700  0.64279200  0.04888700  1
loop_
_geom_bond_atom_site_label_1
_geom_bond_atom_site_label_2
_geom_bond_distance
_geom_bond_site_symmetry_2
Li0 O11 2.104641 1_555
Li0 O12 2.135276 1_555
Li0 O20 2.212188 1_555
Li0 O7 2.375671 1_545
Li0 O6 2.416792 1_555
Li1 O21 2.149855 1_545
Li1 O26 2.163218 1_555
Li1 O25 2.215082 1_555
Li1 O22 2.240525 1_545
Li2 O36 2.134852 1_555
Li2 O35 2.140268 1_555
Li2 O27 2.214302 1_555
Li2 O40 2.342950 1_565
Li2 O41 2.416407 1_555
Li3 O44 2.310773 1_545
Li3 O32 2.364804 1_655
Mn0 O42 1.944407 1_556
Mn0 O44 1.950681 1_556
Mn0 O1 1.983059 1_555
Mn0 O14 2.049587 1_565
Mn0 O9 2.134104 1_555
Mn0 O46 2.309330 1_566
Mn1 O11 2.147882 1_555
Mn1 O6 2.165439 1_555
Mn1 O10 2.186062 1_555
Mn1 O8 2.189079 1_455
Mn1 O2 2.291602 1_555
Mn1 O17 2.392109 1_555
Mn2 O15 1.917186 1_555
Mn2 O0 1.985342 1_655
Mn2 O12 2.005660 1_555
Mn2 O2 2.075442 1_655
Mn2 O8 2.123101 1_555
Mn2 O47 2.337937 1_556
Mn3 O4 1.917374 1_545
Mn3 O34 1.992161 1_455
Mn3 O20 1.994776 1_555
Mn3 O18 2.060805 1_445
Mn3 O24 2.162201 1_455
Mn3 O13 2.318115 1_545
Mn4 O16 1.922119 1_555
Mn4 O19 1.994861 1_555
Mn4 O21 1.999833 1_555
Mn4 O17 2.055206 1_555
Mn4 O10 2.137755 1_555
Mn4 O28 2.283222 1_555
Mn5 O24 2.108155 1_555
Mn5 O7 2.150694 1_545
Mn5 O9 2.168499 1_545
Mn5 O25 2.190447 1_555
Mn5 O18 2.328468 1_545
Mn5 O14 2.399281 1_555
Mn6 O23 2.121830 1_555
Mn6 O40 2.133943 1_565
Mn6 O22 2.139390 1_555
Mn6 O38 2.164536 1_565
Mn6 O33 2.360599 1_555
Mn6 O29 2.384536 1_565
Mn7 O31 1.932664 1_555
Mn7 O26 1.984243 1_555
Mn7 O28 2.027477 1_555
Mn7 O30 2.044705 1_555
Mn7 O37 2.170273 1_555
Mn7 O19 2.268863 1_555
Mn8 O43 1.971821 1_565
Mn8 O27 1.989276 1_555
Mn8 O13 1.993289 1_655
Mn8 O29 2.029279 1_665
Mn8 O23 2.214844 1_655
Mn8 O34 2.287377 1_565
Mn9 O32 1.966715 1_555
Mn9 O35 1.987213 1_555
Mn9 O47 1.999393 1_455
Mn9 O45 2.065640 1_455
Mn9 O39 2.134410 1_555
Mn9 O0 2.320576 1_554
Mn10 O41 2.161838 1_555
Mn10 O36 2.177106 1_555
Mn10 O37 2.180071 1_555
Mn10 O39 2.208401 1_655
Mn10 O45 2.343284 1_555
Mn10 O30 2.359405 1_555
Mn11 O5 1.947122 1_554
Mn11 O3 1.962739 1_554
Mn11 O46 1.999189 1_555
Mn11 O33 2.016782 1_545
Mn11 O38 2.204477 1_555
Mn11 O1 2.276363 1_544
O0 P0 1.594067 1_555
O1 P1 1.587362 1_555
O2 P9 1.551020 1_556
O3 P0 1.551966 1_555
O4 P1 1.536839 1_555
O5 P2 1.546643 1_555
O6 P0 1.520216 1_555
O7 P1 1.536057 1_555
O8 P7 1.551647 1_555
O9 P3 1.552965 1_555
O10 P1 1.548131 1_555
O11 P3 1.526768 1_555
O12 P2 1.555533 1_555
O13 P4 1.587106 1_555
O14 P2 1.569308 1_555
O15 P3 1.538905 1_555
O16 P4 1.538355 1_555
O17 P5 1.546129 1_555
O18 P6 1.550270 1_555
O19 P3 1.590764 1_555
O20 P5 1.561701 1_555
O21 P6 1.565146 1_555
O22 P4 1.536612 1_555
O23 P11 1.558207 1_455
O24 P0 1.554668 1_655
O25 P7 1.535383 1_555
O26 P5 1.569844 1_555
O27 P6 1.566396 1_555
O28 P8 1.584188 1_555
O29 P5 1.556421 1_555
O30 P6 1.553163 1_555
O31 P7 1.539087 1_555
O32 P8 1.564543 1_555
O33 P9 1.566438 1_555
O34 P7 1.590143 1_555
O35 P9 1.566398 1_555
O36 P8 1.524867 1_555
O37 P10 1.546581 1_555
O38 P8 1.555340 1_555
O39 P4 1.551430 1_555
O40 P10 1.535116 1_555
O41 P11 1.519607 1_555
O42 P9 1.548488 1_555
O43 P10 1.550874 1_555
O44 P11 1.561633 1_555
O45 P2 1.565421 1_554
O46 P10 1.582338 1_555
O47 P11 1.587556 1_555
