# generated using pymatgen
data_Li3Mn2(SiO4)2
_symmetry_space_group_name_H-M   'P 1'
_cell_length_a   10.77408200
_cell_length_b   5.08299700
_cell_length_c   6.36313302
_cell_angle_alpha   89.67874166
_cell_angle_beta   90.00000000
_cell_angle_gamma   90.00000000
_symmetry_Int_Tables_number   1
_chemical_formula_structural   Li3Mn2(SiO4)2
_chemical_formula_sum   'Li6 Mn4 Si4 O16'
_cell_volume   348.46912555
_cell_formula_units_Z   2
loop_
 _symmetry_equiv_pos_site_id
 _symmetry_equiv_pos_as_xyz
  1  'x, y, z'
loop_
 _atom_site_type_symbol
 _atom_site_label
 _atom_site_symmetry_multiplicity
 _atom_site_fract_x
 _atom_site_fract_y
 _atom_site_fract_z
 _atom_site_occupancy
  Li  Li0  1  0.91284800  0.57183000  0.75321400  1
  Li  Li1  1  0.41284800  0.42817000  0.24678600  1
  Li  Li2  1  0.08201400  0.91751200  0.24955000  1
  Li  Li3  1  0.58854600  0.06615400  0.24967600  1
  Li  Li4  1  0.58201500  0.08248800  0.75045000  1
  Li  Li5  1  0.08854600  0.93384600  0.75032400  1
  Mn  Mn0  1  0.15953200  0.43496200  0.49563000  1
  Mn  Mn1  1  0.65953200  0.56503800  0.50437000  1
  Mn  Mn2  1  0.34289200  0.91864300  0.98922300  1
  Mn  Mn3  1  0.84289200  0.08135700  0.01077700  1
  Si  Si0  1  0.83273600  0.08090800  0.50707500  1
  Si  Si1  1  0.33273600  0.91909200  0.49292500  1
  Si  Si2  1  0.66919000  0.58140100  0.99936400  1
  Si  Si3  1  0.16919000  0.41859900  0.00063600  1
  O  O0  1  0.40925400  0.99645500  0.70512400  1
  O  O1  1  0.90615200  0.96948900  0.71881100  1
  O  O2  1  0.82381000  0.40583400  0.52398700  1
  O  O3  1  0.18731900  0.03007100  0.49975800  1
  O  O4  1  0.68731900  0.96992900  0.50024200  1
  O  O5  1  0.32381000  0.59416600  0.47601300  1
  O  O6  1  0.90925400  0.00354500  0.29487600  1
  O  O7  1  0.40615200  0.03051100  0.28118900  1
  O  O8  1  0.09967100  0.52849500  0.21588800  1
  O  O9  1  0.59672900  0.46831800  0.21361600  1
  O  O10  1  0.81299800  0.47361600  0.99532800  1
  O  O11  1  0.66493100  0.90618800  0.00133500  1
  O  O12  1  0.31299800  0.52638400  0.00467200  1
  O  O13  1  0.16493100  0.09381200  0.99866500  1
  O  O14  1  0.59967100  0.47150500  0.78411200  1
  O  O15  1  0.09672900  0.53168200  0.78638400  1
loop_
_geom_bond_atom_site_label_1
_geom_bond_atom_site_label_2
_geom_bond_distance
_geom_bond_site_symmetry_2
Li0 O10 1.942006 1_555
Li0 O2 1.942552 1_555
Li0 O15 2.002664 1_655
Li0 O1 2.033179 1_555
Li1 O12 1.942006 1_555
Li1 O5 1.942552 1_555
Li1 O9 2.002664 1_555
Li1 O7 2.033179 1_555
Li2 O6 1.934007 1_465
Li2 O8 1.999205 1_555
Li2 O13 2.033134 1_564
Li2 O3 2.039509 1_565
Li3 O11 1.962132 1_545
Li3 O4 1.976119 1_545
Li3 O7 1.983520 1_555
Li3 O9 2.057647 1_555
Li4 O0 1.934018 1_545
Li4 O14 1.999204 1_555
Li4 O11 2.033129 1_546
Li4 O4 2.039503 1_545
Li5 O13 1.962132 1_565
Li5 O3 1.976119 1_565
Li5 O1 1.983520 1_455
Li5 O15 2.057647 1_555
Mn0 O8 1.949622 1_555
Mn0 O5 1.949875 1_555
Mn0 O15 2.032889 1_555
Mn0 O3 2.079741 1_555
Mn1 O14 1.949622 1_555
Mn1 O2 1.949875 1_555
Mn1 O9 2.032889 1_555
Mn1 O4 2.079741 1_555
Mn2 O0 1.981823 1_555
Mn2 O12 2.021545 1_556
Mn2 O7 2.061845 1_566
Mn2 O13 2.115014 1_565
Mn3 O6 1.981823 1_555
Mn3 O10 2.021545 1_554
Mn3 O1 2.061845 1_544
Mn3 O11 2.115014 1_545
O0 Si1 1.631998 1_555
O1 Si0 1.659241 1_565
O2 Si0 1.658493 1_555
O3 Si1 1.665845 1_545
O4 Si0 1.665845 1_565
O5 Si1 1.658493 1_555
O6 Si0 1.631998 1_555
O7 Si1 1.659241 1_545
O8 Si3 1.660613 1_555
O9 Si2 1.670247 1_554
O10 Si2 1.643660 1_555
O11 Si2 1.651647 1_554
O12 Si3 1.643660 1_555
O13 Si3 1.651647 1_556
O14 Si2 1.660613 1_555
O15 Si3 1.670247 1_556
