# generated using pymatgen
data_Li2Cu3F8
_symmetry_space_group_name_H-M   'P 1'
_cell_length_a   5.82519800
_cell_length_b   6.02534727
_cell_length_c   6.02803223
_cell_angle_alpha   61.81691219
_cell_angle_beta   63.98098857
_cell_angle_gamma   61.41209365
_symmetry_Int_Tables_number   1
_chemical_formula_structural   Li2Cu3F8
_chemical_formula_sum   'Li2 Cu3 F8'
_cell_volume   157.45300980
_cell_formula_units_Z   1
loop_
 _symmetry_equiv_pos_site_id
 _symmetry_equiv_pos_as_xyz
  1  'x, y, z'
loop_
 _atom_site_type_symbol
 _atom_site_label
 _atom_site_symmetry_multiplicity
 _atom_site_fract_x
 _atom_site_fract_y
 _atom_site_fract_z
 _atom_site_occupancy
  Li  Li0  1  0.57569200  0.12728600  0.13484600  1
  Li  Li1  1  0.42430800  0.87271400  0.86515400  1
  Cu  Cu0  1  0.00000000  0.00000000  0.50000000  1
  Cu  Cu1  1  0.00000000  0.50000000  0.00000000  1
  Cu  Cu2  1  0.00000000  0.50000000  0.50000000  1
  F  F0  1  0.24565700  0.13881200  0.05829300  1
  F  F1  1  0.77821100  0.44297300  0.87103600  1
  F  F2  1  0.78860800  0.38155300  0.43836500  1
  F  F3  1  0.76219300  0.94999800  0.40506700  1
  F  F4  1  0.23780700  0.05000200  0.59493300  1
  F  F5  1  0.21139200  0.61844700  0.56163500  1
  F  F6  1  0.22178900  0.55702700  0.12896400  1
  F  F7  1  0.75434300  0.86118800  0.94170700  1
loop_
_geom_bond_atom_site_label_1
_geom_bond_atom_site_label_2
_geom_bond_distance
_geom_bond_site_symmetry_2
Cu0 F4 1.896048 1_555
Cu0 F3 1.896048 1_445
Cu0 F2 1.955767 1_455
Cu0 F5 1.955767 1_545
Cu0 F7 2.352844 1_445
Cu0 F0 2.352844 1_555
Cu1 F0 1.909417 1_555
Cu1 F7 1.909417 1_454
Cu1 F6 1.987442 1_555
Cu1 F1 1.987442 1_454
Cu1 F5 2.283252 1_554
Cu1 F2 2.283252 1_455
Cu2 F5 1.912235 1_555
Cu2 F2 1.912235 1_455
Cu2 F1 1.988323 1_455
Cu2 F6 1.988323 1_555
Cu2 F3 2.287668 1_455
Cu2 F4 2.287668 1_555
F0 Li1 2.027948 1_544
F0 Li0 2.129356 1_555
F1 Li0 2.276632 1_556
F1 Li1 2.413452 1_555
F3 Li0 1.942431 1_565
F4 Li1 1.942431 1_545
F6 Li1 2.276632 1_554
F6 Li0 2.413452 1_555
F7 Li0 2.027948 1_566
F7 Li1 2.129356 1_555
