# generated using pymatgen
data_Li3MnBAsO7
_symmetry_space_group_name_H-M   'P 1'
_cell_length_a   5.08608343
_cell_length_b   10.90132797
_cell_length_c   10.90057744
_cell_angle_alpha   102.24209094
_cell_angle_beta   94.29845059
_cell_angle_gamma   85.70356134
_symmetry_Int_Tables_number   1
_chemical_formula_structural   Li3MnBAsO7
_chemical_formula_sum   'Li12 Mn4 B4 As4 O28'
_cell_volume   587.89708864
_cell_formula_units_Z   4
loop_
 _symmetry_equiv_pos_site_id
 _symmetry_equiv_pos_as_xyz
  1  'x, y, z'
loop_
 _atom_site_type_symbol
 _atom_site_label
 _atom_site_symmetry_multiplicity
 _atom_site_fract_x
 _atom_site_fract_y
 _atom_site_fract_z
 _atom_site_occupancy
  Li  Li0  1  0.77085800  0.17327900  0.07665300  1
  Li  Li1  1  0.77090400  0.67329200  0.57669300  1
  Li  Li2  1  0.22913600  0.82672000  0.92335200  1
  Li  Li3  1  0.22906600  0.32670900  0.42330500  1
  Li  Li4  1  0.24933300  0.11679000  0.88428300  1
  Li  Li5  1  0.24932400  0.61690200  0.38429400  1
  Li  Li6  1  0.24938300  0.36561600  0.13306300  1
  Li  Li7  1  0.24948100  0.86567900  0.63306600  1
  Li  Li8  1  0.75057600  0.63438900  0.86693700  1
  Li  Li9  1  0.75055400  0.13431800  0.36692900  1
  Li  Li10  1  0.75068500  0.88322300  0.11571900  1
  Li  Li11  1  0.75064700  0.38309700  0.61570400  1
  Mn  Mn0  1  0.78526200  0.03242100  0.71754200  1
  Mn  Mn1  1  0.21481000  0.96755200  0.28248500  1
  Mn  Mn2  1  0.78496900  0.53232800  0.21758100  1
  Mn  Mn3  1  0.21498400  0.46767500  0.78241300  1
  B  B0  1  0.69947600  0.39433300  0.35566900  1
  B  B1  1  0.69960000  0.89443300  0.85564400  1
  B  B2  1  0.30048900  0.60566800  0.64432800  1
  B  B3  1  0.30042100  0.10556800  0.14436100  1
  As  As0  1  0.74379200  0.33352500  0.91648900  1
  As  As1  1  0.74382300  0.83347200  0.41655200  1
  As  As2  1  0.25617900  0.66647200  0.08350800  1
  As  As3  1  0.25623400  0.16652900  0.58344800  1
  O  O0  1  0.37178500  0.18013300  0.06977000  1
  O  O1  1  0.37188500  0.68018800  0.56974100  1
  O  O2  1  0.62818500  0.81988100  0.93022300  1
  O  O3  1  0.62808900  0.31981400  0.43025700  1
  O  O4  1  0.95609400  0.41737000  0.33264200  1
  O  O5  1  0.95625500  0.91749400  0.83262000  1
  O  O6  1  0.04386900  0.58263200  0.66735000  1
  O  O7  1  0.04379300  0.08249100  0.16740000  1
  O  O8  1  0.50964200  0.46118500  0.28871300  1
  O  O9  1  0.50979400  0.96125400  0.78869600  1
  O  O10  1  0.49031700  0.53881800  0.71128800  1
  O  O11  1  0.49027600  0.03875800  0.21128700  1
  O  O12  1  0.40573300  0.35779200  0.89233300  1
  O  O13  1  0.40575800  0.85768600  0.39250600  1
  O  O14  1  0.59423700  0.64220700  0.10766300  1
  O  O15  1  0.59430300  0.14231300  0.60750300  1
  O  O16  1  0.12945700  0.57604100  0.17387500  1
  O  O17  1  0.12951300  0.07607500  0.67382500  1
  O  O18  1  0.87050500  0.42396300  0.82612300  1
  O  O19  1  0.87055400  0.92392000  0.32617900  1
  O  O20  1  0.83954200  0.17637800  0.88337800  1
  O  O21  1  0.83948800  0.67633700  0.38345700  1
  O  O22  1  0.83966700  0.36636900  0.07364000  1
  O  O23  1  0.83971800  0.86639200  0.57368200  1
  O  O24  1  0.16029300  0.63363300  0.92635800  1
  O  O25  1  0.16030700  0.13360100  0.42631300  1
  O  O26  1  0.16045200  0.82362100  0.11661800  1
  O  O27  1  0.16050500  0.32366300  0.61654500  1
loop_
_geom_bond_atom_site_label_1
_geom_bond_atom_site_label_2
_geom_bond_distance
_geom_bond_site_symmetry_2
Li0 O7 1.971937 1_655
Li0 O0 2.021830 1_555
Li0 O22 2.166965 1_555
Li0 O20 2.168893 1_554
Li1 O6 1.970714 1_655
Li1 O1 2.021519 1_555
Li1 O23 2.167073 1_555
Li1 O21 2.168217 1_555
Li2 O5 1.971589 1_455
Li2 O2 2.021717 1_555
Li2 O24 2.166955 1_555
Li2 O26 2.168796 1_556
Li3 O4 1.970779 1_455
Li3 O3 2.021540 1_555
Li3 O25 2.167086 1_555
Li3 O27 2.168235 1_555
Li4 O0 2.058256 1_556
Li4 O20 2.136085 1_455
Li4 O9 2.199226 1_545
Li4 O17 2.287024 1_555
Li5 O1 2.057916 1_555
Li5 O21 2.135920 1_455
Li5 O8 2.200016 1_555
Li5 O16 2.286675 1_555
Li6 O0 2.058216 1_555
Li6 O22 2.135280 1_455
Li6 O8 2.199233 1_555
Li6 O16 2.286972 1_555
Li7 O1 2.058348 1_555
Li7 O23 2.135412 1_455
Li7 O9 2.199279 1_555
Li7 O17 2.286717 1_565
Li8 O2 2.058278 1_555
Li8 O24 2.135280 1_655
Li8 O10 2.199233 1_555
Li8 O18 2.286985 1_555
Li9 O3 2.058481 1_555
Li9 O25 2.135364 1_655
Li9 O11 2.199199 1_555
Li9 O19 2.286771 1_545
Li10 O2 2.058403 1_554
Li10 O26 2.136004 1_655
Li10 O11 2.198992 1_565
Li10 O19 2.287095 1_555
Li11 O3 2.057907 1_555
Li11 O27 2.136024 1_655
Li11 O10 2.200090 1_555
Li11 O18 2.286666 1_555
Mn0 O9 1.935813 1_545
Mn0 O17 1.966028 1_655
Mn0 O15 2.019311 1_555
Mn0 O5 2.058947 1_545
Mn0 O20 2.143321 1_555
Mn0 O23 2.144301 1_545
Mn1 O11 1.936294 1_565
Mn1 O19 1.965875 1_455
Mn1 O13 2.018962 1_555
Mn1 O7 2.059134 1_565
Mn1 O26 2.143438 1_555
Mn1 O25 2.144282 1_565
Mn2 O8 1.934980 1_555
Mn2 O16 1.967334 1_655
Mn2 O14 2.017860 1_555
Mn2 O4 2.059277 1_555
Mn2 O21 2.144082 1_555
Mn2 O22 2.144429 1_555
Mn3 O10 1.934963 1_555
Mn3 O18 1.967303 1_455
Mn3 O12 2.017939 1_555
Mn3 O6 2.059268 1_555
Mn3 O27 2.144017 1_555
Mn3 O24 2.144441 1_555
B0 O3 1.349575 1_555
B0 O4 1.398043 1_555
B0 O8 1.417931 1_555
B1 O2 1.349822 1_555
B1 O5 1.398289 1_555
B1 O9 1.417602 1_555
B2 O1 1.349591 1_555
B2 O6 1.398034 1_555
B2 O10 1.417925 1_555
B3 O0 1.349933 1_555
B3 O7 1.398255 1_555
B3 O11 1.417547 1_555
As0 O22 1.715023 1_556
As0 O20 1.715025 1_555
As0 O18 1.720423 1_555
As0 O12 1.728919 1_555
As1 O21 1.714802 1_555
As1 O23 1.714847 1_555
As1 O19 1.720599 1_555
As1 O13 1.728753 1_555
As2 O26 1.715019 1_555
As2 O24 1.715024 1_554
As2 O16 1.720397 1_555
As2 O14 1.728911 1_555
As3 O27 1.714866 1_555
As3 O25 1.714937 1_555
As3 O17 1.720654 1_555
As3 O15 1.728786 1_555
