# generated using pymatgen
data_LiMnF3
_symmetry_space_group_name_H-M   'P 1'
_cell_length_a   5.93696400
_cell_length_b   5.93823003
_cell_length_c   11.67697050
_cell_angle_alpha   89.97098302
_cell_angle_beta   90.08854694
_cell_angle_gamma   119.98774517
_symmetry_Int_Tables_number   1
_chemical_formula_structural   LiMnF3
_chemical_formula_sum   'Li6 Mn6 F18'
_cell_volume   356.56221987
_cell_formula_units_Z   6
loop_
 _symmetry_equiv_pos_site_id
 _symmetry_equiv_pos_as_xyz
  1  'x, y, z'
loop_
 _atom_site_type_symbol
 _atom_site_label
 _atom_site_symmetry_multiplicity
 _atom_site_fract_x
 _atom_site_fract_y
 _atom_site_fract_z
 _atom_site_occupancy
  Li  Li0  1  0.32960900  0.00100300  0.74671400  1
  Li  Li1  1  0.00398200  0.32516100  0.74607400  1
  Li  Li2  1  0.33427600  0.32927900  0.24492000  1
  Li  Li3  1  0.67845400  0.00031700  0.24567400  1
  Li  Li4  1  0.67861000  0.67488600  0.74617700  1
  Li  Li5  1  0.00808900  0.67270700  0.24482800  1
  Mn  Mn0  1  0.33945500  0.66815100  0.02787500  1
  Mn  Mn1  1  0.34046200  0.66762100  0.52916300  1
  Mn  Mn2  1  0.00731700  0.00066400  0.49405700  1
  Mn  Mn3  1  0.67216300  0.33474800  0.96310000  1
  Mn  Mn4  1  0.67374800  0.33440000  0.46218900  1
  Mn  Mn5  1  0.00519800  0.00119100  0.99980000  1
  F  F0  1  0.05112500  0.69071900  0.41772800  1
  F  F1  1  0.96314200  0.64508300  0.07304900  1
  F  F2  1  0.31404800  0.95828100  0.91952400  1
  F  F3  1  0.36008100  0.04395500  0.57194600  1
  F  F4  1  0.04825500  0.35263500  0.91940600  1
  F  F5  1  0.96459000  0.31184000  0.57164400  1
  F  F6  1  0.33899300  0.66751000  0.71208200  1
  F  F7  1  0.34035800  0.66729800  0.21120200  1
  F  F8  1  0.00673600  0.00043800  0.24233400  1
  F  F9  1  0.00415900  0.99988700  0.74479600  1
  F  F10  1  0.65313300  0.95751200  0.41807100  1
  F  F11  1  0.31782200  0.35473300  0.41776600  1
  F  F12  1  0.69302800  0.04446100  0.07313900  1
  F  F13  1  0.36197400  0.31435200  0.07302200  1
  F  F14  1  0.65395700  0.69286800  0.91945700  1
  F  F15  1  0.69648400  0.64713100  0.57179500  1
  F  F16  1  0.67045800  0.33345300  0.78021500  1
  F  F17  1  0.67409500  0.33409100  0.27915100  1
loop_
_geom_bond_atom_site_label_1
_geom_bond_atom_site_label_2
_geom_bond_distance
_geom_bond_site_symmetry_2
F0 Li5 2.030808 1_555
F0 Mn2 2.174965 1_565
F0 Mn1 2.211608 1_555
F0 Mn4 2.242749 1_455
F1 Li5 2.019036 1_655
F1 Mn5 2.176397 1_664
F1 Mn3 2.200434 1_554
F1 Mn0 2.232961 1_655
F2 Li0 2.030131 1_565
F2 Mn5 2.185960 1_565
F2 Mn0 2.201985 1_556
F2 Mn3 2.241315 1_565
F3 Li0 2.053528 1_555
F3 Mn2 2.176173 1_555
F3 Mn4 2.208993 1_555
F3 Mn1 2.235628 1_545
F4 Li1 2.036682 1_555
F4 Mn5 2.183453 1_555
F4 Mn0 2.204816 1_556
F4 Mn3 2.241335 1_455
F5 Li1 2.046891 1_655
F5 Mn2 2.184173 1_655
F5 Mn4 2.203927 1_555
F5 Mn1 2.231341 1_655
F6 Li4 2.033499 1_555
F6 Li0 2.049300 1_565
F6 Li1 2.050861 1_555
F6 Mn1 2.135969 1_555
F7 Li2 2.027833 1_555
F7 Li5 2.027899 1_555
F7 Li3 2.032767 1_565
F7 Mn0 2.140712 1_555
F8 Li3 1.949090 1_455
F8 Li2 1.949240 1_555
F8 Li5 1.950372 1_545
F9 Li0 1.928977 1_565
F9 Li4 1.931795 1_455
F9 Li1 1.932142 1_565
F10 Li3 2.025314 1_565
F10 Mn2 2.174959 1_665
F10 Mn1 2.214242 1_555
F10 Mn4 2.239730 1_565
F11 Li2 2.030191 1_555
F11 Mn2 2.177452 1_555
F11 Mn1 2.216872 1_555
F11 Mn4 2.236186 1_555
F12 Li3 2.027928 1_555
F12 Mn5 2.171507 1_654
F12 Mn3 2.201941 1_554
F12 Mn0 2.233385 1_545
F13 Li2 2.019830 1_555
F13 Mn5 2.175856 1_554
F13 Mn3 2.199498 1_554
F13 Mn0 2.233648 1_555
F14 Li4 2.035601 1_555
F14 Mn5 2.181732 1_665
F14 Mn0 2.200871 1_556
F14 Mn3 2.241054 1_555
F15 Li4 2.050182 1_555
F15 Mn2 2.183425 1_665
F15 Mn4 2.203696 1_555
F15 Mn1 2.232505 1_555
F16 Li0 2.037210 1_555
F16 Li4 2.042610 1_555
F16 Li1 2.045032 1_655
F16 Mn3 2.135551 1_555
F17 Li3 2.033224 1_555
F17 Li5 2.037577 1_655
F17 Li2 2.042243 1_555
F17 Mn4 2.137336 1_555
