# generated using pymatgen
data_Li2TiFeO4
_symmetry_space_group_name_H-M   'P 1'
_cell_length_a   5.96069860
_cell_length_b   9.94688289
_cell_length_c   6.03936240
_cell_angle_alpha   99.06184184
_cell_angle_beta   60.42575892
_cell_angle_gamma   90.00575089
_symmetry_Int_Tables_number   1
_chemical_formula_structural   Li2TiFeO4
_chemical_formula_sum   'Li8 Ti4 Fe4 O16'
_cell_volume   306.27889068
_cell_formula_units_Z   4
loop_
 _symmetry_equiv_pos_site_id
 _symmetry_equiv_pos_as_xyz
  1  'x, y, z'
loop_
 _atom_site_type_symbol
 _atom_site_label
 _atom_site_symmetry_multiplicity
 _atom_site_fract_x
 _atom_site_fract_y
 _atom_site_fract_z
 _atom_site_occupancy
  Li  Li0  1  0.00001900  0.99997800  0.99996400  1
  Li  Li1  1  0.49996500  0.00002200  0.00003600  1
  Li  Li2  1  0.25000500  0.50000500  0.50000700  1
  Li  Li3  1  0.75001300  0.49999500  0.49999200  1
  Li  Li4  1  0.24999300  0.50000000  0.00000000  1
  Li  Li5  1  0.75000300  0.50000000  0.00000000  1
  Li  Li6  1  0.49997300  0.00001300  0.50000600  1
  Li  Li7  1  0.00003300  0.99998600  0.49999200  1
  Ti  Ti0  1  0.87503900  0.75000200  0.24998800  1
  Ti  Ti1  1  0.37497900  0.75000100  0.24997600  1
  Ti  Ti2  1  0.12502400  0.24999800  0.75001900  1
  Ti  Ti3  1  0.62496000  0.24999800  0.75001400  1
  Fe  Fe0  1  0.62498800  0.25000700  0.25002600  1
  Fe  Fe1  1  0.87500500  0.74999500  0.74998100  1
  Fe  Fe2  1  0.12500900  0.25000100  0.24997600  1
  Fe  Fe3  1  0.37499200  0.74999800  0.75002500  1
  O  O0  1  0.45105000  0.36471100  0.09770100  1
  O  O1  1  0.95111500  0.36476800  0.09757500  1
  O  O2  1  0.70115600  0.86472600  0.59767700  1
  O  O3  1  0.20118700  0.86476300  0.59761100  1
  O  O4  1  0.79894800  0.13528400  0.40229900  1
  O  O5  1  0.29889300  0.13522800  0.40241100  1
  O  O6  1  0.04884800  0.63527900  0.90231800  1
  O  O7  1  0.54880300  0.63524100  0.90240500  1
  O  O8  1  0.17787500  0.86537400  0.14424800  1
  O  O9  1  0.67790600  0.86537900  0.14427200  1
  O  O10  1  0.42789000  0.36538000  0.64427200  1
  O  O11  1  0.92784800  0.36537600  0.64425900  1
  O  O12  1  0.07210200  0.63462000  0.35572900  1
  O  O13  1  0.57212300  0.63462300  0.35574100  1
  O  O14  1  0.32215200  0.13462600  0.85575100  1
  O  O15  1  0.82210400  0.13462200  0.85572900  1
loop_
_geom_bond_atom_site_label_1
_geom_bond_atom_site_label_2
_geom_bond_distance
_geom_bond_site_symmetry_2
Li0 O9 2.225713 1_456
Li0 O14 2.226081 1_565
Li0 O8 2.226099 1_556
Li0 O15 2.226385 1_465
Li0 O3 2.290441 1_555
Li0 O4 2.290744 1_466
Li1 O15 2.225823 1_554
Li1 O8 2.225909 1_545
Li1 O14 2.225932 1_554
Li1 O9 2.226486 1_545
Li1 O5 2.290498 1_555
Li1 O2 2.290805 1_544
Li2 O13 2.225843 1_555
Li2 O11 2.226066 1_455
Li2 O10 2.226270 1_555
Li2 O12 2.226333 1_555
Li2 O6 2.290508 1_555
Li2 O0 2.290570 1_555
Li3 O12 2.225772 1_655
Li3 O10 2.225848 1_555
Li3 O11 2.226040 1_555
Li3 O13 2.226249 1_555
Li3 O1 2.290766 1_555
Li3 O7 2.290828 1_555
Li4 O10 2.092450 1_554
Li4 O12 2.092454 1_555
Li4 O7 2.131297 1_554
Li4 O1 2.131524 1_455
Li4 O0 2.131620 1_555
Li4 O6 2.131845 1_554
Li5 O13 2.092517 1_555
Li5 O11 2.092522 1_554
Li5 O1 2.130969 1_555
Li5 O7 2.131475 1_554
Li5 O6 2.131679 1_654
Li5 O0 2.132192 1_555
Li6 O14 2.092486 1_555
Li6 O9 2.092541 1_545
Li6 O5 2.130801 1_555
Li6 O3 2.131255 1_545
Li6 O2 2.132013 1_545
Li6 O4 2.132161 1_555
Li7 O8 2.092477 1_555
Li7 O15 2.092563 1_465
Li7 O3 2.131258 1_555
Li7 O5 2.131515 1_565
Li7 O2 2.131684 1_455
Li7 O4 2.131766 1_465
Fe0 O5 2.119755 1_555
Fe0 O1 2.119806 1_555
Fe0 O4 2.120193 1_555
Fe0 O0 2.120225 1_555
Fe0 O10 2.178237 1_555
Fe0 O15 2.178509 1_554
Fe1 O2 2.119919 1_555
Fe1 O6 2.119954 1_655
Fe1 O3 2.120047 1_655
Fe1 O7 2.120068 1_555
Fe1 O12 2.178271 1_655
Fe1 O9 2.178478 1_556
Fe2 O0 2.119068 1_555
Fe2 O4 2.119213 1_455
Fe2 O1 2.120770 1_455
Fe2 O5 2.120920 1_555
Fe2 O14 2.178150 1_554
Fe2 O11 2.178411 1_455
Fe3 O6 2.119561 1_555
Fe3 O2 2.119721 1_555
Fe3 O7 2.120265 1_555
Fe3 O3 2.120444 1_555
Fe3 O8 2.178145 1_556
Fe3 O13 2.178415 1_555
O0 Ti3 1.970437 1_554
O1 Ti2 1.970104 1_654
O2 Ti0 1.970490 1_555
O3 Ti1 1.970413 1_555
O4 Ti3 1.970562 1_555
O5 Ti2 1.970329 1_555
O6 Ti0 1.970404 1_456
O7 Ti1 1.970128 1_556
O8 Ti0 2.018853 1_455
O8 Ti1 2.019074 1_555
O9 Ti0 2.019176 1_555
O9 Ti1 2.019298 1_555
O10 Ti3 2.019039 1_555
O10 Ti2 2.019045 1_555
O11 Ti3 2.019116 1_555
O11 Ti2 2.019556 1_655
O12 Ti0 2.019004 1_455
O12 Ti1 2.019086 1_555
O13 Ti0 2.019246 1_555
O13 Ti1 2.019436 1_555
O14 Ti3 2.018731 1_555
O14 Ti2 2.019191 1_555
O15 Ti3 2.019214 1_555
O15 Ti2 2.019254 1_655
