# generated using pymatgen
data_Li2Ti2V5O12
_symmetry_space_group_name_H-M   'P 1'
_cell_length_a   9.12723400
_cell_length_b   5.13714600
_cell_length_c   9.92019992
_cell_angle_alpha   78.73970025
_cell_angle_beta   90.00000000
_cell_angle_gamma   90.00000000
_symmetry_Int_Tables_number   1
_chemical_formula_structural   Li2Ti2V5O12
_chemical_formula_sum   'Li4 Ti4 V10 O24'
_cell_volume   456.18386565
_cell_formula_units_Z   2
loop_
 _symmetry_equiv_pos_site_id
 _symmetry_equiv_pos_as_xyz
  1  'x, y, z'
loop_
 _atom_site_type_symbol
 _atom_site_label
 _atom_site_symmetry_multiplicity
 _atom_site_fract_x
 _atom_site_fract_y
 _atom_site_fract_z
 _atom_site_occupancy
  Li  Li0  1  0.58177200  0.75618200  0.49927400  1
  Li  Li1  1  0.59034000  0.51112100  0.26402600  1
  Li  Li2  1  0.08177200  0.24381800  0.50072600  1
  Li  Li3  1  0.09034000  0.48887900  0.73597400  1
  Ti  Ti0  1  0.75408600  0.21937000  0.51171000  1
  Ti  Ti1  1  0.75158100  0.77233000  0.99406000  1
  Ti  Ti2  1  0.25158100  0.22767000  0.00594000  1
  Ti  Ti3  1  0.25408600  0.78063000  0.48829000  1
  V  V0  1  0.92216700  0.26086200  0.00902600  1
  V  V1  1  0.92854400  0.74662700  0.48680800  1
  V  V2  1  0.74685600  0.99744700  0.25814000  1
  V  V3  1  0.73921500  0.50947400  0.74150900  1
  V  V4  1  0.57296300  0.25321200  0.00643200  1
  V  V5  1  0.42854400  0.25337300  0.51319200  1
  V  V6  1  0.42216700  0.73913800  0.99097400  1
  V  V7  1  0.24685600  0.00255300  0.74186000  1
  V  V8  1  0.23921500  0.49052600  0.25849100  1
  V  V9  1  0.07296300  0.74678800  0.99356800  1
  O  O0  1  0.89725100  0.11435800  0.38644000  1
  O  O1  1  0.89983300  0.88631200  0.11004500  1
  O  O2  1  0.76216200  0.87300000  0.61140100  1
  O  O3  1  0.89670800  0.40052200  0.61691300  1
  O  O4  1  0.89649800  0.61318600  0.88062400  1
  O  O5  1  0.75111300  0.13423700  0.89311200  1
  O  O6  1  0.60123100  0.14810700  0.38892300  1
  O  O7  1  0.74901400  0.64508800  0.37799300  1
  O  O8  1  0.74562800  0.37058100  0.11963600  1
  O  O9  1  0.59731400  0.85992800  0.11585600  1
  O  O10  1  0.59738200  0.62742100  0.88335500  1
  O  O11  1  0.60046300  0.37686400  0.61481800  1
  O  O12  1  0.39725100  0.88564200  0.61356000  1
  O  O13  1  0.39983300  0.11368800  0.88995500  1
  O  O14  1  0.26216200  0.12700000  0.38859900  1
  O  O15  1  0.39670800  0.59947800  0.38308700  1
  O  O16  1  0.25111300  0.86576300  0.10688800  1
  O  O17  1  0.39649800  0.38681400  0.11937600  1
  O  O18  1  0.24901400  0.35491200  0.62200700  1
  O  O19  1  0.09731400  0.14007200  0.88414400  1
  O  O20  1  0.10123100  0.85189300  0.61107700  1
  O  O21  1  0.24562800  0.62941900  0.88036400  1
  O  O22  1  0.10046300  0.62313600  0.38518200  1
  O  O23  1  0.09738200  0.37257900  0.11664500  1
loop_
_geom_bond_atom_site_label_1
_geom_bond_atom_site_label_2
_geom_bond_distance
_geom_bond_site_symmetry_2
Li0 O11 2.065851 1_555
Li0 O7 2.090803 1_555
Li0 O6 2.103057 1_565
Li0 O2 2.137503 1_555
Li0 O12 2.204210 1_555
Li0 O15 2.278600 1_555
Li1 O6 2.029864 1_555
Li1 O7 2.037924 1_555
Li1 O9 2.084897 1_555
Li1 O15 2.221227 1_555
Li1 O8 2.232868 1_555
Li1 O17 2.440280 1_555
Li2 O22 2.065851 1_555
Li2 O18 2.090803 1_555
Li2 O20 2.103057 1_545
Li2 O14 2.137503 1_555
Li2 O0 2.204210 1_455
Li2 O3 2.278600 1_455
Li3 O20 2.029864 1_555
Li3 O18 2.037924 1_555
Li3 O19 2.084897 1_555
Li3 O3 2.221227 1_455
Li3 O21 2.232868 1_555
Li3 O4 2.440280 1_455
O0 Ti0 1.950540 1_555
O0 V1 1.976622 1_545
O0 V2 2.040450 1_545
O1 Ti1 1.939278 1_554
O1 V0 1.998753 1_565
O1 V9 2.160862 1_654
O1 V2 2.182061 1_555
O2 Ti0 1.860737 1_565
O2 V3 2.062994 1_555
O2 V1 2.137441 1_555
O3 V1 2.003826 1_555
O3 Ti0 2.007244 1_555
O3 V3 2.043896 1_555
O4 Ti1 2.010845 1_555
O4 V0 2.013185 1_556
O4 V3 2.129875 1_555
O4 V9 2.149623 1_655
O5 Ti1 1.931910 1_545
O5 V0 2.115420 1_556
O5 V4 2.132965 1_556
O5 V3 2.203918 1_555
O6 Ti0 1.933466 1_555
O6 V2 2.107379 1_545
O6 V5 2.134659 1_555
O7 V2 1.962159 1_555
O7 V1 2.083815 1_555
O7 Ti0 2.326298 1_555
O8 V0 2.087957 1_555
O8 V4 2.091111 1_555
O8 V2 2.129249 1_545
O8 Ti1 2.193217 1_554
O9 Ti1 1.963985 1_554
O9 V4 2.110234 1_565
O9 V2 2.178017 1_555
O9 V6 2.185306 1_554
O10 Ti1 2.015022 1_555
O10 V6 2.065419 1_555
O10 V4 2.078282 1_556
O10 V3 2.087099 1_555
O11 V3 1.995450 1_555
O11 Ti0 1.997509 1_555
O11 V5 2.032438 1_555
O12 Ti3 1.950540 1_555
O12 V5 1.976622 1_565
O12 V7 2.040450 1_565
O13 Ti2 1.939278 1_556
O13 V6 1.998753 1_545
O13 V4 2.160862 1_556
O13 V7 2.182061 1_555
O14 Ti3 1.860737 1_545
O14 V8 2.062994 1_555
O14 V5 2.137441 1_555
O15 V5 2.003826 1_555
O15 Ti3 2.007244 1_555
O15 V8 2.043896 1_555
O16 Ti2 1.931910 1_565
O16 V6 2.115420 1_554
O16 V9 2.132965 1_554
O16 V8 2.203918 1_555
O17 Ti2 2.010845 1_555
O17 V6 2.013185 1_554
O17 V8 2.129875 1_555
O17 V4 2.149623 1_555
O18 V7 1.962159 1_555
O18 V5 2.083815 1_555
O18 Ti3 2.326298 1_555
O19 Ti2 1.963985 1_556
O19 V9 2.110234 1_545
O19 V7 2.178017 1_555
O19 V0 2.185306 1_456
O20 Ti3 1.933466 1_555
O20 V7 2.107379 1_565
O20 V1 2.134659 1_455
O21 V6 2.087957 1_555
O21 V9 2.091111 1_555
O21 V7 2.129249 1_565
O21 Ti2 2.193217 1_556
O22 V8 1.995450 1_555
O22 Ti3 1.997509 1_555
O22 V1 2.032438 1_455
O23 Ti2 2.015022 1_555
O23 V0 2.065419 1_455
O23 V9 2.078282 1_554
O23 V8 2.087099 1_555
