# generated using pymatgen
data_Li2Fe3CuO8
_symmetry_space_group_name_H-M   'P 1'
_cell_length_a   5.92867891
_cell_length_b   5.92867891
_cell_length_c   5.92867922
_cell_angle_alpha   60.34379183
_cell_angle_beta   60.34379183
_cell_angle_gamma   60.34379142
_symmetry_Int_Tables_number   1
_chemical_formula_structural   Li2Fe3CuO8
_chemical_formula_sum   'Li2 Fe3 Cu1 O8'
_cell_volume   148.49898695
_cell_formula_units_Z   1
loop_
 _symmetry_equiv_pos_site_id
 _symmetry_equiv_pos_as_xyz
  1  'x, y, z'
loop_
 _atom_site_type_symbol
 _atom_site_label
 _atom_site_symmetry_multiplicity
 _atom_site_fract_x
 _atom_site_fract_y
 _atom_site_fract_z
 _atom_site_occupancy
  Li  Li0  1  0.12672800  0.12672800  0.12672800  1
  Li  Li1  1  0.87327200  0.87327200  0.87327200  1
  Fe  Fe0  1  0.50000000  0.00000000  0.50000000  1
  Fe  Fe1  1  0.00000000  0.50000000  0.50000000  1
  Fe  Fe2  1  0.50000000  0.50000000  0.00000000  1
  Cu  Cu0  1  0.50000000  0.50000000  0.50000000  1
  O  O0  1  0.26182600  0.26182600  0.26182600  1
  O  O1  1  0.26480600  0.26480600  0.71446800  1
  O  O2  1  0.71446800  0.26480600  0.26480600  1
  O  O3  1  0.26480600  0.71446800  0.26480600  1
  O  O4  1  0.73519400  0.28553200  0.73519400  1
  O  O5  1  0.28553200  0.73519400  0.73519400  1
  O  O6  1  0.73519400  0.73519400  0.28553200  1
  O  O7  1  0.73817400  0.73817400  0.73817400  1
loop_
_geom_bond_atom_site_label_1
_geom_bond_atom_site_label_2
_geom_bond_distance
_geom_bond_site_symmetry_2
Li0 O0 1.956812 1_555
Li0 O3 2.004328 1_545
Li0 O2 2.004328 1_455
Li0 O1 2.004328 1_554
Li1 O7 1.956812 1_555
Li1 O4 2.004328 1_565
Li1 O5 2.004328 1_655
Li1 O6 2.004328 1_556
Fe0 O0 2.008072 1_555
Fe0 O7 2.008072 1_545
Fe0 O5 2.019995 1_545
Fe0 O2 2.019995 1_555
Fe0 O6 2.019995 1_545
Fe0 O1 2.019995 1_555
Fe1 O7 2.008072 1_455
Fe1 O0 2.008072 1_555
Fe1 O3 2.019995 1_555
Fe1 O4 2.019995 1_455
Fe1 O6 2.019995 1_455
Fe1 O1 2.019995 1_555
Fe2 O7 2.008072 1_554
Fe2 O0 2.008072 1_555
Fe2 O3 2.019995 1_555
Fe2 O4 2.019995 1_554
Fe2 O5 2.019995 1_554
Fe2 O2 2.019995 1_555
Cu0 O6 1.980005 1_555
Cu0 O1 1.980005 1_555
Cu0 O3 1.980005 1_555
Cu0 O4 1.980005 1_555
Cu0 O2 1.980005 1_555
Cu0 O5 1.980005 1_555
