# generated using pymatgen
data_Li3MnBAsO7
_symmetry_space_group_name_H-M   'P 1'
_cell_length_a   5.07966832
_cell_length_b   8.48985844
_cell_length_c   13.69065604
_cell_angle_alpha   89.99186468
_cell_angle_beta   90.00098533
_cell_angle_gamma   84.61572946
_symmetry_Int_Tables_number   1
_chemical_formula_structural   Li3MnBAsO7
_chemical_formula_sum   'Li12 Mn4 B4 As4 O28'
_cell_volume   587.81357190
_cell_formula_units_Z   4
loop_
 _symmetry_equiv_pos_site_id
 _symmetry_equiv_pos_as_xyz
  1  'x, y, z'
loop_
 _atom_site_type_symbol
 _atom_site_label
 _atom_site_symmetry_multiplicity
 _atom_site_fract_x
 _atom_site_fract_y
 _atom_site_fract_z
 _atom_site_occupancy
  Li  Li0  1  0.76841400  0.09633200  0.12505100  1
  Li  Li1  1  0.76848200  0.09625400  0.62499900  1
  Li  Li2  1  0.23160400  0.90369600  0.37494300  1
  Li  Li3  1  0.23154200  0.90373500  0.87499400  1
  Li  Li4  1  0.24827800  0.23272800  0.00040400  1
  Li  Li5  1  0.24850900  0.23271600  0.50038300  1
  Li  Li6  1  0.24853000  0.23262800  0.24964600  1
  Li  Li7  1  0.24817700  0.23275300  0.74949600  1
  Li  Li8  1  0.75143300  0.76738100  0.25035200  1
  Li  Li9  1  0.75184300  0.76724500  0.75049300  1
  Li  Li10  1  0.75172800  0.76728800  0.49959200  1
  Li  Li11  1  0.75149400  0.76725200  0.99960700  1
  Mn  Mn0  1  0.78576200  0.31491400  0.87494400  1
  Mn  Mn1  1  0.21420100  0.68506000  0.62506200  1
  Mn  Mn2  1  0.78625900  0.31493000  0.37495600  1
  Mn  Mn3  1  0.21375900  0.68504700  0.12506600  1
  B  B0  1  0.70196800  0.03870700  0.37500200  1
  B  B1  1  0.70178900  0.03862300  0.87501000  1
  B  B2  1  0.29799700  0.96132500  0.12499700  1
  B  B3  1  0.29822200  0.96135400  0.62498300  1
  As  As0  1  0.74144000  0.41711200  0.12502200  1
  As  As1  1  0.74175000  0.41714900  0.62500600  1
  As  As2  1  0.25857100  0.58291700  0.37498600  1
  As  As3  1  0.25823600  0.58282900  0.87500000  1
  O  O0  1  0.36811400  0.11075600  0.12502300  1
  O  O1  1  0.36824200  0.11080500  0.62497500  1
  O  O2  1  0.63193700  0.88926500  0.37496600  1
  O  O3  1  0.63179300  0.88917100  0.87501200  1
  O  O4  1  0.95874300  0.08573100  0.37500300  1
  O  O5  1  0.95843500  0.08575300  0.87502000  1
  O  O6  1  0.04126200  0.91429900  0.12499900  1
  O  O7  1  0.04155100  0.91424500  0.62497800  1
  O  O8  1  0.51125100  0.17174900  0.37501000  1
  O  O9  1  0.51078800  0.17159000  0.87498100  1
  O  O10  1  0.48875400  0.82827100  0.12500000  1
  O  O11  1  0.48918800  0.82838100  0.62501400  1
  O  O12  1  0.40322800  0.46529500  0.12505900  1
  O  O13  1  0.40350200  0.46533000  0.62505400  1
  O  O14  1  0.59677300  0.53471900  0.37494100  1
  O  O15  1  0.59648900  0.53463900  0.87493900  1
  O  O16  1  0.13202600  0.40175900  0.37495000  1
  O  O17  1  0.13165300  0.40172500  0.87494500  1
  O  O18  1  0.86796600  0.59826500  0.12505000  1
  O  O19  1  0.86833400  0.59825800  0.62505300  1
  O  O20  1  0.83739500  0.29337700  0.02992000  1
  O  O21  1  0.83767400  0.29337200  0.52992400  1
  O  O22  1  0.83757800  0.29318400  0.22004800  1
  O  O23  1  0.83767100  0.29313300  0.72001800  1
  O  O24  1  0.16238500  0.70685500  0.27996300  1
  O  O25  1  0.16234700  0.70683700  0.77998500  1
  O  O26  1  0.16257800  0.70664500  0.47009300  1
  O  O27  1  0.16235400  0.70661500  0.97008400  1
loop_
_geom_bond_atom_site_label_1
_geom_bond_atom_site_label_2
_geom_bond_distance
_geom_bond_site_symmetry_2
Li0 O6 1.976695 1_645
Li0 O0 2.025573 1_555
Li0 O22 2.172274 1_555
Li0 O20 2.174164 1_555
Li1 O7 1.977254 1_645
Li1 O1 2.025232 1_555
Li1 O23 2.172664 1_555
Li1 O21 2.174441 1_555
Li2 O4 1.976749 1_465
Li2 O2 2.025738 1_555
Li2 O24 2.172127 1_555
Li2 O26 2.174413 1_555
Li3 O5 1.977430 1_465
Li3 O3 2.025285 1_555
Li3 O25 2.172716 1_555
Li3 O27 2.174573 1_555
Li4 O0 2.057877 1_555
Li4 O20 2.140797 1_455
Li4 O9 2.206013 1_554
Li4 O17 2.280230 1_554
Li5 O1 2.057194 1_555
Li5 O21 2.140638 1_455
Li5 O8 2.205908 1_555
Li5 O16 2.280054 1_555
Li6 O0 2.057462 1_555
Li6 O22 2.141184 1_455
Li6 O8 2.205467 1_555
Li6 O16 2.279520 1_555
Li7 O1 2.057218 1_555
Li7 O23 2.138494 1_455
Li7 O9 2.206860 1_555
Li7 O17 2.280218 1_555
Li8 O2 2.057297 1_555
Li8 O24 2.141180 1_655
Li8 O10 2.205231 1_555
Li8 O18 2.279452 1_555
Li9 O3 2.057088 1_555
Li9 O25 2.138556 1_655
Li9 O11 2.206885 1_555
Li9 O19 2.280169 1_555
Li10 O2 2.057920 1_555
Li10 O26 2.140586 1_655
Li10 O11 2.206022 1_555
Li10 O19 2.280401 1_555
Li11 O3 2.057220 1_555
Li11 O27 2.140688 1_655
Li11 O10 2.206193 1_556
Li11 O18 2.279858 1_556
Mn0 O9 1.936634 1_555
Mn0 O17 1.968070 1_655
Mn0 O15 2.016837 1_555
Mn0 O5 2.057725 1_555
Mn0 O23 2.143247 1_555
Mn0 O20 2.143549 1_556
Mn1 O11 1.936668 1_555
Mn1 O19 1.967922 1_455
Mn1 O13 2.016930 1_555
Mn1 O7 2.057870 1_555
Mn1 O25 2.143171 1_555
Mn1 O26 2.143478 1_555
Mn2 O8 1.935924 1_555
Mn2 O16 1.967556 1_655
Mn2 O14 2.017737 1_555
Mn2 O4 2.057693 1_555
Mn2 O22 2.142638 1_555
Mn2 O21 2.143327 1_555
Mn3 O10 1.936127 1_555
Mn3 O18 1.967495 1_455
Mn3 O12 2.017427 1_555
Mn3 O6 2.058123 1_555
Mn3 O24 2.142560 1_555
Mn3 O27 2.143518 1_554
B0 O2 1.349427 1_545
B0 O4 1.399424 1_555
B0 O8 1.417379 1_555
B1 O3 1.349447 1_545
B1 O5 1.399132 1_555
B1 O9 1.417792 1_555
B2 O0 1.349491 1_565
B2 O6 1.399236 1_555
B2 O10 1.417578 1_555
B3 O1 1.349481 1_565
B3 O7 1.399187 1_555
B3 O11 1.417721 1_555
As0 O20 1.714834 1_555
As0 O22 1.714977 1_555
As0 O18 1.721602 1_555
As0 O12 1.728290 1_555
As1 O21 1.714800 1_555
As1 O23 1.715020 1_555
As1 O19 1.721390 1_555
As1 O13 1.728465 1_555
As2 O26 1.714895 1_555
As2 O24 1.715051 1_555
As2 O16 1.721685 1_555
As2 O14 1.728259 1_555
As3 O27 1.714817 1_555
As3 O25 1.714975 1_555
As3 O17 1.721348 1_555
As3 O15 1.728501 1_555
