# generated using pymatgen
data_NaSbAsCO7
_symmetry_space_group_name_H-M   'P 1'
_cell_length_a   6.91753600
_cell_length_b   5.67436300
_cell_length_c   9.40365650
_cell_angle_alpha   88.99676681
_cell_angle_beta   90.00000000
_cell_angle_gamma   90.00000000
_symmetry_Int_Tables_number   1
_chemical_formula_structural   NaSbAsCO7
_chemical_formula_sum   'Na2 Sb2 As2 C2 O14'
_cell_volume   369.06148163
_cell_formula_units_Z   2
loop_
 _symmetry_equiv_pos_site_id
 _symmetry_equiv_pos_as_xyz
  1  'x, y, z'
loop_
 _atom_site_type_symbol
 _atom_site_label
 _atom_site_symmetry_multiplicity
 _atom_site_fract_x
 _atom_site_fract_y
 _atom_site_fract_z
 _atom_site_occupancy
  Na  Na0  1  0.50864500  0.76358000  0.79130400  1
  Na  Na1  1  0.00864500  0.23642000  0.20869600  1
  Sb  Sb0  1  0.24038400  0.20627300  0.65735600  1
  Sb  Sb1  1  0.74038400  0.79372700  0.34264400  1
  As  As0  1  0.74679700  0.28305100  0.57165600  1
  As  As1  1  0.24679700  0.71694900  0.42834400  1
  C  C0  1  0.25725800  0.27684800  0.92540000  1
  C  C1  1  0.75725800  0.72315200  0.07460000  1
  O  O0  1  0.74425400  0.69044000  0.94651600  1
  O  O1  1  0.25554300  0.06261000  0.86455700  1
  O  O2  1  0.27029100  0.45130800  0.82593400  1
  O  O3  1  0.94037300  0.20540300  0.67913500  1
  O  O4  1  0.54842800  0.17948900  0.66574600  1
  O  O5  1  0.26360600  0.84485400  0.59412100  1
  O  O6  1  0.72657200  0.58579100  0.54164500  1
  O  O7  1  0.22657200  0.41420900  0.45835500  1
  O  O8  1  0.76360600  0.15514600  0.40587900  1
  O  O9  1  0.04842800  0.82051100  0.33425400  1
  O  O10  1  0.44037300  0.79459700  0.32086500  1
  O  O11  1  0.77029100  0.54869200  0.17406600  1
  O  O12  1  0.75554300  0.93739000  0.13544300  1
  O  O13  1  0.24425400  0.30956000  0.05348400  1
loop_
_geom_bond_atom_site_label_1
_geom_bond_atom_site_label_2
_geom_bond_distance
_geom_bond_site_symmetry_2
Na0 O0 2.222095 1_555
Na0 O2 2.438082 1_555
Na0 O1 2.541660 1_565
Na0 O5 2.548372 1_555
Na0 O4 2.634750 1_565
Na0 O6 2.980778 1_555
Na1 O13 2.222095 1_555
Na1 O11 2.438082 1_455
Na1 O12 2.541660 1_445
Na1 O8 2.548372 1_455
Na1 O9 2.634750 1_545
Na1 O7 2.980778 1_555
As0 O4 1.730022 1_555
As0 O3 1.730072 1_555
As0 O8 1.734963 1_555
As0 O6 1.741629 1_555
As1 O9 1.730022 1_555
As1 O10 1.730072 1_555
As1 O5 1.734963 1_555
As1 O7 1.741629 1_555
C0 O13 1.225192 1_556
C0 O1 1.352660 1_555
C0 O2 1.352986 1_555
C1 O0 1.225192 1_554
C1 O12 1.352660 1_555
C1 O11 1.352986 1_555
O1 Sb0 2.101515 1_555
O2 Sb0 2.136881 1_555
O3 Sb0 2.085415 1_655
O4 Sb0 2.137677 1_555
O5 Sb0 2.151274 1_565
O6 Sb1 2.196790 1_555
O7 Sb0 2.196790 1_555
O8 Sb1 2.151274 1_545
O9 Sb1 2.137677 1_455
O10 Sb1 2.085415 1_555
O11 Sb1 2.136881 1_555
O12 Sb1 2.101515 1_555
