# generated using pymatgen
data_Li13Mg(Ni6O13)2
_symmetry_space_group_name_H-M   'P 1'
_cell_length_a   7.59645600
_cell_length_b   7.73107721
_cell_length_c   8.01934416
_cell_angle_alpha   104.61934248
_cell_angle_beta   104.17152198
_cell_angle_gamma   89.09087197
_symmetry_Int_Tables_number   1
_chemical_formula_structural   Li13Mg(Ni6O13)2
_chemical_formula_sum   'Li13 Mg1 Ni12 O26'
_cell_volume   441.31982136
_cell_formula_units_Z   1
loop_
 _symmetry_equiv_pos_site_id
 _symmetry_equiv_pos_as_xyz
  1  'x, y, z'
loop_
 _atom_site_type_symbol
 _atom_site_label
 _atom_site_symmetry_multiplicity
 _atom_site_fract_x
 _atom_site_fract_y
 _atom_site_fract_z
 _atom_site_occupancy
  Li  Li0  1  0.08078200  0.38501800  0.11518100  1
  Li  Li1  1  0.15398200  0.77136200  0.72896500  1
  Li  Li2  1  0.38462600  0.92384500  0.57666800  1
  Li  Li3  1  0.22915200  0.15307400  0.34551700  1
  Li  Li4  1  0.30624800  0.54338100  0.96236700  1
  Li  Li5  1  0.54107300  0.69430400  0.80980000  1
  Li  Li6  1  0.45892700  0.30569600  0.19020000  1
  Li  Li7  1  0.69375200  0.45661900  0.03763300  1
  Li  Li8  1  0.61537400  0.07615500  0.42333200  1
  Li  Li9  1  0.77084800  0.84692600  0.65448300  1
  Li  Li10  1  0.00000000  0.00000000  0.50000000  1
  Li  Li11  1  0.84601800  0.22863800  0.27103500  1
  Li  Li12  1  0.91921800  0.61498200  0.88481900  1
  Mg  Mg0  1  0.00000000  0.00000000  0.00000000  1
  Ni  Ni0  1  0.15149700  0.77152400  0.23135000  1
  Ni  Ni1  1  0.07778200  0.38504100  0.61575600  1
  Ni  Ni2  1  0.38324300  0.92635700  0.07776400  1
  Ni  Ni3  1  0.23267100  0.15507100  0.84567200  1
  Ni  Ni4  1  0.30755100  0.53809700  0.46101200  1
  Ni  Ni5  1  0.53667200  0.69246600  0.30760800  1
  Ni  Ni6  1  0.46332800  0.30753400  0.69239200  1
  Ni  Ni7  1  0.69244900  0.46190300  0.53898800  1
  Ni  Ni8  1  0.76732900  0.84492900  0.15432800  1
  Ni  Ni9  1  0.61675700  0.07364300  0.92223600  1
  Ni  Ni10  1  0.84850300  0.22847600  0.76865000  1
  Ni  Ni11  1  0.92221800  0.61495900  0.38424400  1
  O  O0  1  0.01329900  0.01216900  0.75447500  1
  O  O1  1  0.14373200  0.75783600  0.46220000  1
  O  O2  1  0.08792400  0.39242800  0.38248700  1
  O  O3  1  0.06760000  0.37797900  0.84865700  1
  O  O4  1  0.16517200  0.77829700  0.99901100  1
  O  O5  1  0.31651900  0.54963000  0.22867300  1
  O  O6  1  0.23336600  0.15268500  0.08177800  1
  O  O7  1  0.37295600  0.91658400  0.31139900  1
  O  O8  1  0.29753400  0.53070400  0.69418600  1
  O  O9  1  0.24440200  0.16482100  0.61295700  1
  O  O10  1  0.39515800  0.93275300  0.84332800  1
  O  O11  1  0.52634200  0.68315800  0.54004900  1
  O  O12  1  0.45483300  0.29806300  0.92426900  1
  O  O13  1  0.54516700  0.70193700  0.07573100  1
  O  O14  1  0.47365800  0.31684200  0.45995100  1
  O  O15  1  0.76663400  0.84731500  0.91822200  1
  O  O16  1  0.60484200  0.06724700  0.15667200  1
  O  O17  1  0.75559800  0.83517900  0.38704300  1
  O  O18  1  0.68348100  0.45037000  0.77132700  1
  O  O19  1  0.70246600  0.46929600  0.30581400  1
  O  O20  1  0.62704400  0.08341600  0.68860100  1
  O  O21  1  0.91207600  0.60757200  0.61751300  1
  O  O22  1  0.85626800  0.24216400  0.53780000  1
  O  O23  1  0.93240000  0.62202100  0.15134300  1
  O  O24  1  0.83482800  0.22170300  0.00098900  1
  O  O25  1  0.98670100  0.98783100  0.24552500  1
loop_
_geom_bond_atom_site_label_1
_geom_bond_atom_site_label_2
_geom_bond_distance
_geom_bond_site_symmetry_2
Li0 O5 2.084311 1_555
Li0 O3 2.101881 1_554
Li0 O2 2.117189 1_555
Li0 O6 2.117694 1_555
Li0 O23 2.130305 1_455
Li0 O24 2.139398 1_455
Li1 O1 2.097448 1_555
Li1 O10 2.103954 1_555
Li1 O21 2.116005 1_455
Li1 O0 2.121682 1_565
Li1 O8 2.133348 1_555
Li1 O4 2.133374 1_555
Li2 O7 2.093772 1_555
Li2 O20 2.102984 1_565
Li2 O10 2.103835 1_555
Li2 O1 2.120334 1_555
Li2 O9 2.122562 1_565
Li2 O11 2.126742 1_555
Li3 O9 2.098031 1_555
Li3 O7 2.107467 1_545
Li3 O2 2.116339 1_555
Li3 O25 2.121684 1_445
Li3 O6 2.122323 1_555
Li3 O14 2.132728 1_555
Li4 O13 2.079239 1_556
Li4 O4 2.087174 1_555
Li4 O3 2.104451 1_555
Li4 O5 2.106100 1_556
Li4 O8 2.112657 1_555
Li4 O12 2.184665 1_555
Li5 O15 1.976595 1_555
Li5 O13 2.111032 1_556
Li5 O11 2.118295 1_555
Li5 O8 2.127060 1_555
Li5 O10 2.128422 1_555
Li5 O18 2.151038 1_555
Li6 O6 1.976595 1_555
Li6 O12 2.111032 1_554
Li6 O14 2.118295 1_555
Li6 O19 2.127060 1_555
Li6 O16 2.128422 1_555
Li6 O5 2.151038 1_555
Li7 O12 2.079239 1_554
Li7 O24 2.087174 1_555
Li7 O23 2.104451 1_555
Li7 O18 2.106100 1_554
Li7 O19 2.112657 1_555
Li7 O13 2.184665 1_555
Li8 O20 2.093772 1_555
Li8 O7 2.102984 1_545
Li8 O16 2.103835 1_555
Li8 O22 2.120334 1_555
Li8 O17 2.122562 1_545
Li8 O14 2.126742 1_555
Li9 O17 2.098031 1_555
Li9 O20 2.107467 1_565
Li9 O21 2.116339 1_555
Li9 O0 2.121684 1_665
Li9 O15 2.122323 1_555
Li9 O11 2.132728 1_555
Li10 O25 1.996508 1_445
Li10 O0 1.996508 1_555
Li10 O9 2.135438 1_555
Li10 O17 2.135438 1_445
Li10 O1 2.144724 1_545
Li10 O22 2.144724 1_455
Li11 O22 2.097448 1_555
Li11 O16 2.103954 1_555
Li11 O2 2.116005 1_655
Li11 O25 2.121682 1_545
Li11 O19 2.133348 1_555
Li11 O24 2.133374 1_555
Li12 O18 2.084311 1_555
Li12 O23 2.101881 1_556
Li12 O21 2.117189 1_555
Li12 O15 2.117694 1_555
Li12 O3 2.130305 1_655
Li12 O4 2.139398 1_655
Mg0 O6 2.018044 1_555
Mg0 O15 2.018044 1_444
Mg0 O0 2.021639 1_554
Mg0 O25 2.021639 1_445
Mg0 O24 2.107596 1_455
Mg0 O4 2.107596 1_544
Ni0 O1 1.895896 1_555
Ni0 O4 1.905063 1_554
Ni0 O7 1.915097 1_555
Ni0 O23 1.918722 1_455
Ni0 O25 2.069763 1_455
Ni0 O5 2.107402 1_555
Ni1 O3 1.902541 1_555
Ni1 O2 1.906101 1_555
Ni1 O22 1.907303 1_455
Ni1 O8 1.907474 1_555
Ni1 O9 2.104145 1_555
Ni1 O21 2.114767 1_455
Ni2 O16 1.899801 1_565
Ni2 O4 1.906909 1_554
Ni2 O7 1.914557 1_555
Ni2 O10 1.917163 1_554
Ni2 O6 2.070084 1_565
Ni2 O13 2.109824 1_555
Ni3 O0 1.893745 1_555
Ni3 O6 1.896872 1_556
Ni3 O9 1.910252 1_555
Ni3 O12 1.911578 1_555
Ni3 O10 2.098993 1_545
Ni3 O3 2.113789 1_555
Ni4 O11 1.899033 1_555
Ni4 O8 1.905086 1_555
Ni4 O5 1.905344 1_555
Ni4 O2 1.906709 1_555
Ni4 O1 2.089322 1_555
Ni4 O14 2.108942 1_555
Ni5 O17 1.890396 1_555
Ni5 O13 1.896024 1_555
Ni5 O5 1.898519 1_555
Ni5 O11 1.904058 1_555
Ni5 O7 2.115022 1_555
Ni5 O19 2.119107 1_555
Ni6 O9 1.890396 1_555
Ni6 O12 1.896024 1_555
Ni6 O18 1.898519 1_555
Ni6 O14 1.904058 1_555
Ni6 O20 2.115022 1_555
Ni6 O8 2.119107 1_555
Ni7 O14 1.899033 1_555
Ni7 O19 1.905086 1_555
Ni7 O18 1.905344 1_555
Ni7 O21 1.906709 1_555
Ni7 O22 2.089322 1_555
Ni7 O11 2.108942 1_555
Ni8 O25 1.893745 1_555
Ni8 O15 1.896872 1_554
Ni8 O17 1.910252 1_555
Ni8 O13 1.911578 1_555
Ni8 O16 2.098993 1_565
Ni8 O23 2.113789 1_555
Ni9 O10 1.899801 1_545
Ni9 O24 1.906909 1_556
Ni9 O20 1.914557 1_555
Ni9 O16 1.917163 1_556
Ni9 O15 2.070084 1_545
Ni9 O12 2.109824 1_555
Ni10 O22 1.895896 1_555
Ni10 O24 1.905063 1_556
Ni10 O20 1.915097 1_555
Ni10 O3 1.918722 1_655
Ni10 O0 2.069763 1_655
Ni10 O18 2.107402 1_555
Ni11 O23 1.902541 1_555
Ni11 O21 1.906101 1_555
Ni11 O1 1.907303 1_655
Ni11 O19 1.907474 1_555
Ni11 O17 2.104145 1_555
Ni11 O2 2.114767 1_655
