# generated using pymatgen
data_LiMnP2HO7
_symmetry_space_group_name_H-M   'P 1'
_cell_length_a   6.66370673
_cell_length_b   6.58967379
_cell_length_c   12.49898429
_cell_angle_alpha   96.71110131
_cell_angle_beta   99.41910660
_cell_angle_gamma   90.40910447
_symmetry_Int_Tables_number   1
_chemical_formula_structural   LiMnP2HO7
_chemical_formula_sum   'Li4 Mn4 P8 H4 O28'
_cell_volume   537.54798779
_cell_formula_units_Z   4
loop_
 _symmetry_equiv_pos_site_id
 _symmetry_equiv_pos_as_xyz
  1  'x, y, z'
loop_
 _atom_site_type_symbol
 _atom_site_label
 _atom_site_symmetry_multiplicity
 _atom_site_fract_x
 _atom_site_fract_y
 _atom_site_fract_z
 _atom_site_occupancy
  Li  Li0  1  0.96625100  0.11939700  0.12062200  1
  Li  Li1  1  0.46625800  0.11928900  0.62058100  1
  Li  Li2  1  0.53358700  0.88065200  0.37934700  1
  Li  Li3  1  0.03386600  0.88068800  0.87945500  1
  Mn  Mn0  1  0.83082500  0.34813300  0.55224500  1
  Mn  Mn1  1  0.16972800  0.65239900  0.44786100  1
  Mn  Mn2  1  0.33020200  0.34740600  0.05205400  1
  Mn  Mn3  1  0.66982100  0.65268500  0.94784500  1
  P  P0  1  0.15775700  0.15796100  0.38643800  1
  P  P1  1  0.65779700  0.15790200  0.88640100  1
  P  P2  1  0.34218800  0.84210000  0.11355700  1
  P  P3  1  0.84212500  0.84201900  0.61354800  1
  P  P4  1  0.50261700  0.38659000  0.32001300  1
  P  P5  1  0.00264900  0.38648500  0.82007500  1
  P  P6  1  0.99738700  0.61349500  0.17997500  1
  P  P7  1  0.49734500  0.61327800  0.67998500  1
  H  H0  1  0.83092900  0.16670600  0.32803000  1
  H  H1  1  0.33102200  0.16649800  0.82798900  1
  H  H2  1  0.66898400  0.83350900  0.17197500  1
  H  H3  1  0.16893600  0.83328800  0.67198700  1
  O  O0  1  0.95669300  0.09233900  0.30232600  1
  O  O1  1  0.45674300  0.09218300  0.80230000  1
  O  O2  1  0.54324400  0.90783300  0.19765500  1
  O  O3  1  0.04319100  0.90766700  0.69766000  1
  O  O4  1  0.23318100  0.02234300  0.06569800  1
  O  O5  1  0.73316800  0.02227100  0.56568600  1
  O  O6  1  0.26669300  0.97762200  0.43429300  1
  O  O7  1  0.76677700  0.97758400  0.93422100  1
  O  O8  1  0.29401400  0.24254200  0.30765300  1
  O  O9  1  0.79403100  0.24252600  0.80762600  1
  O  O10  1  0.20596900  0.75751800  0.19236500  1
  O  O11  1  0.70595700  0.75733600  0.69236500  1
  O  O12  1  0.66905700  0.26447000  0.38441700  1
  O  O13  1  0.16906100  0.26421500  0.88444200  1
  O  O14  1  0.83096200  0.73571000  0.11558600  1
  O  O15  1  0.33089600  0.73552500  0.61561600  1
  O  O16  1  0.11193400  0.32561600  0.47299600  1
  O  O17  1  0.61194000  0.32550300  0.97300100  1
  O  O18  1  0.38808900  0.67443500  0.02697800  1
  O  O19  1  0.88806700  0.67435100  0.52704100  1
  O  O20  1  0.52843800  0.39519000  0.20308600  1
  O  O21  1  0.02866100  0.39500500  0.70315000  1
  O  O22  1  0.97150200  0.60502800  0.29693500  1
  O  O23  1  0.47146100  0.60477800  0.79689200  1
  O  O24  1  0.04225300  0.41142900  0.11568300  1
  O  O25  1  0.54230400  0.41127600  0.61565800  1
  O  O26  1  0.45766700  0.58861600  0.38434600  1
  O  O27  1  0.95776900  0.58861000  0.88434300  1
loop_
_geom_bond_atom_site_label_1
_geom_bond_atom_site_label_2
_geom_bond_distance
_geom_bond_site_symmetry_2
Li0 O24 1.996920 1_655
Li0 O4 2.087471 1_655
Li0 O0 2.309901 1_555
Li0 O7 2.554992 1_544
Li1 O25 1.996670 1_555
Li1 O5 2.087128 1_555
Li1 O1 2.310095 1_555
Li1 O6 2.553863 1_545
Li2 O26 1.996946 1_555
Li2 O6 2.087221 1_555
Li2 O2 2.310032 1_555
Li2 O5 2.554321 1_565
Li3 O27 1.997254 1_455
Li3 O7 2.087295 1_455
Li3 O3 2.310644 1_555
Li3 O4 2.552787 1_566
Mn0 O21 2.105971 1_655
Mn0 O12 2.201663 1_555
Mn0 O25 2.220569 1_555
Mn0 O19 2.247604 1_555
Mn0 O16 2.255901 1_655
Mn0 O5 2.272192 1_555
Mn1 O22 2.107544 1_455
Mn1 O15 2.199091 1_555
Mn1 O26 2.218234 1_555
Mn1 O16 2.251666 1_555
Mn1 O19 2.258661 1_455
Mn1 O6 2.267209 1_555
Mn2 O20 2.108711 1_555
Mn2 O13 2.197580 1_554
Mn2 O24 2.219219 1_555
Mn2 O18 2.253150 1_555
Mn2 O17 2.258219 1_554
Mn2 O4 2.266534 1_555
Mn3 O23 2.108375 1_555
Mn3 O14 2.198795 1_556
Mn3 O27 2.218508 1_555
Mn3 O17 2.254401 1_555
Mn3 O18 2.258731 1_556
Mn3 O7 2.265322 1_555
H0 O0 1.050190 1_555
H0 O12 1.492617 1_555
H1 O1 1.049725 1_555
H1 O13 1.493421 1_555
H2 O2 1.049815 1_555
H2 O14 1.493286 1_555
H3 O3 1.049968 1_555
H3 O15 1.492977 1_555
O0 P0 1.584876 1_655
O1 P1 1.584880 1_555
O2 P2 1.584889 1_555
O3 P3 1.584918 1_455
O4 P2 1.527208 1_545
O5 P3 1.527134 1_545
O6 P0 1.527514 1_565
O7 P1 1.527345 1_565
O8 P0 1.586971 1_555
O8 P4 1.653417 1_555
O9 P1 1.586893 1_555
O9 P5 1.653049 1_655
O10 P2 1.587021 1_555
O10 P6 1.653169 1_455
O11 P3 1.587158 1_555
O11 P7 1.653475 1_555
O12 P4 1.548430 1_555
O13 P5 1.548677 1_555
O14 P6 1.548647 1_555
O15 P7 1.548756 1_555
O16 P0 1.522454 1_555
O17 P1 1.522644 1_555
O18 P2 1.522837 1_555
O19 P3 1.522345 1_555
O20 P4 1.506730 1_555
O21 P5 1.506973 1_555
O22 P6 1.507124 1_555
O23 P7 1.506497 1_555
O24 P6 1.530486 1_455
O25 P7 1.530522 1_555
O26 P4 1.530667 1_555
O27 P5 1.530691 1_655
