# generated using pymatgen
data_Li3MnV(PO4)3
_symmetry_space_group_name_H-M   'P 1'
_cell_length_a   9.01854508
_cell_length_b   9.01854508
_cell_length_c   9.01854489
_cell_angle_alpha   56.11453572
_cell_angle_beta   56.11453572
_cell_angle_gamma   56.11453053
_symmetry_Int_Tables_number   1
_chemical_formula_structural   Li3MnV(PO4)3
_chemical_formula_sum   'Li6 Mn2 V2 P6 O24'
_cell_volume   472.00987116
_cell_formula_units_Z   2
loop_
 _symmetry_equiv_pos_site_id
 _symmetry_equiv_pos_as_xyz
  1  'x, y, z'
loop_
 _atom_site_type_symbol
 _atom_site_label
 _atom_site_symmetry_multiplicity
 _atom_site_fract_x
 _atom_site_fract_y
 _atom_site_fract_z
 _atom_site_occupancy
  Li  Li0  1  0.26607600  0.92102100  0.66368400  1
  Li  Li1  1  0.92102100  0.66368400  0.26607600  1
  Li  Li2  1  0.66368400  0.26607600  0.92102100  1
  Li  Li3  1  0.33554000  0.73695900  0.07748300  1
  Li  Li4  1  0.07748300  0.33554000  0.73695900  1
  Li  Li5  1  0.73695900  0.07748300  0.33554000  1
  Mn  Mn0  1  0.65240000  0.65240000  0.65240000  1
  Mn  Mn1  1  0.14584900  0.14584900  0.14584900  1
  V  V0  1  0.85349400  0.85349400  0.85349400  1
  V  V1  1  0.34893500  0.34893500  0.34893500  1
  P  P0  1  0.95909200  0.25049000  0.53995700  1
  P  P1  1  0.53995700  0.95909200  0.25049000  1
  P  P2  1  0.25049000  0.53995700  0.95909200  1
  P  P3  1  0.74917800  0.45917800  0.04147700  1
  P  P4  1  0.45917800  0.04147700  0.74917800  1
  P  P5  1  0.04147700  0.74917800  0.45917800  1
  O  O0  1  0.15641000  0.20881900  0.53758700  1
  O  O1  1  0.83430800  0.46324000  0.50791400  1
  O  O2  1  0.50791400  0.83430800  0.46324000  1
  O  O3  1  0.53758700  0.15641000  0.20881900  1
  O  O4  1  0.20881900  0.53758700  0.15641000  1
  O  O5  1  0.99073300  0.19807900  0.38948800  1
  O  O6  1  0.74551800  0.86716200  0.11925600  1
  O  O7  1  0.38948800  0.99073300  0.19807900  1
  O  O8  1  0.46324000  0.50791400  0.83430800  1
  O  O9  1  0.11925600  0.74551800  0.86716200  1
  O  O10  1  0.19807900  0.38948800  0.99073300  1
  O  O11  1  0.86716200  0.11925600  0.74551800  1
  O  O12  1  0.14011200  0.87047600  0.25620700  1
  O  O13  1  0.80211300  0.61579400  0.00266100  1
  O  O14  1  0.87047600  0.25620700  0.14011200  1
  O  O15  1  0.53355400  0.49554900  0.16626100  1
  O  O16  1  0.61579400  0.00266100  0.80211300  1
  O  O17  1  0.25620700  0.14011200  0.87047600  1
  O  O18  1  0.00266100  0.80211300  0.61579400  1
  O  O19  1  0.79279200  0.45708400  0.84806100  1
  O  O20  1  0.45708400  0.84806100  0.79279200  1
  O  O21  1  0.49554900  0.16626100  0.53355400  1
  O  O22  1  0.16626100  0.53355400  0.49554900  1
  O  O23  1  0.84806100  0.79279200  0.45708400  1
loop_
_geom_bond_atom_site_label_1
_geom_bond_atom_site_label_2
_geom_bond_distance
_geom_bond_site_symmetry_2
Li0 O2 1.978480 1_555
Li0 O9 2.003672 1_555
Li0 O0 2.026962 1_565
Li0 O20 2.207817 1_555
Li1 O1 1.978480 1_555
Li1 O6 2.003672 1_555
Li1 O4 2.026962 1_655
Li1 O23 2.207817 1_555
Li2 O8 1.978480 1_555
Li2 O11 2.003672 1_555
Li2 O3 2.026962 1_556
Li2 O19 2.207818 1_555
Li3 O12 1.945321 1_555
Li3 O15 1.971141 1_555
Li3 O20 2.003857 1_554
Li3 O4 2.236700 1_555
Li4 O17 1.945321 1_555
Li4 O22 1.971141 1_555
Li4 O19 2.003857 1_455
Li4 O0 2.236700 1_555
Li5 O14 1.945321 1_555
Li5 O21 1.971141 1_555
Li5 O23 2.003857 1_545
Li5 O3 2.236700 1_555
Mn0 O1 2.067341 1_555
Mn0 O2 2.067341 1_555
Mn0 O8 2.067341 1_555
Mn0 O20 2.087600 1_555
Mn0 O19 2.087600 1_555
Mn0 O23 2.087600 1_555
Mn1 O7 1.999667 1_545
Mn1 O5 1.999667 1_455
Mn1 O10 1.999667 1_554
Mn1 O14 2.119093 1_455
Mn1 O17 2.119093 1_554
Mn1 O12 2.119093 1_545
O0 P0 1.590350 1_455
O0 V1 2.064311 1_555
O1 P0 1.538837 1_555
O2 P1 1.538837 1_555
O3 P1 1.590350 1_545
O3 V1 2.064311 1_555
O4 P2 1.590350 1_554
O4 V1 2.064311 1_555
O5 P0 1.509756 1_555
O6 P1 1.568006 1_555
O6 V0 2.073911 1_554
O7 P1 1.509756 1_555
O8 P2 1.538837 1_555
O9 P2 1.568006 1_555
O9 V0 2.073911 1_455
O10 P2 1.509756 1_555
O11 P0 1.568006 1_555
O11 V0 2.073911 1_545
O12 P5 1.541183 1_555
O13 P3 1.536118 1_555
O13 V0 1.953664 1_554
O14 P3 1.541183 1_555
O15 P3 1.554253 1_555
O15 V1 2.049846 1_555
O16 P4 1.536118 1_555
O16 V0 1.953664 1_545
O17 P4 1.541183 1_555
O18 P5 1.536118 1_555
O18 V0 1.953664 1_455
O19 P3 1.568806 1_556
O20 P4 1.568806 1_565
O21 P4 1.554253 1_555
O21 V1 2.049846 1_555
O22 P5 1.554253 1_555
O22 V1 2.049846 1_555
O23 P5 1.568806 1_655
