# generated using pymatgen
data_BaTi10O20
_symmetry_space_group_name_H-M   'P 1'
_cell_length_a   8.49310100
_cell_length_b   10.38261376
_cell_length_c   10.38388458
_cell_angle_alpha   88.35210532
_cell_angle_beta   112.07436280
_cell_angle_gamma   112.21903270
_symmetry_Int_Tables_number   1
_chemical_formula_structural   BaTi10O20
_chemical_formula_sum   'Ba2 Ti20 O40'
_cell_volume   778.64098971
_cell_formula_units_Z   2
loop_
 _symmetry_equiv_pos_site_id
 _symmetry_equiv_pos_as_xyz
  1  'x, y, z'
loop_
 _atom_site_type_symbol
 _atom_site_label
 _atom_site_symmetry_multiplicity
 _atom_site_fract_x
 _atom_site_fract_y
 _atom_site_fract_z
 _atom_site_occupancy
  Ba  Ba0  1  0.99891000  0.29707700  0.29738800  1
  Ba  Ba1  1  0.00109000  0.70292300  0.70261200  1
  Ti  Ti0  1  0.81416000  0.39754900  0.89123400  1
  Ti  Ti1  1  0.82273300  0.20853100  0.68502700  1
  Ti  Ti2  1  0.81046500  0.99829200  0.48754000  1
  Ti  Ti3  1  0.82151800  0.80862800  0.28641600  1
  Ti  Ti4  1  0.81982100  0.60589200  0.08525400  1
  Ti  Ti5  1  0.18017900  0.39410800  0.91474600  1
  Ti  Ti6  1  0.17848200  0.19137200  0.71358400  1
  Ti  Ti7  1  0.18953500  0.00170800  0.51246000  1
  Ti  Ti8  1  0.17726700  0.79146900  0.31497300  1
  Ti  Ti9  1  0.18584000  0.60245100  0.10876600  1
  Ti  Ti10  1  0.47236400  0.55129900  0.73220000  1
  Ti  Ti11  1  0.49528800  0.35710900  0.54191700  1
  Ti  Ti12  1  0.47791500  0.15447300  0.33348900  1
  Ti  Ti13  1  0.47815400  0.95392900  0.13275400  1
  Ti  Ti14  1  0.49578500  0.75532500  0.94006300  1
  Ti  Ti15  1  0.50421500  0.24467500  0.05993700  1
  Ti  Ti16  1  0.52184600  0.04607100  0.86724600  1
  Ti  Ti17  1  0.52208500  0.84552700  0.66651100  1
  Ti  Ti18  1  0.50471200  0.64289100  0.45808300  1
  Ti  Ti19  1  0.52763600  0.44870100  0.26780000  1
  O  O0  1  0.04773700  0.19664000  0.83183300  1
  O  O1  1  0.04655300  0.99016200  0.63446000  1
  O  O2  1  0.04795100  0.79506600  0.43915100  1
  O  O3  1  0.04749300  0.58978000  0.23367200  1
  O  O4  1  0.04585200  0.39285400  0.03748000  1
  O  O5  1  0.95414800  0.60714600  0.96252000  1
  O  O6  1  0.95250700  0.41022000  0.76632800  1
  O  O7  1  0.95204900  0.20493400  0.56084900  1
  O  O8  1  0.95344700  0.00983800  0.36554000  1
  O  O9  1  0.95226300  0.80336000  0.16816700  1
  O  O10  1  0.64518700  0.31572700  0.26886300  1
  O  O11  1  0.64262000  0.11785600  0.06943400  1
  O  O12  1  0.63938000  0.91467600  0.86767100  1
  O  O13  1  0.63984000  0.71441800  0.66671200  1
  O  O14  1  0.64751700  0.51943700  0.47395600  1
  O  O15  1  0.35248300  0.48056300  0.52604400  1
  O  O16  1  0.36016000  0.28558200  0.33328800  1
  O  O17  1  0.36062000  0.08532400  0.13232900  1
  O  O18  1  0.35738000  0.88214400  0.93056600  1
  O  O19  1  0.35481300  0.68427300  0.73113700  1
  O  O20  1  0.62489100  0.63706600  0.93302400  1
  O  O21  1  0.62503000  0.84137400  0.13712500  1
  O  O22  1  0.62688200  0.04093200  0.33423900  1
  O  O23  1  0.62574300  0.23913400  0.53374100  1
  O  O24  1  0.62980400  0.44434600  0.73720600  1
  O  O25  1  0.37019600  0.55565400  0.26279400  1
  O  O26  1  0.37425700  0.76086600  0.46625900  1
  O  O27  1  0.37311800  0.95906800  0.66576100  1
  O  O28  1  0.37497000  0.15862600  0.86287500  1
  O  O29  1  0.37510900  0.36293400  0.06697600  1
  O  O30  1  0.29159700  0.60236800  0.97052700  1
  O  O31  1  0.29606800  0.80273800  0.17912600  1
  O  O32  1  0.29567900  0.99862500  0.37491500  1
  O  O33  1  0.29250200  0.20442600  0.57368000  1
  O  O34  1  0.29625800  0.39884200  0.77786600  1
  O  O35  1  0.70374200  0.60115800  0.22213400  1
  O  O36  1  0.70749800  0.79557400  0.42632000  1
  O  O37  1  0.70432100  0.00137500  0.62508500  1
  O  O38  1  0.70393200  0.19726200  0.82087400  1
  O  O39  1  0.70840300  0.39763200  0.02947300  1
loop_
_geom_bond_atom_site_label_1
_geom_bond_atom_site_label_2
_geom_bond_distance
_geom_bond_site_symmetry_2
Ba0 O8 2.959234 1_555
Ba0 O4 2.964147 1_655
Ba0 O11 2.972093 1_555
Ba0 O15 2.976385 1_655
Ba0 O10 2.986354 1_555
Ba0 O7 2.989623 1_555
Ba0 O16 2.996893 1_655
Ba0 O3 2.997471 1_655
Ba1 O1 2.959234 1_555
Ba1 O5 2.964147 1_455
Ba1 O18 2.972093 1_555
Ba1 O14 2.976385 1_455
Ba1 O19 2.986354 1_555
Ba1 O2 2.989623 1_555
Ba1 O13 2.996893 1_455
Ba1 O6 2.997471 1_455
O0 Ti6 1.954063 1_555
O0 Ti5 1.959449 1_555
O0 Ti1 1.992230 1_455
O1 Ti6 1.982740 1_565
O1 Ti7 2.032576 1_565
O1 Ti2 2.043642 1_455
O2 Ti8 1.992123 1_555
O2 Ti7 2.020716 1_565
O2 Ti3 2.032989 1_455
O3 Ti8 1.992321 1_555
O3 Ti9 2.024570 1_555
O3 Ti4 2.032748 1_455
O4 Ti0 2.000735 1_454
O4 Ti5 2.001648 1_554
O4 Ti9 2.042443 1_555
O5 Ti9 2.000735 1_656
O5 Ti4 2.001648 1_556
O5 Ti0 2.042443 1_555
O6 Ti1 1.992321 1_555
O6 Ti0 2.024570 1_555
O6 Ti5 2.032748 1_655
O7 Ti1 1.992123 1_555
O7 Ti2 2.020716 1_545
O7 Ti6 2.032989 1_655
O8 Ti3 1.982740 1_545
O8 Ti2 2.032576 1_545
O8 Ti7 2.043642 1_655
O9 Ti3 1.954063 1_555
O9 Ti4 1.959449 1_555
O9 Ti8 1.992230 1_655
O10 Ti19 1.984004 1_555
O10 Ti12 2.030949 1_555
O10 Ti15 2.038632 1_555
O11 Ti16 1.977042 1_554
O11 Ti13 2.026856 1_545
O11 Ti15 2.049686 1_555
O12 Ti17 1.962739 1_555
O12 Ti14 1.970082 1_555
O12 Ti16 1.970750 1_565
O13 Ti17 1.970055 1_555
O13 Ti18 2.034957 1_555
O13 Ti10 2.047629 1_555
O14 Ti11 1.994869 1_555
O14 Ti19 2.011295 1_555
O14 Ti18 2.038254 1_555
O15 Ti18 1.994869 1_555
O15 Ti10 2.011295 1_555
O15 Ti11 2.038254 1_555
O16 Ti12 1.970055 1_555
O16 Ti11 2.034957 1_555
O16 Ti19 2.047629 1_555
O17 Ti12 1.962739 1_555
O17 Ti15 1.970082 1_555
O17 Ti13 1.970750 1_545
O18 Ti13 1.977042 1_556
O18 Ti16 2.026856 1_565
O18 Ti14 2.049686 1_555
O19 Ti10 1.984004 1_555
O19 Ti17 2.030949 1_555
O19 Ti14 2.038632 1_555
O20 Ti4 1.937322 1_556
O20 Ti14 1.949075 1_555
O20 Ti10 2.005906 1_555
O21 Ti3 1.938555 1_555
O21 Ti14 1.966092 1_554
O21 Ti13 1.995171 1_555
O22 Ti2 1.943471 1_545
O22 Ti13 2.012018 1_545
O22 Ti12 2.027443 1_555
O23 Ti1 1.940566 1_555
O23 Ti11 1.959141 1_555
O23 Ti12 1.995259 1_555
O24 Ti11 1.954362 1_555
O24 Ti0 1.973365 1_555
O24 Ti10 2.022673 1_555
O25 Ti18 1.954362 1_555
O25 Ti9 1.973365 1_555
O25 Ti19 2.022673 1_555
O26 Ti8 1.940566 1_555
O26 Ti18 1.959141 1_555
O26 Ti17 1.995259 1_555
O27 Ti7 1.943471 1_565
O27 Ti16 2.012018 1_565
O27 Ti17 2.027443 1_555
O28 Ti6 1.938555 1_555
O28 Ti15 1.966092 1_556
O28 Ti16 1.995171 1_555
O29 Ti5 1.937322 1_554
O29 Ti15 1.949075 1_555
O29 Ti19 2.005906 1_555
O30 Ti9 1.958841 1_556
O30 Ti14 1.982441 1_555
O30 Ti5 2.004745 1_555
O31 Ti13 1.941091 1_555
O31 Ti9 1.958442 1_555
O31 Ti8 1.998149 1_555
O32 Ti12 1.940396 1_565
O32 Ti7 1.961076 1_565
O32 Ti8 1.998863 1_555
O33 Ti7 1.966184 1_555
O33 Ti11 1.979915 1_555
O33 Ti6 2.003350 1_555
O34 Ti10 1.914907 1_555
O34 Ti5 2.001782 1_555
O34 Ti6 2.009340 1_555
O35 Ti19 1.914907 1_555
O35 Ti4 2.001782 1_555
O35 Ti3 2.009340 1_555
O36 Ti2 1.966184 1_555
O36 Ti18 1.979915 1_555
O36 Ti3 2.003350 1_555
O37 Ti17 1.940396 1_545
O37 Ti2 1.961076 1_545
O37 Ti1 1.998863 1_555
O38 Ti16 1.941091 1_555
O38 Ti0 1.958442 1_555
O38 Ti1 1.998149 1_555
O39 Ti0 1.958841 1_554
O39 Ti15 1.982441 1_555
O39 Ti4 2.004745 1_555
