# generated using pymatgen
data_Na2SnO3
_symmetry_space_group_name_H-M   'P 1'
_cell_length_a   5.51146604
_cell_length_b   5.51146378
_cell_length_c   10.99769599
_cell_angle_alpha   90.00000089
_cell_angle_beta   90.00003200
_cell_angle_gamma   120.00308200
_symmetry_Int_Tables_number   1
_chemical_formula_structural   Na2SnO3
_chemical_formula_sum   'Na8 Sn4 O12'
_cell_volume   289.30300661
_cell_formula_units_Z   4
loop_
 _symmetry_equiv_pos_site_id
 _symmetry_equiv_pos_as_xyz
  1  'x, y, z'
loop_
 _atom_site_type_symbol
 _atom_site_label
 _atom_site_symmetry_multiplicity
 _atom_site_fract_x
 _atom_site_fract_y
 _atom_site_fract_z
 _atom_site_occupancy
  Na  Na0  1  -0.00000289  0.68036315  0.24999974  1
  Na  Na1  1  0.31963726  0.00000339  0.74999975  1
  Na  Na2  1  0.00000335  0.31963646  0.74999961  1
  Na  Na3  1  -0.00000001  0.00000019  0.00000036  1
  Na  Na4  1  -0.00000078  0.00000002  0.49999956  1
  Na  Na5  1  0.31960494  0.31960494  0.24999959  1
  Na  Na6  1  0.68036360  -0.00000327  0.24999973  1
  Na  Na7  1  0.68039615  0.68039596  0.74999976  1
  Sn  Sn0  1  0.33332545  0.66667797  0.00000309  1
  Sn  Sn1  1  0.66667374  0.33331880  0.00000429  1
  Sn  Sn2  1  0.66668202  0.33332366  0.49999910  1
  Sn  Sn3  1  0.33332278  0.66667768  0.49999794  1
  O  O0  1  0.00000412  0.63281067  0.60547561  1
  O  O1  1  0.00000553  0.63281178  0.89452342  1
  O  O2  1  -0.00000558  0.36718966  0.10547391  1
  O  O3  1  -0.00000679  0.36718928  0.39452574  1
  O  O4  1  0.36718994  -0.00000527  0.10547386  1
  O  O5  1  0.36718853  -0.00000608  0.39452514  1
  O  O6  1  0.63281072  0.00000606  0.60547510  1
  O  O7  1  0.63281157  0.00000583  0.89452394  1
  O  O8  1  0.36718572  0.36718664  0.60547977  1
  O  O9  1  0.36718660  0.36718657  0.89451997  1
  O  O10  1  0.63281233  0.63281278  0.10547730  1
  O  O11  1  0.63281168  0.63281312  0.39452171  1
loop_
_geom_bond_atom_site_label_1
_geom_bond_atom_site_label_2
_geom_bond_distance
_geom_bond_site_symmetry_2
Na0 O2 2.346393 1_555
Na0 O3 2.346393 1_555
Na0 O5 2.481903 1_565
Na0 O4 2.481913 1_565
Na0 O10 2.481929 1_455
Na0 O11 2.481930 1_455
Na1 O7 2.346384 1_555
Na1 O6 2.346385 1_555
Na1 O1 2.481895 1_545
Na1 O0 2.481902 1_545
Na1 O9 2.481908 1_555
Na1 O8 2.481909 1_555
Na2 O0 2.346386 1_555
Na2 O1 2.346386 1_555
Na2 O7 2.481898 1_455
Na2 O6 2.481900 1_455
Na2 O8 2.481902 1_555
Na2 O9 2.481908 1_555
Na3 O10 2.332543 1_445
Na3 O9 2.332557 1_554
Na3 O2 2.332628 1_555
Na3 O4 2.332630 1_555
Na3 O7 2.332639 1_454
Na3 O1 2.332641 1_544
Na4 O11 2.332545 1_445
Na4 O8 2.332555 1_555
Na4 O3 2.332630 1_555
Na4 O5 2.332635 1_555
Na4 O6 2.332637 1_455
Na4 O0 2.332640 1_545
Na5 O11 2.346449 1_555
Na5 O10 2.346452 1_555
Na5 O5 2.481956 1_555
Na5 O4 2.481957 1_555
Na5 O2 2.481957 1_555
Na5 O3 2.481966 1_555
Na6 O4 2.346395 1_555
Na6 O5 2.346397 1_555
Na6 O3 2.481909 1_655
Na6 O2 2.481912 1_655
Na6 O11 2.481918 1_545
Na6 O10 2.481924 1_545
Na7 O8 2.346443 1_555
Na7 O9 2.346444 1_555
Na7 O1 2.481937 1_655
Na7 O0 2.481938 1_655
Na7 O7 2.481944 1_565
Na7 O6 2.481950 1_565
O0 Sn3 2.100566 1_555
O0 Sn2 2.100575 1_455
O1 Sn0 2.100584 1_556
O1 Sn1 2.100640 1_456
O2 Sn1 2.100518 1_455
O2 Sn0 2.100568 1_555
O3 Sn2 2.100508 1_455
O3 Sn3 2.100571 1_555
O4 Sn0 2.100519 1_545
O4 Sn1 2.100533 1_555
O5 Sn3 2.100527 1_545
O5 Sn2 2.100592 1_555
O6 Sn2 2.100542 1_555
O6 Sn3 2.100597 1_545
O7 Sn1 2.100564 1_556
O7 Sn0 2.100606 1_546
O8 Sn3 2.100774 1_555
O8 Sn2 2.100792 1_555
O9 Sn0 2.100779 1_556
O9 Sn1 2.100784 1_556
O10 Sn0 2.100715 1_555
O10 Sn1 2.100730 1_555
O11 Sn3 2.100736 1_555
O11 Sn2 2.100759 1_555
