# generated using pymatgen
data_Li2CoSiO4
_symmetry_space_group_name_H-M   'P 1'
_cell_length_a   5.03243000
_cell_length_b   6.34091200
_cell_length_c   10.81251579
_cell_angle_alpha   89.24618151
_cell_angle_beta   90.00000000
_cell_angle_gamma   90.00000000
_symmetry_Int_Tables_number   1
_chemical_formula_structural   Li2CoSiO4
_chemical_formula_sum   'Li8 Co4 Si4 O16'
_cell_volume   344.99963445
_cell_formula_units_Z   4
loop_
 _symmetry_equiv_pos_site_id
 _symmetry_equiv_pos_as_xyz
  1  'x, y, z'
loop_
 _atom_site_type_symbol
 _atom_site_label
 _atom_site_symmetry_multiplicity
 _atom_site_fract_x
 _atom_site_fract_y
 _atom_site_fract_z
 _atom_site_occupancy
  Li  Li0  1  0.31413100  0.00008200  0.08650200  1
  Li  Li1  1  0.18586900  0.00008200  0.58650200  1
  Li  Li2  1  0.81296000  0.76824200  0.16946700  1
  Li  Li3  1  0.68704000  0.76824200  0.66946700  1
  Li  Li4  1  0.31296000  0.23175800  0.33053300  1
  Li  Li5  1  0.18704000  0.23175800  0.83053300  1
  Li  Li6  1  0.81413100  0.99991800  0.41349800  1
  Li  Li7  1  0.68586900  0.99991800  0.91349800  1
  Co  Co0  1  0.80333800  0.49333900  0.40482700  1
  Co  Co1  1  0.69666200  0.49333900  0.90482700  1
  Co  Co2  1  0.30333800  0.50666100  0.09517300  1
  Co  Co3  1  0.19666200  0.50666100  0.59517300  1
  Si  Si0  1  0.31575200  0.75835400  0.33832000  1
  Si  Si1  1  0.18424800  0.75835400  0.83832000  1
  Si  Si2  1  0.81575200  0.24164600  0.16168000  1
  Si  Si3  1  0.68424800  0.24164600  0.66168000  1
  O  O0  1  0.20661900  0.96592600  0.40775200  1
  O  O1  1  0.29338100  0.96592600  0.90775200  1
  O  O2  1  0.64526800  0.74998900  0.33794500  1
  O  O3  1  0.85473200  0.74998900  0.83794500  1
  O  O4  1  0.20684200  0.75142200  0.19316400  1
  O  O5  1  0.29315800  0.75142200  0.69316400  1
  O  O6  1  0.21070200  0.53355100  0.40888100  1
  O  O7  1  0.28929800  0.53355100  0.90888100  1
  O  O8  1  0.71070200  0.46644900  0.09111900  1
  O  O9  1  0.78929800  0.46644900  0.59111900  1
  O  O10  1  0.70684200  0.24857800  0.30683600  1
  O  O11  1  0.79315800  0.24857800  0.80683600  1
  O  O12  1  0.14526800  0.25001100  0.16205500  1
  O  O13  1  0.35473200  0.25001100  0.66205500  1
  O  O14  1  0.70661900  0.03407400  0.09224800  1
  O  O15  1  0.79338100  0.03407400  0.59224800  1
loop_
_geom_bond_atom_site_label_1
_geom_bond_atom_site_label_2
_geom_bond_distance
_geom_bond_site_symmetry_2
Li0 O1 1.950461 1_544
Li0 O12 1.983705 1_555
Li0 O14 1.987954 1_555
Li0 O4 2.014899 1_545
Li1 O0 1.950461 1_545
Li1 O13 1.983705 1_555
Li1 O15 1.987954 1_455
Li1 O5 2.014899 1_545
Li2 O14 1.946221 1_565
Li2 O4 2.001339 1_655
Li2 O2 2.009601 1_555
Li2 O8 2.164982 1_555
Li3 O15 1.946221 1_565
Li3 O5 2.001339 1_555
Li3 O3 2.009601 1_555
Li3 O9 2.164982 1_555
Li4 O0 1.946221 1_545
Li4 O10 2.001339 1_555
Li4 O12 2.009601 1_555
Li4 O6 2.164982 1_555
Li5 O1 1.946221 1_545
Li5 O11 2.001339 1_455
Li5 O13 2.009601 1_555
Li5 O7 2.164982 1_555
Li6 O15 1.950461 1_565
Li6 O2 1.983705 1_555
Li6 O0 1.987954 1_655
Li6 O10 2.014899 1_565
Li7 O14 1.950461 1_566
Li7 O3 1.983705 1_555
Li7 O1 1.987954 1_555
Li7 O11 2.014899 1_565
Co0 O2 1.942471 1_555
Co0 O10 1.952029 1_555
Co0 O9 2.020488 1_555
Co0 O6 2.066363 1_655
Co1 O3 1.942471 1_555
Co1 O11 1.952029 1_555
Co1 O8 2.020488 1_556
Co1 O7 2.066363 1_555
Co2 O12 1.942471 1_555
Co2 O4 1.952029 1_555
Co2 O7 2.020488 1_554
Co2 O8 2.066363 1_555
Co3 O13 1.942471 1_555
Co3 O5 1.952029 1_555
Co3 O6 2.020488 1_555
Co3 O9 2.066363 1_455
O0 Si0 1.619753 1_555
O1 Si1 1.619753 1_555
O2 Si0 1.659121 1_555
O3 Si1 1.659121 1_655
O4 Si0 1.663573 1_555
O5 Si1 1.663573 1_555
O6 Si0 1.692592 1_555
O7 Si1 1.692592 1_555
O8 Si2 1.692592 1_555
O9 Si3 1.692592 1_555
O10 Si2 1.663573 1_555
O11 Si3 1.663573 1_555
O12 Si2 1.659121 1_455
O13 Si3 1.659121 1_555
O14 Si2 1.619753 1_555
O15 Si3 1.619753 1_555
