# generated using pymatgen
data_Li2Mn3FeO8
_symmetry_space_group_name_H-M   'P 1'
_cell_length_a   5.90335800
_cell_length_b   5.90335800
_cell_length_c   9.45122700
_cell_angle_alpha   90.00000000
_cell_angle_beta   90.00000000
_cell_angle_gamma   120.00000004
_symmetry_Int_Tables_number   1
_chemical_formula_structural   Li2Mn3FeO8
_chemical_formula_sum   'Li4 Mn6 Fe2 O16'
_cell_volume   285.24436161
_cell_formula_units_Z   2
loop_
 _symmetry_equiv_pos_site_id
 _symmetry_equiv_pos_as_xyz
  1  'x, y, z'
loop_
 _atom_site_type_symbol
 _atom_site_label
 _atom_site_symmetry_multiplicity
 _atom_site_fract_x
 _atom_site_fract_y
 _atom_site_fract_z
 _atom_site_occupancy
  Li  Li0  1  0.33333300  0.66666700  0.89099600  1
  Li  Li1  1  0.00000000  0.00000000  0.99764900  1
  Li  Li2  1  0.00000000  0.00000000  0.49764900  1
  Li  Li3  1  0.66666700  0.33333300  0.39099600  1
  Mn  Mn0  1  0.17078600  0.82921400  0.21491600  1
  Mn  Mn1  1  0.17078600  0.34157200  0.21491600  1
  Mn  Mn2  1  0.65842800  0.82921400  0.21491600  1
  Mn  Mn3  1  0.34157200  0.17078600  0.71491600  1
  Mn  Mn4  1  0.82921400  0.65842800  0.71491600  1
  Mn  Mn5  1  0.82921400  0.17078600  0.71491600  1
  Fe  Fe0  1  0.33333300  0.66666700  0.49376900  1
  Fe  Fe1  1  0.66666700  0.33333300  0.99376900  1
  O  O0  1  0.16212100  0.83787900  0.60269900  1
  O  O1  1  0.03960000  0.51980000  0.33673100  1
  O  O2  1  0.33333300  0.66666700  0.10053200  1
  O  O3  1  0.00000000  0.00000000  0.30820000  1
  O  O4  1  0.00000000  0.00000000  0.80820000  1
  O  O5  1  0.16212100  0.32424200  0.60269900  1
  O  O6  1  0.48020000  0.96040000  0.33673100  1
  O  O7  1  0.48020000  0.51980000  0.33673100  1
  O  O8  1  0.32424200  0.16212100  0.10269900  1
  O  O9  1  0.67575800  0.83787900  0.60269900  1
  O  O10  1  0.51980000  0.48020000  0.83673100  1
  O  O11  1  0.51980000  0.03960000  0.83673100  1
  O  O12  1  0.66666700  0.33333300  0.60053200  1
  O  O13  1  0.83787900  0.67575800  0.10269900  1
  O  O14  1  0.96040000  0.48020000  0.83673100  1
  O  O15  1  0.83787900  0.16212100  0.10269900  1
loop_
_geom_bond_atom_site_label_1
_geom_bond_atom_site_label_2
_geom_bond_distance
_geom_bond_site_symmetry_2
Li0 O14 1.974380 1_455
Li0 O11 1.974380 1_565
Li0 O10 1.974385 1_555
Li0 O2 1.980372 1_556
Li1 O4 1.790526 1_555
Li1 O8 1.932262 1_556
Li1 O13 1.932262 1_446
Li1 O15 1.932262 1_456
Li2 O3 1.790526 1_555
Li2 O5 1.932262 1_555
Li2 O9 1.932262 1_445
Li2 O0 1.932262 1_545
Li3 O6 1.974380 1_545
Li3 O1 1.974380 1_655
Li3 O7 1.974385 1_555
Li3 O12 1.980372 1_555
Mn0 O3 1.956214 1_565
Mn0 O1 1.961396 1_555
Mn0 O6 1.961396 1_555
Mn0 O2 1.982688 1_555
Mn0 O13 2.006850 1_455
Mn0 O8 2.006850 1_565
Mn1 O3 1.956214 1_555
Mn1 O7 1.961396 1_555
Mn1 O1 1.961396 1_555
Mn1 O2 1.982692 1_555
Mn1 O15 2.006850 1_455
Mn1 O8 2.006850 1_555
Mn2 O3 1.956214 1_665
Mn2 O7 1.961396 1_555
Mn2 O6 1.961396 1_555
Mn2 O2 1.982692 1_555
Mn2 O15 2.006850 1_565
Mn2 O13 2.006850 1_555
Mn3 O4 1.956214 1_555
Mn3 O10 1.961396 1_555
Mn3 O11 1.961396 1_555
Mn3 O12 1.982692 1_555
Mn3 O0 2.006850 1_545
Mn3 O5 2.006850 1_555
Mn4 O4 1.956214 1_665
Mn4 O10 1.961396 1_555
Mn4 O14 1.961396 1_555
Mn4 O12 1.982692 1_555
Mn4 O0 2.006850 1_655
Mn4 O9 2.006850 1_555
Mn5 O4 1.956214 1_655
Mn5 O11 1.961396 1_555
Mn5 O14 1.961396 1_555
Mn5 O12 1.982688 1_555
Mn5 O5 2.006850 1_655
Mn5 O9 2.006850 1_545
Fe0 O0 2.030915 1_555
Fe0 O5 2.030919 1_555
Fe0 O9 2.030919 1_555
Fe0 O1 2.111386 1_555
Fe0 O6 2.111386 1_555
Fe0 O7 2.111390 1_555
Fe1 O15 2.030915 1_556
Fe1 O13 2.030919 1_556
Fe1 O8 2.030919 1_556
Fe1 O11 2.111386 1_555
Fe1 O14 2.111386 1_555
Fe1 O10 2.111390 1_555
