# generated using pymatgen
data_Mn6O7F5
_symmetry_space_group_name_H-M   'P 1'
_cell_length_a   4.65149002
_cell_length_b   5.67529026
_cell_length_c   15.28970260
_cell_angle_alpha   91.15810523
_cell_angle_beta   90.83521139
_cell_angle_gamma   87.06035898
_symmetry_Int_Tables_number   1
_chemical_formula_structural   Mn6O7F5
_chemical_formula_sum   'Mn12 O14 F10'
_cell_volume   402.97554657
_cell_formula_units_Z   2
loop_
 _symmetry_equiv_pos_site_id
 _symmetry_equiv_pos_as_xyz
  1  'x, y, z'
loop_
 _atom_site_type_symbol
 _atom_site_label
 _atom_site_symmetry_multiplicity
 _atom_site_fract_x
 _atom_site_fract_y
 _atom_site_fract_z
 _atom_site_occupancy
  Mn  Mn0  1  0.00734400  0.16786800  0.42063900  1
  Mn  Mn1  1  0.03091100  0.85259400  0.24518500  1
  Mn  Mn2  1  0.00966800  0.15781600  0.08825000  1
  Mn  Mn3  1  0.01991200  0.16758800  0.74554200  1
  Mn  Mn4  1  0.02588000  0.84452300  0.58051600  1
  Mn  Mn5  1  0.00826000  0.86322100  0.91218900  1
  Mn  Mn6  1  0.47237500  0.34719600  0.58928400  1
  Mn  Mn7  1  0.47118900  0.32179000  0.92176500  1
  Mn  Mn8  1  0.51981100  0.34572800  0.25095000  1
  Mn  Mn9  1  0.49137800  0.63210900  0.08609500  1
  Mn  Mn10  1  0.47276200  0.63599900  0.41424900  1
  Mn  Mn11  1  0.47953900  0.63814600  0.75157700  1
  O  O0  1  0.21980700  0.11706000  0.63825800  1
  O  O1  1  0.20347700  0.10732800  0.97508300  1
  O  O2  1  0.24022900  0.88146900  0.13770100  1
  O  O3  1  0.22185100  0.88575000  0.47218800  1
  O  O4  1  0.23035400  0.89344700  0.80484800  1
  O  O5  1  0.28551300  0.38345100  0.14329400  1
  O  O6  1  0.27711600  0.61155700  0.30241000  1
  O  O7  1  0.26578200  0.38733200  0.47922600  1
  O  O8  1  0.27051300  0.61269600  0.64190900  1
  O  O9  1  0.27081500  0.38672000  0.81075700  1
  O  O10  1  0.71808400  0.37635600  0.02712000  1
  O  O11  1  0.72897700  0.39231600  0.36238500  1
  O  O12  1  0.71981100  0.38684200  0.69342800  1
  O  O13  1  0.79870300  0.11702600  0.19407900  1
  F  F0  1  0.25957400  0.10886700  0.31011000  1
  F  F1  1  0.24928500  0.60807300  0.97469200  1
  F  F2  1  0.75540100  0.62002700  0.19178800  1
  F  F3  1  0.72732400  0.61956600  0.52533600  1
  F  F4  1  0.73074100  0.63463800  0.86149500  1
  F  F5  1  0.74071900  0.11230100  0.53172600  1
  F  F6  1  0.78462500  0.89506200  0.35609100  1
  F  F7  1  0.75415500  0.87193800  0.02039300  1
  F  F8  1  0.76570100  0.13784100  0.84983800  1
  F  F9  1  0.77241600  0.87775900  0.68960500  1
loop_
_geom_bond_atom_site_label_1
_geom_bond_atom_site_label_2
_geom_bond_distance
_geom_bond_site_symmetry_2
Mn0 O7 1.968735 1_555
Mn0 O11 1.983819 1_455
Mn0 O3 2.011100 1_545
Mn1 O2 1.936359 1_555
Mn1 O6 1.951117 1_555
Mn1 O13 1.971281 1_465
Mn2 O13 1.928601 1_455
Mn2 O1 1.971712 1_554
Mn2 O2 2.008314 1_545
Mn2 O5 2.021854 1_555
Mn2 O10 2.022076 1_455
Mn3 O0 1.906724 1_555
Mn3 O12 1.990311 1_455
Mn3 O9 1.991922 1_555
Mn3 O4 2.018903 1_545
Mn4 O3 1.926286 1_555
Mn4 O8 1.942218 1_555
Mn4 O0 2.012507 1_565
Mn5 O1 1.928284 1_565
Mn5 O4 1.967033 1_555
Mn6 O8 1.904567 1_555
Mn6 O7 1.937241 1_555
Mn6 O0 1.967060 1_555
Mn6 O12 1.967097 1_555
Mn7 O9 1.956828 1_555
Mn7 O1 1.980360 1_555
Mn7 O10 1.992987 1_556
Mn8 O11 1.969598 1_555
Mn8 O5 1.970025 1_555
Mn8 O13 1.984497 1_555
Mn8 O6 1.993173 1_555
Mn9 O2 1.949934 1_555
Mn9 O10 1.962063 1_555
Mn9 O5 1.971349 1_555
Mn10 O6 1.931182 1_555
Mn10 O11 1.943180 1_555
Mn10 O3 1.991399 1_555
Mn10 O7 2.032113 1_555
Mn11 O8 1.932591 1_555
Mn11 O12 1.971770 1_555
Mn11 O4 1.978326 1_555
Mn11 O9 2.004328 1_555
F0 Mn1 2.074028 1_545
F0 Mn8 2.082899 1_555
F0 Mn0 2.083077 1_555
F1 Mn5 2.031059 1_555
F1 Mn9 2.034314 1_556
F1 Mn7 2.039422 1_555
F2 Mn9 2.015544 1_555
F2 Mn1 2.037253 1_655
F2 Mn8 2.168712 1_555
F3 Mn10 2.057201 1_555
F3 Mn4 2.091527 1_655
F3 Mn6 2.243809 1_555
F4 Mn5 2.012960 1_655
F4 Mn11 2.032703 1_555
F4 Mn7 2.403666 1_555
F5 Mn6 1.980798 1_555
F5 Mn4 2.106101 1_645
F5 Mn0 2.155364 1_655
F6 Mn1 2.063429 1_655
F6 Mn0 2.125390 1_665
F6 Mn10 2.316441 1_555
F7 Mn5 2.045546 1_654
F7 Mn9 2.148831 1_555
F7 Mn2 2.283661 1_665
F8 Mn7 2.006689 1_555
F8 Mn3 2.013943 1_655
F8 Mn5 2.111687 1_645
F9 Mn4 2.056552 1_655
F9 Mn3 2.207038 1_665
F9 Mn11 2.209685 1_555
