# generated using pymatgen
data_Li3Co(NO2)6
_symmetry_space_group_name_H-M   'P 1'
_cell_length_a   6.37175924
_cell_length_b   6.37175924
_cell_length_c   6.37175934
_cell_angle_alpha   74.72237549
_cell_angle_beta   74.72237549
_cell_angle_gamma   74.72237896
_symmetry_Int_Tables_number   1
_chemical_formula_structural   Li3Co(NO2)6
_chemical_formula_sum   'Li3 Co1 N6 O12'
_cell_volume   235.43524082
_cell_formula_units_Z   1
loop_
 _symmetry_equiv_pos_site_id
 _symmetry_equiv_pos_as_xyz
  1  'x, y, z'
loop_
 _atom_site_type_symbol
 _atom_site_label
 _atom_site_symmetry_multiplicity
 _atom_site_fract_x
 _atom_site_fract_y
 _atom_site_fract_z
 _atom_site_occupancy
  Li  Li0  1  0.25508500  0.25508500  0.25508500  1
  Li  Li1  1  0.50000000  0.50000000  0.50000000  1
  Li  Li2  1  0.74491500  0.74491500  0.74491500  1
  Co  Co0  1  0.00000000  0.00000000  0.00000000  1
  N  N0  1  0.20349800  0.20349800  0.82776000  1
  N  N1  1  0.82776000  0.20349800  0.20349800  1
  N  N2  1  0.79650200  0.17224000  0.79650200  1
  N  N3  1  0.20349800  0.82776000  0.20349800  1
  N  N4  1  0.17224000  0.79650200  0.79650200  1
  N  N5  1  0.79650200  0.79650200  0.17224000  1
  O  O0  1  0.24592900  0.24592900  0.62017300  1
  O  O1  1  0.62017300  0.24592900  0.24592900  1
  O  O2  1  0.70828900  0.07494900  0.70828900  1
  O  O3  1  0.92505100  0.29171100  0.29171100  1
  O  O4  1  0.29171100  0.29171100  0.92505100  1
  O  O5  1  0.24592900  0.62017300  0.24592900  1
  O  O6  1  0.75407100  0.37982700  0.75407100  1
  O  O7  1  0.70828900  0.70828900  0.07494900  1
  O  O8  1  0.07494900  0.70828900  0.70828900  1
  O  O9  1  0.29171100  0.92505100  0.29171100  1
  O  O10  1  0.75407100  0.75407100  0.37982700  1
  O  O11  1  0.37982700  0.75407100  0.75407100  1
loop_
_geom_bond_atom_site_label_1
_geom_bond_atom_site_label_2
_geom_bond_distance
_geom_bond_site_symmetry_2
Li0 O9 2.010610 1_545
Li0 O3 2.010610 1_455
Li0 O4 2.010610 1_554
Li0 O1 2.297175 1_555
Li0 O5 2.297175 1_555
Li0 O0 2.297175 1_555
Li1 O10 2.429499 1_555
Li1 O0 2.429499 1_555
Li1 O6 2.429499 1_555
Li1 O11 2.429499 1_555
Li1 O5 2.429499 1_555
Li1 O1 2.429499 1_555
Li2 O8 2.010610 1_655
Li2 O2 2.010610 1_565
Li2 O7 2.010610 1_556
Li2 O11 2.297175 1_555
Li2 O6 2.297175 1_555
Li2 O10 2.297175 1_555
Co0 N0 1.988257 1_554
Co0 N5 1.988257 1_445
Co0 N1 1.988258 1_455
Co0 N3 1.988258 1_545
Co0 N2 1.988258 1_454
Co0 N4 1.988258 1_544
N0 O4 1.244942 1_555
N0 O0 1.247927 1_555
N1 O3 1.244942 1_555
N1 O1 1.247927 1_555
N2 O2 1.244942 1_555
N2 O6 1.247927 1_555
N3 O9 1.244942 1_555
N3 O5 1.247927 1_555
N4 O8 1.244942 1_555
N4 O11 1.247927 1_555
N5 O7 1.244942 1_555
N5 O10 1.247927 1_555
