# generated using pymatgen
data_Fe5(OF4)2
_symmetry_space_group_name_H-M   'P 1'
_cell_length_a   4.85218000
_cell_length_b   7.96447099
_cell_length_c   10.04068293
_cell_angle_alpha   70.77380765
_cell_angle_beta   88.65271772
_cell_angle_gamma   88.39466061
_symmetry_Int_Tables_number   1
_chemical_formula_structural   Fe5(OF4)2
_chemical_formula_sum   'Fe10 O4 F16'
_cell_volume   366.19529861
_cell_formula_units_Z   2
loop_
 _symmetry_equiv_pos_site_id
 _symmetry_equiv_pos_as_xyz
  1  'x, y, z'
loop_
 _atom_site_type_symbol
 _atom_site_label
 _atom_site_symmetry_multiplicity
 _atom_site_fract_x
 _atom_site_fract_y
 _atom_site_fract_z
 _atom_site_occupancy
  Fe  Fe0  1  0.51518400  0.70235900  0.89341000  1
  Fe  Fe1  1  0.49628800  0.89930500  0.30438700  1
  Fe  Fe2  1  0.51502400  0.09368300  0.69311500  1
  Fe  Fe3  1  0.44859400  0.28941400  0.09921300  1
  Fe  Fe4  1  0.51660400  0.50465100  0.49218400  1
  Fe  Fe5  1  0.01749000  0.38911600  0.80848500  1
  Fe  Fe6  1  0.97350700  0.80304800  0.61652600  1
  Fe  Fe7  1  0.02287400  0.19487200  0.38715900  1
  Fe  Fe8  1  0.96505300  0.60930000  0.20999800  1
  Fe  Fe9  1  0.01884000  0.01324900  0.99586300  1
  O  O0  1  0.20158900  0.24569800  0.98114900  1
  O  O1  1  0.32034700  0.12800500  0.27868200  1
  O  O2  1  0.70112700  0.85950600  0.72230100  1
  O  O3  1  0.69046200  0.67910700  0.31634900  1
  F  F0  1  0.18701900  0.02585800  0.58199000  1
  F  F1  1  0.18268700  0.45449900  0.37005300  1
  F  F2  1  0.19927700  0.64407900  0.77578900  1
  F  F3  1  0.20359200  0.82491800  0.18748900  1
  F  F4  1  0.30277100  0.93670100  0.87862100  1
  F  F5  1  0.31875600  0.33933100  0.66506700  1
  F  F6  1  0.28700800  0.53722900  0.08882700  1
  F  F7  1  0.28882000  0.75087700  0.48131200  1
  F  F8  1  0.71395100  0.25701700  0.50801700  1
  F  F9  1  0.69848700  0.05768800  0.12524400  1
  F  F10  1  0.68020900  0.44725000  0.93514500  1
  F  F11  1  0.82385800  0.56322800  0.62448600  1
  F  F12  1  0.80001300  0.94660900  0.42616600  1
  F  F13  1  0.79731000  0.16327600  0.81661500  1
  F  F14  1  0.81890500  0.75943600  0.02535400  1
  F  F15  1  0.79435300  0.38069100  0.21100200  1
loop_
_geom_bond_atom_site_label_1
_geom_bond_atom_site_label_2
_geom_bond_distance
_geom_bond_site_symmetry_2
Fe0 O2 1.976461 1_555
Fe1 O1 1.930493 1_565
Fe1 O3 1.936956 1_555
Fe2 O2 1.984438 1_545
Fe3 O0 1.823446 1_554
Fe3 O1 1.937380 1_555
Fe4 O3 2.034519 1_555
Fe5 O0 1.954412 1_555
Fe6 O2 1.814412 1_555
Fe7 O1 1.954059 1_555
Fe8 O3 1.872745 1_555
Fe9 O0 2.035003 1_555
F0 Fe6 2.005856 1_445
F0 Fe7 2.133571 1_555
F0 Fe2 2.144383 1_555
F1 Fe8 1.979844 1_455
F1 Fe4 2.177320 1_555
F1 Fe7 2.180882 1_555
F2 Fe6 2.007855 1_455
F2 Fe0 2.108511 1_555
F2 Fe5 2.158014 1_555
F3 Fe8 2.045299 1_455
F3 Fe1 2.080666 1_555
F3 Fe9 2.204664 1_564
F4 Fe9 2.001206 1_565
F4 Fe0 2.069951 1_555
F4 Fe2 2.131053 1_565
F5 Fe4 2.038542 1_555
F5 Fe2 2.087895 1_555
F5 Fe5 2.147626 1_555
F6 Fe3 2.074304 1_555
F6 Fe8 2.137857 1_455
F6 Fe0 2.255057 1_554
F7 Fe1 2.041114 1_555
F7 Fe6 2.143557 1_455
F7 Fe4 2.196017 1_555
F8 Fe7 2.057393 1_655
F8 Fe2 2.114642 1_555
F8 Fe4 2.127654 1_555
F9 Fe1 2.069106 1_545
F9 Fe9 2.099067 1_654
F9 Fe3 2.125208 1_555
F10 Fe3 2.045795 1_556
F10 Fe0 2.075787 1_555
F10 Fe5 2.181168 1_655
F11 Fe6 2.038709 1_555
F11 Fe5 2.130779 1_655
F11 Fe4 2.178350 1_555
F12 Fe1 2.056250 1_555
F12 Fe6 2.061958 1_555
F12 Fe7 2.195961 1_665
F13 Fe2 2.072686 1_555
F13 Fe5 2.095284 1_655
F13 Fe9 2.103576 1_655
F14 Fe8 1.980941 1_555
F14 Fe0 2.158603 1_554
F14 Fe9 2.194850 1_664
F15 Fe8 2.018235 1_555
F15 Fe7 2.196471 1_655
F15 Fe3 2.301581 1_555
