# generated using pymatgen
data_SrLaCl5
_symmetry_space_group_name_H-M   'P 1'
_cell_length_a   13.75807700
_cell_length_b   7.55261800
_cell_length_c   10.49631006
_cell_angle_alpha   70.10037326
_cell_angle_beta   90.00000000
_cell_angle_gamma   90.00000000
_symmetry_Int_Tables_number   1
_chemical_formula_structural   SrLaCl5
_chemical_formula_sum   'Sr4 La4 Cl20'
_cell_volume   1025.54301906
_cell_formula_units_Z   4
loop_
 _symmetry_equiv_pos_site_id
 _symmetry_equiv_pos_as_xyz
  1  'x, y, z'
loop_
 _atom_site_type_symbol
 _atom_site_label
 _atom_site_symmetry_multiplicity
 _atom_site_fract_x
 _atom_site_fract_y
 _atom_site_fract_z
 _atom_site_occupancy
  Sr  Sr0  1  0.98218400  0.52917800  0.74476700  1
  Sr  Sr1  1  0.48218400  0.47082200  0.75523300  1
  Sr  Sr2  1  0.51781600  0.52917800  0.24476700  1
  Sr  Sr3  1  0.01781600  0.47082200  0.25523300  1
  La  La0  1  0.74657000  0.89576700  0.89936000  1
  La  La1  1  0.75343000  0.89576700  0.39936000  1
  La  La2  1  0.24657000  0.10423300  0.60064000  1
  La  La3  1  0.25343000  0.10423300  0.10064000  1
  Cl  Cl0  1  0.09351300  0.86520500  0.69501800  1
  Cl  Cl1  1  0.81257100  0.82456500  0.66814400  1
  Cl  Cl2  1  0.37037500  0.80732400  0.64382400  1
  Cl  Cl3  1  0.89626200  0.62965200  0.00199700  1
  Cl  Cl4  1  0.61005800  0.59866000  0.94255900  1
  Cl  Cl5  1  0.40648700  0.86520500  0.19501800  1
  Cl  Cl6  1  0.68742900  0.82456500  0.16814400  1
  Cl  Cl7  1  0.12962500  0.80732400  0.14382400  1
  Cl  Cl8  1  0.60373800  0.62965200  0.50199700  1
  Cl  Cl9  1  0.88994200  0.59866000  0.44255900  1
  Cl  Cl10  1  0.11005800  0.40134000  0.55744100  1
  Cl  Cl11  1  0.39626200  0.37034800  0.49800300  1
  Cl  Cl12  1  0.87037500  0.19267600  0.85617600  1
  Cl  Cl13  1  0.31257100  0.17543500  0.83185600  1
  Cl  Cl14  1  0.59351300  0.13479500  0.80498200  1
  Cl  Cl15  1  0.38994200  0.40134000  0.05744100  1
  Cl  Cl16  1  0.10373800  0.37034800  0.99800300  1
  Cl  Cl17  1  0.62962500  0.19267600  0.35617600  1
  Cl  Cl18  1  0.18742900  0.17543500  0.33185600  1
  Cl  Cl19  1  0.90648700  0.13479500  0.30498200  1
loop_
_geom_bond_atom_site_label_1
_geom_bond_atom_site_label_2
_geom_bond_distance
_geom_bond_site_symmetry_2
Cl0 La2 2.730795 1_565
Cl0 Sr0 2.856116 1_455
Cl1 La1 2.806749 1_555
Cl1 La0 2.809287 1_555
Cl1 Sr0 3.138146 1_555
Cl2 La2 2.728251 1_565
Cl2 Sr1 2.858265 1_555
Cl3 La0 2.822694 1_554
Cl3 Sr3 3.021648 1_655
Cl3 Sr0 3.264631 1_554
Cl4 La0 2.841765 1_555
Cl4 Sr1 3.030802 1_555
Cl4 Sr2 3.288582 1_556
Cl5 La3 2.730795 1_565
Cl5 Sr2 2.856116 1_555
Cl6 La0 2.806749 1_554
Cl6 La1 2.809287 1_555
Cl6 Sr2 3.138146 1_555
Cl7 La3 2.728251 1_565
Cl7 Sr3 2.858265 1_555
Cl8 La1 2.822694 1_555
Cl8 Sr1 3.021648 1_555
Cl8 Sr2 3.264631 1_555
Cl9 La1 2.841765 1_555
Cl9 Sr3 3.030802 1_655
Cl9 Sr0 3.288582 1_555
Cl10 La2 2.841765 1_555
Cl10 Sr0 3.030802 1_455
Cl10 Sr3 3.288582 1_555
Cl11 La2 2.822694 1_555
Cl11 Sr2 3.021648 1_555
Cl11 Sr1 3.264631 1_555
Cl12 La0 2.728251 1_545
Cl12 Sr0 2.858265 1_555
Cl13 La3 2.806749 1_556
Cl13 La2 2.809287 1_555
Cl13 Sr1 3.138146 1_555
Cl14 La0 2.730795 1_545
Cl14 Sr1 2.856116 1_555
Cl15 La3 2.841765 1_555
Cl15 Sr2 3.030802 1_555
Cl15 Sr1 3.288582 1_554
Cl16 La3 2.822694 1_556
Cl16 Sr0 3.021648 1_455
Cl16 Sr3 3.264631 1_556
Cl17 La1 2.728251 1_545
Cl17 Sr2 2.858265 1_555
Cl18 La2 2.806749 1_555
Cl18 La3 2.809287 1_555
Cl18 Sr3 3.138146 1_555
Cl19 La1 2.730795 1_545
Cl19 Sr3 2.856116 1_655
