# generated using pymatgen
data_Na5Cu(HO2)2
_symmetry_space_group_name_H-M   'P 1'
_cell_length_a   6.10900400
_cell_length_b   8.89518100
_cell_length_c   12.05800400
_cell_angle_alpha   90.00000000
_cell_angle_beta   90.00000000
_cell_angle_gamma   90.00000000
_symmetry_Int_Tables_number   1
_chemical_formula_structural   Na5Cu(HO2)2
_chemical_formula_sum   'Na20 Cu4 H8 O16'
_cell_volume   655.24033347
_cell_formula_units_Z   4
loop_
 _symmetry_equiv_pos_site_id
 _symmetry_equiv_pos_as_xyz
  1  'x, y, z'
loop_
 _atom_site_type_symbol
 _atom_site_label
 _atom_site_symmetry_multiplicity
 _atom_site_fract_x
 _atom_site_fract_y
 _atom_site_fract_z
 _atom_site_occupancy
  Na  Na0  1  0.55227700  0.25000000  0.04164400  1
  Na  Na1  1  0.56341200  0.75000000  0.20753800  1
  Na  Na2  1  0.58647500  0.75000000  0.72915200  1
  Na  Na3  1  0.74097900  0.00577200  0.36067400  1
  Na  Na4  1  0.74097900  0.49422800  0.36067400  1
  Na  Na5  1  0.75902100  0.50577200  0.86067400  1
  Na  Na6  1  0.75902100  0.99422800  0.86067400  1
  Na  Na7  1  0.91352500  0.25000000  0.22915200  1
  Na  Na8  1  0.93658800  0.25000000  0.70753800  1
  Na  Na9  1  0.94772300  0.75000000  0.54164400  1
  Na  Na10  1  0.05227700  0.25000000  0.45835600  1
  Na  Na11  1  0.06341200  0.75000000  0.29246200  1
  Na  Na12  1  0.08647500  0.75000000  0.77084800  1
  Na  Na13  1  0.24097900  0.00577200  0.13932600  1
  Na  Na14  1  0.24097900  0.49422800  0.13932600  1
  Na  Na15  1  0.25902100  0.50577200  0.63932600  1
  Na  Na16  1  0.25902100  0.99422800  0.63932600  1
  Na  Na17  1  0.41352500  0.25000000  0.27084800  1
  Na  Na18  1  0.43658800  0.25000000  0.79246200  1
  Na  Na19  1  0.44772300  0.75000000  0.95835600  1
  Cu  Cu0  1  0.50254900  0.25000000  0.52414200  1
  Cu  Cu1  1  0.99745100  0.75000000  0.02414200  1
  Cu  Cu2  1  0.00254900  0.25000000  0.97585800  1
  Cu  Cu3  1  0.49745100  0.75000000  0.47585800  1
  H  H0  1  0.72690500  0.00559300  0.12350000  1
  H  H1  1  0.72690500  0.49440700  0.12350000  1
  H  H2  1  0.77309500  0.50559300  0.62350000  1
  H  H3  1  0.77309500  0.99440700  0.62350000  1
  H  H4  1  0.22690500  0.00559300  0.37650000  1
  H  H5  1  0.22690500  0.49440700  0.37650000  1
  H  H6  1  0.27309500  0.50559300  0.87650000  1
  H  H7  1  0.27309500  0.99440700  0.87650000  1
  O  O0  1  0.62146500  0.04909600  0.17565500  1
  O  O1  1  0.62146500  0.45090400  0.17565500  1
  O  O2  1  0.69427900  0.25000000  0.41109400  1
  O  O3  1  0.72866100  0.75000000  0.37874400  1
  O  O4  1  0.77133900  0.25000000  0.87874400  1
  O  O5  1  0.80572100  0.75000000  0.91109400  1
  O  O6  1  0.87853500  0.54909600  0.67565500  1
  O  O7  1  0.87853500  0.95090400  0.67565500  1
  O  O8  1  0.12146500  0.45090400  0.32434500  1
  O  O9  1  0.12146500  0.04909600  0.32434500  1
  O  O10  1  0.19427900  0.25000000  0.08890600  1
  O  O11  1  0.22866100  0.75000000  0.12125600  1
  O  O12  1  0.27133900  0.25000000  0.62125600  1
  O  O13  1  0.30572100  0.75000000  0.58890600  1
  O  O14  1  0.37853500  0.54909600  0.82434500  1
  O  O15  1  0.37853500  0.95090400  0.82434500  1
loop_
_geom_bond_atom_site_label_1
_geom_bond_atom_site_label_2
_geom_bond_distance
_geom_bond_site_symmetry_2
Na0 O10 2.260041 1_555
Na0 O4 2.376802 1_554
Na0 O0 2.446108 1_555
Na0 O1 2.446108 1_555
Na1 O11 2.294431 1_555
Na1 O3 2.298013 1_555
Na2 O13 2.408617 1_555
Na2 O14 2.474844 1_555
Na2 O15 2.474844 1_555
Na2 O5 2.570396 1_555
Na2 O6 2.606360 1_555
Na2 O7 2.606360 1_555
Na3 O2 2.273887 1_555
Na3 O3 2.286786 1_545
Na3 O0 2.378814 1_555
Na3 O9 2.396497 1_655
Na4 O2 2.273887 1_555
Na4 O3 2.286786 1_555
Na4 O1 2.378814 1_555
Na4 O8 2.396497 1_655
Na5 O5 2.273887 1_555
Na5 O4 2.286786 1_555
Na5 O6 2.378814 1_555
Na5 O14 2.396497 1_555
Na6 O5 2.273887 1_555
Na6 O4 2.286786 1_565
Na6 O7 2.378814 1_555
Na6 O15 2.396497 1_555
Na7 O10 2.408617 1_655
Na7 O8 2.474844 1_655
Na7 O9 2.474844 1_655
Na7 O2 2.570396 1_555
Na7 O0 2.606360 1_555
Na7 O1 2.606360 1_555
Na8 O12 2.294431 1_655
Na8 O4 2.298013 1_555
Na9 O13 2.260041 1_655
Na9 O3 2.376802 1_555
Na9 O6 2.446108 1_555
Na9 O7 2.446108 1_555
Na10 O2 2.260041 1_455
Na10 O12 2.376802 1_555
Na10 O8 2.446108 1_555
Na10 O9 2.446108 1_555
Na11 O3 2.294431 1_455
Na11 O11 2.298013 1_555
Na12 O5 2.408617 1_455
Na12 O6 2.474844 1_455
Na12 O7 2.474844 1_455
Na12 O13 2.570396 1_555
Na12 O14 2.606360 1_555
Na12 O15 2.606360 1_555
Na13 O10 2.273887 1_555
Na13 O11 2.286786 1_545
Na13 O9 2.378814 1_555
Na13 O0 2.396497 1_555
Na14 O10 2.273887 1_555
Na14 O11 2.286786 1_555
Na14 O8 2.378814 1_555
Na14 O1 2.396497 1_555
Na15 O13 2.273887 1_555
Na15 O12 2.286786 1_555
Na15 O14 2.378814 1_555
Na15 O6 2.396497 1_455
Na16 O13 2.273887 1_555
Na16 O12 2.286786 1_565
Na16 O15 2.378814 1_555
Na16 O7 2.396497 1_455
Na17 O2 2.408617 1_555
Na17 O0 2.474844 1_555
Na17 O1 2.474844 1_555
Na17 O10 2.570396 1_555
Na17 O8 2.606360 1_555
Na17 O9 2.606360 1_555
Na18 O4 2.294431 1_555
Na18 O12 2.298013 1_555
Na19 O5 2.260041 1_555
Na19 O11 2.376802 1_556
Na19 O15 2.446108 1_555
Na19 O14 2.446108 1_555
Cu0 O2 1.797228 1_555
Cu0 O12 1.834746 1_555
Cu1 O5 1.797228 1_554
Cu1 O11 1.834746 1_655
Cu2 O10 1.797228 1_556
Cu2 O4 1.834746 1_455
Cu3 O13 1.797228 1_555
Cu3 O3 1.834746 1_555
H0 O0 0.979871 1_555
H1 O1 0.979871 1_555
H2 O6 0.979871 1_555
H3 O7 0.979871 1_555
H4 O9 0.979871 1_555
H5 O8 0.979871 1_555
H6 O14 0.979871 1_555
H7 O15 0.979871 1_555
