# generated using pymatgen
data_Na8Gd2O7
_symmetry_space_group_name_H-M   'P 1'
_cell_length_a   11.69995600
_cell_length_b   9.22865100
_cell_length_c   10.92419290
_cell_angle_alpha   71.63949436
_cell_angle_beta   90.00000000
_cell_angle_gamma   90.00000000
_symmetry_Int_Tables_number   1
_chemical_formula_structural   Na8Gd2O7
_chemical_formula_sum   'Na32 Gd8 O28'
_cell_volume   1119.49136672
_cell_formula_units_Z   4
loop_
 _symmetry_equiv_pos_site_id
 _symmetry_equiv_pos_as_xyz
  1  'x, y, z'
loop_
 _atom_site_type_symbol
 _atom_site_label
 _atom_site_symmetry_multiplicity
 _atom_site_fract_x
 _atom_site_fract_y
 _atom_site_fract_z
 _atom_site_occupancy
  Na  Na0  1  0.52311200  0.87099300  0.93376300  1
  Na  Na1  1  0.53187100  0.91385500  0.63865400  1
  Na  Na2  1  0.26503700  0.89293700  0.53432700  1
  Na  Na3  1  0.97688800  0.87099300  0.43376300  1
  Na  Na4  1  0.04901500  0.74836800  0.70105100  1
  Na  Na5  1  0.96812900  0.91385500  0.13865400  1
  Na  Na6  1  0.74215400  0.71629500  0.57193600  1
  Na  Na7  1  0.23496300  0.89293700  0.03432700  1
  Na  Na8  1  0.53220700  0.55760200  0.84463000  1
  Na  Na9  1  0.49639300  0.65810800  0.52154200  1
  Na  Na10  1  0.45098500  0.74836800  0.20105100  1
  Na  Na11  1  0.77169000  0.50147900  0.87258200  1
  Na  Na12  1  0.75784600  0.71629500  0.07193600  1
  Na  Na13  1  0.27169000  0.49852100  0.62741800  1
  Na  Na14  1  0.96779300  0.55760200  0.34463000  1
  Na  Na15  1  0.99639300  0.34189200  0.97845800  1
  Na  Na16  1  0.00360700  0.65810800  0.02154200  1
  Na  Na17  1  0.03220700  0.44239800  0.65537000  1
  Na  Na18  1  0.72831000  0.50147900  0.37258200  1
  Na  Na19  1  0.24215400  0.28370500  0.92806400  1
  Na  Na20  1  0.22831000  0.49852100  0.12741800  1
  Na  Na21  1  0.54901500  0.25163200  0.79894900  1
  Na  Na22  1  0.50360700  0.34189200  0.47845800  1
  Na  Na23  1  0.46779300  0.44239800  0.15537000  1
  Na  Na24  1  0.76503700  0.10706300  0.96567300  1
  Na  Na25  1  0.25784600  0.28370500  0.42806400  1
  Na  Na26  1  0.03187100  0.08614500  0.86134600  1
  Na  Na27  1  0.95098500  0.25163200  0.29894900  1
  Na  Na28  1  0.02311200  0.12900700  0.56623700  1
  Na  Na29  1  0.73496300  0.10706300  0.46567300  1
  Na  Na30  1  0.46812900  0.08614500  0.36134600  1
  Na  Na31  1  0.47688800  0.12900700  0.06623700  1
  Gd  Gd0  1  0.79297800  0.90367700  0.77726900  1
  Gd  Gd1  1  0.70702200  0.90367700  0.27726900  1
  Gd  Gd2  1  0.27971400  0.68277900  0.85271900  1
  Gd  Gd3  1  0.22028600  0.68277900  0.35271900  1
  Gd  Gd4  1  0.77971400  0.31722100  0.64728100  1
  Gd  Gd5  1  0.72028600  0.31722100  0.14728100  1
  Gd  Gd6  1  0.29297800  0.09632300  0.72273100  1
  Gd  Gd7  1  0.20702200  0.09632300  0.22273100  1
  O  O0  1  0.88903800  0.89915700  0.94968600  1
  O  O1  1  0.17942400  0.89462500  0.78130800  1
  O  O2  1  0.88958300  0.89135000  0.61207200  1
  O  O3  1  0.61096200  0.89915700  0.44968600  1
  O  O4  1  0.66825000  0.72845200  0.82657000  1
  O  O5  1  0.32057600  0.89462500  0.28130800  1
  O  O6  1  0.61041700  0.89135000  0.11207200  1
  O  O7  1  0.38531700  0.66793600  0.69438400  1
  O  O8  1  0.83175000  0.72845200  0.32657000  1
  O  O9  1  0.14351500  0.51861600  0.91060200  1
  O  O10  1  0.11674600  0.67551400  0.52195200  1
  O  O11  1  0.11468300  0.66793600  0.19438400  1
  O  O12  1  0.35648500  0.51861600  0.41060200  1
  O  O13  1  0.61674600  0.32448600  0.97804800  1
  O  O14  1  0.38325400  0.67551400  0.02195200  1
  O  O15  1  0.64351500  0.48138400  0.58939800  1
  O  O16  1  0.88531700  0.33206400  0.80561600  1
  O  O17  1  0.88325400  0.32448600  0.47804800  1
  O  O18  1  0.85648500  0.48138400  0.08939800  1
  O  O19  1  0.16825000  0.27154800  0.67343000  1
  O  O20  1  0.61468300  0.33206400  0.30561600  1
  O  O21  1  0.38958300  0.10865000  0.88792800  1
  O  O22  1  0.67942400  0.10537500  0.71869200  1
  O  O23  1  0.33175000  0.27154800  0.17343000  1
  O  O24  1  0.38903800  0.10084300  0.55031400  1
  O  O25  1  0.11041700  0.10865000  0.38792800  1
  O  O26  1  0.82057600  0.10537500  0.21869200  1
  O  O27  1  0.11096200  0.10084300  0.05031400  1
loop_
_geom_bond_atom_site_label_1
_geom_bond_atom_site_label_2
_geom_bond_distance
_geom_bond_site_symmetry_2
Na0 O6 2.259086 1_556
Na0 O14 2.401094 1_556
Na0 O21 2.609589 1_565
Na0 O4 2.637362 1_555
Na1 O3 2.304892 1_555
Na1 O24 2.377549 1_565
Na1 O4 2.734033 1_555
Na1 O7 2.755166 1_555
Na1 O22 2.800420 1_565
Na2 O24 2.455162 1_565
Na2 O7 2.657447 1_555
Na2 O10 2.688031 1_555
Na2 O25 2.790642 1_565
Na2 O5 2.834645 1_555
Na2 O1 2.882643 1_555
Na3 O2 2.259086 1_555
Na3 O10 2.401094 1_655
Na3 O25 2.609589 1_665
Na3 O8 2.637362 1_555
Na4 O2 2.314623 1_455
Na4 O1 2.379925 1_555
Na4 O10 2.395137 1_555
Na4 O9 2.810809 1_555
Na5 O0 2.304892 1_554
Na5 O27 2.377549 1_665
Na5 O8 2.734033 1_555
Na5 O11 2.755166 1_655
Na5 O26 2.800420 1_565
Na6 O3 2.359582 1_555
Na6 O15 2.409892 1_555
Na6 O2 2.494738 1_555
Na6 O8 2.847224 1_555
Na6 O4 2.948652 1_555
Na7 O27 2.455162 1_565
Na7 O11 2.657447 1_555
Na7 O14 2.688031 1_555
Na7 O21 2.790642 1_564
Na7 O1 2.834645 1_554
Na7 O5 2.882643 1_555
Na8 O4 2.205104 1_555
Na8 O7 2.373070 1_555
Na8 O13 2.399064 1_555
Na9 O7 2.317365 1_555
Na9 O15 2.326094 1_555
Na9 O3 2.502309 1_555
Na9 O12 2.605446 1_555
Na10 O6 2.314623 1_555
Na10 O5 2.379925 1_555
Na10 O14 2.395137 1_555
Na10 O12 2.810809 1_555
Na11 O4 2.332729 1_555
Na11 O16 2.338279 1_555
Na11 O13 2.469054 1_555
Na11 O18 2.520300 1_556
Na12 O0 2.359582 1_554
Na12 O18 2.409892 1_555
Na12 O6 2.494738 1_555
Na12 O4 2.847224 1_554
Na12 O8 2.948652 1_555
Na13 O19 2.332729 1_555
Na13 O7 2.338279 1_555
Na13 O10 2.469054 1_555
Na13 O12 2.520300 1_555
Na14 O8 2.205104 1_555
Na14 O11 2.373070 1_655
Na14 O17 2.399064 1_555
Na15 O16 2.317365 1_555
Na15 O9 2.326094 1_655
Na15 O27 2.502309 1_656
Na15 O18 2.605446 1_556
Na16 O11 2.317365 1_555
Na16 O18 2.326094 1_455
Na16 O0 2.502309 1_454
Na16 O9 2.605446 1_554
Na17 O19 2.205104 1_555
Na17 O16 2.373070 1_455
Na17 O10 2.399064 1_555
Na18 O8 2.332729 1_555
Na18 O20 2.338279 1_555
Na18 O17 2.469054 1_555
Na18 O15 2.520300 1_555
Na19 O27 2.359582 1_556
Na19 O9 2.409892 1_555
Na19 O21 2.494738 1_555
Na19 O23 2.847224 1_556
Na19 O19 2.948652 1_555
Na20 O23 2.332729 1_555
Na20 O11 2.338279 1_555
Na20 O14 2.469054 1_555
Na20 O9 2.520300 1_554
Na21 O21 2.314623 1_555
Na21 O22 2.379925 1_555
Na21 O13 2.395137 1_555
Na21 O15 2.810809 1_555
Na22 O20 2.317365 1_555
Na22 O12 2.326094 1_555
Na22 O24 2.502309 1_555
Na22 O15 2.605446 1_555
Na23 O23 2.205104 1_555
Na23 O20 2.373070 1_555
Na23 O14 2.399064 1_555
Na24 O0 2.455162 1_545
Na24 O16 2.657447 1_555
Na24 O13 2.688031 1_555
Na24 O6 2.790642 1_546
Na24 O26 2.834645 1_556
Na24 O22 2.882643 1_555
Na25 O24 2.359582 1_555
Na25 O12 2.409892 1_555
Na25 O25 2.494738 1_555
Na25 O19 2.847224 1_555
Na25 O23 2.948652 1_555
Na26 O27 2.304892 1_556
Na26 O0 2.377549 1_445
Na26 O19 2.734033 1_555
Na26 O16 2.755166 1_455
Na26 O1 2.800420 1_545
Na27 O25 2.314623 1_655
Na27 O26 2.379925 1_555
Na27 O17 2.395137 1_555
Na27 O18 2.810809 1_555
Na28 O25 2.259086 1_555
Na28 O17 2.401094 1_455
Na28 O2 2.609589 1_445
Na28 O19 2.637362 1_555
Na29 O3 2.455162 1_545
Na29 O20 2.657447 1_555
Na29 O17 2.688031 1_555
Na29 O2 2.790642 1_545
Na29 O22 2.834645 1_555
Na29 O26 2.882643 1_555
Na30 O24 2.304892 1_555
Na30 O3 2.377549 1_545
Na30 O23 2.734033 1_555
Na30 O20 2.755166 1_555
Na30 O5 2.800420 1_545
Na31 O21 2.259086 1_554
Na31 O13 2.401094 1_554
Na31 O6 2.609589 1_545
Na31 O23 2.637362 1_555
Gd0 O4 2.118009 1_555
Gd0 O2 2.162530 1_555
Gd0 O0 2.182435 1_555
Gd0 O22 2.211111 1_565
Gd1 O8 2.118009 1_555
Gd1 O6 2.162530 1_555
Gd1 O3 2.182435 1_555
Gd1 O26 2.211111 1_565
Gd2 O9 2.151945 1_555
Gd2 O7 2.164813 1_555
Gd2 O14 2.193570 1_556
Gd2 O1 2.201547 1_555
Gd3 O12 2.151945 1_555
Gd3 O11 2.164813 1_555
Gd3 O10 2.193570 1_555
Gd3 O5 2.201547 1_555
Gd4 O15 2.151945 1_555
Gd4 O16 2.164813 1_555
Gd4 O17 2.193570 1_555
Gd4 O22 2.201547 1_555
Gd5 O18 2.151945 1_555
Gd5 O20 2.164813 1_555
Gd5 O13 2.193570 1_554
Gd5 O26 2.201547 1_555
Gd6 O19 2.118009 1_555
Gd6 O21 2.162530 1_555
Gd6 O24 2.182435 1_555
Gd6 O1 2.211111 1_545
Gd7 O23 2.118009 1_555
Gd7 O25 2.162530 1_555
Gd7 O27 2.182435 1_555
Gd7 O5 2.211111 1_545
