# generated using pymatgen
data_Li3Al2VO6
_symmetry_space_group_name_H-M   'P 1'
_cell_length_a   5.02230407
_cell_length_b   5.11625706
_cell_length_c   17.32624156
_cell_angle_alpha   89.98612969
_cell_angle_beta   90.01967423
_cell_angle_gamma   70.56131022
_symmetry_Int_Tables_number   1
_chemical_formula_structural   Li3Al2VO6
_chemical_formula_sum   'Li12 Al8 V4 O24'
_cell_volume   419.82713750
_cell_formula_units_Z   4
loop_
 _symmetry_equiv_pos_site_id
 _symmetry_equiv_pos_as_xyz
  1  'x, y, z'
loop_
 _atom_site_type_symbol
 _atom_site_label
 _atom_site_symmetry_multiplicity
 _atom_site_fract_x
 _atom_site_fract_y
 _atom_site_fract_z
 _atom_site_occupancy
  Li  Li0  1  0.99997400  0.50005300  0.25002800  1
  Li  Li1  1  0.50004700  0.49997100  0.49995100  1
  Li  Li2  1  0.00000200  0.49997000  0.74992600  1
  Li  Li3  1  0.49998500  0.50000800  0.00003100  1
  Li  Li4  1  0.99954600  0.49985100  0.08486400  1
  Li  Li5  1  0.49995300  0.50000900  0.33457600  1
  Li  Li6  1  0.99991500  0.49998900  0.58452700  1
  Li  Li7  1  0.49987400  0.49986000  0.83445900  1
  Li  Li8  1  0.00001800  0.50000100  0.41546700  1
  Li  Li9  1  0.50012000  0.50005400  0.66550700  1
  Li  Li10  1  0.00047200  0.50015700  0.91511600  1
  Li  Li11  1  0.50004200  0.50009600  0.16541900  1
  Al  Al0  1  0.99967100  0.00021100  0.16693000  1
  Al  Al1  1  0.50003300  0.00000200  0.41706500  1
  Al  Al2  1  0.99998100  0.99999000  0.66702900  1
  Al  Al3  1  0.49998200  0.99980000  0.91688200  1
  Al  Al4  1  0.99994900  0.00000600  0.33301800  1
  Al  Al5  1  0.50012500  0.99998700  0.58302700  1
  Al  Al6  1  0.00032400  0.99985600  0.83300500  1
  Al  Al7  1  0.49990800  0.00025600  0.08306700  1
  V  V0  1  0.00011800  0.99990200  0.50004900  1
  V  V1  1  0.50008500  0.00002800  0.74998600  1
  V  V2  1  0.99996700  0.99999100  0.99995500  1
  V  V3  1  0.49986600  0.99997800  0.25004300  1
  O  O0  1  0.22395600  0.77992700  0.25002700  1
  O  O1  1  0.72393600  0.77949900  0.50004900  1
  O  O2  1  0.22397000  0.77938600  0.74996800  1
  O  O3  1  0.72419100  0.78016000  0.00006500  1
  O  O4  1  0.77579100  0.22012100  0.25005300  1
  O  O5  1  0.27613100  0.22050200  0.50000200  1
  O  O6  1  0.77624200  0.22058700  0.74996600  1
  O  O7  1  0.27576000  0.21982100  0.99989500  1
  O  O8  1  0.25198500  0.21687100  0.33707800  1
  O  O9  1  0.75218500  0.21661700  0.58707800  1
  O  O10  1  0.25210800  0.21669000  0.83704200  1
  O  O11  1  0.75143900  0.21734900  0.08715400  1
  O  O12  1  0.25169600  0.21696100  0.16289800  1
  O  O13  1  0.75214900  0.21654700  0.41294700  1
  O  O14  1  0.25224300  0.21656900  0.66294200  1
  O  O15  1  0.75227400  0.21661300  0.91286700  1
  O  O16  1  0.74798700  0.78306800  0.33711600  1
  O  O17  1  0.24789600  0.78339200  0.58709700  1
  O  O18  1  0.74801800  0.78342500  0.83705100  1
  O  O19  1  0.24776800  0.78337900  0.08711100  1
  O  O20  1  0.74788100  0.78324000  0.16294600  1
  O  O21  1  0.24798800  0.78335300  0.41294600  1
  O  O22  1  0.74801300  0.78324500  0.66295300  1
  O  O23  1  0.24843600  0.78265200  0.91282200  1
loop_
_geom_bond_atom_site_label_1
_geom_bond_atom_site_label_2
_geom_bond_distance
_geom_bond_site_symmetry_2
Li0 O0 2.094728 1_655
Li0 O4 2.095756 1_555
Li0 O8 2.180128 1_655
Li0 O20 2.180672 1_555
Li0 O16 2.181224 1_555
Li0 O12 2.181436 1_655
Li1 O5 2.092689 1_555
Li1 O1 2.092846 1_555
Li1 O21 2.180158 1_555
Li1 O13 2.181411 1_555
Li1 O9 2.181694 1_555
Li1 O17 2.183194 1_555
Li2 O6 2.091710 1_455
Li2 O2 2.092655 1_555
Li2 O22 2.179391 1_455
Li2 O10 2.181326 1_555
Li2 O14 2.181367 1_555
Li2 O18 2.182723 1_455
Li3 O3 2.096815 1_555
Li3 O7 2.097044 1_554
Li3 O11 2.178739 1_555
Li3 O23 2.179906 1_554
Li3 O19 2.182402 1_555
Li3 O15 2.183597 1_554
Li4 O12 2.074709 1_655
Li4 O20 2.076619 1_555
Li4 O3 2.192123 1_555
Li4 O7 2.196352 1_654
Li4 O11 2.200467 1_555
Li4 O19 2.205343 1_655
Li5 O13 2.080049 1_555
Li5 O21 2.080328 1_555
Li5 O0 2.189671 1_555
Li5 O4 2.190071 1_555
Li5 O16 2.202669 1_555
Li5 O8 2.202741 1_555
Li6 O22 2.080620 1_555
Li6 O14 2.080690 1_655
Li6 O1 2.187887 1_555
Li6 O5 2.189975 1_655
Li6 O9 2.202833 1_555
Li6 O17 2.203959 1_655
Li7 O23 2.077856 1_555
Li7 O15 2.080310 1_555
Li7 O2 2.187917 1_555
Li7 O6 2.189438 1_555
Li7 O10 2.202112 1_555
Li7 O18 2.205310 1_555
Li8 O16 2.078512 1_455
Li8 O8 2.080005 1_555
Li8 O5 2.188802 1_555
Li8 O1 2.190380 1_455
Li8 O21 2.203681 1_555
Li8 O13 2.203721 1_455
Li9 O17 2.080229 1_555
Li9 O9 2.081420 1_555
Li9 O6 2.187868 1_555
Li9 O2 2.188744 1_555
Li9 O22 2.202692 1_555
Li9 O14 2.203903 1_555
Li10 O18 2.076592 1_455
Li10 O10 2.076671 1_555
Li10 O7 2.191813 1_555
Li10 O3 2.196199 1_456
Li10 O23 2.199875 1_555
Li10 O15 2.205319 1_455
Li11 O11 2.076555 1_555
Li11 O19 2.079032 1_555
Li11 O4 2.190269 1_555
Li11 O0 2.191444 1_555
Li11 O20 2.202249 1_555
Li11 O12 2.204220 1_555
Al0 O4 1.940159 1_555
Al0 O0 1.940375 1_645
Al0 O20 1.941774 1_545
Al0 O12 1.941918 1_655
Al0 O11 1.942982 1_555
Al0 O19 1.943637 1_645
Al1 O1 1.938616 1_545
Al1 O5 1.938982 1_555
Al1 O13 1.941531 1_555
Al1 O21 1.941638 1_545
Al1 O8 1.944675 1_555
Al1 O16 1.945104 1_545
Al2 O2 1.938406 1_655
Al2 O6 1.938859 1_565
Al2 O22 1.941673 1_555
Al2 O14 1.942266 1_665
Al2 O9 1.943218 1_565
Al2 O17 1.944191 1_655
Al3 O7 1.939630 1_565
Al3 O3 1.940059 1_556
Al3 O23 1.941505 1_555
Al3 O10 1.942506 1_565
Al3 O18 1.942812 1_555
Al3 O15 1.943291 1_565
Al4 O4 1.938097 1_555
Al4 O0 1.939044 1_645
Al4 O8 1.942434 1_655
Al4 O16 1.942451 1_545
Al4 O21 1.943532 1_645
Al4 O13 1.943790 1_555
Al5 O1 1.939309 1_555
Al5 O5 1.939343 1_565
Al5 O9 1.941582 1_565
Al5 O17 1.942180 1_555
Al5 O22 1.943328 1_555
Al5 O14 1.943878 1_565
Al6 O2 1.939711 1_555
Al6 O6 1.940123 1_465
Al6 O10 1.941229 1_565
Al6 O18 1.941830 1_455
Al6 O23 1.943336 1_555
Al6 O15 1.943924 1_465
Al7 O7 1.939651 1_554
Al7 O3 1.939756 1_545
Al7 O11 1.941236 1_555
Al7 O19 1.942924 1_545
Al7 O20 1.943442 1_545
Al7 O12 1.943814 1_555
O0 V3 2.055740 1_555
O1 V0 2.058300 1_655
O2 V1 2.058956 1_565
O3 V2 2.054296 1_554
O4 V3 2.056168 1_545
O5 V0 2.058352 1_545
O6 V1 2.058809 1_555
O7 V2 2.054364 1_445
O8 V3 2.034177 1_545
O9 V0 2.033901 1_645
O10 V1 2.034251 1_555
O11 V2 2.038498 1_544
O12 V3 2.035340 1_545
O13 V0 2.033762 1_645
O14 V1 2.032561 1_555
O15 V2 2.032946 1_545
O16 V3 2.034181 1_555
O17 V0 2.032420 1_555
O18 V1 2.033136 1_565
O19 V2 2.034036 1_454
O20 V3 2.034993 1_555
O21 V0 2.034426 1_555
O22 V1 2.034060 1_565
O23 V2 2.037489 1_455
