# generated using pymatgen
data_LiMn2P2HO8
_symmetry_space_group_name_H-M   'P 1'
_cell_length_a   5.07731793
_cell_length_b   8.71515835
_cell_length_c   7.77096015
_cell_angle_alpha   90.03245121
_cell_angle_beta   105.14695916
_cell_angle_gamma   89.98842700
_symmetry_Int_Tables_number   1
_chemical_formula_structural   LiMn2P2HO8
_chemical_formula_sum   'Li2 Mn4 P4 H2 O16'
_cell_volume   331.91587337
_cell_formula_units_Z   2
loop_
 _symmetry_equiv_pos_site_id
 _symmetry_equiv_pos_as_xyz
  1  'x, y, z'
loop_
 _atom_site_type_symbol
 _atom_site_label
 _atom_site_symmetry_multiplicity
 _atom_site_fract_x
 _atom_site_fract_y
 _atom_site_fract_z
 _atom_site_occupancy
  Li  Li0  1  0.00826500  0.99871900  0.49473500  1
  Li  Li1  1  0.49204400  0.49869800  0.00514200  1
  Mn  Mn0  1  0.61456200  0.16177000  0.17425400  1
  Mn  Mn1  1  0.88556400  0.66200600  0.32626300  1
  Mn  Mn2  1  0.12280400  0.33764900  0.66292600  1
  Mn  Mn3  1  0.37649500  0.83763800  0.83661600  1
  P  P0  1  0.12628500  0.36460600  0.27627100  1
  P  P1  1  0.37381500  0.86450100  0.22372500  1
  P  P2  1  0.63555900  0.13794400  0.77341300  1
  P  P3  1  0.86441100  0.63787200  0.72658800  1
  H  H0  1  0.52003900  0.51350500  0.50463900  1
  H  H1  1  0.97982400  0.01365900  0.99533900  1
  O  O0  1  0.09286200  0.52864600  0.82322400  1
  O  O1  1  0.40709000  0.02857400  0.67668800  1
  O  O2  1  0.01268200  0.21318800  0.33566500  1
  O  O3  1  0.48744100  0.71295900  0.16453000  1
  O  O4  1  0.15579100  0.83660600  0.32513300  1
  O  O5  1  0.34428800  0.33657600  0.17480300  1
  O  O6  1  0.25306000  0.45687400  0.45610800  1
  O  O7  1  0.24706500  0.95671100  0.04394100  1
  O  O8  1  0.51387200  0.28699300  0.82839400  1
  O  O9  1  0.98591900  0.78676200  0.67125000  1
  O  O10  1  0.64528800  0.66328400  0.82589900  1
  O  O11  1  0.85470000  0.16310000  0.67420200  1
  O  O12  1  0.77318700  0.05519400  0.96351300  1
  O  O13  1  0.72690800  0.55486500  0.53655700  1
  O  O14  1  0.61161300  0.96451000  0.33105500  1
  O  O15  1  0.88856900  0.46459100  0.16912700  1
loop_
_geom_bond_atom_site_label_1
_geom_bond_atom_site_label_2
_geom_bond_distance
_geom_bond_site_symmetry_2
Li0 O14 2.103280 1_455
Li0 O1 2.161235 1_565
Li0 O4 2.192622 1_555
Li0 O2 2.244835 1_565
Li0 O11 2.273947 1_465
Li0 O9 2.321850 1_455
Li1 O15 2.103569 1_555
Li1 O0 2.162705 1_554
Li1 O5 2.194728 1_555
Li1 O3 2.243666 1_555
Li1 O10 2.274224 1_554
Li1 O8 2.319390 1_554
Mn0 O5 2.050921 1_555
Mn0 O14 2.110060 1_545
Mn0 O2 2.129514 1_655
Mn0 O12 2.209197 1_554
Mn0 O7 2.590890 1_545
Mn1 O4 2.050649 1_655
Mn1 O15 2.111584 1_555
Mn1 O3 2.129658 1_555
Mn1 O13 2.209376 1_555
Mn1 O6 2.590861 1_655
Mn2 O11 2.058669 1_455
Mn2 O0 2.107631 1_555
Mn2 O8 2.111125 1_555
Mn2 O6 2.158167 1_555
Mn3 O10 2.058358 1_555
Mn3 O1 2.107374 1_565
Mn3 O9 2.109151 1_455
Mn3 O7 2.157679 1_556
H0 O13 1.076369 1_555
H0 O6 1.398643 1_555
H1 O12 1.075773 1_555
H1 O7 1.400781 1_646
O0 P3 1.536444 1_455
O1 P2 1.537244 1_555
O2 P0 1.557971 1_555
O3 P1 1.557692 1_555
O4 P1 1.536785 1_555
O5 P0 1.536994 1_555
O6 P0 1.594620 1_555
O7 P1 1.594692 1_555
O8 P2 1.545523 1_555
O9 P3 1.545606 1_555
O10 P3 1.526704 1_555
O11 P2 1.526111 1_555
O12 P2 1.628568 1_555
O13 P3 1.628396 1_555
O14 P1 1.544806 1_555
O15 P0 1.544194 1_655
