# generated using pymatgen
data_LiAgF3
_symmetry_space_group_name_H-M   'P 1'
_cell_length_a   5.43135886
_cell_length_b   5.43135886
_cell_length_c   15.23072900
_cell_angle_alpha   90.00000000
_cell_angle_beta   90.00000000
_cell_angle_gamma   120.00001050
_symmetry_Int_Tables_number   1
_chemical_formula_structural   LiAgF3
_chemical_formula_sum   'Li6 Ag6 F18'
_cell_volume   389.10630995
_cell_formula_units_Z   6
loop_
 _symmetry_equiv_pos_site_id
 _symmetry_equiv_pos_as_xyz
  1  'x, y, z'
loop_
 _atom_site_type_symbol
 _atom_site_label
 _atom_site_symmetry_multiplicity
 _atom_site_fract_x
 _atom_site_fract_y
 _atom_site_fract_z
 _atom_site_occupancy
  Li  Li0  1  0.04943500  0.09887100  0.75000000  1
  Li  Li1  1  0.09887100  0.04943500  0.58333300  1
  Li  Li2  1  0.90112900  0.95056500  0.08333300  1
  Li  Li3  1  0.95056500  0.90112900  0.25000000  1
  Li  Li4  1  0.95056500  0.04943500  0.91666700  1
  Li  Li5  1  0.04943500  0.95056500  0.41666700  1
  Ag  Ag0  1  0.29415300  0.70584700  0.91666700  1
  Ag  Ag1  1  0.29415300  0.58830600  0.25000000  1
  Ag  Ag2  1  0.41169400  0.70584700  0.58333300  1
  Ag  Ag3  1  0.58830600  0.29415300  0.08333300  1
  Ag  Ag4  1  0.70584700  0.29415300  0.41666700  1
  Ag  Ag5  1  0.70584700  0.41169400  0.75000000  1
  F  F0  1  0.23528700  0.00000000  0.00000000  1
  F  F1  1  0.23528700  0.23528700  0.16666700  1
  F  F2  1  0.28460500  0.36715900  0.84358100  1
  F  F3  1  0.28460500  0.91744600  0.32308600  1
  F  F4  1  0.36715900  0.08255400  0.67691400  1
  F  F5  1  0.36715900  0.28460500  0.48975300  1
  F  F6  1  0.63284100  0.71539500  0.98975300  1
  F  F7  1  0.63284100  0.91744600  0.17691400  1
  F  F8  1  0.71539500  0.08255400  0.82308600  1
  F  F9  1  0.71539500  0.63284100  0.34358100  1
  F  F10  1  0.76471300  0.76471300  0.66666700  1
  F  F11  1  0.76471300  0.00000000  0.50000000  1
  F  F12  1  0.91744600  0.28460500  0.01024700  1
  F  F13  1  0.91744600  0.63284100  0.15641900  1
  F  F14  1  0.00000000  0.23528700  0.33333300  1
  F  F15  1  0.00000000  0.76471300  0.83333300  1
  F  F16  1  0.08255400  0.36715900  0.65641900  1
  F  F17  1  0.08255400  0.71539500  0.51024700  1
loop_
_geom_bond_atom_site_label_1
_geom_bond_atom_site_label_2
_geom_bond_distance
_geom_bond_site_symmetry_2
Ag0 F6 2.128449 1_555
Ag0 F2 2.128449 1_555
Ag0 F0 2.185507 1_566
Ag0 F15 2.185516 1_555
Ag0 F12 2.602136 1_456
Ag0 F8 2.602144 1_565
Ag1 F7 2.128449 1_555
Ag1 F3 2.128449 1_555
Ag1 F14 2.185506 1_555
Ag1 F1 2.185507 1_555
Ag1 F9 2.602144 1_555
Ag1 F13 2.602145 1_455
Ag2 F16 2.128449 1_555
Ag2 F17 2.128449 1_555
Ag2 F11 2.185506 1_565
Ag2 F10 2.185515 1_555
Ag2 F5 2.602136 1_555
Ag2 F4 2.602145 1_565
Ag3 F13 2.128449 1_555
Ag3 F12 2.128449 1_555
Ag3 F0 2.185506 1_555
Ag3 F1 2.185515 1_555
Ag3 F6 2.602136 1_554
Ag3 F7 2.602145 1_545
Ag4 F9 2.128449 1_555
Ag4 F5 2.128449 1_555
Ag4 F11 2.185507 1_555
Ag4 F14 2.185516 1_655
Ag4 F17 2.602136 1_655
Ag4 F3 2.602144 1_545
Ag5 F4 2.128449 1_555
Ag5 F8 2.128449 1_555
Ag5 F15 2.185506 1_655
Ag5 F10 2.185507 1_555
Ag5 F2 2.602144 1_555
Ag5 F16 2.602145 1_655
F0 Li4 2.118884 1_454
F0 Li2 2.118888 1_445
F1 Li3 2.118886 1_445
F1 Li2 2.118896 1_445
F2 Li0 1.981183 1_555
F2 Li4 2.092328 1_455
F3 Li5 1.981185 1_555
F3 Li3 2.092326 1_455
F4 Li1 1.981181 1_555
F4 Li0 2.092330 1_555
F5 Li1 1.981172 1_555
F5 Li5 2.092328 1_545
F6 Li2 1.981172 1_556
F6 Li4 2.092328 1_565
F7 Li2 1.981181 1_555
F7 Li3 2.092330 1_555
F8 Li4 1.981185 1_555
F8 Li0 2.092326 1_655
F9 Li3 1.981183 1_555
F9 Li5 2.092328 1_655
F10 Li0 2.118886 1_665
F10 Li1 2.118896 1_665
F11 Li5 2.118884 1_645
F11 Li1 2.118888 1_655
F12 Li4 1.981174 1_554
F12 Li2 2.092326 1_545
F13 Li3 1.981181 1_555
F13 Li2 2.092330 1_555
F14 Li3 2.118888 1_445
F14 Li5 2.118893 1_545
F15 Li0 2.118888 1_565
F15 Li4 2.118893 1_465
F16 Li0 1.981181 1_555
F16 Li1 2.092330 1_555
F17 Li5 1.981174 1_555
F17 Li1 2.092326 1_565
