# generated using pymatgen
data_DyP5O14
_symmetry_space_group_name_H-M   'P 1'
_cell_length_a   8.82140000
_cell_length_b   9.04379400
_cell_length_c   12.89497300
_cell_angle_alpha   90.00000000
_cell_angle_beta   90.00000000
_cell_angle_gamma   90.00000000
_symmetry_Int_Tables_number   1
_chemical_formula_structural   DyP5O14
_chemical_formula_sum   'Dy4 P20 O56'
_cell_volume   1028.74707600
_cell_formula_units_Z   4
loop_
 _symmetry_equiv_pos_site_id
 _symmetry_equiv_pos_as_xyz
  1  'x, y, z'
loop_
 _atom_site_type_symbol
 _atom_site_label
 _atom_site_symmetry_multiplicity
 _atom_site_fract_x
 _atom_site_fract_y
 _atom_site_fract_z
 _atom_site_occupancy
  Dy  Dy0  1  0.02055800  0.06051200  0.25000000  1
  Dy  Dy1  1  0.47944200  0.56051200  0.75000000  1
  Dy  Dy2  1  0.52055800  0.43948800  0.25000000  1
  Dy  Dy3  1  0.97944200  0.93948800  0.75000000  1
  P  P0  1  0.00524700  0.29867000  0.58338500  1
  P  P1  1  0.00524700  0.29867000  0.91661500  1
  P  P2  1  0.06814600  0.51185400  0.75000000  1
  P  P3  1  0.25423100  0.27476100  0.06651200  1
  P  P4  1  0.25423100  0.27476100  0.43348800  1
  P  P5  1  0.24576900  0.77476100  0.56651200  1
  P  P6  1  0.24576900  0.77476100  0.93348800  1
  P  P7  1  0.43185400  0.01185400  0.25000000  1
  P  P8  1  0.49475300  0.79867000  0.41661500  1
  P  P9  1  0.49475300  0.79867000  0.08338500  1
  P  P10  1  0.50524700  0.20133000  0.91661500  1
  P  P11  1  0.50524700  0.20133000  0.58338500  1
  P  P12  1  0.56814600  0.98814600  0.75000000  1
  P  P13  1  0.75423100  0.22523900  0.06651200  1
  P  P14  1  0.75423100  0.22523900  0.43348800  1
  P  P15  1  0.74576900  0.72523900  0.56651200  1
  P  P16  1  0.74576900  0.72523900  0.93348800  1
  P  P17  1  0.93185400  0.48814600  0.25000000  1
  P  P18  1  0.99475300  0.70133000  0.08338500  1
  P  P19  1  0.99475300  0.70133000  0.41661500  1
  O  O0  1  0.99713500  0.84596000  0.13655400  1
  O  O1  1  0.99713500  0.84596000  0.36344600  1
  O  O2  1  0.03194000  0.67186100  0.75000000  1
  O  O3  1  0.02747000  0.56213300  0.15372400  1
  O  O4  1  0.02747000  0.56213300  0.34627600  1
  O  O5  1  0.11747300  0.67970300  0.50401500  1
  O  O6  1  0.11747300  0.67970300  0.99598500  1
  O  O7  1  0.15475000  0.16330700  0.11729000  1
  O  O8  1  0.15475000  0.16330700  0.38271000  1
  O  O9  1  0.16068400  0.34544900  0.53060300  1
  O  O10  1  0.16068400  0.34544900  0.96939700  1
  O  O11  1  0.17315100  0.89754900  0.62499800  1
  O  O12  1  0.17315100  0.89754900  0.87500200  1
  O  O13  1  0.22596400  0.45237500  0.75000000  1
  O  O14  1  0.27403600  0.95237500  0.25000000  1
  O  O15  1  0.32684900  0.39754900  0.12499800  1
  O  O16  1  0.32684900  0.39754900  0.37500200  1
  O  O17  1  0.33931600  0.84544900  0.03060300  1
  O  O18  1  0.33931600  0.84544900  0.46939700  1
  O  O19  1  0.34525000  0.66330700  0.61729000  1
  O  O20  1  0.34525000  0.66330700  0.88271000  1
  O  O21  1  0.38252700  0.17970300  0.00401500  1
  O  O22  1  0.38252700  0.17970300  0.49598500  1
  O  O23  1  0.47253000  0.06213300  0.65372400  1
  O  O24  1  0.47253000  0.06213300  0.84627600  1
  O  O25  1  0.46806000  0.17186100  0.25000000  1
  O  O26  1  0.50286500  0.34596000  0.63655400  1
  O  O27  1  0.50286500  0.34596000  0.86344600  1
  O  O28  1  0.49713500  0.65404000  0.13655400  1
  O  O29  1  0.49713500  0.65404000  0.36344600  1
  O  O30  1  0.53194000  0.82813900  0.75000000  1
  O  O31  1  0.52747000  0.93786700  0.15372400  1
  O  O32  1  0.52747000  0.93786700  0.34627600  1
  O  O33  1  0.61747300  0.82029700  0.50401500  1
  O  O34  1  0.61747300  0.82029700  0.99598500  1
  O  O35  1  0.65475000  0.33669300  0.11729000  1
  O  O36  1  0.65475000  0.33669300  0.38271000  1
  O  O37  1  0.66068400  0.15455100  0.53060300  1
  O  O38  1  0.66068400  0.15455100  0.96939700  1
  O  O39  1  0.67315100  0.60245100  0.62499800  1
  O  O40  1  0.67315100  0.60245100  0.87500200  1
  O  O41  1  0.72596400  0.04762500  0.75000000  1
  O  O42  1  0.77403600  0.54762500  0.25000000  1
  O  O43  1  0.82684900  0.10245100  0.12499800  1
  O  O44  1  0.82684900  0.10245100  0.37500200  1
  O  O45  1  0.83931600  0.65455100  0.03060300  1
  O  O46  1  0.83931600  0.65455100  0.46939700  1
  O  O47  1  0.84525000  0.83669300  0.88271000  1
  O  O48  1  0.84525000  0.83669300  0.61729000  1
  O  O49  1  0.88252700  0.32029700  0.00401500  1
  O  O50  1  0.88252700  0.32029700  0.49598500  1
  O  O51  1  0.97253000  0.43786700  0.65372400  1
  O  O52  1  0.97253000  0.43786700  0.84627600  1
  O  O53  1  0.96806000  0.32813900  0.25000000  1
  O  O54  1  0.00286500  0.15404000  0.63655400  1
  O  O55  1  0.00286500  0.15404000  0.86344600  1
loop_
_geom_bond_atom_site_label_1
_geom_bond_atom_site_label_2
_geom_bond_distance
_geom_bond_site_symmetry_2
Dy0 O7 2.279051 1_555
Dy0 O8 2.279051 1_555
Dy0 O43 2.379499 1_455
Dy0 O44 2.379499 1_455
Dy0 O1 2.438797 1_445
Dy0 O0 2.438797 1_445
Dy0 O14 2.440544 1_545
Dy0 O53 2.464270 1_455
Dy1 O19 2.279051 1_555
Dy1 O20 2.279051 1_555
Dy1 O40 2.379499 1_555
Dy1 O39 2.379499 1_555
Dy1 O27 2.438797 1_555
Dy1 O26 2.438797 1_555
Dy1 O13 2.440544 1_555
Dy1 O30 2.464270 1_555
Dy2 O35 2.279051 1_555
Dy2 O36 2.279051 1_555
Dy2 O15 2.379499 1_555
Dy2 O16 2.379499 1_555
Dy2 O29 2.438797 1_555
Dy2 O28 2.438797 1_555
Dy2 O42 2.440544 1_555
Dy2 O25 2.464270 1_555
Dy3 O48 2.279051 1_555
Dy3 O47 2.279051 1_555
Dy3 O12 2.379499 1_655
Dy3 O11 2.379499 1_655
Dy3 O55 2.438797 1_665
Dy3 O54 2.438797 1_665
Dy3 O41 2.440544 1_565
Dy3 O2 2.464270 1_655
O0 P18 1.476950 1_555
O1 P19 1.476950 1_555
O2 P2 1.481898 1_555
O3 P18 1.578205 1_455
O3 P17 1.643297 1_455
O4 P19 1.578205 1_455
O4 P17 1.643297 1_455
O5 P19 1.574920 1_455
O5 P5 1.633826 1_555
O6 P18 1.574920 1_456
O6 P6 1.633826 1_555
O7 P3 1.488237 1_555
O8 P4 1.488237 1_555
O9 P0 1.588187 1_555
O9 P4 1.630311 1_555
O10 P1 1.588187 1_555
O10 P3 1.630311 1_556
O11 P5 1.487374 1_555
O12 P6 1.487374 1_555
O13 P2 1.492483 1_555
O14 P7 1.492483 1_565
O15 P3 1.487374 1_555
O16 P4 1.487374 1_555
O17 P9 1.588187 1_555
O17 P6 1.630311 1_554
O18 P8 1.588187 1_555
O18 P5 1.630311 1_555
O19 P5 1.488237 1_555
O20 P6 1.488237 1_555
O21 P10 1.574920 1_554
O21 P3 1.633826 1_555
O22 P11 1.574920 1_555
O22 P4 1.633826 1_555
O23 P11 1.578205 1_555
O23 P12 1.643297 1_545
O24 P10 1.578205 1_555
O24 P12 1.643297 1_545
O25 P7 1.481898 1_555
O26 P11 1.476950 1_555
O27 P10 1.476950 1_555
O28 P9 1.476950 1_555
O29 P8 1.476950 1_555
O30 P12 1.481898 1_555
O31 P9 1.578205 1_555
O31 P7 1.643297 1_565
O32 P8 1.578205 1_555
O32 P7 1.643297 1_565
O33 P8 1.574920 1_555
O33 P15 1.633826 1_555
O34 P9 1.574920 1_556
O34 P16 1.633826 1_555
O35 P13 1.488237 1_555
O36 P14 1.488237 1_555
O37 P11 1.588187 1_555
O37 P14 1.630311 1_555
O38 P10 1.588187 1_555
O38 P13 1.630311 1_556
O39 P15 1.487374 1_555
O40 P16 1.487374 1_555
O41 P12 1.492483 1_545
O42 P17 1.492483 1_555
O43 P13 1.487374 1_555
O44 P14 1.487374 1_555
O45 P18 1.588187 1_555
O45 P16 1.630311 1_554
O46 P19 1.588187 1_555
O46 P15 1.630311 1_555
O47 P16 1.488237 1_555
O48 P15 1.488237 1_555
O49 P1 1.574920 1_654
O49 P13 1.633826 1_555
O50 P0 1.574920 1_655
O50 P14 1.633826 1_555
O51 P0 1.578205 1_655
O51 P2 1.643297 1_655
O52 P1 1.578205 1_655
O52 P2 1.643297 1_655
O53 P17 1.481898 1_555
O54 P0 1.476950 1_555
O55 P1 1.476950 1_555
