# generated using pymatgen
data_LiBiB2O5
_symmetry_space_group_name_H-M   'P 1'
_cell_length_a   4.39290500
_cell_length_b   5.35622300
_cell_length_c   7.57957848
_cell_angle_alpha   84.48325763
_cell_angle_beta   90.00000000
_cell_angle_gamma   90.00000000
_symmetry_Int_Tables_number   1
_chemical_formula_structural   LiBiB2O5
_chemical_formula_sum   'Li2 Bi2 B4 O10'
_cell_volume   177.51671599
_cell_formula_units_Z   2
loop_
 _symmetry_equiv_pos_site_id
 _symmetry_equiv_pos_as_xyz
  1  'x, y, z'
loop_
 _atom_site_type_symbol
 _atom_site_label
 _atom_site_symmetry_multiplicity
 _atom_site_fract_x
 _atom_site_fract_y
 _atom_site_fract_z
 _atom_site_occupancy
  Li  Li0  1  0.32788300  0.83924500  0.11015000  1
  Li  Li1  1  0.82788300  0.16075500  0.88985000  1
  Bi  Bi0  1  0.35611100  0.87632100  0.70631700  1
  Bi  Bi1  1  0.85611100  0.12367900  0.29368300  1
  B  B0  1  0.79544600  0.61186700  0.93508400  1
  B  B1  1  0.33442800  0.56527100  0.40861700  1
  B  B2  1  0.83442800  0.43472900  0.59138300  1
  B  B3  1  0.29544600  0.38813300  0.06491600  1
  O  O0  1  0.67027300  0.85004000  0.96333400  1
  O  O1  1  0.29506100  0.84428300  0.36879100  1
  O  O2  1  0.72718200  0.58673500  0.73603000  1
  O  O3  1  0.13052300  0.59877600  0.96092400  1
  O  O4  1  0.66943700  0.51734700  0.42731900  1
  O  O5  1  0.16943700  0.48265300  0.57268100  1
  O  O6  1  0.63052300  0.40122400  0.03907600  1
  O  O7  1  0.22718200  0.41326500  0.26397000  1
  O  O8  1  0.79506100  0.15571700  0.63120900  1
  O  O9  1  0.17027300  0.14996000  0.03666600  1
loop_
_geom_bond_atom_site_label_1
_geom_bond_atom_site_label_2
_geom_bond_distance
_geom_bond_site_symmetry_2
Li0 O9 1.838783 1_565
Li0 O0 1.868577 1_554
Li0 O1 1.968455 1_555
Li0 O3 1.992498 1_554
Li1 O0 1.838783 1_545
Li1 O9 1.868577 1_656
Li1 O8 1.968455 1_555
Li1 O6 1.992498 1_556
Bi0 O2 2.246461 1_555
Bi0 O0 2.380491 1_555
Bi0 O8 2.473464 1_565
Bi0 O3 2.522814 1_555
Bi0 O5 2.560309 1_555
Bi0 O1 2.594360 1_555
Bi1 O7 2.246461 1_655
Bi1 O9 2.380491 1_655
Bi1 O1 2.473464 1_645
Bi1 O6 2.522814 1_555
Bi1 O4 2.560309 1_555
Bi1 O8 2.594360 1_555
B0 O0 1.424135 1_555
B0 O3 1.485701 1_655
B0 O6 1.499377 1_556
B0 O2 1.556730 1_555
B1 O5 1.470279 1_555
B1 O4 1.498259 1_555
B1 O7 1.502825 1_555
B1 O1 1.505879 1_555
B2 O4 1.470279 1_555
B2 O5 1.498259 1_655
B2 O2 1.502825 1_555
B2 O8 1.505879 1_555
B3 O9 1.424135 1_555
B3 O6 1.485701 1_555
B3 O3 1.499377 1_554
B3 O7 1.556730 1_555
