# generated using pymatgen
data_LiV2OF5
_symmetry_space_group_name_H-M   'P 1'
_cell_length_a   4.57955100
_cell_length_b   8.71230790
_cell_length_c   8.75371368
_cell_angle_alpha   119.81604422
_cell_angle_beta   89.84291234
_cell_angle_gamma   90.63963571
_symmetry_Int_Tables_number   1
_chemical_formula_structural   LiV2OF5
_chemical_formula_sum   'Li3 V6 O3 F15'
_cell_volume   303.00639739
_cell_formula_units_Z   3
loop_
 _symmetry_equiv_pos_site_id
 _symmetry_equiv_pos_as_xyz
  1  'x, y, z'
loop_
 _atom_site_type_symbol
 _atom_site_label
 _atom_site_symmetry_multiplicity
 _atom_site_fract_x
 _atom_site_fract_y
 _atom_site_fract_z
 _atom_site_occupancy
  Li  Li0  1  0.49921900  0.33348900  0.66628300  1
  Li  Li1  1  0.99535400  0.00114300  0.99992500  1
  Li  Li2  1  0.49226100  0.66760400  0.33612400  1
  V  V0  1  0.01558200  0.35100500  0.99323700  1
  V  V1  1  0.48488500  0.66714100  0.99675600  1
  V  V2  1  0.01559000  0.66257300  0.64967700  1
  V  V3  1  0.48514400  0.98704500  0.67355600  1
  V  V4  1  0.51815900  0.31239100  0.32411800  1
  V  V5  1  0.98246800  0.01281400  0.34902300  1
  O  O0  1  0.25574400  0.46317000  0.90732500  1
  O  O1  1  0.73640700  0.20545200  0.42281900  1
  O  O2  1  0.26414000  0.78025600  0.57242400  1
  F  F0  1  0.24218400  0.11746600  0.89176000  1
  F  F1  1  0.73466900  0.22172100  0.78685400  1
  F  F2  1  0.24985900  0.10553400  0.55923800  1
  F  F3  1  0.73718800  0.56370900  0.77359000  1
  F  F4  1  0.22865000  0.77288900  0.88367100  1
  F  F5  1  0.76515400  0.88738700  0.78032900  1
  F  F6  1  0.26166100  0.43425500  0.54068800  1
  F  F7  1  0.23519600  0.10538900  0.21631600  1
  F  F8  1  0.74969100  0.54638400  0.43963500  1
  F  F9  1  0.73988300  0.89293800  0.45876500  1
  F  F10  1  0.77062100  0.23101200  0.10614500  1
  F  F11  1  0.26641600  0.43363300  0.21540600  1
  F  F12  1  0.74404000  0.56762500  0.11362900  1
  F  F13  1  0.26119300  0.79318700  0.22893200  1
  F  F14  1  0.76864300  0.88278800  0.11387300  1
loop_
_geom_bond_atom_site_label_1
_geom_bond_atom_site_label_2
_geom_bond_distance
_geom_bond_site_symmetry_2
Li0 O0 2.148592 1_555
Li0 O1 2.148604 1_555
Li2 O2 2.079793 1_555
O0 V0 1.852689 1_555
O0 V1 1.857793 1_555
O1 V4 1.854592 1_555
O1 V5 1.861168 1_555
O2 V3 1.852569 1_555
O2 V2 1.861010 1_555
F0 V3 2.008937 1_545
F0 Li1 2.030789 1_455
F0 V0 2.061694 1_555
F1 V0 2.035765 1_655
F1 Li0 2.067972 1_555
F1 V3 2.099347 1_545
F2 V5 2.012529 1_455
F2 Li0 2.056934 1_555
F2 V3 2.070297 1_545
F3 Li0 2.043587 1_555
F3 V1 2.055147 1_555
F3 V2 2.107360 1_655
F4 V2 2.025755 1_555
F4 V1 2.035473 1_555
F4 Li1 2.039779 1_465
F5 Li1 1.970285 1_565
F5 V3 2.027370 1_555
F5 V2 2.067612 1_655
F6 V4 2.028572 1_555
F6 Li0 2.037324 1_555
F6 V2 2.072165 1_555
F7 Li1 1.974260 1_454
F7 V4 2.020973 1_555
F7 V5 2.059867 1_455
F8 V2 2.005495 1_655
F8 V4 2.051925 1_555
F8 Li2 2.076415 1_555
F9 V3 2.011147 1_555
F9 Li2 2.038054 1_555
F9 V5 2.052739 1_565
F10 Li1 2.030648 1_554
F10 V4 2.034957 1_555
F10 V0 2.079292 1_654
F11 Li2 2.039220 1_555
F11 V0 2.054646 1_554
F11 V4 2.093633 1_555
F12 V1 2.029441 1_554
F12 Li2 2.050520 1_555
F12 V0 2.070300 1_654
F13 V1 2.044565 1_554
F13 Li2 2.061440 1_555
F13 V5 2.107743 1_465
F14 Li1 2.032083 1_564
F14 V5 2.036356 1_565
F14 V1 2.075309 1_554
