# generated using pymatgen
data_Li24Ti7Cr5O36
_symmetry_space_group_name_H-M   'P 1'
_cell_length_a   5.06418000
_cell_length_b   9.81643834
_cell_length_c   13.43608655
_cell_angle_alpha   97.30500277
_cell_angle_beta   100.76394594
_cell_angle_gamma   94.74427401
_symmetry_Int_Tables_number   1
_chemical_formula_structural   Li24Ti7Cr5O36
_chemical_formula_sum   'Li24 Ti7 Cr5 O36'
_cell_volume   646.96336979
_cell_formula_units_Z   1
loop_
 _symmetry_equiv_pos_site_id
 _symmetry_equiv_pos_as_xyz
  1  'x, y, z'
loop_
 _atom_site_type_symbol
 _atom_site_label
 _atom_site_symmetry_multiplicity
 _atom_site_fract_x
 _atom_site_fract_y
 _atom_site_fract_z
 _atom_site_occupancy
  Li  Li0  1  0.16399100  0.99854500  0.83439500  1
  Li  Li1  1  0.04817500  0.99845900  0.61087700  1
  Li  Li2  1  0.99992800  0.74972500  0.25049600  1
  Li  Li3  1  0.33458700  0.74950300  0.91630200  1
  Li  Li4  1  0.04907400  0.49895800  0.11329900  1
  Li  Li5  1  0.38395400  0.49933300  0.77978700  1
  Li  Li6  1  0.16828500  0.50007900  0.33352400  1
  Li  Li7  1  0.50261400  0.49916700  0.99950500  1
  Li  Li8  1  0.28704900  0.49966100  0.55287200  1
  Li  Li9  1  0.33151700  0.24947100  0.41694500  1
  Li  Li10  1  0.49433200  0.00136300  0.50169400  1
  Li  Li11  1  0.28828400  0.00154400  0.05531200  1
  Li  Li12  1  0.62430700  0.00090500  0.72057200  1
  Li  Li13  1  0.38077300  0.00284700  0.27892900  1
  Li  Li14  1  0.71076600  0.99973400  0.94511200  1
  Li  Li15  1  0.66693600  0.75068400  0.58365900  1
  Li  Li16  1  0.71792300  0.50068600  0.44719500  1
  Li  Li17  1  0.82614700  0.50103900  0.66728500  1
  Li  Li18  1  0.61228100  0.49825200  0.21834100  1
  Li  Li19  1  0.95039800  0.50192300  0.88804700  1
  Li  Li20  1  0.66547600  0.25036600  0.08238100  1
  Li  Li21  1  0.83831300  0.00003600  0.16618000  1
  Li  Li22  1  0.99986400  0.24992000  0.75006600  1
  Li  Li23  1  0.95113600  0.99778000  0.38708900  1
  Ti  Ti0  1  0.11713400  0.25571700  0.97357700  1
  Ti  Ti1  1  0.22580600  0.75340400  0.69331100  1
  Ti  Ti2  1  0.44253800  0.75159200  0.14038400  1
  Ti  Ti3  1  0.55601100  0.74966500  0.36378100  1
  Ti  Ti4  1  0.77615300  0.24797700  0.30569500  1
  Ti  Ti5  1  0.88792800  0.24756600  0.52762200  1
  Ti  Ti6  1  0.88535200  0.74672100  0.02599600  1
  Cr  Cr0  1  0.10743700  0.74886800  0.47177000  1
  Cr  Cr1  1  0.21824700  0.24987900  0.19330100  1
  Cr  Cr2  1  0.43814000  0.24934500  0.64088600  1
  Cr  Cr3  1  0.56302300  0.24996400  0.85930600  1
  Cr  Cr4  1  0.78211300  0.75009200  0.80580300  1
  O  O0  1  0.99901500  0.86212200  0.92528500  1
  O  O1  1  0.06115800  0.63566800  0.78455300  1
  O  O2  1  0.99717600  0.36363300  0.42875700  1
  O  O3  1  0.15157300  0.36326300  0.64479100  1
  O  O4  1  0.26598100  0.36383400  0.88078000  1
  O  O5  1  0.33441600  0.86221000  0.59409100  1
  O  O6  1  0.06820100  0.13445300  0.28587800  1
  O  O7  1  0.18693500  0.13658100  0.52300500  1
  O  O8  1  0.40308100  0.13521500  0.94925900  1
  O  O9  1  0.14367200  0.86335900  0.14316400  1
  O  O10  1  0.25887200  0.86351400  0.38426700  1
  O  O11  1  0.48067200  0.86168400  0.80971800  1
  O  O12  1  0.33182100  0.13873700  0.73406600  1
  O  O13  1  0.18949400  0.63674500  0.02234200  1
  O  O14  1  0.40666700  0.63403700  0.45269800  1
  O  O15  1  0.52669800  0.63767400  0.69142600  1
  O  O16  1  0.33253900  0.63693400  0.23815100  1
  O  O17  1  0.66154900  0.63690300  0.90440700  1
  O  O18  1  0.33795600  0.36425500  0.09487600  1
  O  O19  1  0.66907700  0.36060000  0.76578000  1
  O  O20  1  0.47324200  0.36159500  0.30855400  1
  O  O21  1  0.59590000  0.36411000  0.55063700  1
  O  O22  1  0.81333700  0.36370600  0.97717600  1
  O  O23  1  0.66789800  0.86353000  0.26322900  1
  O  O24  1  0.51872200  0.13898600  0.18847000  1
  O  O25  1  0.73478400  0.13642700  0.61979600  1
  O  O26  1  0.84823200  0.13699800  0.85647000  1
  O  O27  1  0.59690800  0.86592900  0.04801100  1
  O  O28  1  0.80970800  0.86309200  0.47785500  1
  O  O29  1  0.93306100  0.86606300  0.71429900  1
  O  O30  1  0.66542000  0.13527800  0.40426300  1
  O  O31  1  0.73715500  0.63445400  0.11797900  1
  O  O32  1  0.86198000  0.63797700  0.35822500  1
  O  O33  1  0.00066900  0.63776400  0.56896500  1
  O  O34  1  0.93702800  0.36392300  0.21345400  1
  O  O35  1  0.00340800  0.13797200  0.07402400  1
loop_
_geom_bond_atom_site_label_1
_geom_bond_atom_site_label_2
_geom_bond_distance
_geom_bond_site_symmetry_2
Li0 O8 2.038272 1_565
Li0 O29 2.042700 1_455
Li0 O0 2.143523 1_455
Li0 O26 2.219529 1_465
Li0 O11 2.220042 1_555
Li0 O12 2.267086 1_565
Li1 O7 2.070145 1_565
Li1 O5 2.075357 1_555
Li1 O29 2.143927 1_455
Li1 O28 2.177830 1_455
Li1 O25 2.180079 1_465
Li1 O12 2.214561 1_565
Li2 O32 2.107421 1_555
Li2 O16 2.111110 1_655
Li2 O23 2.115230 1_555
Li2 O9 2.126219 1_655
Li2 O10 2.136486 1_655
Li2 O31 2.138926 1_555
Li3 O17 2.084616 1_555
Li3 O13 2.110114 1_556
Li3 O11 2.114906 1_555
Li3 O0 2.116162 1_455
Li3 O27 2.135189 1_556
Li3 O1 2.150601 1_555
Li4 O18 2.078943 1_555
Li4 O13 2.101086 1_555
Li4 O34 2.122354 1_455
Li4 O31 2.152126 1_455
Li4 O22 2.199494 1_454
Li4 O16 2.215935 1_555
Li5 O19 2.082447 1_555
Li5 O15 2.084336 1_555
Li5 O4 2.144251 1_555
Li5 O3 2.187591 1_555
Li5 O17 2.198931 1_555
Li5 O1 2.201510 1_555
Li6 O14 2.056796 1_555
Li6 O34 2.060973 1_455
Li6 O20 2.184137 1_555
Li6 O32 2.184977 1_455
Li6 O16 2.188581 1_555
Li6 O2 2.200039 1_455
Li7 O31 2.050271 1_556
Li7 O4 2.056524 1_555
Li7 O18 2.176985 1_556
Li7 O17 2.179916 1_555
Li7 O22 2.180670 1_555
Li7 O13 2.205245 1_556
Li8 O33 2.087044 1_555
Li8 O3 2.091372 1_555
Li8 O14 2.131290 1_555
Li8 O21 2.137629 1_555
Li8 O2 2.216758 1_455
Li8 O15 2.239805 1_555
Li9 O7 2.109972 1_555
Li9 O20 2.124834 1_555
Li9 O2 2.125299 1_455
Li9 O30 2.125441 1_555
Li9 O6 2.126580 1_555
Li9 O21 2.150362 1_555
Li10 O10 2.056625 1_545
Li10 O25 2.057870 1_555
Li10 O7 2.163071 1_555
Li10 O5 2.164895 1_545
Li10 O30 2.205760 1_555
Li10 O28 2.221452 1_545
Li11 O35 2.075451 1_555
Li11 O9 2.082171 1_545
Li11 O27 2.143092 1_545
Li11 O24 2.174614 1_555
Li11 O8 2.179206 1_554
Li11 O0 2.275004 1_444
Li12 O11 2.099710 1_545
Li12 O12 2.104027 1_555
Li12 O25 2.129358 1_555
Li12 O29 2.137104 1_545
Li12 O26 2.181832 1_555
Li12 O5 2.246319 1_545
Li13 O24 2.080149 1_555
Li13 O23 2.097436 1_545
Li13 O6 2.132175 1_555
Li13 O30 2.197806 1_555
Li13 O9 2.217856 1_545
Li13 O10 2.221256 1_545
Li14 O26 2.069144 1_565
Li14 O0 2.099184 1_555
Li14 O8 2.134508 1_565
Li14 O27 2.145573 1_556
Li14 O11 2.196289 1_555
Li14 O35 2.269062 1_666
Li15 O5 2.099515 1_555
Li15 O28 2.100511 1_555
Li15 O15 2.119887 1_555
Li15 O33 2.122016 1_655
Li15 O14 2.125154 1_555
Li15 O29 2.130370 1_555
Li16 O2 2.057220 1_555
Li16 O32 2.085747 1_555
Li16 O14 2.136317 1_555
Li16 O21 2.183718 1_555
Li16 O33 2.187275 1_655
Li16 O20 2.254065 1_555
Li17 O21 2.035961 1_555
Li17 O1 2.038487 1_655
Li17 O15 2.147889 1_555
Li17 O19 2.227194 1_555
Li17 O33 2.240180 1_655
Li17 O3 2.255498 1_655
Li18 O16 2.073358 1_555
Li18 O20 2.083416 1_555
Li18 O31 2.154776 1_555
Li18 O18 2.166582 1_555
Li18 O34 2.196537 1_555
Li18 O32 2.276529 1_555
Li19 O17 2.076148 1_555
Li19 O22 2.079589 1_555
Li19 O1 2.146103 1_655
Li19 O4 2.187272 1_655
Li19 O13 2.187481 1_656
Li19 O19 2.207325 1_555
Li20 O18 2.095736 1_555
Li20 O24 2.106464 1_555
Li20 O22 2.110488 1_554
Li20 O35 2.123962 1_655
Li20 O34 2.139584 1_555
Li20 O8 2.142968 1_554
Li21 O6 2.046907 1_655
Li21 O27 2.055651 1_545
Li21 O35 2.165965 1_655
Li21 O9 2.168730 1_645
Li21 O23 2.216776 1_545
Li21 O24 2.238738 1_555
Li22 O19 2.099058 1_555
Li22 O12 2.107678 1_655
Li22 O25 2.118007 1_555
Li22 O3 2.119833 1_655
Li22 O4 2.125644 1_655
Li22 O26 2.129458 1_555
Li23 O28 2.080385 1_555
Li23 O30 2.082589 1_565
Li23 O10 2.125192 1_655
Li23 O6 2.152734 1_665
Li23 O23 2.191267 1_555
Li23 O7 2.213801 1_665
Cr0 O32 1.924333 1_455
Cr0 O33 1.927612 1_555
Cr0 O10 1.940992 1_555
Cr0 O28 1.959501 1_455
Cr0 O5 1.969289 1_555
Cr0 O14 1.996688 1_555
Cr1 O35 1.913676 1_555
Cr1 O34 1.919761 1_455
Cr1 O24 1.948739 1_555
Cr1 O20 1.963454 1_555
Cr1 O18 1.985304 1_555
Cr1 O6 1.994366 1_555
Cr2 O12 1.880697 1_555
Cr2 O3 1.908221 1_555
Cr2 O25 1.979981 1_555
Cr2 O7 1.980120 1_555
Cr2 O21 1.984498 1_555
Cr2 O19 1.991499 1_555
Cr3 O19 1.884073 1_555
Cr3 O26 1.895275 1_555
Cr3 O22 1.981924 1_555
Cr3 O8 1.986606 1_555
Cr3 O4 1.988418 1_555
Cr3 O12 1.994993 1_555
Cr4 O1 1.916206 1_655
Cr4 O0 1.919824 1_555
Cr4 O11 1.955777 1_555
Cr4 O15 1.960277 1_555
Cr4 O17 1.981631 1_555
Cr4 O29 1.988705 1_555
O0 Ti6 2.004636 1_556
O1 Ti1 2.028948 1_555
O2 Ti4 1.974053 1_555
O2 Ti5 1.980883 1_555
O3 Ti5 2.015009 1_455
O4 Ti0 1.950493 1_555
O5 Ti1 1.938911 1_555
O6 Ti4 1.960728 1_455
O7 Ti5 1.942802 1_455
O8 Ti0 1.991171 1_555
O9 Ti2 1.944540 1_555
O9 Ti6 2.006301 1_455
O10 Ti3 1.985890 1_555
O11 Ti1 1.959133 1_555
O13 Ti6 1.957043 1_455
O13 Ti2 1.993931 1_555
O14 Ti3 1.956526 1_555
O15 Ti1 1.976511 1_555
O16 Ti2 1.961708 1_555
O16 Ti3 1.989695 1_555
O17 Ti6 1.942680 1_556
O18 Ti0 1.929377 1_554
O20 Ti4 1.972991 1_555
O21 Ti5 1.988036 1_555
O22 Ti0 1.943590 1_655
O23 Ti2 1.965188 1_555
O23 Ti3 1.990197 1_555
O24 Ti4 1.974536 1_555
O25 Ti5 1.971780 1_555
O26 Ti0 2.039401 1_655
O27 Ti6 1.986636 1_555
O27 Ti2 1.995700 1_555
O28 Ti3 1.957914 1_555
O29 Ti1 1.961750 1_655
O30 Ti4 1.959515 1_555
O30 Ti5 1.965762 1_555
O31 Ti6 1.964999 1_555
O31 Ti2 2.000604 1_555
O32 Ti3 1.977857 1_555
O33 Ti1 1.992972 1_555
O34 Ti4 2.019326 1_555
O35 Ti0 2.016439 1_554
