# generated using pymatgen
data_LiLa3Ti4O12
_symmetry_space_group_name_H-M   'P 1'
_cell_length_a   5.57009490
_cell_length_b   5.57009490
_cell_length_c   7.83156784
_cell_angle_alpha   89.53694465
_cell_angle_beta   89.53694465
_cell_angle_gamma   88.89271925
_symmetry_Int_Tables_number   1
_chemical_formula_structural   LiLa3Ti4O12
_chemical_formula_sum   'Li1 La3 Ti4 O12'
_cell_volume   242.92094810
_cell_formula_units_Z   1
loop_
 _symmetry_equiv_pos_site_id
 _symmetry_equiv_pos_as_xyz
  1  'x, y, z'
loop_
 _atom_site_type_symbol
 _atom_site_label
 _atom_site_symmetry_multiplicity
 _atom_site_fract_x
 _atom_site_fract_y
 _atom_site_fract_z
 _atom_site_occupancy
  Li  Li0  1  0.82902700  0.82902700  0.57578100  1
  La  La0  1  0.25325900  0.25325900  0.00340600  1
  La  La1  1  0.25394600  0.25394600  0.50154600  1
  La  La2  1  0.74987400  0.74987400  0.01317200  1
  Ti  Ti0  1  0.25857100  0.75033300  0.74816000  1
  Ti  Ti1  1  0.24864400  0.74849500  0.25922800  1
  Ti  Ti2  1  0.75033300  0.25857100  0.74816000  1
  Ti  Ti3  1  0.74849500  0.24864400  0.25922800  1
  O  O0  1  0.00023500  0.00023500  0.80368200  1
  O  O1  1  0.99725200  0.99725200  0.19333300  1
  O  O2  1  0.00230800  0.50040400  0.75739000  1
  O  O3  1  0.00846600  0.48655500  0.24063700  1
  O  O4  1  0.18843100  0.80220100  0.50261900  1
  O  O5  1  0.30425900  0.69939200  0.00172100  1
  O  O6  1  0.50040400  0.00230800  0.75739000  1
  O  O7  1  0.48655500  0.00846600  0.24063700  1
  O  O8  1  0.49168500  0.49168500  0.70499200  1
  O  O9  1  0.49276100  0.49276100  0.29467500  1
  O  O10  1  0.69939200  0.30425900  0.00172100  1
  O  O11  1  0.80220100  0.18843100  0.50261900  1
loop_
_geom_bond_atom_site_label_1
_geom_bond_atom_site_label_2
_geom_bond_distance
_geom_bond_site_symmetry_2
Li0 O11 2.080762 1_565
Li0 O4 2.080762 1_655
Li0 O0 2.257131 1_665
Li0 O6 2.493371 1_565
Li0 O2 2.493371 1_655
La0 O10 2.506553 1_555
La0 O5 2.506553 1_555
La0 O1 2.507851 1_445
La0 O0 2.562663 1_554
La0 O3 2.632336 1_555
La0 O7 2.632336 1_555
La0 O6 2.736314 1_554
La0 O2 2.736314 1_554
La0 O9 2.988296 1_555
La0 O8 2.992841 1_554
La0 O5 3.092796 1_545
La0 O10 3.092796 1_455
La1 O9 2.482439 1_555
La1 O8 2.486313 1_555
La1 O4 2.549493 1_545
La1 O11 2.549493 1_455
La1 O3 2.767208 1_555
La1 O7 2.767208 1_555
La1 O6 2.790794 1_555
La1 O2 2.790794 1_555
La2 O1 2.433991 1_555
La2 O10 2.505793 1_555
La2 O5 2.505793 1_555
La2 O0 2.565607 1_664
La2 O3 2.704986 1_655
La2 O7 2.704986 1_565
La2 O2 2.800827 1_654
La2 O6 2.800827 1_564
La2 O9 2.989913 1_555
La2 O10 3.095979 1_565
La2 O5 3.095979 1_655
La2 O8 3.186496 1_554
O0 Ti0 2.029661 1_545
O0 Ti2 2.029661 1_455
O1 Ti3 2.017949 1_565
O1 Ti1 2.017949 1_655
O2 Ti2 1.966186 1_455
O2 Ti0 2.013517 1_555
O3 Ti3 1.985408 1_455
O3 Ti1 2.005427 1_555
O4 Ti1 1.957122 1_555
O4 Ti0 1.983109 1_555
O5 Ti0 2.021106 1_554
O5 Ti1 2.057505 1_555
O6 Ti0 1.966186 1_545
O6 Ti2 2.013517 1_555
O7 Ti1 1.985408 1_545
O7 Ti3 2.005427 1_555
O8 Ti0 1.950484 1_555
O8 Ti2 1.950484 1_555
O9 Ti3 1.969757 1_555
O9 Ti1 1.969757 1_555
O10 Ti2 2.021106 1_554
O10 Ti3 2.057505 1_555
O11 Ti3 1.957122 1_555
O11 Ti2 1.983109 1_555
