# generated using pymatgen
data_Na(CO)3
_symmetry_space_group_name_H-M   'P 1'
_cell_length_a   9.33842240
_cell_length_b   8.28394244
_cell_length_c   7.12390633
_cell_angle_alpha   74.18440946
_cell_angle_beta   58.59442499
_cell_angle_gamma   47.22116555
_symmetry_Int_Tables_number   1
_chemical_formula_structural   Na(CO)3
_chemical_formula_sum   'Na4 C12 O12'
_cell_volume   342.31218122
_cell_formula_units_Z   4
loop_
 _symmetry_equiv_pos_site_id
 _symmetry_equiv_pos_as_xyz
  1  'x, y, z'
loop_
 _atom_site_type_symbol
 _atom_site_label
 _atom_site_symmetry_multiplicity
 _atom_site_fract_x
 _atom_site_fract_y
 _atom_site_fract_z
 _atom_site_occupancy
  Na  Na0  1  0.64868200  0.34747000  0.64407000  1
  Na  Na1  1  0.89569300  0.60460900  0.90578800  1
  Na  Na2  1  0.59906900  0.89437600  0.60666800  1
  Na  Na3  1  0.35345500  0.65289800  0.34645500  1
  C  C0  1  0.35775300  0.34607000  0.15037600  1
  C  C1  1  0.37160100  0.02481400  0.14685300  1
  C  C2  1  0.22297500  0.88387600  0.79099800  1
  C  C3  1  0.14612600  0.44849500  0.36758700  1
  C  C4  1  0.03435100  0.36430600  0.44461400  1
  C  C5  1  0.09742100  0.10433000  0.89464800  1
  C  C6  1  0.10058000  0.79958200  0.87710500  1
  C  C7  1  0.80159600  0.09489600  0.21131200  1
  C  C8  1  0.88813000  0.21999900  0.09855400  1
  C  C9  1  0.89314800  0.89999100  0.09906800  1
  C  C10  1  0.44459600  0.15329300  0.03388400  1
  C  C11  1  0.15421000  0.14453600  0.34435000  1
  O  O0  1  0.84724900  0.47263400  0.60963400  1
  O  O1  1  0.18698900  0.19597800  0.80864500  1
  O  O2  1  0.47108100  0.84317900  0.06155300  1
  O  O3  1  0.77400300  0.40864700  0.19009500  1
  O  O4  1  0.05780700  0.06793600  0.43507700  1
  O  O5  1  0.40836100  0.77154400  0.63626800  1
  O  O6  1  0.07102200  0.61199300  0.47688800  1
  O  O7  1  0.81058000  0.80603600  0.19410600  1
  O  O8  1  0.61333900  0.06512300  0.84631500  1
  O  O9  1  0.17588900  0.64026600  0.78283800  1
  O  O10  1  0.62604400  0.18267900  0.41100900  1
  O  O11  1  0.43730700  0.43675300  0.06886700  1
loop_
_geom_bond_atom_site_label_1
_geom_bond_atom_site_label_2
_geom_bond_distance
_geom_bond_site_symmetry_2
Na0 O4 2.471713 1_655
Na0 O8 2.524195 1_555
Na0 O0 2.563697 1_555
Na0 O11 2.571535 1_556
Na0 O10 2.580329 1_555
Na0 O5 2.587525 1_555
Na0 O3 2.837853 1_555
Na0 O9 2.926706 1_555
Na1 O7 2.449482 1_556
Na1 O1 2.478801 1_655
Na1 O9 2.494248 1_655
Na1 O3 2.518666 1_556
Na1 O2 2.612500 1_556
Na1 O6 2.615468 1_655
Na1 O8 2.881855 1_565
Na1 O0 2.962235 1_555
Na2 O5 2.490914 1_555
Na2 O7 2.496762 1_555
Na2 O1 2.500054 1_565
Na2 O10 2.519311 1_565
Na2 O0 2.567084 1_555
Na2 O8 2.596625 1_565
Na2 O2 2.830633 1_556
Na2 O6 2.946050 1_655
Na3 O2 2.468834 1_555
Na3 O11 2.478197 1_555
Na3 O4 2.512911 1_565
Na3 O6 2.534316 1_555
Na3 O3 2.575615 1_555
Na3 O9 2.666626 1_555
Na3 O5 2.895747 1_555
Na3 O10 2.939260 1_555
C0 O11 1.234555 1_555
C1 O2 1.227854 1_545
C2 O5 1.208350 1_555
C3 O6 1.283747 1_555
C4 O0 1.242860 1_455
C5 O1 1.313896 1_555
C6 O9 1.190589 1_555
C7 O10 1.324457 1_555
C8 O3 1.253847 1_555
C9 O7 1.281629 1_555
C10 O8 1.255492 1_554
C11 O4 1.255726 1_555
