# generated using pymatgen
data_Li2FeF4
_symmetry_space_group_name_H-M   'P 1'
_cell_length_a   5.42863700
_cell_length_b   5.99933000
_cell_length_c   9.64524500
_cell_angle_alpha   90.00000000
_cell_angle_beta   90.00000000
_cell_angle_gamma   90.00000000
_symmetry_Int_Tables_number   1
_chemical_formula_structural   Li2FeF4
_chemical_formula_sum   'Li8 Fe4 F16'
_cell_volume   314.12812173
_cell_formula_units_Z   4
loop_
 _symmetry_equiv_pos_site_id
 _symmetry_equiv_pos_as_xyz
  1  'x, y, z'
loop_
 _atom_site_type_symbol
 _atom_site_label
 _atom_site_symmetry_multiplicity
 _atom_site_fract_x
 _atom_site_fract_y
 _atom_site_fract_z
 _atom_site_occupancy
  Li  Li0  1  0.78898400  0.00991700  0.22907800  1
  Li  Li1  1  0.37198100  0.16640800  0.02352500  1
  Li  Li2  1  0.87198100  0.33359200  0.52352500  1
  Li  Li3  1  0.28898400  0.49008300  0.72907800  1
  Li  Li4  1  0.78898400  0.50991700  0.27092200  1
  Li  Li5  1  0.37198100  0.66640800  0.47647500  1
  Li  Li6  1  0.87198100  0.83359200  0.97647500  1
  Li  Li7  1  0.28898400  0.99008300  0.77092200  1
  Fe  Fe0  1  0.31359300  0.16339900  0.38874400  1
  Fe  Fe1  1  0.81359300  0.33660100  0.88874400  1
  Fe  Fe2  1  0.31359300  0.66339900  0.11125600  1
  Fe  Fe3  1  0.81359300  0.83660100  0.61125600  1
  F  F0  1  0.63344400  0.10060200  0.50052200  1
  F  F1  1  0.71836500  0.09846600  0.03897700  1
  F  F2  1  0.94635600  0.08295400  0.75169100  1
  F  F3  1  0.47302400  0.25548300  0.80772600  1
  F  F4  1  0.97302400  0.24451700  0.30772600  1
  F  F5  1  0.44635600  0.41704600  0.25169100  1
  F  F6  1  0.21836500  0.40153400  0.53897700  1
  F  F7  1  0.13344400  0.39939800  0.00052200  1
  F  F8  1  0.63344400  0.60060200  0.99947800  1
  F  F9  1  0.71836500  0.59846600  0.46102300  1
  F  F10  1  0.94635600  0.58295400  0.74830900  1
  F  F11  1  0.47302400  0.75548300  0.69227400  1
  F  F12  1  0.97302400  0.74451700  0.19227400  1
  F  F13  1  0.44635600  0.91704600  0.24830900  1
  F  F14  1  0.21836500  0.90153400  0.96102300  1
  F  F15  1  0.13344400  0.89939800  0.49947800  1
loop_
_geom_bond_atom_site_label_1
_geom_bond_atom_site_label_2
_geom_bond_distance
_geom_bond_site_symmetry_2
F0 Li2 1.918299 1_555
F0 Fe0 2.078273 1_555
F0 Fe3 2.146083 1_545
F1 Li6 1.893143 1_544
F1 Li1 1.929827 1_555
F1 Li0 1.947090 1_555
F1 Fe1 2.099521 1_554
F2 Li7 1.950500 1_645
F2 Fe3 2.130384 1_545
F2 Fe1 2.140676 1_555
F3 Li3 1.885341 1_555
F3 Li7 1.912945 1_545
F3 Fe1 2.065341 1_555
F3 Li1 2.217842 1_556
F4 Li0 1.885341 1_555
F4 Li4 1.912945 1_555
F4 Fe0 2.065341 1_655
F4 Li2 2.217842 1_555
F5 Li4 1.950500 1_555
F5 Fe2 2.130384 1_555
F5 Fe0 2.140676 1_555
F6 Li5 1.893143 1_555
F6 Li2 1.929827 1_455
F6 Li3 1.947090 1_555
F6 Fe0 2.099521 1_555
F7 Li1 1.918299 1_555
F7 Fe1 2.078273 1_454
F7 Fe2 2.146083 1_555
F8 Li6 1.918299 1_555
F8 Fe2 2.078273 1_556
F8 Fe1 2.146083 1_555
F9 Li2 1.893143 1_555
F9 Li5 1.929827 1_555
F9 Li4 1.947090 1_555
F9 Fe3 2.099521 1_555
F10 Li3 1.950500 1_655
F10 Fe1 2.130384 1_555
F10 Fe3 2.140676 1_555
F11 Li7 1.885341 1_555
F11 Li3 1.912945 1_555
F11 Fe3 2.065341 1_555
F11 Li5 2.217842 1_555
F12 Li4 1.885341 1_555
F12 Li0 1.912945 1_565
F12 Fe2 2.065341 1_655
F12 Li6 2.217842 1_554
F13 Li0 1.950500 1_565
F13 Fe0 2.130384 1_565
F13 Fe2 2.140676 1_555
F14 Li1 1.893143 1_566
F14 Li6 1.929827 1_455
F14 Li7 1.947090 1_555
F14 Fe2 2.099521 1_556
F15 Li5 1.918299 1_555
F15 Fe3 2.078273 1_455
F15 Fe0 2.146083 1_565
