# generated using pymatgen
data_LiCuPO4
_symmetry_space_group_name_H-M   'P 1'
_cell_length_a   4.95424900
_cell_length_b   6.09126600
_cell_length_c   10.97190300
_cell_angle_alpha   90.00000000
_cell_angle_beta   90.00000000
_cell_angle_gamma   90.00000000
_symmetry_Int_Tables_number   1
_chemical_formula_structural   LiCuPO4
_chemical_formula_sum   'Li4 Cu4 P4 O16'
_cell_volume   331.10623199
_cell_formula_units_Z   4
loop_
 _symmetry_equiv_pos_site_id
 _symmetry_equiv_pos_as_xyz
  1  'x, y, z'
loop_
 _atom_site_type_symbol
 _atom_site_label
 _atom_site_symmetry_multiplicity
 _atom_site_fract_x
 _atom_site_fract_y
 _atom_site_fract_z
 _atom_site_occupancy
  Li  Li0  1  0.99177900  0.72538000  0.57013700  1
  Li  Li1  1  0.49177900  0.22538000  0.92986300  1
  Li  Li2  1  0.99177900  0.77462000  0.07013700  1
  Li  Li3  1  0.49177900  0.27462000  0.42986300  1
  Cu  Cu0  1  0.48545900  0.97360000  0.67257700  1
  Cu  Cu1  1  0.98545900  0.47360000  0.82742300  1
  Cu  Cu2  1  0.48545900  0.52640000  0.17257700  1
  Cu  Cu3  1  0.98545900  0.02640000  0.32742300  1
  P  P0  1  0.99705100  0.23088200  0.58594900  1
  P  P1  1  0.49705100  0.73088200  0.91405100  1
  P  P2  1  0.99705100  0.26911800  0.08594900  1
  P  P3  1  0.49705100  0.76911800  0.41405100  1
  O  O0  1  0.39396600  0.74837100  0.54778300  1
  O  O1  1  0.30979900  0.21777900  0.58764200  1
  O  O2  1  0.90829100  0.44305000  0.65352000  1
  O  O3  1  0.88457700  0.01938600  0.64741900  1
  O  O4  1  0.38457700  0.51938600  0.85258100  1
  O  O5  1  0.40829100  0.94305000  0.84648000  1
  O  O6  1  0.80979900  0.71777900  0.91235800  1
  O  O7  1  0.89396600  0.24837100  0.95221700  1
  O  O8  1  0.39396600  0.75162900  0.04778300  1
  O  O9  1  0.30979900  0.28222100  0.08764200  1
  O  O10  1  0.90829100  0.05695000  0.15352000  1
  O  O11  1  0.88457700  0.48061400  0.14741900  1
  O  O12  1  0.38457700  0.98061400  0.35258100  1
  O  O13  1  0.40829100  0.55695000  0.34648000  1
  O  O14  1  0.80979900  0.78222100  0.41235800  1
  O  O15  1  0.89396600  0.25162900  0.45221700  1
loop_
_geom_bond_atom_site_label_1
_geom_bond_atom_site_label_2
_geom_bond_distance
_geom_bond_site_symmetry_2
Li0 O14 1.982308 1_555
Li0 O2 1.991381 1_555
Li0 O0 2.012452 1_655
Li0 O3 2.051407 1_565
Li1 O9 1.982308 1_556
Li1 O5 1.991381 1_545
Li1 O7 2.012452 1_555
Li1 O4 2.051407 1_555
Li2 O6 1.982308 1_554
Li2 O10 1.991381 1_565
Li2 O8 2.012452 1_655
Li2 O11 2.051407 1_555
Li3 O1 1.982308 1_555
Li3 O13 1.991381 1_555
Li3 O15 2.012452 1_555
Li3 O12 2.051407 1_545
Cu0 O5 1.954848 1_555
Cu0 O1 1.959089 1_565
Cu0 O0 1.990587 1_555
Cu0 O3 2.015889 1_565
Cu1 O2 1.954848 1_555
Cu1 O6 1.959089 1_555
Cu1 O7 1.990587 1_555
Cu1 O4 2.015889 1_655
Cu2 O13 1.954848 1_555
Cu2 O9 1.959089 1_555
Cu2 O8 1.990587 1_555
Cu2 O11 2.015889 1_555
Cu3 O10 1.954848 1_555
Cu3 O14 1.959089 1_545
Cu3 O15 1.990587 1_555
Cu3 O12 2.015889 1_645
O0 P3 1.558765 1_555
O1 P0 1.551597 1_455
O2 P0 1.553462 1_555
O3 P0 1.557252 1_555
O4 P1 1.557252 1_555
O5 P1 1.553462 1_555
O6 P1 1.551597 1_555
O7 P2 1.558765 1_556
O8 P1 1.558765 1_554
O9 P2 1.551597 1_455
O10 P2 1.553462 1_555
O11 P2 1.557252 1_555
O12 P3 1.557252 1_555
O13 P3 1.553462 1_555
O14 P3 1.551597 1_555
O15 P0 1.558765 1_555
