# generated using pymatgen
data_Li2MnCSO7
_symmetry_space_group_name_H-M   'P 1'
_cell_length_a   4.95251109
_cell_length_b   9.38687783
_cell_length_c   13.01032870
_cell_angle_alpha   90.03119691
_cell_angle_beta   90.02513250
_cell_angle_gamma   81.94138122
_symmetry_Int_Tables_number   1
_chemical_formula_structural   Li2MnCSO7
_chemical_formula_sum   'Li8 Mn4 C4 S4 O28'
_cell_volume   598.85943404
_cell_formula_units_Z   4
loop_
 _symmetry_equiv_pos_site_id
 _symmetry_equiv_pos_as_xyz
  1  'x, y, z'
loop_
 _atom_site_type_symbol
 _atom_site_label
 _atom_site_symmetry_multiplicity
 _atom_site_fract_x
 _atom_site_fract_y
 _atom_site_fract_z
 _atom_site_occupancy
  Li  Li0  1  0.20852800  0.16455900  0.25743300  1
  Li  Li1  1  0.20850400  0.16451600  0.75741400  1
  Li  Li2  1  0.20855400  0.16448900  0.49258600  1
  Li  Li3  1  0.20839700  0.16453600  0.99263800  1
  Li  Li4  1  0.79152000  0.83546800  0.00744600  1
  Li  Li5  1  0.79153300  0.83555000  0.50742500  1
  Li  Li6  1  0.79146300  0.83551000  0.24265600  1
  Li  Li7  1  0.79159800  0.83538800  0.74263000  1
  Mn  Mn0  1  0.74812200  0.36232200  0.87472800  1
  Mn  Mn1  1  0.25145600  0.63775800  0.62500900  1
  Mn  Mn2  1  0.74916100  0.36230500  0.37494900  1
  Mn  Mn3  1  0.25084600  0.63767100  0.12506700  1
  C  C0  1  0.72423400  0.07692900  0.37494100  1
  C  C1  1  0.72413400  0.07670200  0.87491800  1
  C  C2  1  0.27593100  0.92313500  0.12511500  1
  C  C3  1  0.27590600  0.92315200  0.62511100  1
  S  S0  1  0.77325100  0.40092900  0.12492200  1
  S  S1  1  0.77338500  0.40095000  0.62491600  1
  S  S2  1  0.22673100  0.59916200  0.37504000  1
  S  S3  1  0.22650000  0.59899700  0.87498900  1
  O  O0  1  0.30699600  0.05650300  0.12505600  1
  O  O1  1  0.30699200  0.05656900  0.62507200  1
  O  O2  1  0.69308700  0.94361400  0.37504900  1
  O  O3  1  0.69313400  0.94331900  0.87504400  1
  O  O4  1  0.96486100  0.11859700  0.37490500  1
  O  O5  1  0.96460800  0.11845000  0.87488400  1
  O  O6  1  0.03534000  0.88146100  0.12511400  1
  O  O7  1  0.03539700  0.88148000  0.62510800  1
  O  O8  1  0.51170100  0.17927000  0.37491300  1
  O  O9  1  0.51137100  0.17894800  0.87486600  1
  O  O10  1  0.48850400  0.82084800  0.12513500  1
  O  O11  1  0.48854200  0.82092400  0.62509800  1
  O  O12  1  0.13476100  0.45588700  0.37494800  1
  O  O13  1  0.13427500  0.45582600  0.87492500  1
  O  O14  1  0.86553400  0.54411800  0.12506800  1
  O  O15  1  0.86555200  0.54409800  0.62505100  1
  O  O16  1  0.46805600  0.42353900  0.12498200  1
  O  O17  1  0.46820600  0.42348400  0.62494500  1
  O  O18  1  0.53192000  0.57670600  0.37509900  1
  O  O19  1  0.53177000  0.57638500  0.87509100  1
  O  O20  1  0.87414500  0.31518700  0.03276300  1
  O  O21  1  0.87439300  0.31519700  0.53273800  1
  O  O22  1  0.87450900  0.31501000  0.21693700  1
  O  O23  1  0.87465900  0.31489800  0.71689300  1
  O  O24  1  0.12536400  0.68501600  0.28304700  1
  O  O25  1  0.12561100  0.68490000  0.78299300  1
  O  O26  1  0.12546000  0.68488300  0.46719700  1
  O  O27  1  0.12549500  0.68485700  0.96714600  1
loop_
_geom_bond_atom_site_label_1
_geom_bond_atom_site_label_2
_geom_bond_distance
_geom_bond_site_symmetry_2
Li0 O0 2.023116 1_555
Li0 O4 2.031399 1_455
Li0 O22 2.086529 1_455
Li0 O8 2.159984 1_555
Li1 O1 2.022267 1_555
Li1 O5 2.032376 1_455
Li1 O23 2.085643 1_455
Li1 O9 2.158240 1_555
Li2 O1 2.024277 1_555
Li2 O4 2.032182 1_455
Li2 O21 2.087238 1_455
Li2 O8 2.162816 1_555
Li3 O0 2.024155 1_556
Li3 O5 2.033731 1_455
Li3 O20 2.087162 1_456
Li3 O9 2.162568 1_555
Li4 O3 2.023000 1_554
Li4 O6 2.032726 1_655
Li4 O27 2.086563 1_654
Li4 O10 2.162263 1_555
Li5 O2 2.023697 1_555
Li5 O7 2.032834 1_655
Li5 O26 2.086459 1_655
Li5 O11 2.162037 1_555
Li6 O2 2.023425 1_555
Li6 O6 2.032703 1_655
Li6 O24 2.086005 1_655
Li6 O10 2.159542 1_555
Li7 O3 2.022974 1_555
Li7 O7 2.032658 1_655
Li7 O25 2.086268 1_655
Li7 O11 2.159683 1_555
Mn0 O19 2.140577 1_555
Mn0 O23 2.174767 1_555
Mn0 O20 2.176060 1_556
Mn0 O13 2.213227 1_655
Mn0 O9 2.214399 1_555
Mn0 O5 2.387844 1_555
Mn1 O17 2.143021 1_555
Mn1 O26 2.173269 1_555
Mn1 O25 2.175278 1_555
Mn1 O15 2.212852 1_455
Mn1 O11 2.213794 1_555
Mn1 O7 2.385916 1_555
Mn2 O18 2.144955 1_555
Mn2 O21 2.171986 1_555
Mn2 O22 2.175222 1_555
Mn2 O12 2.211088 1_655
Mn2 O8 2.213933 1_555
Mn2 O4 2.385240 1_555
Mn3 O16 2.142707 1_555
Mn3 O27 2.173881 1_554
Mn3 O24 2.175076 1_555
Mn3 O14 2.209636 1_455
Mn3 O10 2.215694 1_555
Mn3 O6 2.385630 1_555
C0 O2 1.282167 1_545
C0 O4 1.305312 1_555
C0 O8 1.321846 1_555
C1 O3 1.282614 1_545
C1 O5 1.304910 1_555
C1 O9 1.322090 1_555
C2 O0 1.282556 1_565
C2 O6 1.305165 1_555
C2 O10 1.321672 1_555
C3 O1 1.283039 1_565
C3 O7 1.304769 1_555
C3 O11 1.321548 1_555
O12 S2 1.479183 1_555
O13 S3 1.478804 1_555
O14 S0 1.479091 1_555
O15 S1 1.478473 1_555
O16 S0 1.496557 1_555
O17 S1 1.496478 1_555
O18 S2 1.496527 1_555
O19 S3 1.496924 1_555
O20 S0 1.490579 1_555
O21 S1 1.490976 1_555
O22 S0 1.490714 1_555
O23 S1 1.490955 1_555
O24 S2 1.490323 1_555
O25 S3 1.489967 1_555
O26 S2 1.490948 1_555
O27 S3 1.491247 1_555
