# generated using pymatgen
data_MnCd4O5
_symmetry_space_group_name_H-M   'P 1'
_cell_length_a   6.67656234
_cell_length_b   11.11844167
_cell_length_c   7.49243676
_cell_angle_alpha   78.28663121
_cell_angle_beta   77.12145729
_cell_angle_gamma   89.99792282
_symmetry_Int_Tables_number   1
_chemical_formula_structural   MnCd4O5
_chemical_formula_sum   'Mn4 Cd16 O20'
_cell_volume   530.30798307
_cell_formula_units_Z   4
loop_
 _symmetry_equiv_pos_site_id
 _symmetry_equiv_pos_as_xyz
  1  'x, y, z'
loop_
 _atom_site_type_symbol
 _atom_site_label
 _atom_site_symmetry_multiplicity
 _atom_site_fract_x
 _atom_site_fract_y
 _atom_site_fract_z
 _atom_site_occupancy
  Mn  Mn0  1  0.60258900  0.60066600  0.59837600  1
  Mn  Mn1  1  0.49730800  0.00142000  0.00014700  1
  Mn  Mn2  1  0.10261700  0.60068700  0.59836000  1
  Mn  Mn3  1  0.99731900  0.00137300  0.00014500  1
  Cd  Cd0  1  0.30026100  0.80066800  0.79956000  1
  Cd  Cd1  1  0.80025800  0.80066700  0.79955800  1
  Cd  Cd2  1  0.05054200  0.30107600  0.79910800  1
  Cd  Cd3  1  0.55054500  0.30107800  0.79910500  1
  Cd  Cd4  1  0.14831100  0.89721800  0.40281500  1
  Cd  Cd5  1  0.64831800  0.89721500  0.40281900  1
  Cd  Cd6  1  0.45127300  0.70491100  0.19595100  1
  Cd  Cd7  1  0.95127200  0.70490900  0.19595300  1
  Cd  Cd8  1  0.34822000  0.09924100  0.60026400  1
  Cd  Cd9  1  0.84822500  0.09923900  0.60026300  1
  Cd  Cd10  1  0.25163200  0.50236000  0.99869400  1
  Cd  Cd11  1  0.75163600  0.50235700  0.99869200  1
  Cd  Cd12  1  0.40033800  0.40367100  0.39869400  1
  Cd  Cd13  1  0.90033600  0.40367100  0.39869400  1
  Cd  Cd14  1  0.19875200  0.19823300  0.19994300  1
  Cd  Cd15  1  0.69875900  0.19823600  0.19994200  1
  O  O0  1  0.02878900  0.64967800  0.89095300  1
  O  O1  1  0.52878500  0.64967200  0.89095600  1
  O  O2  1  0.07185700  0.95160400  0.70759700  1
  O  O3  1  0.57186000  0.95160500  0.70758900  1
  O  O4  1  0.37671500  0.74022200  0.50581200  1
  O  O5  1  0.87672000  0.74022800  0.50580800  1
  O  O6  1  0.22479400  0.86171200  0.09292600  1
  O  O7  1  0.72480400  0.86171500  0.09292300  1
  O  O8  1  0.27127500  0.14111800  0.90618000  1
  O  O9  1  0.77127800  0.14111600  0.90617900  1
  O  O10  1  0.32744400  0.46066100  0.69223600  1
  O  O11  1  0.82743700  0.46066000  0.69223600  1
  O  O12  1  0.12288400  0.25119600  0.50111900  1
  O  O13  1  0.62288500  0.25119800  0.50111800  1
  O  O14  1  0.47597400  0.35050600  0.09760000  1
  O  O15  1  0.97597900  0.35050700  0.09759600  1
  O  O16  1  0.17495700  0.55585500  0.30543700  1
  O  O17  1  0.67495800  0.55585400  0.30543200  1
  O  O18  1  0.42405900  0.04619000  0.29308900  1
  O  O19  1  0.92406400  0.04618800  0.29308200  1
loop_
_geom_bond_atom_site_label_1
_geom_bond_atom_site_label_2
_geom_bond_distance
_geom_bond_site_symmetry_2
Mn0 O4 2.278587 1_555
Mn0 O11 2.279757 1_555
Mn0 O5 2.288239 1_555
Mn0 O17 2.295734 1_555
Mn0 O10 2.296121 1_555
Mn0 O1 2.312704 1_555
Mn1 O6 2.281331 1_545
Mn1 O8 2.283655 1_554
Mn1 O7 2.288021 1_545
Mn1 O9 2.288260 1_554
Mn1 O18 2.295520 1_555
Mn1 O3 2.316426 1_544
Mn2 O5 2.278567 1_455
Mn2 O10 2.279831 1_555
Mn2 O4 2.287894 1_555
Mn2 O16 2.295676 1_555
Mn2 O11 2.296442 1_455
Mn2 O0 2.312725 1_555
Mn3 O7 2.280992 1_545
Mn3 O9 2.284000 1_554
Mn3 O6 2.287628 1_645
Mn3 O8 2.288528 1_654
Mn3 O19 2.295690 1_555
Mn3 O2 2.316134 1_644
Cd0 O0 2.356383 1_555
Cd0 O3 2.356489 1_555
Cd0 O1 2.369414 1_555
Cd0 O2 2.369643 1_555
Cd0 O4 2.378213 1_555
Cd0 O6 2.378626 1_556
Cd1 O1 2.356423 1_555
Cd1 O2 2.356490 1_655
Cd1 O0 2.369394 1_655
Cd1 O3 2.369643 1_555
Cd1 O5 2.378191 1_555
Cd1 O7 2.378640 1_556
Cd2 O12 2.355349 1_555
Cd2 O15 2.356720 1_456
Cd2 O8 2.434339 1_555
Cd2 O11 2.441897 1_455
Cd2 O10 2.443521 1_555
Cd2 O9 2.457083 1_455
Cd3 O13 2.355335 1_555
Cd3 O14 2.356756 1_556
Cd3 O9 2.434373 1_555
Cd3 O10 2.441864 1_555
Cd3 O11 2.443453 1_555
Cd3 O8 2.457111 1_555
Cd4 O18 2.362502 1_565
Cd4 O6 2.377204 1_555
Cd4 O19 2.378353 1_465
Cd4 O5 2.399959 1_455
Cd4 O2 2.425260 1_555
Cd4 O4 2.438319 1_555
Cd5 O19 2.362502 1_565
Cd5 O7 2.377230 1_555
Cd5 O18 2.378436 1_565
Cd5 O4 2.400036 1_555
Cd5 O3 2.425194 1_555
Cd5 O5 2.438226 1_555
Cd6 O16 2.365697 1_555
Cd6 O17 2.375660 1_555
Cd6 O4 2.376285 1_555
Cd6 O7 2.407474 1_555
Cd6 O6 2.428040 1_555
Cd6 O1 2.430973 1_554
Cd7 O17 2.365679 1_555
Cd7 O16 2.375647 1_655
Cd7 O5 2.376274 1_555
Cd7 O6 2.407425 1_655
Cd7 O7 2.428037 1_555
Cd7 O0 2.430969 1_654
Cd8 O2 2.355544 1_545
Cd8 O3 2.360015 1_545
Cd8 O8 2.375423 1_555
Cd8 O13 2.377517 1_555
Cd8 O12 2.378671 1_555
Cd8 O18 2.435745 1_555
Cd9 O3 2.355531 1_545
Cd9 O2 2.359993 1_645
Cd9 O9 2.375423 1_555
Cd9 O12 2.377489 1_655
Cd9 O13 2.378718 1_555
Cd9 O19 2.435787 1_555
Cd10 O0 2.355096 1_555
Cd10 O1 2.357093 1_555
Cd10 O14 2.372735 1_556
Cd10 O10 2.378539 1_555
Cd10 O15 2.381412 1_456
Cd10 O16 2.434818 1_556
Cd11 O1 2.355101 1_555
Cd11 O0 2.357156 1_655
Cd11 O15 2.372707 1_556
Cd11 O11 2.378516 1_555
Cd11 O14 2.381440 1_556
Cd11 O17 2.434806 1_556
Cd12 O10 2.358846 1_555
Cd12 O16 2.367286 1_555
Cd12 O13 2.377067 1_555
Cd12 O17 2.379515 1_555
Cd12 O14 2.393163 1_555
Cd12 O12 2.394312 1_555
Cd13 O11 2.358841 1_555
Cd13 O17 2.367275 1_555
Cd13 O12 2.377089 1_655
Cd13 O16 2.379528 1_655
Cd13 O15 2.393187 1_555
Cd13 O13 2.394283 1_555
Cd14 O8 2.361046 1_554
Cd14 O18 2.365670 1_555
Cd14 O15 2.376505 1_455
Cd14 O19 2.378857 1_455
Cd14 O14 2.391777 1_555
Cd14 O12 2.392763 1_555
Cd15 O9 2.361071 1_554
Cd15 O19 2.365684 1_555
Cd15 O14 2.376520 1_555
Cd15 O18 2.378919 1_555
Cd15 O15 2.391754 1_555
Cd15 O13 2.392758 1_555
