# generated using pymatgen
data_LiSiBiO4
_symmetry_space_group_name_H-M   'P 1'
_cell_length_a   5.96667900
_cell_length_b   8.94894800
_cell_length_c   21.12076400
_cell_angle_alpha   90.00000000
_cell_angle_beta   90.00000000
_cell_angle_gamma   90.00000000
_symmetry_Int_Tables_number   1
_chemical_formula_structural   LiSiBiO4
_chemical_formula_sum   'Li12 Si12 Bi12 O48'
_cell_volume   1127.75375635
_cell_formula_units_Z   12
loop_
 _symmetry_equiv_pos_site_id
 _symmetry_equiv_pos_as_xyz
  1  'x, y, z'
loop_
 _atom_site_type_symbol
 _atom_site_label
 _atom_site_symmetry_multiplicity
 _atom_site_fract_x
 _atom_site_fract_y
 _atom_site_fract_z
 _atom_site_occupancy
  Li  Li0  1  0.91847500  0.23900200  0.99462100  1
  Li  Li1  1  0.41847500  0.76099800  0.00537900  1
  Li  Li2  1  0.60862000  0.74516900  0.16990700  1
  Li  Li3  1  0.92986300  0.25861000  0.16212900  1
  Li  Li4  1  0.42986300  0.75861000  0.33787100  1
  Li  Li5  1  0.10862000  0.24516900  0.33009300  1
  Li  Li6  1  0.91847500  0.26099800  0.49462100  1
  Li  Li7  1  0.41847500  0.73900200  0.50537900  1
  Li  Li8  1  0.60862000  0.75483100  0.66990700  1
  Li  Li9  1  0.92986300  0.24139000  0.66212900  1
  Li  Li10  1  0.42986300  0.74139000  0.83787100  1
  Li  Li11  1  0.10862000  0.25483100  0.83009300  1
  Si  Si0  1  0.97690700  0.94057600  0.07905600  1
  Si  Si1  1  0.54092700  0.44475300  0.08671700  1
  Si  Si2  1  0.00926700  0.55314400  0.24833500  1
  Si  Si3  1  0.50926700  0.05314400  0.25166500  1
  Si  Si4  1  0.04092700  0.94475300  0.41328300  1
  Si  Si5  1  0.47690700  0.44057600  0.42094400  1
  Si  Si6  1  0.97690700  0.55942400  0.57905600  1
  Si  Si7  1  0.54092700  0.05524700  0.58671700  1
  Si  Si8  1  0.00926700  0.94685600  0.74833500  1
  Si  Si9  1  0.50926700  0.44685600  0.75166500  1
  Si  Si10  1  0.04092700  0.55524700  0.91328300  1
  Si  Si11  1  0.47690700  0.05942400  0.92094400  1
  Bi  Bi0  1  0.05725600  0.51484000  0.07687000  1
  Bi  Bi1  1  0.44704700  0.02241900  0.09360400  1
  Bi  Bi2  1  0.02873300  0.98110500  0.24133500  1
  Bi  Bi3  1  0.52873300  0.48110500  0.25866500  1
  Bi  Bi4  1  0.94704700  0.52241900  0.40639600  1
  Bi  Bi5  1  0.55725600  0.01484000  0.42313000  1
  Bi  Bi6  1  0.05725600  0.98516000  0.57687000  1
  Bi  Bi7  1  0.44704700  0.47758100  0.59360400  1
  Bi  Bi8  1  0.02873300  0.51889500  0.74133500  1
  Bi  Bi9  1  0.52873300  0.01889500  0.75866500  1
  Bi  Bi10  1  0.94704700  0.97758100  0.90639600  1
  Bi  Bi11  1  0.55725600  0.48516000  0.92313000  1
  O  O0  1  0.45888100  0.96749600  0.98728000  1
  O  O1  1  0.95888100  0.03250400  0.01272000  1
  O  O2  1  0.52927100  0.56529900  0.02770900  1
  O  O3  1  0.77590100  0.34457900  0.08116400  1
  O  O4  1  0.31442100  0.33798600  0.08033700  1
  O  O5  1  0.20465900  0.83093200  0.07821700  1
  O  O6  1  0.74390200  0.85515100  0.09833200  1
  O  O7  1  0.04732900  0.06479700  0.13475900  1
  O  O8  1  0.52984000  0.53955900  0.15266500  1
  O  O9  1  0.03739600  0.45999900  0.18257800  1
  O  O10  1  0.44276400  0.92753000  0.19690600  1
  O  O11  1  0.28437600  0.16448900  0.25329400  1
  O  O12  1  0.74016600  0.14422000  0.23137900  1
  O  O13  1  0.78437600  0.66448900  0.24670600  1
  O  O14  1  0.24016600  0.64422000  0.26862100  1
  O  O15  1  0.94276400  0.42753000  0.30309400  1
  O  O16  1  0.53739600  0.95999900  0.31742200  1
  O  O17  1  0.02984000  0.03955900  0.34733500  1
  O  O18  1  0.54732900  0.56479700  0.36524100  1
  O  O19  1  0.24390200  0.35515100  0.40166800  1
  O  O20  1  0.70465900  0.33093200  0.42178300  1
  O  O21  1  0.81442100  0.83798600  0.41966300  1
  O  O22  1  0.27590100  0.84457900  0.41883600  1
  O  O23  1  0.02927100  0.06529900  0.47229100  1
  O  O24  1  0.45888100  0.53250400  0.48728000  1
  O  O25  1  0.95888100  0.46749600  0.51272000  1
  O  O26  1  0.52927100  0.93470100  0.52770900  1
  O  O27  1  0.77590100  0.15542100  0.58116400  1
  O  O28  1  0.31442100  0.16201400  0.58033700  1
  O  O29  1  0.20465900  0.66906800  0.57821700  1
  O  O30  1  0.74390200  0.64484900  0.59833200  1
  O  O31  1  0.04732900  0.43520300  0.63475900  1
  O  O32  1  0.52984000  0.96044100  0.65266500  1
  O  O33  1  0.03739600  0.04000100  0.68257800  1
  O  O34  1  0.44276400  0.57247000  0.69690600  1
  O  O35  1  0.74016600  0.35578000  0.73137900  1
  O  O36  1  0.28437600  0.33551100  0.75329400  1
  O  O37  1  0.24016600  0.85578000  0.76862100  1
  O  O38  1  0.78437600  0.83551100  0.74670600  1
  O  O39  1  0.94276400  0.07247000  0.80309400  1
  O  O40  1  0.53739600  0.54000100  0.81742200  1
  O  O41  1  0.02984000  0.46044100  0.84733500  1
  O  O42  1  0.54732900  0.93520300  0.86524100  1
  O  O43  1  0.24390200  0.14484900  0.90166800  1
  O  O44  1  0.70465900  0.16906800  0.92178300  1
  O  O45  1  0.81442100  0.66201400  0.91966300  1
  O  O46  1  0.27590100  0.65542100  0.91883600  1
  O  O47  1  0.02927100  0.43470100  0.97229100  1
loop_
_geom_bond_atom_site_label_1
_geom_bond_atom_site_label_2
_geom_bond_distance
_geom_bond_site_symmetry_2
Li0 O1 1.902402 1_556
Li0 O47 1.930419 1_655
Li0 O44 2.094259 1_555
Li0 O3 2.226518 1_556
Li1 O0 1.902402 1_554
Li1 O2 1.930419 1_555
Li1 O5 2.094259 1_555
Li1 O46 2.226518 1_554
Li2 O8 1.933686 1_555
Li2 O6 1.976243 1_555
Li2 O10 1.991915 1_555
Li2 O13 2.062055 1_555
Li3 O7 1.957965 1_655
Li3 O9 1.961174 1_655
Li3 O3 2.088066 1_555
Li3 O12 2.113823 1_555
Li4 O18 1.957965 1_555
Li4 O16 1.961174 1_555
Li4 O22 2.088066 1_555
Li4 O14 2.113823 1_555
Li5 O17 1.933686 1_555
Li5 O19 1.976243 1_555
Li5 O15 1.991915 1_455
Li5 O11 2.062055 1_555
Li6 O25 1.902402 1_555
Li6 O23 1.930419 1_655
Li6 O20 2.094259 1_555
Li6 O27 2.226518 1_555
Li7 O24 1.902402 1_555
Li7 O26 1.930419 1_555
Li7 O29 2.094259 1_555
Li7 O22 2.226518 1_555
Li8 O32 1.933686 1_555
Li8 O30 1.976243 1_555
Li8 O34 1.991915 1_555
Li8 O38 2.062055 1_555
Li9 O31 1.957965 1_655
Li9 O33 1.961174 1_655
Li9 O27 2.088066 1_555
Li9 O35 2.113823 1_555
Li10 O42 1.957965 1_555
Li10 O40 1.961174 1_555
Li10 O46 2.088066 1_555
Li10 O37 2.113823 1_555
Li11 O41 1.933686 1_555
Li11 O43 1.976243 1_555
Li11 O39 1.991915 1_455
Li11 O36 2.062055 1_555
Bi0 O4 2.205587 1_555
Bi0 O3 2.268915 1_455
Bi0 O9 2.289006 1_555
Bi0 O47 2.328292 1_554
Bi1 O5 2.265769 1_545
Bi1 O0 2.299887 1_544
Bi1 O6 2.321182 1_545
Bi1 O10 2.341377 1_545
Bi1 O7 2.566622 1_555
Bi2 O11 2.254695 1_565
Bi2 O12 2.267049 1_465
Bi2 O17 2.299110 1_565
Bi2 O7 2.374889 1_565
Bi2 O10 2.685747 1_555
Bi3 O13 2.254695 1_555
Bi3 O14 2.267049 1_555
Bi3 O8 2.299110 1_555
Bi3 O18 2.374889 1_555
Bi3 O15 2.685747 1_555
Bi4 O20 2.265769 1_555
Bi4 O25 2.299887 1_555
Bi4 O19 2.321182 1_655
Bi4 O15 2.341377 1_555
Bi4 O18 2.566622 1_555
Bi5 O21 2.205587 1_545
Bi5 O22 2.268915 1_545
Bi5 O16 2.289006 1_545
Bi5 O26 2.328292 1_545
Bi6 O28 2.205587 1_565
Bi6 O27 2.268915 1_465
Bi6 O33 2.289006 1_565
Bi6 O23 2.328292 1_565
Bi7 O29 2.265769 1_555
Bi7 O24 2.299887 1_555
Bi7 O30 2.321182 1_555
Bi7 O34 2.341377 1_555
Bi7 O31 2.566622 1_555
Bi8 O36 2.254695 1_555
Bi8 O35 2.267049 1_455
Bi8 O41 2.299110 1_555
Bi8 O31 2.374889 1_555
Bi8 O34 2.685747 1_555
Bi9 O38 2.254695 1_545
Bi9 O37 2.267049 1_545
Bi9 O32 2.299110 1_545
Bi9 O42 2.374889 1_545
Bi9 O39 2.685747 1_555
Bi10 O44 2.265769 1_565
Bi10 O1 2.299887 1_566
Bi10 O43 2.321182 1_665
Bi10 O39 2.341377 1_565
Bi10 O42 2.566622 1_555
Bi11 O45 2.205587 1_555
Bi11 O46 2.268915 1_555
Bi11 O40 2.289006 1_555
Bi11 O2 2.328292 1_556
O0 Si11 1.628289 1_565
O1 Si0 1.628289 1_545
O2 Si1 1.649790 1_555
O3 Si1 1.668240 1_555
O4 Si1 1.660593 1_555
O5 Si0 1.676227 1_455
O6 Si0 1.637985 1_555
O7 Si0 1.672257 1_445
O8 Si1 1.632261 1_555
O9 Si2 1.628449 1_555
O10 Si3 1.660932 1_565
O11 Si3 1.671707 1_555
O12 Si3 1.657080 1_555
O13 Si2 1.671707 1_655
O14 Si2 1.657080 1_555
O15 Si2 1.660932 1_655
O16 Si3 1.628449 1_565
O17 Si4 1.632261 1_545
O18 Si5 1.672257 1_555
O19 Si5 1.637985 1_555
O20 Si5 1.676227 1_555
O21 Si4 1.660593 1_655
O22 Si4 1.668240 1_555
O23 Si4 1.649790 1_545
O24 Si5 1.628289 1_555
O25 Si6 1.628289 1_555
O26 Si7 1.649790 1_565
O27 Si7 1.668240 1_555
O28 Si7 1.660593 1_555
O29 Si6 1.676227 1_455
O30 Si6 1.637985 1_555
O31 Si6 1.672257 1_455
O32 Si7 1.632261 1_565
O33 Si8 1.628449 1_545
O34 Si9 1.660932 1_555
O35 Si9 1.657080 1_555
O36 Si9 1.671707 1_555
O37 Si8 1.657080 1_555
O38 Si8 1.671707 1_655
O39 Si8 1.660932 1_645
O40 Si9 1.628449 1_555
O41 Si10 1.632261 1_555
O42 Si11 1.672257 1_565
O43 Si11 1.637985 1_555
O44 Si11 1.676227 1_555
O45 Si10 1.660593 1_655
O46 Si10 1.668240 1_555
O47 Si10 1.649790 1_555
