# generated using pymatgen
data_Li2V(Si2O5)3
_symmetry_space_group_name_H-M   'P 1'
_cell_length_a   11.06981388
_cell_length_b   11.06981388
_cell_length_c   10.01758900
_cell_angle_alpha   90.00000000
_cell_angle_beta   90.00000000
_cell_angle_gamma   99.56172733
_symmetry_Int_Tables_number   1
_chemical_formula_structural   Li2V(Si2O5)3
_chemical_formula_sum   'Li8 V4 Si24 O60'
_cell_volume   1210.50889265
_cell_formula_units_Z   4
loop_
 _symmetry_equiv_pos_site_id
 _symmetry_equiv_pos_as_xyz
  1  'x, y, z'
loop_
 _atom_site_type_symbol
 _atom_site_label
 _atom_site_symmetry_multiplicity
 _atom_site_fract_x
 _atom_site_fract_y
 _atom_site_fract_z
 _atom_site_occupancy
  Li  Li0  1  0.48005200  0.01994800  0.25000000  1
  Li  Li1  1  0.24144600  0.24144600  0.00000000  1
  Li  Li2  1  0.25855400  0.25855400  0.50000000  1
  Li  Li3  1  0.98005200  0.51994800  0.25000000  1
  Li  Li4  1  0.01994800  0.48005200  0.75000000  1
  Li  Li5  1  0.74144600  0.74144600  0.50000000  1
  Li  Li6  1  0.75855400  0.75855400  0.00000000  1
  Li  Li7  1  0.51994800  0.98005200  0.75000000  1
  V  V0  1  0.34200600  0.15799400  0.75000000  1
  V  V1  1  0.15799400  0.34200600  0.25000000  1
  V  V2  1  0.84200600  0.65799400  0.75000000  1
  V  V3  1  0.65799400  0.84200600  0.25000000  1
  Si  Si0  1  0.76307300  0.02155400  0.51157300  1
  Si  Si1  1  0.70619700  0.07807800  0.04682500  1
  Si  Si2  1  0.18170400  0.04375500  0.19480600  1
  Si  Si3  1  0.97844600  0.23692700  0.51157300  1
  Si  Si4  1  0.57807800  0.20619700  0.54682500  1
  Si  Si5  1  0.92192200  0.29380300  0.04682500  1
  Si  Si6  1  0.52155400  0.26307300  0.01157300  1
  Si  Si7  1  0.04375500  0.18170400  0.80519400  1
  Si  Si8  1  0.45624500  0.31829600  0.30519400  1
  Si  Si9  1  0.79380300  0.42192200  0.54682500  1
  Si  Si10  1  0.73692700  0.47844600  0.01157300  1
  Si  Si11  1  0.31829600  0.45624500  0.69480600  1
  Si  Si12  1  0.68170400  0.54375500  0.30519400  1
  Si  Si13  1  0.26307300  0.52155400  0.98842700  1
  Si  Si14  1  0.20619700  0.57807800  0.45317500  1
  Si  Si15  1  0.54375500  0.68170400  0.69480600  1
  Si  Si16  1  0.95624500  0.81829600  0.19480600  1
  Si  Si17  1  0.47844600  0.73692700  0.98842700  1
  Si  Si18  1  0.07807800  0.70619700  0.95317500  1
  Si  Si19  1  0.42192200  0.79380300  0.45317500  1
  Si  Si20  1  0.02155400  0.76307300  0.48842700  1
  Si  Si21  1  0.81829600  0.95624500  0.80519400  1
  Si  Si22  1  0.29380300  0.92192200  0.95317500  1
  Si  Si23  1  0.23692700  0.97844600  0.48842700  1
  O  O0  1  0.64236700  0.00347900  0.17442200  1
  O  O1  1  0.94245300  0.05754700  0.80646300  1
  O  O2  1  0.90169900  0.09830100  0.49729000  1
  O  O3  1  0.27629600  0.01326400  0.07772500  1
  O  O4  1  0.25812200  0.03145600  0.33444600  1
  O  O5  1  0.66357200  0.11169500  0.48617000  1
  O  O6  1  0.83674100  0.16325900  0.08537600  1
  O  O7  1  0.50347900  0.14236700  0.67442200  1
  O  O8  1  0.25813100  0.09302600  0.59032400  1
  O  O9  1  0.61169500  0.16357200  0.98617000  1
  O  O10  1  0.18024800  0.15602300  0.83391800  1
  O  O11  1  0.48673600  0.22370400  0.42227500  1
  O  O12  1  0.15602300  0.18024800  0.16608200  1
  O  O13  1  0.46854400  0.24187800  0.16555400  1
  O  O14  1  0.40697400  0.24186900  0.90967600  1
  O  O15  1  0.88830500  0.33642800  0.48617000  1
  O  O16  1  0.99652100  0.35763300  0.17442200  1
  O  O17  1  0.66325900  0.33674100  0.58537600  1
  O  O18  1  0.09302600  0.25813100  0.40967600  1
  O  O19  1  0.83642800  0.38830500  0.98617000  1
  O  O20  1  0.03145600  0.25812200  0.66555400  1
  O  O21  1  0.34397700  0.31975200  0.66608200  1
  O  O22  1  0.01326400  0.27629600  0.92227500  1
  O  O23  1  0.31975200  0.34397700  0.33391800  1
  O  O24  1  0.59830100  0.40169900  0.99729000  1
  O  O25  1  0.55754700  0.44245300  0.30646300  1
  O  O26  1  0.85763300  0.49652100  0.67442200  1
  O  O27  1  0.24186900  0.40697400  0.09032400  1
  O  O28  1  0.77629600  0.51326400  0.42227500  1
  O  O29  1  0.75812200  0.53145600  0.16555400  1
  O  O30  1  0.24187800  0.46854400  0.83444600  1
  O  O31  1  0.22370400  0.48673600  0.57772500  1
  O  O32  1  0.75813100  0.59302600  0.90967600  1
  O  O33  1  0.14236700  0.50347900  0.32557800  1
  O  O34  1  0.44245300  0.55754700  0.69353700  1
  O  O35  1  0.40169900  0.59830100  0.00271000  1
  O  O36  1  0.68024800  0.65602300  0.66608200  1
  O  O37  1  0.98673600  0.72370400  0.07772500  1
  O  O38  1  0.65602300  0.68024800  0.33391800  1
  O  O39  1  0.96854400  0.74187800  0.33444600  1
  O  O40  1  0.16357200  0.61169500  0.01383000  1
  O  O41  1  0.90697400  0.74186900  0.59032400  1
  O  O42  1  0.33674100  0.66325900  0.41462400  1
  O  O43  1  0.00347900  0.64236700  0.82557800  1
  O  O44  1  0.11169500  0.66357200  0.51383000  1
  O  O45  1  0.59302600  0.75813100  0.09032400  1
  O  O46  1  0.53145600  0.75812200  0.83444600  1
  O  O47  1  0.84397700  0.81975200  0.83391800  1
  O  O48  1  0.51326400  0.77629600  0.57772500  1
  O  O49  1  0.81975200  0.84397700  0.16608200  1
  O  O50  1  0.38830500  0.83642800  0.01383000  1
  O  O51  1  0.74186900  0.90697400  0.40967600  1
  O  O52  1  0.49652100  0.85763300  0.32557800  1
  O  O53  1  0.16325900  0.83674100  0.91462400  1
  O  O54  1  0.33642800  0.88830500  0.51383000  1
  O  O55  1  0.74187800  0.96854400  0.66555400  1
  O  O56  1  0.72370400  0.98673600  0.92227500  1
  O  O57  1  0.09830100  0.90169900  0.50271000  1
  O  O58  1  0.05754700  0.94245300  0.19353700  1
  O  O59  1  0.35763300  0.99652100  0.82557800  1
loop_
_geom_bond_atom_site_label_1
_geom_bond_atom_site_label_2
_geom_bond_distance
_geom_bond_site_symmetry_2
Li0 O52 1.985889 1_545
Li0 O0 1.985889 1_555
Li1 O12 1.976953 1_555
Li1 O10 1.976953 1_554
Li1 O27 2.042901 1_555
Li1 O14 2.042901 1_554
Li2 O21 1.976953 1_555
Li2 O23 1.976953 1_555
Li2 O8 2.042901 1_555
Li2 O18 2.042901 1_555
Li3 O16 1.985889 1_555
Li3 O33 1.985889 1_655
Li4 O43 1.985889 1_555
Li4 O26 1.985889 1_455
Li5 O36 1.976953 1_555
Li5 O38 1.976953 1_555
Li5 O41 2.042901 1_555
Li5 O51 2.042901 1_555
Li6 O49 1.976953 1_555
Li6 O47 1.976953 1_554
Li6 O45 2.042901 1_555
Li6 O32 2.042901 1_554
Li7 O59 1.985889 1_555
Li7 O7 1.985889 1_565
O0 Si1 1.619008 1_555
O0 V3 1.975079 1_545
O1 Si21 1.623150 1_545
O1 Si7 1.623150 1_655
O2 Si0 1.632180 1_555
O2 Si3 1.632180 1_555
O3 Si22 1.637618 1_544
O3 Si2 1.644207 1_555
O4 Si2 1.652029 1_555
O4 Si23 1.653184 1_545
O5 Si0 1.624438 1_555
O5 Si4 1.639560 1_555
O6 Si5 1.635202 1_555
O6 Si1 1.635202 1_555
O7 Si4 1.619008 1_555
O7 V0 1.975079 1_555
O8 Si23 1.614599 1_545
O8 V0 1.927714 1_555
O9 Si6 1.624438 1_556
O9 Si1 1.639560 1_556
O10 Si7 1.609128 1_555
O10 V0 1.974983 1_555
O11 Si4 1.637618 1_555
O11 Si8 1.644207 1_555
O12 Si2 1.609128 1_555
O12 V1 1.974983 1_555
O13 Si8 1.652029 1_555
O13 Si6 1.653184 1_555
O14 Si6 1.614599 1_556
O14 V0 1.927714 1_555
O15 Si3 1.624438 1_555
O15 Si9 1.639560 1_555
O16 Si5 1.619008 1_555
O16 V1 1.975079 1_655
O17 Si4 1.635202 1_555
O17 Si9 1.635202 1_555
O18 Si3 1.614599 1_455
O18 V1 1.927714 1_555
O19 Si10 1.624438 1_556
O19 Si5 1.639560 1_556
O20 Si7 1.652029 1_555
O20 Si3 1.653184 1_455
O21 Si11 1.609128 1_555
O21 V0 1.974983 1_555
O22 Si5 1.637618 1_456
O22 Si7 1.644207 1_555
O23 Si8 1.609128 1_555
O23 V1 1.974983 1_555
O24 Si6 1.632180 1_556
O24 Si10 1.632180 1_556
O25 Si12 1.623150 1_555
O25 Si8 1.623150 1_555
O26 Si9 1.619008 1_555
O26 V2 1.975079 1_555
O27 Si13 1.614599 1_554
O27 V1 1.927714 1_555
O28 Si9 1.637618 1_555
O28 Si12 1.644207 1_555
O29 Si12 1.652029 1_555
O29 Si10 1.653184 1_555
O30 Si11 1.652029 1_555
O30 Si13 1.653184 1_555
O31 Si14 1.637618 1_555
O31 Si11 1.644207 1_555
O32 Si10 1.614599 1_556
O32 V2 1.927714 1_555
O33 Si14 1.619008 1_555
O33 V1 1.975079 1_555
O34 Si15 1.623150 1_555
O34 Si11 1.623150 1_555
O35 Si13 1.632180 1_554
O35 Si17 1.632180 1_554
O36 Si15 1.609128 1_555
O36 V2 1.974983 1_555
O37 Si18 1.637618 1_654
O37 Si16 1.644207 1_555
O38 Si12 1.609128 1_555
O38 V3 1.974983 1_555
O39 Si16 1.652029 1_555
O39 Si20 1.653184 1_655
O40 Si13 1.624438 1_554
O40 Si18 1.639560 1_554
O41 Si20 1.614599 1_655
O41 V2 1.927714 1_555
O42 Si14 1.635202 1_555
O42 Si19 1.635202 1_555
O43 Si18 1.619008 1_555
O43 V2 1.975079 1_455
O44 Si20 1.624438 1_555
O44 Si14 1.639560 1_555
O45 Si17 1.614599 1_554
O45 V3 1.927714 1_555
O46 Si15 1.652029 1_555
O46 Si17 1.653184 1_555
O47 Si21 1.609128 1_555
O47 V2 1.974983 1_555
O48 Si19 1.637618 1_555
O48 Si15 1.644207 1_555
O49 Si16 1.609128 1_555
O49 V3 1.974983 1_555
O50 Si17 1.624438 1_554
O50 Si22 1.639560 1_554
O51 Si0 1.614599 1_565
O51 V3 1.927714 1_555
O52 Si19 1.619008 1_555
O52 V3 1.975079 1_555
O53 Si22 1.635202 1_555
O53 Si18 1.635202 1_555
O54 Si23 1.624438 1_555
O54 Si19 1.639560 1_555
O55 Si21 1.652029 1_555
O55 Si0 1.653184 1_565
O56 Si1 1.637618 1_566
O56 Si21 1.644207 1_555
O57 Si20 1.632180 1_555
O57 Si23 1.632180 1_555
O58 Si16 1.623150 1_455
O58 Si2 1.623150 1_565
O59 Si22 1.619008 1_555
O59 V0 1.975079 1_565
