# generated using pymatgen
data_Li2V3CrO8
_symmetry_space_group_name_H-M   'P 1'
_cell_length_a   5.90930216
_cell_length_b   5.90930216
_cell_length_c   9.62214577
_cell_angle_alpha   89.67341675
_cell_angle_beta   89.67341675
_cell_angle_gamma   120.28985167
_symmetry_Int_Tables_number   1
_chemical_formula_structural   Li2V3CrO8
_chemical_formula_sum   'Li4 V6 Cr2 O16'
_cell_volume   290.11527981
_cell_formula_units_Z   2
loop_
 _symmetry_equiv_pos_site_id
 _symmetry_equiv_pos_as_xyz
  1  'x, y, z'
loop_
 _atom_site_type_symbol
 _atom_site_label
 _atom_site_symmetry_multiplicity
 _atom_site_fract_x
 _atom_site_fract_y
 _atom_site_fract_z
 _atom_site_occupancy
  Li  Li0  1  0.66597200  0.33189800  0.89495300  1
  Li  Li1  1  0.99716800  0.99963100  0.99628300  1
  Li  Li2  1  0.99963100  0.99716800  0.49628300  1
  Li  Li3  1  0.33189800  0.66597200  0.39495300  1
  V  V0  1  0.34013600  0.16964300  0.20879500  1
  V  V1  1  0.82384600  0.65809300  0.21502300  1
  V  V2  1  0.82561700  0.16583000  0.21442400  1
  V  V3  1  0.16583000  0.82561700  0.71442400  1
  V  V4  1  0.16964300  0.34013600  0.70879500  1
  V  V5  1  0.65809300  0.82384600  0.71502300  1
  Cr  Cr0  1  0.66930700  0.33199400  0.48542400  1
  Cr  Cr1  1  0.33199400  0.66930700  0.98542400  1
  O  O0  1  0.32661600  0.15588700  0.60396700  1
  O  O1  1  0.52803100  0.48763500  0.33914000  1
  O  O2  1  0.68922200  0.34628300  0.09955900  1
  O  O3  1  0.98906600  0.99350900  0.31147700  1
  O  O4  1  0.99350900  0.98906600  0.81147700  1
  O  O5  1  0.83480200  0.66822400  0.60461900  1
  O  O6  1  0.52976300  0.03961800  0.33726300  1
  O  O7  1  0.96162300  0.48083100  0.33926900  1
  O  O8  1  0.15723100  0.83222300  0.10372500  1
  O  O9  1  0.83222300  0.15723100  0.60372500  1
  O  O10  1  0.03961800  0.52976300  0.83726300  1
  O  O11  1  0.48083100  0.96162300  0.83926900  1
  O  O12  1  0.34628300  0.68922200  0.59955900  1
  O  O13  1  0.15588700  0.32661600  0.10396700  1
  O  O14  1  0.48763500  0.52803100  0.83914000  1
  O  O15  1  0.66822400  0.83480200  0.10461900  1
loop_
_geom_bond_atom_site_label_1
_geom_bond_atom_site_label_2
_geom_bond_distance
_geom_bond_site_symmetry_2
Li0 O11 1.968987 1_545
Li0 O2 1.973647 1_556
Li0 O10 1.981121 1_655
Li0 O14 1.993432 1_555
Li1 O4 1.779553 1_555
Li1 O15 1.967046 1_556
Li1 O8 1.971159 1_656
Li1 O13 1.972981 1_666
Li2 O3 1.779553 1_555
Li2 O5 1.967046 1_555
Li2 O9 1.971159 1_565
Li2 O0 1.972981 1_665
Li3 O7 1.968987 1_455
Li3 O12 1.973647 1_555
Li3 O6 1.981121 1_565
Li3 O1 1.993432 1_555
Cr0 O7 2.039805 1_555
Cr0 O9 2.071502 1_555
Cr0 O1 2.072991 1_555
Cr0 O5 2.073208 1_555
Cr0 O6 2.074073 1_555
Cr0 O0 2.078271 1_555
Cr1 O11 2.039805 1_555
Cr1 O8 2.071502 1_556
Cr1 O14 2.072991 1_555
Cr1 O15 2.073208 1_556
Cr1 O10 2.074073 1_555
Cr1 O13 2.078271 1_556
O0 V3 1.983845 1_545
O0 V4 2.020879 1_555
O1 V1 1.919091 1_555
O1 V0 2.067597 1_555
O2 V1 1.953733 1_555
O2 V2 1.967748 1_555
O2 V0 2.059222 1_555
O3 V1 1.955098 1_555
O3 V2 1.957936 1_565
O3 V0 2.037185 1_665
O4 V5 1.955098 1_555
O4 V3 1.957936 1_655
O4 V4 2.037185 1_665
O5 V3 2.001835 1_655
O5 V5 2.007939 1_555
O6 V2 1.913349 1_555
O6 V0 2.060961 1_555
O7 V1 2.011586 1_555
O7 V2 2.020227 1_555
O8 V1 2.001338 1_455
O8 V0 2.006867 1_565
O9 V5 2.001338 1_545
O9 V4 2.006867 1_655
O10 V3 1.913349 1_555
O10 V4 2.060961 1_555
O11 V5 2.011586 1_555
O11 V3 2.020227 1_555
O12 V5 1.953733 1_555
O12 V3 1.967748 1_555
O12 V4 2.059222 1_555
O13 V2 1.983845 1_455
O13 V0 2.020879 1_555
O14 V5 1.919091 1_555
O14 V4 2.067597 1_555
O15 V2 2.001835 1_565
O15 V1 2.007939 1_555
