# generated using pymatgen
data_Li4MnSi2O7
_symmetry_space_group_name_H-M   'P 1'
_cell_length_a   5.49043000
_cell_length_b   13.48862349
_cell_length_c   8.16217261
_cell_angle_alpha   84.62701213
_cell_angle_beta   90.00036345
_cell_angle_gamma   90.00010166
_symmetry_Int_Tables_number   1
_chemical_formula_structural   Li4MnSi2O7
_chemical_formula_sum   'Li16 Mn4 Si8 O28'
_cell_volume   601.82104080
_cell_formula_units_Z   4
loop_
 _symmetry_equiv_pos_site_id
 _symmetry_equiv_pos_as_xyz
  1  'x, y, z'
loop_
 _atom_site_type_symbol
 _atom_site_label
 _atom_site_symmetry_multiplicity
 _atom_site_fract_x
 _atom_site_fract_y
 _atom_site_fract_z
 _atom_site_occupancy
  Li  Li0  1  0.15861400  0.42185600  0.87555600  1
  Li  Li1  1  0.65862800  0.92187700  0.87556000  1
  Li  Li2  1  0.84139000  0.42185500  0.37555700  1
  Li  Li3  1  0.34137700  0.92187400  0.37556100  1
  Li  Li4  1  0.17735900  0.29334300  0.59427800  1
  Li  Li5  1  0.67736300  0.79335700  0.59427300  1
  Li  Li6  1  0.82264900  0.29334200  0.09428400  1
  Li  Li7  1  0.32264000  0.79336000  0.09427500  1
  Li  Li8  1  0.35471900  0.22363500  0.94691200  1
  Li  Li9  1  0.85478000  0.72365300  0.94690500  1
  Li  Li10  1  0.64527400  0.22363600  0.44690500  1
  Li  Li11  1  0.14522000  0.72365300  0.44690400  1
  Li  Li12  1  0.69018700  0.49521200  0.02117500  1
  Li  Li13  1  0.19018400  0.99522300  0.02117600  1
  Li  Li14  1  0.30981900  0.49521400  0.52117800  1
  Li  Li15  1  0.80981300  0.99522200  0.52118600  1
  Mn  Mn0  1  0.33863700  0.64927500  0.79922500  1
  Mn  Mn1  1  0.66136300  0.64927300  0.29922300  1
  Mn  Mn2  1  0.83851100  0.14931700  0.79925100  1
  Mn  Mn3  1  0.16147900  0.14929400  0.29927300  1
  Si  Si0  1  0.67000000  0.36530500  0.73671100  1
  Si  Si1  1  0.17002100  0.86531300  0.73671900  1
  Si  Si2  1  0.32999900  0.36530500  0.23670900  1
  Si  Si3  1  0.82998100  0.86531400  0.23672000  1
  Si  Si4  1  0.33446700  0.07380800  0.67138000  1
  Si  Si5  1  0.83447400  0.57381900  0.67133200  1
  Si  Si6  1  0.66553200  0.07380700  0.17137600  1
  Si  Si7  1  0.16553400  0.57382100  0.17134800  1
  O  O0  1  0.68563600  0.47376500  0.60486000  1
  O  O1  1  0.18563500  0.97377000  0.60485900  1
  O  O2  1  0.31436100  0.47376700  0.10486000  1
  O  O3  1  0.81436500  0.97376900  0.10486000  1
  O  O4  1  0.81565600  0.38845400  0.90227500  1
  O  O5  1  0.31565900  0.88845700  0.90227700  1
  O  O6  1  0.18434600  0.38845400  0.40227400  1
  O  O7  1  0.68434200  0.88845700  0.40227800  1
  O  O8  1  0.38527700  0.33709300  0.77014300  1
  O  O9  1  0.88527200  0.83710100  0.77014400  1
  O  O10  1  0.61472300  0.33709300  0.27014400  1
  O  O11  1  0.11473000  0.83710000  0.27014400  1
  O  O12  1  0.81140900  0.27918400  0.64008500  1
  O  O13  1  0.31140600  0.77918200  0.64009200  1
  O  O14  1  0.18858900  0.27918200  0.14008800  1
  O  O15  1  0.68859200  0.77918200  0.14009100  1
  O  O16  1  0.31328700  0.16501200  0.52457800  1
  O  O17  1  0.81322000  0.66498900  0.52453900  1
  O  O18  1  0.68671300  0.16501000  0.02457500  1
  O  O19  1  0.18678100  0.66498900  0.02454200  1
  O  O20  1  0.19653100  0.10681200  0.83720100  1
  O  O21  1  0.69661900  0.60685000  0.83717400  1
  O  O22  1  0.80346700  0.10681200  0.33720000  1
  O  O23  1  0.30336400  0.60686100  0.33720100  1
  O  O24  1  0.62008100  0.04266600  0.70533000  1
  O  O25  1  0.12011100  0.54265700  0.70531300  1
  O  O26  1  0.37991800  0.04266600  0.20533000  1
  O  O27  1  0.87989100  0.54265800  0.20531200  1
loop_
_geom_bond_atom_site_label_1
_geom_bond_atom_site_label_2
_geom_bond_distance
_geom_bond_site_symmetry_2
Li0 O4 1.943655 1_455
Li0 O8 1.944345 1_555
Li0 O25 2.050996 1_555
Li0 O2 2.229324 1_556
Li1 O5 1.943766 1_555
Li1 O9 1.944401 1_555
Li1 O24 2.050838 1_565
Li1 O3 2.229174 1_556
Li2 O6 1.943639 1_655
Li2 O10 1.944341 1_555
Li2 O27 2.051025 1_555
Li2 O0 2.229336 1_555
Li3 O7 1.943734 1_555
Li3 O11 1.944389 1_555
Li3 O26 2.050870 1_565
Li3 O1 2.229201 1_555
Li4 O6 1.930502 1_555
Li4 O8 1.967363 1_555
Li4 O16 2.015303 1_555
Li4 O12 2.049360 1_455
Li5 O7 1.930358 1_555
Li5 O9 1.967341 1_555
Li5 O17 2.015701 1_555
Li5 O13 2.049431 1_555
Li6 O4 1.930541 1_554
Li6 O10 1.967374 1_555
Li6 O18 2.015353 1_555
Li6 O14 2.049299 1_655
Li7 O5 1.930353 1_554
Li7 O11 1.967324 1_555
Li7 O19 2.015733 1_555
Li7 O15 2.049399 1_555
Li8 O8 2.009591 1_555
Li8 O14 2.025022 1_556
Li8 O18 2.062964 1_556
Li8 O20 2.074500 1_555
Li9 O9 2.009424 1_555
Li9 O15 2.025124 1_556
Li9 O19 2.063127 1_656
Li9 O21 2.074304 1_555
Li10 O10 2.009535 1_555
Li10 O12 2.025057 1_555
Li10 O16 2.062953 1_555
Li10 O22 2.074504 1_555
Li11 O11 2.009408 1_555
Li11 O13 2.025122 1_555
Li11 O17 2.063123 1_455
Li11 O23 2.074038 1_555
Li12 O4 1.936951 1_554
Li12 O27 1.983283 1_555
Li12 O21 2.025048 1_554
Li12 O2 2.184275 1_555
Li13 O5 1.937043 1_554
Li13 O26 1.983463 1_565
Li13 O20 2.024452 1_564
Li13 O3 2.184249 1_455
Li14 O6 1.936992 1_555
Li14 O25 1.983277 1_555
Li14 O23 2.025000 1_555
Li14 O0 2.184219 1_555
Li15 O7 1.937060 1_555
Li15 O24 1.983410 1_565
Li15 O22 2.024521 1_565
Li15 O1 2.184227 1_655
Mn0 O19 2.048243 1_556
Mn0 O21 2.062356 1_555
Mn0 O25 2.074062 1_555
Mn0 O13 2.086532 1_555
Mn1 O17 2.048233 1_555
Mn1 O23 2.062430 1_555
Mn1 O27 2.074044 1_555
Mn1 O15 2.086549 1_555
Mn2 O18 2.048112 1_556
Mn2 O20 2.062840 1_655
Mn2 O24 2.074114 1_555
Mn2 O12 2.086207 1_555
Mn3 O16 2.048047 1_555
Mn3 O22 2.062695 1_455
Mn3 O26 2.074003 1_555
Mn3 O14 2.086516 1_555
O0 Si5 1.708998 1_555
O0 Si0 1.735223 1_555
O1 Si4 1.708962 1_565
O1 Si1 1.735225 1_555
O2 Si7 1.709026 1_555
O2 Si2 1.735235 1_555
O3 Si6 1.708954 1_565
O3 Si3 1.735204 1_555
O4 Si0 1.625494 1_555
O5 Si1 1.625385 1_555
O6 Si2 1.625502 1_555
O7 Si3 1.625393 1_555
O8 Si0 1.625911 1_555
O9 Si1 1.626040 1_655
O10 Si2 1.625918 1_555
O11 Si3 1.626042 1_455
O12 Si0 1.657056 1_555
O13 Si1 1.657099 1_555
O14 Si2 1.657050 1_555
O15 Si3 1.657121 1_555
O16 Si4 1.639095 1_555
O17 Si5 1.638762 1_555
O18 Si6 1.639081 1_555
O19 Si7 1.638812 1_555
O20 Si4 1.648162 1_555
O21 Si5 1.648229 1_555
O22 Si6 1.648176 1_555
O23 Si7 1.648276 1_555
O24 Si4 1.640278 1_555
O25 Si5 1.640500 1_455
O26 Si6 1.640282 1_555
O27 Si7 1.640517 1_655
