# generated using pymatgen
data_VP2H8(NO4)2
_symmetry_space_group_name_H-M   'P 1'
_cell_length_a   8.42574900
_cell_length_b   8.42574900
_cell_length_c   5.81121800
_cell_angle_alpha   90.00000000
_cell_angle_beta   90.00000000
_cell_angle_gamma   90.00000000
_symmetry_Int_Tables_number   1
_chemical_formula_structural   VP2H8(NO4)2
_chemical_formula_sum   'V2 P4 H16 N4 O16'
_cell_volume   412.55723026
_cell_formula_units_Z   2
loop_
 _symmetry_equiv_pos_site_id
 _symmetry_equiv_pos_as_xyz
  1  'x, y, z'
loop_
 _atom_site_type_symbol
 _atom_site_label
 _atom_site_symmetry_multiplicity
 _atom_site_fract_x
 _atom_site_fract_y
 _atom_site_fract_z
 _atom_site_occupancy
  V  V0  1  0.50000000  0.50000000  0.09692600  1
  V  V1  1  0.00000000  0.00000000  0.09692600  1
  P  P0  1  0.87178700  0.62821300  0.11197400  1
  P  P1  1  0.37178700  0.87178700  0.11197400  1
  P  P2  1  0.62821300  0.12821300  0.11197400  1
  P  P3  1  0.12821300  0.37178700  0.11197400  1
  H  H0  1  0.09807200  0.59807200  0.69433000  1
  H  H1  1  0.24912300  0.60837600  0.50914900  1
  H  H2  1  0.23733400  0.73733400  0.73077200  1
  H  H3  1  0.10837600  0.74912300  0.50914900  1
  H  H4  1  0.60837600  0.75087700  0.50914900  1
  H  H5  1  0.73733400  0.76266600  0.73077200  1
  H  H6  1  0.74912300  0.89162400  0.50914900  1
  H  H7  1  0.59807200  0.90192800  0.69433000  1
  H  H8  1  0.40192800  0.09807200  0.69433000  1
  H  H9  1  0.25087700  0.10837600  0.50914900  1
  H  H10  1  0.26266600  0.23733400  0.73077200  1
  H  H11  1  0.39162400  0.24912300  0.50914900  1
  H  H12  1  0.89162400  0.25087700  0.50914900  1
  H  H13  1  0.76266600  0.26266600  0.73077200  1
  H  H14  1  0.75087700  0.39162400  0.50914900  1
  H  H15  1  0.90192800  0.40192800  0.69433000  1
  N  N0  1  0.17375700  0.67375700  0.61051300  1
  N  N1  1  0.67375700  0.82624300  0.61051300  1
  N  N2  1  0.32624300  0.17375700  0.61051300  1
  N  N3  1  0.82624300  0.32624300  0.61051300  1
  O  O0  1  0.50000000  0.50000000  0.37909500  1
  O  O1  1  0.00000000  0.50000000  0.00434500  1
  O  O2  1  0.71513300  0.57593600  0.99637800  1
  O  O3  1  0.87310600  0.62689400  0.36894700  1
  O  O4  1  0.42406400  0.71513300  0.99637800  1
  O  O5  1  0.92406400  0.78486700  0.99637800  1
  O  O6  1  0.37310600  0.87310600  0.36894700  1
  O  O7  1  0.21513300  0.92406400  0.99637800  1
  O  O8  1  0.00000000  0.00000000  0.37909500  1
  O  O9  1  0.50000000  0.00000000  0.00434500  1
  O  O10  1  0.78486700  0.07593600  0.99637800  1
  O  O11  1  0.62689400  0.12689400  0.36894700  1
  O  O12  1  0.07593600  0.21513300  0.99637800  1
  O  O13  1  0.57593600  0.28486700  0.99637800  1
  O  O14  1  0.12689400  0.37310600  0.36894700  1
  O  O15  1  0.28486700  0.42406400  0.99637800  1
loop_
_geom_bond_atom_site_label_1
_geom_bond_atom_site_label_2
_geom_bond_distance
_geom_bond_site_symmetry_2
H0 N0 1.024976 1_555
H1 N0 1.026496 1_555
H2 N0 1.030683 1_555
H3 N0 1.026496 1_555
H4 N1 1.026496 1_555
H5 N1 1.030683 1_555
H6 N1 1.026496 1_555
H7 N1 1.024976 1_555
H8 N2 1.024976 1_555
H9 N2 1.026496 1_555
H10 N2 1.030683 1_555
H11 N2 1.026496 1_555
H12 N3 1.026496 1_555
H13 N3 1.030683 1_555
H14 N3 1.026496 1_555
H15 N3 1.024976 1_555
O0 V0 1.639746 1_555
O1 P3 1.650833 1_555
O1 P0 1.650833 1_455
O2 P0 1.545146 1_556
O2 V0 2.009105 1_556
O3 P0 1.493409 1_555
O4 P1 1.545146 1_556
O4 V0 2.009105 1_556
O5 P0 1.545146 1_556
O5 V1 2.009105 1_666
O6 P1 1.493409 1_555
O7 P1 1.545146 1_556
O7 V1 2.009105 1_566
O8 V1 1.639746 1_555
O9 P2 1.650833 1_555
O9 P1 1.650833 1_545
O10 P2 1.545146 1_556
O10 V1 2.009105 1_656
O11 P2 1.493409 1_555
O12 P3 1.545146 1_556
O12 V1 2.009105 1_556
O13 P2 1.545146 1_556
O13 V0 2.009105 1_556
O14 P3 1.493409 1_555
O15 P3 1.545146 1_556
O15 V0 2.009105 1_556
