# generated using pymatgen
data_DyInO3
_symmetry_space_group_name_H-M   'P 1'
_cell_length_a   6.28807684
_cell_length_b   6.28807682
_cell_length_c   12.27113037
_cell_angle_alpha   89.99999556
_cell_angle_beta   90.00000379
_cell_angle_gamma   120.00011732
_symmetry_Int_Tables_number   1
_chemical_formula_structural   DyInO3
_chemical_formula_sum   'Dy6 In6 O18'
_cell_volume   420.19450367
_cell_formula_units_Z   6
loop_
 _symmetry_equiv_pos_site_id
 _symmetry_equiv_pos_as_xyz
  1  'x, y, z'
loop_
 _atom_site_type_symbol
 _atom_site_label
 _atom_site_symmetry_multiplicity
 _atom_site_fract_x
 _atom_site_fract_y
 _atom_site_fract_z
 _atom_site_occupancy
  Dy  Dy0  1  0.33333284  0.66666675  0.23020847  1
  Dy  Dy1  1  0.00000056  0.00000012  0.26634686  1
  Dy  Dy2  1  -0.00000020  -0.00000037  0.76634700  1
  Dy  Dy3  1  0.33333318  0.66666563  0.73020837  1
  Dy  Dy4  1  0.66666635  0.33333306  0.73020823  1
  Dy  Dy5  1  0.66666709  0.33333456  0.23020816  1
  In  In0  1  -0.00000041  0.66657907  0.49603410  1
  In  In1  1  0.00000038  0.33342094  0.99603420  1
  In  In2  1  0.33342023  0.33342025  0.49603391  1
  In  In3  1  0.66657970  0.66657968  0.99603407  1
  In  In4  1  0.33342090  0.00000037  0.99603423  1
  In  In5  1  0.66657917  -0.00000042  0.49603408  1
  O  O0  1  0.00000030  0.69545853  0.66751169  1
  O  O1  1  0.00000029  0.63600638  0.32652067  1
  O  O2  1  -0.00000007  0.36399378  0.82652074  1
  O  O3  1  -0.00000028  0.30454151  0.16751167  1
  O  O4  1  0.33333308  0.66666634  0.02562224  1
  O  O5  1  0.00000055  0.00000048  0.46308017  1
  O  O6  1  0.33333349  0.66666682  0.52562231  1
  O  O7  1  -0.00000046  -0.00000051  0.96308015  1
  O  O8  1  0.30454212  0.30454221  0.66751181  1
  O  O9  1  0.36399392  0.36399374  0.32652063  1
  O  O10  1  0.30454111  -0.00000062  0.16751170  1
  O  O11  1  0.63600590  0.63600595  0.82652061  1
  O  O12  1  0.69545808  0.69545758  0.16751172  1
  O  O13  1  0.36399378  -0.00000012  0.82652084  1
  O  O14  1  0.66666704  0.33333375  0.52562236  1
  O  O15  1  0.66666642  0.33333307  0.02562245  1
  O  O16  1  0.63600618  -0.00000001  0.32652088  1
  O  O17  1  0.69545876  0.00000047  0.66751167  1
loop_
_geom_bond_atom_site_label_1
_geom_bond_atom_site_label_2
_geom_bond_distance
_geom_bond_site_symmetry_2
Dy0 O10 2.323246 1_565
Dy0 O3 2.323246 1_555
Dy0 O12 2.323253 1_555
Dy0 O1 2.328768 1_555
Dy0 O16 2.328772 1_565
Dy0 O9 2.328775 1_555
Dy0 O4 2.510504 1_555
Dy1 O10 2.266730 1_555
Dy1 O3 2.266735 1_555
Dy1 O12 2.266736 1_445
Dy1 O9 2.404976 1_555
Dy1 O1 2.404980 1_545
Dy1 O16 2.404986 1_455
Dy1 O5 2.414140 1_555
Dy2 O0 2.266734 1_545
Dy2 O17 2.266734 1_455
Dy2 O8 2.266736 1_555
Dy2 O11 2.404977 1_445
Dy2 O13 2.404982 1_555
Dy2 O2 2.404983 1_555
Dy2 O7 2.414138 1_555
Dy3 O8 2.323241 1_555
Dy3 O0 2.323251 1_555
Dy3 O17 2.323252 1_565
Dy3 O2 2.328768 1_555
Dy3 O11 2.328770 1_555
Dy3 O13 2.328779 1_565
Dy3 O6 2.510502 1_555
Dy4 O8 2.323245 1_555
Dy4 O17 2.323247 1_555
Dy4 O0 2.323248 1_655
Dy4 O13 2.328771 1_555
Dy4 O11 2.328774 1_555
Dy4 O2 2.328775 1_655
Dy4 O14 2.510500 1_555
Dy5 O12 2.323238 1_555
Dy5 O3 2.323249 1_655
Dy5 O10 2.323253 1_555
Dy5 O1 2.328769 1_655
Dy5 O9 2.328772 1_555
Dy5 O16 2.328781 1_555
Dy5 O15 2.510498 1_555
In0 O1 2.088986 1_555
In0 O0 2.112045 1_555
In0 O14 2.126962 1_455
In0 O6 2.126972 1_555
In0 O5 2.135218 1_565
In1 O2 2.088987 1_555
In1 O3 2.112044 1_556
In1 O4 2.126962 1_556
In1 O15 2.126972 1_456
In1 O7 2.135219 1_555
In2 O9 2.088985 1_555
In2 O8 2.112048 1_555
In2 O6 2.126972 1_555
In2 O14 2.126973 1_555
In2 O5 2.135207 1_555
In3 O11 2.088987 1_555
In3 O12 2.112045 1_556
In3 O4 2.126971 1_556
In3 O15 2.126972 1_556
In3 O7 2.135208 1_665
In4 O13 2.088986 1_555
In4 O10 2.112044 1_556
In4 O15 2.126963 1_556
In4 O4 2.126972 1_546
In4 O7 2.135219 1_555
In5 O16 2.088983 1_555
In5 O17 2.112045 1_555
In5 O6 2.126963 1_545
In5 O14 2.126973 1_555
In5 O5 2.135218 1_655
