# generated using pymatgen
data_Fe2Ni3Sb(PO4)6
_symmetry_space_group_name_H-M   'P 1'
_cell_length_a   8.45525778
_cell_length_b   8.45525778
_cell_length_c   8.45525729
_cell_angle_alpha   61.73663872
_cell_angle_beta   61.73663872
_cell_angle_gamma   61.73663242
_symmetry_Int_Tables_number   1
_chemical_formula_structural   Fe2Ni3Sb(PO4)6
_chemical_formula_sum   'Fe2 Ni3 Sb1 P6 O24'
_cell_volume   444.06523385
_cell_formula_units_Z   1
loop_
 _symmetry_equiv_pos_site_id
 _symmetry_equiv_pos_as_xyz
  1  'x, y, z'
loop_
 _atom_site_type_symbol
 _atom_site_label
 _atom_site_symmetry_multiplicity
 _atom_site_fract_x
 _atom_site_fract_y
 _atom_site_fract_z
 _atom_site_occupancy
  Fe  Fe0  1  0.01004200  0.01004200  0.01004200  1
  Fe  Fe1  1  0.49920600  0.49920600  0.49920600  1
  Ni  Ni0  1  0.14601600  0.14601600  0.14601600  1
  Ni  Ni1  1  0.35606500  0.35606500  0.35606500  1
  Ni  Ni2  1  0.64197000  0.64197000  0.64197000  1
  Sb  Sb0  1  0.85721900  0.85721900  0.85721900  1
  P  P0  1  0.45335300  0.74307500  0.04802700  1
  P  P1  1  0.54207000  0.25418500  0.95006700  1
  P  P2  1  0.95006700  0.54207000  0.25418500  1
  P  P3  1  0.25418500  0.95006700  0.54207000  1
  P  P4  1  0.74307500  0.04802700  0.45335300  1
  P  P5  1  0.04802700  0.45335300  0.74307500  1
  O  O0  1  0.31794500  0.10343900  0.51270200  1
  O  O1  1  0.51270200  0.31794500  0.10343900  1
  O  O2  1  0.90286400  0.05967100  0.25507800  1
  O  O3  1  0.10343900  0.51270200  0.31794500  1
  O  O4  1  0.81972700  0.00996300  0.61030200  1
  O  O5  1  0.59676100  0.25021900  0.44260800  1
  O  O6  1  0.05967100  0.25507800  0.90286400  1
  O  O7  1  0.25021900  0.44260800  0.59676100  1
  O  O8  1  0.39517700  0.17693600  0.98770400  1
  O  O9  1  0.44260800  0.59676100  0.25021900  1
  O  O10  1  0.75233100  0.09032800  0.93660000  1
  O  O11  1  0.98770400  0.39517700  0.17693600  1
  O  O12  1  0.00996300  0.61030200  0.81972700  1
  O  O13  1  0.25507800  0.90286400  0.05967100  1
  O  O14  1  0.56452000  0.40060100  0.74614200  1
  O  O15  1  0.61030200  0.81972700  0.00996300  1
  O  O16  1  0.74614200  0.56452000  0.40060100  1
  O  O17  1  0.93660000  0.75233100  0.09032800  1
  O  O18  1  0.40060100  0.74614200  0.56452000  1
  O  O19  1  0.17693600  0.98770400  0.39517700  1
  O  O20  1  0.89495900  0.50037900  0.67175200  1
  O  O21  1  0.09032800  0.93660000  0.75233100  1
  O  O22  1  0.50037900  0.67175200  0.89495900  1
  O  O23  1  0.67175200  0.89495900  0.50037900  1
loop_
_geom_bond_atom_site_label_1
_geom_bond_atom_site_label_2
_geom_bond_distance
_geom_bond_site_symmetry_2
Fe0 O2 1.993728 1_455
Fe0 O13 1.993728 1_545
Fe0 O6 1.993728 1_554
Fe0 O21 2.252973 1_544
Fe0 O10 2.252973 1_454
Fe0 O17 2.252973 1_445
Fe1 O9 2.068136 1_555
Fe1 O5 2.068136 1_555
Fe1 O7 2.068136 1_555
Fe1 O14 2.089689 1_555
Fe1 O18 2.089689 1_555
Fe1 O16 2.089690 1_555
Ni0 O11 1.953946 1_455
Ni0 O19 1.953946 1_545
Ni0 O8 1.953946 1_554
Ni0 O6 2.144426 1_554
Ni0 O13 2.144426 1_545
Ni0 O2 2.144426 1_455
Ni1 O3 1.997271 1_555
Ni1 O1 1.997271 1_555
Ni1 O0 1.997271 1_555
Ni1 O7 2.131535 1_555
Ni1 O5 2.131535 1_555
Ni1 O9 2.131535 1_555
Ni2 O20 1.967663 1_555
Ni2 O22 1.967663 1_555
Ni2 O23 1.967663 1_555
Ni2 O16 2.094448 1_555
Ni2 O18 2.094448 1_555
Ni2 O14 2.094449 1_555
O0 P3 1.504772 1_545
O1 P1 1.504772 1_554
O2 P4 1.571679 1_555
O3 P2 1.504772 1_455
O4 P4 1.580248 1_555
O4 Sb0 1.952599 1_545
O5 P4 1.554920 1_555
O6 P5 1.571679 1_555
O7 P5 1.554921 1_555
O8 P1 1.505859 1_555
O9 P0 1.554920 1_555
O10 P1 1.648664 1_555
O10 Sb0 2.038512 1_545
O11 P2 1.505859 1_555
O12 P5 1.580248 1_555
O12 Sb0 1.952599 1_455
O13 P0 1.571679 1_555
O14 P1 1.559701 1_555
O15 P0 1.580248 1_555
O15 Sb0 1.952599 1_554
O16 P2 1.559701 1_555
O17 P2 1.648664 1_555
O17 Sb0 2.038512 1_554
O18 P3 1.559701 1_555
O19 P3 1.505859 1_555
O20 P5 1.490476 1_655
O21 P3 1.648664 1_555
O21 Sb0 2.038512 1_455
O22 P0 1.490476 1_556
O23 P4 1.490477 1_565
