# generated using pymatgen
data_Dy5Bi11O24
_symmetry_space_group_name_H-M   'P 1'
_cell_length_a   9.55553900
_cell_length_b   9.55717523
_cell_length_c   15.63476123
_cell_angle_alpha   90.02208636
_cell_angle_beta   90.01262835
_cell_angle_gamma   109.48224653
_symmetry_Int_Tables_number   1
_chemical_formula_structural   Dy5Bi11O24
_chemical_formula_sum   'Dy10 Bi22 O48'
_cell_volume   1346.07764315
_cell_formula_units_Z   2
loop_
 _symmetry_equiv_pos_site_id
 _symmetry_equiv_pos_as_xyz
  1  'x, y, z'
loop_
 _atom_site_type_symbol
 _atom_site_label
 _atom_site_symmetry_multiplicity
 _atom_site_fract_x
 _atom_site_fract_y
 _atom_site_fract_z
 _atom_site_occupancy
  Dy  Dy0  1  0.85619000  0.14400800  0.89242600  1
  Dy  Dy1  1  0.50339100  0.00128100  0.99878700  1
  Dy  Dy2  1  0.65842700  0.40661500  0.87493700  1
  Dy  Dy3  1  0.24858400  0.25017400  0.75162300  1
  Dy  Dy4  1  0.99955800  0.49810000  0.50054800  1
  Dy  Dy5  1  0.75108400  0.75125500  0.75247700  1
  Dy  Dy6  1  0.74838300  0.75018200  0.24919900  1
  Dy  Dy7  1  0.50174000  0.00138200  0.49979600  1
  Dy  Dy8  1  0.99746100  0.49918400  0.99774200  1
  Dy  Dy9  1  0.25095300  0.25080500  0.25005400  1
  Bi  Bi0  1  0.84269600  0.09215800  0.62686600  1
  Bi  Bi1  1  0.98064100  0.51321300  0.73622600  1
  Bi  Bi2  1  0.23298500  0.26419300  0.98139200  1
  Bi  Bi3  1  0.89137100  0.10932600  0.35876100  1
  Bi  Bi4  1  0.39221000  0.60698200  0.85916500  1
  Bi  Bi5  1  0.63989800  0.35994800  0.61094100  1
  Bi  Bi6  1  0.52031700  0.98728000  0.76807800  1
  Bi  Bi7  1  0.26547300  0.23406800  0.51683900  1
  Bi  Bi8  1  0.65689100  0.40719900  0.37489500  1
  Bi  Bi9  1  0.15733300  0.90889900  0.87436000  1
  Bi  Bi10  1  0.34353600  0.59524300  0.62557000  1
  Bi  Bi11  1  0.84524800  0.09379300  0.12269600  1
  Bi  Bi12  1  0.73532000  0.76544400  0.48491600  1
  Bi  Bi13  1  0.48491100  0.01518000  0.23311200  1
  Bi  Bi14  1  0.60891400  0.39073300  0.13921100  1
  Bi  Bi15  1  0.11017400  0.88952700  0.64093400  1
  Bi  Bi16  1  0.35921400  0.64139500  0.39100200  1
  Bi  Bi17  1  0.01488600  0.48468100  0.26483800  1
  Bi  Bi18  1  0.76559700  0.73282600  0.01367100  1
  Bi  Bi19  1  0.34230800  0.59150200  0.12398200  1
  Bi  Bi20  1  0.15598200  0.90576000  0.37490300  1
  Bi  Bi21  1  0.14030000  0.85872500  0.10875300  1
  O  O0  1  0.61473600  0.15714100  0.88702900  1
  O  O1  1  0.89993100  0.39314900  0.86675900  1
  O  O2  1  0.74692100  0.47123600  0.01090800  1
  O  O3  1  0.71943300  0.49744400  0.73896500  1
  O  O4  1  0.65409000  0.65335900  0.88304000  1
  O  O5  1  0.89466200  0.34820200  0.61593800  1
  O  O6  1  0.40645100  0.35215700  0.86527700  1
  O  O7  1  0.98257700  0.25505100  0.01733600  1
  O  O8  1  0.58531100  0.09914200  0.63260100  1
  O  O9  1  0.75268700  0.03205700  0.48422200  1
  O  O10  1  0.24524600  0.52794200  0.97996800  1
  O  O11  1  0.08845700  0.13290400  0.86072300  1
  O  O12  1  0.87808100  0.34327800  0.39002200  1
  O  O13  1  0.77911900  0.99973000  0.77389700  1
  O  O14  1  0.37972100  0.84492400  0.89002000  1
  O  O15  1  0.84745100  0.83396700  0.61962400  1
  O  O16  1  0.77596600  0.54114800  0.50750600  1
  O  O17  1  0.51013500  0.74295000  0.72759900  1
  O  O18  1  0.51258500  0.24378600  0.47712700  1
  O  O19  1  0.00966600  0.74202900  0.97554700  1
  O  O20  1  0.09890400  0.14664300  0.63455100  1
  O  O21  1  0.21016300  0.47693400  0.75850600  1
  O  O22  1  0.40448700  0.37269900  0.64173700  1
  O  O23  1  0.25274400  0.96895200  0.51742500  1
  O  O24  1  0.12104000  0.65458300  0.60971100  1
  O  O25  1  0.62471200  0.15572700  0.10896100  1
  O  O26  1  0.15139800  0.16501700  0.38331400  1
  O  O27  1  0.22582000  0.45897500  0.49529800  1
  O  O28  1  0.49407500  0.26304000  0.27256200  1
  O  O29  1  0.99343200  0.75905100  0.77452200  1
  O  O30  1  0.89946500  0.85230000  0.36493500  1
  O  O31  1  0.49049600  0.75878800  0.52374800  1
  O  O32  1  0.78961800  0.52548900  0.24269700  1
  O  O33  1  0.28875200  0.02549200  0.74466600  1
  O  O34  1  0.59371200  0.62913800  0.36016200  1
  O  O35  1  0.28094500  0.50108400  0.26649500  1
  O  O36  1  0.34838500  0.33525600  0.11753200  1
  O  O37  1  0.00908200  0.24150900  0.22561800  1
  O  O38  1  0.10199500  0.64944500  0.38524100  1
  O  O39  1  0.59763100  0.64516700  0.13390700  1
  O  O40  1  0.41532000  0.90158500  0.36663400  1
  O  O41  1  0.70834200  0.97520800  0.25502000  1
  O  O42  1  0.90618000  0.87053300  0.14051800  1
  O  O43  1  0.21811400  0.00122300  0.23270300  1
  O  O44  1  0.73255700  0.96682000  0.98943200  1
  O  O45  1  0.39846100  0.84929500  0.11495100  1
  O  O46  1  0.08177600  0.59598100  0.13074700  1
  O  O47  1  0.27719300  0.04141200  0.00559900  1
loop_
_geom_bond_atom_site_label_1
_geom_bond_atom_site_label_2
_geom_bond_distance
_geom_bond_site_symmetry_2
Dy0 O13 2.279916 1_545
Dy0 O44 2.287340 1_545
Dy0 O11 2.310930 1_655
Dy0 O1 2.311335 1_555
Dy0 O0 2.353559 1_555
Dy0 O7 2.353978 1_556
Dy1 O14 2.310979 1_545
Dy1 O25 2.312062 1_556
Dy1 O0 2.312928 1_555
Dy1 O47 2.320198 1_556
Dy1 O44 2.325141 1_545
Dy1 O45 2.333491 1_546
Dy2 O0 2.287178 1_555
Dy2 O6 2.292361 1_555
Dy2 O2 2.294703 1_556
Dy2 O3 2.297216 1_555
Dy2 O1 2.357248 1_555
Dy2 O4 2.375651 1_555
Dy3 O33 2.306462 1_555
Dy3 O11 2.316390 1_555
Dy3 O21 2.318106 1_555
Dy3 O22 2.319757 1_555
Dy3 O6 2.323765 1_555
Dy3 O20 2.329919 1_555
Dy4 O16 2.309178 1_555
Dy4 O24 2.310033 1_655
Dy4 O5 2.314467 1_555
Dy4 O38 2.314900 1_655
Dy4 O27 2.315243 1_655
Dy4 O12 2.318282 1_555
Dy5 O15 2.303006 1_555
Dy5 O4 2.307653 1_555
Dy5 O17 2.310045 1_555
Dy5 O29 2.317683 1_555
Dy5 O13 2.323407 1_555
Dy5 O3 2.351684 1_555
Dy6 O41 2.308364 1_555
Dy6 O42 2.308600 1_555
Dy6 O32 2.311124 1_555
Dy6 O39 2.316186 1_555
Dy6 O30 2.317036 1_555
Dy6 O34 2.322644 1_555
Dy7 O8 2.306961 1_555
Dy7 O23 2.311173 1_545
Dy7 O18 2.311699 1_555
Dy7 O31 2.315559 1_545
Dy7 O40 2.323469 1_545
Dy7 O9 2.329532 1_555
Dy8 O10 2.307625 1_655
Dy8 O46 2.308653 1_656
Dy8 O7 2.310243 1_556
Dy8 O19 2.311005 1_655
Dy8 O2 2.327851 1_556
Dy8 O1 2.336010 1_555
Dy9 O36 2.304801 1_555
Dy9 O28 2.313655 1_555
Dy9 O37 2.314769 1_555
Dy9 O43 2.315579 1_555
Dy9 O26 2.323801 1_555
Dy9 O35 2.326353 1_555
Bi0 O20 2.329972 1_655
Bi0 O5 2.335315 1_555
Bi0 O9 2.390005 1_555
Bi0 O13 2.465372 1_545
Bi0 O8 2.484149 1_555
Bi0 O15 2.485637 1_545
Bi1 O1 2.342812 1_555
Bi1 O21 2.357691 1_655
Bi1 O29 2.387677 1_555
Bi1 O5 2.414905 1_555
Bi1 O3 2.450228 1_555
Bi1 O24 2.516365 1_655
Bi2 O47 2.335699 1_556
Bi2 O36 2.388747 1_556
Bi2 O6 2.413101 1_555
Bi2 O11 2.425327 1_555
Bi2 O7 2.431058 1_456
Bi2 O10 2.484186 1_555
Bi3 O12 2.333010 1_555
Bi3 O9 2.344926 1_555
Bi3 O26 2.392001 1_655
Bi3 O41 2.415444 1_545
Bi3 O30 2.485220 1_545
Bi3 O37 2.499925 1_655
Bi4 O10 2.324801 1_555
Bi4 O14 2.366111 1_555
Bi4 O21 2.367009 1_555
Bi4 O4 2.420216 1_555
Bi4 O6 2.485979 1_555
Bi4 O17 2.493191 1_555
Bi5 O22 2.343101 1_555
Bi5 O3 2.375296 1_555
Bi5 O8 2.394400 1_555
Bi5 O16 2.409559 1_555
Bi5 O5 2.475329 1_555
Bi5 O18 2.487123 1_555
Bi6 O8 2.361071 1_565
Bi6 O33 2.387946 1_565
Bi6 O17 2.389562 1_555
Bi6 O0 2.434772 1_565
Bi6 O13 2.437569 1_555
Bi6 O14 2.464695 1_555
Bi7 O27 2.328305 1_555
Bi7 O26 2.345213 1_555
Bi7 O20 2.394569 1_555
Bi7 O18 2.413341 1_555
Bi7 O22 2.481146 1_555
Bi7 O23 2.495850 1_545
Bi8 O28 2.333661 1_555
Bi8 O18 2.337038 1_555
Bi8 O12 2.399492 1_555
Bi8 O34 2.402312 1_555
Bi8 O32 2.491019 1_555
Bi8 O16 2.501509 1_555
Bi9 O29 2.332698 1_455
Bi9 O19 2.353542 1_555
Bi9 O14 2.411663 1_555
Bi9 O33 2.449456 1_565
Bi9 O11 2.449900 1_565
Bi9 O47 2.480999 1_566
Bi10 O31 2.342697 1_555
Bi10 O17 2.360057 1_555
Bi10 O24 2.389021 1_555
Bi10 O22 2.398625 1_555
Bi10 O27 2.475800 1_555
Bi10 O21 2.502863 1_555
Bi11 O7 2.337658 1_555
Bi11 O37 2.357162 1_655
Bi11 O25 2.381027 1_555
Bi11 O42 2.408014 1_545
Bi11 O44 2.469566 1_544
Bi11 O41 2.507999 1_545
Bi12 O16 2.329516 1_555
Bi12 O15 2.354271 1_555
Bi12 O31 2.397280 1_555
Bi12 O30 2.408768 1_555
Bi12 O34 2.480634 1_555
Bi12 O9 2.497653 1_565
Bi13 O41 2.316316 1_545
Bi13 O40 2.345132 1_545
Bi13 O45 2.394226 1_545
Bi13 O28 2.420743 1_555
Bi13 O25 2.482505 1_555
Bi13 O43 2.508063 1_555
Bi14 O25 2.348687 1_555
Bi14 O2 2.383394 1_555
Bi14 O36 2.390112 1_555
Bi14 O32 2.402476 1_555
Bi14 O39 2.471143 1_555
Bi14 O28 2.479931 1_555
Bi15 O24 2.333581 1_555
Bi15 O23 2.339561 1_555
Bi15 O33 2.397664 1_565
Bi15 O15 2.409499 1_455
Bi15 O20 2.497317 1_565
Bi15 O29 2.497371 1_455
Bi16 O34 2.332963 1_555
Bi16 O35 2.339945 1_555
Bi16 O40 2.393266 1_555
Bi16 O27 2.417446 1_555
Bi16 O38 2.486198 1_555
Bi16 O31 2.489620 1_555
Bi17 O32 2.337777 1_455
Bi17 O46 2.341806 1_555
Bi17 O37 2.386031 1_555
Bi17 O38 2.416380 1_555
Bi17 O12 2.488112 1_455
Bi17 O35 2.494563 1_555
Bi18 O4 2.311172 1_554
Bi18 O19 2.380348 1_654
Bi18 O44 2.390812 1_554
Bi18 O39 2.432575 1_555
Bi18 O2 2.446698 1_555
Bi18 O42 2.507463 1_555
Bi19 O39 2.324783 1_555
Bi19 O45 2.344465 1_555
Bi19 O35 2.391509 1_555
Bi19 O10 2.433362 1_554
Bi19 O36 2.470982 1_555
Bi19 O46 2.506381 1_555
Bi20 O38 2.334616 1_555
Bi20 O30 2.336219 1_455
Bi20 O43 2.401794 1_565
Bi20 O23 2.410506 1_555
Bi20 O40 2.495085 1_555
Bi20 O26 2.496132 1_565
Bi21 O42 2.330888 1_455
Bi21 O43 2.342014 1_565
Bi21 O46 2.408447 1_555
Bi21 O47 2.416667 1_565
Bi21 O19 2.491565 1_554
Bi21 O45 2.500229 1_555
