# generated using pymatgen
data_Li3Fe3CoO8
_symmetry_space_group_name_H-M   'P 1'
_cell_length_a   5.94459876
_cell_length_b   5.94459876
_cell_length_c   5.94459931
_cell_angle_alpha   59.65425101
_cell_angle_beta   59.65425101
_cell_angle_gamma   59.65425872
_symmetry_Int_Tables_number   1
_chemical_formula_structural   Li3Fe3CoO8
_chemical_formula_sum   'Li3 Fe3 Co1 O8'
_cell_volume   147.37624197
_cell_formula_units_Z   1
loop_
 _symmetry_equiv_pos_site_id
 _symmetry_equiv_pos_as_xyz
  1  'x, y, z'
loop_
 _atom_site_type_symbol
 _atom_site_label
 _atom_site_symmetry_multiplicity
 _atom_site_fract_x
 _atom_site_fract_y
 _atom_site_fract_z
 _atom_site_occupancy
  Li  Li0  1  0.50000000  0.00000000  0.00000000  1
  Li  Li1  1  0.00000000  0.50000000  0.00000000  1
  Li  Li2  1  0.00000000  0.00000000  0.50000000  1
  Fe  Fe0  1  0.50000000  0.50000000  0.00000000  1
  Fe  Fe1  1  0.00000000  0.50000000  0.50000000  1
  Fe  Fe2  1  0.50000000  0.00000000  0.50000000  1
  Co  Co0  1  0.00000000  0.00000000  0.00000000  1
  O  O0  1  0.77246800  0.23959900  0.77246800  1
  O  O1  1  0.23959900  0.77246800  0.77246800  1
  O  O2  1  0.77246800  0.77246800  0.23959900  1
  O  O3  1  0.25721900  0.25721900  0.25721900  1
  O  O4  1  0.74278100  0.74278100  0.74278100  1
  O  O5  1  0.22753200  0.22753200  0.76040100  1
  O  O6  1  0.76040100  0.22753200  0.22753200  1
  O  O7  1  0.22753200  0.76040100  0.22753200  1
loop_
_geom_bond_atom_site_label_1
_geom_bond_atom_site_label_2
_geom_bond_distance
_geom_bond_site_symmetry_2
Li0 O7 2.156949 1_545
Li0 O0 2.156949 1_554
Li0 O5 2.156950 1_554
Li0 O2 2.156950 1_545
Li0 O4 2.159116 1_544
Li0 O3 2.159116 1_555
Li1 O6 2.156949 1_455
Li1 O1 2.156949 1_554
Li1 O5 2.156950 1_554
Li1 O2 2.156950 1_455
Li1 O4 2.159116 1_454
Li1 O3 2.159116 1_555
Li2 O6 2.156950 1_455
Li2 O0 2.156950 1_455
Li2 O7 2.156950 1_545
Li2 O1 2.156950 1_545
Li2 O4 2.159116 1_445
Li2 O3 2.159116 1_555
Fe0 O3 2.036887 1_555
Fe0 O4 2.036887 1_554
Fe0 O0 2.053709 1_554
Fe0 O6 2.053709 1_555
Fe0 O7 2.053709 1_555
Fe0 O1 2.053709 1_554
Fe1 O3 2.036887 1_555
Fe1 O4 2.036887 1_455
Fe1 O0 2.053709 1_455
Fe1 O7 2.053709 1_555
Fe1 O2 2.053709 1_455
Fe1 O5 2.053709 1_555
Fe2 O3 2.036887 1_555
Fe2 O4 2.036887 1_545
Fe2 O1 2.053709 1_545
Fe2 O6 2.053709 1_555
Fe2 O5 2.053709 1_555
Fe2 O2 2.053709 1_545
Co0 O2 1.908668 1_445
Co0 O5 1.908668 1_554
Co0 O1 1.908668 1_544
Co0 O0 1.908668 1_454
Co0 O6 1.908668 1_455
Co0 O7 1.908668 1_545
