# generated using pymatgen
data_FeOF
_symmetry_space_group_name_H-M   'P 1'
_cell_length_a   3.10702500
_cell_length_b   9.47954700
_cell_length_c   14.21318862
_cell_angle_alpha   89.71517651
_cell_angle_beta   90.00000000
_cell_angle_gamma   90.00000000
_symmetry_Int_Tables_number   1
_chemical_formula_structural   FeOF
_chemical_formula_sum   'Fe12 O12 F12'
_cell_volume   418.61856551
_cell_formula_units_Z   12
loop_
 _symmetry_equiv_pos_site_id
 _symmetry_equiv_pos_as_xyz
  1  'x, y, z'
loop_
 _atom_site_type_symbol
 _atom_site_label
 _atom_site_symmetry_multiplicity
 _atom_site_fract_x
 _atom_site_fract_y
 _atom_site_fract_z
 _atom_site_occupancy
  Fe  Fe0  1  0.00000000  0.99389900  0.00531900  1
  Fe  Fe1  1  0.00000000  0.98150600  0.33065100  1
  Fe  Fe2  1  0.00000000  0.99016800  0.67352000  1
  Fe  Fe3  1  0.50000000  0.77040200  0.16307700  1
  Fe  Fe4  1  0.50000000  0.74851700  0.48299300  1
  Fe  Fe5  1  0.50000000  0.77108500  0.83828100  1
  Fe  Fe6  1  0.00000000  0.49944100  0.34115100  1
  Fe  Fe7  1  0.00000000  0.48179300  0.00213400  1
  Fe  Fe8  1  0.00000000  0.48241900  0.66543400  1
  Fe  Fe9  1  0.50000000  0.24625200  0.15072300  1
  Fe  Fe10  1  0.50000000  0.27024100  0.49645600  1
  Fe  Fe11  1  0.50000000  0.27517500  0.83540600  1
  O  O0  1  0.50000000  0.90133900  0.27049000  1
  O  O1  1  0.50000000  0.90409600  0.93425800  1
  O  O2  1  0.00000000  0.84206400  0.10188400  1
  O  O3  1  0.00000000  0.85062800  0.76600200  1
  O  O4  1  0.00000000  0.85115100  0.43999000  1
  O  O5  1  0.50000000  0.59334900  0.39649500  1
  O  O6  1  0.50000000  0.40630400  0.93728600  1
  O  O7  1  0.50000000  0.40333600  0.60113500  1
  O  O8  1  0.00000000  0.34967800  0.10535200  1
  O  O9  1  0.00000000  0.34060800  0.43164000  1
  O  O10  1  0.00000000  0.34800600  0.76845700  1
  O  O11  1  0.50000000  0.09570800  0.06353300  1
  F  F0  1  0.50000000  0.90328500  0.60256700  1
  F  F1  1  0.00000000  0.64411200  0.22980500  1
  F  F2  1  0.00000000  0.65693100  0.56957200  1
  F  F3  1  0.00000000  0.65290000  0.90009500  1
  F  F4  1  0.50000000  0.59865200  0.06583500  1
  F  F5  1  0.50000000  0.60086000  0.73325400  1
  F  F6  1  0.50000000  0.39948600  0.26735900  1
  F  F7  1  0.00000000  0.15263500  0.23663900  1
  F  F8  1  0.00000000  0.15382800  0.89304600  1
  F  F9  1  0.00000000  0.14350600  0.56863400  1
  F  F10  1  0.50000000  0.09727800  0.40161600  1
  F  F11  1  0.50000000  0.09936600  0.72990900  1
loop_
_geom_bond_atom_site_label_1
_geom_bond_atom_site_label_2
_geom_bond_distance
_geom_bond_site_symmetry_2
Fe0 O2 1.983877 1_555
Fe0 O11 2.009320 1_565
Fe0 O11 2.009320 1_465
Fe0 O1 2.041263 1_454
Fe0 O1 2.041263 1_554
Fe1 O0 1.930943 1_455
Fe1 O0 1.930943 1_555
Fe1 O4 1.980648 1_555
Fe2 O3 1.860179 1_555
Fe3 O2 1.904066 1_655
Fe3 O2 1.904066 1_555
Fe3 O0 1.972367 1_555
Fe4 O5 1.921730 1_555
Fe4 O4 1.930712 1_655
Fe4 O4 1.930712 1_555
Fe5 O1 1.862204 1_555
Fe5 O3 2.007396 1_555
Fe5 O3 2.007396 1_655
Fe6 O5 1.957445 1_555
Fe6 O5 1.957445 1_455
Fe6 O9 1.975329 1_555
Fe7 O8 1.924180 1_555
Fe7 O6 1.944626 1_554
Fe7 O6 1.944626 1_454
Fe8 O10 1.936260 1_555
Fe8 O7 1.953822 1_455
Fe8 O7 1.953822 1_555
Fe9 O11 1.894703 1_555
Fe9 O8 1.945306 1_555
Fe9 O8 1.945306 1_655
Fe10 O9 1.923780 1_655
Fe10 O9 1.923780 1_555
Fe10 O7 1.955535 1_555
Fe11 O6 1.913079 1_555
Fe11 O10 1.946533 1_555
Fe11 O10 1.946533 1_655
F0 Fe2 2.029040 1_555
F0 Fe2 2.029040 1_655
F0 Fe4 2.250701 1_555
F1 Fe6 2.088963 1_555
F1 Fe3 2.175966 1_555
F1 Fe3 2.175966 1_455
F2 Fe8 2.137920 1_555
F2 Fe4 2.161210 1_455
F2 Fe4 2.161210 1_555
F3 Fe5 2.104916 1_555
F3 Fe5 2.104916 1_455
F3 Fe7 2.170465 1_556
F4 Fe7 2.114301 1_555
F4 Fe7 2.114301 1_655
F4 Fe3 2.140882 1_555
F5 Fe8 2.148009 1_555
F5 Fe8 2.148009 1_655
F5 Fe5 2.203677 1_555
F6 Fe6 2.102644 1_555
F6 Fe6 2.102644 1_655
F6 Fe9 2.209560 1_555
F7 Fe1 2.096550 1_545
F7 Fe9 2.163648 1_455
F7 Fe9 2.163648 1_555
F8 Fe11 2.097242 1_455
F8 Fe11 2.097242 1_555
F8 Fe0 2.195634 1_546
F9 Fe2 2.076948 1_545
F9 Fe10 2.212897 1_555
F9 Fe10 2.212897 1_455
F10 Fe10 2.127756 1_555
F10 Fe1 2.155502 1_545
F10 Fe1 2.155502 1_645
F11 Fe2 2.033600 1_645
F11 Fe2 2.033600 1_545
F11 Fe11 2.247379 1_555
