# generated using pymatgen
data_Ca4Al2H22CO20
_symmetry_space_group_name_H-M   'P 1'
_cell_length_a   5.83273000
_cell_length_b   8.57765239
_cell_length_c   9.96665266
_cell_angle_alpha   115.22346996
_cell_angle_beta   89.73560837
_cell_angle_gamma   98.53032765
_symmetry_Int_Tables_number   1
_chemical_formula_structural   Ca4Al2H22CO20
_chemical_formula_sum   'Ca4 Al2 H22 C1 O20'
_cell_volume   445.15036219
_cell_formula_units_Z   1
loop_
 _symmetry_equiv_pos_site_id
 _symmetry_equiv_pos_as_xyz
  1  'x, y, z'
loop_
 _atom_site_type_symbol
 _atom_site_label
 _atom_site_symmetry_multiplicity
 _atom_site_fract_x
 _atom_site_fract_y
 _atom_site_fract_z
 _atom_site_occupancy
  Ca  Ca0  1  0.52173300  0.68945100  0.19329500  1
  Ca  Ca1  1  0.48385400  0.31290400  0.80494700  1
  Ca  Ca2  1  0.01808500  0.69567300  0.68774500  1
  Ca  Ca3  1  0.98053400  0.31731700  0.30466800  1
  Al  Al0  1  0.00107900  0.00400300  0.99832000  1
  Al  Al1  1  0.49429500  0.00335400  0.49322400  1
  H  H0  1  0.18176900  0.73708600  0.00755000  1
  H  H1  1  0.83586700  0.30311500  0.97296800  1
  H  H2  1  0.31912200  0.17793200  0.03819700  1
  H  H3  1  0.69290700  0.81681800  0.96587200  1
  H  H4  1  0.34427900  0.28429500  0.48172400  1
  H  H5  1  0.66307100  0.73911300  0.50012300  1
  H  H6  1  0.80765200  0.15282500  0.54792300  1
  H  H7  1  0.16980000  0.81037100  0.46695500  1
  H  H8  1  0.99058200  0.26550400  0.74267200  1
  H  H9  1  0.01936800  0.73057000  0.25946400  1
  H  H10  1  0.50689500  0.74817400  0.74854500  1
  H  H11  1  0.48268000  0.29247000  0.22791200  1
  H  H12  1  0.69090100  0.94726100  0.26139400  1
  H  H13  1  0.43425400  0.83321900  0.30913700  1
  H  H14  1  0.29381700  0.05947000  0.73014000  1
  H  H15  1  0.56014800  0.16771300  0.68961600  1
  H  H16  1  0.06063600  0.17898000  0.18967700  1
  H  H17  1  0.86325100  0.39465400  0.07713700  1
  H  H18  1  0.49182800  0.49667300  0.00139300  1
  H  H19  1  0.22733900  0.53708200  0.96274400  1
  H  H20  1  0.97933100  0.52816200  0.47915200  1
  H  H21  1  0.24283600  0.47901100  0.52381800  1
  C  C0  1  0.88352400  0.86868700  0.80039900  1
  O  O0  1  0.14901600  0.71579000  0.07546300  1
  O  O1  1  0.84684000  0.29866400  0.91407500  1
  O  O2  1  0.30479000  0.08348900  0.02491500  1
  O  O3  1  0.69598000  0.90905900  0.98005300  1
  O  O4  1  0.34374600  0.29341700  0.41598900  1
  O  O5  1  0.64081200  0.71392900  0.57082700  1
  O  O6  1  0.79777900  0.08855200  0.51718700  1
  O  O7  1  0.18767500  0.91544200  0.47391500  1
  O  O8  1  0.07482500  0.27912600  0.79525300  1
  O  O9  1  0.92816900  0.73475700  0.20000700  1
  O  O10  1  0.42509900  0.73275100  0.69649700  1
  O  O11  1  0.57117600  0.27797900  0.29216200  1
  O  O12  1  0.58302000  0.79135200  0.31068300  1
  O  O13  1  0.40297100  0.21196200  0.68538000  1
  O  O14  1  0.90302200  0.21057100  0.18647600  1
  O  O15  1  0.34306200  0.40086000  0.04977800  1
  O  O16  1  0.12987600  0.62651600  0.44001200  1
  O  O17  1  0.75689900  0.67450000  0.91454900  1
  O  O18  1  0.07965800  0.80976000  0.80120200  1
  O  O19  1  0.81609700  0.11769900  0.68590800  1
loop_
_geom_bond_atom_site_label_1
_geom_bond_atom_site_label_2
_geom_bond_distance
_geom_bond_site_symmetry_2
Ca0 O12 1.140254 1_555
Ca0 H18 1.909147 1_555
Ca1 O13 1.181928 1_555
Ca1 H18 1.915458 1_556
Ca2 O18 1.149632 1_555
Ca2 H20 1.949303 1_455
Ca2 H21 2.440647 1_555
Ca3 O14 1.180354 1_555
Ca3 H20 1.902153 1_555
Ca3 H21 2.419595 1_655
Al0 O2 1.779099 1_556
Al0 O3 1.819311 1_445
Al0 H16 1.849990 1_556
Al0 C0 1.879760 1_445
Al0 O18 2.067409 1_545
Al0 O14 2.107626 1_456
Al1 H13 1.786298 1_545
Al1 O6 1.787701 1_555
Al1 O7 1.812060 1_545
Al1 H15 1.860311 1_555
Al1 O12 2.082154 1_545
Al1 O13 2.122727 1_555
H0 O0 0.788572 1_555
H1 O1 0.575640 1_555
H1 H17 0.994716 1_556
H2 O2 0.754576 1_555
H3 O3 0.739472 1_555
H3 O17 1.221642 1_555
H4 O4 0.692204 1_555
H5 O5 0.825030 1_555
H6 O6 0.497900 1_555
H6 O19 1.530589 1_555
H7 O7 0.864212 1_555
H7 O16 1.464273 1_555
H8 O8 0.680356 1_655
H8 O19 1.405134 1_555
H9 O9 0.813710 1_455
H10 O10 0.662786 1_555
H11 O11 0.884232 1_555
H12 O12 1.653226 1_555
H13 O12 0.989653 1_555
H14 O13 1.600917 1_555
H15 O13 1.050502 1_555
H15 O19 1.609373 1_555
H16 O14 1.000569 1_455
H18 O15 1.335395 1_555
H19 O0 1.598697 1_556
H20 O16 1.300967 1_655
H21 O4 1.688104 1_555
C0 O18 1.318846 1_655
