# generated using pymatgen
data_Li11(CoO4)2
_symmetry_space_group_name_H-M   'P 1'
_cell_length_a   6.58324568
_cell_length_b   6.58324568
_cell_length_c   9.33611200
_cell_angle_alpha   90.00000000
_cell_angle_beta   90.00000000
_cell_angle_gamma   91.32921388
_symmetry_Int_Tables_number   1
_chemical_formula_structural   Li11(CoO4)2
_chemical_formula_sum   'Li22 Co4 O16'
_cell_volume   404.51003504
_cell_formula_units_Z   2
loop_
 _symmetry_equiv_pos_site_id
 _symmetry_equiv_pos_as_xyz
  1  'x, y, z'
loop_
 _atom_site_type_symbol
 _atom_site_label
 _atom_site_symmetry_multiplicity
 _atom_site_fract_x
 _atom_site_fract_y
 _atom_site_fract_z
 _atom_site_occupancy
  Li  Li0  1  0.28981600  0.28727300  0.74864100  1
  Li  Li1  1  0.28727300  0.28981600  0.25135900  1
  Li  Li2  1  0.27316300  0.72683700  0.75000000  1
  Li  Li3  1  0.52146500  0.02098700  0.72571800  1
  Li  Li4  1  0.49569400  0.00205500  0.47047800  1
  Li  Li5  1  0.47853500  0.97901300  0.22571800  1
  Li  Li6  1  0.50430600  0.99794500  0.97047800  1
  Li  Li7  1  0.72683700  0.27316300  0.25000000  1
  Li  Li8  1  0.71272700  0.71018400  0.75135900  1
  Li  Li9  1  0.71018400  0.71272700  0.24864100  1
  Li  Li10  1  0.78527000  0.78527000  0.50000000  1
  Li  Li11  1  0.77740800  0.21979900  0.51920700  1
  Li  Li12  1  0.78461100  0.78461100  0.00000000  1
  Li  Li13  1  0.78020100  0.22259200  0.98079300  1
  Li  Li14  1  0.00205500  0.49569400  0.52952200  1
  Li  Li15  1  0.97901300  0.47853500  0.77428200  1
  Li  Li16  1  0.99794500  0.50430600  0.02952200  1
  Li  Li17  1  0.02098700  0.52146500  0.27428200  1
  Li  Li18  1  0.21979900  0.77740800  0.48079300  1
  Li  Li19  1  0.22259200  0.78020100  0.01920700  1
  Li  Li20  1  0.21538900  0.21538900  0.50000000  1
  Li  Li21  1  0.21473000  0.21473000  0.00000000  1
  Co  Co0  1  0.50022600  0.50022500  0.50000000  1
  Co  Co1  1  0.49977500  0.49977400  0.00000000  1
  Co  Co2  1  0.99638300  0.00361700  0.75000000  1
  Co  Co3  1  0.00361700  0.99638300  0.25000000  1
  O  O0  1  0.26651000  0.00046200  0.85646500  1
  O  O1  1  0.25927000  0.01676700  0.35900200  1
  O  O2  1  0.49712600  0.24393700  0.10126900  1
  O  O3  1  0.50287400  0.75606300  0.60126900  1
  O  O4  1  0.50680500  0.75366600  0.09418000  1
  O  O5  1  0.49319500  0.24633400  0.59418000  1
  O  O6  1  0.73349000  0.99953800  0.35646500  1
  O  O7  1  0.74073000  0.98323300  0.85900200  1
  O  O8  1  0.75606300  0.50287400  0.39873100  1
  O  O9  1  0.75366600  0.50680500  0.90582000  1
  O  O10  1  0.98323300  0.74073000  0.14099800  1
  O  O11  1  0.99953800  0.73349000  0.64353500  1
  O  O12  1  0.01676700  0.25927000  0.64099800  1
  O  O13  1  0.00046200  0.26651000  0.14353500  1
  O  O14  1  0.24633400  0.49319500  0.40582000  1
  O  O15  1  0.24393700  0.49712600  0.89873100  1
loop_
_geom_bond_atom_site_label_1
_geom_bond_atom_site_label_2
_geom_bond_distance
_geom_bond_site_symmetry_2
Li0 O5 1.990368 1_555
Li0 O15 1.995666 1_555
Li0 O12 2.063916 1_555
Li0 O0 2.142092 1_555
Li1 O14 1.990368 1_555
Li1 O2 1.995666 1_555
Li1 O1 2.063916 1_555
Li1 O13 2.142092 1_555
Li2 O11 2.058733 1_455
Li2 O0 2.058733 1_565
Li2 O15 2.058768 1_555
Li2 O3 2.058768 1_555
Li3 O7 1.926255 1_545
Li3 O5 1.938137 1_555
Li3 O0 2.077234 1_555
Li3 O3 2.096846 1_545
Li4 O1 1.876709 1_555
Li4 O6 1.893463 1_545
Li4 O5 1.980259 1_555
Li4 O3 2.029621 1_545
Li5 O1 1.926255 1_565
Li5 O4 1.938137 1_555
Li5 O6 2.077234 1_555
Li5 O2 2.096846 1_565
Li6 O7 1.876709 1_555
Li6 O0 1.893463 1_565
Li6 O4 1.980259 1_556
Li6 O2 2.029621 1_566
Li7 O6 2.058733 1_545
Li7 O13 2.058733 1_655
Li7 O2 2.058768 1_555
Li7 O8 2.058768 1_555
Li8 O9 1.990368 1_555
Li8 O3 1.995666 1_555
Li8 O7 2.063916 1_555
Li8 O11 2.142092 1_555
Li9 O4 1.990368 1_555
Li9 O8 1.995666 1_555
Li9 O10 2.063916 1_555
Li9 O6 2.142092 1_555
Li10 O11 1.980908 1_555
Li10 O6 1.980908 1_555
Li10 O8 2.090566 1_555
Li10 O3 2.090566 1_555
Li11 O12 1.955616 1_655
Li11 O5 2.009085 1_555
Li11 O6 2.115477 1_545
Li11 O8 2.183998 1_555
Li12 O7 1.882438 1_554
Li12 O10 1.882438 1_555
Li12 O4 2.035212 1_555
Li12 O9 2.035212 1_554
Li13 O7 1.955616 1_545
Li13 O9 2.009085 1_555
Li13 O13 2.115477 1_656
Li13 O2 2.183998 1_556
Li14 O12 1.876709 1_555
Li14 O11 1.893463 1_455
Li14 O14 1.980259 1_555
Li14 O8 2.029621 1_455
Li15 O12 1.926255 1_655
Li15 O9 1.938137 1_555
Li15 O11 2.077234 1_555
Li15 O15 2.096846 1_655
Li16 O10 1.876709 1_555
Li16 O13 1.893463 1_655
Li16 O9 1.980259 1_554
Li16 O15 2.029621 1_654
Li17 O10 1.926255 1_455
Li17 O14 1.938137 1_555
Li17 O13 2.077234 1_555
Li17 O8 2.096846 1_455
Li18 O1 1.955616 1_565
Li18 O14 2.009085 1_555
Li18 O11 2.115477 1_455
Li18 O3 2.183998 1_555
Li19 O10 1.955616 1_455
Li19 O4 2.009085 1_555
Li19 O0 2.115477 1_564
Li19 O15 2.183998 1_554
Li20 O12 1.882438 1_555
Li20 O1 1.882438 1_555
Li20 O14 2.035212 1_555
Li20 O5 2.035212 1_555
Li21 O0 1.980908 1_554
Li21 O13 1.980908 1_555
Li21 O2 2.090566 1_555
Li21 O15 2.090566 1_554
Co0 O5 1.888212 1_555
Co0 O14 1.888218 1_555
Co0 O8 1.931189 1_555
Co0 O3 1.931195 1_555
Co1 O9 1.888212 1_554
Co1 O4 1.888218 1_555
Co1 O2 1.931189 1_555
Co1 O15 1.931195 1_554
Co2 O12 1.968687 1_655
Co2 O7 1.968687 1_545
Co2 O11 2.037772 1_545
Co2 O0 2.037772 1_655
Co3 O1 1.968687 1_565
Co3 O10 1.968687 1_455
Co3 O6 2.037772 1_455
Co3 O13 2.037772 1_565
