# generated using pymatgen
data_K2CuPCO7
_symmetry_space_group_name_H-M   'P 1'
_cell_length_a   7.84341000
_cell_length_b   5.24061000
_cell_length_c   9.24440208
_cell_angle_alpha   89.99244477
_cell_angle_beta   90.00000000
_cell_angle_gamma   90.00000000
_symmetry_Int_Tables_number   1
_chemical_formula_structural   K2CuPCO7
_chemical_formula_sum   'K4 Cu2 P2 C2 O14'
_cell_volume   379.98423753
_cell_formula_units_Z   2
loop_
 _symmetry_equiv_pos_site_id
 _symmetry_equiv_pos_as_xyz
  1  'x, y, z'
loop_
 _atom_site_type_symbol
 _atom_site_label
 _atom_site_symmetry_multiplicity
 _atom_site_fract_x
 _atom_site_fract_y
 _atom_site_fract_z
 _atom_site_occupancy
  K  K0  1  0.02224200  0.24251800  0.74642500  1
  K  K1  1  0.47775800  0.24251800  0.74642500  1
  K  K2  1  0.52224200  0.75748200  0.25357500  1
  K  K3  1  0.97775800  0.75748200  0.25357500  1
  Cu  Cu0  1  0.75000000  0.77309800  0.64524700  1
  Cu  Cu1  1  0.25000000  0.22690200  0.35475300  1
  P  P0  1  0.25000000  0.71595500  0.57463000  1
  P  P1  1  0.75000000  0.28404500  0.42537000  1
  C  C0  1  0.75000000  0.72846000  0.90237000  1
  C  C1  1  0.25000000  0.27154000  0.09763000  1
  O  O0  1  0.25000000  0.28396300  0.96325400  1
  O  O1  1  0.75000000  0.94233100  0.82868500  1
  O  O2  1  0.75000000  0.53383900  0.81288000  1
  O  O3  1  0.08707800  0.75461900  0.66288600  1
  O  O4  1  0.41292200  0.75461900  0.66288600  1
  O  O5  1  0.75000000  0.11855000  0.56772300  1
  O  O6  1  0.25000000  0.42394500  0.52209000  1
  O  O7  1  0.75000000  0.57605500  0.47791000  1
  O  O8  1  0.25000000  0.88145000  0.43227700  1
  O  O9  1  0.58707700  0.24538100  0.33711400  1
  O  O10  1  0.91292200  0.24538100  0.33711400  1
  O  O11  1  0.25000000  0.46616100  0.18712000  1
  O  O12  1  0.25000000  0.05766900  0.17131500  1
  O  O13  1  0.75000000  0.71603700  0.03674600  1
loop_
_geom_bond_atom_site_label_1
_geom_bond_atom_site_label_2
_geom_bond_distance
_geom_bond_site_symmetry_2
K0 O0 2.693761 1_555
K0 O2 2.695923 1_455
K0 O3 2.719045 1_545
K0 O1 2.759046 1_445
K0 O5 2.776862 1_455
K0 O3 2.838454 1_555
K0 O6 2.897503 1_555
K1 O0 2.693761 1_555
K1 O2 2.695923 1_555
K1 O4 2.719045 1_545
K1 O1 2.759046 1_545
K1 O5 2.776862 1_555
K1 O4 2.838454 1_555
K1 O6 2.897503 1_555
K2 O13 2.693761 1_555
K2 O11 2.695923 1_555
K2 O9 2.719043 1_565
K2 O12 2.759046 1_565
K2 O8 2.776862 1_555
K2 O9 2.838453 1_555
K2 O7 2.897503 1_555
K3 O13 2.693761 1_555
K3 O11 2.695923 1_655
K3 O10 2.719045 1_565
K3 O12 2.759046 1_665
K3 O8 2.776862 1_655
K3 O10 2.838454 1_555
K3 O7 2.897503 1_555
Cu0 O7 1.860035 1_555
Cu0 O1 1.913795 1_555
Cu0 O5 1.946981 1_565
Cu0 O2 1.993271 1_555
Cu1 O6 1.860035 1_555
Cu1 O12 1.913795 1_555
Cu1 O8 1.946981 1_545
Cu1 O11 1.993271 1_555
C0 O13 1.243922 1_556
C0 O1 1.311496 1_555
C0 O2 1.313347 1_555
C1 O0 1.243922 1_554
C1 O12 1.311496 1_555
C1 O11 1.313347 1_555
O3 P0 1.529603 1_555
O4 P0 1.529603 1_555
O5 P1 1.575967 1_555
O6 P0 1.605600 1_555
O7 P1 1.605600 1_555
O8 P0 1.575967 1_555
O9 P1 1.529610 1_555
O10 P1 1.529603 1_555
