# generated using pymatgen
data_LiCr3O4
_symmetry_space_group_name_H-M   'P 1'
_cell_length_a   5.32661111
_cell_length_b   5.32661111
_cell_length_c   3.17624055
_cell_angle_alpha   84.07218007
_cell_angle_beta   84.07218007
_cell_angle_gamma   103.23515109
_symmetry_Int_Tables_number   1
_chemical_formula_structural   LiCr3O4
_chemical_formula_sum   'Li1 Cr3 O4'
_cell_volume   86.50311658
_cell_formula_units_Z   1
loop_
 _symmetry_equiv_pos_site_id
 _symmetry_equiv_pos_as_xyz
  1  'x, y, z'
loop_
 _atom_site_type_symbol
 _atom_site_label
 _atom_site_symmetry_multiplicity
 _atom_site_fract_x
 _atom_site_fract_y
 _atom_site_fract_z
 _atom_site_occupancy
  Li  Li0  1  0.50000000  0.50000000  0.50000000  1
  Cr  Cr0  1  0.00000000  0.50000000  0.00000000  1
  Cr  Cr1  1  0.00000000  0.00000000  0.50000000  1
  Cr  Cr2  1  0.50000000  0.00000000  0.00000000  1
  O  O0  1  0.78835700  0.78835700  0.06062900  1
  O  O1  1  0.75607400  0.24392600  0.50000000  1
  O  O2  1  0.24392600  0.75607400  0.50000000  1
  O  O3  1  0.21164300  0.21164300  0.93937100  1
loop_
_geom_bond_atom_site_label_1
_geom_bond_atom_site_label_2
_geom_bond_distance
_geom_bond_site_symmetry_2
Li0 O2 2.138446 1_555
Li0 O1 2.138446 1_555
Li0 O3 2.167990 1_555
Li0 O0 2.167990 1_555
Cr0 O2 2.094200 1_554
Cr0 O1 2.094200 1_455
Cr0 O0 2.115726 1_455
Cr0 O3 2.115726 1_554
Cr0 O2 2.476479 1_555
Cr0 O1 2.476479 1_454
Cr1 O1 2.036999 1_455
Cr1 O2 2.036999 1_545
Cr1 O0 2.073991 1_446
Cr1 O3 2.073991 1_554
Cr1 O3 2.134789 1_555
Cr1 O0 2.134789 1_445
Cr2 O1 2.094200 1_554
Cr2 O2 2.094200 1_545
Cr2 O0 2.115726 1_545
Cr2 O3 2.115726 1_554
Cr2 O1 2.476479 1_555
Cr2 O2 2.476479 1_544
