# generated using pymatgen
data_Li4Mn3Cr3(CuO8)2
_symmetry_space_group_name_H-M   'P 1'
_cell_length_a   5.81475561
_cell_length_b   5.81475561
_cell_length_c   9.52680224
_cell_angle_alpha   89.90560867
_cell_angle_beta   89.90560867
_cell_angle_gamma   59.99101609
_symmetry_Int_Tables_number   1
_chemical_formula_structural   Li4Mn3Cr3(CuO8)2
_chemical_formula_sum   'Li4 Mn3 Cr3 Cu2 O16'
_cell_volume   278.93345508
_cell_formula_units_Z   1
loop_
 _symmetry_equiv_pos_site_id
 _symmetry_equiv_pos_as_xyz
  1  'x, y, z'
loop_
 _atom_site_type_symbol
 _atom_site_label
 _atom_site_symmetry_multiplicity
 _atom_site_fract_x
 _atom_site_fract_y
 _atom_site_fract_z
 _atom_site_occupancy
  Li  Li0  1  0.67085400  0.67085400  0.10272000  1
  Li  Li1  1  0.99678900  0.99678900  0.00277100  1
  Li  Li2  1  0.99886300  0.99886300  0.50414400  1
  Li  Li3  1  0.33611500  0.33611500  0.60262300  1
  Mn  Mn0  1  0.82974100  0.82974100  0.78518500  1
  Mn  Mn1  1  0.16994600  0.66339300  0.28599600  1
  Mn  Mn2  1  0.66339300  0.16994600  0.28599600  1
  Cr  Cr0  1  0.33546700  0.83119600  0.78908400  1
  Cr  Cr1  1  0.83119600  0.33546700  0.78908400  1
  Cr  Cr2  1  0.16978500  0.16978500  0.28629500  1
  Cu  Cu0  1  0.66436100  0.66436100  0.50943600  1
  Cu  Cu1  1  0.33240300  0.33240300  0.01200300  1
  O  O0  1  0.31822900  0.83587200  0.39742700  1
  O  O1  1  0.51946300  0.51946300  0.66736600  1
  O  O2  1  0.67049900  0.67049900  0.89555100  1
  O  O3  1  0.99519200  0.99519200  0.68800500  1
  O  O4  1  0.99678400  0.99678400  0.18775500  1
  O  O5  1  0.83587200  0.31822900  0.39742700  1
  O  O6  1  0.51947200  0.96374500  0.66683300  1
  O  O7  1  0.96374500  0.51947200  0.66683300  1
  O  O8  1  0.16037000  0.16037000  0.89349200  1
  O  O9  1  0.84026000  0.84026000  0.39521600  1
  O  O10  1  0.03751300  0.48857700  0.16577500  1
  O  O11  1  0.48857700  0.03751300  0.16577500  1
  O  O12  1  0.33860200  0.33860200  0.39252800  1
  O  O13  1  0.16024800  0.67771400  0.89525900  1
  O  O14  1  0.48361000  0.48361000  0.16682000  1
  O  O15  1  0.67771400  0.16024800  0.89525900  1
loop_
_geom_bond_atom_site_label_1
_geom_bond_atom_site_label_2
_geom_bond_distance
_geom_bond_site_symmetry_2
Li0 O11 1.942054 1_565
Li0 O10 1.942054 1_655
Li0 O2 1.973668 1_554
Li0 O14 1.981204 1_555
Li1 O4 1.762306 1_555
Li1 O15 1.906278 1_564
Li1 O13 1.906278 1_654
Li1 O8 1.947259 1_664
Li2 O3 1.751927 1_555
Li2 O0 1.901816 1_655
Li2 O5 1.901816 1_565
Li2 O9 1.906568 1_555
Li3 O1 1.948060 1_555
Li3 O7 1.971757 1_455
Li3 O6 1.971757 1_545
Li3 O12 2.001643 1_555
Mn0 O3 1.904777 1_555
Mn0 O2 1.916116 1_555
Mn0 O7 1.931580 1_555
Mn0 O6 1.931580 1_555
Mn0 O15 1.969454 1_565
Mn0 O13 1.969454 1_655
Mn1 O4 1.921601 1_455
Mn1 O12 1.924287 1_555
Mn1 O10 1.930750 1_555
Mn1 O0 1.935913 1_555
Mn1 O14 1.948933 1_555
Mn1 O9 1.959662 1_455
Mn2 O4 1.921601 1_545
Mn2 O12 1.924287 1_555
Mn2 O11 1.930750 1_555
Mn2 O5 1.935913 1_555
Mn2 O14 1.948933 1_555
Mn2 O9 1.959662 1_545
Cr0 O8 1.934750 1_565
Cr0 O13 1.939295 1_555
Cr0 O1 1.959076 1_555
Cr0 O3 1.966595 1_455
Cr0 O2 1.969684 1_555
Cr0 O6 1.978147 1_555
Cr1 O8 1.934750 1_655
Cr1 O15 1.939295 1_555
Cr1 O1 1.959076 1_555
Cr1 O3 1.966595 1_545
Cr1 O2 1.969684 1_555
Cr1 O7 1.978147 1_555
Cr2 O10 1.978845 1_555
Cr2 O11 1.978845 1_555
Cr2 O12 1.980370 1_555
Cr2 O4 1.980820 1_445
Cr2 O5 1.988896 1_455
Cr2 O0 1.988896 1_545
Cu0 O5 2.044486 1_555
Cu0 O0 2.044486 1_555
Cu0 O9 2.077364 1_555
Cu0 O1 2.094091 1_555
Cu0 O6 2.127486 1_555
Cu0 O7 2.127486 1_555
Cu1 O13 2.063128 1_554
Cu1 O15 2.063128 1_554
Cu1 O8 2.069880 1_554
Cu1 O11 2.085554 1_555
Cu1 O10 2.085554 1_555
Cu1 O14 2.122089 1_555
