# generated using pymatgen
data_LiFe2(PO4)3
_symmetry_space_group_name_H-M   'P 1'
_cell_length_a   8.77916800
_cell_length_b   8.81996472
_cell_length_c   12.27433079
_cell_angle_alpha   89.78281014
_cell_angle_beta   89.87829750
_cell_angle_gamma   89.94737471
_symmetry_Int_Tables_number   1
_chemical_formula_structural   LiFe2(PO4)3
_chemical_formula_sum   'Li4 Fe8 P12 O48'
_cell_volume   950.41602624
_cell_formula_units_Z   4
loop_
 _symmetry_equiv_pos_site_id
 _symmetry_equiv_pos_as_xyz
  1  'x, y, z'
loop_
 _atom_site_type_symbol
 _atom_site_label
 _atom_site_symmetry_multiplicity
 _atom_site_fract_x
 _atom_site_fract_y
 _atom_site_fract_z
 _atom_site_occupancy
  Li  Li0  1  0.70915000  0.72759500  0.68589400  1
  Li  Li1  1  0.21574400  0.77811600  0.18072100  1
  Li  Li2  1  0.06610100  0.09039500  0.70858700  1
  Li  Li3  1  0.06116300  0.40881000  0.28817400  1
  Fe  Fe0  1  0.74142300  0.04482700  0.61565300  1
  Fe  Fe1  1  0.73878900  0.46665900  0.38085300  1
  Fe  Fe2  1  0.75231000  0.53351100  0.88658400  1
  Fe  Fe3  1  0.75361500  0.96020800  0.11790300  1
  Fe  Fe4  1  0.25568700  0.03477400  0.88691100  1
  Fe  Fe5  1  0.25768600  0.45610000  0.10994000  1
  Fe  Fe6  1  0.24915300  0.53797000  0.61828300  1
  Fe  Fe7  1  0.24961000  0.96626600  0.38680900  1
  P  P0  1  0.95896800  0.75160600  0.50229000  1
  P  P1  1  0.89256000  0.89561600  0.85226200  1
  P  P2  1  0.89688900  0.60843400  0.14663000  1
  P  P3  1  0.60507500  0.39671800  0.64598300  1
  P  P4  1  0.60754400  0.10700300  0.35421200  1
  P  P5  1  0.54020400  0.24846400  0.99850900  1
  P  P6  1  0.46654700  0.74728800  0.00096400  1
  P  P7  1  0.38976000  0.89364200  0.64756100  1
  P  P8  1  0.38179200  0.60310300  0.35175600  1
  P  P9  1  0.10605500  0.10764100  0.14675100  1
  P  P10  1  0.10947700  0.39052300  0.85368300  1
  P  P11  1  0.03702300  0.25053100  0.49949800  1
  O  O0  1  0.93936100  0.34699100  0.42083400  1
  O  O1  1  0.94404900  0.14521900  0.57523400  1
  O  O2  1  0.93643500  0.41286000  0.84314000  1
  O  O3  1  0.93087600  0.09432600  0.14717100  1
  O  O4  1  0.83947700  0.56235900  0.03399300  1
  O  O5  1  0.83042600  0.94054400  0.96403700  1
  O  O6  1  0.86936600  0.64428000  0.42761700  1
  O  O7  1  0.84367900  0.83802200  0.57476500  1
  O  O8  1  0.83522300  0.73496400  0.82301500  1
  O  O9  1  0.85281200  0.77283700  0.17141900  1
  O  O10  1  0.84432600  0.01055300  0.76301200  1
  O  O11  1  0.83884500  0.49407600  0.23391400  1
  O  O12  1  0.67156000  0.51238300  0.72837900  1
  O  O13  1  0.68246600  0.99920400  0.27142400  1
  O  O14  1  0.64673200  0.27336400  0.32883400  1
  O  O15  1  0.65202100  0.23311900  0.67039400  1
  O  O16  1  0.65082100  0.34091000  0.92813800  1
  O  O17  1  0.63237600  0.14114100  0.07134400  1
  O  O18  1  0.66166900  0.44548300  0.53254400  1
  O  O19  1  0.66159700  0.06306500  0.46834200  1
  O  O20  1  0.55630100  0.58985500  0.34368100  1
  O  O21  1  0.56411900  0.91017500  0.66348800  1
  O  O22  1  0.56259800  0.64160900  0.93097000  1
  O  O23  1  0.56608700  0.84250900  0.07840800  1
  O  O24  1  0.44477500  0.34984600  0.07335600  1
  O  O25  1  0.43943900  0.15587900  0.92083100  1
  O  O26  1  0.42970200  0.40658300  0.64918900  1
  O  O27  1  0.43400300  0.08716800  0.34117000  1
  O  O28  1  0.34377100  0.93132000  0.52979900  1
  O  O29  1  0.32891900  0.56684500  0.46818700  1
  O  O30  1  0.37859300  0.85565000  0.92602000  1
  O  O31  1  0.35189800  0.66143400  0.07468500  1
  O  O32  1  0.33235600  0.76722700  0.32206400  1
  O  O33  1  0.35237300  0.72526500  0.67157600  1
  O  O34  1  0.29659300  0.99880800  0.72402100  1
  O  O35  1  0.30199100  0.49190600  0.27281700  1
  O  O36  1  0.18038000  0.50136400  0.77105800  1
  O  O37  1  0.17012400  0.99083200  0.22979600  1
  O  O38  1  0.14440200  0.22249100  0.82599700  1
  O  O39  1  0.14668100  0.27350400  0.17458100  1
  O  O40  1  0.13137700  0.35273800  0.57465100  1
  O  O41  1  0.14696800  0.16023900  0.42674500  1
  O  O42  1  0.16780300  0.43105700  0.96678100  1
  O  O43  1  0.16961600  0.06089200  0.03554500  1
  O  O44  1  0.07365500  0.59729000  0.15316200  1
  O  O45  1  0.06854900  0.90240100  0.85578400  1
  O  O46  1  0.06005000  0.65763100  0.58002300  1
  O  O47  1  0.05766900  0.85598100  0.43162400  1
loop_
_geom_bond_atom_site_label_1
_geom_bond_atom_site_label_2
_geom_bond_distance
_geom_bond_site_symmetry_2
Li0 O12 1.994186 1_555
Li0 O8 2.017637 1_555
Li0 O7 2.046772 1_555
Li0 O21 2.069877 1_555
Li1 O37 2.012297 1_555
Li1 O32 2.018229 1_555
Li1 O31 2.045273 1_555
Li1 O44 2.055156 1_555
Li2 O38 1.981217 1_555
Li2 O1 2.015350 1_455
Li2 O10 2.174029 1_455
Li2 O34 2.186447 1_545
Li2 O45 2.447749 1_545
Li3 O39 1.984537 1_555
Li3 O0 2.019673 1_455
Li3 O11 2.194893 1_455
Li3 O35 2.245645 1_555
Li3 O44 2.345312 1_555
Fe0 O19 1.946628 1_555
Fe0 O15 1.956869 1_555
Fe0 O21 2.042637 1_545
Fe0 O10 2.044830 1_555
Fe0 O1 2.047050 1_555
Fe0 O7 2.094474 1_545
Fe1 O20 1.987886 1_555
Fe1 O18 1.988017 1_555
Fe1 O14 1.995081 1_555
Fe1 O11 2.018248 1_555
Fe1 O6 2.027508 1_555
Fe1 O0 2.109924 1_555
Fe2 O4 1.983386 1_556
Fe2 O16 1.983428 1_555
Fe2 O22 1.994224 1_555
Fe2 O2 2.006783 1_555
Fe2 O8 2.070064 1_555
Fe2 O12 2.077726 1_555
Fe3 O9 1.978018 1_555
Fe3 O3 1.989748 1_565
Fe3 O17 1.999672 1_565
Fe3 O23 2.008343 1_555
Fe3 O5 2.012085 1_554
Fe3 O13 2.014651 1_555
Fe4 O30 1.970787 1_545
Fe4 O25 1.981424 1_555
Fe4 O43 1.987317 1_556
Fe4 O45 2.053736 1_545
Fe4 O34 2.056358 1_545
Fe4 O38 2.060456 1_555
Fe5 O42 1.941211 1_554
Fe5 O24 1.942908 1_555
Fe5 O31 2.036297 1_555
Fe5 O39 2.040300 1_555
Fe5 O35 2.063048 1_555
Fe5 O44 2.107169 1_555
Fe6 O29 1.985123 1_555
Fe6 O36 1.994029 1_555
Fe6 O33 1.997853 1_555
Fe6 O26 1.998771 1_555
Fe6 O40 2.009258 1_555
Fe6 O46 2.021611 1_555
Fe7 O28 1.964778 1_555
Fe7 O41 1.995217 1_565
Fe7 O27 2.016501 1_565
Fe7 O47 2.020709 1_555
Fe7 O32 2.060798 1_555
Fe7 O37 2.061646 1_555
O0 P11 1.545046 1_655
O1 P11 1.544277 1_655
O2 P10 1.537372 1_655
O3 P9 1.542507 1_655
O4 P2 1.529122 1_555
O5 P1 1.528858 1_555
O6 P0 1.538166 1_555
O7 P0 1.548100 1_555
O8 P1 1.547877 1_555
O9 P2 1.531899 1_555
O10 P1 1.549139 1_545
O11 P2 1.554104 1_555
O12 P3 1.554245 1_555
O13 P4 1.540312 1_565
O14 P4 1.537974 1_555
O15 P3 1.529008 1_555
O16 P5 1.531842 1_555
O17 P5 1.531439 1_554
O18 P3 1.537370 1_555
O19 P4 1.528455 1_555
O20 P8 1.539399 1_555
O21 P7 1.550646 1_555
O22 P6 1.522991 1_556
O23 P6 1.543866 1_555
O24 P5 1.532006 1_554
O25 P5 1.539245 1_555
O26 P3 1.542433 1_555
O27 P4 1.542453 1_555
O28 P7 1.536672 1_555
O29 P8 1.534303 1_555
O30 P6 1.533258 1_556
O31 P6 1.548425 1_555
O32 P8 1.553112 1_555
O33 P7 1.548305 1_555
O34 P7 1.553092 1_555
O35 P8 1.550117 1_555
O36 P10 1.537091 1_555
O37 P9 1.552488 1_565
O38 P10 1.551923 1_555
O39 P9 1.545721 1_555
O40 P11 1.536437 1_555
O41 P11 1.537409 1_555
O42 P10 1.524544 1_555
O43 P9 1.531394 1_555
O44 P2 1.557094 1_455
O45 P1 1.546953 1_455
O46 P0 1.543083 1_455
O47 P0 1.530648 1_455
