# generated using pymatgen
data_LiMn2F6
_symmetry_space_group_name_H-M   'P 1'
_cell_length_a   4.75630800
_cell_length_b   4.76293000
_cell_length_c   10.63825778
_cell_angle_alpha   65.07785319
_cell_angle_beta   90.00000000
_cell_angle_gamma   90.00000000
_symmetry_Int_Tables_number   1
_chemical_formula_structural   LiMn2F6
_chemical_formula_sum   'Li2 Mn4 F12'
_cell_volume   218.55717994
_cell_formula_units_Z   2
loop_
 _symmetry_equiv_pos_site_id
 _symmetry_equiv_pos_as_xyz
  1  'x, y, z'
loop_
 _atom_site_type_symbol
 _atom_site_label
 _atom_site_symmetry_multiplicity
 _atom_site_fract_x
 _atom_site_fract_y
 _atom_site_fract_z
 _atom_site_occupancy
  Li  Li0  1  0.00000000  0.00000000  0.00000000  1
  Li  Li1  1  0.50000000  0.00000000  0.50000000  1
  Mn  Mn0  1  0.50039800  0.33019600  0.16596600  1
  Mn  Mn1  1  0.00039800  0.66980400  0.33403400  1
  Mn  Mn2  1  0.99960200  0.33019600  0.66596600  1
  Mn  Mn3  1  0.49960200  0.66980400  0.83403400  1
  F  F0  1  0.69625600  0.29704000  0.00471000  1
  F  F1  1  0.20013100  0.03731300  0.16675500  1
  F  F2  1  0.79700900  0.61824700  0.17718400  1
  F  F3  1  0.70013100  0.96268700  0.33324500  1
  F  F4  1  0.29700900  0.38175300  0.32281600  1
  F  F5  1  0.19625600  0.70296000  0.49529000  1
  F  F6  1  0.80374400  0.29704000  0.50471000  1
  F  F7  1  0.70299100  0.61824700  0.67718400  1
  F  F8  1  0.29986900  0.03731300  0.66675500  1
  F  F9  1  0.20299100  0.38175300  0.82281600  1
  F  F10  1  0.79986900  0.96268700  0.83324500  1
  F  F11  1  0.30374400  0.70296000  0.99529000  1
loop_
_geom_bond_atom_site_label_1
_geom_bond_atom_site_label_2
_geom_bond_distance
_geom_bond_site_symmetry_2
F0 Mn0 2.015922 1_555
F0 Li0 2.037404 1_655
F0 Mn3 2.146396 1_554
F1 Mn0 1.993947 1_555
F1 Li0 2.085758 1_555
F1 Mn1 2.123220 1_545
F2 Mn0 2.006191 1_555
F2 Mn1 2.031185 1_655
F2 Li0 2.214220 1_665
F3 Mn1 1.993947 1_655
F3 Li1 2.085758 1_565
F3 Mn0 2.123220 1_565
F4 Mn1 2.006191 1_555
F4 Mn0 2.031185 1_555
F4 Li1 2.214220 1_555
F5 Mn1 2.015922 1_555
F5 Li1 2.037404 1_565
F5 Mn2 2.146396 1_455
F6 Mn2 2.015922 1_555
F6 Li1 2.037404 1_555
F6 Mn1 2.146396 1_655
F7 Mn2 2.006191 1_555
F7 Mn3 2.031185 1_555
F7 Li1 2.214220 1_565
F8 Mn2 1.993947 1_455
F8 Li1 2.085758 1_555
F8 Mn3 2.123220 1_545
F9 Mn3 2.006191 1_555
F9 Mn2 2.031185 1_455
F9 Li0 2.214220 1_556
F10 Mn3 1.993947 1_555
F10 Li0 2.085758 1_666
F10 Mn2 2.123220 1_565
F11 Mn3 2.015922 1_555
F11 Li0 2.037404 1_566
F11 Mn0 2.146396 1_556
