# generated using pymatgen
data_Li2Mn2Fe(PO4)3
_symmetry_space_group_name_H-M   'P 1'
_cell_length_a   8.61539327
_cell_length_b   8.61539327
_cell_length_c   8.30726204
_cell_angle_alpha   64.47213962
_cell_angle_beta   64.47213962
_cell_angle_gamma   62.64644855
_symmetry_Int_Tables_number   1
_chemical_formula_structural   Li2Mn2Fe(PO4)3
_chemical_formula_sum   'Li4 Mn4 Fe2 P6 O24'
_cell_volume   472.86516115
_cell_formula_units_Z   2
loop_
 _symmetry_equiv_pos_site_id
 _symmetry_equiv_pos_as_xyz
  1  'x, y, z'
loop_
 _atom_site_type_symbol
 _atom_site_label
 _atom_site_symmetry_multiplicity
 _atom_site_fract_x
 _atom_site_fract_y
 _atom_site_fract_z
 _atom_site_occupancy
  Li  Li0  1  0.86270600  0.13729400  0.00000000  1
  Li  Li1  1  0.16010900  0.83989100  0.50000000  1
  Li  Li2  1  0.75411200  0.65296600  0.09803700  1
  Li  Li3  1  0.34703400  0.24588800  0.90196300  1
  Mn  Mn0  1  0.85223800  0.35274900  0.60617000  1
  Mn  Mn1  1  0.64725100  0.14776200  0.39383000  1
  Mn  Mn2  1  0.34472400  0.84440400  0.09490300  1
  Mn  Mn3  1  0.15559600  0.65527600  0.90509700  1
  Fe  Fe0  1  0.00243800  0.50520800  0.74168500  1
  Fe  Fe1  1  0.49479200  0.99756200  0.25831500  1
  P  P0  1  0.24694600  0.06149900  0.68034900  1
  P  P1  1  0.93850100  0.75305400  0.31965100  1
  P  P2  1  0.56267200  0.43732800  0.00000000  1
  P  P3  1  0.45971700  0.54028300  0.50000000  1
  P  P4  1  0.04482800  0.24999400  0.19261700  1
  P  P5  1  0.75000600  0.95517200  0.80738300  1
  O  O0  1  0.67946600  0.02089600  0.64052100  1
  O  O1  1  0.50286900  0.38763900  0.42316700  1
  O  O2  1  0.08011400  0.24866900  0.67821800  1
  O  O3  1  0.90661400  0.18052900  0.20127500  1
  O  O4  1  0.18925100  0.90427200  0.71073900  1
  O  O5  1  0.39383400  0.08290100  0.48930900  1
  O  O6  1  0.91709900  0.60616600  0.51069100  1
  O  O7  1  0.75133100  0.91988600  0.32178200  1
  O  O8  1  0.61236100  0.49713100  0.57683300  1
  O  O9  1  0.58952500  0.24327400  0.15128300  1
  O  O10  1  0.26603400  0.56072700  0.64776500  1
  O  O11  1  0.97910400  0.32053400  0.35947900  1
  O  O12  1  0.96272600  0.69224400  0.15886200  1
  O  O13  1  0.75672600  0.41047500  0.84871700  1
  O  O14  1  0.43927300  0.73396600  0.35223500  1
  O  O15  1  0.40643700  0.46257800  0.93983600  1
  O  O16  1  0.24044100  0.10118700  0.18616400  1
  O  O17  1  0.07060700  0.40367700  0.99981200  1
  O  O18  1  0.59632300  0.92939300  0.00018800  1
  O  O19  1  0.81947100  0.09338600  0.79872500  1
  O  O20  1  0.09572800  0.81074900  0.28926100  1
  O  O21  1  0.89881300  0.75955900  0.81383600  1
  O  O22  1  0.53742200  0.59356300  0.06016400  1
  O  O23  1  0.30775600  0.03727400  0.84113800  1
loop_
_geom_bond_atom_site_label_1
_geom_bond_atom_site_label_2
_geom_bond_distance
_geom_bond_site_symmetry_2
Li0 O19 2.070997 1_554
Li0 O3 2.070997 1_555
Li0 O13 2.101717 1_554
Li0 O9 2.101717 1_555
Li0 O7 2.588450 1_545
Li0 O2 2.588450 1_654
Li1 O14 2.127929 1_555
Li1 O10 2.127929 1_555
Li1 O4 2.186153 1_555
Li1 O20 2.186153 1_555
Li2 O18 2.118775 1_555
Li2 O21 2.148966 1_554
Li2 O12 2.255904 1_555
Li2 O22 2.317138 1_555
Li2 O14 2.626301 1_555
Li2 O17 2.631485 1_654
Li3 O17 2.118775 1_555
Li3 O16 2.148966 1_556
Li3 O23 2.255904 1_555
Li3 O15 2.317138 1_555
Li3 O10 2.626301 1_555
Li3 O18 2.631485 1_546
Mn0 O8 1.920449 1_555
Mn0 O11 1.937085 1_555
Mn0 O2 1.987219 1_655
Mn0 O13 2.010687 1_555
Mn0 O19 2.177438 1_555
Mn0 O6 2.225914 1_555
Mn1 O1 1.920449 1_555
Mn1 O0 1.937085 1_555
Mn1 O7 1.987219 1_545
Mn1 O9 2.010687 1_555
Mn1 O3 2.177438 1_555
Mn1 O5 2.225914 1_555
Mn2 O22 2.082628 1_555
Mn2 O23 2.092790 1_564
Mn2 O20 2.115572 1_555
Mn2 O14 2.274695 1_555
Mn2 O16 2.303941 1_565
Mn2 O18 2.312099 1_555
Mn3 O15 2.082628 1_555
Mn3 O12 2.092790 1_456
Mn3 O4 2.115572 1_555
Mn3 O10 2.274695 1_555
Mn3 O21 2.303941 1_455
Mn3 O17 2.312099 1_555
Fe0 O6 2.041851 1_455
Fe0 O17 2.169079 1_555
Fe0 O21 2.198014 1_455
Fe0 O2 2.225260 1_555
Fe0 O10 2.268103 1_555
Fe0 O13 2.297378 1_455
Fe1 O5 2.041851 1_565
Fe1 O18 2.169079 1_555
Fe1 O16 2.198014 1_565
Fe1 O7 2.225260 1_555
Fe1 O14 2.268103 1_555
Fe1 O9 2.297378 1_565
O0 P5 1.531260 1_545
O1 P3 1.531246 1_555
O2 P0 1.591829 1_555
O3 P4 1.524871 1_655
O4 P0 1.536723 1_565
O5 P0 1.544447 1_555
O6 P1 1.544447 1_555
O7 P1 1.591829 1_555
O8 P3 1.531246 1_555
O9 P2 1.585008 1_555
O10 P3 1.572599 1_555
O11 P4 1.531260 1_655
O12 P1 1.537712 1_555
O13 P2 1.585008 1_556
O14 P3 1.572599 1_555
O15 P2 1.525106 1_556
O16 P4 1.575606 1_555
O17 P4 1.582277 1_556
O18 P5 1.582277 1_554
O19 P5 1.524871 1_545
O20 P1 1.536723 1_455
O21 P5 1.575606 1_555
O22 P2 1.525106 1_555
O23 P0 1.537712 1_555
