# generated using pymatgen
data_K4Li3Mn2O8
_symmetry_space_group_name_H-M   'P 1'
_cell_length_a   8.45118200
_cell_length_b   5.64931600
_cell_length_c   11.45768997
_cell_angle_alpha   72.60821518
_cell_angle_beta   90.00000000
_cell_angle_gamma   90.00000000
_symmetry_Int_Tables_number   1
_chemical_formula_structural   K4Li3Mn2O8
_chemical_formula_sum   'K8 Li6 Mn4 O16'
_cell_volume   522.02062889
_cell_formula_units_Z   2
loop_
 _symmetry_equiv_pos_site_id
 _symmetry_equiv_pos_as_xyz
  1  'x, y, z'
loop_
 _atom_site_type_symbol
 _atom_site_label
 _atom_site_symmetry_multiplicity
 _atom_site_fract_x
 _atom_site_fract_y
 _atom_site_fract_z
 _atom_site_occupancy
  K  K0  1  0.25342700  0.32666600  0.84507300  1
  K  K1  1  0.98979000  0.78284700  0.38029600  1
  K  K2  1  0.75100100  0.68969500  0.66379400  1
  K  K3  1  0.01021000  0.78284700  0.88029600  1
  K  K4  1  0.46039800  0.26322200  0.11414400  1
  K  K5  1  0.74657300  0.32666600  0.34507300  1
  K  K6  1  0.53960200  0.26322200  0.61414400  1
  K  K7  1  0.24899900  0.68969500  0.16379400  1
  Li  Li0  1  0.72013900  0.34060700  0.92344600  1
  Li  Li1  1  0.23548800  0.62347700  0.56833500  1
  Li  Li2  1  0.70113500  0.89707400  0.20147600  1
  Li  Li3  1  0.29886500  0.89707400  0.70147600  1
  Li  Li4  1  0.27986100  0.34060700  0.42344600  1
  Li  Li5  1  0.76451200  0.62347700  0.06833500  1
  Mn  Mn0  1  0.95856700  0.13112500  0.06972200  1
  Mn  Mn1  1  0.46426200  0.86747900  0.42847200  1
  Mn  Mn2  1  0.04143300  0.13112500  0.56972200  1
  Mn  Mn3  1  0.53573800  0.86747900  0.92847200  1
  O  O0  1  0.54749300  0.19762500  0.86464700  1
  O  O1  1  0.94009300  0.22678300  0.91402700  1
  O  O2  1  0.29781400  0.69202800  0.39836100  1
  O  O3  1  0.66541700  0.82048500  0.37815200  1
  O  O4  1  0.43730700  0.76721000  0.59721500  1
  O  O5  1  0.07387900  0.81176200  0.63276300  1
  O  O6  1  0.14037200  0.21359000  0.10508100  1
  O  O7  1  0.70218600  0.69202800  0.89836100  1
  O  O8  1  0.79049000  0.25417400  0.12086200  1
  O  O9  1  0.33458300  0.82048500  0.87815200  1
  O  O10  1  0.45250700  0.19762500  0.36464700  1
  O  O11  1  0.05990700  0.22678300  0.41402700  1
  O  O12  1  0.85962800  0.21359000  0.60508100  1
  O  O13  1  0.20951000  0.25417400  0.62086200  1
  O  O14  1  0.56269300  0.76721000  0.09721500  1
  O  O15  1  0.92612100  0.81176200  0.13276300  1
loop_
_geom_bond_atom_site_label_1
_geom_bond_atom_site_label_2
_geom_bond_distance
_geom_bond_site_symmetry_2
K0 O0 2.580744 1_555
K0 O13 2.744786 1_555
K0 O1 2.772762 1_455
K0 O9 2.853652 1_545
K0 O9 3.004794 1_555
K0 O6 3.009697 1_556
K1 O2 2.649353 1_655
K1 O11 2.714715 1_665
K1 O3 2.749111 1_555
K1 O15 2.843068 1_555
K1 O5 3.030154 1_655
K1 O11 3.105318 1_655
K2 O7 2.722997 1_555
K2 O4 2.757216 1_555
K2 O5 2.810905 1_655
K2 O12 2.977348 1_565
K2 O12 3.100208 1_555
K2 O3 3.214758 1_555
K3 O7 2.649353 1_455
K3 O1 2.714715 1_465
K3 O9 2.749111 1_555
K3 O5 2.843068 1_555
K3 O15 3.030154 1_456
K3 O1 3.105318 1_455
K4 O6 2.724272 1_555
K4 O10 2.782786 1_555
K4 O8 2.790776 1_555
K4 O14 2.925976 1_555
K4 O14 2.993635 1_545
K4 O0 3.079664 1_554
K5 O10 2.580744 1_555
K5 O8 2.744786 1_555
K5 O11 2.772762 1_655
K5 O3 2.853652 1_545
K5 O3 3.004794 1_555
K5 O12 3.009697 1_555
K6 O12 2.724272 1_555
K6 O0 2.782786 1_555
K6 O13 2.790776 1_555
K6 O4 2.925976 1_555
K6 O4 2.993635 1_545
K6 O10 3.079664 1_555
K7 O2 2.722997 1_555
K7 O14 2.757216 1_555
K7 O15 2.810905 1_455
K7 O6 2.977348 1_565
K7 O6 3.100208 1_555
K7 O9 3.214758 1_554
Li0 O0 1.886932 1_555
Li0 O7 1.925068 1_555
Li0 O1 1.980409 1_555
Li0 O8 2.246772 1_556
Li1 O2 1.941479 1_555
Li1 O4 1.959222 1_555
Li1 O5 2.002780 1_555
Li1 O13 2.003117 1_555
Li2 O3 1.962782 1_555
Li2 O14 1.964203 1_555
Li2 O8 2.092666 1_565
Li2 O15 2.166623 1_555
Li3 O9 1.962782 1_555
Li3 O4 1.964203 1_555
Li3 O13 2.092666 1_565
Li3 O5 2.166623 1_555
Li4 O10 1.886932 1_555
Li4 O2 1.925068 1_555
Li4 O11 1.980409 1_555
Li4 O13 2.246772 1_555
Li5 O7 1.941479 1_554
Li5 O14 1.959222 1_555
Li5 O15 2.002780 1_555
Li5 O8 2.003117 1_555
Mn0 O6 1.689594 1_655
Mn0 O1 1.709510 1_554
Mn0 O15 1.752981 1_545
Mn0 O8 1.757194 1_555
Mn1 O10 1.791056 1_565
Mn1 O2 1.812358 1_555
Mn1 O3 1.839671 1_555
Mn1 O4 1.859061 1_555
Mn2 O12 1.689594 1_455
Mn2 O11 1.709510 1_555
Mn2 O5 1.752981 1_545
Mn2 O13 1.757194 1_555
Mn3 O0 1.791056 1_565
Mn3 O7 1.812358 1_555
Mn3 O9 1.839671 1_555
Mn3 O14 1.859061 1_556
