# generated using pymatgen
data_SrCaSi
_symmetry_space_group_name_H-M   'P 1'
_cell_length_a   4.93363845
_cell_length_b   8.10373527
_cell_length_c   9.12175230
_cell_angle_alpha   90.00000000
_cell_angle_beta   90.00000000
_cell_angle_gamma   90.00000000
_symmetry_Int_Tables_number   1
_chemical_formula_structural   SrCaSi
_chemical_formula_sum   'Sr4 Ca4 Si4'
_cell_volume   364.69586577
_cell_formula_units_Z   4
loop_
 _symmetry_equiv_pos_site_id
 _symmetry_equiv_pos_as_xyz
  1  'x, y, z'
loop_
 _atom_site_type_symbol
 _atom_site_label
 _atom_site_symmetry_multiplicity
 _atom_site_fract_x
 _atom_site_fract_y
 _atom_site_fract_z
 _atom_site_occupancy
  Sr  Sr0  1  0.25000000  0.52218360  0.82114013  1
  Sr  Sr1  1  0.25000000  0.02218360  0.67885987  1
  Sr  Sr2  1  0.75000000  0.97781640  0.32114013  1
  Sr  Sr3  1  0.75000000  0.47781640  0.17885987  1
  Ca  Ca0  1  0.75000000  0.35260534  0.57368368  1
  Ca  Ca1  1  0.25000000  0.14739466  0.07368368  1
  Ca  Ca2  1  0.75000000  0.85260534  0.92631632  1
  Ca  Ca3  1  0.25000000  0.64739466  0.42631632  1
  Si  Si0  1  0.25000000  0.76763358  0.10608723  1
  Si  Si1  1  0.25000000  0.26763358  0.39391277  1
  Si  Si2  1  0.75000000  0.23236642  0.89391277  1
  Si  Si3  1  0.75000000  0.73236642  0.60608723  1
loop_
_geom_bond_atom_site_label_1
_geom_bond_atom_site_label_2
_geom_bond_distance
_geom_bond_site_symmetry_2
Ca0 Si1 3.041115 1_555
Ca0 Si1 3.041115 1_655
Ca0 Si2 3.079279 1_555
Ca0 Si3 3.091645 1_555
Ca1 Si2 3.041115 1_554
Ca1 Si2 3.041115 1_454
Ca1 Si1 3.079279 1_555
Ca1 Si0 3.091645 1_545
Ca2 Si0 3.041115 1_556
Ca2 Si0 3.041115 1_656
Ca2 Si3 3.079279 1_555
Ca2 Si2 3.091645 1_565
Ca3 Si3 3.041115 1_555
Ca3 Si3 3.041115 1_455
Ca3 Si0 3.079279 1_555
Ca3 Si1 3.091645 1_555
Si0 Sr0 3.272964 1_554
Si0 Sr3 3.470126 1_555
Si0 Sr3 3.470126 1_455
Si0 Sr2 3.582516 1_455
Si0 Sr2 3.582516 1_555
Si1 Sr1 3.272964 1_555
Si1 Sr2 3.470126 1_545
Si1 Sr2 3.470126 1_445
Si1 Sr3 3.582516 1_455
Si1 Sr3 3.582516 1_555
Si2 Sr3 3.272964 1_556
Si2 Sr0 3.470126 1_555
Si2 Sr0 3.470126 1_655
Si2 Sr1 3.582516 1_555
Si2 Sr1 3.582516 1_655
Si3 Sr2 3.272964 1_555
Si3 Sr1 3.470126 1_565
Si3 Sr1 3.470126 1_665
Si3 Sr0 3.582516 1_655
Si3 Sr0 3.582516 1_555
