# generated using pymatgen
data_LiV(SO4)2
_symmetry_space_group_name_H-M   'P 1'
_cell_length_a   9.05460473
_cell_length_b   9.00222408
_cell_length_c   9.03522372
_cell_angle_alpha   55.67974771
_cell_angle_beta   55.40850060
_cell_angle_gamma   55.40067558
_symmetry_Int_Tables_number   1
_chemical_formula_structural   LiV(SO4)2
_chemical_formula_sum   'Li3 V3 S6 O24'
_cell_volume   466.30222389
_cell_formula_units_Z   3
loop_
 _symmetry_equiv_pos_site_id
 _symmetry_equiv_pos_as_xyz
  1  'x, y, z'
loop_
 _atom_site_type_symbol
 _atom_site_label
 _atom_site_symmetry_multiplicity
 _atom_site_fract_x
 _atom_site_fract_y
 _atom_site_fract_z
 _atom_site_occupancy
  Li  Li0  1  0.17158100  0.13119600  0.15748700  1
  Li  Li1  1  0.17817000  0.40940800  0.78103900  1
  Li  Li2  1  0.78085300  0.17922200  0.40906600  1
  V  V0  1  0.35592400  0.35303800  0.34797200  1
  V  V1  1  0.63911800  0.64618000  0.64561600  1
  V  V2  1  0.84871500  0.85348400  0.85504900  1
  S  S0  1  0.03527500  0.74223800  0.47104400  1
  S  S1  1  0.46567400  0.03958400  0.74685100  1
  S  S2  1  0.74808500  0.47088800  0.03263500  1
  S  S3  1  0.24919800  0.54442600  0.95353300  1
  S  S4  1  0.53720400  0.95764700  0.25454100  1
  S  S5  1  0.95573400  0.25030600  0.54159000  1
  O  O0  1  0.11069100  0.29435500  0.50555300  1
  O  O1  1  0.29919700  0.50532100  0.10530300  1
  O  O2  1  0.00506900  0.94519400  0.34936800  1
  O  O3  1  0.51814500  0.10962100  0.29724300  1
  O  O4  1  0.02629600  0.69954400  0.66441400  1
  O  O5  1  0.22992300  0.61136400  0.38519600  1
  O  O6  1  0.37964300  0.24055600  0.61545200  1
  O  O7  1  0.34034000  0.01738000  0.94466100  1
  O  O8  1  0.62784500  0.37506600  0.23368100  1
  O  O9  1  0.04513400  0.68139300  0.98514000  1
  O  O10  1  0.27513000  0.36666000  0.95543600  1
  O  O11  1  0.35248600  0.97502800  0.28799400  1
  O  O12  1  0.66132300  0.02801600  0.70067000  1
  O  O13  1  0.71054300  0.66149900  0.02022600  1
  O  O14  1  0.95127600  0.34333000  0.99908200  1
  O  O15  1  0.37567700  0.63869300  0.76190700  1
  O  O16  1  0.67059800  0.98686300  0.04897400  1
  O  O17  1  0.63192300  0.76594700  0.37920700  1
  O  O18  1  0.76581100  0.37761700  0.63774800  1
  O  O19  1  0.95882900  0.27474100  0.36457900  1
  O  O20  1  0.49650000  0.90009700  0.68624700  1
  O  O21  1  0.98285400  0.04577700  0.67876000  1
  O  O22  1  0.68264300  0.50052200  0.89790400  1
  O  O23  1  0.88999300  0.68800000  0.50402800  1
loop_
_geom_bond_atom_site_label_1
_geom_bond_atom_site_label_2
_geom_bond_distance
_geom_bond_site_symmetry_2
Li0 O11 1.938687 1_545
Li0 O7 2.046887 1_554
Li0 O10 2.157527 1_554
Li0 O19 2.165335 1_455
Li0 O2 2.169843 1_545
Li0 O14 2.346879 1_454
Li1 O10 1.976113 1_555
Li1 O14 1.981554 1_455
Li1 O6 2.047711 1_555
Li1 O4 2.070284 1_555
Li2 O19 1.986550 1_555
Li2 O2 2.007910 1_645
Li2 O8 2.026635 1_555
Li2 O12 2.087373 1_555
O0 S5 1.483044 1_455
O0 V0 2.032518 1_555
O1 S3 1.479469 1_554
O1 V0 2.010016 1_555
O2 S0 1.459615 1_555
O3 S4 1.517181 1_545
O3 V0 1.970319 1_555
O4 S0 1.524411 1_555
O4 V2 2.118731 1_455
O5 S0 1.488644 1_555
O5 V0 2.062987 1_555
O6 S1 1.522161 1_555
O6 V0 2.120130 1_555
O7 S1 1.440109 1_555
O8 S2 1.511021 1_555
O8 V0 2.145808 1_555
O9 S3 1.492152 1_555
O9 V2 2.033674 1_455
O10 S3 1.470775 1_555
O11 S4 1.447541 1_555
O12 S1 1.524283 1_555
O12 V2 2.116982 1_545
O13 S2 1.495467 1_555
O13 V2 2.050987 1_554
O14 S2 1.468124 1_556
O15 S3 1.491601 1_555
O15 V1 2.013801 1_555
O16 S4 1.496820 1_555
O16 V2 2.019253 1_554
O17 S4 1.485435 1_555
O17 V1 2.032848 1_555
O18 S5 1.487861 1_555
O18 V1 2.029194 1_555
O19 S5 1.471885 1_555
O20 S1 1.469107 1_565
O20 V1 2.020653 1_555
O21 S5 1.498430 1_555
O21 V2 2.022567 1_545
O22 S2 1.475626 1_556
O22 V1 2.033076 1_555
O23 S0 1.475770 1_655
O23 V1 2.016652 1_555
