# generated using pymatgen
data_MnOF
_symmetry_space_group_name_H-M   'P 1'
_cell_length_a   4.53620600
_cell_length_b   5.70046500
_cell_length_c   5.17916400
_cell_angle_alpha   90.00006334
_cell_angle_beta   90.00005845
_cell_angle_gamma   90.00020156
_symmetry_Int_Tables_number   1
_chemical_formula_structural   MnOF
_chemical_formula_sum   'Mn4 O4 F4'
_cell_volume   133.92532702
_cell_formula_units_Z   4
loop_
 _symmetry_equiv_pos_site_id
 _symmetry_equiv_pos_as_xyz
  1  'x, y, z'
loop_
 _atom_site_type_symbol
 _atom_site_label
 _atom_site_symmetry_multiplicity
 _atom_site_fract_x
 _atom_site_fract_y
 _atom_site_fract_z
 _atom_site_occupancy
  Mn  Mn0  1  0.01438100  0.84880900  0.72359600  1
  Mn  Mn1  1  0.01436600  0.15118300  0.22358900  1
  Mn  Mn2  1  0.51437900  0.34880800  0.77641000  1
  Mn  Mn3  1  0.51437100  0.65118700  0.27640500  1
  O  O0  1  0.22609800  0.11556900  0.90273900  1
  O  O1  1  0.22609700  0.88443800  0.40273300  1
  O  O2  1  0.72609700  0.38443600  0.09726200  1
  O  O3  1  0.72609800  0.61556900  0.59726300  1
  F  F0  1  0.25952500  0.38203200  0.46291900  1
  F  F1  1  0.25952600  0.61796800  0.96292100  1
  F  F2  1  0.75952600  0.11796900  0.53708200  1
  F  F3  1  0.75953100  0.88203200  0.03708100  1
loop_
_geom_bond_atom_site_label_1
_geom_bond_atom_site_label_2
_geom_bond_distance
_geom_bond_site_symmetry_2
Mn0 O1 1.930073 1_555
Mn0 O3 1.976354 1_455
Mn0 O0 2.023750 1_565
Mn1 O0 1.930043 1_554
Mn1 O2 1.976358 1_455
Mn1 O1 2.023725 1_545
Mn2 O2 1.930026 1_556
Mn2 O0 1.976339 1_555
Mn2 O3 2.023771 1_555
Mn3 O3 1.930068 1_555
Mn3 O1 1.976367 1_555
Mn3 O2 2.023737 1_555
F0 Mn2 2.002127 1_555
F0 Mn1 2.122470 1_555
F0 Mn3 2.150265 1_555
F1 Mn3 2.002070 1_556
F1 Mn0 2.122400 1_555
F1 Mn2 2.150300 1_555
F2 Mn1 2.002094 1_655
F2 Mn2 2.122406 1_555
F2 Mn0 2.150312 1_645
F3 Mn0 2.002092 1_654
F3 Mn3 2.122443 1_555
F3 Mn1 2.150206 1_665
