# generated using pymatgen
data_CeBrO
_symmetry_space_group_name_H-M   'P 1'
_cell_length_a   10.38279357
_cell_length_b   10.38279357
_cell_length_c   10.38279385
_cell_angle_alpha   22.18682147
_cell_angle_beta   22.18682147
_cell_angle_gamma   22.18682041
_symmetry_Int_Tables_number   1
_chemical_formula_structural   CeBrO
_chemical_formula_sum   'Ce2 Br2 O2'
_cell_volume   139.95622118
_cell_formula_units_Z   2
loop_
 _symmetry_equiv_pos_site_id
 _symmetry_equiv_pos_as_xyz
  1  'x, y, z'
loop_
 _atom_site_type_symbol
 _atom_site_label
 _atom_site_symmetry_multiplicity
 _atom_site_fract_x
 _atom_site_fract_y
 _atom_site_fract_z
 _atom_site_occupancy
  Ce  Ce0  1  0.21507500  0.21507500  0.21507500  1
  Ce  Ce1  1  0.78492500  0.78492500  0.78492500  1
  Br  Br0  1  0.38623500  0.38623500  0.38623500  1
  Br  Br1  1  0.61376500  0.61376500  0.61376500  1
  O  O0  1  0.13733100  0.13733100  0.13733100  1
  O  O1  1  0.86266900  0.86266900  0.86266900  1
loop_
_geom_bond_atom_site_label_1
_geom_bond_atom_site_label_2
_geom_bond_distance
_geom_bond_site_symmetry_2
Ce0 O0 2.361076 1_555
Ce0 O1 2.378407 1_454
Ce0 O1 2.378407 1_544
Ce0 O1 2.378407 1_445
Ce1 O1 2.361076 1_555
Ce1 O0 2.378407 1_566
Ce1 O0 2.378407 1_656
Ce1 O0 2.378407 1_665
Br0 Ce1 3.043195 1_554
Br0 Ce1 3.043195 1_455
Br0 Ce1 3.043195 1_545
Br1 Ce0 3.043195 1_556
Br1 Ce0 3.043195 1_565
Br1 Ce0 3.043195 1_655
