# generated using pymatgen
data_K4H4WC8(N4O)2
_symmetry_space_group_name_H-M   'P 1'
_cell_length_a   8.80965600
_cell_length_b   11.91402400
_cell_length_c   17.02935900
_cell_angle_alpha   90.00000000
_cell_angle_beta   90.00000000
_cell_angle_gamma   90.00000000
_symmetry_Int_Tables_number   1
_chemical_formula_structural   K4H4WC8(N4O)2
_chemical_formula_sum   'K16 H16 W4 C32 N32 O8'
_cell_volume   1787.37517649
_cell_formula_units_Z   4
loop_
 _symmetry_equiv_pos_site_id
 _symmetry_equiv_pos_as_xyz
  1  'x, y, z'
loop_
 _atom_site_type_symbol
 _atom_site_label
 _atom_site_symmetry_multiplicity
 _atom_site_fract_x
 _atom_site_fract_y
 _atom_site_fract_z
 _atom_site_occupancy
  K  K0  1  0.53106600  0.25000000  0.36152500  1
  K  K1  1  0.96893400  0.25000000  0.86152500  1
  K  K2  1  0.46893400  0.75000000  0.63847500  1
  K  K3  1  0.03106600  0.75000000  0.13847500  1
  K  K4  1  0.02116400  0.25000000  0.45716200  1
  K  K5  1  0.47883600  0.25000000  0.95716200  1
  K  K6  1  0.97883600  0.75000000  0.54283800  1
  K  K7  1  0.52116400  0.75000000  0.04283800  1
  K  K8  1  0.80422300  0.04985400  0.65093900  1
  K  K9  1  0.69577700  0.45014600  0.15093900  1
  K  K10  1  0.19577700  0.54985400  0.34906100  1
  K  K11  1  0.30422300  0.95014600  0.84906100  1
  K  K12  1  0.19577700  0.95014600  0.34906100  1
  K  K13  1  0.30422300  0.54985400  0.84906100  1
  K  K14  1  0.80422300  0.45014600  0.65093900  1
  K  K15  1  0.69577700  0.04985400  0.15093900  1
  H  H0  1  0.86830900  0.01576900  0.43195500  1
  H  H1  1  0.63169100  0.48423100  0.93195500  1
  H  H2  1  0.13169100  0.51576900  0.56804500  1
  H  H3  1  0.36830900  0.98423100  0.06804500  1
  H  H4  1  0.13169100  0.98423100  0.56804500  1
  H  H5  1  0.36830900  0.51576900  0.06804500  1
  H  H6  1  0.86830900  0.48423100  0.43195500  1
  H  H7  1  0.63169100  0.01576900  0.93195500  1
  H  H8  1  0.84329400  0.05087500  0.34635400  1
  H  H9  1  0.65670600  0.44912500  0.84635400  1
  H  H10  1  0.15670600  0.55087500  0.65364600  1
  H  H11  1  0.34329400  0.94912500  0.15364600  1
  H  H12  1  0.15670600  0.94912500  0.65364600  1
  H  H13  1  0.34329400  0.55087500  0.15364600  1
  H  H14  1  0.84329400  0.44912500  0.34635400  1
  H  H15  1  0.65670600  0.05087500  0.84635400  1
  W  W0  1  0.40287800  0.25000000  0.63598300  1
  W  W1  1  0.09712200  0.25000000  0.13598300  1
  W  W2  1  0.59712200  0.75000000  0.36401700  1
  W  W3  1  0.90287800  0.75000000  0.86401700  1
  C  C0  1  0.15588000  0.25000000  0.64051900  1
  C  C1  1  0.34412000  0.25000000  0.14051900  1
  C  C2  1  0.84412000  0.75000000  0.35948100  1
  C  C3  1  0.65588000  0.75000000  0.85948100  1
  C  C4  1  0.60147400  0.25000000  0.71485400  1
  C  C5  1  0.89852600  0.25000000  0.21485400  1
  C  C6  1  0.39852600  0.75000000  0.28514600  1
  C  C7  1  0.10147400  0.75000000  0.78514600  1
  C  C8  1  0.60532000  0.25000000  0.56076600  1
  C  C9  1  0.89468000  0.25000000  0.06076600  1
  C  C10  1  0.39468000  0.75000000  0.43923400  1
  C  C11  1  0.10532000  0.75000000  0.93923400  1
  C  C12  1  0.32375700  0.25000000  0.75845400  1
  C  C13  1  0.17624300  0.25000000  0.25845400  1
  C  C14  1  0.67624300  0.75000000  0.24154600  1
  C  C15  1  0.82375700  0.75000000  0.74154600  1
  C  C16  1  0.42794800  0.42520900  0.67163000  1
  C  C17  1  0.07205200  0.07479100  0.17163000  1
  C  C18  1  0.57205200  0.92520900  0.32837000  1
  C  C19  1  0.92794800  0.57479100  0.82837000  1
  C  C20  1  0.57205200  0.57479100  0.32837000  1
  C  C21  1  0.92794800  0.92520900  0.82837000  1
  C  C22  1  0.42794800  0.07479100  0.67163000  1
  C  C23  1  0.07205200  0.42520900  0.17163000  1
  C  C24  1  0.33125900  0.36134600  0.53861200  1
  C  C25  1  0.16874100  0.13865400  0.03861200  1
  C  C26  1  0.66874100  0.86134600  0.46138800  1
  C  C27  1  0.83125900  0.63865400  0.96138800  1
  C  C28  1  0.66874100  0.63865400  0.46138800  1
  C  C29  1  0.83125900  0.86134600  0.96138800  1
  C  C30  1  0.33125900  0.13865400  0.53861200  1
  C  C31  1  0.16874100  0.36134600  0.03861200  1
  N  N0  1  0.79292800  0.25000000  0.25720500  1
  N  N1  1  0.70707200  0.25000000  0.75720500  1
  N  N2  1  0.20707200  0.75000000  0.74279500  1
  N  N3  1  0.29292800  0.75000000  0.24279500  1
  N  N4  1  0.71313000  0.25000000  0.51988000  1
  N  N5  1  0.78687000  0.25000000  0.01988000  1
  N  N6  1  0.28687000  0.75000000  0.48012000  1
  N  N7  1  0.21313000  0.75000000  0.98012000  1
  N  N8  1  0.21743100  0.25000000  0.32416800  1
  N  N9  1  0.28256900  0.25000000  0.82416800  1
  N  N10  1  0.78256900  0.75000000  0.67583200  1
  N  N11  1  0.71743100  0.75000000  0.17583200  1
  N  N12  1  0.02225900  0.25000000  0.63786900  1
  N  N13  1  0.47774100  0.25000000  0.13786900  1
  N  N14  1  0.97774100  0.75000000  0.36213100  1
  N  N15  1  0.52225900  0.75000000  0.86213100  1
  N  N16  1  0.55611100  0.48106000  0.30789100  1
  N  N17  1  0.94388900  0.01894000  0.80789100  1
  N  N18  1  0.44388900  0.98106000  0.69210900  1
  N  N19  1  0.05611100  0.51894000  0.19210900  1
  N  N20  1  0.44388900  0.51894000  0.69210900  1
  N  N21  1  0.05611100  0.98106000  0.19210900  1
  N  N22  1  0.55611100  0.01894000  0.30789100  1
  N  N23  1  0.94388900  0.48106000  0.80789100  1
  N  N24  1  0.28286800  0.42032200  0.48906000  1
  N  N25  1  0.21713200  0.07967800  0.98906000  1
  N  N26  1  0.71713200  0.92032200  0.51094000  1
  N  N27  1  0.78286800  0.57967800  0.01094000  1
  N  N28  1  0.71713200  0.57967800  0.51094000  1
  N  N29  1  0.78286800  0.92032200  0.01094000  1
  N  N30  1  0.28286800  0.07967800  0.48906000  1
  N  N31  1  0.21713200  0.42032200  0.98906000  1
  O  O0  1  0.91910600  0.05342900  0.38813800  1
  O  O1  1  0.58089400  0.44657100  0.88813800  1
  O  O2  1  0.08089400  0.55342900  0.61186200  1
  O  O3  1  0.41910600  0.94657100  0.11186200  1
  O  O4  1  0.08089400  0.94657100  0.61186200  1
  O  O5  1  0.41910600  0.55342900  0.11186200  1
  O  O6  1  0.91910600  0.44657100  0.38813800  1
  O  O7  1  0.58089400  0.05342900  0.88813800  1
loop_
_geom_bond_atom_site_label_1
_geom_bond_atom_site_label_2
_geom_bond_distance
_geom_bond_site_symmetry_2
K0 N8 2.835307 1_555
K0 N22 2.908797 1_555
K0 N16 2.908797 1_555
K0 N0 2.911669 1_555
K0 N4 3.137621 1_555
K1 N9 2.835307 1_655
K1 N17 2.908797 1_555
K1 N23 2.908797 1_555
K1 N1 2.911669 1_555
K1 N5 3.137621 1_556
K2 N10 2.835307 1_555
K2 N20 2.908797 1_555
K2 N18 2.908797 1_555
K2 N2 2.911669 1_555
K2 N6 3.137621 1_555
K3 N11 2.835307 1_455
K3 N19 2.908797 1_555
K3 N21 2.908797 1_555
K3 N3 2.911669 1_555
K3 N7 3.137621 1_554
K4 O6 2.770335 1_455
K4 O0 2.770335 1_455
K4 N8 2.849373 1_555
K4 N4 2.916290 1_455
K4 N12 3.077339 1_555
K4 N30 3.119012 1_555
K4 N24 3.119012 1_555
K5 O7 2.770335 1_555
K5 O1 2.770335 1_555
K5 N9 2.849373 1_555
K5 N5 2.916290 1_556
K5 N13 3.077339 1_556
K5 N31 3.119012 1_555
K5 N25 3.119012 1_555
K6 O4 2.770335 1_655
K6 O2 2.770335 1_655
K6 N10 2.849373 1_555
K6 N6 2.916290 1_655
K6 N14 3.077339 1_555
K6 N28 3.119012 1_555
K6 N26 3.119012 1_555
K7 O3 2.770335 1_555
K7 O5 2.770335 1_555
K7 N11 2.849373 1_555
K7 N7 2.916290 1_554
K7 N15 3.077339 1_554
K7 N27 3.119012 1_555
K7 N29 3.119012 1_555
K8 O4 2.810303 1_645
K8 N26 2.941798 1_545
K8 N17 2.965363 1_555
K8 N12 3.070040 1_655
K9 O5 2.810303 1_555
K9 N27 2.941798 1_555
K9 N16 2.965363 1_555
K9 N13 3.070040 1_555
K10 O6 2.810303 1_455
K10 N24 2.941798 1_555
K10 N19 2.965363 1_555
K10 N14 3.070040 1_455
K11 O7 2.810303 1_565
K11 N25 2.941798 1_565
K11 N18 2.965363 1_555
K11 N15 3.070040 1_555
K12 O0 2.810303 1_465
K12 N30 2.941798 1_565
K12 N21 2.965363 1_555
K12 N14 3.070040 1_455
K13 O1 2.810303 1_555
K13 N31 2.941798 1_555
K13 N20 2.965363 1_555
K13 N15 3.070040 1_555
K14 O2 2.810303 1_655
K14 N28 2.941798 1_555
K14 N23 2.965363 1_555
K14 N12 3.070040 1_655
K15 O3 2.810303 1_545
K15 N29 2.941798 1_545
K15 N22 2.965363 1_555
K15 N13 3.070040 1_555
H0 O0 0.978955 1_555
H1 O1 0.978955 1_555
H2 O2 0.978955 1_555
H3 O3 0.978955 1_555
H4 O4 0.978955 1_555
H5 O5 0.978955 1_555
H6 O6 0.978955 1_555
H7 O7 0.978955 1_555
H8 O0 0.976369 1_555
H9 O1 0.976369 1_555
H10 O2 0.976369 1_555
H11 O3 0.976369 1_555
H12 O4 0.976369 1_555
H13 O5 0.976369 1_555
H14 O6 0.976369 1_555
H15 O7 0.976369 1_555
C0 N12 1.178020 1_555
C0 W0 2.177338 1_555
C1 N13 1.178020 1_555
C1 W1 2.177338 1_555
C2 N14 1.178020 1_555
C2 W2 2.177338 1_555
C3 N15 1.178020 1_555
C3 W3 2.177338 1_555
C4 N1 1.177102 1_555
C4 W0 2.205662 1_555
C5 N0 1.177102 1_555
C5 W1 2.205662 1_655
C6 N3 1.177102 1_555
C6 W2 2.205662 1_555
C7 N2 1.177102 1_555
C7 W3 2.205662 1_455
C8 N4 1.177643 1_555
C8 W0 2.195762 1_555
C9 N5 1.177643 1_555
C9 W1 2.195762 1_655
C10 N6 1.177643 1_555
C10 W2 2.195762 1_555
C11 N7 1.177643 1_555
C11 W3 2.195762 1_455
C12 N9 1.176424 1_555
C12 W0 2.198997 1_555
C13 N8 1.176424 1_555
C13 W1 2.198997 1_555
C14 N11 1.176424 1_555
C14 W2 2.198997 1_555
C15 N10 1.176424 1_555
C15 W3 2.198997 1_555
C16 N20 1.178301 1_555
C16 W0 2.185110 1_555
C17 N21 1.178301 1_545
C17 W1 2.185110 1_555
C18 N22 1.178301 1_565
C18 W2 2.185110 1_555
C19 N23 1.178301 1_555
C19 W3 2.185110 1_555
C20 N16 1.178301 1_555
C20 W2 2.185110 1_555
C21 N17 1.178301 1_565
C21 W3 2.185110 1_555
C22 N18 1.178301 1_545
C22 W0 2.185110 1_555
C23 N19 1.178301 1_555
C23 W1 2.185110 1_555
C24 N24 1.177925 1_555
C24 W0 2.215267 1_555
C25 N25 1.177925 1_554
C25 W1 2.215267 1_555
C26 N26 1.177925 1_555
C26 W2 2.215267 1_555
C27 N27 1.177925 1_556
C27 W3 2.215267 1_555
C28 N28 1.177925 1_555
C28 W2 2.215267 1_555
C29 N29 1.177925 1_556
C29 W3 2.215267 1_555
C30 N30 1.177925 1_555
C30 W0 2.215267 1_555
C31 N31 1.177925 1_554
C31 W1 2.215267 1_555
