# generated using pymatgen
data_Sr5W3O14
_symmetry_space_group_name_H-M   'P 1'
_cell_length_a   7.68831975
_cell_length_b   7.68831975
_cell_length_c   11.07539256
_cell_angle_alpha   89.92166104
_cell_angle_beta   89.92166104
_cell_angle_gamma   89.58279570
_symmetry_Int_Tables_number   1
_chemical_formula_structural   Sr5W3O14
_chemical_formula_sum   'Sr10 W6 O28'
_cell_volume   654.65076925
_cell_formula_units_Z   2
loop_
 _symmetry_equiv_pos_site_id
 _symmetry_equiv_pos_as_xyz
  1  'x, y, z'
loop_
 _atom_site_type_symbol
 _atom_site_label
 _atom_site_symmetry_multiplicity
 _atom_site_fract_x
 _atom_site_fract_y
 _atom_site_fract_z
 _atom_site_occupancy
  Sr  Sr0  1  0.00725900  0.50065000  0.49452400  1
  Sr  Sr1  1  0.50065000  0.00725900  0.99452400  1
  Sr  Sr2  1  0.75245200  0.74875200  0.77398800  1
  Sr  Sr3  1  0.74875200  0.75245200  0.27398800  1
  Sr  Sr4  1  0.72769900  0.25381800  0.73885200  1
  Sr  Sr5  1  0.25381800  0.72769900  0.23885200  1
  Sr  Sr6  1  0.76249400  0.23657400  0.25009400  1
  Sr  Sr7  1  0.23657400  0.76249400  0.75009400  1
  Sr  Sr8  1  0.24735000  0.25410800  0.72381100  1
  Sr  Sr9  1  0.25410800  0.24735000  0.22381100  1
  W  W0  1  0.99702500  0.49625800  0.99874400  1
  W  W1  1  0.49625800  0.99702500  0.49874400  1
  W  W2  1  0.49742700  0.50066000  0.99858500  1
  W  W3  1  0.50066000  0.49742700  0.49858500  1
  W  W4  1  0.00272300  0.99655400  0.99741600  1
  W  W5  1  0.99655400  0.00272300  0.49741600  1
  O  O0  1  0.54974700  0.96044300  0.66624800  1
  O  O1  1  0.96044300  0.54974700  0.16624800  1
  O  O2  1  0.50299400  0.24924300  0.54296900  1
  O  O3  1  0.24924300  0.50299400  0.04296900  1
  O  O4  1  0.00516700  0.74884300  0.95607200  1
  O  O5  1  0.74884300  0.00516700  0.45607200  1
  O  O6  1  0.47085900  0.32960900  0.87169300  1
  O  O7  1  0.32960900  0.47085900  0.37169300  1
  O  O8  1  0.97054800  0.83418600  0.62533900  1
  O  O9  1  0.83418600  0.97054800  0.12533900  1
  O  O10  1  0.30324800  0.52978500  0.60685700  1
  O  O11  1  0.52978500  0.30324800  0.10685700  1
  O  O12  1  0.80801000  0.02945800  0.88812500  1
  O  O13  1  0.02945800  0.80801000  0.38812500  1
  O  O14  1  0.69708900  0.47501500  0.38887500  1
  O  O15  1  0.47501500  0.69708900  0.88887500  1
  O  O16  1  0.20117300  0.97483200  0.10653500  1
  O  O17  1  0.97483200  0.20117300  0.60653500  1
  O  O18  1  0.53207000  0.67036300  0.12446900  1
  O  O19  1  0.67036300  0.53207000  0.62446900  1
  O  O20  1  0.03166200  0.17600200  0.37248100  1
  O  O21  1  0.17600200  0.03166200  0.87248100  1
  O  O22  1  0.75327700  0.49584800  0.95588100  1
  O  O23  1  0.49584800  0.75327700  0.45588100  1
  O  O24  1  0.25241700  0.99751200  0.54158400  1
  O  O25  1  0.99751200  0.25241700  0.04158400  1
  O  O26  1  0.05141700  0.46380500  0.83174800  1
  O  O27  1  0.46380500  0.05141700  0.33174800  1
loop_
_geom_bond_atom_site_label_1
_geom_bond_atom_site_label_2
_geom_bond_distance
_geom_bond_site_symmetry_2
O0 W1 1.920641 1_555
O0 Sr2 2.542523 1_555
O0 Sr4 2.767473 1_565
O0 Sr7 3.003211 1_555
O1 W0 1.920641 1_554
O1 Sr3 2.542523 1_555
O1 Sr5 2.767473 1_655
O1 Sr6 3.003211 1_555
O2 W3 1.969730 1_555
O2 W1 2.001739 1_545
O2 Sr4 2.775580 1_555
O2 Sr8 2.804362 1_555
O3 W2 1.969730 1_554
O3 W0 2.001739 1_454
O3 Sr5 2.775580 1_555
O3 Sr9 2.804362 1_555
O4 W4 1.959315 1_555
O4 W0 1.999411 1_455
O4 Sr2 2.802266 1_455
O4 Sr7 2.893365 1_555
O5 W5 1.959315 1_555
O5 W1 1.999411 1_545
O5 Sr3 2.802266 1_545
O5 Sr6 2.893365 1_555
O6 W2 1.938050 1_555
O6 Sr8 2.448930 1_555
O6 Sr4 2.526089 1_555
O6 Sr1 2.833485 1_555
O7 W3 1.938050 1_555
O7 Sr9 2.448930 1_555
O7 Sr5 2.526089 1_555
O7 Sr0 2.833485 1_555
O8 W5 1.929840 1_565
O8 Sr2 2.441119 1_555
O8 Sr7 2.526932 1_655
O8 Sr0 2.958557 1_655
O9 W4 1.929840 1_654
O9 Sr3 2.441119 1_555
O9 Sr6 2.526932 1_565
O9 Sr1 2.958557 1_564
O10 W3 1.947773 1_555
O10 Sr7 2.443903 1_555
O10 Sr8 2.521708 1_555
O10 Sr0 2.606259 1_555
O11 W2 1.947773 1_554
O11 Sr6 2.443903 1_555
O11 Sr9 2.521708 1_555
O11 Sr1 2.606259 1_554
O12 W4 1.941346 1_645
O12 Sr4 2.463626 1_555
O12 Sr2 2.541740 1_545
O12 Sr1 2.645684 1_555
O13 W5 1.941346 1_465
O13 Sr5 2.463626 1_555
O13 Sr3 2.541740 1_455
O13 Sr0 2.645684 1_555
O14 W3 1.943865 1_555
O14 Sr6 2.442995 1_555
O14 Sr3 2.515978 1_555
O14 Sr0 2.666425 1_655
O15 W2 1.943865 1_555
O15 Sr7 2.442995 1_555
O15 Sr2 2.515978 1_555
O15 Sr1 2.666425 1_565
O16 W4 1.953749 1_554
O16 Sr5 2.429888 1_555
O16 Sr9 2.502780 1_565
O16 Sr1 2.627214 1_564
O17 W5 1.953749 1_555
O17 Sr4 2.429888 1_555
O17 Sr8 2.502780 1_655
O17 Sr0 2.627214 1_655
O18 W2 1.930841 1_554
O18 Sr3 2.437540 1_555
O18 Sr5 2.521139 1_555
O18 Sr1 2.969886 1_564
O19 W3 1.930841 1_555
O19 Sr2 2.437540 1_555
O19 Sr4 2.521139 1_555
O19 Sr0 2.969886 1_655
O20 W5 1.939456 1_455
O20 Sr9 2.437319 1_555
O20 Sr6 2.515699 1_455
O20 Sr0 2.844985 1_555
O21 W4 1.939456 1_545
O21 Sr8 2.437319 1_555
O21 Sr7 2.515699 1_545
O21 Sr1 2.844985 1_555
O22 W0 1.933861 1_555
O22 W2 2.022577 1_555
O22 Sr2 2.797903 1_555
O22 Sr4 3.049229 1_555
O23 W1 1.933861 1_555
O23 W3 2.022577 1_555
O23 Sr3 2.797903 1_555
O23 Sr5 3.049229 1_555
O24 W1 1.933186 1_555
O24 W5 2.027815 1_465
O24 Sr8 2.824226 1_565
O24 Sr7 2.933212 1_555
O25 W0 1.933186 1_554
O25 W4 2.027815 1_644
O25 Sr9 2.824226 1_655
O25 Sr6 2.933212 1_555
O26 W0 1.911957 1_455
O26 Sr8 2.502506 1_555
O26 Sr7 2.855918 1_555
O26 Sr4 3.151097 1_455
O27 W1 1.911957 1_545
O27 Sr9 2.502506 1_555
O27 Sr6 2.855918 1_555
O27 Sr5 3.151097 1_545
