# generated using pymatgen
data_LiPW4O13
_symmetry_space_group_name_H-M   'P 1'
_cell_length_a   10.17700300
_cell_length_b   10.47855700
_cell_length_c   10.05416400
_cell_angle_alpha   90.00000000
_cell_angle_beta   90.00000000
_cell_angle_gamma   90.00000000
_symmetry_Int_Tables_number   1
_chemical_formula_structural   LiPW4O13
_chemical_formula_sum   'Li4 P4 W16 O52'
_cell_volume   1072.17912578
_cell_formula_units_Z   4
loop_
 _symmetry_equiv_pos_site_id
 _symmetry_equiv_pos_as_xyz
  1  'x, y, z'
loop_
 _atom_site_type_symbol
 _atom_site_label
 _atom_site_symmetry_multiplicity
 _atom_site_fract_x
 _atom_site_fract_y
 _atom_site_fract_z
 _atom_site_occupancy
  Li  Li0  1  0.26036400  0.75000000  0.80199000  1
  Li  Li1  1  0.29683300  0.25000000  0.29828100  1
  Li  Li2  1  0.76036400  0.75000000  0.69801000  1
  Li  Li3  1  0.79683300  0.25000000  0.20171900  1
  P  P0  1  0.25037100  0.75000000  0.07475200  1
  P  P1  1  0.25366400  0.25000000  0.57321400  1
  P  P2  1  0.75037100  0.75000000  0.42524800  1
  P  P3  1  0.75366400  0.25000000  0.92678600  1
  W  W0  1  0.00070700  0.58778200  0.25066100  1
  W  W1  1  0.00070700  0.91221800  0.25066100  1
  W  W2  1  0.24829100  0.07410200  0.03583400  1
  W  W3  1  0.24829100  0.42589800  0.03583400  1
  W  W4  1  0.25217500  0.57363700  0.53535600  1
  W  W5  1  0.25217500  0.92636300  0.53535600  1
  W  W6  1  0.50039000  0.08798400  0.75237600  1
  W  W7  1  0.50039000  0.41201600  0.75237600  1
  W  W8  1  0.50070700  0.58778200  0.24933900  1
  W  W9  1  0.50070700  0.91221800  0.24933900  1
  W  W10  1  0.74829100  0.07410200  0.46416600  1
  W  W11  1  0.74829100  0.42589800  0.46416600  1
  W  W12  1  0.75217500  0.57363700  0.96464400  1
  W  W13  1  0.75217500  0.92636300  0.96464400  1
  W  W14  1  0.00039000  0.08798400  0.74762400  1
  W  W15  1  0.00039000  0.41201600  0.74762400  1
  O  O0  1  0.11555600  0.10365800  0.90011700  1
  O  O1  1  0.11555600  0.39634200  0.90011700  1
  O  O2  1  0.11179200  0.60187800  0.40125900  1
  O  O3  1  0.11179200  0.89812200  0.40125900  1
  O  O4  1  0.12334500  0.75000000  0.16623900  1
  O  O5  1  0.12519200  0.25000000  0.66217000  1
  O  O6  1  0.10876100  0.03656700  0.16327900  1
  O  O7  1  0.10876100  0.46343300  0.16327900  1
  O  O8  1  0.11568100  0.96627300  0.66249000  1
  O  O9  1  0.11568100  0.53372700  0.66249000  1
  O  O10  1  0.25086700  0.63184400  0.98273200  1
  O  O11  1  0.25086700  0.86815600  0.98273200  1
  O  O12  1  0.25077800  0.25000000  0.10600300  1
  O  O13  1  0.25130500  0.75000000  0.60484100  1
  O  O14  1  0.25734200  0.13167500  0.48142200  1
  O  O15  1  0.25734200  0.36832500  0.48142200  1
  O  O16  1  0.38382800  0.03459700  0.16252400  1
  O  O17  1  0.38382800  0.46540300  0.16252400  1
  O  O18  1  0.39062000  0.53580500  0.66193900  1
  O  O19  1  0.39062000  0.96419500  0.66193900  1
  O  O20  1  0.37843600  0.75000000  0.16410400  1
  O  O21  1  0.38049000  0.25000000  0.66554900  1
  O  O22  1  0.39002200  0.10443000  0.89917100  1
  O  O23  1  0.39002200  0.39557000  0.89917100  1
  O  O24  1  0.38790400  0.60588600  0.39870600  1
  O  O25  1  0.38790400  0.89411400  0.39870600  1
  O  O26  1  0.61555600  0.10365800  0.59988300  1
  O  O27  1  0.61555600  0.39634200  0.59988300  1
  O  O28  1  0.61179200  0.60187800  0.09874100  1
  O  O29  1  0.61179200  0.89812200  0.09874100  1
  O  O30  1  0.62334500  0.75000000  0.33376100  1
  O  O31  1  0.62519200  0.25000000  0.83783000  1
  O  O32  1  0.60876100  0.03656700  0.33672100  1
  O  O33  1  0.60876100  0.46343300  0.33672100  1
  O  O34  1  0.61568100  0.96627300  0.83751000  1
  O  O35  1  0.61568100  0.53372700  0.83751000  1
  O  O36  1  0.75086700  0.86815600  0.51726800  1
  O  O37  1  0.75086700  0.63184400  0.51726800  1
  O  O38  1  0.75077800  0.25000000  0.39399700  1
  O  O39  1  0.75130500  0.75000000  0.89515900  1
  O  O40  1  0.75734200  0.13167500  0.01857800  1
  O  O41  1  0.75734200  0.36832500  0.01857800  1
  O  O42  1  0.88382800  0.03459700  0.33747500  1
  O  O43  1  0.88382800  0.46540300  0.33747500  1
  O  O44  1  0.89062000  0.53580500  0.83806100  1
  O  O45  1  0.89062000  0.96419500  0.83806100  1
  O  O46  1  0.87843600  0.75000000  0.33589600  1
  O  O47  1  0.88049000  0.25000000  0.83445100  1
  O  O48  1  0.89002200  0.10443000  0.60082900  1
  O  O49  1  0.89002200  0.39557000  0.60082900  1
  O  O50  1  0.88790400  0.89411400  0.10129400  1
  O  O51  1  0.88790400  0.60588600  0.10129400  1
loop_
_geom_bond_atom_site_label_1
_geom_bond_atom_site_label_2
_geom_bond_distance
_geom_bond_site_symmetry_2
Li0 O13 1.984311 1_555
Li0 O11 2.201021 1_555
Li0 O10 2.201021 1_555
Li1 O12 1.989201 1_555
Li1 O14 2.255950 1_555
Li1 O15 2.255950 1_555
Li2 O39 1.984311 1_555
Li2 O37 2.201021 1_555
Li2 O36 2.201021 1_555
Li3 O38 1.989201 1_555
Li3 O40 2.255950 1_555
Li3 O41 2.255950 1_555
O0 W14 1.936836 1_555
O0 W2 1.944895 1_556
O1 W15 1.936836 1_555
O1 W3 1.944895 1_556
O2 W0 1.895385 1_555
O2 W4 1.986561 1_555
O3 W1 1.895385 1_555
O3 W5 1.986561 1_555
O4 P0 1.586589 1_555
O4 W0 2.273219 1_555
O4 W1 2.273219 1_555
O5 P1 1.584097 1_555
O5 W14 2.287688 1_555
O5 W15 2.287688 1_555
O6 W1 1.918052 1_545
O6 W2 1.952678 1_555
O7 W0 1.918052 1_555
O7 W3 1.952678 1_555
O8 W14 1.932836 1_565
O8 W5 1.933482 1_555
O9 W15 1.932836 1_555
O9 W4 1.933482 1_555
O10 P0 1.545605 1_556
O10 W3 2.223234 1_556
O11 P0 1.545605 1_556
O11 W2 2.223234 1_566
O12 W2 1.973724 1_555
O12 W3 1.973724 1_555
O13 W4 1.975691 1_555
O13 W5 1.975691 1_555
O14 P1 1.546099 1_555
O14 W5 2.219284 1_545
O15 P1 1.546099 1_555
O15 W4 2.219284 1_555
O16 W2 1.922619 1_555
O16 W9 1.954780 1_545
O17 W3 1.922619 1_555
O17 W8 1.954780 1_555
O18 W7 1.938374 1_555
O18 W4 1.939597 1_555
O19 W6 1.938374 1_565
O19 W5 1.939597 1_555
O20 P0 1.582936 1_555
O20 W8 2.274238 1_555
O20 W9 2.274238 1_555
O21 P1 1.589895 1_555
O21 W7 2.265654 1_555
O21 W6 2.265654 1_555
O22 W6 1.862685 1_555
O22 W2 2.017292 1_556
O23 W7 1.862685 1_555
O23 W3 2.017292 1_556
O24 W8 1.899781 1_555
O24 W4 1.977328 1_555
O25 W9 1.899781 1_555
O25 W5 1.977328 1_555
O26 W6 1.936836 1_555
O26 W10 1.944895 1_555
O27 W7 1.936836 1_555
O27 W11 1.944895 1_555
O28 W8 1.895385 1_555
O28 W12 1.986561 1_554
O29 W9 1.895385 1_555
O29 W13 1.986561 1_554
O30 P2 1.586589 1_555
O30 W9 2.273219 1_555
O30 W8 2.273219 1_555
O31 P3 1.584097 1_555
O31 W6 2.287688 1_555
O31 W7 2.287688 1_555
O32 W9 1.918052 1_545
O32 W10 1.952678 1_555
O33 W8 1.918052 1_555
O33 W11 1.952678 1_555
O34 W6 1.932836 1_565
O34 W13 1.933482 1_555
O35 W7 1.932836 1_555
O35 W12 1.933482 1_555
O36 P2 1.545605 1_555
O36 W10 2.223234 1_565
O37 P2 1.545605 1_555
O37 W11 2.223234 1_555
O38 W10 1.973724 1_555
O38 W11 1.973724 1_555
O39 W13 1.975691 1_555
O39 W12 1.975691 1_555
O40 P3 1.546099 1_554
O40 W13 2.219284 1_544
O41 P3 1.546099 1_554
O41 W12 2.219284 1_554
O42 W10 1.922626 1_555
O42 W1 1.954775 1_645
O43 W11 1.922626 1_555
O43 W0 1.954775 1_655
O44 W15 1.938374 1_655
O44 W12 1.939597 1_555
O45 W14 1.938374 1_665
O45 W13 1.939597 1_555
O46 P2 1.582936 1_555
O46 W1 2.274238 1_655
O46 W0 2.274238 1_655
O47 P3 1.589895 1_555
O47 W15 2.265654 1_655
O47 W14 2.265654 1_655
O48 W14 1.862685 1_655
O48 W10 2.017292 1_555
O49 W15 1.862685 1_655
O49 W11 2.017292 1_555
O50 W1 1.899781 1_655
O50 W13 1.977328 1_554
O51 W0 1.899781 1_655
O51 W12 1.977328 1_554
