# generated using pymatgen
data_Li3FePCO7
_symmetry_space_group_name_H-M   'P 1'
_cell_length_a   8.06786811
_cell_length_b   8.16062079
_cell_length_c   8.79154166
_cell_angle_alpha   93.41260871
_cell_angle_beta   86.90345032
_cell_angle_gamma   76.97671467
_symmetry_Int_Tables_number   1
_chemical_formula_structural   Li3FePCO7
_chemical_formula_sum   'Li12 Fe4 P4 C4 O28'
_cell_volume   561.58167961
_cell_formula_units_Z   4
loop_
 _symmetry_equiv_pos_site_id
 _symmetry_equiv_pos_as_xyz
  1  'x, y, z'
loop_
 _atom_site_type_symbol
 _atom_site_label
 _atom_site_symmetry_multiplicity
 _atom_site_fract_x
 _atom_site_fract_y
 _atom_site_fract_z
 _atom_site_occupancy
  Li  Li0  1  0.27772100  0.12266300  0.15942600  1
  Li  Li1  1  0.77768200  0.62266100  0.15940000  1
  Li  Li2  1  0.75195400  0.09867000  0.91514100  1
  Li  Li3  1  0.25193100  0.59862400  0.91511700  1
  Li  Li4  1  0.06590900  0.01021600  0.77266500  1
  Li  Li5  1  0.56583900  0.51028700  0.77271900  1
  Li  Li6  1  0.46412400  0.71107700  0.30216700  1
  Li  Li7  1  0.96412100  0.21118600  0.30205400  1
  Li  Li8  1  0.37861500  0.18406900  0.82243200  1
  Li  Li9  1  0.87864800  0.68385200  0.82258500  1
  Li  Li10  1  0.65140500  0.03759200  0.25196300  1
  Li  Li11  1  0.15135100  0.53766000  0.25181700  1
  Fe  Fe0  1  0.99264000  0.88713700  0.39834200  1
  Fe  Fe1  1  0.03749700  0.33420500  0.67624000  1
  Fe  Fe2  1  0.49266300  0.38706500  0.39849800  1
  Fe  Fe3  1  0.53750300  0.83419600  0.67646900  1
  P  P0  1  0.31846800  0.05948900  0.45328100  1
  P  P1  1  0.81847000  0.55948900  0.45321500  1
  P  P2  1  0.71177700  0.16188900  0.62139600  1
  P  P3  1  0.21172300  0.66189800  0.62141900  1
  C  C0  1  0.49507700  0.36756400  0.06597300  1
  C  C1  1  0.99506700  0.86751600  0.06596000  1
  C  C2  1  0.53466800  0.85368500  0.00884200  1
  C  C3  1  0.03476000  0.35373500  0.00873600  1
  O  O0  1  0.16767100  0.03494200  0.35628900  1
  O  O1  1  0.66770200  0.53489000  0.35616500  1
  O  O2  1  0.36238300  0.68650700  0.71855300  1
  O  O3  1  0.86246900  0.18645600  0.71848000  1
  O  O4  1  0.25662900  0.14152500  0.61592100  1
  O  O5  1  0.75660900  0.64153400  0.61581400  1
  O  O6  1  0.77346300  0.07988000  0.45870900  1
  O  O7  1  0.27359500  0.57984400  0.45878200  1
  O  O8  1  0.40903900  0.17088100  0.35385400  1
  O  O9  1  0.90893000  0.67099800  0.35387800  1
  O  O10  1  0.62101800  0.05058000  0.72082100  1
  O  O11  1  0.12103400  0.55046200  0.72078700  1
  O  O12  1  0.44504300  0.39710100  0.92897000  1
  O  O13  1  0.94494400  0.89716000  0.92900300  1
  O  O14  1  0.58467700  0.82423600  0.14585300  1
  O  O15  1  0.08486300  0.32428100  0.14573600  1
  O  O16  1  0.58702100  0.33348500  0.60935500  1
  O  O17  1  0.08705100  0.83352300  0.60914900  1
  O  O18  1  0.44298100  0.88781100  0.46558200  1
  O  O19  1  0.94305500  0.38783900  0.46553600  1
  O  O20  1  0.61668700  0.24057200  0.08782200  1
  O  O21  1  0.11667000  0.74050700  0.08779200  1
  O  O22  1  0.41281400  0.98042400  0.98689700  1
  O  O23  1  0.91287700  0.48047400  0.98685000  1
  O  O24  1  0.91519400  0.96946800  0.18079300  1
  O  O25  1  0.41515000  0.46952300  0.18078300  1
  O  O26  1  0.61488200  0.75182100  0.89405200  1
  O  O27  1  0.11488300  0.25191000  0.89391300  1
loop_
_geom_bond_atom_site_label_1
_geom_bond_atom_site_label_2
_geom_bond_distance
_geom_bond_site_symmetry_2
Li0 O22 1.969148 1_544
Li0 O15 2.008130 1_555
Li0 O8 2.121916 1_555
Li0 O0 2.136382 1_555
Li1 O23 1.969412 1_554
Li1 O14 2.008418 1_555
Li1 O9 2.122190 1_555
Li1 O1 2.135628 1_555
Li2 O20 1.969474 1_556
Li2 O13 2.008419 1_545
Li2 O10 2.119074 1_555
Li2 O3 2.136883 1_555
Li3 O21 1.969353 1_556
Li3 O12 2.009061 1_555
Li3 O11 2.119109 1_555
Li3 O2 2.136345 1_555
Li4 O17 1.946971 1_545
Li4 O3 2.022748 1_455
Li4 O13 2.025985 1_445
Li4 O27 2.308478 1_555
Li4 O4 2.470755 1_555
Li5 O16 1.946614 1_555
Li5 O2 2.022692 1_555
Li5 O12 2.025360 1_555
Li5 O26 2.307878 1_555
Li5 O5 2.471505 1_555
Li6 O18 1.946585 1_555
Li6 O1 2.022725 1_555
Li6 O14 2.024531 1_555
Li6 O25 2.307992 1_555
Li6 O7 2.468691 1_555
Li7 O19 1.946617 1_555
Li7 O0 2.023497 1_655
Li7 O15 2.025073 1_655
Li7 O24 2.308548 1_545
Li7 O6 2.469964 1_555
Li8 O12 2.113548 1_555
Li8 O27 2.124141 1_555
Li8 O10 2.131808 1_555
Li8 O4 2.158087 1_555
Li8 O22 2.247461 1_545
Li9 O13 2.114548 1_555
Li9 O26 2.124386 1_555
Li9 O11 2.132034 1_655
Li9 O5 2.159882 1_555
Li9 O23 2.244604 1_555
Li10 O14 2.115396 1_545
Li10 O24 2.123992 1_545
Li10 O8 2.131956 1_555
Li10 O6 2.159724 1_555
Li10 O20 2.241382 1_555
Li11 O15 2.114556 1_555
Li11 O25 2.123800 1_555
Li11 O9 2.132922 1_455
Li11 O7 2.162000 1_555
Li11 O21 2.239863 1_555
Fe0 O9 2.050201 1_555
Fe0 O17 2.074909 1_655
Fe0 O0 2.085666 1_665
Fe0 O6 2.104336 1_565
Fe0 O24 2.143061 1_555
Fe1 O11 2.050461 1_555
Fe1 O19 2.074192 1_455
Fe1 O3 2.085597 1_455
Fe1 O4 2.103749 1_555
Fe1 O27 2.143853 1_555
Fe2 O8 2.050420 1_555
Fe2 O16 2.075108 1_555
Fe2 O1 2.086271 1_555
Fe2 O7 2.103799 1_555
Fe2 O25 2.144871 1_555
Fe3 O10 2.051054 1_565
Fe3 O18 2.075891 1_555
Fe3 O2 2.085585 1_555
Fe3 O5 2.104013 1_555
Fe3 O26 2.143301 1_555
C0 O20 1.288142 1_555
C0 O25 1.309507 1_555
C0 O12 1.309591 1_554
C1 O21 1.288162 1_655
C1 O24 1.309488 1_555
C1 O13 1.309584 1_554
C2 O22 1.288181 1_554
C2 O14 1.309473 1_555
C2 O26 1.309726 1_554
C3 O23 1.288195 1_454
C3 O27 1.309552 1_554
C3 O15 1.309628 1_555
O0 P0 1.564917 1_555
O1 P1 1.565131 1_555
O2 P3 1.564854 1_555
O3 P2 1.564722 1_555
O4 P0 1.549199 1_555
O5 P1 1.548935 1_555
O6 P2 1.549280 1_555
O7 P3 1.549267 1_555
O8 P0 1.565029 1_555
O9 P1 1.564759 1_555
O10 P2 1.565394 1_555
O11 P3 1.565534 1_555
O16 P2 1.542443 1_555
O17 P3 1.542637 1_555
O18 P0 1.542433 1_565
O19 P1 1.542548 1_555
