# generated using pymatgen
data_LiTi2O4
_symmetry_space_group_name_H-M   'P 1'
_cell_length_a   5.93802345
_cell_length_b   5.93802345
_cell_length_c   9.63637900
_cell_angle_alpha   90.00000000
_cell_angle_beta   90.00000000
_cell_angle_gamma   119.99999390
_symmetry_Int_Tables_number   1
_chemical_formula_structural   LiTi2O4
_chemical_formula_sum   'Li4 Ti8 O16'
_cell_volume   294.25804683
_cell_formula_units_Z   4
loop_
 _symmetry_equiv_pos_site_id
 _symmetry_equiv_pos_as_xyz
  1  'x, y, z'
loop_
 _atom_site_type_symbol
 _atom_site_label
 _atom_site_symmetry_multiplicity
 _atom_site_fract_x
 _atom_site_fract_y
 _atom_site_fract_z
 _atom_site_occupancy
  Li  Li0  1  0.33333300  0.66666700  0.89373500  1
  Li  Li1  1  0.00000000  0.00000000  0.99504800  1
  Li  Li2  1  0.00000000  0.00000000  0.49504800  1
  Li  Li3  1  0.66666700  0.33333300  0.39373500  1
  Ti  Ti0  1  0.17088400  0.82911600  0.21546500  1
  Ti  Ti1  1  0.65823300  0.82911600  0.21546500  1
  Ti  Ti2  1  0.34176700  0.17088400  0.71546500  1
  Ti  Ti3  1  0.82911600  0.17088400  0.71546500  1
  Ti  Ti4  1  0.33333300  0.66666700  0.48888100  1
  Ti  Ti5  1  0.17088400  0.34176700  0.21546500  1
  Ti  Ti6  1  0.66666700  0.33333300  0.98888100  1
  Ti  Ti7  1  0.82911600  0.65823300  0.71546500  1
  O  O0  1  0.16632400  0.83367600  0.59834100  1
  O  O1  1  0.03984400  0.51992200  0.34075300  1
  O  O2  1  0.33333300  0.66666700  0.10289700  1
  O  O3  1  0.00000000  0.00000000  0.30992100  1
  O  O4  1  0.00000000  0.00000000  0.80992100  1
  O  O5  1  0.16632400  0.33264800  0.59834100  1
  O  O6  1  0.48007800  0.96015600  0.34075300  1
  O  O7  1  0.48007800  0.51992200  0.34075300  1
  O  O8  1  0.33264800  0.16632400  0.09834100  1
  O  O9  1  0.66735200  0.83367600  0.59834100  1
  O  O10  1  0.51992200  0.48007800  0.84075300  1
  O  O11  1  0.51992200  0.03984400  0.84075300  1
  O  O12  1  0.66666700  0.33333300  0.60289700  1
  O  O13  1  0.83367600  0.66735200  0.09834100  1
  O  O14  1  0.96015600  0.48007800  0.84075300  1
  O  O15  1  0.83367600  0.16632400  0.09834100  1
loop_
_geom_bond_atom_site_label_1
_geom_bond_atom_site_label_2
_geom_bond_distance
_geom_bond_site_symmetry_2
Li0 O14 1.985809 1_455
Li0 O11 1.985809 1_565
Li0 O10 1.985814 1_555
Li0 O2 2.015564 1_556
Li1 O4 1.783954 1_555
Li1 O15 1.979150 1_456
Li1 O13 1.979150 1_446
Li1 O8 1.979150 1_556
Li2 O3 1.783954 1_555
Li2 O0 1.979150 1_545
Li2 O5 1.979150 1_555
Li2 O9 1.979150 1_445
Li3 O1 1.985809 1_655
Li3 O6 1.985809 1_545
Li3 O7 1.985814 1_555
Li3 O12 2.015564 1_555
O0 Ti4 2.015695 1_555
O0 Ti2 2.069433 1_565
O0 Ti7 2.069433 1_455
O1 Ti0 2.001342 1_555
O1 Ti5 2.001346 1_555
O1 Ti4 2.077352 1_555
O2 Ti0 1.992031 1_555
O2 Ti1 1.992040 1_555
O2 Ti5 1.992040 1_555
O3 Ti5 1.979242 1_555
O3 Ti1 1.979242 1_445
O3 Ti0 1.979247 1_545
O4 Ti2 1.979242 1_555
O4 Ti7 1.979242 1_445
O4 Ti3 1.979247 1_455
O5 Ti4 2.015699 1_555
O5 Ti2 2.069429 1_555
O5 Ti3 2.069433 1_455
O6 Ti0 2.001342 1_555
O6 Ti1 2.001346 1_555
O6 Ti4 2.077352 1_555
O7 Ti1 2.001343 1_555
O7 Ti5 2.001343 1_555
O7 Ti4 2.077355 1_555
O8 Ti6 2.015699 1_554
O8 Ti5 2.069429 1_555
O8 Ti0 2.069433 1_545
O9 Ti4 2.015699 1_555
O9 Ti7 2.069429 1_555
O9 Ti3 2.069433 1_565
O10 Ti7 2.001343 1_555
O10 Ti2 2.001343 1_555
O10 Ti6 2.077355 1_555
O11 Ti3 2.001342 1_555
O11 Ti2 2.001346 1_555
O11 Ti6 2.077352 1_555
O12 Ti3 1.992031 1_555
O12 Ti7 1.992040 1_555
O12 Ti2 1.992040 1_555
O13 Ti6 2.015699 1_554
O13 Ti1 2.069429 1_555
O13 Ti0 2.069433 1_655
O14 Ti3 2.001342 1_555
O14 Ti7 2.001346 1_555
O14 Ti6 2.077352 1_555
O15 Ti6 2.015695 1_554
O15 Ti5 2.069433 1_655
O15 Ti1 2.069433 1_545
