# generated using pymatgen
data_Mn3(OF2)2
_symmetry_space_group_name_H-M   'P 1'
_cell_length_a   5.78276822
_cell_length_b   5.78276822
_cell_length_c   7.83902715
_cell_angle_alpha   69.85371366
_cell_angle_beta   69.85371366
_cell_angle_gamma   68.10776376
_symmetry_Int_Tables_number   1
_chemical_formula_structural   Mn3(OF2)2
_chemical_formula_sum   'Mn6 O4 F8'
_cell_volume   221.22321048
_cell_formula_units_Z   2
loop_
 _symmetry_equiv_pos_site_id
 _symmetry_equiv_pos_as_xyz
  1  'x, y, z'
loop_
 _atom_site_type_symbol
 _atom_site_label
 _atom_site_symmetry_multiplicity
 _atom_site_fract_x
 _atom_site_fract_y
 _atom_site_fract_z
 _atom_site_occupancy
  Mn  Mn0  1  0.66893600  0.64464700  0.84233900  1
  Mn  Mn1  1  0.31035900  0.34942500  0.67090100  1
  Mn  Mn2  1  0.65057500  0.68964100  0.32909900  1
  Mn  Mn3  1  0.35535300  0.33106400  0.15766100  1
  Mn  Mn4  1  0.01580500  0.98419500  0.50000000  1
  Mn  Mn5  1  0.01176800  0.98823200  0.00000000  1
  O  O0  1  0.36646500  0.98626100  0.32400700  1
  O  O1  1  0.01373900  0.63353500  0.67599300  1
  O  O2  1  0.70811800  0.29188200  0.00000000  1
  O  O3  1  0.31546900  0.68453100  0.00000000  1
  F  F0  1  0.62131900  0.03302900  0.67342200  1
  F  F1  1  0.96697100  0.37868100  0.32657800  1
  F  F2  1  0.89759900  0.89797700  0.29885100  1
  F  F3  1  0.55996600  0.56841300  0.62195200  1
  F  F4  1  0.23111300  0.22716600  0.95997000  1
  F  F5  1  0.10202300  0.10240100  0.70114900  1
  F  F6  1  0.77283400  0.76888700  0.04003000  1
  F  F7  1  0.43158700  0.44003400  0.37804800  1
loop_
_geom_bond_atom_site_label_1
_geom_bond_atom_site_label_2
_geom_bond_distance
_geom_bond_site_symmetry_2
Mn0 O1 1.962495 1_655
Mn0 O2 1.962589 1_556
Mn0 O3 1.965532 1_556
Mn1 O1 1.881364 1_555
Mn2 O0 1.881364 1_555
Mn3 O0 1.962495 1_545
Mn3 O2 1.962589 1_555
Mn3 O3 1.965532 1_555
Mn4 O1 2.023621 1_555
Mn4 O0 2.023621 1_555
Mn5 O2 1.966553 1_465
Mn5 O3 1.966883 1_555
F0 Mn1 2.031656 1_555
F0 Mn0 2.148204 1_545
F0 Mn4 2.186242 1_645
F1 Mn2 2.031656 1_555
F1 Mn3 2.148204 1_655
F1 Mn4 2.186242 1_645
F2 Mn2 2.097977 1_555
F2 Mn5 2.132097 1_655
F2 Mn4 2.177226 1_655
F3 Mn2 2.091151 1_555
F3 Mn1 2.116888 1_555
F3 Mn0 2.248953 1_555
F4 Mn1 2.065776 1_555
F4 Mn5 2.085800 1_546
F4 Mn3 2.238068 1_556
F5 Mn1 2.097977 1_555
F5 Mn5 2.132097 1_546
F5 Mn4 2.177226 1_545
F6 Mn2 2.065776 1_555
F6 Mn5 2.085800 1_655
F6 Mn0 2.238068 1_554
F7 Mn1 2.091151 1_555
F7 Mn2 2.116888 1_555
F7 Mn3 2.248953 1_555
