# generated using pymatgen
data_Li5Mn2P2(CO7)2
_symmetry_space_group_name_H-M   'P 1'
_cell_length_a   5.06972393
_cell_length_b   8.55995154
_cell_length_c   6.46862341
_cell_angle_alpha   88.87102238
_cell_angle_beta   90.05611694
_cell_angle_gamma   84.91692992
_symmetry_Int_Tables_number   1
_chemical_formula_structural   Li5Mn2P2(CO7)2
_chemical_formula_sum   'Li5 Mn2 P2 C2 O14'
_cell_volume   279.55690328
_cell_formula_units_Z   1
loop_
 _symmetry_equiv_pos_site_id
 _symmetry_equiv_pos_as_xyz
  1  'x, y, z'
loop_
 _atom_site_type_symbol
 _atom_site_label
 _atom_site_symmetry_multiplicity
 _atom_site_fract_x
 _atom_site_fract_y
 _atom_site_fract_z
 _atom_site_occupancy
  Li  Li0  1  0.79676600  0.10993700  0.24045900  1
  Li  Li1  1  0.27200600  0.26795000  0.47085400  1
  Li  Li2  1  0.72428600  0.73557000  0.51194700  1
  Li  Li3  1  0.72788500  0.72862500  0.97023600  1
  Li  Li4  1  0.22307800  0.89945100  0.75248700  1
  Mn  Mn0  1  0.20343200  0.66260200  0.24759900  1
  Mn  Mn1  1  0.79929800  0.33195300  0.75515900  1
  P  P0  1  0.72468500  0.41529200  0.25827100  1
  P  P1  1  0.26335500  0.58750000  0.74446200  1
  C  C0  1  0.69745400  0.03790700  0.73951000  1
  C  C1  1  0.32101300  0.95776100  0.26159600  1
  O  O0  1  0.94452800  0.06023300  0.75390300  1
  O  O1  1  0.41633800  0.08766000  0.29237500  1
  O  O2  1  0.52738900  0.16139800  0.72599400  1
  O  O3  1  0.79174300  0.31467900  0.06632700  1
  O  O4  1  0.85679400  0.31021900  0.43735600  1
  O  O5  1  0.42407600  0.44310600  0.29724800  1
  O  O6  1  0.15843900  0.42573200  0.73925000  1
  O  O7  1  0.83459000  0.57926800  0.24350700  1
  O  O8  1  0.57211100  0.57098500  0.74512900  1
  O  O9  1  0.15503200  0.69843100  0.56143400  1
  O  O10  1  0.15954500  0.68835700  0.93266100  1
  O  O11  1  0.48649500  0.82737400  0.24466500  1
  O  O12  1  0.61453800  0.89781900  0.74164100  1
  O  O13  1  0.07131400  0.93940800  0.24833000  1
loop_
_geom_bond_atom_site_label_1
_geom_bond_atom_site_label_2
_geom_bond_distance
_geom_bond_site_symmetry_2
Li0 O13 1.925517 1_645
Li0 O1 1.983130 1_555
Li0 O3 2.062813 1_555
Li0 O4 2.198118 1_555
Li1 O1 2.030216 1_555
Li1 O5 2.060008 1_555
Li1 O4 2.114235 1_455
Li1 O2 2.226942 1_555
Li1 O6 2.264160 1_555
Li2 O12 2.095729 1_555
Li2 O11 2.198776 1_555
Li2 O9 2.200900 1_655
Li2 O8 2.228526 1_555
Li2 O7 2.253637 1_555
Li3 O12 2.093029 1_555
Li3 O8 2.197467 1_555
Li3 O10 2.199466 1_655
Li3 O7 2.199639 1_556
Li3 O11 2.289866 1_556
Li4 O0 1.882711 1_465
Li4 O12 1.984724 1_555
Li4 O10 2.179001 1_555
Li4 O9 2.189832 1_555
Mn0 O10 2.054526 1_554
Mn0 O7 2.059900 1_455
Mn0 O9 2.070670 1_555
Mn0 O11 2.099222 1_555
Mn0 O5 2.118416 1_555
Mn0 O13 2.404611 1_555
Mn1 O3 2.015995 1_556
Mn1 O6 2.055774 1_655
Mn1 O4 2.086220 1_555
Mn1 O2 2.105769 1_555
Mn1 O8 2.257068 1_555
Mn1 O0 2.376831 1_555
C0 O0 1.287277 1_555
C0 O2 1.305039 1_555
C0 O12 1.305193 1_545
C1 O1 1.270171 1_565
C1 O13 1.292331 1_555
C1 O11 1.341863 1_555
O3 P0 1.545963 1_555
O4 P0 1.565304 1_555
O5 P0 1.543265 1_555
O6 P1 1.527689 1_555
O7 P0 1.556648 1_555
O8 P1 1.559148 1_555
O9 P1 1.570665 1_555
O10 P1 1.570514 1_555
