# generated using pymatgen
data_Li4Ti3V2Co3O16
_symmetry_space_group_name_H-M   'P 1'
_cell_length_a   5.91291600
_cell_length_b   5.91325073
_cell_length_c   9.63186720
_cell_angle_alpha   90.21299641
_cell_angle_beta   90.36661251
_cell_angle_gamma   119.78291051
_symmetry_Int_Tables_number   1
_chemical_formula_structural   Li4Ti3V2Co3O16
_chemical_formula_sum   'Li4 Ti3 V2 Co3 O16'
_cell_volume   292.27549644
_cell_formula_units_Z   1
loop_
 _symmetry_equiv_pos_site_id
 _symmetry_equiv_pos_as_xyz
  1  'x, y, z'
loop_
 _atom_site_type_symbol
 _atom_site_label
 _atom_site_symmetry_multiplicity
 _atom_site_fract_x
 _atom_site_fract_y
 _atom_site_fract_z
 _atom_site_occupancy
  Li  Li0  1  0.32818400  0.66184000  0.09566200  1
  Li  Li1  1  0.00741900  0.01123900  0.01387400  1
  Li  Li2  1  0.99584900  0.99882800  0.50593900  1
  Li  Li3  1  0.67415600  0.33206100  0.59649400  1
  Ti  Ti0  1  0.16896100  0.81828000  0.77648300  1
  Ti  Ti1  1  0.65479600  0.79946000  0.77933500  1
  Ti  Ti2  1  0.81363400  0.63460100  0.26385400  1
  V  V0  1  0.33144400  0.66360800  0.49876000  1
  V  V1  1  0.65012600  0.29304400  0.01144100  1
  Co  Co0  1  0.17490200  0.34604700  0.79327900  1
  Co  Co1  1  0.33788700  0.16846000  0.29278800  1
  Co  Co2  1  0.82496000  0.17081700  0.29070300  1
  O  O0  1  0.17311200  0.81897000  0.41531200  1
  O  O1  1  0.48352100  0.96526000  0.66624800  1
  O  O2  1  0.34321000  0.68049400  0.89401200  1
  O  O3  1  0.00273300  0.00815500  0.69900600  1
  O  O4  1  0.98913600  0.98697600  0.20599200  1
  O  O5  1  0.63960500  0.81652000  0.41529600  1
  O  O6  1  0.04575900  0.53408700  0.65749500  1
  O  O7  1  0.49632300  0.53145900  0.65419800  1
  O  O8  1  0.83715300  0.67191700  0.89772200  1
  O  O9  1  0.17181800  0.35097000  0.41951700  1
  O  O10  1  0.52142300  0.49031400  0.15032300  1
  O  O11  1  0.96021700  0.49525500  0.14336300  1
  O  O12  1  0.67710300  0.35333300  0.39374000  1
  O  O13  1  0.35096100  0.17833800  0.90916300  1
  O  O14  1  0.52223800  0.04445900  0.14088100  1
  O  O15  1  0.82306800  0.17520800  0.91127900  1
loop_
_geom_bond_atom_site_label_1
_geom_bond_atom_site_label_2
_geom_bond_distance
_geom_bond_site_symmetry_2
Li0 O10 1.938832 1_555
Li0 O2 1.945899 1_554
Li0 O11 1.949961 1_455
Li0 O14 2.008120 1_565
Li1 O4 1.856228 1_445
Li1 O15 2.036693 1_454
Li1 O13 2.039489 1_554
Li1 O8 2.062359 1_444
Li2 O3 1.859794 1_665
Li2 O9 1.995770 1_665
Li2 O5 2.018677 1_555
Li2 O0 2.025814 1_655
Li3 O12 1.957046 1_555
Li3 O6 1.992711 1_655
Li3 O1 2.004542 1_545
Li3 O7 2.009759 1_555
Co0 O3 1.951163 1_555
Co0 O2 1.964970 1_555
Co0 O13 2.081352 1_555
Co0 O6 2.090814 1_555
Co0 O7 2.140589 1_555
Co0 O15 2.142710 1_455
Co1 O4 1.968702 1_445
Co1 O12 1.988082 1_555
Co1 O0 2.155335 1_545
Co1 O10 2.160898 1_555
Co1 O14 2.161743 1_555
Co1 O9 2.162695 1_555
Co2 O4 1.960053 1_545
Co2 O12 1.963310 1_555
Co2 O14 2.115417 1_555
Co2 O9 2.160487 1_655
Co2 O5 2.187470 1_545
Co2 O11 2.201074 1_555
O0 V0 1.793545 1_555
O0 Ti2 2.341186 1_455
O1 Ti0 1.941241 1_555
O1 Ti1 2.038012 1_555
O1 V0 2.226977 1_555
O2 Ti0 1.957743 1_555
O2 Ti1 1.963046 1_555
O3 Ti1 1.964538 1_445
O3 Ti0 1.968948 1_545
O4 Ti2 1.896618 1_555
O5 V0 1.780848 1_555
O5 Ti2 2.334741 1_555
O6 Ti0 1.851241 1_555
O6 V0 2.129357 1_555
O7 Ti1 1.827122 1_555
O7 V0 2.132937 1_555
O8 Ti1 1.957102 1_555
O8 Ti0 2.076519 1_655
O8 V1 2.239289 1_556
O9 V0 1.771436 1_555
O10 Ti2 1.847560 1_555
O10 V1 2.147700 1_555
O11 Ti2 1.868773 1_555
O11 V1 2.046235 1_555
O12 Ti2 1.917711 1_555
O13 V1 1.827692 1_556
O13 Ti0 2.238386 1_545
O14 V1 1.791195 1_555
O15 V1 1.782536 1_556
O15 Ti1 2.304019 1_545
