# generated using pymatgen
data_GeH12(NF2)4
_symmetry_space_group_name_H-M   'P 1'
_cell_length_a   6.22155300
_cell_length_b   11.83733100
_cell_length_c   13.72017400
_cell_angle_alpha   90.00000000
_cell_angle_beta   90.00000000
_cell_angle_gamma   90.00000000
_symmetry_Int_Tables_number   1
_chemical_formula_structural   GeH12(NF2)4
_chemical_formula_sum   'Ge4 H48 N16 F32'
_cell_volume   1010.44392222
_cell_formula_units_Z   4
loop_
 _symmetry_equiv_pos_site_id
 _symmetry_equiv_pos_as_xyz
  1  'x, y, z'
loop_
 _atom_site_type_symbol
 _atom_site_label
 _atom_site_symmetry_multiplicity
 _atom_site_fract_x
 _atom_site_fract_y
 _atom_site_fract_z
 _atom_site_occupancy
  Ge  Ge0  1  0.25000000  0.65342500  0.25000000  1
  Ge  Ge1  1  0.75000000  0.84657500  0.75000000  1
  Ge  Ge2  1  0.75000000  0.34657500  0.75000000  1
  Ge  Ge3  1  0.25000000  0.15342500  0.25000000  1
  H  H0  1  0.91937300  0.76041800  0.14479700  1
  H  H1  1  0.58062700  0.76041800  0.35520300  1
  H  H2  1  0.41937300  0.73958200  0.85520300  1
  H  H3  1  0.08062700  0.73958200  0.64479700  1
  H  H4  1  0.08062700  0.23958200  0.85520300  1
  H  H5  1  0.41937300  0.23958200  0.64479700  1
  H  H6  1  0.58062700  0.26041800  0.14479700  1
  H  H7  1  0.91937300  0.26041800  0.35520300  1
  H  H8  1  0.47043900  0.91900200  0.56941500  1
  H  H9  1  0.02956100  0.91900200  0.93058500  1
  H  H10  1  0.97043900  0.58099800  0.43058500  1
  H  H11  1  0.52956100  0.58099800  0.06941500  1
  H  H12  1  0.52956100  0.08099800  0.43058500  1
  H  H13  1  0.97043900  0.08099800  0.06941500  1
  H  H14  1  0.02956100  0.41900200  0.56941500  1
  H  H15  1  0.47043900  0.41900200  0.93058500  1
  H  H16  1  0.61993500  0.40991200  0.41963800  1
  H  H17  1  0.88006500  0.40991200  0.08036200  1
  H  H18  1  0.11993500  0.09008800  0.58036200  1
  H  H19  1  0.38006500  0.09008800  0.91963800  1
  H  H20  1  0.38006500  0.59008800  0.58036200  1
  H  H21  1  0.11993500  0.59008800  0.91963800  1
  H  H22  1  0.88006500  0.90991200  0.41963800  1
  H  H23  1  0.61993500  0.90991200  0.08036200  1
  H  H24  1  0.41176900  0.86746100  0.14763500  1
  H  H25  1  0.08823100  0.86746100  0.35236500  1
  H  H26  1  0.91176900  0.63253900  0.85236500  1
  H  H27  1  0.58823100  0.63253900  0.64763500  1
  H  H28  1  0.58823100  0.13253900  0.85236500  1
  H  H29  1  0.91176900  0.13253900  0.64763500  1
  H  H30  1  0.08823100  0.36746100  0.14763500  1
  H  H31  1  0.41176900  0.36746100  0.35236500  1
  H  H32  1  0.87433600  0.03016100  0.56528300  1
  H  H33  1  0.62566400  0.03016100  0.93471700  1
  H  H34  1  0.37433600  0.46983900  0.43471700  1
  H  H35  1  0.12566400  0.46983900  0.06528300  1
  H  H36  1  0.12566400  0.96983900  0.43471700  1
  H  H37  1  0.37433600  0.96983900  0.06528300  1
  H  H38  1  0.62566400  0.53016100  0.56528300  1
  H  H39  1  0.87433600  0.53016100  0.93471700  1
  H  H40  1  0.08192300  0.83643300  0.47306400  1
  H  H41  1  0.41807700  0.83643300  0.02693600  1
  H  H42  1  0.58192300  0.66356700  0.52693600  1
  H  H43  1  0.91807700  0.66356700  0.97306400  1
  H  H44  1  0.91807700  0.16356700  0.52693600  1
  H  H45  1  0.58192300  0.16356700  0.97306400  1
  H  H46  1  0.41807700  0.33643300  0.47306400  1
  H  H47  1  0.08192300  0.33643300  0.02693600  1
  N  N0  1  0.58008400  0.01592100  0.47638000  1
  N  N1  1  0.91991600  0.01592100  0.02362000  1
  N  N2  1  0.08008400  0.48407900  0.52362000  1
  N  N3  1  0.41991600  0.48407900  0.97638000  1
  N  N4  1  0.41991600  0.98407900  0.52362000  1
  N  N5  1  0.08008400  0.98407900  0.97638000  1
  N  N6  1  0.91991600  0.51592100  0.47638000  1
  N  N7  1  0.58008400  0.51592100  0.02362000  1
  N  N8  1  0.04363100  0.89616400  0.42030300  1
  N  N9  1  0.45636900  0.89616400  0.07969700  1
  N  N10  1  0.54363100  0.60383600  0.57969700  1
  N  N11  1  0.95636900  0.60383600  0.92030300  1
  N  N12  1  0.95636900  0.10383600  0.57969700  1
  N  N13  1  0.54363100  0.10383600  0.92030300  1
  N  N14  1  0.45636900  0.39616400  0.42030300  1
  N  N15  1  0.04363100  0.39616400  0.07969700  1
  F  F0  1  0.21102200  0.66186400  0.38133400  1
  F  F1  1  0.28897800  0.66186400  0.11866600  1
  F  F2  1  0.71102200  0.83813600  0.61866600  1
  F  F3  1  0.78897800  0.83813600  0.88133400  1
  F  F4  1  0.78897800  0.33813600  0.61866600  1
  F  F5  1  0.71102200  0.33813600  0.88133400  1
  F  F6  1  0.28897800  0.16186400  0.38133400  1
  F  F7  1  0.21102200  0.16186400  0.11866600  1
  F  F8  1  0.46021100  0.55067900  0.26229900  1
  F  F9  1  0.03978900  0.55067900  0.23770100  1
  F  F10  1  0.96021100  0.94932100  0.73770100  1
  F  F11  1  0.53978900  0.94932100  0.76229900  1
  F  F12  1  0.53978900  0.44932100  0.73770100  1
  F  F13  1  0.96021100  0.44932100  0.76229900  1
  F  F14  1  0.03978900  0.05067900  0.26229900  1
  F  F15  1  0.46021100  0.05067900  0.23770100  1
  F  F16  1  0.45201200  0.77295600  0.26605300  1
  F  F17  1  0.04798800  0.77295600  0.23394700  1
  F  F18  1  0.95201200  0.72704400  0.73394700  1
  F  F19  1  0.54798800  0.72704400  0.76605300  1
  F  F20  1  0.54798800  0.22704400  0.73394700  1
  F  F21  1  0.95201200  0.22704400  0.76605300  1
  F  F22  1  0.04798800  0.27295600  0.26605300  1
  F  F23  1  0.45201200  0.27295600  0.23394700  1
  F  F24  1  0.16233900  0.74581000  0.58299700  1
  F  F25  1  0.33766100  0.74581000  0.91700300  1
  F  F26  1  0.66233900  0.75419000  0.41700300  1
  F  F27  1  0.83766100  0.75419000  0.08299700  1
  F  F28  1  0.83766100  0.25419000  0.41700300  1
  F  F29  1  0.66233900  0.25419000  0.08299700  1
  F  F30  1  0.33766100  0.24581000  0.58299700  1
  F  F31  1  0.16233900  0.24581000  0.91700300  1
loop_
_geom_bond_atom_site_label_1
_geom_bond_atom_site_label_2
_geom_bond_distance
_geom_bond_site_symmetry_2
H8 N4 1.042595 1_555
H9 N5 1.042595 1_555
H10 N6 1.042595 1_555
H11 N7 1.042595 1_555
H12 N0 1.042595 1_555
H13 N1 1.042595 1_555
H14 N2 1.042595 1_555
H15 N3 1.042595 1_555
H16 N14 1.030605 1_555
H17 N15 1.030605 1_655
H18 N12 1.030605 1_455
H19 N13 1.030605 1_555
H20 N10 1.030605 1_555
H21 N11 1.030605 1_455
H22 N8 1.030605 1_655
H23 N9 1.030605 1_555
H24 N9 1.030188 1_555
H25 N8 1.030188 1_555
H26 N11 1.030188 1_555
H27 N10 1.030188 1_555
H28 N13 1.030188 1_555
H29 N12 1.030188 1_555
H30 N15 1.030188 1_555
H31 N14 1.030188 1_555
H32 N12 1.029648 1_555
H33 N13 1.029648 1_555
H34 N14 1.029648 1_555
H35 N15 1.029648 1_555
H36 N8 1.029648 1_555
H37 N9 1.029648 1_555
H38 N10 1.029648 1_555
H39 N11 1.029648 1_555
H40 N8 1.039568 1_555
H41 N9 1.039568 1_555
H42 N10 1.039568 1_555
H43 N11 1.039568 1_555
H44 N12 1.039568 1_555
H45 N13 1.039568 1_555
H46 N14 1.039568 1_555
H47 N15 1.039568 1_555
F0 Ge0 1.820912 1_555
F1 Ge0 1.820912 1_555
F2 Ge1 1.820912 1_555
F3 Ge1 1.820912 1_555
F4 Ge2 1.820912 1_555
F5 Ge2 1.820912 1_555
F6 Ge3 1.820912 1_555
F7 Ge3 1.820912 1_555
F8 Ge0 1.793921 1_555
F9 Ge0 1.793921 1_555
F10 Ge1 1.793921 1_555
F11 Ge1 1.793921 1_555
F12 Ge2 1.793921 1_555
F13 Ge2 1.793921 1_555
F14 Ge3 1.793921 1_555
F15 Ge3 1.793921 1_555
F16 H1 1.469159 1_555
F16 Ge0 1.905295 1_555
F17 H0 1.469159 1_455
F17 Ge0 1.905295 1_555
F18 H3 1.469159 1_655
F18 Ge1 1.905295 1_555
F19 H2 1.469159 1_555
F19 Ge1 1.905295 1_555
F20 H5 1.469159 1_555
F20 Ge2 1.905295 1_555
F21 H4 1.469159 1_655
F21 Ge2 1.905295 1_555
F22 H7 1.469159 1_455
F22 Ge3 1.905295 1_555
F23 H6 1.469159 1_555
F23 Ge3 1.905295 1_555
F24 H3 0.991376 1_555
F25 H2 0.991376 1_555
F26 H1 0.991376 1_555
F27 H0 0.991376 1_555
F28 H7 0.991376 1_555
F29 H6 0.991376 1_555
F30 H5 0.991376 1_555
F31 H4 0.991376 1_555
