# generated using pymatgen
data_La4CoO8
_symmetry_space_group_name_H-M   'P 1'
_cell_length_a   13.34413013
_cell_length_b   13.34413013
_cell_length_c   13.34413013
_cell_angle_alpha   157.00893556
_cell_angle_beta   157.00893556
_cell_angle_gamma   32.74019711
_symmetry_Int_Tables_number   1
_chemical_formula_structural   La4CoO8
_chemical_formula_sum   'La8 Co2 O16'
_cell_volume   362.18950074
_cell_formula_units_Z   2
loop_
 _symmetry_equiv_pos_site_id
 _symmetry_equiv_pos_as_xyz
  1  'x, y, z'
loop_
 _atom_site_type_symbol
 _atom_site_label
 _atom_site_symmetry_multiplicity
 _atom_site_fract_x
 _atom_site_fract_y
 _atom_site_fract_z
 _atom_site_occupancy
  La  La0  1  0.06535200  0.56535200  0.50000000  1
  La  La1  1  0.93152600  0.43152600  0.50000000  1
  La  La2  1  0.68464800  0.68464800  0.00000000  1
  La  La3  1  0.31535200  0.31535200  0.00000000  1
  La  La4  1  0.81847400  0.81847400  0.00000000  1
  La  La5  1  0.18152600  0.18152600  0.00000000  1
  La  La6  1  0.56847400  0.06847400  0.50000000  1
  La  La7  1  0.43464800  0.93464800  0.50000000  1
  Co  Co0  1  0.25000000  0.75000000  0.50000000  1
  Co  Co1  1  0.50000000  0.50000000  0.00000000  1
  O  O0  1  0.00673100  0.50673100  0.01346100  1
  O  O1  1  0.74326900  0.25673100  0.00000000  1
  O  O2  1  0.00673100  0.99326900  0.50000000  1
  O  O3  1  0.84328600  0.34328600  0.50000000  1
  O  O4  1  0.16902100  0.66902100  0.50000000  1
  O  O5  1  0.25673100  0.25673100  0.51346100  1
  O  O6  1  0.49326900  0.50673100  0.50000000  1
  O  O7  1  0.74326900  0.74326900  0.48653900  1
  O  O8  1  0.09328600  0.09328600  0.00000000  1
  O  O9  1  0.49326900  0.99326900  0.98653900  1
  O  O10  1  0.58097900  0.58097900  0.00000000  1
  O  O11  1  0.25673100  0.74326900  0.00000000  1
  O  O12  1  0.41902100  0.41902100  0.00000000  1
  O  O13  1  0.90671400  0.90671400  0.00000000  1
  O  O14  1  0.33097900  0.83097900  0.50000000  1
  O  O15  1  0.65671400  0.15671400  0.50000000  1
loop_
_geom_bond_atom_site_label_1
_geom_bond_atom_site_label_2
_geom_bond_distance
_geom_bond_site_symmetry_2
La0 O5 2.517738 1_555
La0 O1 2.517747 1_455
La0 O11 2.517747 1_556
La0 O7 2.517755 1_455
La0 O4 2.654585 1_555
La0 O10 2.689308 1_455
La0 O10 2.689308 1_556
La0 O8 2.753887 1_566
La0 O8 2.753887 1_555
La1 O3 2.259504 1_555
La1 O7 2.571566 1_555
La1 O1 2.571575 1_555
La1 O11 2.571575 1_656
La1 O5 2.571583 1_655
La1 O12 2.678580 1_555
La1 O12 2.678580 1_656
La1 O13 2.734213 1_556
La1 O13 2.734213 1_545
La2 O9 2.517738 1_554
La2 O2 2.517747 1_655
La2 O6 2.517747 1_554
La2 O0 2.517755 1_655
La2 O10 2.654585 1_555
La2 O4 2.689308 1_655
La2 O4 2.689308 1_554
La2 O15 2.753887 1_565
La2 O15 2.753887 1_554
La3 O0 2.517738 1_555
La3 O6 2.517747 1_555
La3 O2 2.517747 1_544
La3 O9 2.517755 1_544
La3 O12 2.654585 1_555
La3 O14 2.689308 1_544
La3 O14 2.689308 1_555
La3 O3 2.753887 1_555
La3 O3 2.753887 1_454
La4 O13 2.259504 1_555
La4 O0 2.571566 1_655
La4 O2 2.571575 1_655
La4 O6 2.571575 1_554
La4 O9 2.571583 1_554
La4 O14 2.678580 1_554
La4 O14 2.678580 1_655
La4 O3 2.734213 1_554
La4 O3 2.734213 1_565
La5 O8 2.259504 1_555
La5 O9 2.571566 1_544
La5 O2 2.571575 1_544
La5 O6 2.571575 1_555
La5 O0 2.571583 1_555
La5 O4 2.678580 1_544
La5 O4 2.678580 1_555
La5 O15 2.734213 1_454
La5 O15 2.734213 1_555
La6 O15 2.259504 1_555
La6 O5 2.571566 1_555
La6 O1 2.571575 1_556
La6 O11 2.571575 1_545
La6 O7 2.571583 1_545
La6 O10 2.678580 1_545
La6 O10 2.678580 1_556
La6 O8 2.734213 1_656
La6 O8 2.734213 1_555
La7 O7 2.517738 1_555
La7 O11 2.517747 1_555
La7 O1 2.517747 1_566
La7 O5 2.517755 1_565
La7 O14 2.654585 1_555
La7 O12 2.689308 1_566
La7 O12 2.689308 1_555
La7 O13 2.753887 1_455
La7 O13 2.753887 1_556
Co0 O2 1.829830 1_555
Co0 O6 1.829830 1_555
Co0 O0 1.829834 1_555
Co0 O9 1.829834 1_555
Co0 O4 2.073577 1_555
Co0 O14 2.073577 1_555
Co1 O11 1.829830 1_555
Co1 O1 1.829830 1_555
Co1 O5 1.829834 1_554
Co1 O7 1.829834 1_555
Co1 O12 2.073577 1_555
Co1 O10 2.073577 1_555
