# generated using pymatgen
data_Li5Fe2P2(CO7)2
_symmetry_space_group_name_H-M   'P 1'
_cell_length_a   6.47108700
_cell_length_b   8.42523200
_cell_length_c   10.15892754
_cell_angle_alpha   84.46586717
_cell_angle_beta   90.00000000
_cell_angle_gamma   90.00000000
_symmetry_Int_Tables_number   1
_chemical_formula_structural   Li5Fe2P2(CO7)2
_chemical_formula_sum   'Li10 Fe4 P4 C4 O28'
_cell_volume   551.28726186
_cell_formula_units_Z   2
loop_
 _symmetry_equiv_pos_site_id
 _symmetry_equiv_pos_as_xyz
  1  'x, y, z'
loop_
 _atom_site_type_symbol
 _atom_site_label
 _atom_site_symmetry_multiplicity
 _atom_site_fract_x
 _atom_site_fract_y
 _atom_site_fract_z
 _atom_site_occupancy
  Li  Li0  1  0.49306100  0.89706100  0.60957500  1
  Li  Li1  1  0.50693900  0.89706100  0.10957500  1
  Li  Li2  1  0.31277700  0.71179600  0.88171600  1
  Li  Li3  1  0.68722300  0.71179600  0.38171600  1
  Li  Li4  1  0.74649700  0.26087800  0.62867600  1
  Li  Li5  1  0.24959200  0.26575300  0.63156600  1
  Li  Li6  1  0.75040800  0.26575300  0.13156600  1
  Li  Li7  1  0.25350300  0.26087800  0.12867600  1
  Li  Li8  1  0.00139000  0.09886600  0.88157000  1
  Li  Li9  1  0.99861000  0.09886600  0.38157000  1
  Fe  Fe0  1  0.99963800  0.67174500  0.60220600  1
  Fe  Fe1  1  0.00036200  0.67174500  0.10220600  1
  Fe  Fe2  1  0.50675800  0.33208000  0.89428500  1
  Fe  Fe3  1  0.49324200  0.33208000  0.39428500  1
  P  P0  1  0.49434600  0.58517100  0.64159100  1
  P  P1  1  0.50565400  0.58517100  0.14159100  1
  P  P2  1  0.00967800  0.41842500  0.86785700  1
  P  P3  1  0.99032200  0.41842500  0.36785700  1
  C  C0  1  0.99964600  0.96359500  0.64809700  1
  C  C1  1  0.00035400  0.96359500  0.14809700  1
  C  C2  1  0.49180800  0.03862900  0.84163300  1
  C  C3  1  0.50819200  0.03862900  0.34163300  1
  O  O0  1  0.99067300  0.92963600  0.52587000  1
  O  O1  1  0.45737000  0.90104600  0.80576400  1
  O  O2  1  0.00932700  0.92963600  0.02587000  1
  O  O3  1  0.00670000  0.84280200  0.73712100  1
  O  O4  1  0.54263000  0.90104600  0.30576400  1
  O  O5  1  0.99330000  0.84280200  0.23712100  1
  O  O6  1  0.30420000  0.68781400  0.59175900  1
  O  O7  1  0.68221100  0.69337100  0.59261700  1
  O  O8  1  0.31778900  0.69337100  0.09261700  1
  O  O9  1  0.69580000  0.68781400  0.09175900  1
  O  O10  1  0.03729800  0.57684700  0.93014800  1
  O  O11  1  0.48478900  0.55884800  0.79338600  1
  O  O12  1  0.96270200  0.57684700  0.43014800  1
  O  O13  1  0.51521100  0.55884800  0.29338600  1
  O  O14  1  0.99863700  0.45607800  0.71349200  1
  O  O15  1  0.50362300  0.42327600  0.58263400  1
  O  O16  1  0.00136300  0.45607800  0.21349200  1
  O  O17  1  0.49637700  0.42327600  0.08263400  1
  O  O18  1  0.81979100  0.31900000  0.91974500  1
  O  O19  1  0.18929100  0.29942000  0.90541600  1
  O  O20  1  0.81070900  0.29942000  0.40541600  1
  O  O21  1  0.18020900  0.31900000  0.41974500  1
  O  O22  1  0.51261400  0.16138300  0.75042700  1
  O  O23  1  0.00068900  0.10910100  0.68045700  1
  O  O24  1  0.48738600  0.16138300  0.25042700  1
  O  O25  1  0.50454300  0.06849600  0.96500400  1
  O  O26  1  0.99931100  0.10910100  0.18045700  1
  O  O27  1  0.49545700  0.06849600  0.46500400  1
loop_
_geom_bond_atom_site_label_1
_geom_bond_atom_site_label_2
_geom_bond_distance
_geom_bond_site_symmetry_2
Li0 O27 1.958151 1_565
Li0 O1 2.009901 1_555
Li0 O7 2.128383 1_555
Li0 O6 2.167009 1_555
Li1 O25 1.958151 1_564
Li1 O4 2.009901 1_555
Li1 O8 2.128383 1_555
Li1 O9 2.167009 1_555
Li2 O1 1.943166 1_555
Li2 O11 1.981867 1_555
Li2 O8 2.133407 1_556
Li2 O10 2.145865 1_555
Li3 O4 1.943166 1_555
Li3 O13 1.981867 1_555
Li3 O7 2.133407 1_555
Li3 O12 2.145865 1_555
Li4 O22 2.079219 1_555
Li4 O15 2.106546 1_555
Li4 O23 2.118462 1_655
Li4 O20 2.297879 1_555
Li4 O14 2.526391 1_555
Li5 O23 2.111035 1_555
Li5 O15 2.140910 1_555
Li5 O21 2.201638 1_555
Li5 O22 2.218881 1_555
Li5 O14 2.481660 1_455
Li6 O26 2.111035 1_555
Li6 O17 2.140910 1_555
Li6 O18 2.201638 1_554
Li6 O24 2.218881 1_555
Li6 O16 2.481660 1_655
Li7 O24 2.079219 1_555
Li7 O17 2.106546 1_555
Li7 O26 2.118462 1_455
Li7 O19 2.297879 1_554
Li7 O16 2.526391 1_555
Li8 O2 1.944575 1_546
Li8 O23 2.036591 1_555
Li8 O19 2.114531 1_555
Li8 O18 2.260516 1_455
Li9 O0 1.944575 1_545
Li9 O26 2.036591 1_555
Li9 O20 2.114531 1_555
Li9 O21 2.260516 1_655
Fe0 O6 1.977640 1_655
Fe0 O12 2.005289 1_555
Fe0 O14 2.045387 1_555
Fe0 O7 2.063633 1_555
Fe0 O3 2.082941 1_655
Fe0 O0 2.236243 1_555
Fe1 O9 1.977640 1_455
Fe1 O10 2.005289 1_554
Fe1 O16 2.045387 1_555
Fe1 O8 2.063633 1_555
Fe1 O5 2.082941 1_455
Fe1 O2 2.236243 1_555
Fe2 O18 2.043736 1_555
Fe2 O19 2.074339 1_555
Fe2 O11 2.084094 1_555
Fe2 O17 2.130640 1_556
Fe2 O22 2.147312 1_555
Fe2 O25 2.267240 1_555
Fe3 O21 2.043736 1_555
Fe3 O20 2.074339 1_555
Fe3 O13 2.084094 1_555
Fe3 O15 2.130640 1_555
Fe3 O24 2.147312 1_555
Fe3 O27 2.267240 1_555
C0 O3 1.295457 1_655
C0 O23 1.299513 1_665
C0 O0 1.302137 1_555
C1 O5 1.295457 1_455
C1 O26 1.299513 1_465
C1 O2 1.302137 1_555
C2 O1 1.267906 1_545
C2 O25 1.304510 1_555
C2 O22 1.327191 1_555
C3 O4 1.267906 1_545
C3 O27 1.304510 1_555
C3 O24 1.327191 1_555
O6 P0 1.560036 1_555
O7 P0 1.571301 1_555
O8 P1 1.571301 1_555
O9 P1 1.560036 1_555
O10 P2 1.541701 1_555
O11 P0 1.537869 1_555
O12 P3 1.541701 1_555
O13 P1 1.537869 1_555
O14 P2 1.571301 1_655
O15 P0 1.542857 1_555
O16 P3 1.571301 1_455
O17 P1 1.542857 1_555
O18 P2 1.550577 1_655
O19 P2 1.558209 1_555
O20 P3 1.558209 1_555
O21 P3 1.550577 1_455
