# generated using pymatgen
data_Li6Co2C4SO16
_symmetry_space_group_name_H-M   'P 1'
_cell_length_a   9.37427440
_cell_length_b   9.37427440
_cell_length_c   9.37427440
_cell_angle_alpha   60.00000000
_cell_angle_beta   60.00000000
_cell_angle_gamma   60.00000000
_symmetry_Int_Tables_number   1
_chemical_formula_structural   Li6Co2C4SO16
_chemical_formula_sum   'Li12 Co4 C8 S2 O32'
_cell_volume   582.50276120
_cell_formula_units_Z   2
loop_
 _symmetry_equiv_pos_site_id
 _symmetry_equiv_pos_as_xyz
  1  'x, y, z'
loop_
 _atom_site_type_symbol
 _atom_site_label
 _atom_site_symmetry_multiplicity
 _atom_site_fract_x
 _atom_site_fract_y
 _atom_site_fract_z
 _atom_site_occupancy
  Li  Li0  1  0.53159000  0.96841000  0.96841000  1
  Li  Li1  1  0.53159000  0.53159000  0.96841000  1
  Li  Li2  1  0.53159000  0.96841000  0.53159000  1
  Li  Li3  1  0.96841000  0.53159000  0.96841000  1
  Li  Li4  1  0.28159000  0.71841000  0.71841000  1
  Li  Li5  1  0.28159000  0.28159000  0.71841000  1
  Li  Li6  1  0.96841000  0.96841000  0.53159000  1
  Li  Li7  1  0.96841000  0.53159000  0.53159000  1
  Li  Li8  1  0.71841000  0.28159000  0.71841000  1
  Li  Li9  1  0.28159000  0.71841000  0.28159000  1
  Li  Li10  1  0.71841000  0.28159000  0.28159000  1
  Li  Li11  1  0.71841000  0.71841000  0.28159000  1
  Co  Co0  1  0.62500000  0.12500000  0.12500000  1
  Co  Co1  1  0.12500000  0.12500000  0.12500000  1
  Co  Co2  1  0.12500000  0.62500000  0.12500000  1
  Co  Co3  1  0.12500000  0.12500000  0.62500000  1
  C  C0  1  0.34911300  0.34911300  0.95266000  1
  C  C1  1  0.34911300  0.34911300  0.34911300  1
  C  C2  1  0.34911300  0.95266000  0.34911300  1
  C  C3  1  0.95266000  0.34911300  0.34911300  1
  C  C4  1  0.29734000  0.90088700  0.90088700  1
  C  C5  1  0.90088700  0.29734000  0.90088700  1
  C  C6  1  0.90088700  0.90088700  0.90088700  1
  C  C7  1  0.90088700  0.90088700  0.29734000  1
  S  S0  1  0.50000000  0.50000000  0.50000000  1
  S  S1  1  0.75000000  0.75000000  0.75000000  1
  O  O0  1  0.56510500  0.56510500  0.30468500  1
  O  O1  1  0.56510500  0.56510500  0.56510500  1
  O  O2  1  0.56510500  0.30468500  0.56510500  1
  O  O3  1  0.30468500  0.56510500  0.56510500  1
  O  O4  1  0.49269300  0.21644800  0.95165600  1
  O  O5  1  0.33920300  0.49269300  0.95165600  1
  O  O6  1  0.49269300  0.33920300  0.21644800  1
  O  O7  1  0.21644800  0.33920300  0.95165600  1
  O  O8  1  0.49269300  0.95165600  0.33920300  1
  O  O9  1  0.33920300  0.95165600  0.21644800  1
  O  O10  1  0.21644800  0.49269300  0.33920300  1
  O  O11  1  0.33920300  0.21644800  0.49269300  1
  O  O12  1  0.95165600  0.49269300  0.21644800  1
  O  O13  1  0.21644800  0.95165600  0.49269300  1
  O  O14  1  0.95165600  0.21644800  0.33920300  1
  O  O15  1  0.29834400  0.91079700  0.75730700  1
  O  O16  1  0.95165600  0.33920300  0.49269300  1
  O  O17  1  0.29834400  0.03355200  0.91079700  1
  O  O18  1  0.03355200  0.29834400  0.75730700  1
  O  O19  1  0.29834400  0.75730700  0.03355200  1
  O  O20  1  0.91079700  0.03355200  0.75730700  1
  O  O21  1  0.03355200  0.75730700  0.91079700  1
  O  O22  1  0.91079700  0.29834400  0.03355200  1
  O  O23  1  0.75730700  0.29834400  0.91079700  1
  O  O24  1  0.03355200  0.91079700  0.29834400  1
  O  O25  1  0.75730700  0.91079700  0.03355200  1
  O  O26  1  0.91079700  0.75730700  0.29834400  1
  O  O27  1  0.75730700  0.03355200  0.29834400  1
  O  O28  1  0.94531500  0.68489500  0.68489500  1
  O  O29  1  0.68489500  0.94531500  0.68489500  1
  O  O30  1  0.68489500  0.68489500  0.68489500  1
  O  O31  1  0.68489500  0.68489500  0.94531500  1
loop_
_geom_bond_atom_site_label_1
_geom_bond_atom_site_label_2
_geom_bond_distance
_geom_bond_site_symmetry_2
Li0 O4 2.099600 1_565
Li0 O9 2.099600 1_556
Li0 O25 2.227397 1_556
Li0 O17 2.227397 1_565
Li0 O31 2.370774 1_555
Li0 O29 2.370774 1_555
Li1 O6 2.099600 1_556
Li1 O5 2.099600 1_555
Li1 O19 2.227397 1_556
Li1 O23 2.227397 1_555
Li1 O30 2.370774 1_555
Li1 O31 2.370774 1_555
Li2 O11 2.099600 1_565
Li2 O8 2.099600 1_555
Li2 O27 2.227397 1_565
Li2 O15 2.227397 1_555
Li2 O30 2.370774 1_555
Li2 O29 2.370774 1_555
Li3 O12 2.099600 1_556
Li3 O7 2.099600 1_655
Li3 O21 2.227397 1_655
Li3 O22 2.227397 1_556
Li3 O31 2.370774 1_555
Li3 O28 2.370774 1_555
Li4 O15 2.099600 1_555
Li4 O21 2.099600 1_555
Li4 O5 2.227397 1_555
Li4 O13 2.227397 1_555
Li4 O1 2.370774 1_555
Li4 O3 2.370774 1_555
Li5 O17 2.099600 1_555
Li5 O18 2.099600 1_555
Li5 O7 2.227397 1_555
Li5 O11 2.227397 1_555
Li5 O3 2.370774 1_555
Li5 O2 2.370774 1_555
Li6 O13 2.099600 1_655
Li6 O14 2.099600 1_565
Li6 O20 2.227397 1_565
Li6 O24 2.227397 1_655
Li6 O28 2.370774 1_555
Li6 O29 2.370774 1_555
Li7 O10 2.099600 1_655
Li7 O16 2.099600 1_555
Li7 O18 2.227397 1_655
Li7 O26 2.227397 1_555
Li7 O30 2.370774 1_555
Li7 O28 2.370774 1_555
Li8 O23 2.099600 1_555
Li8 O20 2.099600 1_555
Li8 O4 2.227397 1_555
Li8 O16 2.227397 1_555
Li8 O1 2.370774 1_555
Li8 O2 2.370774 1_555
Li9 O24 2.099600 1_555
Li9 O19 2.099600 1_555
Li9 O9 2.227397 1_555
Li9 O10 2.227397 1_555
Li9 O3 2.370774 1_555
Li9 O0 2.370774 1_555
Li10 O22 2.099600 1_555
Li10 O27 2.099600 1_555
Li10 O14 2.227397 1_555
Li10 O6 2.227397 1_555
Li10 O0 2.370774 1_555
Li10 O2 2.370774 1_555
Li11 O26 2.099600 1_555
Li11 O25 2.099600 1_555
Li11 O8 2.227397 1_555
Li11 O12 2.227397 1_555
Li11 O1 2.370774 1_555
Li11 O0 2.370774 1_555
Co0 O27 2.114922 1_555
Co0 O6 2.114922 1_555
Co0 O23 2.114922 1_554
Co0 O25 2.114922 1_545
Co0 O8 2.114922 1_545
Co0 O4 2.114922 1_554
Co1 O7 2.114922 1_554
Co1 O14 2.114922 1_455
Co1 O9 2.114922 1_545
Co1 O17 2.114922 1_554
Co1 O24 2.114922 1_545
Co1 O22 2.114922 1_455
Co2 O19 2.114922 1_555
Co2 O10 2.114922 1_555
Co2 O26 2.114922 1_455
Co2 O21 2.114922 1_554
Co2 O5 2.114922 1_554
Co2 O12 2.114922 1_455
Co3 O18 2.114922 1_555
Co3 O11 2.114922 1_555
Co3 O20 2.114922 1_455
Co3 O15 2.114922 1_545
Co3 O16 2.114922 1_455
Co3 O13 2.114922 1_545
C0 O7 1.297485 1_555
C0 O4 1.297490 1_555
C0 O5 1.297494 1_555
C1 O6 1.297490 1_555
C1 O11 1.297490 1_555
C1 O10 1.297490 1_555
C2 O9 1.297485 1_555
C2 O13 1.297490 1_555
C2 O8 1.297494 1_555
C3 O14 1.297485 1_555
C3 O12 1.297490 1_555
C3 O16 1.297494 1_555
C4 O17 1.297485 1_565
C4 O19 1.297490 1_556
C4 O15 1.297494 1_555
C5 O22 1.297485 1_556
C5 O18 1.297490 1_655
C5 O23 1.297494 1_555
C6 O21 1.297490 1_655
C6 O20 1.297490 1_565
C6 O25 1.297490 1_556
C7 O24 1.297485 1_655
C7 O27 1.297490 1_565
C7 O26 1.297494 1_555
O0 S0 1.494953 1_555
O1 S0 1.494953 1_555
O2 S0 1.494953 1_555
O3 S0 1.494953 1_555
O28 S1 1.494953 1_555
O29 S1 1.494953 1_555
O30 S1 1.494953 1_555
O31 S1 1.494953 1_555
