# generated using pymatgen
data_Mn3CrFe2(PO4)6
_symmetry_space_group_name_H-M   'P 1'
_cell_length_a   8.48920539
_cell_length_b   8.48920539
_cell_length_c   8.48920614
_cell_angle_alpha   61.01302669
_cell_angle_beta   61.01302669
_cell_angle_gamma   61.01302842
_symmetry_Int_Tables_number   1
_chemical_formula_structural   Mn3CrFe2(PO4)6
_chemical_formula_sum   'Mn3 Cr1 Fe2 P6 O24'
_cell_volume   442.46997267
_cell_formula_units_Z   1
loop_
 _symmetry_equiv_pos_site_id
 _symmetry_equiv_pos_as_xyz
  1  'x, y, z'
loop_
 _atom_site_type_symbol
 _atom_site_label
 _atom_site_symmetry_multiplicity
 _atom_site_fract_x
 _atom_site_fract_y
 _atom_site_fract_z
 _atom_site_occupancy
  Mn  Mn0  1  0.85472300  0.85472300  0.85472300  1
  Mn  Mn1  1  0.64193100  0.64193100  0.64193100  1
  Mn  Mn2  1  0.35766800  0.35766800  0.35766800  1
  Cr  Cr0  1  0.14229900  0.14229900  0.14229900  1
  Fe  Fe0  1  0.99848500  0.99848500  0.99848500  1
  Fe  Fe1  1  0.49900200  0.49900200  0.49900200  1
  P  P0  1  0.54532700  0.95979500  0.25187600  1
  P  P1  1  0.25187600  0.54532700  0.95979500  1
  P  P2  1  0.95979500  0.25187600  0.54532700  1
  P  P3  1  0.04091300  0.75002700  0.45303700  1
  P  P4  1  0.75002700  0.45303700  0.04091300  1
  P  P5  1  0.45303700  0.04091300  0.75002700  1
  O  O0  1  0.49245500  0.88195300  0.68488800  1
  O  O1  1  0.88195300  0.68488800  0.49245500  1
  O  O2  1  0.74922200  0.94103500  0.09733800  1
  O  O3  1  0.68488800  0.49245500  0.88195300  1
  O  O4  1  0.39143600  0.99449400  0.18428500  1
  O  O5  1  0.55764800  0.75960400  0.41399800  1
  O  O6  1  0.09733800  0.74922200  0.94103500  1
  O  O7  1  0.41399800  0.55764800  0.75960400  1
  O  O8  1  0.01220700  0.81703800  0.60321800  1
  O  O9  1  0.75960400  0.41399800  0.55764800  1
  O  O10  1  0.05463500  0.91045900  0.25035700  1
  O  O11  1  0.81703800  0.60321800  0.01220700  1
  O  O12  1  0.18428500  0.39143600  0.99449400  1
  O  O13  1  0.94103500  0.09733800  0.74922200  1
  O  O14  1  0.24050100  0.58974200  0.43600700  1
  O  O15  1  0.99449400  0.18428500  0.39143600  1
  O  O16  1  0.58974200  0.43600700  0.24050100  1
  O  O17  1  0.91045900  0.25035700  0.05463500  1
  O  O18  1  0.43600700  0.24050100  0.58974200  1
  O  O19  1  0.60321800  0.01220700  0.81703800  1
  O  O20  1  0.31482100  0.50998700  0.11758700  1
  O  O21  1  0.25035700  0.05463500  0.91045900  1
  O  O22  1  0.11758700  0.31482100  0.50998700  1
  O  O23  1  0.50998700  0.11758700  0.31482100  1
loop_
_geom_bond_atom_site_label_1
_geom_bond_atom_site_label_2
_geom_bond_distance
_geom_bond_site_symmetry_2
Mn0 O11 1.982213 1_556
Mn0 O19 1.982213 1_565
Mn0 O8 1.982213 1_655
Mn0 O13 2.149367 1_565
Mn0 O6 2.149367 1_655
Mn0 O2 2.149367 1_556
Mn1 O1 1.913286 1_555
Mn1 O0 1.913286 1_555
Mn1 O3 1.913286 1_555
Mn1 O7 2.007387 1_555
Mn1 O9 2.007387 1_555
Mn1 O5 2.007388 1_555
Mn2 O22 1.914821 1_555
Mn2 O23 1.914821 1_555
Mn2 O20 1.914821 1_555
Mn2 O16 2.010591 1_555
Mn2 O14 2.010591 1_555
Mn2 O18 2.010591 1_555
Cr0 O12 1.974751 1_554
Cr0 O4 1.974751 1_545
Cr0 O15 1.974752 1_455
Cr0 O10 2.068083 1_545
Cr0 O17 2.068083 1_455
Cr0 O21 2.068083 1_554
Fe0 O2 2.074175 1_556
Fe0 O6 2.074175 1_655
Fe0 O13 2.074175 1_565
Fe0 O21 2.109850 1_665
Fe0 O17 2.109850 1_566
Fe0 O10 2.109851 1_656
Fe1 O18 2.189710 1_555
Fe1 O14 2.189710 1_555
Fe1 O16 2.189710 1_555
Fe1 O5 2.198838 1_555
Fe1 O9 2.198839 1_555
Fe1 O7 2.198839 1_555
O0 P5 1.531338 1_565
O1 P3 1.531338 1_655
O2 P0 1.573825 1_555
O3 P4 1.531338 1_556
O4 P0 1.520678 1_555
O5 P0 1.579100 1_555
O6 P1 1.573825 1_555
O7 P1 1.579100 1_555
O8 P3 1.508598 1_555
O9 P2 1.579100 1_555
O10 P3 1.586561 1_555
O11 P4 1.508598 1_555
O12 P1 1.520678 1_555
O13 P2 1.573825 1_555
O14 P3 1.569048 1_555
O15 P2 1.520678 1_555
O16 P4 1.569048 1_555
O17 P4 1.586561 1_555
O18 P5 1.569048 1_555
O19 P5 1.508598 1_555
O20 P1 1.522744 1_554
O21 P5 1.586561 1_555
O22 P2 1.522744 1_455
O23 P0 1.522744 1_545
