# generated using pymatgen
data_Li2MnFe(BO3)2
_symmetry_space_group_name_H-M   'P 1'
_cell_length_a   5.23877300
_cell_length_b   5.24546667
_cell_length_c   10.44061610
_cell_angle_alpha   91.37639782
_cell_angle_beta   89.66509000
_cell_angle_gamma   119.75202391
_symmetry_Int_Tables_number   1
_chemical_formula_structural   Li2MnFe(BO3)2
_chemical_formula_sum   'Li4 Mn2 Fe2 B4 O12'
_cell_volume   249.00857132
_cell_formula_units_Z   2
loop_
 _symmetry_equiv_pos_site_id
 _symmetry_equiv_pos_as_xyz
  1  'x, y, z'
loop_
 _atom_site_type_symbol
 _atom_site_label
 _atom_site_symmetry_multiplicity
 _atom_site_fract_x
 _atom_site_fract_y
 _atom_site_fract_z
 _atom_site_occupancy
  Li  Li0  1  0.02581800  0.67779600  0.66757400  1
  Li  Li1  1  0.97467700  0.65350000  0.16752500  1
  Li  Li2  1  0.01114200  0.34633900  0.41667000  1
  Li  Li3  1  0.98913900  0.33751500  0.91733300  1
  Mn  Mn0  1  0.66678300  0.67286800  0.88168900  1
  Mn  Mn1  1  0.32161400  0.32215600  0.13499200  1
  Fe  Fe0  1  0.68506800  0.00622500  0.63082100  1
  Fe  Fe1  1  0.32627100  0.99755500  0.38531900  1
  B  B0  1  0.65543900  0.99592100  0.12728100  1
  B  B1  1  0.66369100  0.66992300  0.37801200  1
  B  B2  1  0.34066900  0.33664000  0.62431100  1
  B  B3  1  0.33995700  0.00686200  0.87402100  1
  O  O0  1  0.67719500  0.93211400  0.41602600  1
  O  O1  1  0.67561900  0.74517100  0.09644800  1
  O  O2  1  0.38942500  0.96646700  0.16861000  1
  O  O3  1  0.39285900  0.41887600  0.34960900  1
  O  O4  1  0.08962500  0.73271400  0.86012000  1
  O  O5  1  0.91933900  0.65432000  0.36442300  1
  O  O6  1  0.08747000  0.35686900  0.61175000  1
  O  O7  1  0.90153200  0.27141900  0.11261500  1
  O  O8  1  0.60509400  0.58310600  0.66210400  1
  O  O9  1  0.61435400  0.03840400  0.84283800  1
  O  O10  1  0.31905700  0.24921800  0.91710300  1
  O  O11  1  0.32816200  0.06862000  0.59660400  1
loop_
_geom_bond_atom_site_label_1
_geom_bond_atom_site_label_2
_geom_bond_distance
_geom_bond_site_symmetry_2
Li0 O6 1.941181 1_555
Li0 O8 2.005367 1_455
Li0 O11 2.024119 1_565
Li0 O4 2.029898 1_555
Li1 O7 1.917665 1_555
Li1 O2 1.968584 1_655
Li1 O1 2.003720 1_555
Li1 O5 2.074599 1_555
Li2 O3 1.968546 1_555
Li2 O5 1.988777 1_455
Li2 O0 2.002119 1_445
Li2 O6 2.072079 1_555
Li3 O9 1.955355 1_555
Li3 O4 1.975855 1_655
Li3 O10 1.999042 1_655
Li3 O7 2.086361 1_556
Mn0 O4 2.088934 1_655
Mn0 O10 2.099363 1_555
Mn0 O9 2.116076 1_565
Mn0 O1 2.261958 1_556
Mn0 O8 2.321194 1_555
Mn1 O7 2.095299 1_455
Mn1 O2 2.102661 1_545
Mn1 O1 2.115383 1_555
Mn1 O3 2.277019 1_555
Mn1 O10 2.296772 1_554
Fe0 O6 2.007756 1_655
Fe0 O8 2.078106 1_545
Fe0 O11 2.086023 1_555
Fe0 O9 2.258368 1_555
Fe0 O0 2.263919 1_545
Fe1 O5 2.002746 1_455
Fe1 O0 2.058855 1_555
Fe1 O3 2.101859 1_565
Fe1 O11 2.227630 1_565
Fe1 O2 2.298341 1_555
B0 O7 1.390372 1_565
B0 O2 1.390909 1_555
B0 O1 1.400747 1_555
B1 O5 1.387990 1_555
B1 O0 1.389804 1_555
B1 O3 1.402467 1_555
B2 O6 1.389363 1_555
B2 O8 1.396593 1_555
B2 O11 1.397770 1_555
B3 O4 1.389003 1_545
B3 O10 1.393032 1_555
B3 O9 1.400303 1_555
