# generated using pymatgen
data_Na3CoO3
_symmetry_space_group_name_H-M   'P 1'
_cell_length_a   5.88266200
_cell_length_b   6.03028300
_cell_length_c   12.60106421
_cell_angle_alpha   61.33220749
_cell_angle_beta   90.00000000
_cell_angle_gamma   90.00000000
_symmetry_Int_Tables_number   1
_chemical_formula_structural   Na3CoO3
_chemical_formula_sum   'Na12 Co4 O12'
_cell_volume   392.21513651
_cell_formula_units_Z   4
loop_
 _symmetry_equiv_pos_site_id
 _symmetry_equiv_pos_as_xyz
  1  'x, y, z'
loop_
 _atom_site_type_symbol
 _atom_site_label
 _atom_site_symmetry_multiplicity
 _atom_site_fract_x
 _atom_site_fract_y
 _atom_site_fract_z
 _atom_site_occupancy
  Na  Na0  1  0.98182600  0.01645700  0.12048800  1
  Na  Na1  1  0.48155600  0.10668300  0.09803500  1
  Na  Na2  1  0.93598000  0.54440100  0.68740500  1
  Na  Na3  1  0.43598000  0.45559900  0.81259500  1
  Na  Na4  1  0.98155600  0.89331700  0.40196500  1
  Na  Na5  1  0.48182600  0.98354300  0.37951200  1
  Na  Na6  1  0.51817400  0.01645700  0.62048800  1
  Na  Na7  1  0.01844400  0.10668300  0.59803500  1
  Na  Na8  1  0.56402000  0.54440100  0.18740500  1
  Na  Na9  1  0.06402000  0.45559900  0.31259500  1
  Na  Na10  1  0.51844400  0.89331700  0.90196500  1
  Na  Na11  1  0.01817400  0.98354300  0.87951200  1
  Co  Co0  1  0.35203200  0.50758400  0.58591800  1
  Co  Co1  1  0.85203200  0.49241600  0.91408200  1
  Co  Co2  1  0.14796800  0.50758400  0.08591800  1
  Co  Co3  1  0.64796800  0.49241600  0.41408200  1
  O  O0  1  0.73815100  0.77946300  0.28056600  1
  O  O1  1  0.68226600  0.51016900  0.56340600  1
  O  O2  1  0.74130300  0.19447600  0.93308700  1
  O  O3  1  0.24130300  0.80552400  0.56691300  1
  O  O4  1  0.18226600  0.48983100  0.93659400  1
  O  O5  1  0.23815100  0.22053700  0.21943400  1
  O  O6  1  0.76184900  0.77946300  0.78056600  1
  O  O7  1  0.81773400  0.51016900  0.06340600  1
  O  O8  1  0.75869700  0.19447600  0.43308700  1
  O  O9  1  0.25869700  0.80552400  0.06691300  1
  O  O10  1  0.31773400  0.48983100  0.43659400  1
  O  O11  1  0.26184900  0.22053700  0.71943400  1
loop_
_geom_bond_atom_site_label_1
_geom_bond_atom_site_label_2
_geom_bond_distance
_geom_bond_site_symmetry_2
Na0 O0 2.323838 1_545
Na0 O9 2.355930 1_645
Na0 O2 2.509700 1_554
Na0 O5 2.610554 1_655
Na1 O9 2.419502 1_545
Na1 O5 2.422704 1_555
Na1 O2 2.424774 1_554
Na1 O0 2.666064 1_545
Na1 O4 2.840229 1_554
Na1 O7 3.000476 1_555
Na2 O1 2.240792 1_555
Na2 O3 2.391012 1_655
Na2 O6 2.456269 1_555
Na2 O11 2.625947 1_655
Na3 O4 2.240792 1_555
Na3 O2 2.391012 1_555
Na3 O11 2.456269 1_555
Na3 O6 2.625947 1_555
Na4 O8 2.419502 1_565
Na4 O0 2.422704 1_555
Na4 O3 2.424774 1_655
Na4 O5 2.666064 1_665
Na4 O1 2.840229 1_555
Na4 O10 3.000476 1_655
Na5 O5 2.323838 1_565
Na5 O8 2.355930 1_565
Na5 O3 2.509700 1_555
Na5 O0 2.610554 1_555
Na6 O6 2.323838 1_545
Na6 O3 2.355930 1_545
Na6 O8 2.509700 1_555
Na6 O11 2.610554 1_555
Na7 O3 2.419502 1_545
Na7 O11 2.422704 1_555
Na7 O8 2.424774 1_455
Na7 O6 2.666064 1_445
Na7 O10 2.840229 1_555
Na7 O1 3.000476 1_455
Na8 O7 2.240792 1_555
Na8 O9 2.391012 1_555
Na8 O0 2.456269 1_555
Na8 O5 2.625947 1_555
Na9 O10 2.240792 1_555
Na9 O8 2.391012 1_455
Na9 O5 2.456269 1_555
Na9 O0 2.625947 1_455
Na10 O2 2.419502 1_565
Na10 O6 2.422704 1_555
Na10 O9 2.424774 1_556
Na10 O11 2.666064 1_565
Na10 O7 2.840229 1_556
Na10 O4 3.000476 1_555
Na11 O11 2.323838 1_565
Na11 O2 2.355930 1_465
Na11 O9 2.509700 1_556
Na11 O6 2.610554 1_455
Co0 O3 1.815714 1_555
Co0 O11 1.820476 1_555
Co0 O10 1.945769 1_555
Co0 O1 1.962239 1_555
Co1 O2 1.815714 1_555
Co1 O6 1.820476 1_555
Co1 O7 1.945769 1_556
Co1 O4 1.962239 1_655
Co2 O9 1.815714 1_555
Co2 O5 1.820476 1_555
Co2 O4 1.945769 1_554
Co2 O7 1.962239 1_455
Co3 O8 1.815714 1_555
Co3 O0 1.820476 1_555
Co3 O1 1.945769 1_555
Co3 O10 1.962239 1_555
