# generated using pymatgen
data_Li4Ti3Mn3(SbO8)2
_symmetry_space_group_name_H-M   'P 1'
_cell_length_a   6.10977295
_cell_length_b   6.10977295
_cell_length_c   9.90833016
_cell_angle_alpha   88.45556897
_cell_angle_beta   88.45556897
_cell_angle_gamma   58.87741907
_symmetry_Int_Tables_number   1
_chemical_formula_structural   Li4Ti3Mn3(SbO8)2
_chemical_formula_sum   'Li4 Ti3 Mn3 Sb2 O16'
_cell_volume   316.48161436
_cell_formula_units_Z   1
loop_
 _symmetry_equiv_pos_site_id
 _symmetry_equiv_pos_as_xyz
  1  'x, y, z'
loop_
 _atom_site_type_symbol
 _atom_site_label
 _atom_site_symmetry_multiplicity
 _atom_site_fract_x
 _atom_site_fract_y
 _atom_site_fract_z
 _atom_site_occupancy
  Li  Li0  1  0.65592900  0.65592900  0.09604500  1
  Li  Li1  1  0.99528600  0.99528600  0.01186100  1
  Li  Li2  1  0.00896300  0.00896300  0.50943800  1
  Li  Li3  1  0.33438200  0.33438200  0.60220900  1
  Ti  Ti0  1  0.34700000  0.83418100  0.78396800  1
  Ti  Ti1  1  0.83418100  0.34700000  0.78396800  1
  Ti  Ti2  1  0.17076500  0.17076500  0.28352200  1
  Mn  Mn0  1  0.83205500  0.83205500  0.79349900  1
  Mn  Mn1  1  0.17220300  0.66244600  0.28423000  1
  Mn  Mn2  1  0.66244600  0.17220300  0.28423000  1
  Sb  Sb0  1  0.67738400  0.67738400  0.50393700  1
  Sb  Sb1  1  0.33217300  0.33217300  0.01256700  1
  O  O0  1  0.33564900  0.85404000  0.39461400  1
  O  O1  1  0.52002300  0.52002300  0.67053200  1
  O  O2  1  0.64958900  0.64958900  0.89440700  1
  O  O3  1  0.01154700  0.01154700  0.70020200  1
  O  O4  1  0.00290200  0.00290200  0.19661800  1
  O  O5  1  0.85404000  0.33564900  0.39461400  1
  O  O6  1  0.49287200  0.97017900  0.66510400  1
  O  O7  1  0.97017900  0.49287200  0.66510400  1
  O  O8  1  0.16584200  0.16584200  0.90307900  1
  O  O9  1  0.84894500  0.84894500  0.40567500  1
  O  O10  1  0.03145900  0.46274600  0.14770000  1
  O  O11  1  0.46274600  0.03145900  0.14770000  1
  O  O12  1  0.32527300  0.32527300  0.38825000  1
  O  O13  1  0.17401100  0.66508900  0.90986700  1
  O  O14  1  0.47360900  0.47360900  0.14981700  1
  O  O15  1  0.66508900  0.17401100  0.90986700  1
loop_
_geom_bond_atom_site_label_1
_geom_bond_atom_site_label_2
_geom_bond_distance
_geom_bond_site_symmetry_2
Li0 O14 1.996070 1_555
Li0 O2 2.001121 1_554
Li0 O11 2.037308 1_565
Li0 O10 2.037308 1_655
Li1 O4 1.834931 1_665
Li1 O15 2.014155 1_564
Li1 O13 2.014155 1_654
Li1 O8 2.082058 1_664
Li2 O3 1.891203 1_555
Li2 O9 2.016229 1_445
Li2 O5 2.038842 1_455
Li2 O0 2.038842 1_545
Li3 O7 2.001967 1_455
Li3 O6 2.001967 1_545
Li3 O1 2.108048 1_555
Li3 O12 2.125186 1_555
Mn0 O3 2.096138 1_665
Mn0 O13 2.144382 1_655
Mn0 O15 2.144382 1_565
Mn0 O2 2.156371 1_555
Mn0 O6 2.213945 1_555
Mn0 O7 2.213945 1_555
Mn1 O4 1.969065 1_565
Mn1 O12 2.031407 1_555
Mn1 O14 2.061634 1_555
Mn1 O9 2.065549 1_455
Mn1 O0 2.213610 1_555
Mn1 O10 2.300968 1_555
Mn2 O4 1.969065 1_655
Mn2 O12 2.031407 1_555
Mn2 O14 2.061634 1_555
Mn2 O9 2.065549 1_545
Mn2 O5 2.213610 1_555
Mn2 O11 2.300968 1_555
O0 Ti2 1.975069 1_565
O0 Sb0 2.104047 1_555
O1 Ti0 2.004926 1_555
O1 Ti1 2.004926 1_555
O1 Sb0 2.314721 1_555
O2 Ti1 1.942778 1_555
O2 Ti0 1.942778 1_555
O3 Ti1 1.952198 1_455
O3 Ti0 1.952198 1_545
O4 Ti2 2.006924 1_555
O5 Ti2 1.975069 1_655
O5 Sb0 2.104047 1_555
O6 Ti0 1.878304 1_555
O6 Sb0 2.234583 1_555
O7 Ti1 1.878304 1_555
O7 Sb0 2.234583 1_555
O8 Sb1 2.104482 1_556
O8 Ti1 2.112838 1_455
O8 Ti0 2.112838 1_545
O9 Sb0 2.042335 1_555
O10 Ti2 2.020071 1_555
O10 Sb1 2.052957 1_555
O11 Ti2 2.020071 1_555
O11 Sb1 2.052957 1_555
O12 Ti2 1.971272 1_555
O13 Sb1 2.004035 1_556
O13 Ti0 2.174572 1_555
O14 Sb1 2.059488 1_555
O15 Sb1 2.004035 1_556
O15 Ti1 2.174572 1_555
