# generated using pymatgen
data_TiSn9O20
_symmetry_space_group_name_H-M   'P 1'
_cell_length_a   7.94524744
_cell_length_b   7.94524744
_cell_length_c   7.43360751
_cell_angle_alpha   87.78958658
_cell_angle_beta   87.78958658
_cell_angle_gamma   49.97336468
_symmetry_Int_Tables_number   1
_chemical_formula_structural   TiSn9O20
_chemical_formula_sum   'Ti1 Sn9 O20'
_cell_volume   359.00906967
_cell_formula_units_Z   1
loop_
 _symmetry_equiv_pos_site_id
 _symmetry_equiv_pos_as_xyz
  1  'x, y, z'
loop_
 _atom_site_type_symbol
 _atom_site_label
 _atom_site_symmetry_multiplicity
 _atom_site_fract_x
 _atom_site_fract_y
 _atom_site_fract_z
 _atom_site_occupancy
  Ti  Ti0  1  0.00000000  -0.00000000  -0.00000000  1
  Sn  Sn0  1  0.00000000  -0.00000000  0.50000000  1
  Sn  Sn1  1  0.19765042  0.19765042  0.80118627  1
  Sn  Sn2  1  0.39916249  0.39916249  0.59881623  1
  Sn  Sn3  1  0.59883804  0.59883804  0.90210023  1
  Sn  Sn4  1  0.19938456  0.19938456  0.29842245  1
  Sn  Sn5  1  0.80061544  0.80061544  0.70157755  1
  Sn  Sn6  1  0.40116196  0.40116196  0.09789977  1
  Sn  Sn7  1  0.60083751  0.60083751  0.40118377  1
  Sn  Sn8  1  0.80234958  0.80234958  0.19881373  1
  O  O0  1  0.29856553  0.70143447  -0.00000000  1
  O  O1  1  0.09388640  0.70450947  0.59548475  1
  O  O2  1  0.70143447  0.29856553  -0.00000000  1
  O  O3  1  0.33802454  0.33802454  0.85503610  1
  O  O4  1  0.05659422  0.05659422  0.75296623  1
  O  O5  1  0.86700628  0.86700628  0.94279674  1
  O  O6  1  0.25986613  0.25986613  0.54458054  1
  O  O7  1  0.46174577  0.46174577  0.34328627  1
  O  O8  1  0.70450947  0.09388640  0.59548475  1
  O  O9  1  0.50553579  0.89430878  0.80236906  1
  O  O10  1  0.10569122  0.49446421  0.19763094  1
  O  O11  1  0.29549053  0.90611360  0.40451525  1
  O  O12  1  0.89430878  0.50553579  0.80236906  1
  O  O13  1  0.49446421  0.10569122  0.19763094  1
  O  O14  1  0.53825423  0.53825423  0.65671373  1
  O  O15  1  0.13299372  0.13299372  0.05720326  1
  O  O16  1  0.74013387  0.74013387  0.45541946  1
  O  O17  1  0.94340578  0.94340578  0.24703377  1
  O  O18  1  0.66197546  0.66197546  0.14496390  1
  O  O19  1  0.90611360  0.29549053  0.40451525  1
loop_
_geom_bond_atom_site_label_1
_geom_bond_atom_site_label_2
_geom_bond_distance
_geom_bond_site_symmetry_2
O0 Ti0 2.004051 1_565
O0 Sn3 2.072722 1_554
O0 Sn6 2.072722 1_555
O1 Sn2 2.049482 1_555
O1 Sn0 2.057129 1_565
O1 Sn5 2.061683 1_455
O2 Ti0 2.004051 1_655
O2 Sn3 2.072722 1_554
O2 Sn6 2.072722 1_555
O3 Sn6 2.055723 1_556
O3 Sn2 2.064059 1_555
O3 Sn1 2.077730 1_555
O4 Ti0 1.977183 1_556
O4 Sn1 2.078011 1_555
O4 Sn0 2.081106 1_555
O5 Ti0 1.979756 1_666
O5 Sn5 2.067761 1_555
O5 Sn8 2.082865 1_556
O6 Sn4 2.059818 1_555
O6 Sn2 2.063177 1_555
O6 Sn1 2.072708 1_555
O7 Sn6 2.055302 1_555
O7 Sn7 2.066908 1_555
O7 Sn2 2.067594 1_555
O8 Sn2 2.049482 1_555
O8 Sn0 2.057129 1_655
O8 Sn5 2.061683 1_545
O9 Sn1 2.051645 1_565
O9 Sn5 2.067539 1_555
O9 Sn3 2.068806 1_555
O10 Sn8 2.051645 1_455
O10 Sn4 2.067539 1_555
O10 Sn6 2.068806 1_555
O11 Sn7 2.049482 1_555
O11 Sn0 2.057129 1_565
O11 Sn4 2.061683 1_565
O12 Sn1 2.051645 1_655
O12 Sn5 2.067539 1_555
O12 Sn3 2.068806 1_555
O13 Sn8 2.051645 1_545
O13 Sn4 2.067539 1_555
O13 Sn6 2.068806 1_555
O14 Sn3 2.055302 1_555
O14 Sn2 2.066908 1_555
O14 Sn7 2.067594 1_555
O15 Ti0 1.979756 1_555
O15 Sn4 2.067761 1_555
O15 Sn1 2.082865 1_554
O16 Sn5 2.059818 1_555
O16 Sn7 2.063177 1_555
O16 Sn8 2.072708 1_555
O17 Ti0 1.977183 1_665
O17 Sn8 2.078011 1_555
O17 Sn0 2.081106 1_665
O18 Sn3 2.055723 1_554
O18 Sn7 2.064059 1_555
O18 Sn8 2.077730 1_555
O19 Sn7 2.049482 1_555
O19 Sn0 2.057129 1_655
O19 Sn4 2.061683 1_655
