# generated using pymatgen
data_LiSb(PO3)4
_symmetry_space_group_name_H-M   'P 1'
_cell_length_a   9.02324575
_cell_length_b   9.02324575
_cell_length_c   9.75771955
_cell_angle_alpha   59.33167560
_cell_angle_beta   59.33167560
_cell_angle_gamma   49.00940607
_symmetry_Int_Tables_number   1
_chemical_formula_structural   LiSb(PO3)4
_chemical_formula_sum   'Li2 Sb2 P8 O24'
_cell_volume   496.59950379
_cell_formula_units_Z   2
loop_
 _symmetry_equiv_pos_site_id
 _symmetry_equiv_pos_as_xyz
  1  'x, y, z'
loop_
 _atom_site_type_symbol
 _atom_site_label
 _atom_site_symmetry_multiplicity
 _atom_site_fract_x
 _atom_site_fract_y
 _atom_site_fract_z
 _atom_site_occupancy
  Li  Li0  1  0.00000000  0.00000000  0.50000000  1
  Li  Li1  1  0.00000000  0.00000000  0.00000000  1
  Sb  Sb0  1  0.27584100  0.72415900  0.75000000  1
  Sb  Sb1  1  0.72415900  0.27584100  0.25000000  1
  P  P0  1  0.31524300  0.40817200  0.16084900  1
  P  P1  1  0.68168500  0.01320300  0.09761000  1
  P  P2  1  0.98679700  0.31831500  0.40239000  1
  P  P3  1  0.59182800  0.68475700  0.33915100  1
  P  P4  1  0.40817200  0.31524300  0.66084900  1
  P  P5  1  0.01320300  0.68168500  0.59761000  1
  P  P6  1  0.31831500  0.98679700  0.90239000  1
  P  P7  1  0.68475700  0.59182800  0.83915100  1
  O  O0  1  0.74968500  0.00434300  0.21668500  1
  O  O1  1  0.19723700  0.59181900  0.03771500  1
  O  O2  1  0.16648400  0.35796500  0.33225600  1
  O  O3  1  0.45296300  0.21410400  0.09167800  1
  O  O4  1  0.56331400  0.57196500  0.79142200  1
  O  O5  1  0.78589600  0.54703700  0.40832200  1
  O  O6  1  0.64203500  0.83351600  0.16774400  1
  O  O7  1  0.99152000  0.17698300  0.57212500  1
  O  O8  1  0.40818100  0.80276300  0.46228500  1
  O  O9  1  0.82301700  0.00848000  0.92787500  1
  O  O10  1  0.99565700  0.25031500  0.28331500  1
  O  O11  1  0.42803500  0.43668600  0.70857800  1
  O  O12  1  0.57196500  0.56331400  0.29142200  1
  O  O13  1  0.00434300  0.74968500  0.71668500  1
  O  O14  1  0.17698300  0.99152000  0.07212500  1
  O  O15  1  0.59181900  0.19723700  0.53771500  1
  O  O16  1  0.00848000  0.82301700  0.42787500  1
  O  O17  1  0.35796500  0.16648400  0.83225600  1
  O  O18  1  0.21410400  0.45296300  0.59167800  1
  O  O19  1  0.43668600  0.42803500  0.20857800  1
  O  O20  1  0.54703700  0.78589600  0.90832200  1
  O  O21  1  0.83351600  0.64203500  0.66774400  1
  O  O22  1  0.80276300  0.40818100  0.96228500  1
  O  O23  1  0.25031500  0.99565700  0.78331500  1
loop_
_geom_bond_atom_site_label_1
_geom_bond_atom_site_label_2
_geom_bond_distance
_geom_bond_site_symmetry_2
Li0 O7 1.995678 1_455
Li0 O16 1.995678 1_545
Li0 O10 2.161064 1_455
Li0 O13 2.161064 1_545
Li1 O14 1.995678 1_545
Li1 O9 1.995678 1_454
Li1 O0 2.161064 1_455
Li1 O23 2.161064 1_544
O0 P1 1.516921 1_555
O0 Sb1 2.481131 1_555
O1 P0 1.510841 1_555
O1 Sb0 2.338924 1_554
O2 P0 1.593396 1_555
O2 P2 1.613828 1_455
O3 P0 1.600496 1_555
O3 P1 1.629617 1_555
O4 P7 1.520938 1_555
O4 Sb0 2.146610 1_555
O5 P3 1.600496 1_555
O5 P2 1.629617 1_555
O6 P3 1.593396 1_555
O6 P1 1.613828 1_565
O7 P2 1.489047 1_555
O8 P3 1.510841 1_555
O8 Sb0 2.338924 1_555
O9 P1 1.489047 1_556
O10 P2 1.516921 1_555
O10 Sb1 2.481131 1_555
O11 P4 1.520938 1_555
O11 Sb0 2.146610 1_555
O12 P3 1.520938 1_555
O12 Sb1 2.146610 1_555
O13 P5 1.516921 1_555
O13 Sb0 2.481131 1_555
O14 P6 1.489047 1_554
O15 P4 1.510841 1_555
O15 Sb1 2.338924 1_555
O16 P5 1.489047 1_555
O17 P4 1.593396 1_555
O17 P6 1.613828 1_545
O18 P4 1.600496 1_555
O18 P5 1.629617 1_555
O19 P0 1.520938 1_555
O19 Sb1 2.146610 1_555
O20 P7 1.600496 1_555
O20 P6 1.629617 1_555
O21 P7 1.593396 1_555
O21 P5 1.613828 1_655
O22 P7 1.510841 1_555
O22 Sb1 2.338924 1_556
O23 P6 1.516921 1_555
O23 Sb0 2.481131 1_555
