# generated using pymatgen
data_FeOF
_symmetry_space_group_name_H-M   'P 1'
_cell_length_a   3.96468500
_cell_length_b   6.29873718
_cell_length_c   6.29876461
_cell_angle_alpha   89.87942373
_cell_angle_beta   90.00024072
_cell_angle_gamma   89.99971152
_symmetry_Int_Tables_number   1
_chemical_formula_structural   FeOF
_chemical_formula_sum   'Fe4 O4 F4'
_cell_volume   157.29560636
_cell_formula_units_Z   4
loop_
 _symmetry_equiv_pos_site_id
 _symmetry_equiv_pos_as_xyz
  1  'x, y, z'
loop_
 _atom_site_type_symbol
 _atom_site_label
 _atom_site_symmetry_multiplicity
 _atom_site_fract_x
 _atom_site_fract_y
 _atom_site_fract_z
 _atom_site_occupancy
  Fe  Fe0  1  0.99999500  0.74947700  0.49297500  1
  Fe  Fe1  1  0.49999800  0.49297900  0.74971900  1
  Fe  Fe2  1  0.99999700  0.75053000  0.00700700  1
  Fe  Fe3  1  0.49999700  0.00701100  0.75029000  1
  O  O0  1  0.50000000  0.75049300  0.53859400  1
  O  O1  1  0.99999700  0.53859100  0.75064200  1
  O  O2  1  0.99999800  0.96141400  0.74936200  1
  O  O3  1  0.49999800  0.74950800  0.96141000  1
  F  F0  1  0.50000300  0.25020600  0.94999700  1
  F  F1  1  0.00000900  0.94999400  0.25035200  1
  F  F2  1  0.00000600  0.55000800  0.24964500  1
  F  F3  1  0.50000200  0.24979000  0.55000800  1
loop_
_geom_bond_atom_site_label_1
_geom_bond_atom_site_label_2
_geom_bond_distance
_geom_bond_site_symmetry_2
Fe0 O0 2.003053 1_555
Fe0 O0 2.003090 1_655
Fe0 O1 2.095095 1_555
Fe0 O2 2.097403 1_555
Fe1 O1 2.003061 1_555
Fe1 O1 2.003066 1_455
Fe1 O0 2.095301 1_555
Fe1 O3 2.097103 1_555
Fe2 O3 2.003047 1_554
Fe2 O3 2.003057 1_654
Fe2 O2 2.094980 1_554
Fe2 O1 2.097304 1_554
Fe3 O2 2.003047 1_445
Fe3 O2 2.003052 1_545
Fe3 O3 2.095228 1_545
Fe3 O0 2.097069 1_545
F0 Fe1 1.980306 1_555
F0 Fe3 1.984167 1_555
F1 Fe0 1.980537 1_455
F1 Fe2 1.983927 1_455
F2 Fe2 1.980630 1_455
F2 Fe0 1.983874 1_455
F3 Fe3 1.980352 1_555
F3 Fe1 1.984154 1_555
