# generated using pymatgen
data_BaRuO5
_symmetry_space_group_name_H-M   'P 1'
_cell_length_a   10.36302507
_cell_length_b   10.36302507
_cell_length_c   10.36302429
_cell_angle_alpha   55.31865430
_cell_angle_beta   55.31865430
_cell_angle_gamma   55.31865163
_symmetry_Int_Tables_number   1
_chemical_formula_structural   BaRuO5
_chemical_formula_sum   'Ba6 Ru6 O30'
_cell_volume   701.34420719
_cell_formula_units_Z   6
loop_
 _symmetry_equiv_pos_site_id
 _symmetry_equiv_pos_as_xyz
  1  'x, y, z'
loop_
 _atom_site_type_symbol
 _atom_site_label
 _atom_site_symmetry_multiplicity
 _atom_site_fract_x
 _atom_site_fract_y
 _atom_site_fract_z
 _atom_site_occupancy
  Ba  Ba0  1  -0.00000000  0.00000000  -0.00000000  1
  Ba  Ba1  1  0.50000000  0.50000000  0.50000000  1
  Ba  Ba2  1  0.83629937  0.83629937  0.83629937  1
  Ba  Ba3  1  0.33629937  0.33629937  0.33629937  1
  Ba  Ba4  1  0.16370063  0.16370063  0.16370063  1
  Ba  Ba5  1  0.66370063  0.66370063  0.66370063  1
  Ru  Ru0  1  0.39606825  0.10393175  0.75000000  1
  Ru  Ru1  1  0.75000000  0.39606825  0.10393175  1
  Ru  Ru2  1  0.10393175  0.75000000  0.39606825  1
  Ru  Ru3  1  0.25000000  0.60393175  0.89606825  1
  Ru  Ru4  1  0.89606825  0.25000000  0.60393175  1
  Ru  Ru5  1  0.60393175  0.89606825  0.25000000  1
  O  O0  1  0.57913865  0.92086135  0.75000000  1
  O  O1  1  0.75000000  0.57913865  0.92086135  1
  O  O2  1  0.92086135  0.75000000  0.57913865  1
  O  O3  1  0.25000000  0.42086135  0.07913865  1
  O  O4  1  0.07913865  0.25000000  0.42086135  1
  O  O5  1  0.42086135  0.07913865  0.25000000  1
  O  O6  1  0.36624246  0.24840360  0.81268451  1
  O  O7  1  0.81268451  0.36624246  0.24840360  1
  O  O8  1  0.24840360  0.81268451  0.36624246  1
  O  O9  1  0.31268451  0.74840360  0.86624246  1
  O  O10  1  0.86624246  0.31268451  0.74840360  1
  O  O11  1  0.74840360  0.86624246  0.31268451  1
  O  O12  1  0.63375754  0.75159640  0.18731549  1
  O  O13  1  0.18731549  0.63375754  0.75159640  1
  O  O14  1  0.75159640  0.18731549  0.63375754  1
  O  O15  1  0.68731549  0.25159640  0.13375754  1
  O  O16  1  0.13375754  0.68731549  0.25159640  1
  O  O17  1  0.25159640  0.13375754  0.68731549  1
  O  O18  1  0.28503338  0.99766715  0.96545162  1
  O  O19  1  0.96545162  0.28503338  0.99766715  1
  O  O20  1  0.99766715  0.96545162  0.28503338  1
  O  O21  1  0.46545162  0.49766715  0.78503338  1
  O  O22  1  0.78503338  0.46545162  0.49766715  1
  O  O23  1  0.49766715  0.78503338  0.46545162  1
  O  O24  1  0.71496662  0.00233285  0.03454838  1
  O  O25  1  0.03454838  0.71496662  0.00233285  1
  O  O26  1  0.00233285  0.03454838  0.71496662  1
  O  O27  1  0.53454838  0.50233285  0.21496662  1
  O  O28  1  0.21496662  0.53454838  0.50233285  1
  O  O29  1  0.50233285  0.21496662  0.53454838  1
loop_
_geom_bond_atom_site_label_1
_geom_bond_atom_site_label_2
_geom_bond_distance
_geom_bond_site_symmetry_2
Ba0 O20 2.752967 1_445
Ba0 O26 2.752967 1_554
Ba0 O19 2.752967 1_454
Ba0 O25 2.752967 1_545
Ba0 O18 2.752967 1_544
Ba0 O24 2.752967 1_455
Ba0 O10 2.933596 1_454
Ba0 O16 2.933596 1_545
Ba0 O15 2.933596 1_455
Ba0 O9 2.933596 1_544
Ba0 O17 2.933596 1_554
Ba0 O11 2.933596 1_445
Ba1 O27 2.752967 1_555
Ba1 O21 2.752967 1_555
Ba1 O28 2.752967 1_555
Ba1 O22 2.752967 1_555
Ba1 O29 2.752967 1_555
Ba1 O23 2.752967 1_555
Ba1 O13 2.933596 1_555
Ba1 O7 2.933596 1_555
Ba1 O14 2.933596 1_555
Ba1 O8 2.933596 1_555
Ba1 O12 2.933596 1_555
Ba1 O6 2.933596 1_555
Ba2 O24 2.717220 1_566
Ba2 O25 2.717220 1_656
Ba2 O26 2.717220 1_665
Ba2 O2 2.798660 1_555
Ba2 O0 2.798660 1_555
Ba2 O1 2.798660 1_555
Ba2 O12 2.860453 1_556
Ba2 O13 2.860453 1_655
Ba2 O14 2.860453 1_565
Ba3 O29 2.717220 1_555
Ba3 O28 2.717220 1_555
Ba3 O27 2.717220 1_555
Ba3 O3 2.798660 1_555
Ba3 O5 2.798660 1_555
Ba3 O4 2.798660 1_555
Ba3 O17 2.860453 1_555
Ba3 O16 2.860453 1_555
Ba3 O15 2.860453 1_555
Ba4 O18 2.717220 1_544
Ba4 O19 2.717220 1_454
Ba4 O20 2.717220 1_445
Ba4 O4 2.798660 1_555
Ba4 O5 2.798660 1_555
Ba4 O3 2.798660 1_555
Ba4 O6 2.860453 1_554
Ba4 O7 2.860453 1_455
Ba4 O8 2.860453 1_545
Ba5 O23 2.717220 1_555
Ba5 O22 2.717220 1_555
Ba5 O21 2.717220 1_555
Ba5 O1 2.798660 1_555
Ba5 O0 2.798660 1_555
Ba5 O2 2.798660 1_555
Ba5 O11 2.860453 1_555
Ba5 O10 2.860453 1_555
Ba5 O9 2.860453 1_555
O0 Ru0 1.761377 1_565
O1 Ru1 1.761377 1_556
O2 Ru2 1.761377 1_655
O3 Ru3 1.761377 1_554
O4 Ru4 1.761377 1_455
O5 Ru5 1.761377 1_545
O6 Ru0 1.763717 1_555
O7 Ru1 1.763717 1_555
O8 Ru2 1.763717 1_555
O9 Ru3 1.763717 1_555
O10 Ru4 1.763717 1_555
O11 Ru5 1.763717 1_555
O12 Ru5 1.763717 1_555
O13 Ru3 1.763717 1_555
O14 Ru4 1.763717 1_555
O15 Ru1 1.763717 1_555
O16 Ru2 1.763717 1_555
O17 Ru0 1.763717 1_555
O18 Ru0 1.800558 1_565
O19 Ru1 1.800558 1_556
O20 Ru2 1.800558 1_655
O21 Ru3 1.800558 1_555
O22 Ru4 1.800558 1_555
O23 Ru5 1.800558 1_555
O24 Ru5 1.800558 1_545
O25 Ru3 1.800558 1_554
O26 Ru4 1.800558 1_455
O27 Ru1 1.800558 1_555
O28 Ru2 1.800558 1_555
O29 Ru0 1.800558 1_555
