# generated using pymatgen
data_Li3TiCr2O6
_symmetry_space_group_name_H-M   'P 1'
_cell_length_a   15.56598587
_cell_length_b   9.95755001
_cell_length_c   9.95754677
_cell_angle_alpha   17.05877140
_cell_angle_beta   16.56636547
_cell_angle_gamma   16.56634165
_symmetry_Int_Tables_number   1
_chemical_formula_structural   Li3TiCr2O6
_chemical_formula_sum   'Li3 Ti1 Cr2 O6'
_cell_volume   111.48697568
_cell_formula_units_Z   1
loop_
 _symmetry_equiv_pos_site_id
 _symmetry_equiv_pos_as_xyz
  1  'x, y, z'
loop_
 _atom_site_type_symbol
 _atom_site_label
 _atom_site_symmetry_multiplicity
 _atom_site_fract_x
 _atom_site_fract_y
 _atom_site_fract_z
 _atom_site_occupancy
  Li  Li0  1  0.16666800  0.49999900  0.50000100  1
  Li  Li1  1  0.50010800  0.49816200  0.49816500  1
  Li  Li2  1  0.83322700  0.50183400  0.50183700  1
  Ti  Ti0  1  0.66666900  0.99999800  0.00000000  1
  Cr  Cr0  1  0.00288200  0.99823200  0.99820500  1
  Cr  Cr1  1  0.33044200  0.00178500  0.00178600  1
  O  O0  1  0.24619800  0.25802800  0.25803600  1
  O  O1  1  0.58069300  0.25916600  0.25917800  1
  O  O2  1  0.08713800  0.74196700  0.74196700  1
  O  O3  1  0.91941200  0.25093300  0.25094300  1
  O  O4  1  0.41392300  0.74906300  0.74905900  1
  O  O5  1  0.75264100  0.74083300  0.74082400  1
loop_
_geom_bond_atom_site_label_1
_geom_bond_atom_site_label_2
_geom_bond_distance
_geom_bond_site_symmetry_2
Li0 O3 2.132599 1_465
Li0 O3 2.132616 1_456
Li0 O4 2.132619 1_545
Li0 O4 2.132632 1_554
Li0 O1 2.185853 1_555
Li0 O5 2.185873 1_455
Li1 O2 2.132289 1_555
Li1 O5 2.168240 1_545
Li1 O5 2.168264 1_554
Li1 O3 2.169186 1_555
Li1 O0 2.187619 1_565
Li1 O0 2.187629 1_556
Li2 O0 2.132302 1_655
Li2 O1 2.168253 1_565
Li2 O1 2.168271 1_556
Li2 O4 2.169186 1_555
Li2 O2 2.187614 1_645
Li2 O2 2.187620 1_654
Cr0 O5 2.026512 1_465
Cr0 O5 2.026552 1_456
Cr0 O1 2.032618 1_466
Cr0 O4 2.038860 1_555
Cr0 O0 2.042915 1_565
Cr0 O0 2.042989 1_556
Cr1 O1 2.026498 1_554
Cr1 O1 2.026521 1_545
Cr1 O5 2.032698 1_544
Cr1 O3 2.038785 1_455
Cr1 O2 2.042973 1_545
Cr1 O2 2.042975 1_554
O0 Ti0 2.046705 1_545
O2 Ti0 2.046692 1_456
O3 Ti0 2.076627 1_546
O3 Ti0 2.076643 1_555
O4 Ti0 2.076621 1_555
O4 Ti0 2.076633 1_546
