# generated using pymatgen
data_RbLi2Co2(BO3)3
_symmetry_space_group_name_H-M   'P 1'
_cell_length_a   5.04354000
_cell_length_b   6.39371700
_cell_length_c   12.93604912
_cell_angle_alpha   88.66827206
_cell_angle_beta   90.00000000
_cell_angle_gamma   90.00000000
_symmetry_Int_Tables_number   1
_chemical_formula_structural   RbLi2Co2(BO3)3
_chemical_formula_sum   'Rb2 Li4 Co4 B6 O18'
_cell_volume   417.03567998
_cell_formula_units_Z   2
loop_
 _symmetry_equiv_pos_site_id
 _symmetry_equiv_pos_as_xyz
  1  'x, y, z'
loop_
 _atom_site_type_symbol
 _atom_site_label
 _atom_site_symmetry_multiplicity
 _atom_site_fract_x
 _atom_site_fract_y
 _atom_site_fract_z
 _atom_site_occupancy
  Rb  Rb0  1  0.79079300  0.00000000  0.75000000  1
  Rb  Rb1  1  0.20920700  0.00000000  0.25000000  1
  Li  Li0  1  0.82608000  0.50316600  0.86655700  1
  Li  Li1  1  0.82608000  0.49683400  0.63344300  1
  Li  Li2  1  0.17392000  0.50316600  0.36655700  1
  Li  Li3  1  0.17392000  0.49683400  0.13344300  1
  Co  Co0  1  0.31594300  0.76486800  0.56550800  1
  Co  Co1  1  0.68405700  0.76486800  0.06550800  1
  Co  Co2  1  0.31594300  0.23513200  0.93449200  1
  Co  Co3  1  0.68405700  0.23513200  0.43449200  1
  B  B0  1  0.18256300  0.80655700  0.95836500  1
  B  B1  1  0.81743700  0.80655700  0.45836500  1
  B  B2  1  0.33299300  0.50000000  0.75000000  1
  B  B3  1  0.66700700  0.50000000  0.25000000  1
  B  B4  1  0.18256300  0.19344300  0.54163500  1
  B  B5  1  0.81743700  0.19344300  0.04163500  1
  O  O0  1  0.29720700  0.95655900  0.89391200  1
  O  O1  1  0.70279300  0.95655900  0.39391200  1
  O  O2  1  0.91567900  0.75577400  0.94903700  1
  O  O3  1  0.08432100  0.75577400  0.44903700  1
  O  O4  1  0.66953400  0.70439500  0.53407400  1
  O  O5  1  0.33046600  0.70439500  0.03407400  1
  O  O6  1  0.17888300  0.59787100  0.67160700  1
  O  O7  1  0.82111700  0.59787100  0.17160700  1
  O  O8  1  0.59886000  0.50000000  0.75000000  1
  O  O9  1  0.40114000  0.50000000  0.25000000  1
  O  O10  1  0.17888300  0.40212900  0.82839300  1
  O  O11  1  0.82111700  0.40212900  0.32839300  1
  O  O12  1  0.66953400  0.29560500  0.96592600  1
  O  O13  1  0.33046600  0.29560500  0.46592600  1
  O  O14  1  0.91567900  0.24422600  0.55096300  1
  O  O15  1  0.08432100  0.24422600  0.05096300  1
  O  O16  1  0.29720700  0.04344100  0.60608800  1
  O  O17  1  0.70279300  0.04344100  0.10608800  1
loop_
_geom_bond_atom_site_label_1
_geom_bond_atom_site_label_2
_geom_bond_distance
_geom_bond_site_symmetry_2
Li0 O8 1.894347 1_555
Li0 O10 1.960116 1_655
Li0 O12 1.989374 1_555
Li0 O2 2.007806 1_555
Li1 O8 1.894347 1_555
Li1 O6 1.960116 1_655
Li1 O4 1.989374 1_555
Li1 O14 2.007806 1_555
Li2 O9 1.894347 1_555
Li2 O11 1.960116 1_455
Li2 O13 1.989374 1_555
Li2 O3 2.007806 1_555
Li3 O9 1.894347 1_555
Li3 O7 1.960116 1_455
Li3 O5 1.989374 1_555
Li3 O15 2.007806 1_555
Co0 O6 1.852983 1_555
Co0 O16 1.870918 1_565
Co0 O4 1.871495 1_555
Co0 O3 1.908455 1_555
Co1 O7 1.852983 1_555
Co1 O17 1.870918 1_565
Co1 O5 1.871495 1_555
Co1 O2 1.908455 1_554
Co2 O10 1.852983 1_555
Co2 O0 1.870918 1_545
Co2 O12 1.871495 1_555
Co2 O15 1.908455 1_556
Co3 O11 1.852983 1_555
Co3 O1 1.870918 1_545
Co3 O13 1.871495 1_555
Co3 O14 1.908455 1_555
B0 O0 1.382803 1_555
B0 O5 1.382951 1_556
B0 O2 1.390551 1_455
B1 O1 1.382803 1_555
B1 O4 1.382951 1_555
B1 O3 1.390551 1_655
B2 O8 1.340911 1_555
B2 O10 1.412304 1_555
B2 O6 1.412304 1_555
B3 O9 1.340911 1_555
B3 O11 1.412304 1_555
B3 O7 1.412304 1_555
B4 O16 1.382803 1_555
B4 O13 1.382951 1_555
B4 O14 1.390551 1_455
B5 O17 1.382803 1_555
B5 O12 1.382951 1_554
B5 O15 1.390551 1_655
O0 Rb0 3.117062 1_565
O0 Rb0 3.168972 1_465
O1 Rb1 3.117062 1_565
O1 Rb1 3.168972 1_665
O2 Rb0 3.045902 1_565
O3 Rb1 3.045902 1_565
O4 Rb0 3.463192 1_565
O5 Rb1 3.463192 1_565
O6 Rb0 3.404606 1_465
O7 Rb1 3.404606 1_665
O8 Rb0 3.340205 1_565
O8 Rb0 3.340205 1_555
O9 Rb1 3.340205 1_565
O9 Rb1 3.340205 1_555
O10 Rb0 3.404606 1_455
O11 Rb1 3.404606 1_655
O12 Rb0 3.463192 1_555
O13 Rb1 3.463192 1_555
O14 Rb0 3.045902 1_555
O15 Rb1 3.045902 1_555
O16 Rb0 3.117062 1_555
O16 Rb0 3.168972 1_455
O17 Rb1 3.117062 1_555
O17 Rb1 3.168972 1_655
