# generated using pymatgen
data_Cd3(Pt3O4)10
_symmetry_space_group_name_H-M   'P 1'
_cell_length_a   5.71540200
_cell_length_b   8.11311800
_cell_length_c   20.69356867
_cell_angle_alpha   78.76990715
_cell_angle_beta   90.00000000
_cell_angle_gamma   90.00000000
_symmetry_Int_Tables_number   1
_chemical_formula_structural   Cd3(Pt3O4)10
_chemical_formula_sum   'Cd3 Pt30 O40'
_cell_volume   941.18260997
_cell_formula_units_Z   1
loop_
 _symmetry_equiv_pos_site_id
 _symmetry_equiv_pos_as_xyz
  1  'x, y, z'
loop_
 _atom_site_type_symbol
 _atom_site_label
 _atom_site_symmetry_multiplicity
 _atom_site_fract_x
 _atom_site_fract_y
 _atom_site_fract_z
 _atom_site_occupancy
  Cd  Cd0  1  0.50000000  0.50000000  0.50000000  1
  Cd  Cd1  1  0.50000000  0.69893900  0.10123600  1
  Cd  Cd2  1  0.50000000  0.30106100  0.89876400  1
  Pt  Pt0  1  0.24642200  0.09781200  0.79754800  1
  Pt  Pt1  1  0.24652200  0.29717600  0.39875500  1
  Pt  Pt2  1  0.24652200  0.70282400  0.60124500  1
  Pt  Pt3  1  0.24257200  0.50000000  0.00000000  1
  Pt  Pt4  1  0.24642200  0.90218800  0.20245200  1
  Pt  Pt5  1  0.50000000  0.70618000  0.84855900  1
  Pt  Pt6  1  0.50000000  0.70183000  0.34792600  1
  Pt  Pt7  1  0.50000000  0.29382000  0.15144100  1
  Pt  Pt8  1  0.50000000  0.29817000  0.65207400  1
  Pt  Pt9  1  0.50000000  0.09402100  0.55050000  1
  Pt  Pt10  1  0.50000000  0.89672300  0.94784400  1
  Pt  Pt11  1  0.50000000  0.90597900  0.44950000  1
  Pt  Pt12  1  0.50000000  0.10327700  0.05215600  1
  Pt  Pt13  1  0.50000000  0.50289100  0.74712700  1
  Pt  Pt14  1  0.50000000  0.49710900  0.25287300  1
  Pt  Pt15  1  0.75347800  0.70282400  0.60124500  1
  Pt  Pt16  1  0.75357800  0.90218800  0.20245200  1
  Pt  Pt17  1  0.75357800  0.09781200  0.79754800  1
  Pt  Pt18  1  0.75347800  0.29717600  0.39875500  1
  Pt  Pt19  1  0.75742800  0.50000000  0.00000000  1
  Pt  Pt20  1  0.00000000  0.85481300  0.04958500  1
  Pt  Pt21  1  0.00000000  0.54512300  0.15273400  1
  Pt  Pt22  1  0.00000000  0.34501600  0.55157500  1
  Pt  Pt23  1  0.00000000  0.75067400  0.74932800  1
  Pt  Pt24  1  0.00000000  0.24932600  0.25067200  1
  Pt  Pt25  1  0.00000000  0.45487700  0.84726600  1
  Pt  Pt26  1  0.00000000  0.04910800  0.64988600  1
  Pt  Pt27  1  0.00000000  0.14518700  0.95041500  1
  Pt  Pt28  1  0.00000000  0.95089200  0.35011400  1
  Pt  Pt29  1  0.00000000  0.65498400  0.44842500  1
  O  O0  1  0.25934100  0.45137300  0.59738500  1
  O  O1  1  0.24755600  0.14948000  0.69934000  1
  O  O2  1  0.25934100  0.54862700  0.40261500  1
  O  O3  1  0.25947600  0.25632300  0.50000500  1
  O  O4  1  0.25981000  0.65100900  0.19822700  1
  O  O5  1  0.25919000  0.94207100  0.10149600  1
  O  O6  1  0.25919000  0.05792900  0.89850400  1
  O  O7  1  0.25840800  0.74849200  0.00364300  1
  O  O8  1  0.24598400  0.84999100  0.79971300  1
  O  O9  1  0.24742600  0.65077800  0.69974800  1
  O  O10  1  0.24763000  0.94987900  0.60022200  1
  O  O11  1  0.24742600  0.34922200  0.30025200  1
  O  O12  1  0.24763000  0.05012100  0.39977800  1
  O  O13  1  0.25947600  0.74367700  0.49999500  1
  O  O14  1  0.25847200  0.45626000  0.10097800  1
  O  O15  1  0.24598400  0.15000900  0.20028700  1
  O  O16  1  0.24755600  0.85052000  0.30066000  1
  O  O17  1  0.25840800  0.25150800  0.99635700  1
  O  O18  1  0.25847200  0.54374000  0.89902200  1
  O  O19  1  0.25981000  0.34899100  0.80177300  1
  O  O20  1  0.74081000  0.94207100  0.10149600  1
  O  O21  1  0.74159200  0.74849200  0.00364300  1
  O  O22  1  0.75401600  0.15000900  0.20028700  1
  O  O23  1  0.74065900  0.45137300  0.59738500  1
  O  O24  1  0.74065900  0.54862700  0.40261500  1
  O  O25  1  0.75257400  0.34922200  0.30025200  1
  O  O26  1  0.74052400  0.74367700  0.49999500  1
  O  O27  1  0.75244400  0.14948000  0.69934000  1
  O  O28  1  0.74052400  0.25632300  0.50000500  1
  O  O29  1  0.75237000  0.94987900  0.60022200  1
  O  O30  1  0.74019000  0.34899100  0.80177300  1
  O  O31  1  0.74081000  0.05792900  0.89850400  1
  O  O32  1  0.74019000  0.65100900  0.19822700  1
  O  O33  1  0.75401600  0.84999100  0.79971300  1
  O  O34  1  0.74152800  0.45626000  0.10097800  1
  O  O35  1  0.75244400  0.85052000  0.30066000  1
  O  O36  1  0.74152800  0.54374000  0.89902200  1
  O  O37  1  0.74159200  0.25150800  0.99635700  1
  O  O38  1  0.75257400  0.65077800  0.69974800  1
  O  O39  1  0.75237000  0.05012100  0.39977800  1
loop_
_geom_bond_atom_site_label_1
_geom_bond_atom_site_label_2
_geom_bond_distance
_geom_bond_site_symmetry_2
Cd0 O13 2.407934 1_555
Cd0 O26 2.407934 1_555
Cd0 O3 2.407934 1_555
Cd0 O28 2.407934 1_555
Cd0 O23 2.408127 1_555
Cd0 O0 2.408127 1_555
Cd0 O2 2.408127 1_555
Cd0 O24 2.408127 1_555
Cd1 O4 2.400033 1_555
Cd1 O32 2.400033 1_555
Cd1 O34 2.405454 1_555
Cd1 O14 2.405454 1_555
Cd1 O5 2.406122 1_555
Cd1 O20 2.406122 1_555
Cd1 O21 2.414654 1_555
Cd1 O7 2.414654 1_555
Cd2 O19 2.400033 1_555
Cd2 O30 2.400033 1_555
Cd2 O36 2.405454 1_555
Cd2 O18 2.405454 1_555
Cd2 O6 2.406122 1_555
Cd2 O31 2.406122 1_555
Cd2 O37 2.414654 1_555
Cd2 O17 2.414654 1_555
O0 Pt22 2.039329 1_555
O0 Pt8 2.041986 1_555
O0 Pt2 2.058405 1_555
O1 Pt0 1.993510 1_555
O1 Pt8 2.008504 1_555
O1 Pt26 2.009211 1_555
O2 Pt29 2.039329 1_555
O2 Pt6 2.041986 1_555
O2 Pt1 2.058405 1_555
O3 Pt22 2.038395 1_555
O3 Pt9 2.044410 1_555
O3 Pt1 2.057866 1_555
O4 Pt21 2.035740 1_555
O4 Pt14 2.042635 1_555
O4 Pt4 2.058083 1_555
O5 Pt12 2.031548 1_565
O5 Pt20 2.036125 1_555
O5 Pt4 2.052129 1_555
O6 Pt10 2.031548 1_545
O6 Pt27 2.036125 1_555
O6 Pt0 2.052129 1_555
O7 Pt3 2.034087 1_555
O7 Pt10 2.036000 1_554
O7 Pt20 2.036805 1_555
O8 Pt0 2.002360 1_565
O8 Pt5 2.007837 1_555
O8 Pt23 2.010014 1_555
O9 Pt2 1.999516 1_555
O9 Pt13 2.006620 1_555
O9 Pt23 2.008277 1_555
O10 Pt2 2.000381 1_555
O10 Pt26 2.007408 1_565
O10 Pt9 2.009506 1_565
O11 Pt1 1.999516 1_555
O11 Pt14 2.006620 1_555
O11 Pt24 2.008277 1_555
O12 Pt1 2.000381 1_555
O12 Pt28 2.007408 1_545
O12 Pt11 2.009506 1_545
O13 Pt29 2.038395 1_555
O13 Pt11 2.044410 1_555
O13 Pt2 2.057866 1_555
O14 Pt21 2.037140 1_555
O14 Pt7 2.048627 1_555
O14 Pt3 2.052260 1_555
O15 Pt4 2.002360 1_545
O15 Pt7 2.007837 1_555
O15 Pt24 2.010014 1_555
O16 Pt4 1.993510 1_555
O16 Pt6 2.008504 1_555
O16 Pt28 2.009211 1_555
O17 Pt3 2.034087 1_556
O17 Pt12 2.036000 1_556
O17 Pt27 2.036805 1_555
O18 Pt25 2.037140 1_555
O18 Pt5 2.048627 1_555
O18 Pt3 2.052260 1_556
O19 Pt25 2.035740 1_555
O19 Pt13 2.042635 1_555
O19 Pt0 2.058083 1_555
O20 Pt12 2.031548 1_565
O20 Pt20 2.036125 1_655
O20 Pt16 2.052129 1_555
O21 Pt19 2.034087 1_555
O21 Pt10 2.036000 1_554
O21 Pt20 2.036805 1_655
O22 Pt16 2.002360 1_545
O22 Pt7 2.007837 1_555
O22 Pt24 2.010014 1_655
O23 Pt22 2.039329 1_655
O23 Pt8 2.041986 1_555
O23 Pt15 2.058405 1_555
O24 Pt29 2.039329 1_655
O24 Pt6 2.041986 1_555
O24 Pt18 2.058405 1_555
O25 Pt18 1.999516 1_555
O25 Pt14 2.006620 1_555
O25 Pt24 2.008277 1_655
O26 Pt29 2.038395 1_655
O26 Pt11 2.044410 1_555
O26 Pt15 2.057866 1_555
O27 Pt17 1.993510 1_555
O27 Pt8 2.008504 1_555
O27 Pt26 2.009211 1_655
O28 Pt22 2.038395 1_655
O28 Pt9 2.044410 1_555
O28 Pt18 2.057866 1_555
O29 Pt15 2.000381 1_555
O29 Pt26 2.007408 1_665
O29 Pt9 2.009506 1_565
O30 Pt25 2.035740 1_655
O30 Pt13 2.042635 1_555
O30 Pt17 2.058083 1_555
O31 Pt10 2.031548 1_545
O31 Pt27 2.036125 1_655
O31 Pt17 2.052129 1_555
O32 Pt21 2.035740 1_655
O32 Pt14 2.042635 1_555
O32 Pt16 2.058083 1_555
O33 Pt17 2.002360 1_565
O33 Pt5 2.007837 1_555
O33 Pt23 2.010014 1_655
O34 Pt21 2.037140 1_655
O34 Pt7 2.048627 1_555
O34 Pt19 2.052260 1_555
O35 Pt16 1.993510 1_555
O35 Pt6 2.008504 1_555
O35 Pt28 2.009211 1_655
O36 Pt25 2.037140 1_655
O36 Pt5 2.048627 1_555
O36 Pt19 2.052260 1_556
O37 Pt19 2.034087 1_556
O37 Pt12 2.036000 1_556
O37 Pt27 2.036805 1_655
O38 Pt15 1.999516 1_555
O38 Pt13 2.006620 1_555
O38 Pt23 2.008277 1_655
O39 Pt18 2.000381 1_555
O39 Pt28 2.007408 1_645
O39 Pt11 2.009506 1_545
