# generated using pymatgen
data_Fe2O3F
_symmetry_space_group_name_H-M   'P 1'
_cell_length_a   7.06117720
_cell_length_b   7.06117720
_cell_length_c   6.89943100
_cell_angle_alpha   90.00000000
_cell_angle_beta   90.00000000
_cell_angle_gamma   129.70002334
_symmetry_Int_Tables_number   1
_chemical_formula_structural   Fe2O3F
_chemical_formula_sum   'Fe8 O12 F4'
_cell_volume   264.67887508
_cell_formula_units_Z   4
loop_
 _symmetry_equiv_pos_site_id
 _symmetry_equiv_pos_as_xyz
  1  'x, y, z'
loop_
 _atom_site_type_symbol
 _atom_site_label
 _atom_site_symmetry_multiplicity
 _atom_site_fract_x
 _atom_site_fract_y
 _atom_site_fract_z
 _atom_site_occupancy
  Fe  Fe0  1  0.12488700  0.87511300  0.78533000  1
  Fe  Fe1  1  0.62488700  0.37511300  0.71467000  1
  Fe  Fe2  1  0.37498800  0.12501200  0.25000000  1
  Fe  Fe3  1  0.87498800  0.62501200  0.25000000  1
  Fe  Fe4  1  0.12501200  0.37498800  0.75000000  1
  Fe  Fe5  1  0.62501200  0.87498800  0.75000000  1
  Fe  Fe6  1  0.37511300  0.62488700  0.28533000  1
  Fe  Fe7  1  0.87511300  0.12488700  0.21467000  1
  O  O0  1  0.97130600  0.52869400  0.75000000  1
  O  O1  1  0.47130600  0.02869400  0.75000000  1
  O  O2  1  0.12413500  0.87586500  0.07194700  1
  O  O3  1  0.87586500  0.12413500  0.92805300  1
  O  O4  1  0.62413500  0.37586500  0.42805300  1
  O  O5  1  0.27863200  0.22136800  0.75000000  1
  O  O6  1  0.77863200  0.72136800  0.75000000  1
  O  O7  1  0.02869400  0.47130600  0.25000000  1
  O  O8  1  0.52869400  0.97130600  0.25000000  1
  O  O9  1  0.72136800  0.77863200  0.25000000  1
  O  O10  1  0.22136800  0.27863200  0.25000000  1
  O  O11  1  0.37586500  0.62413500  0.57194700  1
  F  F0  1  0.62588200  0.37411800  0.04872600  1
  F  F1  1  0.12588200  0.87411800  0.45127400  1
  F  F2  1  0.37411800  0.62588200  0.95127400  1
  F  F3  1  0.87411800  0.12588200  0.54872600  1
loop_
_geom_bond_atom_site_label_1
_geom_bond_atom_site_label_2
_geom_bond_distance
_geom_bond_site_symmetry_2
Fe0 O5 1.955731 1_565
Fe0 O6 1.955731 1_455
Fe0 O0 1.957051 1_455
Fe0 O1 1.957051 1_565
Fe0 O2 1.977518 1_556
Fe1 O5 1.955731 1_555
Fe1 O6 1.955731 1_555
Fe1 O0 1.957051 1_555
Fe1 O1 1.957051 1_555
Fe1 O4 1.977518 1_555
Fe2 O2 1.939235 1_545
Fe2 O4 1.939235 1_555
Fe2 O10 1.963806 1_555
Fe2 O8 1.964906 1_545
Fe3 O4 1.939235 1_555
Fe3 O2 1.939235 1_655
Fe3 O9 1.963806 1_555
Fe3 O7 1.964906 1_655
Fe4 O3 1.939235 1_455
Fe4 O11 1.939235 1_555
Fe4 O5 1.963806 1_555
Fe4 O0 1.964906 1_455
Fe5 O3 1.939235 1_565
Fe5 O11 1.939235 1_555
Fe5 O6 1.963806 1_555
Fe5 O1 1.964906 1_565
Fe6 O10 1.955731 1_555
Fe6 O9 1.955731 1_555
Fe6 O8 1.957051 1_555
Fe6 O7 1.957051 1_555
Fe6 O11 1.977518 1_555
Fe7 O10 1.955731 1_655
Fe7 O9 1.955731 1_545
Fe7 O8 1.957051 1_545
Fe7 O7 1.957051 1_655
Fe7 O3 1.977518 1_554
F0 Fe2 2.044490 1_555
F0 Fe3 2.044490 1_555
F0 Fe1 2.304831 1_554
F1 Fe2 2.044490 1_565
F1 Fe3 2.044490 1_455
F1 Fe0 2.304831 1_555
F2 Fe4 2.044490 1_555
F2 Fe5 2.044490 1_555
F2 Fe6 2.304831 1_556
F3 Fe4 2.044490 1_655
F3 Fe5 2.044490 1_545
F3 Fe7 2.304831 1_555
