# generated using pymatgen
data_Li4Ni2(PO4)3
_symmetry_space_group_name_H-M   'P 1'
_cell_length_a   8.31128300
_cell_length_b   8.40766890
_cell_length_c   9.13206790
_cell_angle_alpha   91.29856193
_cell_angle_beta   116.65277601
_cell_angle_gamma   119.11942291
_symmetry_Int_Tables_number   1
_chemical_formula_structural   Li4Ni2(PO4)3
_chemical_formula_sum   'Li8 Ni4 P6 O24'
_cell_volume   473.92271998
_cell_formula_units_Z   2
loop_
 _symmetry_equiv_pos_site_id
 _symmetry_equiv_pos_as_xyz
  1  'x, y, z'
loop_
 _atom_site_type_symbol
 _atom_site_label
 _atom_site_symmetry_multiplicity
 _atom_site_fract_x
 _atom_site_fract_y
 _atom_site_fract_z
 _atom_site_occupancy
  Li  Li0  1  0.93843300  0.66871300  0.85745500  1
  Li  Li1  1  0.19354900  0.27098800  0.86309600  1
  Li  Li2  1  0.63038500  0.94034500  0.90292100  1
  Li  Li3  1  0.67345000  0.20682800  0.41110900  1
  Li  Li4  1  0.32655000  0.79317200  0.58889100  1
  Li  Li5  1  0.36961500  0.05965500  0.09707900  1
  Li  Li6  1  0.80645100  0.72901200  0.13690400  1
  Li  Li7  1  0.06156700  0.33128700  0.14254500  1
  Ni  Ni0  1  0.30853900  0.64942200  0.96157500  1
  Ni  Ni1  1  0.28594200  0.14444700  0.43341200  1
  Ni  Ni2  1  0.71405800  0.85555300  0.56658800  1
  Ni  Ni3  1  0.69146100  0.35057800  0.03842500  1
  P  P0  1  0.79995900  0.25324600  0.76005700  1
  P  P1  1  0.21311800  0.95633300  0.74722700  1
  P  P2  1  0.49826600  0.54739600  0.75188500  1
  P  P3  1  0.50173400  0.45260400  0.24811500  1
  P  P4  1  0.78688200  0.04366700  0.25277300  1
  P  P5  1  0.20004100  0.74675400  0.23994300  1
  O  O0  1  0.35767200  0.15299100  0.89546000  1
  O  O1  1  0.69757100  0.55718400  0.90178800  1
  O  O2  1  0.75124600  0.21187600  0.90814900  1
  O  O3  1  0.97570500  0.46728800  0.80831000  1
  O  O4  1  0.88105900  0.12507500  0.74645700  1
  O  O5  1  0.59904400  0.19763600  0.58696000  1
  O  O6  1  0.99202000  0.85729000  0.73515600  1
  O  O7  1  0.31400500  0.83596500  0.80346700  1
  O  O8  1  0.32641300  0.49857100  0.80131100  1
  O  O9  1  0.61397100  0.60501100  0.41625900  1
  O  O10  1  0.41835300  0.24993200  0.27252600  1
  O  O11  1  0.80065300  0.02193400  0.42235600  1
  O  O12  1  0.19934700  0.97806600  0.57764400  1
  O  O13  1  0.58164700  0.75006800  0.72747400  1
  O  O14  1  0.38602900  0.39498900  0.58374100  1
  O  O15  1  0.67358700  0.50142900  0.19868900  1
  O  O16  1  0.68599500  0.16403500  0.19653300  1
  O  O17  1  0.00798000  0.14271000  0.26484400  1
  O  O18  1  0.40095600  0.80236400  0.41304000  1
  O  O19  1  0.11894100  0.87492500  0.25354300  1
  O  O20  1  0.02429500  0.53271200  0.19169000  1
  O  O21  1  0.24875400  0.78812400  0.09185100  1
  O  O22  1  0.30242900  0.44281600  0.09821200  1
  O  O23  1  0.64232800  0.84700900  0.10454000  1
loop_
_geom_bond_atom_site_label_1
_geom_bond_atom_site_label_2
_geom_bond_distance
_geom_bond_site_symmetry_2
Li0 O3 1.940681 1_555
Li0 O6 1.949037 1_555
Li0 O1 1.991993 1_555
Li0 O21 2.161313 1_656
Li1 O4 1.934633 1_455
Li1 O8 1.936615 1_555
Li1 O0 1.975082 1_555
Li1 O22 2.088029 1_556
Li2 O2 1.985763 1_565
Li2 O13 1.990296 1_555
Li2 O23 1.998252 1_556
Li2 O7 2.021077 1_555
Li3 O5 1.953802 1_555
Li3 O16 2.041545 1_555
Li3 O10 2.142304 1_555
Li3 O11 2.248149 1_555
Li4 O18 1.953802 1_555
Li4 O7 2.041545 1_555
Li4 O13 2.142304 1_555
Li4 O12 2.248149 1_555
Li5 O21 1.985763 1_545
Li5 O10 1.990296 1_555
Li5 O0 1.998252 1_554
Li5 O16 2.021077 1_555
Li6 O19 1.934633 1_655
Li6 O15 1.936615 1_555
Li6 O23 1.975082 1_555
Li6 O1 2.088029 1_554
Li7 O20 1.940681 1_555
Li7 O17 1.949037 1_555
Li7 O22 1.991993 1_555
Li7 O2 2.161313 1_454
Ni0 O21 2.013361 1_556
Ni0 O8 2.016662 1_555
Ni0 O3 2.064617 1_455
Ni0 O23 2.080220 1_556
Ni0 O7 2.153780 1_555
Ni0 O22 2.155503 1_556
Ni1 O14 2.037841 1_555
Ni1 O12 2.040542 1_545
Ni1 O17 2.117208 1_555
Ni1 O19 2.117608 1_545
Ni1 O5 2.122097 1_555
Ni1 O10 2.171644 1_555
Ni2 O9 2.037841 1_555
Ni2 O11 2.040542 1_565
Ni2 O6 2.117208 1_555
Ni2 O4 2.117608 1_565
Ni2 O18 2.122097 1_555
Ni2 O13 2.171644 1_555
Ni3 O2 2.013361 1_554
Ni3 O15 2.016662 1_555
Ni3 O20 2.064617 1_655
Ni3 O0 2.080220 1_554
Ni3 O16 2.153780 1_555
Ni3 O1 2.155503 1_554
O0 P1 1.586126 1_545
O1 P2 1.566035 1_555
O2 P0 1.577765 1_555
O3 P0 1.547431 1_555
O4 P0 1.551453 1_555
O5 P0 1.531088 1_555
O6 P1 1.551510 1_655
O7 P1 1.566561 1_555
O8 P2 1.558355 1_555
O9 P3 1.527183 1_555
O10 P3 1.562074 1_555
O11 P4 1.522807 1_555
O12 P1 1.522807 1_555
O13 P2 1.562074 1_555
O14 P2 1.527183 1_555
O15 P3 1.558355 1_555
O16 P4 1.566561 1_555
O17 P4 1.551510 1_455
O18 P5 1.531088 1_555
O19 P5 1.551453 1_555
O20 P5 1.547431 1_555
O21 P5 1.577765 1_555
O22 P3 1.566035 1_555
O23 P4 1.586126 1_565
