# generated using pymatgen
data_Mn3CuO8
_symmetry_space_group_name_H-M   'P 1'
_cell_length_a   5.83855115
_cell_length_b   5.83855115
_cell_length_c   5.83855069
_cell_angle_alpha   60.25413060
_cell_angle_beta   60.25413060
_cell_angle_gamma   60.25413388
_symmetry_Int_Tables_number   1
_chemical_formula_structural   Mn3CuO8
_chemical_formula_sum   'Mn3 Cu1 O8'
_cell_volume   141.54396443
_cell_formula_units_Z   1
loop_
 _symmetry_equiv_pos_site_id
 _symmetry_equiv_pos_as_xyz
  1  'x, y, z'
loop_
 _atom_site_type_symbol
 _atom_site_label
 _atom_site_symmetry_multiplicity
 _atom_site_fract_x
 _atom_site_fract_y
 _atom_site_fract_z
 _atom_site_occupancy
  Mn  Mn0  1  0.50000000  0.50000000  0.00000000  1
  Mn  Mn1  1  0.00000000  0.50000000  0.50000000  1
  Mn  Mn2  1  0.50000000  0.00000000  0.50000000  1
  Cu  Cu0  1  0.00000000  0.00000000  0.00000000  1
  O  O0  1  0.26560500  0.26560500  0.26560500  1
  O  O1  1  0.76351400  0.76351400  0.27029000  1
  O  O2  1  0.27029000  0.76351400  0.76351400  1
  O  O3  1  0.73439500  0.73439500  0.73439500  1
  O  O4  1  0.76351400  0.27029000  0.76351400  1
  O  O5  1  0.23648600  0.23648600  0.72971000  1
  O  O6  1  0.72971000  0.23648600  0.23648600  1
  O  O7  1  0.23648600  0.72971000  0.23648600  1
loop_
_geom_bond_atom_site_label_1
_geom_bond_atom_site_label_2
_geom_bond_distance
_geom_bond_site_symmetry_2
Mn0 O6 1.937599 1_555
Mn0 O7 1.937599 1_555
Mn0 O2 1.937599 1_554
Mn0 O4 1.937599 1_554
Mn0 O0 1.948636 1_555
Mn0 O3 1.948636 1_554
Mn1 O7 1.937599 1_555
Mn1 O4 1.937599 1_455
Mn1 O5 1.937599 1_555
Mn1 O1 1.937599 1_455
Mn1 O3 1.948636 1_455
Mn1 O0 1.948636 1_555
Mn2 O6 1.937599 1_555
Mn2 O2 1.937599 1_545
Mn2 O5 1.937599 1_555
Mn2 O1 1.937599 1_545
Mn2 O0 1.948636 1_555
Mn2 O3 1.948636 1_545
Cu0 O5 1.967402 1_554
Cu0 O1 1.967402 1_445
Cu0 O7 1.967402 1_545
Cu0 O6 1.967402 1_455
Cu0 O2 1.967402 1_544
Cu0 O4 1.967402 1_454
