# generated using pymatgen
data_AlVP2CNO9
_symmetry_space_group_name_H-M   'P 1'
_cell_length_a   7.92188200
_cell_length_b   8.28346643
_cell_length_c   8.84477153
_cell_angle_alpha   111.82435200
_cell_angle_beta   116.50373715
_cell_angle_gamma   83.50586180
_symmetry_Int_Tables_number   1
_chemical_formula_structural   AlVP2CNO9
_chemical_formula_sum   'Al2 V2 P4 C2 N2 O18'
_cell_volume   481.20116321
_cell_formula_units_Z   2
loop_
 _symmetry_equiv_pos_site_id
 _symmetry_equiv_pos_as_xyz
  1  'x, y, z'
loop_
 _atom_site_type_symbol
 _atom_site_label
 _atom_site_symmetry_multiplicity
 _atom_site_fract_x
 _atom_site_fract_y
 _atom_site_fract_z
 _atom_site_occupancy
  Al  Al0  1  0.08212300  0.76106100  0.03330700  1
  Al  Al1  1  0.91787700  0.23893900  0.96669300  1
  V  V0  1  0.44733500  0.76907300  0.68929200  1
  V  V1  1  0.55266500  0.23092700  0.31070800  1
  P  P0  1  0.24410100  0.52476800  0.27797800  1
  P  P1  1  0.75589900  0.47523200  0.72202200  1
  P  P2  1  0.23159500  0.99722000  0.91422300  1
  P  P3  1  0.76840500  0.00278000  0.08577700  1
  C  C0  1  0.69082200  0.71164600  0.29845700  1
  C  C1  1  0.30917800  0.28835400  0.70154300  1
  N  N0  1  0.82807400  0.77919200  0.43071200  1
  N  N1  1  0.17192600  0.22080800  0.56928800  1
  O  O0  1  0.08293900  0.38225200  0.17650000  1
  O  O1  1  0.91706100  0.61774800  0.82350000  1
  O  O2  1  0.21634200  0.64484200  0.17258200  1
  O  O3  1  0.78365800  0.35515800  0.82741800  1
  O  O4  1  0.24926100  0.63210500  0.46535300  1
  O  O5  1  0.75073800  0.36789500  0.53464700  1
  O  O6  1  0.54798300  0.86610000  0.62268600  1
  O  O7  1  0.45201700  0.13390000  0.37731400  1
  O  O8  1  0.56279800  0.55642500  0.69460400  1
  O  O9  1  0.43720200  0.44357500  0.30539600  1
  O  O10  1  0.60972800  0.85862600  0.94647000  1
  O  O11  1  0.39027200  0.14137400  0.05353000  1
  O  O12  1  0.26334800  0.91366000  0.74124400  1
  O  O13  1  0.73665200  0.08634000  0.25875600  1
  O  O14  1  0.03801100  0.07780000  0.86267900  1
  O  O15  1  0.96198900  0.92220000  0.13732100  1
  O  O16  1  0.23545100  0.85568900  0.99032500  1
  O  O17  1  0.76454900  0.14431100  0.00967500  1
loop_
_geom_bond_atom_site_label_1
_geom_bond_atom_site_label_2
_geom_bond_distance
_geom_bond_site_symmetry_2
Al0 O2 1.748139 1_555
Al0 O16 1.755954 1_554
Al0 O1 1.763575 1_454
Al0 O15 1.764874 1_455
Al1 O3 1.748139 1_555
Al1 O17 1.755954 1_556
Al1 O0 1.763575 1_656
Al1 O14 1.764874 1_655
C0 N0 1.174488 1_555
C1 N1 1.174488 1_555
O0 P0 1.536094 1_555
O1 P1 1.536094 1_555
O2 P0 1.537402 1_555
O3 P1 1.537402 1_555
O4 P0 1.546275 1_555
O4 V0 1.905380 1_555
O5 P1 1.546272 1_555
O5 V1 1.905377 1_555
O6 V0 1.595297 1_555
O7 V1 1.595297 1_555
O8 P1 1.551983 1_555
O8 V0 1.897453 1_555
O9 P0 1.551983 1_555
O9 V1 1.897453 1_555
O10 P3 1.545113 1_566
O10 V0 1.931047 1_555
O11 P2 1.545113 1_544
O11 V1 1.931047 1_555
O12 P2 1.549149 1_555
O12 V0 1.887762 1_555
O13 P3 1.549149 1_555
O13 V1 1.887762 1_555
O14 P2 1.541385 1_545
O15 P3 1.541385 1_565
O16 P2 1.545552 1_555
O17 P3 1.545552 1_555
