# generated using pymatgen
data_Li6V3P8O29
_symmetry_space_group_name_H-M   'P 1'
_cell_length_a   9.82066220
_cell_length_b   9.82066220
_cell_length_c   13.88352900
_cell_angle_alpha   90.00000000
_cell_angle_beta   90.00000000
_cell_angle_gamma   120.00000132
_symmetry_Int_Tables_number   1
_chemical_formula_structural   Li6V3P8O29
_chemical_formula_sum   'Li12 V6 P16 O58'
_cell_volume   1159.61024379
_cell_formula_units_Z   2
loop_
 _symmetry_equiv_pos_site_id
 _symmetry_equiv_pos_as_xyz
  1  'x, y, z'
loop_
 _atom_site_type_symbol
 _atom_site_label
 _atom_site_symmetry_multiplicity
 _atom_site_fract_x
 _atom_site_fract_y
 _atom_site_fract_z
 _atom_site_occupancy
  Li  Li0  1  0.09606100  0.77144500  0.93908600  1
  Li  Li1  1  0.22855500  0.90393900  0.43908600  1
  Li  Li2  1  0.09606100  0.32461600  0.43908600  1
  Li  Li3  1  0.22855500  0.32461600  0.93908600  1
  Li  Li4  1  0.67538400  0.90393900  0.93908600  1
  Li  Li5  1  0.32461600  0.22855500  0.56091400  1
  Li  Li6  1  0.67538400  0.77144500  0.43908600  1
  Li  Li7  1  0.32461600  0.09606100  0.06091400  1
  Li  Li8  1  0.77144500  0.67538400  0.06091400  1
  Li  Li9  1  0.90393900  0.67538400  0.56091400  1
  Li  Li10  1  0.77144500  0.09606100  0.56091400  1
  Li  Li11  1  0.90393900  0.22855500  0.06091400  1
  V  V0  1  0.43243100  0.43243100  0.75000000  1
  V  V1  1  0.56756900  0.56756900  0.25000000  1
  V  V2  1  0.43243100  0.00000000  0.25000000  1
  V  V3  1  0.56756900  0.00000000  0.75000000  1
  V  V4  1  0.00000000  0.56756900  0.75000000  1
  V  V5  1  0.00000000  0.43243100  0.25000000  1
  P  P0  1  0.08800200  0.76797200  0.15797700  1
  P  P1  1  0.23202800  0.91199800  0.65797700  1
  P  P2  1  0.08800200  0.32003000  0.65797700  1
  P  P3  1  0.33333300  0.66666700  0.87389200  1
  P  P4  1  0.33333300  0.66666700  0.37389200  1
  P  P5  1  0.23202800  0.32003000  0.15797700  1
  P  P6  1  0.32003000  0.23202800  0.34202300  1
  P  P7  1  0.67997000  0.91199800  0.15797700  1
  P  P8  1  0.32003000  0.08800200  0.84202300  1
  P  P9  1  0.67997000  0.76797200  0.65797700  1
  P  P10  1  0.76797200  0.67997000  0.84202300  1
  P  P11  1  0.66666700  0.33333300  0.62610800  1
  P  P12  1  0.66666700  0.33333300  0.12610800  1
  P  P13  1  0.91199800  0.67997000  0.34202300  1
  P  P14  1  0.76797200  0.08800200  0.34202300  1
  P  P15  1  0.91199800  0.23202800  0.84202300  1
  O  O0  1  0.00241900  0.75975000  0.43311000  1
  O  O1  1  0.08269200  0.74729200  0.65833300  1
  O  O2  1  0.24025000  0.99758100  0.93311000  1
  O  O3  1  0.25270800  0.91730800  0.15833300  1
  O  O4  1  0.09882000  0.61908600  0.17477200  1
  O  O5  1  0.18623900  0.67407500  0.83275500  1
  O  O6  1  0.09882000  0.47973400  0.67477200  1
  O  O7  1  0.00241900  0.24266900  0.93311000  1
  O  O8  1  0.08269200  0.33540000  0.15833300  1
  O  O9  1  0.32592500  0.81376100  0.33275500  1
  O  O10  1  0.38091400  0.90118000  0.67477200  1
  O  O11  1  0.18623900  0.51216300  0.33275500  1
  O  O12  1  0.33333300  0.66666700  0.98150100  1
  O  O13  1  0.33333300  0.66666700  0.48150100  1
  O  O14  1  0.32592500  0.51216300  0.83275500  1
  O  O15  1  0.52026600  0.90118000  0.17477200  1
  O  O16  1  0.48783700  0.81376100  0.83275500  1
  O  O17  1  0.25270800  0.33540000  0.65833300  1
  O  O18  1  0.20803600  0.20803600  0.25000000  1
  O  O19  1  0.24025000  0.24266900  0.43311000  1
  O  O20  1  0.24266900  0.24025000  0.06689000  1
  O  O21  1  0.38091400  0.47973400  0.17477200  1
  O  O22  1  0.48783700  0.67407500  0.33275500  1
  O  O23  1  0.33540000  0.25270800  0.84166700  1
  O  O24  1  0.52026600  0.61908600  0.67477200  1
  O  O25  1  0.66460000  0.91730800  0.65833300  1
  O  O26  1  0.20803600  0.00000000  0.75000000  1
  O  O27  1  0.24266900  0.00241900  0.56689000  1
  O  O28  1  0.75733100  0.99758100  0.43311000  1
  O  O29  1  0.33540000  0.08269200  0.34166700  1
  O  O30  1  0.47973400  0.38091400  0.32522800  1
  O  O31  1  0.66460000  0.74729200  0.15833300  1
  O  O32  1  0.51216300  0.32592500  0.66724500  1
  O  O33  1  0.61908600  0.52026600  0.82522800  1
  O  O34  1  0.75733100  0.75975000  0.93311000  1
  O  O35  1  0.75975000  0.75733100  0.56689000  1
  O  O36  1  0.79196400  0.79196400  0.75000000  1
  O  O37  1  0.74729200  0.66460000  0.34166700  1
  O  O38  1  0.51216300  0.18623900  0.16724500  1
  O  O39  1  0.47973400  0.09882000  0.82522800  1
  O  O40  1  0.67407500  0.48783700  0.16724500  1
  O  O41  1  0.66666700  0.33333300  0.01849900  1
  O  O42  1  0.66666700  0.33333300  0.51849900  1
  O  O43  1  0.81376100  0.48783700  0.66724500  1
  O  O44  1  0.61908600  0.09882000  0.32522800  1
  O  O45  1  0.67407500  0.18623900  0.66724500  1
  O  O46  1  0.91730800  0.66460000  0.84166700  1
  O  O47  1  0.00000000  0.79196400  0.25000000  1
  O  O48  1  0.99758100  0.75733100  0.06689000  1
  O  O49  1  0.90118000  0.52026600  0.32522800  1
  O  O50  1  0.81376100  0.32592500  0.16724500  1
  O  O51  1  0.90118000  0.38091400  0.82522800  1
  O  O52  1  0.74729200  0.08269200  0.84166700  1
  O  O53  1  0.75975000  0.00241900  0.06689000  1
  O  O54  1  0.79196400  0.00000000  0.25000000  1
  O  O55  1  0.91730800  0.25270800  0.34166700  1
  O  O56  1  0.99758100  0.24025000  0.56689000  1
  O  O57  1  0.00000000  0.20803600  0.75000000  1
loop_
_geom_bond_atom_site_label_1
_geom_bond_atom_site_label_2
_geom_bond_distance
_geom_bond_site_symmetry_2
Li0 O2 1.949173 1_555
Li0 O48 1.992212 1_456
Li0 O46 2.042058 1_455
Li0 O5 2.173673 1_555
Li1 O0 1.949173 1_555
Li1 O27 1.992212 1_565
Li1 O29 2.042058 1_565
Li1 O9 2.173673 1_555
Li2 O19 1.949173 1_555
Li2 O56 1.992212 1_455
Li2 O55 2.042058 1_455
Li2 O11 2.173667 1_555
Li3 O7 1.949173 1_555
Li3 O20 1.992212 1_556
Li3 O23 2.042058 1_555
Li3 O14 2.173667 1_555
Li4 O34 1.949173 1_555
Li4 O53 1.992212 1_566
Li4 O52 2.042058 1_565
Li4 O16 2.173667 1_555
Li5 O27 1.949173 1_555
Li5 O19 1.992212 1_555
Li5 O17 2.042058 1_555
Li5 O32 2.173667 1_555
Li6 O28 1.949173 1_555
Li6 O35 1.992212 1_555
Li6 O37 2.042058 1_555
Li6 O22 2.173667 1_555
Li7 O20 1.949173 1_555
Li7 O2 1.992212 1_544
Li7 O3 2.042058 1_545
Li7 O38 2.173667 1_555
Li8 O48 1.949173 1_555
Li8 O34 1.992212 1_554
Li8 O31 2.042058 1_555
Li8 O40 2.173667 1_555
Li9 O35 1.949173 1_555
Li9 O0 1.992212 1_655
Li9 O1 2.042058 1_655
Li9 O43 2.173667 1_555
Li10 O56 1.949173 1_555
Li10 O28 1.992212 1_545
Li10 O25 2.042058 1_545
Li10 O45 2.173673 1_555
Li11 O53 1.949173 1_555
Li11 O7 1.992212 1_654
Li11 O8 2.042058 1_655
Li11 O50 2.173673 1_555
O0 P13 1.518517 1_455
O1 P1 1.547589 1_555
O1 V4 1.990236 1_555
O2 P8 1.518517 1_565
O3 P0 1.547589 1_555
O3 V2 1.990236 1_565
O4 P0 1.535873 1_555
O4 V5 1.901018 1_555
O5 P3 1.588498 1_555
O5 V4 1.961181 1_555
O6 P2 1.535873 1_555
O6 V4 1.901018 1_555
O7 P15 1.518517 1_455
O8 P5 1.547589 1_555
O8 V5 1.990236 1_555
O9 P4 1.588498 1_555
O9 V2 1.961181 1_565
O10 P1 1.535873 1_555
O10 V3 1.901018 1_565
O11 P4 1.588508 1_555
O11 V5 1.961182 1_555
O12 P3 1.493993 1_555
O13 P4 1.493993 1_555
O14 P3 1.588517 1_555
O14 V0 1.961174 1_555
O15 P7 1.535873 1_555
O15 V2 1.901018 1_565
O16 P3 1.588508 1_555
O16 V3 1.961182 1_565
O17 P2 1.547589 1_555
O17 V0 1.990236 1_555
O18 P6 1.624292 1_555
O18 P5 1.624292 1_555
O19 P6 1.518517 1_555
O20 P5 1.518517 1_555
O21 P5 1.535873 1_555
O21 V1 1.901018 1_555
O22 P4 1.588517 1_555
O22 V1 1.961174 1_555
O23 P8 1.547589 1_555
O23 V0 1.990236 1_555
O24 P9 1.535873 1_555
O24 V0 1.901018 1_555
O25 P9 1.547589 1_555
O25 V3 1.990236 1_565
O26 P8 1.624292 1_555
O26 P1 1.624292 1_545
O27 P1 1.518517 1_545
O28 P14 1.518517 1_565
O29 P6 1.547589 1_555
O29 V2 1.990236 1_555
O30 P6 1.535873 1_555
O30 V1 1.901018 1_555
O31 P7 1.547589 1_555
O31 V1 1.990236 1_555
O32 P11 1.588517 1_555
O32 V0 1.961174 1_555
O33 P10 1.535873 1_555
O33 V0 1.901018 1_555
O34 P10 1.518517 1_555
O35 P9 1.518517 1_555
O36 P10 1.624292 1_555
O36 P9 1.624292 1_555
O37 P13 1.547589 1_555
O37 V1 1.990236 1_555
O38 P12 1.588508 1_555
O38 V2 1.961182 1_555
O39 P8 1.535873 1_555
O39 V3 1.901018 1_555
O40 P12 1.588517 1_555
O40 V1 1.961174 1_555
O41 P12 1.493993 1_555
O42 P11 1.493993 1_555
O43 P11 1.588508 1_555
O43 V4 1.961182 1_655
O44 P14 1.535873 1_555
O44 V2 1.901018 1_555
O45 P11 1.588498 1_555
O45 V3 1.961181 1_555
O46 P10 1.547589 1_555
O46 V4 1.990236 1_655
O47 P13 1.624292 1_455
O47 P0 1.624292 1_555
O48 P0 1.518517 1_655
O49 P13 1.535873 1_555
O49 V5 1.901018 1_655
O50 P12 1.588498 1_555
O50 V5 1.961181 1_655
O51 P15 1.535873 1_555
O51 V4 1.901018 1_655
O52 P15 1.547589 1_555
O52 V3 1.990236 1_555
O53 P7 1.518517 1_545
O54 P7 1.624292 1_545
O54 P14 1.624292 1_555
O55 P14 1.547589 1_555
O55 V5 1.990236 1_655
O56 P2 1.518517 1_655
O57 P2 1.624292 1_555
O57 P15 1.624292 1_455
