# generated using pymatgen
data_Li4Ti3Mn3(TeO8)2
_symmetry_space_group_name_H-M   'P 1'
_cell_length_a   6.01818176
_cell_length_b   10.31577541
_cell_length_c   10.56219022
_cell_angle_alpha   89.90794911
_cell_angle_beta   90.00966787
_cell_angle_gamma   90.00083604
_symmetry_Int_Tables_number   1
_chemical_formula_structural   Li4Ti3Mn3(TeO8)2
_chemical_formula_sum   'Li8 Ti6 Mn6 Te4 O32'
_cell_volume   655.72327000
_cell_formula_units_Z   2
loop_
 _symmetry_equiv_pos_site_id
 _symmetry_equiv_pos_as_xyz
  1  'x, y, z'
loop_
 _atom_site_type_symbol
 _atom_site_label
 _atom_site_symmetry_multiplicity
 _atom_site_fract_x
 _atom_site_fract_y
 _atom_site_fract_z
 _atom_site_occupancy
  Li  Li0  1  0.49994900  0.90172000  0.17070700  1
  Li  Li1  1  0.99994900  0.90172000  0.67071400  1
  Li  Li2  1  0.00001000  0.99014800  0.00828500  1
  Li  Li3  1  0.50001200  0.99015400  0.50827500  1
  Li  Li4  1  0.99994900  0.49181000  0.00036500  1
  Li  Li5  1  0.49995200  0.49179700  0.50036100  1
  Li  Li6  1  0.00003200  0.40015200  0.33101300  1
  Li  Li7  1  0.50003200  0.40017800  0.83102300  1
  Ti  Ti0  1  0.99987000  0.72161500  0.17651700  1
  Ti  Ti1  1  0.49986700  0.72161000  0.67650500  1
  Ti  Ti2  1  0.74873600  0.22195100  0.08808600  1
  Ti  Ti3  1  0.24874400  0.22194600  0.58807800  1
  Ti  Ti4  1  0.25143500  0.22178800  0.08806900  1
  Ti  Ti5  1  0.75142900  0.22178000  0.58806000  1
  Mn  Mn0  1  0.00003100  0.21243900  0.83158000  1
  Mn  Mn1  1  0.25004100  0.71146200  0.41734800  1
  Mn  Mn2  1  0.75009200  0.71143900  0.41738800  1
  Mn  Mn3  1  0.50001300  0.21244400  0.33157400  1
  Mn  Mn4  1  0.74997200  0.71153700  0.91732400  1
  Mn  Mn5  1  0.25013800  0.71149300  0.91736600  1
  Te  Te0  1  0.49984900  0.49370600  0.16609800  1
  Te  Te1  1  0.99983900  0.49367300  0.66611400  1
  Te  Te2  1  0.00001500  0.99386800  0.35953400  1
  Te  Te3  1  0.50001700  0.99387800  0.85954300  1
  O  O0  1  0.50002300  0.31798200  0.00442300  1
  O  O1  1  0.00002200  0.31798500  0.50443100  1
  O  O2  1  0.49995300  0.11486000  0.15640900  1
  O  O3  1  0.99995300  0.11486800  0.65641000  1
  O  O4  1  0.99996200  0.31139100  0.00128100  1
  O  O5  1  0.49996100  0.31139000  0.50128100  1
  O  O6  1  0.50012200  0.80401400  0.49758100  1
  O  O7  1  0.00011900  0.80402200  0.99756200  1
  O  O8  1  0.00009600  0.11954200  0.14977700  1
  O  O9  1  0.50009500  0.11954800  0.64977400  1
  O  O10  1  0.49994600  0.57855600  0.33125300  1
  O  O11  1  0.99994500  0.57856500  0.83125700  1
  O  O12  1  0.99996500  0.61533500  0.33717400  1
  O  O13  1  0.49996500  0.61534300  0.83713400  1
  O  O14  1  0.00002600  0.85773300  0.48840100  1
  O  O15  1  0.50002400  0.85772500  0.98840000  1
  O  O16  1  0.76898300  0.60760900  0.07616200  1
  O  O17  1  0.26900300  0.60759600  0.57619700  1
  O  O18  1  0.23115700  0.60746600  0.07626500  1
  O  O19  1  0.73114500  0.60745600  0.57629500  1
  O  O20  1  0.73641700  0.34366100  0.22584500  1
  O  O21  1  0.23641900  0.34367400  0.72584500  1
  O  O22  1  0.26374200  0.34384100  0.22579200  1
  O  O23  1  0.76374300  0.34385600  0.72579200  1
  O  O24  1  0.23126200  0.81609000  0.25516900  1
  O  O25  1  0.73127800  0.81610600  0.75514300  1
  O  O26  1  0.76866000  0.81604900  0.25516500  1
  O  O27  1  0.26864500  0.81606000  0.75514400  1
  O  O28  1  0.25161000  0.09075000  0.43216600  1
  O  O29  1  0.75161600  0.09074300  0.93217300  1
  O  O30  1  0.74838700  0.09078200  0.43218400  1
  O  O31  1  0.24838400  0.09077500  0.93219300  1
loop_
_geom_bond_atom_site_label_1
_geom_bond_atom_site_label_2
_geom_bond_distance
_geom_bond_site_symmetry_2
Li0 O15 1.979032 1_554
Li0 O24 2.046647 1_555
Li0 O26 2.046707 1_555
Li0 O2 2.203643 1_565
Li1 O14 1.979075 1_655
Li1 O25 2.046348 1_555
Li1 O27 2.046459 1_655
Li1 O3 2.203729 1_565
Li2 O7 1.923553 1_554
Li2 O29 1.988655 1_464
Li2 O31 1.988833 1_564
Li2 O8 2.005374 1_565
Li3 O6 1.923679 1_555
Li3 O28 1.988684 1_565
Li3 O30 1.988838 1_565
Li3 O9 2.005429 1_565
Li4 O4 1.861171 1_555
Li4 O11 1.996528 1_554
Li4 O16 2.000870 1_555
Li4 O18 2.001226 1_655
Li5 O5 1.861048 1_555
Li5 O10 1.996547 1_555
Li5 O17 2.000964 1_555
Li5 O19 2.001326 1_555
Li6 O1 2.017051 1_555
Li6 O20 2.022837 1_455
Li6 O22 2.023365 1_555
Li6 O12 2.220838 1_455
Li7 O0 2.017004 1_556
Li7 O21 2.022924 1_555
Li7 O23 2.023460 1_555
Li7 O13 2.220636 1_555
Mn0 O4 2.064120 1_456
Mn0 O3 2.107660 1_455
Mn0 O31 2.221183 1_555
Mn0 O29 2.221736 1_455
Mn0 O21 2.258199 1_555
Mn0 O23 2.259009 1_455
Mn1 O6 1.974067 1_555
Mn1 O12 1.991901 1_455
Mn1 O17 1.992536 1_555
Mn1 O24 2.026314 1_555
Mn1 O10 2.230046 1_555
Mn1 O14 2.260089 1_555
Mn2 O6 1.973730 1_555
Mn2 O12 1.991278 1_555
Mn2 O19 1.993724 1_555
Mn2 O26 2.026568 1_555
Mn2 O10 2.230817 1_555
Mn2 O14 2.259585 1_655
Mn3 O5 2.064145 1_555
Mn3 O2 2.107677 1_555
Mn3 O30 2.221241 1_555
Mn3 O28 2.221670 1_555
Mn3 O20 2.258117 1_555
Mn3 O22 2.258789 1_555
Mn4 O7 1.974057 1_655
Mn4 O13 1.992004 1_555
Mn4 O16 1.992798 1_556
Mn4 O25 2.025981 1_555
Mn4 O11 2.230620 1_555
Mn4 O15 2.259330 1_555
Mn5 O7 1.973738 1_555
Mn5 O13 1.991386 1_555
Mn5 O18 1.993908 1_556
Mn5 O27 2.026303 1_555
Mn5 O11 2.231181 1_455
Mn5 O15 2.259039 1_555
O0 Ti2 1.999853 1_555
O0 Ti4 2.000245 1_555
O0 Te0 2.492384 1_555
O1 Ti3 1.999860 1_555
O1 Ti5 2.000245 1_455
O1 Te1 2.492171 1_455
O2 Ti4 1.992927 1_555
O2 Ti2 1.995147 1_555
O3 Ti5 1.992901 1_555
O3 Ti3 1.995144 1_655
O4 Ti2 1.993868 1_555
O4 Ti4 1.995476 1_655
O5 Ti3 1.993807 1_555
O5 Ti5 1.995443 1_555
O6 Ti1 2.070966 1_555
O7 Ti0 2.071277 1_456
O8 Ti4 1.955337 1_555
O8 Ti2 1.956136 1_455
O8 Te2 2.565131 1_545
O9 Ti5 1.955257 1_555
O9 Ti3 1.956050 1_555
O9 Te3 2.565220 1_545
O10 Te0 1.952939 1_555
O11 Te1 1.953021 1_555
O12 Ti0 2.018778 1_555
O13 Ti1 2.018457 1_555
O14 Te2 1.954141 1_555
O15 Te3 1.954200 1_555
O16 Ti0 2.107339 1_555
O16 Te0 2.214332 1_555
O17 Ti1 2.107044 1_555
O17 Te1 2.214488 1_455
O18 Ti0 2.109462 1_455
O18 Te0 2.210929 1_555
O19 Ti1 2.109232 1_555
O19 Te1 2.211001 1_555
O20 Ti2 1.924812 1_555
O20 Te0 2.194900 1_555
O21 Ti3 1.924999 1_555
O21 Te1 2.194564 1_455
O22 Ti4 1.926815 1_555
O22 Te0 2.191740 1_555
O23 Ti5 1.927044 1_555
O23 Te1 2.191300 1_555
O24 Ti0 1.892440 1_455
O24 Te2 2.553870 1_555
O25 Ti1 1.892571 1_555
O25 Te3 2.554031 1_555
O26 Ti0 1.891625 1_555
O26 Te2 2.554314 1_655
O27 Ti1 1.891721 1_555
O27 Te3 2.554500 1_555
O28 Te2 1.970282 1_545
O28 Ti3 2.133304 1_555
O29 Te3 1.970203 1_545
O29 Ti2 2.133392 1_556
O30 Te2 1.970898 1_645
O30 Ti5 2.131717 1_555
O31 Te3 1.970832 1_545
O31 Ti4 2.131815 1_556
