# generated using pymatgen
data_CdGe2O5
_symmetry_space_group_name_H-M   'P 1'
_cell_length_a   5.36507996
_cell_length_b   5.54514964
_cell_length_c   6.93597780
_cell_angle_alpha   105.27257354
_cell_angle_beta   102.13810854
_cell_angle_gamma   106.92724965
_symmetry_Int_Tables_number   1
_chemical_formula_structural   CdGe2O5
_chemical_formula_sum   'Cd2 Ge4 O10'
_cell_volume   180.99498387
_cell_formula_units_Z   2
loop_
 _symmetry_equiv_pos_site_id
 _symmetry_equiv_pos_as_xyz
  1  'x, y, z'
loop_
 _atom_site_type_symbol
 _atom_site_label
 _atom_site_symmetry_multiplicity
 _atom_site_fract_x
 _atom_site_fract_y
 _atom_site_fract_z
 _atom_site_occupancy
  Cd  Cd0  1  0.66206221  0.31172645  0.76584313  1
  Cd  Cd1  1  0.33793779  0.68827355  0.23415687  1
  Ge  Ge0  1  0.68586055  0.31897858  0.25005067  1
  Ge  Ge1  1  0.31413945  0.68102142  0.74994933  1
  Ge  Ge2  1  -0.00000000  0.00000000  0.50000000  1
  Ge  Ge3  1  -0.00000000  0.00000000  0.00000000  1
  O  O0  1  0.29127421  0.87490202  0.58870614  1
  O  O1  1  0.70872579  0.12509798  0.41129386  1
  O  O2  1  0.62421142  0.77927505  0.94982607  1
  O  O3  1  0.37578858  0.22072495  0.05017393  1
  O  O4  1  0.06596038  0.67739551  0.88128022  1
  O  O5  1  0.93403962  0.32260449  0.11871978  1
  O  O6  1  0.08541293  0.94563615  0.25196816  1
  O  O7  1  0.91458707  0.05436385  0.74803184  1
  O  O8  1  0.72483836  0.64449654  0.39973702  1
  O  O9  1  0.27516164  0.35550346  0.60026298  1
loop_
_geom_bond_atom_site_label_1
_geom_bond_atom_site_label_2
_geom_bond_distance
_geom_bond_site_symmetry_2
Cd0 O7 2.234019 1_555
Cd0 O9 2.263714 1_555
Cd0 O4 2.303191 1_655
Cd0 O0 2.435683 1_545
Cd0 O1 2.500022 1_555
Cd0 O5 2.548014 1_556
Cd0 O2 2.657815 1_555
Cd0 O3 2.801702 1_556
Cd1 O6 2.234019 1_555
Cd1 O8 2.263714 1_555
Cd1 O5 2.303191 1_455
Cd1 O1 2.435683 1_565
Cd1 O0 2.500022 1_555
Cd1 O4 2.548014 1_554
Cd1 O3 2.657815 1_555
Cd1 O2 2.801702 1_554
Ge0 O1 1.753337 1_555
Ge0 O8 1.755400 1_555
Ge0 O3 1.758021 1_555
Ge0 O5 1.762717 1_555
Ge1 O0 1.753337 1_555
Ge1 O9 1.755400 1_555
Ge1 O2 1.758021 1_555
Ge1 O4 1.762717 1_555
Ge2 O7 1.843693 1_455
Ge2 O6 1.843693 1_545
Ge2 O8 1.923660 1_445
Ge2 O9 1.923660 1_555
Ge2 O1 1.937413 1_455
Ge2 O0 1.937413 1_545
Ge3 O6 1.837480 1_545
Ge3 O7 1.837480 1_454
Ge3 O4 1.928358 1_544
Ge3 O5 1.928358 1_455
Ge3 O3 1.930690 1_555
Ge3 O2 1.930690 1_444
