# generated using pymatgen
data_LiBiCSO7
_symmetry_space_group_name_H-M   'P 1'
_cell_length_a   6.97212400
_cell_length_b   5.44503200
_cell_length_c   9.20961868
_cell_angle_alpha   89.14822320
_cell_angle_beta   90.00000000
_cell_angle_gamma   90.00000000
_symmetry_Int_Tables_number   1
_chemical_formula_structural   LiBiCSO7
_chemical_formula_sum   'Li2 Bi2 C2 S2 O14'
_cell_volume   349.59015578
_cell_formula_units_Z   2
loop_
 _symmetry_equiv_pos_site_id
 _symmetry_equiv_pos_as_xyz
  1  'x, y, z'
loop_
 _atom_site_type_symbol
 _atom_site_label
 _atom_site_symmetry_multiplicity
 _atom_site_fract_x
 _atom_site_fract_y
 _atom_site_fract_z
 _atom_site_occupancy
  Li  Li0  1  0.50033000  0.26866400  0.82519800  1
  Li  Li1  1  0.00033000  0.73133600  0.17480200  1
  Bi  Bi0  1  0.75318900  0.77704800  0.64699500  1
  Bi  Bi1  1  0.25318900  0.22295200  0.35300500  1
  C  C0  1  0.73462000  0.72050000  0.93534400  1
  C  C1  1  0.23462000  0.27950000  0.06465600  1
  S  S0  1  0.25971600  0.72493800  0.59295800  1
  S  S1  1  0.75971600  0.27506200  0.40704200  1
  O  O0  1  0.27445500  0.30709500  0.93441300  1
  O  O1  1  0.73710600  0.93995000  0.86657800  1
  O  O2  1  0.69407500  0.53464400  0.84668400  1
  O  O3  1  0.08814800  0.79551600  0.67926600  1
  O  O4  1  0.42260400  0.87864600  0.64760400  1
  O  O5  1  0.72949200  0.21509800  0.56645000  1
  O  O6  1  0.30411500  0.46117100  0.60743700  1
  O  O7  1  0.80411500  0.53882900  0.39256300  1
  O  O8  1  0.22949200  0.78490200  0.43355000  1
  O  O9  1  0.92260400  0.12135400  0.35239600  1
  O  O10  1  0.58814800  0.20448400  0.32073400  1
  O  O11  1  0.19407500  0.46535600  0.15331600  1
  O  O12  1  0.23710600  0.06005000  0.13342200  1
  O  O13  1  0.77445500  0.69290500  0.06558700  1
loop_
_geom_bond_atom_site_label_1
_geom_bond_atom_site_label_2
_geom_bond_distance
_geom_bond_site_symmetry_2
Li0 O0 1.881973 1_555
Li0 O2 1.992451 1_555
Li0 O1 2.460445 1_545
Li1 O13 1.881973 1_455
Li1 O11 1.992451 1_555
Li1 O12 2.460445 1_565
Bi0 O1 2.223125 1_555
Bi0 O2 2.285163 1_555
Bi0 O3 2.356546 1_655
Bi0 O4 2.370365 1_555
Bi0 O5 2.492811 1_565
Bi0 O7 2.718385 1_555
Bi1 O12 2.223125 1_555
Bi1 O11 2.285163 1_555
Bi1 O10 2.356546 1_555
Bi1 O9 2.370365 1_455
Bi1 O8 2.492811 1_545
Bi1 O6 2.718385 1_555
C0 O13 1.238195 1_556
C0 O2 1.339895 1_555
C0 O1 1.344134 1_555
C1 O0 1.238195 1_554
C1 O11 1.339895 1_555
C1 O12 1.344134 1_555
O3 S0 1.489784 1_555
O4 S0 1.502011 1_555
O5 S1 1.513948 1_555
O6 S0 1.473309 1_555
O7 S1 1.473309 1_555
O8 S0 1.513948 1_555
O9 S1 1.502011 1_555
O10 S1 1.489784 1_555
