# generated using pymatgen
data_Li6MnFe5(BO3)6
_symmetry_space_group_name_H-M   'P 1'
_cell_length_a   3.13699300
_cell_length_b   8.24169300
_cell_length_c   14.29532045
_cell_angle_alpha   89.93771151
_cell_angle_beta   90.00000000
_cell_angle_gamma   90.00000000
_symmetry_Int_Tables_number   1
_chemical_formula_structural   Li6MnFe5(BO3)6
_chemical_formula_sum   'Li6 Mn1 Fe5 B6 O18'
_cell_volume   369.59290129
_cell_formula_units_Z   1
loop_
 _symmetry_equiv_pos_site_id
 _symmetry_equiv_pos_as_xyz
  1  'x, y, z'
loop_
 _atom_site_type_symbol
 _atom_site_label
 _atom_site_symmetry_multiplicity
 _atom_site_fract_x
 _atom_site_fract_y
 _atom_site_fract_z
 _atom_site_occupancy
  Li  Li0  1  0.50000000  0.70628900  0.99242100  1
  Li  Li1  1  0.50000000  0.66000800  0.35805500  1
  Li  Li2  1  0.50000000  0.63512800  0.64983600  1
  Li  Li3  1  0.50000000  0.20663500  0.49203300  1
  Li  Li4  1  0.50000000  0.15691700  0.85623600  1
  Li  Li5  1  0.50000000  0.13287900  0.15148300  1
  Mn  Mn0  1  0.00000000  0.36652900  0.00575800  1
  Fe  Fe0  1  0.00000000  0.86442200  0.50415800  1
  Fe  Fe1  1  0.00000000  0.82342600  0.81624200  1
  Fe  Fe2  1  0.00000000  0.81329800  0.17993700  1
  Fe  Fe3  1  0.00000000  0.32379400  0.31635700  1
  Fe  Fe4  1  0.00000000  0.31235500  0.67978400  1
  B  B0  1  0.50000000  0.99975600  0.66655500  1
  B  B1  1  0.00000000  0.99887000  0.99896700  1
  B  B2  1  0.50000000  0.00012200  0.33342100  1
  B  B3  1  0.50000000  0.50095100  0.16865000  1
  B  B4  1  0.00000000  0.50014700  0.49974400  1
  B  B5  1  0.50000000  0.50081000  0.83213000  1
  O  O0  1  0.50000000  0.98889900  0.43048800  1
  O  O1  1  0.50000000  0.98112300  0.76319300  1
  O  O2  1  0.50000000  0.86380100  0.60871500  1
  O  O3  1  0.50000000  0.86048000  0.27933700  1
  O  O4  1  0.00000000  0.84558300  0.95776200  1
  O  O5  1  0.50000000  0.65410500  0.12796900  1
  O  O6  1  0.50000000  0.65124600  0.78844100  1
  O  O7  1  0.00000000  0.64023800  0.44550500  1
  O  O8  1  0.00000000  0.51199200  0.59679900  1
  O  O9  1  0.50000000  0.49132400  0.92885100  1
  O  O10  1  0.50000000  0.48331600  0.26541300  1
  O  O11  1  0.50000000  0.36268600  0.11211300  1
  O  O12  1  0.50000000  0.35958900  0.77886800  1
  O  O13  1  0.00000000  0.34856600  0.45735200  1
  O  O14  1  0.50000000  0.15468500  0.62717800  1
  O  O15  1  0.50000000  0.15126100  0.29065000  1
  O  O16  1  0.00000000  0.13652800  0.94333700  1
  O  O17  1  0.00000000  0.01224300  0.09626100  1
loop_
_geom_bond_atom_site_label_1
_geom_bond_atom_site_label_2
_geom_bond_distance
_geom_bond_site_symmetry_2
Li0 O5 1.984402 1_556
Li0 O9 1.992026 1_555
Li0 O4 2.005585 1_655
Li0 O4 2.005585 1_555
Li1 O10 1.969448 1_555
Li1 O3 1.998028 1_555
Li1 O7 2.012238 1_555
Li1 O7 2.012238 1_655
Li2 O2 1.973591 1_555
Li2 O6 1.985995 1_555
Li2 O8 2.016584 1_655
Li2 O8 2.016584 1_555
Li3 O14 1.978362 1_555
Li3 O0 1.999442 1_545
Li3 O13 2.018176 1_655
Li3 O13 2.018176 1_555
Li4 O1 1.967851 1_545
Li4 O12 2.002330 1_555
Li4 O16 2.009559 1_555
Li4 O16 2.009559 1_655
Li5 O11 1.975263 1_555
Li5 O15 1.995361 1_555
Li5 O17 2.018313 1_555
Li5 O17 2.018313 1_655
Mn0 O16 2.096000 1_554
Mn0 O9 2.173542 1_454
Mn0 O9 2.173542 1_554
Mn0 O11 2.184635 1_455
Mn0 O11 2.184635 1_555
Fe0 O7 2.029833 1_555
Fe0 O0 2.149279 1_555
Fe0 O0 2.149279 1_455
Fe0 O2 2.166621 1_555
Fe0 O2 2.166621 1_455
Fe1 O4 2.031496 1_555
Fe1 O6 2.152457 1_555
Fe1 O6 2.152457 1_455
Fe1 O1 2.173093 1_455
Fe1 O1 2.173093 1_555
Fe2 O17 2.028547 1_565
Fe2 O3 2.152140 1_555
Fe2 O3 2.152140 1_455
Fe2 O5 2.176142 1_555
Fe2 O5 2.176142 1_455
Fe3 O13 2.026103 1_555
Fe3 O15 2.149034 1_455
Fe3 O15 2.149034 1_555
Fe3 O10 2.171861 1_555
Fe3 O10 2.171861 1_455
Fe4 O8 2.027369 1_555
Fe4 O12 2.149237 1_455
Fe4 O12 2.149237 1_555
Fe4 O14 2.171740 1_455
Fe4 O14 2.171740 1_555
B0 O1 1.389814 1_555
B0 O2 1.393269 1_555
B0 O14 1.394890 1_565
B1 O16 1.384785 1_565
B1 O4 1.394498 1_555
B1 O17 1.395328 1_566
B2 O15 1.387014 1_555
B2 O3 1.387167 1_545
B2 O0 1.390583 1_545
B3 O5 1.389199 1_555
B3 O10 1.390716 1_555
B3 O11 1.397769 1_555
B4 O13 1.389101 1_555
B4 O7 1.390077 1_555
B4 O8 1.390968 1_555
B5 O9 1.384781 1_555
B5 O6 1.387659 1_555
B5 O12 1.391516 1_555
