# generated using pymatgen
data_Li4Fe3OF8
_symmetry_space_group_name_H-M   'P 1'
_cell_length_a   5.14317290
_cell_length_b   5.14317290
_cell_length_c   11.66359970
_cell_angle_alpha   77.94213625
_cell_angle_beta   77.94213625
_cell_angle_gamma   33.14393449
_symmetry_Int_Tables_number   1
_chemical_formula_structural   Li4Fe3OF8
_chemical_formula_sum   'Li4 Fe3 O1 F8'
_cell_volume   164.63066524
_cell_formula_units_Z   1
loop_
 _symmetry_equiv_pos_site_id
 _symmetry_equiv_pos_as_xyz
  1  'x, y, z'
loop_
 _atom_site_type_symbol
 _atom_site_label
 _atom_site_symmetry_multiplicity
 _atom_site_fract_x
 _atom_site_fract_y
 _atom_site_fract_z
 _atom_site_occupancy
  Li  Li0  1  0.13198000  0.13198000  0.43947100  1
  Li  Li1  1  0.22666600  0.22666600  0.12332500  1
  Li  Li2  1  0.84877400  0.84877400  0.55203800  1
  Li  Li3  1  0.00205400  0.00205400  0.00774100  1
  Fe  Fe0  1  0.57701700  0.57701700  0.72983500  1
  Fe  Fe1  1  0.76074000  0.76074000  0.87695700  1
  Fe  Fe2  1  0.42781500  0.42781500  0.29712400  1
  O  O0  1  0.12830300  0.12830300  0.83891600  1
  F  F0  1  0.62947900  0.62947900  0.05187200  1
  F  F1  1  0.08774300  0.08774300  0.27518600  1
  F  F2  1  0.18508200  0.18508200  0.59721200  1
  F  F3  1  0.78554300  0.78554300  0.39422500  1
  F  F4  1  0.86753200  0.86753200  0.16993300  1
  F  F5  1  0.91133600  0.91133600  0.71267600  1
  F  F6  1  0.37091800  0.37091800  0.95829200  1
  F  F7  1  0.48336300  0.48336300  0.47449100  1
loop_
_geom_bond_atom_site_label_1
_geom_bond_atom_site_label_2
_geom_bond_distance
_geom_bond_site_symmetry_2
Li3 O0 2.087649 1_554
Fe0 O0 2.075251 1_565
Fe0 O0 2.075251 1_655
Fe1 O0 2.075129 1_655
Fe1 O0 2.075129 1_565
F0 Li1 2.027963 1_565
F0 Li1 2.027963 1_655
F0 Li3 2.068087 1_655
F0 Li3 2.068087 1_565
F0 Fe1 2.164723 1_554
F1 Li1 1.988908 1_555
F1 Li0 2.055760 1_555
F1 Fe2 2.127819 1_545
F1 Fe2 2.127819 1_455
F2 Li0 2.019636 1_555
F2 Li2 2.159482 1_545
F2 Li2 2.159482 1_455
F2 Fe0 2.227419 1_545
F2 Fe0 2.227419 1_455
F3 Li2 2.068060 1_555
F3 Li0 2.091477 1_655
F3 Li0 2.091477 1_565
F3 Fe2 2.170153 1_565
F3 Fe2 2.170153 1_655
F4 Li3 2.060097 1_665
F4 Li1 2.169170 1_565
F4 Li1 2.169170 1_655
F4 Fe2 2.256158 1_565
F4 Fe2 2.256158 1_655
F5 Li2 2.096341 1_555
F5 Fe1 2.153091 1_555
F5 Fe0 2.236660 1_565
F5 Fe0 2.236660 1_655
F6 Li3 2.116865 1_656
F6 Li3 2.116865 1_566
F6 Li1 2.129431 1_556
F6 Fe1 2.163558 1_545
F6 Fe1 2.163558 1_455
F7 Li0 2.050545 1_655
F7 Li0 2.050545 1_565
F7 Li2 2.051228 1_455
F7 Li2 2.051228 1_545
F7 Fe2 2.252433 1_555
