# generated using pymatgen
data_Nb6O15F
_symmetry_space_group_name_H-M   'P 1'
_cell_length_a   3.97095000
_cell_length_b   9.13896000
_cell_length_c   17.11437800
_cell_angle_alpha   90.00000000
_cell_angle_beta   90.00000000
_cell_angle_gamma   90.00000000
_symmetry_Int_Tables_number   1
_chemical_formula_structural   Nb6O15F
_chemical_formula_sum   'Nb12 O30 F2'
_cell_volume   621.08682262
_cell_formula_units_Z   2
loop_
 _symmetry_equiv_pos_site_id
 _symmetry_equiv_pos_as_xyz
  1  'x, y, z'
loop_
 _atom_site_type_symbol
 _atom_site_label
 _atom_site_symmetry_multiplicity
 _atom_site_fract_x
 _atom_site_fract_y
 _atom_site_fract_z
 _atom_site_occupancy
  Nb  Nb0  1  0.00000000  0.68401600  0.25000000  1
  Nb  Nb1  1  0.00000000  0.31598400  0.75000000  1
  Nb  Nb2  1  0.00000000  0.39729800  0.37312500  1
  Nb  Nb3  1  0.00000000  0.60270200  0.62687500  1
  Nb  Nb4  1  0.00000000  0.39729800  0.12687500  1
  Nb  Nb5  1  0.00000000  0.60270200  0.87312500  1
  Nb  Nb6  1  0.00000000  0.81652900  0.44041900  1
  Nb  Nb7  1  0.00000000  0.18347100  0.55958100  1
  Nb  Nb8  1  0.00000000  0.81652900  0.05958100  1
  Nb  Nb9  1  0.00000000  0.18347100  0.94041900  1
  Nb  Nb10  1  0.00000000  0.05850500  0.25000000  1
  Nb  Nb11  1  0.00000000  0.94149500  0.75000000  1
  O  O0  1  0.00000000  0.46466400  0.25000000  1
  O  O1  1  0.00000000  0.53533600  0.75000000  1
  O  O2  1  0.00000000  0.62102100  0.36497700  1
  O  O3  1  0.00000000  0.37897900  0.63502300  1
  O  O4  1  0.00000000  0.62102100  0.13502300  1
  O  O5  1  0.00000000  0.37897900  0.86497700  1
  O  O6  1  0.00000000  0.87059100  0.32325500  1
  O  O7  1  0.00000000  0.12940900  0.67674500  1
  O  O8  1  0.00000000  0.87059100  0.17674500  1
  O  O9  1  0.00000000  0.12940900  0.82325500  1
  O  O10  1  0.00000000  0.19640500  0.33378800  1
  O  O11  1  0.00000000  0.80359500  0.66621200  1
  O  O12  1  0.00000000  0.19640500  0.16621200  1
  O  O13  1  0.00000000  0.80359500  0.83378800  1
  O  O14  1  0.00000000  0.33699400  0.48091200  1
  O  O15  1  0.00000000  0.66300600  0.51908800  1
  O  O16  1  0.00000000  0.33699400  0.01908800  1
  O  O17  1  0.00000000  0.66300600  0.98091200  1
  O  O18  1  0.50000000  0.40561300  0.37001600  1
  O  O19  1  0.50000000  0.59438700  0.62998400  1
  O  O20  1  0.50000000  0.40561300  0.12998400  1
  O  O21  1  0.50000000  0.59438700  0.87001600  1
  O  O22  1  0.00000000  0.00000000  0.50000000  1
  O  O23  1  0.00000000  0.00000000  0.00000000  1
  O  O24  1  0.50000000  0.81938800  0.43878800  1
  O  O25  1  0.50000000  0.18061200  0.56121200  1
  O  O26  1  0.50000000  0.81938800  0.06121200  1
  O  O27  1  0.50000000  0.18061200  0.93878800  1
  O  O28  1  0.50000000  0.04707600  0.25000000  1
  O  O29  1  0.50000000  0.95292400  0.75000000  1
  F  F0  1  0.50000000  0.69479000  0.25000000  1
  F  F1  1  0.50000000  0.30521000  0.75000000  1
loop_
_geom_bond_atom_site_label_1
_geom_bond_atom_site_label_2
_geom_bond_distance
_geom_bond_site_symmetry_2
Nb0 O0 2.004649 1_555
Nb0 O4 2.050249 1_555
Nb0 O2 2.050249 1_555
Nb0 O6 2.116405 1_555
Nb0 O8 2.116405 1_555
Nb1 O1 2.004649 1_555
Nb1 O5 2.050249 1_555
Nb1 O3 2.050249 1_555
Nb1 O7 2.116405 1_555
Nb1 O9 2.116405 1_555
Nb2 O14 1.925273 1_555
Nb2 O10 1.955495 1_555
Nb2 O18 1.987641 1_455
Nb2 O18 1.987641 1_555
Nb2 O2 2.049345 1_555
Nb2 O0 2.195303 1_555
Nb3 O15 1.925273 1_555
Nb3 O11 1.955495 1_555
Nb3 O19 1.987641 1_455
Nb3 O19 1.987641 1_555
Nb3 O3 2.049345 1_555
Nb3 O1 2.195303 1_555
Nb4 O16 1.925273 1_555
Nb4 O12 1.955495 1_555
Nb4 O20 1.987641 1_555
Nb4 O20 1.987641 1_455
Nb4 O4 2.049345 1_555
Nb4 O0 2.195303 1_555
Nb5 O17 1.925273 1_555
Nb5 O13 1.955495 1_555
Nb5 O21 1.987641 1_555
Nb5 O21 1.987641 1_455
Nb5 O5 2.049345 1_555
Nb5 O1 2.195303 1_555
Nb6 O15 1.944540 1_555
Nb6 O22 1.962450 1_565
Nb6 O24 1.985843 1_555
Nb6 O24 1.985843 1_455
Nb6 O6 2.065161 1_555
Nb6 O2 2.204425 1_555
Nb7 O14 1.944540 1_555
Nb7 O22 1.962450 1_555
Nb7 O25 1.985843 1_555
Nb7 O25 1.985843 1_455
Nb7 O7 2.065161 1_555
Nb7 O3 2.204425 1_555
Nb8 O17 1.944540 1_554
Nb8 O23 1.962450 1_565
Nb8 O26 1.985843 1_455
Nb8 O26 1.985843 1_555
Nb8 O8 2.065161 1_555
Nb8 O4 2.204425 1_555
Nb9 O16 1.944540 1_556
Nb9 O23 1.962450 1_556
Nb9 O27 1.985843 1_555
Nb9 O27 1.985843 1_455
Nb9 O9 2.065161 1_555
Nb9 O5 2.204425 1_555
Nb10 O10 1.909073 1_555
Nb10 O12 1.909073 1_555
Nb10 O28 1.988220 1_455
Nb10 O28 1.988220 1_555
Nb10 O8 2.126276 1_545
Nb10 O6 2.126276 1_545
Nb11 O11 1.909073 1_555
Nb11 O13 1.909073 1_555
Nb11 O29 1.988220 1_455
Nb11 O29 1.988220 1_555
Nb11 O9 2.126276 1_565
Nb11 O7 2.126276 1_565
F0 Nb0 1.987915 1_655
F0 Nb0 1.987915 1_555
F1 Nb1 1.987915 1_655
F1 Nb1 1.987915 1_555
