# generated using pymatgen
data_Li2VO2F
_symmetry_space_group_name_H-M   'P 1'
_cell_length_a   5.25196238
_cell_length_b   7.30521164
_cell_length_c   6.45546282
_cell_angle_alpha   110.76250602
_cell_angle_beta   76.39321644
_cell_angle_gamma   86.13431338
_symmetry_Int_Tables_number   1
_chemical_formula_structural   Li2VO2F
_chemical_formula_sum   'Li8 V4 O8 F4'
_cell_volume   221.96927828
_cell_formula_units_Z   4
loop_
 _symmetry_equiv_pos_site_id
 _symmetry_equiv_pos_as_xyz
  1  'x, y, z'
loop_
 _atom_site_type_symbol
 _atom_site_label
 _atom_site_symmetry_multiplicity
 _atom_site_fract_x
 _atom_site_fract_y
 _atom_site_fract_z
 _atom_site_occupancy
  Li  Li0  1  0.16899200  0.83001300  0.50850200  1
  Li  Li1  1  0.66904100  0.32998200  0.00844100  1
  Li  Li2  1  0.99894800  0.00246800  0.99458400  1
  Li  Li3  1  0.49886900  0.50239000  0.49460800  1
  Li  Li4  1  0.53941200  0.89281200  0.75444900  1
  Li  Li5  1  0.03943200  0.39275800  0.25439600  1
  Li  Li6  1  0.84220700  0.17503400  0.49248500  1
  Li  Li7  1  0.34220700  0.67498900  0.99241500  1
  V  V0  1  0.25559300  0.24797400  0.75768600  1
  V  V1  1  0.44612700  0.10282400  0.24100600  1
  V  V2  1  0.75559700  0.74794100  0.25778400  1
  V  V3  1  0.94592200  0.60294700  0.74113200  1
  O  O0  1  0.83181100  0.66647300  0.49882100  1
  O  O1  1  0.33189200  0.16655900  0.99889400  1
  O  O2  1  0.49545000  0.00255700  0.49103200  1
  O  O3  1  0.99549800  0.50262000  0.99101500  1
  O  O4  1  0.73417900  0.24218800  0.24945100  1
  O  O5  1  0.23418700  0.74221300  0.74945400  1
  O  O6  1  0.16916200  0.33041400  0.50981100  1
  O  O7  1  0.66898300  0.83041900  0.00989300  1
  F  F0  1  0.08112100  0.91158400  0.25791500  1
  F  F1  1  0.58127600  0.41185800  0.75790700  1
  F  F2  1  0.93701600  0.09546100  0.74416200  1
  F  F3  1  0.43707700  0.59551900  0.24416200  1
loop_
_geom_bond_atom_site_label_1
_geom_bond_atom_site_label_2
_geom_bond_distance
_geom_bond_site_symmetry_2
Li0 O5 1.968855 1_555
Li0 O2 2.200539 1_565
Li0 O0 2.202624 1_455
Li1 O4 1.969082 1_555
Li1 O3 2.200957 1_554
Li1 O1 2.201959 1_554
Li2 O4 2.063916 1_556
Li2 O5 2.067721 1_645
Li2 O1 2.185683 1_655
Li2 O7 2.212189 1_546
Li3 O5 2.064066 1_555
Li3 O4 2.067671 1_555
Li3 O0 2.185635 1_555
Li3 O6 2.210708 1_555
Li4 O5 2.004509 1_555
Li4 O1 2.082462 1_565
Li4 O0 2.084734 1_555
Li4 O7 2.099789 1_556
Li4 O2 2.171177 1_565
Li5 O4 2.004503 1_455
Li5 O0 2.082419 1_455
Li5 O1 2.084146 1_554
Li5 O6 2.099857 1_555
Li5 O3 2.171467 1_454
Li6 O4 1.987704 1_555
Li6 O6 2.124315 1_655
Li6 O2 2.283265 1_555
Li7 O5 1.987500 1_555
Li7 O7 2.123770 1_556
Li7 O3 2.282579 1_455
O0 V2 1.962918 1_555
O0 V3 1.984841 1_555
O1 V0 1.963909 1_555
O1 V1 1.984691 1_556
O2 V1 2.053790 1_555
O2 V0 2.061893 1_555
O2 V2 2.073003 1_545
O3 V3 2.053577 1_555
O3 V2 2.061887 1_556
O3 V0 2.073149 1_655
O4 V1 1.880232 1_555
O5 V3 1.880741 1_455
O6 V0 2.029128 1_555
O6 V3 2.078923 1_455
O6 V1 2.081357 1_555
O7 V2 2.029756 1_555
O7 V1 2.077304 1_565
O7 V3 2.080793 1_554
F0 Li0 2.045112 1_555
F0 Li7 2.068687 1_554
F0 Li6 2.070155 1_465
F0 Li2 2.150239 1_464
F0 V2 2.151162 1_455
F0 V1 2.451390 1_565
F1 Li1 2.045811 1_556
F1 Li7 2.068887 1_555
F1 Li6 2.068995 1_555
F1 Li3 2.149015 1_555
F1 V0 2.152925 1_555
F1 V3 2.449100 1_555
F2 Li2 2.043742 1_555
F2 Li6 2.058317 1_555
F2 Li0 2.068047 1_645
F2 Li1 2.073492 1_556
F2 V0 2.073522 1_655
F3 Li3 2.044250 1_555
F3 Li7 2.058465 1_554
F3 Li1 2.068544 1_555
F3 V2 2.072909 1_555
F3 Li0 2.073789 1_555
