# generated using pymatgen
data_Na2CoH8(CO5)2
_symmetry_space_group_name_H-M   'P 1'
_cell_length_a   5.63782306
_cell_length_b   5.63782306
_cell_length_c   14.41607742
_cell_angle_alpha   84.30782170
_cell_angle_beta   84.30782170
_cell_angle_gamma   79.77450093
_symmetry_Int_Tables_number   1
_chemical_formula_structural   Na2CoH8(CO5)2
_chemical_formula_sum   'Na4 Co2 H16 C4 O20'
_cell_volume   447.15458237
_cell_formula_units_Z   2
loop_
 _symmetry_equiv_pos_site_id
 _symmetry_equiv_pos_as_xyz
  1  'x, y, z'
loop_
 _atom_site_type_symbol
 _atom_site_label
 _atom_site_symmetry_multiplicity
 _atom_site_fract_x
 _atom_site_fract_y
 _atom_site_fract_z
 _atom_site_occupancy
  Na  Na0  1  0.40351100  0.75577000  0.56357800  1
  Na  Na1  1  0.24423000  0.59648900  0.93642200  1
  Na  Na2  1  0.59648900  0.24423000  0.43642200  1
  Na  Na3  1  0.75577000  0.40351100  0.06357800  1
  Co  Co0  1  0.04180500  0.95819500  0.75000000  1
  Co  Co1  1  0.95819500  0.04180500  0.25000000  1
  H  H0  1  0.53398000  0.21431400  0.62804100  1
  H  H1  1  0.78568600  0.46602000  0.87195900  1
  H  H2  1  0.46602000  0.78568600  0.37195900  1
  H  H3  1  0.21431400  0.53398000  0.12804100  1
  H  H4  1  0.74234800  0.36228000  0.62431300  1
  H  H5  1  0.63772000  0.25765200  0.87568700  1
  H  H6  1  0.25765200  0.63772000  0.37568700  1
  H  H7  1  0.36228000  0.74234800  0.12431300  1
  H  H8  1  0.85106500  0.76389700  0.44075400  1
  H  H9  1  0.23610300  0.14893500  0.05924600  1
  H  H10  1  0.14893500  0.23610300  0.55924600  1
  H  H11  1  0.76389700  0.85106500  0.94075400  1
  H  H12  1  0.88877300  0.80091300  0.54595000  1
  H  H13  1  0.19908700  0.11122700  0.95405000  1
  H  H14  1  0.11122700  0.19908700  0.45405000  1
  H  H15  1  0.80091300  0.88877300  0.04595000  1
  C  C0  1  0.48411400  0.96434400  0.78598600  1
  C  C1  1  0.03565600  0.51588600  0.71401400  1
  C  C2  1  0.51588600  0.03565600  0.21401400  1
  C  C3  1  0.96434400  0.48411400  0.28598600  1
  O  O0  1  0.29129900  0.95869800  0.84537400  1
  O  O1  1  0.04130200  0.70870100  0.65462600  1
  O  O2  1  0.70870100  0.04130100  0.15462600  1
  O  O3  1  0.95869800  0.29129900  0.34537400  1
  O  O4  1  0.05145400  0.54235000  0.80066200  1
  O  O5  1  0.45765000  0.94854600  0.69933800  1
  O  O6  1  0.94854600  0.45765000  0.19933800  1
  O  O7  1  0.54235000  0.05145400  0.30066200  1
  O  O8  1  0.68647100  0.98919400  0.81673600  1
  O  O9  1  0.01080600  0.31352900  0.68326400  1
  O  O10  1  0.31352900  0.01080600  0.18326400  1
  O  O11  1  0.98919400  0.68647100  0.31673600  1
  O  O12  1  0.59378900  0.35594400  0.59400200  1
  O  O13  1  0.64405600  0.40621100  0.90599800  1
  O  O14  1  0.40621100  0.64405600  0.40599800  1
  O  O15  1  0.35594400  0.59378900  0.09400200  1
  O  O16  1  0.22151100  0.15052800  0.50409600  1
  O  O17  1  0.84947200  0.77848900  0.99590400  1
  O  O18  1  0.77848900  0.84947200  0.49590400  1
  O  O19  1  0.15052800  0.22151100  0.00409600  1
loop_
_geom_bond_atom_site_label_1
_geom_bond_atom_site_label_2
_geom_bond_distance
_geom_bond_site_symmetry_2
Na0 O12 2.337309 1_555
Na0 O1 2.356880 1_555
Na0 O18 2.363316 1_555
Na0 O16 2.393013 1_565
Na0 O5 2.400613 1_555
Na0 O14 2.414750 1_555
Na1 O13 2.337309 1_555
Na1 O0 2.356880 1_555
Na1 O19 2.363316 1_556
Na1 O17 2.393013 1_455
Na1 O4 2.400613 1_555
Na1 O15 2.414750 1_556
Na2 O14 2.337309 1_555
Na2 O3 2.356880 1_555
Na2 O16 2.363316 1_555
Na2 O18 2.393013 1_545
Na2 O7 2.400613 1_555
Na2 O12 2.414750 1_555
Na3 O15 2.337309 1_555
Na3 O2 2.356885 1_555
Na3 O17 2.363316 1_554
Na3 O19 2.393013 1_655
Na3 O6 2.400613 1_555
Na3 O13 2.414750 1_554
Co0 O1 2.062709 1_555
Co0 O0 2.062709 1_555
Co0 O9 2.120402 1_565
Co0 O8 2.120402 1_455
Co0 O4 2.378193 1_555
Co0 O5 2.378193 1_555
Co1 O3 2.062709 1_555
Co1 O2 2.062710 1_555
Co1 O10 2.120402 1_655
Co1 O11 2.120402 1_545
Co1 O6 2.378193 1_555
Co1 O7 2.378193 1_555
H0 O12 0.988493 1_555
H1 O13 0.988493 1_555
H2 O14 0.988493 1_555
H3 O15 0.988493 1_555
H4 O12 0.989960 1_555
H5 O13 0.989960 1_555
H6 O14 0.989960 1_555
H7 O15 0.989960 1_555
H8 O18 0.986790 1_555
H9 O19 0.986790 1_555
H10 O16 0.986790 1_555
H11 O17 0.986790 1_555
H12 O18 0.985606 1_555
H13 O19 0.985606 1_556
H14 O16 0.985606 1_555
H15 O17 0.985606 1_554
C0 O5 1.286181 1_555
C0 O8 1.298874 1_555
C0 O0 1.318313 1_555
C1 O4 1.286181 1_555
C1 O9 1.298874 1_555
C1 O1 1.318313 1_555
C2 O7 1.286181 1_555
C2 O10 1.298874 1_555
C2 O2 1.318312 1_555
C3 O6 1.286181 1_555
C3 O11 1.298874 1_555
C3 O3 1.318313 1_555
