# generated using pymatgen
data_BaSrI4
_symmetry_space_group_name_H-M   'P 1'
_cell_length_a   10.21900700
_cell_length_b   11.19704200
_cell_length_c   11.20805500
_cell_angle_alpha   90.00000000
_cell_angle_beta   90.00000000
_cell_angle_gamma   90.00000000
_symmetry_Int_Tables_number   1
_chemical_formula_structural   BaSrI4
_chemical_formula_sum   'Ba4 Sr4 I16'
_cell_volume   1282.45536092
_cell_formula_units_Z   4
loop_
 _symmetry_equiv_pos_site_id
 _symmetry_equiv_pos_as_xyz
  1  'x, y, z'
loop_
 _atom_site_type_symbol
 _atom_site_label
 _atom_site_symmetry_multiplicity
 _atom_site_fract_x
 _atom_site_fract_y
 _atom_site_fract_z
 _atom_site_occupancy
  Ba  Ba0  1  0.99583200  0.76143600  0.21686100  1
  Ba  Ba1  1  0.50416800  0.26143600  0.71686100  1
  Ba  Ba2  1  0.49583200  0.73856400  0.21686100  1
  Ba  Ba3  1  0.00416800  0.23856400  0.71686100  1
  Sr  Sr0  1  0.22711200  0.25079800  0.21728300  1
  Sr  Sr1  1  0.27288800  0.75079800  0.71728300  1
  Sr  Sr2  1  0.72711200  0.24920200  0.21728300  1
  Sr  Sr3  1  0.77288800  0.74920200  0.71728300  1
  I  I0  1  0.02054200  0.76650100  0.52758500  1
  I  I1  1  0.02101200  0.77429600  0.90633900  1
  I  I2  1  0.24365300  0.45621800  0.72567000  1
  I  I3  1  0.23420000  0.54497100  0.20564300  1
  I  I4  1  0.26580000  0.04497100  0.70564300  1
  I  I5  1  0.25634700  0.95621800  0.22567000  1
  I  I6  1  0.47898800  0.27429600  0.40633800  1
  I  I7  1  0.47945800  0.26650100  0.02758500  1
  I  I8  1  0.52054200  0.73349900  0.52758500  1
  I  I9  1  0.52101200  0.72570400  0.90633900  1
  I  I10  1  0.74365300  0.04378200  0.72567000  1
  I  I11  1  0.73420000  0.95502900  0.20564300  1
  I  I12  1  0.76580000  0.45502900  0.70564300  1
  I  I13  1  0.75634700  0.54378200  0.22567000  1
  I  I14  1  0.97898800  0.22570400  0.40633800  1
  I  I15  1  0.97945800  0.23349900  0.02758500  1
loop_
_geom_bond_atom_site_label_1
_geom_bond_atom_site_label_2
_geom_bond_distance
_geom_bond_site_symmetry_2
Ba0 I3 3.438603 1_655
Ba0 I5 3.442930 1_655
Ba0 I11 3.444247 1_555
Ba0 I13 3.455197 1_555
Ba0 I0 3.492215 1_655
Ba0 I1 3.492816 1_654
Ba1 I4 3.438603 1_555
Ba1 I2 3.442930 1_555
Ba1 I12 3.444247 1_555
Ba1 I10 3.455197 1_555
Ba1 I7 3.492215 1_556
Ba1 I6 3.492827 1_555
Ba2 I11 3.438603 1_555
Ba2 I13 3.442930 1_555
Ba2 I3 3.444247 1_555
Ba2 I5 3.455197 1_555
Ba2 I8 3.492215 1_555
Ba2 I9 3.492816 1_554
Ba3 I12 3.438603 1_455
Ba3 I10 3.442930 1_455
Ba3 I4 3.444247 1_555
Ba3 I2 3.455197 1_555
Ba3 I15 3.492215 1_456
Ba3 I14 3.492827 1_455
I0 Sr3 3.311020 1_455
I0 Sr1 3.346825 1_555
I1 Sr3 3.316334 1_455
I1 Sr1 3.344287 1_555
I2 Sr1 3.313260 1_555
I3 Sr0 3.297246 1_555
I4 Sr1 3.297246 1_545
I5 Sr0 3.313260 1_565
I6 Sr2 3.316326 1_555
I6 Sr0 3.344279 1_555
I7 Sr2 3.311020 1_555
I7 Sr0 3.346825 1_555
I8 Sr1 3.311020 1_555
I8 Sr3 3.346825 1_555
I9 Sr1 3.316334 1_555
I9 Sr3 3.344287 1_555
I10 Sr3 3.313260 1_545
I11 Sr2 3.297246 1_565
I12 Sr3 3.297246 1_555
I13 Sr2 3.313260 1_555
I14 Sr0 3.316326 1_655
I14 Sr2 3.344279 1_555
I15 Sr0 3.311020 1_655
I15 Sr2 3.346825 1_555
