# generated using pymatgen
data_Sr(RhO2)2
_symmetry_space_group_name_H-M   'P 1'
_cell_length_a   5.36553851
_cell_length_b   6.18466945
_cell_length_c   11.33905599
_cell_angle_alpha   90.00000000
_cell_angle_beta   90.00000000
_cell_angle_gamma   90.00000000
_symmetry_Int_Tables_number   1
_chemical_formula_structural   Sr(RhO2)2
_chemical_formula_sum   'Sr4 Rh8 O16'
_cell_volume   376.27616497
_cell_formula_units_Z   4
loop_
 _symmetry_equiv_pos_site_id
 _symmetry_equiv_pos_as_xyz
  1  'x, y, z'
loop_
 _atom_site_type_symbol
 _atom_site_label
 _atom_site_symmetry_multiplicity
 _atom_site_fract_x
 _atom_site_fract_y
 _atom_site_fract_z
 _atom_site_occupancy
  Sr  Sr0  1  0.14361562  -0.00000000  0.50000000  1
  Sr  Sr1  1  0.46383157  -0.00000000  0.00000000  1
  Sr  Sr2  1  0.53616843  0.50000000  0.50000000  1
  Sr  Sr3  1  0.85638438  0.50000000  0.00000000  1
  Rh  Rh0  1  0.50207558  -0.00000000  0.74424218  1
  Rh  Rh1  1  0.50207558  -0.00000000  0.25575782  1
  Rh  Rh2  1  0.00000000  0.75000000  0.75000000  1
  Rh  Rh3  1  0.00000000  0.75000000  0.25000000  1
  Rh  Rh4  1  0.49792442  0.50000000  0.75575782  1
  Rh  Rh5  1  0.49792442  0.50000000  0.24424218  1
  Rh  Rh6  1  0.00000000  0.25000000  0.25000000  1
  Rh  Rh7  1  0.00000000  0.25000000  0.75000000  1
  O  O0  1  0.17081483  -0.00000000  0.16408462  1
  O  O1  1  0.83560237  -0.00000000  0.65760778  1
  O  O2  1  0.83560237  -0.00000000  0.34239222  1
  O  O3  1  0.17081483  -0.00000000  0.83591538  1
  O  O4  1  0.66597011  0.75425945  0.15614164  1
  O  O5  1  0.33402989  0.74574055  0.34385836  1
  O  O6  1  0.33402989  0.74574055  0.65614164  1
  O  O7  1  0.66597011  0.75425945  0.84385836  1
  O  O8  1  0.16439763  0.50000000  0.15760778  1
  O  O9  1  0.16439763  0.50000000  0.84239222  1
  O  O10  1  0.82918517  0.50000000  0.33591538  1
  O  O11  1  0.82918517  0.50000000  0.66408462  1
  O  O12  1  0.66597011  0.24574055  0.15614164  1
  O  O13  1  0.33402989  0.25425945  0.34385836  1
  O  O14  1  0.33402989  0.25425945  0.65614164  1
  O  O15  1  0.66597011  0.24574055  0.84385836  1
loop_
_geom_bond_atom_site_label_1
_geom_bond_atom_site_label_2
_geom_bond_distance
_geom_bond_site_symmetry_2
O0 Rh6 2.044430 1_555
O0 Rh3 2.044430 1_545
O0 Rh1 2.059043 1_555
O0 Sr1 2.435876 1_555
O1 Rh0 2.041448 1_555
O1 Rh7 2.065491 1_655
O1 Rh2 2.065491 1_645
O1 Sr0 2.434150 1_655
O2 Rh1 2.041448 1_555
O2 Rh3 2.065491 1_645
O2 Rh6 2.065491 1_655
O2 Sr0 2.434150 1_655
O3 Rh2 2.044430 1_545
O3 Rh7 2.044430 1_555
O3 Rh0 2.059043 1_555
O3 Sr1 2.435876 1_556
O4 Rh5 2.069717 1_555
O4 Rh3 2.084590 1_655
O4 Rh1 2.087839 1_565
O4 Sr1 2.573101 1_565
O4 Sr3 2.579007 1_555
O5 Rh1 2.069717 1_565
O5 Rh3 2.084590 1_555
O5 Rh5 2.087839 1_555
O5 Sr2 2.573101 1_555
O5 Sr0 2.579007 1_565
O6 Rh0 2.069717 1_565
O6 Rh2 2.084590 1_555
O6 Rh4 2.087839 1_555
O6 Sr2 2.573101 1_555
O6 Sr0 2.579007 1_565
O7 Rh4 2.069717 1_555
O7 Rh2 2.084590 1_655
O7 Rh0 2.087839 1_565
O7 Sr1 2.573101 1_566
O7 Sr3 2.579007 1_556
O8 Rh5 2.041448 1_555
O8 Rh6 2.065491 1_555
O8 Rh3 2.065491 1_555
O8 Sr3 2.434150 1_455
O9 Rh4 2.041448 1_555
O9 Rh7 2.065491 1_555
O9 Rh2 2.065491 1_555
O9 Sr3 2.434150 1_456
O10 Rh6 2.044430 1_655
O10 Rh3 2.044430 1_655
O10 Rh5 2.059043 1_555
O10 Sr2 2.435876 1_555
O11 Rh2 2.044430 1_655
O11 Rh7 2.044430 1_655
O11 Rh4 2.059043 1_555
O11 Sr2 2.435876 1_555
O12 Rh5 2.069717 1_555
O12 Rh6 2.084590 1_655
O12 Rh1 2.087839 1_555
O12 Sr1 2.573101 1_555
O12 Sr3 2.579007 1_555
O13 Rh1 2.069717 1_555
O13 Rh6 2.084590 1_555
O13 Rh5 2.087839 1_555
O13 Sr2 2.573101 1_555
O13 Sr0 2.579007 1_555
O14 Rh0 2.069717 1_555
O14 Rh7 2.084590 1_555
O14 Rh4 2.087839 1_555
O14 Sr2 2.573101 1_555
O14 Sr0 2.579007 1_555
O15 Rh4 2.069717 1_555
O15 Rh7 2.084590 1_655
O15 Rh0 2.087839 1_555
O15 Sr1 2.573101 1_556
O15 Sr3 2.579007 1_556
