# generated using pymatgen
data_Li4MnV(PO4)3
_symmetry_space_group_name_H-M   'P 1'
_cell_length_a   9.26162285
_cell_length_b   8.43861701
_cell_length_c   8.41646338
_cell_angle_alpha   60.71471075
_cell_angle_beta   63.05811682
_cell_angle_gamma   90.53487621
_symmetry_Int_Tables_number   1
_chemical_formula_structural   Li4MnV(PO4)3
_chemical_formula_sum   'Li8 Mn2 V2 P6 O24'
_cell_volume   488.36792031
_cell_formula_units_Z   2
loop_
 _symmetry_equiv_pos_site_id
 _symmetry_equiv_pos_as_xyz
  1  'x, y, z'
loop_
 _atom_site_type_symbol
 _atom_site_label
 _atom_site_symmetry_multiplicity
 _atom_site_fract_x
 _atom_site_fract_y
 _atom_site_fract_z
 _atom_site_occupancy
  Li  Li0  1  0.86531000  0.26521200  0.80483500  1
  Li  Li1  1  0.90035500  0.93843100  0.36876500  1
  Li  Li2  1  0.85138900  0.65901900  0.07281100  1
  Li  Li3  1  0.58877300  0.79362600  0.67156900  1
  Li  Li4  1  0.41040500  0.20140400  0.32498900  1
  Li  Li5  1  0.14445700  0.33947500  0.93485000  1
  Li  Li6  1  0.09902200  0.06403700  0.62839900  1
  Li  Li7  1  0.13821100  0.72985400  0.19359100  1
  Mn  Mn0  1  0.56328800  0.85084700  0.28698800  1
  Mn  Mn1  1  0.03178200  0.35140300  0.31127300  1
  V  V0  1  0.96274300  0.64801200  0.69297600  1
  V  V1  1  0.43911100  0.15094700  0.70853300  1
  P  P0  1  0.74788600  0.94809900  0.79169500  1
  P  P1  1  0.75044700  0.54640800  0.50755800  1
  P  P2  1  0.75949500  0.25083900  0.19415700  1
  P  P3  1  0.24315900  0.75446500  0.79614700  1
  P  P4  1  0.25158700  0.45709000  0.49706100  1
  P  P5  1  0.25265600  0.04597600  0.21083500  1
  O  O0  1  0.88922500  0.14014000  0.65625800  1
  O  O1  1  0.81657800  0.50004700  0.66276900  1
  O  O2  1  0.80630600  0.83173400  0.68467200  1
  O  O3  1  0.89600100  0.56819800  0.30100300  1
  O  O4  1  0.90082100  0.20201800  0.24651100  1
  O  O5  1  0.71754200  0.74224300  0.44322100  1
  O  O6  1  0.58215800  0.97880200  0.79396800  1
  O  O7  1  0.59096600  0.38581900  0.61947400  1
  O  O8  1  0.81763000  0.46928700  0.01733000  1
  O  O9  1  0.73816600  0.13460100  0.10843200  1
  O  O10  1  0.58933100  0.20756400  0.39244600  1
  O  O11  1  0.72745800  0.83685400  0.01222900  1
  O  O12  1  0.26749600  0.14441500  0.98817000  1
  O  O13  1  0.41464800  0.81253500  0.60005000  1
  O  O14  1  0.25633200  0.88213400  0.87868300  1
  O  O15  1  0.18764600  0.54254100  0.97000200  1
  O  O16  1  0.41320900  0.59759500  0.39985400  1
  O  O17  1  0.41935900  0.02537000  0.19393000  1
  O  O18  1  0.27502300  0.24945700  0.58517400  1
  O  O19  1  0.09935300  0.79696700  0.73932000  1
  O  O20  1  0.09992100  0.44573800  0.69957800  1
  O  O21  1  0.19387100  0.16268300  0.31297600  1
  O  O22  1  0.19386600  0.49968800  0.33919800  1
  O  O23  1  0.10701700  0.84843100  0.35771900  1
loop_
_geom_bond_atom_site_label_1
_geom_bond_atom_site_label_2
_geom_bond_distance
_geom_bond_site_symmetry_2
Li0 O9 1.903810 1_556
Li0 O1 1.935994 1_555
Li0 O0 1.941986 1_555
Li0 O20 2.168064 1_655
Li1 O4 1.939853 1_565
Li1 O5 1.992870 1_555
Li1 O2 2.045334 1_555
Li1 O23 2.045460 1_655
Li2 O11 1.908766 1_555
Li2 O3 1.931751 1_555
Li2 O8 1.932258 1_555
Li2 O19 2.328051 1_654
Li3 O13 1.943969 1_555
Li3 O5 2.012928 1_555
Li3 O2 2.097275 1_555
Li3 O6 2.241934 1_555
Li4 O10 1.987713 1_555
Li4 O21 2.083908 1_555
Li4 O18 2.218576 1_555
Li4 O17 2.225469 1_555
Li5 O15 1.942773 1_555
Li5 O20 1.976148 1_555
Li5 O12 1.996281 1_555
Li5 O4 2.220045 1_456
Li6 O19 1.973598 1_545
Li6 O0 2.000163 1_455
Li6 O18 2.023806 1_555
Li6 O21 2.055092 1_555
Li7 O22 1.949990 1_555
Li7 O14 1.971566 1_554
Li7 O23 1.997235 1_555
Li7 O3 2.146874 1_455
Mn0 O16 2.040478 1_555
Mn0 O17 2.100853 1_565
Mn0 O11 2.181226 1_555
Mn0 O13 2.193991 1_555
Mn0 O9 2.194722 1_565
Mn0 O5 2.271070 1_555
Mn1 O22 2.108765 1_555
Mn1 O4 2.144790 1_455
Mn1 O15 2.145313 1_554
Mn1 O0 2.184064 1_455
Mn1 O21 2.198136 1_555
Mn1 O3 2.218681 1_455
O0 P0 1.562100 1_545
O1 P1 1.569777 1_555
O1 V0 2.011749 1_555
O2 P0 1.581759 1_555
O2 V0 2.129645 1_555
O3 P1 1.559587 1_555
O4 P2 1.559563 1_555
O5 P1 1.549382 1_555
O6 P0 1.552130 1_555
O6 V1 2.063927 1_565
O7 P1 1.535725 1_555
O7 V1 2.001856 1_555
O8 P2 1.572992 1_555
O8 V0 2.035398 1_554
O9 P2 1.529585 1_555
O10 P2 1.553047 1_555
O10 V1 2.152077 1_555
O11 P0 1.528407 1_554
O12 P5 1.569225 1_556
O12 V1 2.133114 1_555
O13 P3 1.518397 1_555
O14 P3 1.569915 1_555
O14 V1 2.148399 1_565
O15 P3 1.531230 1_555
O16 P4 1.491281 1_555
O17 P5 1.504788 1_555
O18 P4 1.596502 1_555
O18 V1 2.165079 1_555
O19 P3 1.596756 1_555
O19 V0 2.056720 1_455
O20 P4 1.598650 1_555
O20 V0 2.131304 1_455
O21 P5 1.555485 1_555
O22 P4 1.536322 1_555
O23 P5 1.599199 1_565
O23 V0 2.116644 1_455
