# generated using pymatgen
data_Li3MnV(PO4)3
_symmetry_space_group_name_H-M   'P 1'
_cell_length_a   8.50557394
_cell_length_b   8.50557394
_cell_length_c   8.61602224
_cell_angle_alpha   61.68041154
_cell_angle_beta   61.68041154
_cell_angle_gamma   63.15911734
_symmetry_Int_Tables_number   1
_chemical_formula_structural   Li3MnV(PO4)3
_chemical_formula_sum   'Li6 Mn2 V2 P6 O24'
_cell_volume   461.96143768
_cell_formula_units_Z   2
loop_
 _symmetry_equiv_pos_site_id
 _symmetry_equiv_pos_as_xyz
  1  'x, y, z'
loop_
 _atom_site_type_symbol
 _atom_site_label
 _atom_site_symmetry_multiplicity
 _atom_site_fract_x
 _atom_site_fract_y
 _atom_site_fract_z
 _atom_site_occupancy
  Li  Li0  1  0.12851000  0.25216800  0.84332200  1
  Li  Li1  1  0.50048700  0.99686400  0.99877000  1
  Li  Li2  1  0.25216800  0.12851000  0.34332200  1
  Li  Li3  1  0.74121600  0.87234300  0.65857500  1
  Li  Li4  1  0.99686400  0.50048700  0.49877000  1
  Li  Li5  1  0.87234300  0.74121600  0.15857500  1
  Mn  Mn0  1  0.36211300  0.85699700  0.85026900  1
  Mn  Mn1  1  0.85699700  0.36211300  0.35026900  1
  V  V0  1  0.14441800  0.63652000  0.64467300  1
  V  V1  1  0.63652000  0.14441800  0.14467300  1
  P  P0  1  0.75166800  0.54975400  0.96539200  1
  P  P1  1  0.05227500  0.94654200  0.24837000  1
  P  P2  1  0.45138600  0.25075700  0.53552300  1
  P  P3  1  0.54975400  0.75166800  0.46539200  1
  P  P4  1  0.94654200  0.05227500  0.74837000  1
  P  P5  1  0.25075700  0.45138600  0.03552300  1
  O  O0  1  0.18713700  0.46435600  0.88864100  1
  O  O1  1  0.10749900  0.03351200  0.79708800  1
  O  O2  1  0.31779400  0.61604900  0.97590600  1
  O  O3  1  0.06288100  0.76002700  0.41677100  1
  O  O4  1  0.61132800  0.74544000  0.92488000  1
  O  O5  1  0.25659200  0.39610100  0.57585900  1
  O  O6  1  0.45288100  0.08616800  0.72769600  1
  O  O7  1  0.03351200  0.10749900  0.29708800  1
  O  O8  1  0.76002700  0.06288100  0.91677100  1
  O  O9  1  0.38587800  0.68211200  0.52792300  1
  O  O10  1  0.08616800  0.45288100  0.22769600  1
  O  O11  1  0.53453400  0.81481300  0.61521800  1
  O  O12  1  0.46435600  0.18713700  0.38864100  1
  O  O13  1  0.91574800  0.54142000  0.77591700  1
  O  O14  1  0.61604900  0.31779400  0.47590600  1
  O  O15  1  0.23724700  0.93551900  0.07710600  1
  O  O16  1  0.97722100  0.88372600  0.70210100  1
  O  O17  1  0.54142000  0.91574800  0.27591700  1
  O  O18  1  0.74544000  0.61132800  0.42488000  1
  O  O19  1  0.39610100  0.25659200  0.07585900  1
  O  O20  1  0.93551900  0.23724700  0.57710600  1
  O  O21  1  0.68211200  0.38587800  0.02792300  1
  O  O22  1  0.88372600  0.97722100  0.20210100  1
  O  O23  1  0.81481300  0.53453400  0.11521800  1
loop_
_geom_bond_atom_site_label_1
_geom_bond_atom_site_label_2
_geom_bond_distance
_geom_bond_site_symmetry_2
Li0 O5 2.035160 1_555
Li0 O1 2.172567 1_555
Li0 O13 2.299139 1_455
Li0 O0 2.307467 1_555
Li0 O6 2.409763 1_555
Li0 O15 2.556851 1_546
Li1 O4 2.183799 1_555
Li1 O8 2.225058 1_565
Li1 O15 2.242318 1_556
Li1 O6 2.265434 1_565
Li1 O19 2.274021 1_566
Li1 O17 2.303925 1_556
Li2 O19 2.035160 1_555
Li2 O7 2.172567 1_555
Li2 O17 2.299139 1_545
Li2 O12 2.307467 1_555
Li2 O10 2.409763 1_555
Li2 O20 2.556851 1_455
Li3 O4 1.993059 1_555
Li3 O11 2.245589 1_555
Li3 O16 2.259136 1_555
Li3 O6 2.300224 1_565
Li3 O13 2.469654 1_555
Li3 O3 2.618886 1_655
Li4 O18 2.183799 1_555
Li4 O3 2.225058 1_655
Li4 O20 2.242318 1_555
Li4 O10 2.265434 1_655
Li4 O5 2.274021 1_655
Li4 O13 2.303925 1_555
Li5 O18 1.993059 1_555
Li5 O23 2.245589 1_555
Li5 O22 2.259136 1_555
Li5 O10 2.300224 1_655
Li5 O17 2.469654 1_555
Li5 O8 2.618886 1_564
Mn0 O2 1.928620 1_555
Mn0 O11 1.943520 1_555
Mn0 O15 2.005580 1_556
Mn0 O6 2.035463 1_565
Mn0 O1 2.122900 1_565
Mn0 O4 2.169020 1_555
Mn1 O14 1.928620 1_555
Mn1 O23 1.943520 1_555
Mn1 O20 2.005580 1_555
Mn1 O10 2.035463 1_655
Mn1 O7 2.122900 1_655
Mn1 O18 2.169020 1_555
O0 P5 1.539462 1_556
O0 V0 2.004650 1_555
O1 P4 1.536320 1_455
O2 P5 1.520266 1_556
O3 P1 1.562418 1_555
O3 V0 2.029118 1_555
O4 P0 1.538498 1_555
O5 P2 1.551082 1_555
O5 V0 2.072493 1_555
O6 P2 1.583097 1_555
O7 P1 1.536320 1_545
O8 P4 1.562418 1_555
O8 V1 2.029118 1_556
O9 P3 1.520811 1_555
O9 V0 1.941432 1_555
O10 P5 1.583097 1_555
O11 P3 1.551813 1_555
O12 P2 1.539462 1_555
O12 V1 2.004650 1_555
O13 P0 1.573740 1_555
O13 V0 2.045004 1_655
O14 P2 1.520266 1_555
O15 P1 1.567444 1_555
O16 P4 1.545307 1_565
O16 V0 2.075461 1_655
O17 P3 1.573740 1_555
O17 V1 2.045004 1_565
O18 P3 1.538498 1_555
O19 P5 1.551082 1_555
O19 V1 2.072493 1_555
O20 P4 1.567444 1_555
O21 P0 1.520811 1_554
O21 V1 1.941432 1_555
O22 P1 1.545307 1_655
O22 V1 2.075461 1_565
O23 P0 1.551813 1_554
