# generated using pymatgen
data_Na5LaO4
_symmetry_space_group_name_H-M   'P 1'
_cell_length_a   5.63230300
_cell_length_b   7.67661300
_cell_length_c   8.13079800
_cell_angle_alpha   90.00000000
_cell_angle_beta   90.00000000
_cell_angle_gamma   90.00000000
_symmetry_Int_Tables_number   1
_chemical_formula_structural   Na5LaO4
_chemical_formula_sum   'Na10 La2 O8'
_cell_volume   351.55139793
_cell_formula_units_Z   2
loop_
 _symmetry_equiv_pos_site_id
 _symmetry_equiv_pos_as_xyz
  1  'x, y, z'
loop_
 _atom_site_type_symbol
 _atom_site_label
 _atom_site_symmetry_multiplicity
 _atom_site_fract_x
 _atom_site_fract_y
 _atom_site_fract_z
 _atom_site_occupancy
  Na  Na0  1  0.25239500  0.75953100  0.80904000  1
  Na  Na1  1  0.25239500  0.24046900  0.80904000  1
  Na  Na2  1  0.78225800  0.50000000  0.00000000  1
  Na  Na3  1  0.25239500  0.24046900  0.19096000  1
  Na  Na4  1  0.25239500  0.75953100  0.19096000  1
  Na  Na5  1  0.74760500  0.25953100  0.30904000  1
  Na  Na6  1  0.74760500  0.74046900  0.30904000  1
  Na  Na7  1  0.21774200  0.00000000  0.50000000  1
  Na  Na8  1  0.74760500  0.25953100  0.69096000  1
  Na  Na9  1  0.74760500  0.74046900  0.69096000  1
  La  La0  1  0.77808600  0.00000000  0.00000000  1
  La  La1  1  0.22191400  0.50000000  0.50000000  1
  O  O0  1  0.99622100  0.00000000  0.75922500  1
  O  O1  1  0.55645600  0.24363500  0.00000000  1
  O  O2  1  0.55645600  0.75636500  0.00000000  1
  O  O3  1  0.99622100  0.00000000  0.24077500  1
  O  O4  1  0.00377900  0.50000000  0.25922500  1
  O  O5  1  0.44354400  0.25636500  0.50000000  1
  O  O6  1  0.44354400  0.74363500  0.50000000  1
  O  O7  1  0.00377900  0.50000000  0.74077500  1
loop_
_geom_bond_atom_site_label_1
_geom_bond_atom_site_label_2
_geom_bond_distance
_geom_bond_site_symmetry_2
Na0 O2 2.311755 1_556
Na0 O0 2.377717 1_465
Na0 O7 2.497639 1_555
Na0 O6 2.736393 1_555
Na1 O1 2.311755 1_556
Na1 O0 2.377717 1_455
Na1 O7 2.497639 1_555
Na1 O5 2.736393 1_555
Na2 O2 2.343186 1_555
Na2 O1 2.343186 1_555
Na2 O4 2.449309 1_655
Na2 O7 2.449309 1_654
Na3 O1 2.311755 1_555
Na3 O3 2.377717 1_455
Na3 O4 2.497639 1_555
Na3 O5 2.736393 1_555
Na4 O2 2.311755 1_555
Na4 O3 2.377717 1_465
Na4 O4 2.497639 1_555
Na4 O6 2.736393 1_555
Na5 O5 2.311755 1_555
Na5 O4 2.377717 1_655
Na5 O3 2.497639 1_555
Na5 O1 2.736393 1_555
Na6 O6 2.311755 1_555
Na6 O4 2.377717 1_655
Na6 O3 2.497639 1_565
Na6 O2 2.736393 1_555
Na7 O6 2.343186 1_545
Na7 O5 2.343186 1_555
Na7 O0 2.449309 1_455
Na7 O3 2.449309 1_455
Na8 O5 2.311755 1_555
Na8 O7 2.377717 1_655
Na8 O0 2.497639 1_555
Na8 O1 2.736393 1_556
Na9 O6 2.311755 1_555
Na9 O7 2.377717 1_655
Na9 O0 2.497639 1_565
Na9 O2 2.736393 1_556
La0 O1 2.248602 1_555
La0 O2 2.248602 1_545
La0 O0 2.311282 1_554
La0 O3 2.311282 1_555
La1 O5 2.248602 1_555
La1 O6 2.248602 1_555
La1 O7 2.311282 1_555
La1 O4 2.311282 1_555
