# generated using pymatgen
data_Fe3Co2P6WO24
_symmetry_space_group_name_H-M   'P 1'
_cell_length_a   8.56021674
_cell_length_b   8.56021674
_cell_length_c   8.56021657
_cell_angle_alpha   60.91069965
_cell_angle_beta   60.91069965
_cell_angle_gamma   60.91069623
_symmetry_Int_Tables_number   1
_chemical_formula_structural   Fe3Co2P6WO24
_chemical_formula_sum   'Fe3 Co2 P6 W1 O24'
_cell_volume   452.65074194
_cell_formula_units_Z   1
loop_
 _symmetry_equiv_pos_site_id
 _symmetry_equiv_pos_as_xyz
  1  'x, y, z'
loop_
 _atom_site_type_symbol
 _atom_site_label
 _atom_site_symmetry_multiplicity
 _atom_site_fract_x
 _atom_site_fract_y
 _atom_site_fract_z
 _atom_site_occupancy
  Fe  Fe0  1  0.64281500  0.64281500  0.64281500  1
  Fe  Fe1  1  0.85455200  0.85455200  0.85455200  1
  Fe  Fe2  1  0.35664000  0.35664000  0.35664000  1
  Co  Co0  1  0.99449600  0.99449600  0.99449600  1
  Co  Co1  1  0.49911500  0.49911500  0.49911500  1
  P  P0  1  0.95385100  0.25352400  0.54867300  1
  P  P1  1  0.54867300  0.95385100  0.25352400  1
  P  P2  1  0.25352400  0.54867300  0.95385100  1
  P  P3  1  0.74483200  0.46132800  0.04458800  1
  P  P4  1  0.46132800  0.04458800  0.74483200  1
  P  P5  1  0.04458800  0.74483200  0.46132800  1
  W  W0  1  0.14227100  0.14227100  0.14227100  1
  O  O0  1  0.50104000  0.11001800  0.32167400  1
  O  O1  1  0.32167400  0.50104000  0.11001800  1
  O  O2  1  0.11001800  0.32167400  0.50104000  1
  O  O3  1  0.94119400  0.09120000  0.74095900  1
  O  O4  1  0.00059600  0.17956700  0.38881300  1
  O  O5  1  0.75849400  0.40985900  0.55294200  1
  O  O6  1  0.74095900  0.94119400  0.09120000  1
  O  O7  1  0.55294200  0.75849400  0.40985900  1
  O  O8  1  0.81969100  0.61082200  0.00285500  1
  O  O9  1  0.40985900  0.55294200  0.75849400  1
  O  O10  1  0.90888000  0.25852800  0.06500800  1
  O  O11  1  0.61082200  0.00285500  0.81969100  1
  O  O12  1  0.38881300  0.00059600  0.17956700  1
  O  O13  1  0.09120000  0.74095900  0.94119400  1
  O  O14  1  0.59006800  0.44169800  0.24227900  1
  O  O15  1  0.17956700  0.38881300  0.00059600  1
  O  O16  1  0.44169800  0.24227900  0.59006800  1
  O  O17  1  0.25852800  0.06500800  0.90888000  1
  O  O18  1  0.24227900  0.59006800  0.44169800  1
  O  O19  1  0.00285500  0.81969100  0.61082200  1
  O  O20  1  0.06500800  0.90888000  0.25852800  1
  O  O21  1  0.88616800  0.68802800  0.49293200  1
  O  O22  1  0.68802800  0.49293200  0.88616800  1
  O  O23  1  0.49293200  0.88616800  0.68802800  1
loop_
_geom_bond_atom_site_label_1
_geom_bond_atom_site_label_2
_geom_bond_distance
_geom_bond_site_symmetry_2
Fe0 O23 1.959023 1_555
Fe0 O22 1.959023 1_555
Fe0 O21 1.959023 1_555
Fe0 O5 2.092846 1_555
Fe0 O7 2.092846 1_555
Fe0 O9 2.092846 1_555
Fe1 O11 1.927509 1_565
Fe1 O19 1.927509 1_655
Fe1 O8 1.927509 1_556
Fe1 O13 2.107991 1_655
Fe1 O6 2.107991 1_556
Fe1 O3 2.107991 1_565
Fe2 O0 1.947228 1_555
Fe2 O1 1.947228 1_555
Fe2 O2 1.947228 1_555
Fe2 O18 2.073847 1_555
Fe2 O16 2.073847 1_555
Fe2 O14 2.073847 1_555
Co0 O3 2.110091 1_565
Co0 O13 2.110091 1_655
Co0 O6 2.110091 1_556
Co0 O20 2.301207 1_656
Co0 O10 2.301207 1_566
Co0 O17 2.301207 1_665
Co1 O14 2.166953 1_555
Co1 O18 2.166953 1_555
Co1 O16 2.166953 1_555
Co1 O9 2.174607 1_555
Co1 O5 2.174607 1_555
Co1 O7 2.174607 1_555
O0 P1 1.513501 1_545
O1 P2 1.513501 1_554
O2 P0 1.513501 1_455
O3 P0 1.549494 1_555
O4 P0 1.580241 1_455
O4 W0 1.953640 1_555
O5 P0 1.549487 1_555
O6 P1 1.549494 1_555
O7 P1 1.549487 1_555
O8 P3 1.518599 1_555
O9 P2 1.549487 1_555
O10 P3 1.609190 1_555
O10 W0 2.032461 1_655
O11 P4 1.518599 1_555
O12 P1 1.580241 1_545
O12 W0 1.953640 1_555
O13 P2 1.549494 1_555
O14 P3 1.551509 1_555
O15 P2 1.580241 1_554
O15 W0 1.953640 1_555
O16 P4 1.551509 1_555
O17 P4 1.609190 1_555
O17 W0 2.032461 1_556
O18 P5 1.551509 1_555
O19 P5 1.518599 1_555
O20 P5 1.609190 1_555
O20 W0 2.032461 1_565
O21 P5 1.518289 1_655
O22 P3 1.518289 1_556
O23 P4 1.518289 1_565
