# generated using pymatgen
data_LiFePO4
_symmetry_space_group_name_H-M   'P 1'
_cell_length_a   4.94459929
_cell_length_b   7.28895102
_cell_length_c   9.93482744
_cell_angle_alpha   89.99529204
_cell_angle_beta   89.47886091
_cell_angle_gamma   89.99408773
_symmetry_Int_Tables_number   1
_chemical_formula_structural   LiFePO4
_chemical_formula_sum   'Li4 Fe4 P4 O16'
_cell_volume   358.04572577
_cell_formula_units_Z   4
loop_
 _symmetry_equiv_pos_site_id
 _symmetry_equiv_pos_as_xyz
  1  'x, y, z'
loop_
 _atom_site_type_symbol
 _atom_site_label
 _atom_site_symmetry_multiplicity
 _atom_site_fract_x
 _atom_site_fract_y
 _atom_site_fract_z
 _atom_site_occupancy
  Li  Li0  1  0.50011700  0.00058100  0.25002900  1
  Li  Li1  1  0.49977200  0.00072200  0.75002000  1
  Li  Li2  1  0.99993100  0.50042300  0.49994400  1
  Li  Li3  1  0.00009300  0.50056100  0.00000500  1
  Fe  Fe0  1  0.99998400  0.99998800  0.50022200  1
  Fe  Fe1  1  0.50029800  0.50066800  0.24984000  1
  Fe  Fe2  1  0.00010900  0.00032500  0.00013300  1
  Fe  Fe3  1  0.49993500  0.50065000  0.74990500  1
  P  P0  1  0.49993900  0.24977400  0.49987500  1
  P  P1  1  0.50016500  0.24965200  0.00001600  1
  P  P2  1  0.99968800  0.74972800  0.75003600  1
  P  P3  1  0.00018100  0.74981100  0.25004800  1
  O  O0  1  0.31772700  0.12815100  0.09235200  1
  O  O1  1  0.31755300  0.12804800  0.59205300  1
  O  O2  1  0.81790500  0.62808900  0.34225900  1
  O  O3  1  0.81760200  0.62819500  0.84249100  1
  O  O4  1  0.31712700  0.37168600  0.40967900  1
  O  O5  1  0.31709600  0.37154800  0.90990200  1
  O  O6  1  0.81602400  0.87138100  0.66001100  1
  O  O7  1  0.81698200  0.87153600  0.15988400  1
  O  O8  1  0.68232500  0.12778500  0.40790700  1
  O  O9  1  0.68239200  0.12804800  0.90766500  1
  O  O10  1  0.18206600  0.62835200  0.65756900  1
  O  O11  1  0.18236400  0.62820000  0.15771600  1
  O  O12  1  0.68279800  0.37156800  0.59014700  1
  O  O13  1  0.68345700  0.37140700  0.09011600  1
  O  O14  1  0.18298400  0.87156100  0.84002400  1
  O  O15  1  0.18339000  0.87155900  0.34015200  1
loop_
_geom_bond_atom_site_label_1
_geom_bond_atom_site_label_2
_geom_bond_distance
_geom_bond_site_symmetry_2
Li0 O15 2.028145 1_545
Li0 O7 2.028760 1_545
Li0 O0 2.038906 1_555
Li0 O8 2.039032 1_555
Li1 O6 2.026848 1_545
Li1 O14 2.028333 1_545
Li1 O9 2.038564 1_555
Li1 O1 2.039943 1_555
Li2 O12 2.029469 1_555
Li2 O4 2.029497 1_655
Li2 O2 2.038479 1_555
Li2 O10 2.039339 1_655
Li3 O13 2.028194 1_455
Li3 O5 2.028995 1_554
Li3 O3 2.038093 1_454
Li3 O11 2.039334 1_555
Fe0 O1 2.048367 1_665
Fe0 O6 2.049358 1_555
Fe0 O15 2.049757 1_655
Fe0 O8 2.049802 1_565
Fe1 O2 2.049045 1_555
Fe1 O11 2.049112 1_555
Fe1 O4 2.049293 1_555
Fe1 O13 2.049354 1_555
Fe2 O7 2.047879 1_445
Fe2 O0 2.049524 1_555
Fe2 O14 2.050032 1_544
Fe2 O9 2.050469 1_454
Fe3 O12 2.048379 1_555
Fe3 O5 2.050191 1_555
Fe3 O10 2.050382 1_555
Fe3 O3 2.050439 1_555
O0 P1 1.557100 1_555
O1 P0 1.556971 1_555
O2 P3 1.556833 1_655
O3 P2 1.556926 1_555
O4 P0 1.556959 1_555
O5 P1 1.557165 1_556
O6 P2 1.557371 1_555
O7 P3 1.557120 1_655
O8 P0 1.556829 1_555
O9 P1 1.556996 1_556
O10 P2 1.557153 1_455
O11 P3 1.556790 1_555
O12 P0 1.557234 1_555
O13 P1 1.557336 1_555
O14 P2 1.557026 1_455
O15 P3 1.557089 1_555
