# generated using pymatgen
data_Li4MnP2O9
_symmetry_space_group_name_H-M   'P 1'
_cell_length_a   14.60373914
_cell_length_b   14.20988987
_cell_length_c   6.75374398
_cell_angle_alpha   90.00000000
_cell_angle_beta   90.00000000
_cell_angle_gamma   90.00000000
_symmetry_Int_Tables_number   1
_chemical_formula_structural   Li4MnP2O9
_chemical_formula_sum   'Li32 Mn8 P16 O72'
_cell_volume   1401.52023433
_cell_formula_units_Z   8
loop_
 _symmetry_equiv_pos_site_id
 _symmetry_equiv_pos_as_xyz
  1  'x, y, z'
loop_
 _atom_site_type_symbol
 _atom_site_label
 _atom_site_symmetry_multiplicity
 _atom_site_fract_x
 _atom_site_fract_y
 _atom_site_fract_z
 _atom_site_occupancy
  Li  Li0  1  0.00447669  0.00288091  0.77785570  1
  Li  Li1  1  0.00447669  0.49711909  0.27785570  1
  Li  Li2  1  0.02693657  0.24720060  0.24550034  1
  Li  Li3  1  0.02693657  0.25279940  0.74550034  1
  Li  Li4  1  0.12778195  0.63238005  0.00029296  1
  Li  Li5  1  0.12778195  0.86761995  0.50029296  1
  Li  Li6  1  0.22611457  0.02815019  0.18281666  1
  Li  Li7  1  0.22611457  0.47184981  0.68281666  1
  Li  Li8  1  0.27388543  0.52815019  0.18281666  1
  Li  Li9  1  0.27388543  0.97184981  0.68281666  1
  Li  Li10  1  0.37221805  0.13238005  0.00029296  1
  Li  Li11  1  0.37221805  0.36761995  0.50029296  1
  Li  Li12  1  0.47306343  0.74720060  0.24550034  1
  Li  Li13  1  0.47306343  0.75279940  0.74550034  1
  Li  Li14  1  0.49552331  0.50288091  0.77785570  1
  Li  Li15  1  0.49552331  0.99711909  0.27785570  1
  Li  Li16  1  0.50447669  0.00288091  0.72214430  1
  Li  Li17  1  0.50447669  0.49711909  0.22214430  1
  Li  Li18  1  0.52693657  0.24720060  0.25449966  1
  Li  Li19  1  0.52693657  0.25279940  0.75449966  1
  Li  Li20  1  0.62778195  0.63238005  0.49970704  1
  Li  Li21  1  0.62778195  0.86761995  0.99970704  1
  Li  Li22  1  0.72611457  0.02815019  0.31718334  1
  Li  Li23  1  0.72611457  0.47184981  0.81718334  1
  Li  Li24  1  0.77388543  0.52815019  0.31718334  1
  Li  Li25  1  0.77388543  0.97184981  0.81718334  1
  Li  Li26  1  0.87221805  0.13238005  0.49970704  1
  Li  Li27  1  0.87221805  0.36761995  0.99970704  1
  Li  Li28  1  0.97306343  0.74720060  0.25449966  1
  Li  Li29  1  0.97306343  0.75279940  0.75449966  1
  Li  Li30  1  0.99552331  0.50288091  0.72214430  1
  Li  Li31  1  0.99552331  0.99711909  0.22214430  1
  Mn  Mn0  1  0.23457771  0.24846666  0.75165305  1
  Mn  Mn1  1  0.23457771  0.25153334  0.25165305  1
  Mn  Mn2  1  0.26542229  0.74846666  0.75165305  1
  Mn  Mn3  1  0.26542229  0.75153334  0.25165305  1
  Mn  Mn4  1  0.73457771  0.24846666  0.74834695  1
  Mn  Mn5  1  0.73457771  0.25153334  0.24834695  1
  Mn  Mn6  1  0.76542229  0.74846666  0.74834695  1
  Mn  Mn7  1  0.76542229  0.75153334  0.24834695  1
  P  P0  1  0.11416663  0.10403084  0.50059802  1
  P  P1  1  0.11416663  0.39596916  0.00059802  1
  P  P2  1  0.11737933  0.64032266  0.50280009  1
  P  P3  1  0.11737933  0.85967734  0.00280009  1
  P  P4  1  0.38262067  0.14032266  0.50280009  1
  P  P5  1  0.38262067  0.35967634  0.00280009  1
  P  P6  1  0.38583337  0.60403084  0.50059802  1
  P  P7  1  0.38583337  0.89596916  0.00059802  1
  P  P8  1  0.61416663  0.10403084  0.99940198  1
  P  P9  1  0.61416663  0.39596916  0.49940198  1
  P  P10  1  0.61737933  0.64032266  0.99719991  1
  P  P11  1  0.61737933  0.85967734  0.49719991  1
  P  P12  1  0.88262067  0.14032266  0.99719991  1
  P  P13  1  0.88262067  0.35967634  0.49719991  1
  P  P14  1  0.88583337  0.60403084  0.99940198  1
  P  P15  1  0.88583337  0.89596916  0.49940198  1
  O  O0  1  0.01030197  0.08917538  0.49769718  1
  O  O1  1  0.01030197  0.41082462  0.99769718  1
  O  O2  1  0.04237792  0.78422140  0.00517823  1
  O  O3  1  0.04237792  0.71577860  0.50517823  1
  O  O4  1  0.08312659  0.53820563  0.50770849  1
  O  O5  1  0.08312659  0.96179437  0.00770849  1
  O  O6  1  0.13317305  0.16497833  0.68907015  1
  O  O7  1  0.13317305  0.33502167  0.18907015  1
  O  O8  1  0.13697880  0.16055617  0.30657765  1
  O  O9  1  0.13697880  0.33944383  0.80657765  1
  O  O10  1  0.17093544  0.01245187  0.49868008  1
  O  O11  1  0.17093544  0.48754813  0.99868008  1
  O  O12  1  0.17632965  0.65037049  0.30845030  1
  O  O13  1  0.17632965  0.84962951  0.80845030  1
  O  O14  1  0.17913625  0.64883766  0.69275784  1
  O  O15  1  0.17913625  0.85116234  0.19275784  1
  O  O16  1  0.24427986  0.19955821  0.00299649  1
  O  O17  1  0.24427986  0.30044179  0.50299649  1
  O  O18  1  0.25572014  0.69955821  0.00299649  1
  O  O19  1  0.25572014  0.80044179  0.50299649  1
  O  O20  1  0.32086375  0.14883766  0.69275784  1
  O  O21  1  0.32086375  0.35116234  0.19275784  1
  O  O22  1  0.32367035  0.15037049  0.30845030  1
  O  O23  1  0.32367035  0.34962951  0.80845030  1
  O  O24  1  0.32906456  0.51245187  0.49868008  1
  O  O25  1  0.32906456  0.98754813  0.99868008  1
  O  O26  1  0.36302120  0.66055617  0.30657765  1
  O  O27  1  0.36302120  0.83944383  0.80657765  1
  O  O28  1  0.36682695  0.66497833  0.68907015  1
  O  O29  1  0.36682695  0.83502167  0.18907015  1
  O  O30  1  0.41687341  0.03820563  0.50770849  1
  O  O31  1  0.41687341  0.46179437  0.00770849  1
  O  O32  1  0.45762208  0.21577860  0.50517823  1
  O  O33  1  0.45762208  0.28422140  0.00517823  1
  O  O34  1  0.48969803  0.58917538  0.49769718  1
  O  O35  1  0.48969803  0.91082462  0.99769718  1
  O  O36  1  0.51030197  0.08917538  0.00230282  1
  O  O37  1  0.51030197  0.41082462  0.50230282  1
  O  O38  1  0.54237792  0.71577860  0.99482177  1
  O  O39  1  0.54237792  0.78422140  0.49482177  1
  O  O40  1  0.58312659  0.53820563  0.99229151  1
  O  O41  1  0.58312659  0.96179437  0.49229151  1
  O  O42  1  0.63317305  0.16497833  0.81092985  1
  O  O43  1  0.63317305  0.33502167  0.31092985  1
  O  O44  1  0.63697880  0.16055617  0.19342235  1
  O  O45  1  0.63697880  0.33944383  0.69342235  1
  O  O46  1  0.67093544  0.01245187  0.00131992  1
  O  O47  1  0.67093544  0.48754813  0.50131992  1
  O  O48  1  0.67632965  0.65037049  0.19154970  1
  O  O49  1  0.67632965  0.84962951  0.69154970  1
  O  O50  1  0.67913625  0.64883766  0.80724216  1
  O  O51  1  0.67913625  0.85116234  0.30724216  1
  O  O52  1  0.74427986  0.19955821  0.49700351  1
  O  O53  1  0.74427986  0.30044179  0.99700351  1
  O  O54  1  0.75572014  0.69955821  0.49700351  1
  O  O55  1  0.75572014  0.80044179  0.99700351  1
  O  O56  1  0.82086375  0.14883766  0.80724216  1
  O  O57  1  0.82086375  0.35116234  0.30724216  1
  O  O58  1  0.82367035  0.15037049  0.19154970  1
  O  O59  1  0.82367035  0.34962951  0.69154970  1
  O  O60  1  0.82906456  0.51245187  0.00131992  1
  O  O61  1  0.82906456  0.98754813  0.50131992  1
  O  O62  1  0.86302120  0.66055617  0.19342235  1
  O  O63  1  0.86302120  0.83944383  0.69342235  1
  O  O64  1  0.86682695  0.66497833  0.81092985  1
  O  O65  1  0.86682695  0.83502167  0.31092985  1
  O  O66  1  0.91687341  0.03820563  0.99229151  1
  O  O67  1  0.91687341  0.46179437  0.49229151  1
  O  O68  1  0.95762208  0.21577860  0.99482177  1
  O  O69  1  0.95762208  0.28422140  0.49482177  1
  O  O70  1  0.98969803  0.58917538  0.00230282  1
  O  O71  1  0.98969803  0.91082462  0.50230282  1
loop_
_geom_bond_atom_site_label_1
_geom_bond_atom_site_label_2
_geom_bond_distance
_geom_bond_site_symmetry_2
Li0 O66 1.996516 1_455
Li0 O5 2.017411 1_546
Li0 O0 2.256325 1_555
Li0 O71 2.284973 1_445
Li1 O67 1.996516 1_455
Li1 O4 2.017411 1_555
Li1 O1 2.256325 1_554
Li1 O70 2.284973 1_455
Li2 O68 2.022456 1_454
Li2 O7 2.027207 1_555
Li2 O69 2.033901 1_455
Li2 O8 2.066051 1_555
Li3 O69 2.022456 1_455
Li3 O6 2.027207 1_555
Li3 O68 2.033901 1_455
Li3 O9 2.066051 1_555
Li4 O18 2.098193 1_555
Li4 O70 2.107970 1_455
Li4 O11 2.152400 1_554
Li4 O12 2.213473 1_555
Li4 O14 2.220613 1_554
Li4 O2 2.492407 1_555
Li5 O19 2.098193 1_555
Li5 O71 2.107970 1_455
Li5 O10 2.152400 1_565
Li5 O13 2.213473 1_555
Li5 O15 2.220613 1_555
Li5 O3 2.492407 1_555
Li6 O25 2.034654 1_544
Li6 O10 2.291268 1_555
Li6 O22 2.401232 1_555
Li6 O8 2.435786 1_555
Li6 O5 2.578394 1_545
Li6 O15 2.607738 1_545
Li7 O24 2.034654 1_555
Li7 O11 2.291268 1_555
Li7 O23 2.401232 1_555
Li7 O9 2.435786 1_555
Li7 O4 2.578394 1_555
Li7 O14 2.607738 1_555
Li8 O11 2.034654 1_554
Li8 O24 2.291268 1_555
Li8 O12 2.401232 1_555
Li8 O26 2.435786 1_555
Li8 O31 2.578394 1_555
Li8 O21 2.607738 1_555
Li9 O10 2.034654 1_565
Li9 O25 2.291268 1_555
Li9 O13 2.401232 1_555
Li9 O27 2.435786 1_555
Li9 O30 2.578394 1_565
Li9 O20 2.607738 1_565
Li10 O16 2.098193 1_555
Li10 O36 2.107970 1_555
Li10 O25 2.152400 1_544
Li10 O22 2.213473 1_555
Li10 O20 2.220613 1_554
Li10 O33 2.492407 1_555
Li11 O17 2.098193 1_555
Li11 O37 2.107970 1_555
Li11 O24 2.152400 1_555
Li11 O23 2.213473 1_555
Li11 O21 2.220613 1_555
Li11 O32 2.492407 1_555
Li12 O38 2.022456 1_554
Li12 O29 2.027207 1_555
Li12 O39 2.033901 1_555
Li12 O26 2.066051 1_555
Li13 O39 2.022456 1_555
Li13 O28 2.027207 1_555
Li13 O38 2.033901 1_555
Li13 O27 2.066051 1_555
Li14 O40 1.996516 1_555
Li14 O31 2.017411 1_556
Li14 O34 2.256325 1_555
Li14 O37 2.284973 1_555
Li15 O41 1.996516 1_555
Li15 O30 2.017411 1_565
Li15 O35 2.256325 1_554
Li15 O36 2.284973 1_565
Li16 O30 1.996516 1_555
Li16 O41 2.017411 1_545
Li16 O36 2.256325 1_556
Li16 O35 2.284973 1_545
Li17 O31 1.996516 1_555
Li17 O40 2.017411 1_554
Li17 O37 2.256325 1_555
Li17 O34 2.284973 1_555
Li18 O32 2.022456 1_555
Li18 O43 2.027207 1_555
Li18 O33 2.033901 1_555
Li18 O44 2.066051 1_555
Li19 O33 2.022456 1_556
Li19 O42 2.027207 1_555
Li19 O32 2.033901 1_555
Li19 O45 2.066051 1_555
Li20 O54 2.098193 1_555
Li20 O34 2.107970 1_555
Li20 O47 2.152400 1_555
Li20 O48 2.213473 1_555
Li20 O50 2.220613 1_555
Li20 O39 2.492407 1_555
Li21 O55 2.098193 1_555
Li21 O35 2.107970 1_555
Li21 O46 2.152400 1_566
Li21 O49 2.213473 1_555
Li21 O51 2.220613 1_556
Li21 O38 2.492407 1_555
Li22 O61 2.034654 1_545
Li22 O46 2.291268 1_555
Li22 O58 2.401232 1_555
Li22 O44 2.435786 1_555
Li22 O41 2.578394 1_545
Li22 O51 2.607738 1_545
Li23 O60 2.034654 1_556
Li23 O47 2.291268 1_555
Li23 O59 2.401232 1_555
Li23 O45 2.435786 1_555
Li23 O40 2.578394 1_555
Li23 O50 2.607738 1_555
Li24 O47 2.034654 1_555
Li24 O60 2.291268 1_555
Li24 O48 2.401232 1_555
Li24 O62 2.435786 1_555
Li24 O67 2.578394 1_555
Li24 O57 2.607738 1_555
Li25 O46 2.034654 1_566
Li25 O61 2.291268 1_555
Li25 O49 2.401232 1_555
Li25 O63 2.435786 1_555
Li25 O66 2.578394 1_565
Li25 O56 2.607738 1_565
Li26 O52 2.098193 1_555
Li26 O0 2.107970 1_655
Li26 O61 2.152400 1_545
Li26 O58 2.213473 1_555
Li26 O56 2.220613 1_555
Li26 O69 2.492407 1_555
Li27 O53 2.098193 1_555
Li27 O1 2.107970 1_655
Li27 O60 2.152400 1_556
Li27 O59 2.213473 1_555
Li27 O57 2.220613 1_556
Li27 O68 2.492407 1_555
Li28 O3 2.022456 1_655
Li28 O65 2.027207 1_555
Li28 O2 2.033901 1_655
Li28 O62 2.066051 1_555
Li29 O2 2.022456 1_656
Li29 O64 2.027207 1_555
Li29 O3 2.033901 1_655
Li29 O63 2.066051 1_555
Li30 O4 1.996516 1_655
Li30 O67 2.017411 1_555
Li30 O70 2.256325 1_556
Li30 O1 2.284973 1_655
Li31 O5 1.996516 1_655
Li31 O66 2.017411 1_564
Li31 O71 2.256325 1_555
Li31 O0 2.284973 1_665
Mn0 O16 1.839732 1_556
Mn0 O17 1.840056 1_555
Mn0 O20 1.936574 1_555
Mn0 O6 1.943997 1_555
Mn0 O9 1.959688 1_555
Mn0 O23 1.976464 1_555
Mn1 O17 1.839732 1_555
Mn1 O16 1.840056 1_555
Mn1 O21 1.936574 1_555
Mn1 O7 1.943997 1_555
Mn1 O8 1.959688 1_555
Mn1 O22 1.976464 1_555
Mn2 O18 1.839732 1_556
Mn2 O19 1.840056 1_555
Mn2 O14 1.936574 1_555
Mn2 O28 1.943997 1_555
Mn2 O27 1.959688 1_555
Mn2 O13 1.976464 1_555
Mn3 O19 1.839732 1_555
Mn3 O18 1.840056 1_555
Mn3 O15 1.936574 1_555
Mn3 O29 1.943997 1_555
Mn3 O26 1.959688 1_555
Mn3 O12 1.976464 1_555
Mn4 O52 1.839732 1_555
Mn4 O53 1.840056 1_555
Mn4 O56 1.936574 1_555
Mn4 O42 1.943997 1_555
Mn4 O45 1.959688 1_555
Mn4 O59 1.976464 1_555
Mn5 O53 1.839732 1_554
Mn5 O52 1.840056 1_555
Mn5 O57 1.936574 1_555
Mn5 O43 1.943997 1_555
Mn5 O44 1.959688 1_555
Mn5 O58 1.976464 1_555
Mn6 O54 1.839732 1_555
Mn6 O55 1.840056 1_555
Mn6 O50 1.936574 1_555
Mn6 O64 1.943997 1_555
Mn6 O63 1.959688 1_555
Mn6 O49 1.976464 1_555
Mn7 O55 1.839732 1_554
Mn7 O54 1.840056 1_555
Mn7 O51 1.936574 1_555
Mn7 O65 1.943997 1_555
Mn7 O62 1.959688 1_555
Mn7 O48 1.976464 1_555
O0 P0 1.531556 1_555
O1 P1 1.531556 1_556
O2 P3 1.532840 1_555
O3 P2 1.532840 1_555
O4 P2 1.535228 1_555
O5 P3 1.535228 1_555
O6 P0 1.564402 1_555
O7 P1 1.564402 1_555
O8 P0 1.572640 1_555
O9 P1 1.572640 1_556
O10 P0 1.543024 1_555
O11 P1 1.543024 1_556
O12 P2 1.576203 1_555
O13 P3 1.576203 1_556
O14 P2 1.572873 1_555
O15 P3 1.572873 1_555
O20 P4 1.572873 1_555
O21 P5 1.572872 1_555
O22 P4 1.576203 1_555
O23 P5 1.576202 1_556
O24 P6 1.543024 1_555
O25 P7 1.543024 1_556
O26 P6 1.572640 1_555
O27 P7 1.572640 1_556
O28 P6 1.564402 1_555
O29 P7 1.564402 1_555
O30 P4 1.535228 1_555
O31 P5 1.535242 1_555
O32 P4 1.532840 1_555
O33 P5 1.532830 1_555
O34 P6 1.531556 1_555
O35 P7 1.531556 1_556
O36 P8 1.531556 1_554
O37 P9 1.531556 1_555
O38 P10 1.532840 1_555
O39 P11 1.532840 1_555
O40 P10 1.535228 1_555
O41 P11 1.535228 1_555
O42 P8 1.564402 1_555
O43 P9 1.564402 1_555
O44 P8 1.572640 1_554
O45 P9 1.572640 1_555
O46 P8 1.543024 1_554
O47 P9 1.543024 1_555
O48 P10 1.576203 1_554
O49 P11 1.576203 1_555
O50 P10 1.572873 1_555
O51 P11 1.572873 1_555
O56 P12 1.572873 1_555
O57 P13 1.572872 1_555
O58 P12 1.576203 1_554
O59 P13 1.576202 1_555
O60 P14 1.543024 1_554
O61 P15 1.543024 1_555
O62 P14 1.572640 1_554
O63 P15 1.572640 1_555
O64 P14 1.564402 1_555
O65 P15 1.564402 1_555
O66 P12 1.535228 1_555
O67 P13 1.535242 1_555
O68 P12 1.532840 1_555
O69 P13 1.532830 1_555
O70 P14 1.531556 1_554
O71 P15 1.531556 1_555
