# generated using pymatgen
data_EuVO3
_symmetry_space_group_name_H-M   'P 1'
_cell_length_a   3.84679323
_cell_length_b   3.85136277
_cell_length_c   3.84697464
_cell_angle_alpha   90.03596077
_cell_angle_beta   90.11370437
_cell_angle_gamma   90.03717961
_symmetry_Int_Tables_number   1
_chemical_formula_structural   EuVO3
_chemical_formula_sum   'Eu1 V1 O3'
_cell_volume   56.99431798
_cell_formula_units_Z   1
loop_
 _symmetry_equiv_pos_site_id
 _symmetry_equiv_pos_as_xyz
  1  'x, y, z'
loop_
 _atom_site_type_symbol
 _atom_site_label
 _atom_site_symmetry_multiplicity
 _atom_site_fract_x
 _atom_site_fract_y
 _atom_site_fract_z
 _atom_site_occupancy
  Eu  Eu0  1  0.99998406  0.99999645  0.00002554  1
  V  V0  1  0.50000122  0.50000003  0.49999836  1
  O  O0  1  0.00000278  0.50000094  0.49998909  1
  O  O1  1  0.50000378  0.00000092  0.49999255  1
  O  O2  1  0.50000716  0.50000266  0.99999447  1
loop_
_geom_bond_atom_site_label_1
_geom_bond_atom_site_label_2
_geom_bond_distance
_geom_bond_site_symmetry_2
Eu0 O1 2.717421 1_665
Eu0 O1 2.717493 1_564
Eu0 O2 2.720747 1_554
Eu0 O0 2.720832 1_665
Eu0 O2 2.720906 1_664
Eu0 O0 2.721006 1_654
Eu0 O0 2.722516 1_655
Eu0 O2 2.722547 1_564
Eu0 O2 2.722639 1_654
Eu0 O1 2.722712 1_565
Eu0 O0 2.722739 1_664
Eu0 O1 2.722999 1_664
O0 V0 1.923391 1_555
O0 V0 1.923403 1_455
O1 V0 1.925678 1_555
O1 V0 1.925685 1_545
O2 V0 1.923472 1_555
O2 V0 1.923502 1_556
