# generated using pymatgen
data_Li2MnVP2(HO5)2
_symmetry_space_group_name_H-M   'P 1'
_cell_length_a   5.43506900
_cell_length_b   10.10055942
_cell_length_c   10.35007093
_cell_angle_alpha   79.64855855
_cell_angle_beta   83.65622754
_cell_angle_gamma   79.30865163
_symmetry_Int_Tables_number   1
_chemical_formula_structural   Li2MnVP2(HO5)2
_chemical_formula_sum   'Li6 Mn3 V3 P6 H6 O30'
_cell_volume   547.48721072
_cell_formula_units_Z   3
loop_
 _symmetry_equiv_pos_site_id
 _symmetry_equiv_pos_as_xyz
  1  'x, y, z'
loop_
 _atom_site_type_symbol
 _atom_site_label
 _atom_site_symmetry_multiplicity
 _atom_site_fract_x
 _atom_site_fract_y
 _atom_site_fract_z
 _atom_site_occupancy
  Li  Li0  1  0.20681800  0.19174600  0.36254000  1
  Li  Li1  1  0.12706500  0.47476900  0.30066300  1
  Li  Li2  1  0.46382800  0.14367600  0.96655500  1
  Li  Li3  1  0.53617200  0.85632400  0.03344500  1
  Li  Li4  1  0.87293500  0.52523100  0.69933700  1
  Li  Li5  1  0.79318200  0.80825400  0.63746000  1
  Mn  Mn0  1  0.33259300  0.66632700  0.66521900  1
  Mn  Mn1  1  0.66740700  0.33367300  0.33478100  1
  Mn  Mn2  1  0.50000000  0.50000000  0.00000000  1
  V  V0  1  0.17130900  0.83107000  0.33348000  1
  V  V1  1  0.82869100  0.16893000  0.66652000  1
  V  V2  1  0.00000000  0.00000000  0.00000000  1
  P  P0  1  0.06580400  0.30462200  0.07011600  1
  P  P1  1  0.26904500  0.36433100  0.59533000  1
  P  P2  1  0.61202100  0.03137600  0.26193700  1
  P  P3  1  0.38797900  0.96862400  0.73806300  1
  P  P4  1  0.73095500  0.63566900  0.40467000  1
  P  P5  1  0.93419600  0.69537800  0.92988400  1
  H  H0  1  0.17340200  0.76495600  0.10545900  1
  H  H1  1  0.16534900  0.89790700  0.56275000  1
  H  H2  1  0.50068200  0.56298600  0.23204500  1
  H  H3  1  0.49931800  0.43701400  0.76795500  1
  H  H4  1  0.83465100  0.10209300  0.43725000  1
  H  H5  1  0.82659800  0.23504400  0.89454100  1
  O  O0  1  0.11749300  0.14760400  0.07335600  1
  O  O1  1  0.02127400  0.33659000  0.21175900  1
  O  O2  1  0.02285500  0.32163500  0.66736900  1
  O  O3  1  0.15962700  0.03518700  0.65627600  1
  O  O4  1  0.15660500  0.63101800  0.01496900  1
  O  O5  1  0.32016800  0.34822000  0.00089600  1
  O  O6  1  0.19382700  0.85361500  0.12893200  1
  O  O7  1  0.33522000  0.00049600  0.88228000  1
  O  O8  1  0.31311100  0.33014600  0.45450200  1
  O  O9  1  0.22479800  0.52225600  0.59015000  1
  O  O10  1  0.14023900  0.80982900  0.54031400  1
  O  O11  1  0.56351400  0.18849000  0.25766100  1
  O  O12  1  0.47700000  0.47428400  0.21036500  1
  O  O13  1  0.49908800  0.29948300  0.67760300  1
  O  O14  1  0.36477500  0.98626800  0.32894000  1
  O  O15  1  0.63522500  0.01373200  0.67106000  1
  O  O16  1  0.50091200  0.70051700  0.32239700  1
  O  O17  1  0.52300000  0.52571600  0.78963500  1
  O  O18  1  0.43648600  0.81151000  0.74233900  1
  O  O19  1  0.85976100  0.19017100  0.45968600  1
  O  O20  1  0.77520200  0.47774400  0.40985000  1
  O  O21  1  0.68688900  0.66985400  0.54549800  1
  O  O22  1  0.66478000  0.99950400  0.11772000  1
  O  O23  1  0.80617300  0.14638500  0.87106800  1
  O  O24  1  0.67983200  0.65178000  0.99910400  1
  O  O25  1  0.84339500  0.36898200  0.98503100  1
  O  O26  1  0.84037300  0.96481300  0.34372400  1
  O  O27  1  0.97714500  0.67836500  0.33263100  1
  O  O28  1  0.97872600  0.66341000  0.78824100  1
  O  O29  1  0.88250700  0.85239600  0.92664400  1
loop_
_geom_bond_atom_site_label_1
_geom_bond_atom_site_label_2
_geom_bond_distance
_geom_bond_site_symmetry_2
Li0 O8 2.023164 1_555
Li0 O19 2.038512 1_455
Li0 O11 2.112334 1_555
Li0 O1 2.138380 1_555
Li0 O14 2.167425 1_545
Li1 O1 2.000360 1_555
Li1 O12 2.023899 1_555
Li1 O20 2.109164 1_455
Li1 O27 2.136716 1_455
Li1 O8 2.159502 1_555
Li2 O23 2.010564 1_555
Li2 O0 2.072431 1_556
Li2 O7 2.074619 1_555
Li2 O5 2.146720 1_556
Li2 O22 2.174868 1_546
Li3 O6 2.010564 1_555
Li3 O29 2.072431 1_554
Li3 O22 2.074619 1_555
Li3 O24 2.146720 1_554
Li3 O7 2.174868 1_564
Li4 O28 2.000360 1_555
Li4 O17 2.023899 1_555
Li4 O9 2.109164 1_655
Li4 O2 2.136716 1_655
Li4 O21 2.159502 1_555
Li5 O21 2.023164 1_555
Li5 O10 2.038512 1_655
Li5 O18 2.112334 1_555
Li5 O28 2.138380 1_555
Li5 O15 2.167425 1_565
Mn0 O17 1.959130 1_555
Mn0 O9 1.971744 1_555
Mn0 O10 1.981966 1_555
Mn0 O18 1.983397 1_555
Mn0 O21 2.174169 1_555
Mn0 O28 2.188046 1_455
Mn1 O12 1.959130 1_555
Mn1 O20 1.971744 1_555
Mn1 O19 1.981966 1_555
Mn1 O11 1.983397 1_555
Mn1 O8 2.174169 1_555
Mn1 O1 2.188046 1_655
Mn2 O5 1.963296 1_555
Mn2 O24 1.963296 1_554
Mn2 O4 2.086144 1_555
Mn2 O25 2.086144 1_554
Mn2 O12 2.138307 1_555
Mn2 O17 2.138307 1_554
H0 O6 0.997149 1_555
H1 O10 0.995136 1_555
H2 O12 0.995512 1_555
H3 O17 0.995512 1_555
H4 O19 0.995136 1_555
H5 O23 0.997149 1_555
O0 P0 1.553384 1_555
O0 V2 2.018450 1_555
O1 P0 1.541021 1_555
O2 P1 1.552544 1_555
O2 V1 2.025733 1_455
O3 P3 1.557875 1_545
O3 V1 2.044282 1_455
O4 P5 1.548315 1_454
O5 P0 1.584958 1_555
O6 V2 2.024941 1_565
O6 V0 2.080557 1_555
O7 P3 1.567715 1_545
O7 V2 2.077175 1_556
O8 P1 1.540831 1_555
O9 P1 1.560428 1_555
O10 V0 2.103769 1_555
O11 P2 1.553044 1_555
O13 P1 1.564723 1_555
O13 V1 2.023277 1_555
O14 P2 1.549834 1_565
O14 V0 2.034548 1_555
O15 P3 1.549834 1_545
O15 V1 2.034548 1_555
O16 P4 1.564723 1_555
O16 V0 2.023277 1_555
O18 P3 1.553044 1_555
O19 V1 2.103769 1_555
O20 P4 1.560428 1_555
O21 P4 1.540831 1_555
O22 P2 1.567715 1_565
O22 V2 2.077175 1_665
O23 V2 2.024941 1_656
O23 V1 2.080557 1_555
O24 P5 1.584958 1_555
O25 P0 1.548315 1_656
O26 P2 1.557875 1_565
O26 V0 2.044282 1_655
O27 P4 1.552544 1_555
O27 V0 2.025733 1_655
O28 P5 1.541021 1_555
O29 P5 1.553384 1_555
O29 V2 2.018450 1_666
