# generated using pymatgen
data_TmClO
_symmetry_space_group_name_H-M   'P 1'
_cell_length_a   3.71448753
_cell_length_b   9.62005635
_cell_length_c   3.71448854
_cell_angle_alpha   101.13139478
_cell_angle_beta   60.00000907
_cell_angle_gamma   101.13139021
_symmetry_Int_Tables_number   1
_chemical_formula_structural   TmClO
_chemical_formula_sum   'Tm2 Cl2 O2'
_cell_volume   112.05661277
_cell_formula_units_Z   2
loop_
 _symmetry_equiv_pos_site_id
 _symmetry_equiv_pos_as_xyz
  1  'x, y, z'
loop_
 _atom_site_type_symbol
 _atom_site_label
 _atom_site_symmetry_multiplicity
 _atom_site_fract_x
 _atom_site_fract_y
 _atom_site_fract_z
 _atom_site_occupancy
  Tm  Tm0  1  0.28365848  0.85097543  0.28365848  1
  Tm  Tm1  1  0.71634152  0.14902457  0.71634152  1
  Cl  Cl0  1  0.11073150  0.33219551  0.11073150  1
  Cl  Cl1  1  0.88926850  0.66780449  0.88926850  1
  O  O0  1  0.36296254  0.08888761  0.36296254  1
  O  O1  1  0.63703746  0.91111239  0.63703746  1
loop_
_geom_bond_atom_site_label_1
_geom_bond_atom_site_label_2
_geom_bond_distance
_geom_bond_site_symmetry_2
Cl0 Tm1 2.747703 1_454
Cl0 Tm1 2.747705 1_554
Cl0 Tm1 2.747706 1_455
Cl1 Tm0 2.747703 1_656
Cl1 Tm0 2.747705 1_556
Cl1 Tm0 2.747706 1_655
O0 Tm1 2.217475 1_555
O0 Tm1 2.217475 1_455
O0 Tm1 2.217475 1_554
O0 Tm0 2.231134 1_545
O1 Tm0 2.217475 1_555
O1 Tm0 2.217475 1_655
O1 Tm0 2.217475 1_556
O1 Tm1 2.231134 1_565
