# generated using pymatgen
data_Li2MgCo13O28
_symmetry_space_group_name_H-M   'P 1'
_cell_length_a   7.55206000
_cell_length_b   8.23274278
_cell_length_c   8.70470532
_cell_angle_alpha   100.21294604
_cell_angle_beta   104.41000898
_cell_angle_gamma   105.29158759
_symmetry_Int_Tables_number   1
_chemical_formula_structural   Li2MgCo13O28
_chemical_formula_sum   'Li2 Mg1 Co13 O28'
_cell_volume   488.22915353
_cell_formula_units_Z   1
loop_
 _symmetry_equiv_pos_site_id
 _symmetry_equiv_pos_as_xyz
  1  'x, y, z'
loop_
 _atom_site_type_symbol
 _atom_site_label
 _atom_site_symmetry_multiplicity
 _atom_site_fract_x
 _atom_site_fract_y
 _atom_site_fract_z
 _atom_site_occupancy
  Li  Li0  1  0.50361400  0.00072200  0.49999800  1
  Li  Li1  1  0.35183500  0.56755900  0.92456300  1
  Mg  Mg0  1  0.50206400  0.50444600  0.50476100  1
  Co  Co0  1  0.71695300  0.14959600  0.86308400  1
  Co  Co1  1  0.35586900  0.06834100  0.92799100  1
  Co  Co2  1  0.00057500  0.00067300  0.00121700  1
  Co  Co3  1  0.06714500  0.20492600  0.77929800  1
  Co  Co4  1  0.42743200  0.28325800  0.71492200  1
  Co  Co5  1  0.78995600  0.36195100  0.64788000  1
  Co  Co6  1  0.13675900  0.42088100  0.56483200  1
  Co  Co7  1  0.86009800  0.57376700  0.42896400  1
  Co  Co8  1  0.20981300  0.63557100  0.35008600  1
  Co  Co9  1  0.57358700  0.71486100  0.28500600  1
  Co  Co10  1  0.92986500  0.78947600  0.21555600  1
  Co  Co11  1  0.64659900  0.93709300  0.07768100  1
  Co  Co12  1  0.28511200  0.85574700  0.14146900  1
  O  O0  1  0.91400300  0.00930600  0.18779600  1
  O  O1  1  0.98577200  0.21834000  0.97016700  1
  O  O2  1  0.44936300  0.06571300  0.74311800  1
  O  O3  1  0.79490000  0.13539400  0.67235300  1
  O  O4  1  0.62332300  0.15119800  0.04629000  1
  O  O5  1  0.26939700  0.07447900  0.11333400  1
  O  O6  1  0.33393100  0.28705200  0.89848300  1
  O  O7  1  0.69876100  0.36404900  0.83504100  1
  O  O8  1  0.52341800  0.26608700  0.53896100  1
  O  O9  1  0.15525700  0.20013500  0.59746700  1
  O  O10  1  0.87239000  0.35214500  0.45649900  1
  O  O11  1  0.06003600  0.42760500  0.75929000  1
  O  O12  1  0.78986900  0.57580300  0.62032900  1
  O  O13  1  0.39765700  0.49621800  0.69945700  1
  O  O14  1  0.60001800  0.50671600  0.30634600  1
  O  O15  1  0.21276700  0.42222900  0.37842400  1
  O  O16  1  0.94380600  0.57141200  0.23993600  1
  O  O17  1  0.12715900  0.64317200  0.53916700  1
  O  O18  1  0.84419000  0.79581400  0.39952500  1
  O  O19  1  0.47591100  0.73659900  0.46105600  1
  O  O20  1  0.30319200  0.63643000  0.15908300  1
  O  O21  1  0.65924000  0.71588600  0.09804300  1
  O  O22  1  0.73145700  0.92891300  0.89117200  1
  O  O23  1  0.37681400  0.84919900  0.95746700  1
  O  O24  1  0.20147200  0.86253400  0.32690800  1
  O  O25  1  0.55177700  0.93734000  0.26096000  1
  O  O26  1  0.01625400  0.78245900  0.02876900  1
  O  O27  1  0.08843800  0.98990400  0.81432500  1
loop_
_geom_bond_atom_site_label_1
_geom_bond_atom_site_label_2
_geom_bond_distance
_geom_bond_site_symmetry_2
Li0 O19 2.085737 1_545
Li0 O8 2.109475 1_555
Li0 O3 2.190965 1_555
Li0 O25 2.196794 1_545
Li0 O2 2.253543 1_555
Li0 O24 2.254498 1_545
Li1 O13 2.083473 1_555
Li1 O20 2.167145 1_556
Li1 O11 2.179103 1_555
Li1 O23 2.236234 1_555
Li1 O6 2.244324 1_555
Li1 O21 2.294995 1_556
Mg0 O12 2.027306 1_555
Mg0 O14 2.042225 1_555
Mg0 O13 2.043574 1_555
Mg0 O15 2.049637 1_555
Mg0 O19 2.063057 1_555
Mg0 O8 2.077410 1_555
Co0 O7 1.860017 1_555
Co0 O3 1.889589 1_555
Co0 O1 1.890941 1_555
Co0 O4 1.897924 1_556
Co0 O2 1.899756 1_555
Co0 O22 1.903102 1_545
Co1 O5 1.882770 1_556
Co1 O27 1.888357 1_545
Co1 O4 1.895881 1_556
Co1 O6 1.906760 1_555
Co1 O23 1.907944 1_545
Co1 O2 1.910494 1_555
Co2 O26 1.884093 1_545
Co2 O1 1.886580 1_454
Co2 O0 1.892703 1_455
Co2 O22 1.895852 1_444
Co2 O5 1.896347 1_555
Co2 O27 1.900506 1_544
Co3 O9 1.861579 1_555
Co3 O11 1.885348 1_555
Co3 O27 1.889352 1_545
Co3 O6 1.893461 1_555
Co3 O1 1.905047 1_455
Co3 O3 1.912876 1_455
Co4 O13 1.849089 1_555
Co4 O8 1.849706 1_555
Co4 O2 1.894052 1_555
Co4 O6 1.899525 1_555
Co4 O7 1.924208 1_555
Co4 O9 1.924215 1_555
Co5 O12 1.818639 1_555
Co5 O8 1.876280 1_555
Co5 O11 1.908131 1_655
Co5 O10 1.914252 1_555
Co5 O7 1.919272 1_555
Co5 O3 1.923375 1_555
Co6 O15 1.851795 1_555
Co6 O10 1.863701 1_455
Co6 O13 1.894354 1_555
Co6 O17 1.900318 1_555
Co6 O11 1.917254 1_555
Co6 O9 1.923589 1_555
Co7 O14 1.864818 1_555
Co7 O12 1.868395 1_555
Co7 O17 1.883946 1_655
Co7 O16 1.902718 1_555
Co7 O10 1.904840 1_555
Co7 O18 1.920554 1_555
Co8 O15 1.821488 1_555
Co8 O19 1.878993 1_555
Co8 O16 1.880435 1_455
Co8 O17 1.896825 1_555
Co8 O24 1.930159 1_555
Co8 O20 1.961324 1_555
Co9 O14 1.812631 1_555
Co9 O19 1.860005 1_555
Co9 O21 1.895539 1_555
Co9 O18 1.909528 1_555
Co9 O25 1.924491 1_555
Co9 O20 1.930755 1_555
Co10 O18 1.868077 1_555
Co10 O16 1.871571 1_555
Co10 O26 1.893979 1_655
Co10 O0 1.898199 1_565
Co10 O24 1.913538 1_655
Co10 O21 1.917555 1_555
Co11 O4 1.876939 1_565
Co11 O0 1.884574 1_565
Co11 O22 1.884896 1_554
Co11 O21 1.885425 1_555
Co11 O25 1.904289 1_555
Co11 O23 1.913752 1_554
Co12 O24 1.871319 1_555
Co12 O20 1.876183 1_555
Co12 O5 1.889833 1_565
Co12 O25 1.893383 1_555
Co12 O23 1.894482 1_554
Co12 O26 1.897791 1_555
