# generated using pymatgen
data_Mn4P2O9
_symmetry_space_group_name_H-M   'P 1'
_cell_length_a   11.70624100
_cell_length_b   6.77522000
_cell_length_c   9.65328072
_cell_angle_alpha   76.19244220
_cell_angle_beta   90.00000000
_cell_angle_gamma   90.00000000
_symmetry_Int_Tables_number   1
_chemical_formula_structural   Mn4P2O9
_chemical_formula_sum   'Mn16 P8 O36'
_cell_volume   743.50005973
_cell_formula_units_Z   4
loop_
 _symmetry_equiv_pos_site_id
 _symmetry_equiv_pos_as_xyz
  1  'x, y, z'
loop_
 _atom_site_type_symbol
 _atom_site_label
 _atom_site_symmetry_multiplicity
 _atom_site_fract_x
 _atom_site_fract_y
 _atom_site_fract_z
 _atom_site_occupancy
  Mn  Mn0  1  0.40009900  0.95714200  0.88104500  1
  Mn  Mn1  1  0.09990100  0.95714200  0.38104500  1
  Mn  Mn2  1  0.61925000  0.76381100  0.75264900  1
  Mn  Mn3  1  0.39666300  0.81455100  0.53373100  1
  Mn  Mn4  1  0.88075000  0.76381100  0.25264900  1
  Mn  Mn5  1  0.10333700  0.81455100  0.03373100  1
  Mn  Mn6  1  0.86813800  0.53161600  0.67954300  1
  Mn  Mn7  1  0.36813800  0.46838400  0.82045700  1
  Mn  Mn8  1  0.63186200  0.53161600  0.17954300  1
  Mn  Mn9  1  0.13186200  0.46838400  0.32045700  1
  Mn  Mn10  1  0.89666300  0.18544900  0.96626900  1
  Mn  Mn11  1  0.11925000  0.23618900  0.74735100  1
  Mn  Mn12  1  0.60333700  0.18544900  0.46626900  1
  Mn  Mn13  1  0.38075000  0.23618900  0.24735100  1
  Mn  Mn14  1  0.90009900  0.04285800  0.61895500  1
  Mn  Mn15  1  0.59990100  0.04285800  0.11895500  1
  P  P0  1  0.82858400  0.70548900  0.92543300  1
  P  P1  1  0.12982700  0.76082400  0.68470500  1
  P  P2  1  0.67141600  0.70548900  0.42543300  1
  P  P3  1  0.37017300  0.76082400  0.18470500  1
  P  P4  1  0.62982700  0.23917600  0.81529500  1
  P  P5  1  0.32858400  0.29451100  0.57456700  1
  P  P6  1  0.87017300  0.23917600  0.31529500  1
  P  P7  1  0.17141600  0.29451100  0.07456700  1
  O  O0  1  0.12012300  0.89190200  0.79641900  1
  O  O1  1  0.80879400  0.81916900  0.76417300  1
  O  O2  1  0.21279800  0.85999400  0.56015500  1
  O  O3  1  0.44187600  0.75283400  0.76524800  1
  O  O4  1  0.59748700  0.83478400  0.50646800  1
  O  O5  1  0.70476700  0.67352800  0.98381300  1
  O  O6  1  0.37987700  0.89190200  0.29641900  1
  O  O7  1  0.01010400  0.76947300  0.60626800  1
  O  O8  1  0.69120600  0.81916900  0.26417300  1
  O  O9  1  0.28720200  0.85999400  0.06015500  1
  O  O10  1  0.05812400  0.75283400  0.26524800  1
  O  O11  1  0.90251300  0.83478400  0.00646800  1
  O  O12  1  0.79523300  0.67352800  0.48381300  1
  O  O13  1  0.89051800  0.50823200  0.91828000  1
  O  O14  1  0.48989600  0.76947300  0.10626800  1
  O  O15  1  0.16896300  0.54366800  0.75596700  1
  O  O16  1  0.66896300  0.45633200  0.74403300  1
  O  O17  1  0.39051800  0.49176800  0.58172000  1
  O  O18  1  0.60948200  0.50823200  0.41828000  1
  O  O19  1  0.33103700  0.54366800  0.25596700  1
  O  O20  1  0.83103700  0.45633200  0.24403300  1
  O  O21  1  0.51010400  0.23052700  0.89373200  1
  O  O22  1  0.10948200  0.49176800  0.08172000  1
  O  O23  1  0.20476700  0.32647200  0.51618700  1
  O  O24  1  0.09748700  0.16521600  0.99353200  1
  O  O25  1  0.94187600  0.24716600  0.73475200  1
  O  O26  1  0.71279800  0.14000600  0.93984500  1
  O  O27  1  0.30879400  0.18083100  0.73582700  1
  O  O28  1  0.98989600  0.23052700  0.39373200  1
  O  O29  1  0.62012300  0.10809800  0.70358100  1
  O  O30  1  0.29523300  0.32647200  0.01618700  1
  O  O31  1  0.40251300  0.16521600  0.49353200  1
  O  O32  1  0.55812400  0.24716600  0.23475200  1
  O  O33  1  0.78720200  0.14000600  0.43984500  1
  O  O34  1  0.19120600  0.18083100  0.23582700  1
  O  O35  1  0.87987700  0.10809800  0.20358100  1
loop_
_geom_bond_atom_site_label_1
_geom_bond_atom_site_label_2
_geom_bond_distance
_geom_bond_site_symmetry_2
Mn0 O3 2.035526 1_555
Mn0 O27 2.095310 1_565
Mn0 O9 2.150833 1_556
Mn0 O21 2.283062 1_565
Mn0 O14 2.475695 1_556
Mn1 O10 2.035526 1_555
Mn1 O34 2.095310 1_565
Mn1 O2 2.150833 1_555
Mn1 O28 2.283062 1_465
Mn1 O7 2.475695 1_555
Mn2 O3 2.080233 1_555
Mn2 O16 2.183614 1_555
Mn2 O1 2.257487 1_555
Mn2 O29 2.266759 1_565
Mn2 O4 2.323405 1_555
Mn2 O5 2.388377 1_555
Mn3 O17 2.125758 1_555
Mn3 O2 2.197734 1_555
Mn3 O6 2.233417 1_555
Mn3 O3 2.236892 1_555
Mn3 O31 2.315122 1_565
Mn3 O4 2.365911 1_555
Mn4 O10 2.080233 1_655
Mn4 O20 2.183614 1_555
Mn4 O8 2.257487 1_555
Mn4 O35 2.266759 1_565
Mn4 O11 2.323405 1_555
Mn4 O12 2.388377 1_555
Mn5 O22 2.125758 1_555
Mn5 O9 2.197734 1_555
Mn5 O0 2.233417 1_554
Mn5 O10 2.236892 1_555
Mn5 O24 2.315122 1_564
Mn5 O11 2.365911 1_455
Mn6 O25 2.062286 1_555
Mn6 O12 2.087020 1_555
Mn6 O13 2.287054 1_555
Mn6 O7 2.305460 1_655
Mn6 O1 2.388589 1_555
Mn6 O16 2.435666 1_555
Mn7 O3 2.062286 1_555
Mn7 O30 2.087020 1_556
Mn7 O17 2.287054 1_555
Mn7 O21 2.305460 1_555
Mn7 O27 2.388589 1_555
Mn7 O15 2.435666 1_555
Mn8 O32 2.062286 1_555
Mn8 O5 2.087020 1_554
Mn8 O18 2.287054 1_555
Mn8 O14 2.305460 1_555
Mn8 O8 2.388589 1_555
Mn8 O20 2.435666 1_555
Mn9 O10 2.062286 1_555
Mn9 O23 2.087020 1_555
Mn9 O22 2.287054 1_555
Mn9 O28 2.305460 1_455
Mn9 O34 2.388589 1_555
Mn9 O19 2.435666 1_555
Mn10 O13 2.125758 1_555
Mn10 O26 2.197734 1_555
Mn10 O35 2.233417 1_556
Mn10 O25 2.236892 1_555
Mn10 O11 2.315122 1_546
Mn10 O24 2.365911 1_655
Mn11 O25 2.080233 1_455
Mn11 O15 2.183614 1_555
Mn11 O27 2.257487 1_555
Mn11 O0 2.266759 1_545
Mn11 O24 2.323405 1_555
Mn11 O23 2.388377 1_555
Mn12 O18 2.125758 1_555
Mn12 O33 2.197734 1_555
Mn12 O29 2.233417 1_555
Mn12 O32 2.236892 1_555
Mn12 O4 2.315122 1_545
Mn12 O31 2.365911 1_555
Mn13 O32 2.080233 1_555
Mn13 O19 2.183614 1_555
Mn13 O34 2.257487 1_555
Mn13 O6 2.266759 1_545
Mn13 O31 2.323405 1_555
Mn13 O30 2.388377 1_555
Mn14 O25 2.035526 1_555
Mn14 O1 2.095310 1_545
Mn14 O33 2.150833 1_555
Mn14 O7 2.283062 1_645
Mn14 O28 2.475695 1_555
Mn15 O32 2.035526 1_555
Mn15 O8 2.095310 1_545
Mn15 O26 2.150833 1_554
Mn15 O14 2.283062 1_545
Mn15 O21 2.475695 1_554
O0 P1 1.556179 1_555
O1 P0 1.580465 1_555
O2 P1 1.566779 1_555
O4 P2 1.566959 1_555
O5 P0 1.551480 1_555
O6 P3 1.556179 1_555
O7 P1 1.587384 1_555
O8 P2 1.580465 1_555
O9 P3 1.566779 1_555
O11 P0 1.566959 1_554
O12 P2 1.551480 1_555
O13 P0 1.536420 1_555
O14 P3 1.587384 1_555
O15 P1 1.537749 1_555
O16 P4 1.537749 1_555
O17 P5 1.536420 1_555
O18 P2 1.536420 1_555
O19 P3 1.537749 1_555
O20 P6 1.537749 1_555
O21 P4 1.587384 1_555
O22 P7 1.536420 1_555
O23 P5 1.551480 1_555
O24 P7 1.566959 1_556
O26 P4 1.566779 1_555
O27 P5 1.580465 1_555
O28 P6 1.587384 1_555
O29 P4 1.556179 1_555
O30 P7 1.551480 1_555
O31 P5 1.566959 1_555
O33 P6 1.566779 1_555
O34 P7 1.580465 1_555
O35 P6 1.556179 1_555
