# generated using pymatgen
data_NaLi5Mn2P2(CO7)2
_symmetry_space_group_name_H-M   'P 1'
_cell_length_a   6.70172200
_cell_length_b   8.63863815
_cell_length_c   10.00903714
_cell_angle_alpha   87.41027390
_cell_angle_beta   89.84086134
_cell_angle_gamma   89.12204796
_symmetry_Int_Tables_number   1
_chemical_formula_structural   NaLi5Mn2P2(CO7)2
_chemical_formula_sum   'Na2 Li10 Mn4 P4 C4 O28'
_cell_volume   578.79967833
_cell_formula_units_Z   2
loop_
 _symmetry_equiv_pos_site_id
 _symmetry_equiv_pos_as_xyz
  1  'x, y, z'
loop_
 _atom_site_type_symbol
 _atom_site_label
 _atom_site_symmetry_multiplicity
 _atom_site_fract_x
 _atom_site_fract_y
 _atom_site_fract_z
 _atom_site_occupancy
  Na  Na0  1  0.49853200  0.75236900  0.62405700  1
  Na  Na1  1  0.50146800  0.24763100  0.37594300  1
  Li  Li0  1  0.75852500  0.91477800  0.88066700  1
  Li  Li1  1  0.77861500  0.90871000  0.37547900  1
  Li  Li2  1  0.96626100  0.73163700  0.13326000  1
  Li  Li3  1  0.53352600  0.73316100  0.13484000  1
  Li  Li4  1  0.97237500  0.72684300  0.63619100  1
  Li  Li5  1  0.46647400  0.26683900  0.86516000  1
  Li  Li6  1  0.03373900  0.26836300  0.86674000  1
  Li  Li7  1  0.02762500  0.27315700  0.36380900  1
  Li  Li8  1  0.24147500  0.08522200  0.11933300  1
  Li  Li9  1  0.22138500  0.09129000  0.62452100  1
  Mn  Mn0  1  0.24305700  0.65066000  0.86803000  1
  Mn  Mn1  1  0.24866200  0.64637700  0.35670100  1
  Mn  Mn2  1  0.75694300  0.34934000  0.13197000  1
  Mn  Mn3  1  0.75133800  0.35362300  0.64329900  1
  P  P0  1  0.74768300  0.59342700  0.89769900  1
  P  P1  1  0.75922900  0.59036200  0.38982600  1
  P  P2  1  0.25231700  0.40657300  0.10230100  1
  P  P3  1  0.24077100  0.40963800  0.61017400  1
  C  C0  1  0.24926500  0.96386600  0.88658100  1
  C  C1  1  0.23695300  0.95831800  0.38792900  1
  C  C2  1  0.75073500  0.03613400  0.11341900  1
  C  C3  1  0.76304700  0.04168200  0.61207100  1
  O  O0  1  0.74528800  0.89085600  0.08339300  1
  O  O1  1  0.78141400  0.89956400  0.57533500  1
  O  O2  1  0.25167600  0.92393000  0.76338900  1
  O  O3  1  0.24606200  0.92488800  0.26363300  1
  O  O4  1  0.24016100  0.85908200  0.98390200  1
  O  O5  1  0.24618200  0.84721500  0.48076900  1
  O  O6  1  0.92497400  0.69166500  0.84213300  1
  O  O7  1  0.55844800  0.68612200  0.85301300  1
  O  O8  1  0.93154400  0.69436600  0.33393900  1
  O  O9  1  0.56630000  0.68025500  0.34421300  1
  O  O10  1  0.75773400  0.58242400  0.05434100  1
  O  O11  1  0.24887900  0.57617200  0.14971100  1
  O  O12  1  0.77057100  0.57764500  0.54592800  1
  O  O13  1  0.23027000  0.57624000  0.66140600  1
  O  O14  1  0.75112100  0.42382800  0.85028900  1
  O  O15  1  0.24226600  0.41757600  0.94565900  1
  O  O16  1  0.76973000  0.42376000  0.33859400  1
  O  O17  1  0.22942900  0.42235500  0.45407200  1
  O  O18  1  0.44155200  0.31387800  0.14698700  1
  O  O19  1  0.07502600  0.30833500  0.15786700  1
  O  O20  1  0.43370000  0.31974500  0.65578700  1
  O  O21  1  0.06845600  0.30563400  0.66606100  1
  O  O22  1  0.75983900  0.14091800  0.01609800  1
  O  O23  1  0.75381800  0.15278500  0.51923100  1
  O  O24  1  0.74832400  0.07607000  0.23661100  1
  O  O25  1  0.75393800  0.07511200  0.73636700  1
  O  O26  1  0.25471200  0.10914400  0.91660700  1
  O  O27  1  0.21858600  0.10043600  0.42466500  1
loop_
_geom_bond_atom_site_label_1
_geom_bond_atom_site_label_2
_geom_bond_distance
_geom_bond_site_symmetry_2
Na0 O5 2.335184 1_555
Na0 O1 2.336971 1_555
Na0 O7 2.370625 1_555
Na0 O13 2.390731 1_555
Na0 O12 2.495587 1_555
Na0 O2 2.641413 1_555
Na0 O9 2.929458 1_555
Na1 O23 2.335184 1_555
Na1 O27 2.336971 1_555
Na1 O18 2.370625 1_555
Na1 O16 2.390731 1_555
Na1 O17 2.495587 1_555
Na1 O24 2.641413 1_555
Na1 O20 2.929458 1_555
Li0 O25 1.955386 1_565
Li0 O0 2.032107 1_556
Li0 O6 2.259829 1_555
Li0 O22 2.427709 1_566
Li0 O7 2.430817 1_555
Li1 O24 1.968333 1_565
Li1 O1 1.998484 1_555
Li1 O8 2.158908 1_555
Li1 O9 2.482279 1_555
Li2 O8 2.033112 1_555
Li2 O0 2.052719 1_555
Li2 O10 2.095659 1_555
Li2 O11 2.306927 1_655
Li2 O4 2.591196 1_654
Li3 O0 2.031447 1_555
Li3 O9 2.135810 1_555
Li3 O10 2.151901 1_555
Li3 O11 2.357934 1_555
Li4 O1 2.024547 1_555
Li4 O6 2.094005 1_555
Li4 O12 2.114688 1_555
Li4 O13 2.155763 1_655
Li5 O26 2.031447 1_555
Li5 O20 2.135810 1_555
Li5 O15 2.151901 1_555
Li5 O14 2.357934 1_555
Li6 O21 2.033112 1_555
Li6 O26 2.052719 1_555
Li6 O15 2.095659 1_555
Li6 O14 2.306927 1_455
Li6 O22 2.591196 1_456
Li7 O27 2.024547 1_555
Li7 O19 2.094005 1_555
Li7 O17 2.114688 1_555
Li7 O16 2.155763 1_455
Li8 O3 1.955386 1_545
Li8 O26 2.032107 1_554
Li8 O19 2.259829 1_555
Li8 O4 2.427709 1_544
Li8 O18 2.430817 1_555
Li9 O2 1.968333 1_545
Li9 O27 1.998484 1_555
Li9 O21 2.158908 1_555
Li9 O20 2.482279 1_555
Mn0 O15 2.125315 1_555
Mn0 O7 2.144277 1_555
Mn0 O6 2.169898 1_455
Mn0 O4 2.185104 1_555
Mn0 O13 2.195572 1_555
Mn1 O17 2.132632 1_555
Mn1 O9 2.155699 1_555
Mn1 O8 2.169689 1_455
Mn1 O5 2.178567 1_555
Mn1 O11 2.184845 1_555
Mn1 O3 2.540262 1_555
Mn2 O10 2.125315 1_555
Mn2 O18 2.144277 1_555
Mn2 O19 2.169898 1_655
Mn2 O22 2.185104 1_555
Mn2 O16 2.195572 1_555
Mn3 O12 2.132632 1_555
Mn3 O20 2.155699 1_555
Mn3 O21 2.169689 1_655
Mn3 O23 2.178567 1_555
Mn3 O14 2.184845 1_555
Mn3 O25 2.540262 1_555
C0 O2 1.295304 1_555
C0 O4 1.301394 1_555
C0 O26 1.304698 1_565
C1 O3 1.290881 1_555
C1 O27 1.301354 1_565
C1 O5 1.306289 1_555
C2 O24 1.295304 1_555
C2 O22 1.301394 1_555
C2 O0 1.304698 1_545
C3 O25 1.290881 1_555
C3 O1 1.301354 1_545
C3 O23 1.306289 1_555
O6 P0 1.557498 1_555
O7 P0 1.545722 1_555
O8 P1 1.560926 1_555
O9 P1 1.556815 1_555
O10 P0 1.567994 1_554
O11 P2 1.560119 1_555
O12 P1 1.563307 1_555
O13 P3 1.550040 1_555
O14 P0 1.560119 1_555
O15 P2 1.567994 1_556
O16 P1 1.550040 1_555
O17 P3 1.563307 1_555
O18 P2 1.545722 1_555
O19 P2 1.557498 1_555
O20 P3 1.556815 1_555
O21 P3 1.560926 1_555
