# generated using pymatgen
data_Li5Co5(SnO6)2
_symmetry_space_group_name_H-M   'P 1'
_cell_length_a   5.27154350
_cell_length_b   5.27154350
_cell_length_c   10.05268098
_cell_angle_alpha   84.22104824
_cell_angle_beta   84.22104824
_cell_angle_gamma   120.81310073
_symmetry_Int_Tables_number   1
_chemical_formula_structural   Li5Co5(SnO6)2
_chemical_formula_sum   'Li5 Co5 Sn2 O12'
_cell_volume   234.88261426
_cell_formula_units_Z   1
loop_
 _symmetry_equiv_pos_site_id
 _symmetry_equiv_pos_as_xyz
  1  'x, y, z'
loop_
 _atom_site_type_symbol
 _atom_site_label
 _atom_site_symmetry_multiplicity
 _atom_site_fract_x
 _atom_site_fract_y
 _atom_site_fract_z
 _atom_site_occupancy
  Li  Li0  1  0.81197900  0.68217600  0.25078900  1
  Li  Li1  1  0.67006500  0.81265300  0.74332600  1
  Li  Li2  1  0.31782400  0.18802100  0.74921100  1
  Li  Li3  1  0.18734700  0.32993500  0.25667400  1
  Li  Li4  1  0.08578600  0.91421400  0.50000000  1
  Co  Co0  1  0.91585600  0.08414400  0.00000000  1
  Co  Co1  1  0.99951400  0.50345100  0.74663200  1
  Co  Co2  1  0.49654900  0.00048600  0.25336800  1
  Co  Co3  1  0.58243500  0.41756500  0.00000000  1
  Co  Co4  1  0.41872600  0.58127400  0.50000000  1
  Sn  Sn0  1  0.74924200  0.25075800  0.50000000  1
  Sn  Sn1  1  0.24899500  0.75100500  0.00000000  1
  O  O0  1  0.05453800  0.23822900  0.61678200  1
  O  O1  1  0.76177100  0.94546200  0.38321800  1
  O  O2  1  0.87139700  0.37350500  0.12359800  1
  O  O3  1  0.62649500  0.12860300  0.87640200  1
  O  O4  1  0.68709300  0.52775800  0.61533200  1
  O  O5  1  0.47224200  0.31290700  0.38466800  1
  O  O6  1  0.53594900  0.71341600  0.11870400  1
  O  O7  1  0.28658400  0.46405100  0.88129600  1
  O  O8  1  0.38332300  0.84506800  0.61353600  1
  O  O9  1  0.15493200  0.61667700  0.38646400  1
  O  O10  1  0.21237000  0.03101100  0.12420200  1
  O  O11  1  0.96898900  0.78763000  0.87579800  1
loop_
_geom_bond_atom_site_label_1
_geom_bond_atom_site_label_2
_geom_bond_distance
_geom_bond_site_symmetry_2
Li0 O5 2.055111 1_555
Li0 O1 2.108584 1_555
Li0 O10 2.113621 1_665
Li0 O6 2.120866 1_555
Li0 O2 2.289349 1_555
Li0 O9 2.507817 1_655
Li1 O4 2.103122 1_555
Li1 O7 2.122158 1_555
Li1 O8 2.152504 1_555
Li1 O11 2.207738 1_555
Li1 O0 2.237610 1_665
Li1 O3 2.322747 1_565
Li2 O4 2.055111 1_555
Li2 O0 2.108584 1_555
Li2 O11 2.113621 1_445
Li2 O7 2.120866 1_555
Li2 O3 2.289349 1_555
Li2 O8 2.507817 1_545
Li3 O5 2.103122 1_555
Li3 O6 2.122158 1_555
Li3 O9 2.152504 1_555
Li3 O10 2.207738 1_555
Li3 O1 2.237610 1_445
Li3 O2 2.322747 1_455
Li4 O4 2.135150 1_455
Li4 O5 2.135150 1_565
Li4 O8 2.181306 1_555
Li4 O9 2.181306 1_555
Li4 O0 2.230679 1_565
Li4 O1 2.230679 1_455
Co0 O6 2.072070 1_545
Co0 O7 2.072070 1_654
Co0 O2 2.148203 1_555
Co0 O3 2.148203 1_554
Co0 O10 2.202662 1_655
Co0 O11 2.202662 1_544
Co1 O8 2.088938 1_655
Co1 O0 2.109399 1_655
Co1 O3 2.111094 1_555
Co1 O11 2.133706 1_555
Co1 O7 2.200853 1_655
Co1 O4 2.256307 1_555
Co2 O9 2.088938 1_545
Co2 O1 2.109399 1_545
Co2 O2 2.111094 1_555
Co2 O10 2.133706 1_555
Co2 O6 2.200853 1_545
Co2 O5 2.256307 1_555
Co3 O10 2.107494 1_555
Co3 O11 2.107494 1_554
Co3 O3 2.145599 1_554
Co3 O2 2.145599 1_555
Co3 O6 2.150292 1_555
Co3 O7 2.150292 1_554
Co4 O8 1.952913 1_555
Co4 O9 1.952913 1_555
Co4 O1 1.973834 1_555
Co4 O0 1.973834 1_555
Co4 O5 2.024475 1_555
Co4 O4 2.024475 1_555
O0 Sn0 2.108660 1_455
O1 Sn0 2.108660 1_565
O2 Sn1 2.100474 1_655
O3 Sn1 2.100474 1_546
O4 Sn0 2.082863 1_555
O5 Sn0 2.082863 1_555
O6 Sn1 2.091511 1_555
O7 Sn1 2.091511 1_556
O8 Sn0 2.106185 1_565
O9 Sn0 2.106185 1_455
O10 Sn1 2.095114 1_545
O11 Sn1 2.095114 1_656
