# generated using pymatgen
data_Li3V2(O2F)2
_symmetry_space_group_name_H-M   'P 1'
_cell_length_a   5.13182000
_cell_length_b   5.13729789
_cell_length_c   15.12146696
_cell_angle_alpha   80.53896912
_cell_angle_beta   81.10528486
_cell_angle_gamma   60.43959529
_symmetry_Int_Tables_number   1
_chemical_formula_structural   Li3V2(O2F)2
_chemical_formula_sum   'Li9 V6 O12 F6'
_cell_volume   340.79172354
_cell_formula_units_Z   3
loop_
 _symmetry_equiv_pos_site_id
 _symmetry_equiv_pos_as_xyz
  1  'x, y, z'
loop_
 _atom_site_type_symbol
 _atom_site_label
 _atom_site_symmetry_multiplicity
 _atom_site_fract_x
 _atom_site_fract_y
 _atom_site_fract_z
 _atom_site_occupancy
  Li  Li0  1  0.45660800  0.28734600  0.64044300  1
  Li  Li1  1  0.84209300  0.34254900  0.50019000  1
  Li  Li2  1  0.87680100  0.04786900  0.35941100  1
  Li  Li3  1  0.15790700  0.65745100  0.49981000  1
  Li  Li4  1  0.33426300  0.83380500  0.00007800  1
  Li  Li5  1  0.12319900  0.95213100  0.64058900  1
  Li  Li6  1  0.66573700  0.16619500  0.99992200  1
  Li  Li7  1  0.50000000  0.00000000  0.50000000  1
  Li  Li8  1  0.54339200  0.71265400  0.35955700  1
  V  V0  1  0.61098600  0.44368700  0.16872900  1
  V  V1  1  0.05158900  0.22866200  0.83280100  1
  V  V2  1  0.27373500  0.11644400  0.16731800  1
  V  V3  1  0.38901400  0.55631300  0.83127100  1
  V  V4  1  0.72626500  0.88355600  0.83268200  1
  V  V5  1  0.94841100  0.77133800  0.16719900  1
  O  O0  1  0.67566300  0.53415600  0.90650200  1
  O  O1  1  0.90272700  0.42130000  0.23594800  1
  O  O2  1  0.09727300  0.57870000  0.76405200  1
  O  O3  1  0.96192700  0.12791500  0.09424200  1
  O  O4  1  0.26395600  0.75666400  0.23486900  1
  O  O5  1  0.40181800  0.91435200  0.76525700  1
  O  O6  1  0.37901600  0.19023100  0.90553200  1
  O  O7  1  0.32433700  0.46584400  0.09349800  1
  O  O8  1  0.59818200  0.08564800  0.23474300  1
  O  O9  1  0.73604400  0.24333600  0.76513100  1
  O  O10  1  0.62098400  0.80976900  0.09446800  1
  O  O11  1  0.03807300  0.87208500  0.90575800  1
  F  F0  1  0.54983100  0.35834200  0.42077900  1
  F  F1  1  0.80624200  0.99760600  0.57965800  1
  F  F2  1  0.19375800  0.00239400  0.42034200  1
  F  F3  1  0.16312100  0.28624800  0.57676200  1
  F  F4  1  0.45016900  0.64165800  0.57922100  1
  F  F5  1  0.83687900  0.71375200  0.42323800  1
loop_
_geom_bond_atom_site_label_1
_geom_bond_atom_site_label_2
_geom_bond_distance
_geom_bond_site_symmetry_2
Li0 O9 2.457349 1_555
Li0 O2 2.503010 1_555
Li0 O5 2.547846 1_545
Li2 O8 2.464822 1_555
Li2 O1 2.486182 1_555
Li2 O4 2.562921 1_645
Li4 O10 2.151682 1_555
Li4 O11 2.160212 1_554
Li4 O0 2.174822 1_554
Li4 O7 2.183200 1_555
Li4 O6 2.214112 1_564
Li4 O3 2.231313 1_465
Li5 O5 2.464822 1_555
Li5 O2 2.486182 1_555
Li5 O9 2.562921 1_465
Li6 O6 2.151682 1_555
Li6 O3 2.160212 1_556
Li6 O7 2.174822 1_556
Li6 O0 2.183200 1_555
Li6 O10 2.214112 1_546
Li6 O11 2.231313 1_645
Li8 O4 2.457349 1_555
Li8 O1 2.503010 1_555
Li8 O8 2.547846 1_565
O0 V3 1.944413 1_555
O0 V4 2.060817 1_555
O0 V1 2.085576 1_655
O1 V0 1.884188 1_555
O1 V5 2.023715 1_555
O1 V2 2.033710 1_655
O2 V3 1.884188 1_555
O2 V1 2.023715 1_555
O2 V4 2.033710 1_455
O3 V5 2.003713 1_545
O3 V2 2.053614 1_655
O3 V0 2.057786 1_555
O4 V0 1.977279 1_555
O4 V2 1.979169 1_565
O4 V5 2.010364 1_455
O5 V3 1.969604 1_555
O5 V1 1.997953 1_565
O5 V4 2.012163 1_555
O6 V4 2.016090 1_545
O6 V3 2.045397 1_555
O6 V1 2.060266 1_555
O7 V0 1.944413 1_555
O7 V2 2.060817 1_555
O7 V5 2.085576 1_455
O8 V0 1.969604 1_555
O8 V5 1.997953 1_545
O8 V2 2.012163 1_555
O9 V3 1.977279 1_555
O9 V4 1.979169 1_545
O9 V1 2.010364 1_655
O10 V2 2.016090 1_565
O10 V0 2.045397 1_555
O10 V5 2.060266 1_555
O11 V1 2.003713 1_565
O11 V4 2.053614 1_455
O11 V3 2.057786 1_555
F0 Li8 1.888762 1_555
F0 Li2 1.893425 1_555
F0 Li1 2.025558 1_555
F0 Li7 2.129357 1_555
F0 Li3 2.155373 1_555
F1 Li5 1.888639 1_655
F1 Li0 1.893258 1_565
F1 Li1 2.042393 1_565
F1 Li7 2.117168 1_565
F1 Li3 2.162543 1_655
F2 Li2 1.888639 1_455
F2 Li8 1.893258 1_545
F2 Li3 2.042393 1_545
F2 Li7 2.117168 1_555
F2 Li1 2.162543 1_455
F3 Li0 1.911641 1_555
F3 Li5 1.913355 1_545
F3 Li7 1.982622 1_555
F3 Li1 2.036688 1_455
F3 Li3 2.054530 1_555
F4 Li0 1.888762 1_555
F4 Li5 1.893425 1_555
F4 Li3 2.025558 1_555
F4 Li7 2.129357 1_565
F4 Li1 2.155373 1_555
F5 Li8 1.911641 1_555
F5 Li2 1.913355 1_565
F5 Li7 1.982622 1_565
F5 Li3 2.036688 1_655
F5 Li1 2.054530 1_555
