# generated using pymatgen
data_Li5FeS4
_symmetry_space_group_name_H-M   'P 1'
_cell_length_a   11.45711030
_cell_length_b   11.42616436
_cell_length_c   11.14985770
_cell_angle_alpha   90.00000000
_cell_angle_beta   90.00000000
_cell_angle_gamma   90.00000000
_symmetry_Int_Tables_number   1
_chemical_formula_structural   Li5FeS4
_chemical_formula_sum   'Li40 Fe8 S32'
_cell_volume   1459.63707436
_cell_formula_units_Z   8
loop_
 _symmetry_equiv_pos_site_id
 _symmetry_equiv_pos_as_xyz
  1  'x, y, z'
loop_
 _atom_site_type_symbol
 _atom_site_label
 _atom_site_symmetry_multiplicity
 _atom_site_fract_x
 _atom_site_fract_y
 _atom_site_fract_z
 _atom_site_occupancy
  Li  Li0  1  0.11380454  0.61683932  0.14283026  1
  Li  Li1  1  0.11380454  0.88316068  0.64283026  1
  Li  Li2  1  0.11598054  0.11532709  0.84888739  1
  Li  Li3  1  0.11598054  0.38467291  0.34888739  1
  Li  Li4  1  0.11839544  0.85385472  0.37222729  1
  Li  Li5  1  0.11839544  0.64614528  0.87222729  1
  Li  Li6  1  0.14149762  0.87869262  0.10420083  1
  Li  Li7  1  0.14149762  0.62130738  0.60420083  1
  Li  Li8  1  0.15003479  0.12353843  0.38918789  1
  Li  Li9  1  0.15003479  0.37646157  0.88918789  1
  Li  Li10  1  0.34996521  0.87646157  0.88918789  1
  Li  Li11  1  0.34996521  0.62353843  0.38918789  1
  Li  Li12  1  0.35850238  0.12130738  0.60420083  1
  Li  Li13  1  0.35850238  0.37869262  0.10420083  1
  Li  Li14  1  0.38160456  0.35385472  0.37222729  1
  Li  Li15  1  0.38160456  0.14614528  0.87222729  1
  Li  Li16  1  0.38401946  0.61532709  0.84888739  1
  Li  Li17  1  0.38401946  0.88467291  0.34888739  1
  Li  Li18  1  0.38619546  0.38316168  0.64283026  1
  Li  Li19  1  0.38619546  0.11683832  0.14283026  1
  Li  Li20  1  0.61380454  0.61683932  0.35716974  1
  Li  Li21  1  0.61380454  0.88316068  0.85716974  1
  Li  Li22  1  0.61598054  0.11532709  0.65111261  1
  Li  Li23  1  0.61598054  0.38467291  0.15111261  1
  Li  Li24  1  0.61839544  0.64614528  0.62777271  1
  Li  Li25  1  0.61839544  0.85385472  0.12777271  1
  Li  Li26  1  0.64149762  0.62130738  0.89579917  1
  Li  Li27  1  0.64149762  0.87869262  0.39579917  1
  Li  Li28  1  0.65003479  0.12353843  0.11081211  1
  Li  Li29  1  0.65003479  0.37646157  0.61081211  1
  Li  Li30  1  0.84996521  0.62353843  0.11081211  1
  Li  Li31  1  0.84996521  0.87646157  0.61081211  1
  Li  Li32  1  0.85850238  0.37869262  0.39579917  1
  Li  Li33  1  0.85850238  0.12130738  0.89579917  1
  Li  Li34  1  0.88160456  0.14614528  0.62777271  1
  Li  Li35  1  0.88160456  0.35385472  0.12777271  1
  Li  Li36  1  0.88401946  0.61532709  0.65111261  1
  Li  Li37  1  0.88401946  0.88467291  0.15111261  1
  Li  Li38  1  0.88619546  0.11683832  0.35716974  1
  Li  Li39  1  0.88619546  0.38316168  0.85716974  1
  Fe  Fe0  1  0.12521140  0.13935910  0.11797687  1
  Fe  Fe1  1  0.12521140  0.36064090  0.61797687  1
  Fe  Fe2  1  0.37478860  0.63935910  0.11797687  1
  Fe  Fe3  1  0.37478860  0.86064090  0.61797687  1
  Fe  Fe4  1  0.62521140  0.13935910  0.38202313  1
  Fe  Fe5  1  0.62521140  0.36064090  0.88202313  1
  Fe  Fe6  1  0.87478860  0.63935910  0.38202313  1
  Fe  Fe7  1  0.87478860  0.86064090  0.88202313  1
  S  S0  1  0.00857896  0.25422978  0.49224629  1
  S  S1  1  0.00857896  0.24577022  0.99224629  1
  S  S2  1  0.03092575  0.00986530  0.24286590  1
  S  S3  1  0.03092575  0.49013470  0.74286590  1
  S  S4  1  0.24748997  0.03009190  0.99963891  1
  S  S5  1  0.24748997  0.46990810  0.49963891  1
  S  S6  1  0.24435662  0.24956404  0.23743836  1
  S  S7  1  0.24435662  0.25043596  0.73743836  1
  S  S8  1  0.25564338  0.74956404  0.23743836  1
  S  S9  1  0.25564338  0.75043596  0.73743836  1
  S  S10  1  0.25251003  0.53009290  0.99963891  1
  S  S11  1  0.25251003  0.96990710  0.49963891  1
  S  S12  1  0.46907425  0.50986530  0.24286590  1
  S  S13  1  0.46907425  0.99013470  0.74286590  1
  S  S14  1  0.49142104  0.75422978  0.49224629  1
  S  S15  1  0.49142104  0.74577022  0.99224629  1
  S  S16  1  0.50857896  0.25422978  0.00775371  1
  S  S17  1  0.50857896  0.24577022  0.50775371  1
  S  S18  1  0.53092575  0.00986530  0.25713410  1
  S  S19  1  0.53092575  0.49013470  0.75713410  1
  S  S20  1  0.74748997  0.46990810  0.00036109  1
  S  S21  1  0.74748997  0.03009190  0.50036109  1
  S  S22  1  0.74435662  0.24956404  0.26256164  1
  S  S23  1  0.74435662  0.25043596  0.76256164  1
  S  S24  1  0.75564338  0.74956404  0.26256164  1
  S  S25  1  0.75564338  0.75043596  0.76256164  1
  S  S26  1  0.75251003  0.96990710  0.00036109  1
  S  S27  1  0.75251003  0.53009290  0.50036109  1
  S  S28  1  0.96907425  0.99013470  0.75713410  1
  S  S29  1  0.96907425  0.50986530  0.25713410  1
  S  S30  1  0.99142104  0.75422978  0.00775371  1
  S  S31  1  0.99142104  0.74577022  0.50775371  1
loop_
_geom_bond_atom_site_label_1
_geom_bond_atom_site_label_2
_geom_bond_distance
_geom_bond_site_symmetry_2
Li0 S29 2.422375 1_455
Li0 S8 2.460376 1_555
Li0 S10 2.461075 1_554
Li0 S30 2.588197 1_455
Li1 S28 2.422375 1_455
Li1 S9 2.460376 1_555
Li1 S11 2.461075 1_555
Li1 S31 2.588197 1_455
Li2 S28 2.434285 1_445
Li2 S4 2.458452 1_555
Li2 S7 2.467936 1_555
Li2 S1 2.508112 1_555
Li3 S29 2.434285 1_455
Li3 S5 2.458452 1_555
Li3 S6 2.467936 1_555
Li3 S0 2.508112 1_555
Li4 S31 2.434123 1_455
Li4 S11 2.477411 1_555
Li4 S8 2.480181 1_555
Li4 S2 2.502475 1_565
Li5 S30 2.434123 1_456
Li5 S10 2.477411 1_555
Li5 S9 2.480181 1_555
Li5 S3 2.502475 1_555
Li6 S4 2.413813 1_564
Li6 S8 2.468638 1_555
Li6 S30 2.476969 1_455
Li6 S2 2.498336 1_565
Li7 S5 2.413813 1_555
Li7 S9 2.468638 1_555
Li7 S31 2.476969 1_455
Li7 S3 2.498336 1_555
Li8 S11 2.444699 1_545
Li8 S6 2.470668 1_555
Li8 S0 2.485344 1_555
Li8 S2 2.492179 1_555
Li9 S10 2.444699 1_555
Li9 S7 2.470668 1_555
Li9 S1 2.485344 1_555
Li9 S3 2.492179 1_555
Li10 S4 2.444691 1_565
Li10 S9 2.470668 1_555
Li10 S15 2.485344 1_555
Li10 S13 2.492179 1_555
Li11 S5 2.444691 1_555
Li11 S8 2.470668 1_555
Li11 S14 2.485344 1_555
Li11 S12 2.492179 1_555
Li12 S11 2.413821 1_545
Li12 S7 2.468638 1_555
Li12 S17 2.476969 1_555
Li12 S13 2.498336 1_545
Li13 S10 2.413821 1_554
Li13 S6 2.468638 1_555
Li13 S16 2.476969 1_555
Li13 S12 2.498336 1_555
Li14 S17 2.434123 1_555
Li14 S5 2.477417 1_555
Li14 S6 2.480181 1_555
Li14 S12 2.502475 1_555
Li15 S16 2.434123 1_556
Li15 S4 2.477417 1_555
Li15 S7 2.480181 1_555
Li15 S13 2.502475 1_545
Li16 S19 2.434285 1_555
Li16 S10 2.458447 1_555
Li16 S9 2.467936 1_555
Li16 S15 2.508112 1_555
Li17 S18 2.434285 1_565
Li17 S11 2.458447 1_555
Li17 S8 2.467936 1_555
Li17 S14 2.508112 1_555
Li18 S19 2.422369 1_555
Li18 S7 2.460383 1_555
Li18 S5 2.461075 1_555
Li18 S17 2.588204 1_555
Li19 S18 2.422369 1_555
Li19 S6 2.460383 1_555
Li19 S4 2.461075 1_554
Li19 S16 2.588204 1_555
Li20 S12 2.422375 1_555
Li20 S24 2.460376 1_555
Li20 S27 2.461075 1_555
Li20 S14 2.588197 1_555
Li21 S13 2.422375 1_555
Li21 S25 2.460376 1_555
Li21 S26 2.461075 1_556
Li21 S15 2.588197 1_555
Li22 S13 2.434285 1_545
Li22 S21 2.458452 1_555
Li22 S23 2.467936 1_555
Li22 S17 2.508112 1_555
Li23 S12 2.434285 1_555
Li23 S20 2.458452 1_555
Li23 S22 2.467936 1_555
Li23 S16 2.508112 1_555
Li24 S14 2.434123 1_555
Li24 S27 2.477411 1_555
Li24 S25 2.480181 1_555
Li24 S19 2.502475 1_555
Li25 S15 2.434123 1_554
Li25 S26 2.477411 1_555
Li25 S24 2.480181 1_555
Li25 S18 2.502475 1_565
Li26 S20 2.413813 1_556
Li26 S25 2.468638 1_555
Li26 S15 2.476969 1_555
Li26 S19 2.498336 1_555
Li27 S21 2.413813 1_565
Li27 S24 2.468638 1_555
Li27 S14 2.476969 1_555
Li27 S18 2.498336 1_565
Li28 S26 2.444699 1_545
Li28 S22 2.470668 1_555
Li28 S16 2.485344 1_555
Li28 S18 2.492179 1_555
Li29 S27 2.444699 1_555
Li29 S23 2.470668 1_555
Li29 S17 2.485344 1_555
Li29 S19 2.492179 1_555
Li30 S20 2.444691 1_555
Li30 S24 2.470668 1_555
Li30 S30 2.485344 1_555
Li30 S29 2.492179 1_555
Li31 S21 2.444691 1_565
Li31 S25 2.470668 1_555
Li31 S31 2.485344 1_555
Li31 S28 2.492179 1_555
Li32 S27 2.413821 1_555
Li32 S22 2.468638 1_555
Li32 S0 2.476969 1_655
Li32 S29 2.498336 1_555
Li33 S26 2.413821 1_546
Li33 S23 2.468638 1_555
Li33 S1 2.476969 1_655
Li33 S28 2.498336 1_545
Li34 S0 2.434123 1_655
Li34 S21 2.477417 1_555
Li34 S23 2.480181 1_555
Li34 S28 2.502475 1_545
Li35 S1 2.434123 1_654
Li35 S20 2.477417 1_555
Li35 S22 2.480181 1_555
Li35 S29 2.502475 1_555
Li36 S3 2.434285 1_655
Li36 S27 2.458447 1_555
Li36 S25 2.467936 1_555
Li36 S31 2.508112 1_555
Li37 S2 2.434285 1_665
Li37 S26 2.458447 1_555
Li37 S24 2.467936 1_555
Li37 S30 2.508112 1_555
Li38 S2 2.422369 1_655
Li38 S22 2.460383 1_555
Li38 S21 2.461075 1_555
Li38 S0 2.588204 1_655
Li39 S3 2.422369 1_655
Li39 S23 2.460383 1_555
Li39 S20 2.461075 1_556
Li39 S1 2.588204 1_655
Fe0 S6 2.285430 1_555
Fe0 S1 2.286750 1_554
Fe0 S4 2.293993 1_554
Fe0 S2 2.301137 1_555
Fe1 S7 2.285430 1_555
Fe1 S0 2.286750 1_555
Fe1 S5 2.293993 1_555
Fe1 S3 2.301137 1_555
Fe2 S8 2.285430 1_555
Fe2 S15 2.286750 1_554
Fe2 S10 2.293987 1_554
Fe2 S12 2.301137 1_555
Fe3 S9 2.285430 1_555
Fe3 S14 2.286750 1_555
Fe3 S11 2.293987 1_555
Fe3 S13 2.301137 1_555
Fe4 S22 2.285430 1_555
Fe4 S17 2.286750 1_555
Fe4 S21 2.293993 1_555
Fe4 S18 2.301137 1_555
Fe5 S23 2.285430 1_555
Fe5 S16 2.286750 1_556
Fe5 S20 2.293993 1_556
Fe5 S19 2.301137 1_555
Fe6 S24 2.285430 1_555
Fe6 S31 2.286750 1_555
Fe6 S27 2.293987 1_555
Fe6 S29 2.301137 1_555
Fe7 S25 2.285430 1_555
Fe7 S30 2.286750 1_556
Fe7 S26 2.293987 1_556
Fe7 S28 2.301137 1_555
