# generated using pymatgen
data_MgPO4
_symmetry_space_group_name_H-M   'P 1'
_cell_length_a   10.24148194
_cell_length_b   10.24148194
_cell_length_c   8.92309696
_cell_angle_alpha   74.37759141
_cell_angle_beta   74.37759141
_cell_angle_gamma   45.95879933
_symmetry_Int_Tables_number   1
_chemical_formula_structural   MgPO4
_chemical_formula_sum   'Mg8 P8 O32'
_cell_volume   643.35523672
_cell_formula_units_Z   8
loop_
 _symmetry_equiv_pos_site_id
 _symmetry_equiv_pos_as_xyz
  1  'x, y, z'
loop_
 _atom_site_type_symbol
 _atom_site_label
 _atom_site_symmetry_multiplicity
 _atom_site_fract_x
 _atom_site_fract_y
 _atom_site_fract_z
 _atom_site_occupancy
  Mg  Mg0  1  0.54629300  0.45370700  0.25000000  1
  Mg  Mg1  1  0.45370700  0.54629300  0.75000000  1
  Mg  Mg2  1  0.00000000  0.50000000  0.00000000  1
  Mg  Mg3  1  0.50000000  0.00000000  0.50000000  1
  Mg  Mg4  1  0.57876400  0.79510000  0.05980600  1
  Mg  Mg5  1  0.20490000  0.42123600  0.44019400  1
  Mg  Mg6  1  0.42123600  0.20490000  0.94019400  1
  Mg  Mg7  1  0.79510000  0.57876400  0.55980600  1
  P  P0  1  0.23568900  0.14360000  0.26538300  1
  P  P1  1  0.85640000  0.76431100  0.23461700  1
  P  P2  1  0.76431100  0.85640000  0.73461700  1
  P  P3  1  0.14360000  0.23568900  0.76538300  1
  P  P4  1  0.41860200  0.77487000  0.41500100  1
  P  P5  1  0.22513000  0.58139800  0.08499900  1
  P  P6  1  0.58139800  0.22513000  0.58499900  1
  P  P7  1  0.77487000  0.41860200  0.91500100  1
  O  O0  1  0.23749700  0.98524900  0.37009700  1
  O  O1  1  0.01475100  0.76250300  0.12990300  1
  O  O2  1  0.76250300  0.01475100  0.62990300  1
  O  O3  1  0.98524900  0.23749700  0.87009700  1
  O  O4  1  0.28699500  0.19492100  0.37053600  1
  O  O5  1  0.80507900  0.71300500  0.12946400  1
  O  O6  1  0.71300500  0.80507900  0.62946400  1
  O  O7  1  0.19492100  0.28699500  0.87053600  1
  O  O8  1  0.04940800  0.30142300  0.20769300  1
  O  O9  1  0.69857700  0.95059200  0.29230700  1
  O  O10  1  0.95059200  0.69857700  0.79230700  1
  O  O11  1  0.30142300  0.04940800  0.70769300  1
  O  O12  1  0.38967800  0.04928200  0.12935400  1
  O  O13  1  0.95071800  0.61032200  0.37064600  1
  O  O14  1  0.61032200  0.95071800  0.87064600  1
  O  O15  1  0.04928200  0.38967800  0.62935400  1
  O  O16  1  0.50037000  0.67969500  0.26410000  1
  O  O17  1  0.32030500  0.49963000  0.23590000  1
  O  O18  1  0.49963000  0.32030500  0.73590000  1
  O  O19  1  0.67969500  0.50037000  0.76410000  1
  O  O20  1  0.55167200  0.77857200  0.45848100  1
  O  O21  1  0.22142800  0.44832800  0.04151900  1
  O  O22  1  0.44832800  0.22142800  0.54151900  1
  O  O23  1  0.77857200  0.55167200  0.95848100  1
  O  O24  1  0.36049500  0.69322100  0.55103400  1
  O  O25  1  0.30677900  0.63950500  0.94896600  1
  O  O26  1  0.63950500  0.30677900  0.44896600  1
  O  O27  1  0.69322100  0.36049500  0.05103400  1
  O  O28  1  0.36397400  0.86318000  0.96291200  1
  O  O29  1  0.13682000  0.63602600  0.53708800  1
  O  O30  1  0.63602600  0.13682000  0.03708800  1
  O  O31  1  0.86318000  0.36397400  0.46291200  1
loop_
_geom_bond_atom_site_label_1
_geom_bond_atom_site_label_2
_geom_bond_distance
_geom_bond_site_symmetry_2
Mg0 O26 1.950481 1_555
Mg0 O27 1.950481 1_555
Mg0 O16 2.050669 1_555
Mg0 O17 2.050669 1_555
Mg1 O25 1.950481 1_555
Mg1 O24 1.950481 1_555
Mg1 O18 2.050669 1_555
Mg1 O19 2.050669 1_555
Mg2 O5 2.034454 1_455
Mg2 O7 2.034454 1_554
Mg2 O23 2.058728 1_454
Mg2 O21 2.058728 1_555
Mg2 O10 2.207030 1_454
Mg2 O8 2.207030 1_555
Mg3 O4 2.034454 1_555
Mg3 O6 2.034454 1_545
Mg3 O20 2.058728 1_545
Mg3 O22 2.058728 1_555
Mg3 O9 2.207030 1_545
Mg3 O11 2.207030 1_555
Mg4 O12 2.031195 1_565
Mg4 O5 2.061666 1_555
Mg4 O23 2.084412 1_554
Mg4 O14 2.113528 1_554
Mg4 O28 2.154030 1_554
Mg4 O16 2.176066 1_555
Mg5 O13 2.031195 1_455
Mg5 O4 2.061666 1_555
Mg5 O22 2.084412 1_555
Mg5 O15 2.113528 1_555
Mg5 O29 2.154030 1_555
Mg5 O17 2.176066 1_555
Mg6 O14 2.031195 1_545
Mg6 O7 2.061666 1_555
Mg6 O21 2.084412 1_556
Mg6 O12 2.113528 1_556
Mg6 O30 2.154030 1_556
Mg6 O18 2.176066 1_555
Mg7 O15 2.031195 1_655
Mg7 O6 2.061666 1_555
Mg7 O20 2.084412 1_555
Mg7 O13 2.113528 1_555
Mg7 O31 2.154030 1_555
Mg7 O19 2.176066 1_555
O0 P4 1.619282 1_555
O0 P0 1.629384 1_565
O1 P5 1.619282 1_555
O1 P1 1.629384 1_455
O2 P6 1.619282 1_555
O2 P2 1.629384 1_545
O3 P7 1.619282 1_555
O3 P3 1.629384 1_655
O4 P0 1.532281 1_555
O5 P1 1.532281 1_555
O6 P2 1.532281 1_555
O7 P3 1.532281 1_555
O8 P0 1.520093 1_555
O9 P1 1.520093 1_555
O10 P2 1.520093 1_555
O11 P3 1.520093 1_555
O12 P0 1.541425 1_555
O13 P1 1.541425 1_555
O14 P2 1.541425 1_555
O15 P3 1.541425 1_555
O16 P4 1.558570 1_555
O17 P5 1.558570 1_555
O18 P6 1.558570 1_555
O19 P7 1.558570 1_555
O20 P4 1.540721 1_555
O21 P5 1.540721 1_555
O22 P6 1.540721 1_555
O23 P7 1.540721 1_555
O24 P4 1.510935 1_555
O25 P5 1.510935 1_556
O26 P6 1.510935 1_555
O27 P7 1.510935 1_554
