# generated using pymatgen
data_MnPH6NO5
_symmetry_space_group_name_H-M   'P 1'
_cell_length_a   4.89491601
_cell_length_b   5.77897000
_cell_length_c   18.05511104
_cell_angle_alpha   89.99995479
_cell_angle_beta   90.00727164
_cell_angle_gamma   89.99988199
_symmetry_Int_Tables_number   1
_chemical_formula_structural   MnPH6NO5
_chemical_formula_sum   'Mn4 P4 H24 N4 O20'
_cell_volume   510.73526326
_cell_formula_units_Z   4
loop_
 _symmetry_equiv_pos_site_id
 _symmetry_equiv_pos_as_xyz
  1  'x, y, z'
loop_
 _atom_site_type_symbol
 _atom_site_label
 _atom_site_symmetry_multiplicity
 _atom_site_fract_x
 _atom_site_fract_y
 _atom_site_fract_z
 _atom_site_occupancy
  Mn  Mn0  1  0.52776500  0.50000600  0.51234600  1
  Mn  Mn1  1  0.02741800  0.99999900  0.98756700  1
  Mn  Mn2  1  0.52712600  0.49999600  0.01254500  1
  Mn  Mn3  1  0.02721400  0.99999800  0.48736800  1
  P  P0  1  0.09645500  0.49999900  0.40056700  1
  P  P1  1  0.09601000  0.49999700  0.90059500  1
  P  P2  1  0.59623900  0.00000000  0.09939400  1
  P  P3  1  0.59614100  0.00000100  0.59941700  1
  H  H0  1  0.81947500  0.50000000  0.27160000  1
  H  H1  1  0.81949900  0.50000100  0.77161400  1
  H  H2  1  0.31946100  0.00000000  0.22842200  1
  H  H3  1  0.31947800  0.00000000  0.72841700  1
  H  H4  1  0.46377800  0.50000000  0.27314200  1
  H  H5  1  0.46378400  0.50000100  0.77315000  1
  H  H6  1  0.96377000  0.00000000  0.22687100  1
  H  H7  1  0.96376900  0.00000100  0.72686800  1
  H  H8  1  0.63698200  0.64762700  0.20685000  1
  H  H9  1  0.63691500  0.64762800  0.70685900  1
  H  H10  1  0.63698300  0.35237300  0.20685100  1
  H  H11  1  0.63691600  0.35237200  0.70685900  1
  H  H12  1  0.13699600  0.85237000  0.29316700  1
  H  H13  1  0.13695700  0.85237000  0.79316300  1
  H  H14  1  0.13699500  0.14763000  0.29316700  1
  H  H15  1  0.13695700  0.14763000  0.79316300  1
  H  H16  1  0.07910600  0.63524500  0.09704400  1
  H  H17  1  0.07975200  0.63529500  0.59702400  1
  H  H18  1  0.07911000  0.36475500  0.09704400  1
  H  H19  1  0.07975600  0.36470600  0.59702400  1
  H  H20  1  0.57913200  0.86475800  0.40297200  1
  H  H21  1  0.57940800  0.86472700  0.90298300  1
  H  H22  1  0.57913100  0.13524200  0.40297300  1
  H  H23  1  0.57940800  0.13527200  0.90298300  1
  N  N0  1  0.63976900  0.50000000  0.23933900  1
  N  N1  1  0.63971400  0.50000000  0.73934900  1
  N  N2  1  0.13974700  0.00000000  0.26068200  1
  N  N3  1  0.13973300  0.00000000  0.76067600  1
  O  O0  1  0.79029300  0.50000100  0.41788800  1
  O  O1  1  0.78989300  0.49999900  0.91799700  1
  O  O2  1  0.29011300  0.99999900  0.08202900  1
  O  O3  1  0.28997800  0.99999900  0.58203800  1
  O  O4  1  0.14128000  0.49999800  0.31520600  1
  O  O5  1  0.14051300  0.50000300  0.81521900  1
  O  O6  1  0.64089100  0.00000200  0.18476700  1
  O  O7  1  0.64062700  0.00000200  0.68479900  1
  O  O8  1  0.20053400  0.50000100  0.10324200  1
  O  O9  1  0.20114900  0.50000100  0.60312300  1
  O  O10  1  0.70057900  0.00000000  0.39679800  1
  O  O11  1  0.70080600  0.00000000  0.89683300  1
  O  O12  1  0.24250200  0.71577500  0.43636800  1
  O  O13  1  0.24218700  0.71581000  0.93635300  1
  O  O14  1  0.24250200  0.28422300  0.43636700  1
  O  O15  1  0.24217900  0.28418200  0.93635500  1
  O  O16  1  0.74226300  0.78418500  0.06362400  1
  O  O17  1  0.74230300  0.78419900  0.56365800  1
  O  O18  1  0.74226400  0.21581400  0.06362300  1
  O  O19  1  0.74229800  0.21580300  0.56365800  1
loop_
_geom_bond_atom_site_label_1
_geom_bond_atom_site_label_2
_geom_bond_distance
_geom_bond_site_symmetry_2
Mn0 O0 2.135527 1_555
Mn0 O17 2.158276 1_555
Mn0 O19 2.158304 1_555
Mn0 O9 2.289755 1_555
Mn0 O12 2.320752 1_555
Mn0 O14 2.320811 1_555
Mn1 O2 2.135816 1_556
Mn1 O15 2.158103 1_565
Mn1 O13 2.158161 1_555
Mn1 O11 2.288895 1_465
Mn1 O18 2.321618 1_466
Mn1 O16 2.321630 1_456
Mn2 O1 2.137529 1_554
Mn2 O18 2.157845 1_555
Mn2 O16 2.157886 1_555
Mn2 O8 2.288639 1_555
Mn2 O13 2.322225 1_554
Mn2 O15 2.322231 1_554
Mn3 O3 2.139019 1_555
Mn3 O12 2.157898 1_555
Mn3 O14 2.157916 1_565
Mn3 O10 2.286855 1_465
Mn3 O17 2.323358 1_455
Mn3 O19 2.323389 1_465
H0 N0 1.054953 1_555
H1 N1 1.055315 1_555
H2 N2 1.055098 1_555
H3 N3 1.055215 1_555
H4 N0 1.055810 1_555
H5 N1 1.055546 1_555
H6 N2 1.055712 1_655
H7 N3 1.055628 1_655
H8 N0 1.035427 1_555
H9 N1 1.035442 1_555
H10 N0 1.035417 1_555
H11 N1 1.035443 1_555
H12 N2 1.035400 1_565
H13 N3 1.035422 1_565
H14 N2 1.035400 1_555
H15 N3 1.035422 1_555
H16 O8 0.988253 1_555
H17 O9 0.988190 1_555
H18 O8 0.988253 1_555
H19 O9 0.988185 1_555
H20 O10 0.988270 1_565
H21 O11 0.988219 1_565
H22 O10 0.988273 1_555
H23 O11 0.988212 1_555
O0 P0 1.530959 1_655
O1 P1 1.531043 1_655
O2 P2 1.530871 1_565
O3 P3 1.531100 1_565
O4 P0 1.556770 1_555
O5 P1 1.556817 1_555
O6 P2 1.556810 1_555
O7 P3 1.556858 1_555
O12 P0 1.575973 1_555
O13 P1 1.576113 1_555
O14 P0 1.575962 1_555
O15 P1 1.576116 1_555
O16 P2 1.575943 1_565
O17 P3 1.576108 1_565
O18 P2 1.575949 1_555
O19 P3 1.576099 1_555
