# generated using pymatgen
data_Li9FeCo12(PO4)12
_symmetry_space_group_name_H-M   'P 1'
_cell_length_a   22.33550030
_cell_length_b   6.39136499
_cell_length_c   11.13888848
_cell_angle_alpha   93.21853719
_cell_angle_beta   39.91880767
_cell_angle_gamma   90.40407504
_symmetry_Int_Tables_number   1
_chemical_formula_structural   Li9FeCo12(PO4)12
_chemical_formula_sum   'Li9 Fe1 Co12 P12 O48'
_cell_volume   1017.16547575
_cell_formula_units_Z   1
loop_
 _symmetry_equiv_pos_site_id
 _symmetry_equiv_pos_as_xyz
  1  'x, y, z'
loop_
 _atom_site_type_symbol
 _atom_site_label
 _atom_site_symmetry_multiplicity
 _atom_site_fract_x
 _atom_site_fract_y
 _atom_site_fract_z
 _atom_site_occupancy
  Li  Li0  1  0.02367607  0.50002486  0.44583300  1
  Li  Li1  1  0.30851853  0.04459582  0.10487434  1
  Li  Li2  1  0.26816632  0.50792815  0.14060524  1
  Li  Li3  1  0.28317748  0.99763832  0.61025056  1
  Li  Li4  1  0.30965693  0.49997514  0.55416700  1
  Li  Li5  1  0.66666700  0.00000000  0.00000000  1
  Li  Li6  1  0.02481447  0.95540418  0.89512566  1
  Li  Li7  1  0.06516668  0.49207185  0.85939476  1
  Li  Li8  1  0.05015552  0.00236168  0.38974944  1
  Fe  Fe0  1  0.66666700  0.50000000  0.50000000  1
  Co  Co0  1  0.16045615  0.69435940  0.04436646  1
  Co  Co1  1  0.47301594  0.28482968  0.80726503  1
  Co  Co2  1  0.86031706  0.71517032  0.19273497  1
  Co  Co3  1  0.26694346  0.74412711  0.37348886  1
  Co  Co4  1  0.17287685  0.30564060  0.95563354  1
  Co  Co5  1  0.42972144  0.82227111  0.23472851  1
  Co  Co6  1  0.40189274  0.50759107  0.66814998  1
  Co  Co7  1  0.47115642  0.01261710  0.57002960  1
  Co  Co8  1  0.86217658  0.98738290  0.42997040  1
  Co  Co9  1  0.93144026  0.49240893  0.33185002  1
  Co  Co10  1  0.90361256  0.17772889  0.76527149  1
  Co  Co11  1  0.06639054  0.25587289  0.62651114  1
  P  P0  1  0.21646380  0.26603796  0.45093200  1
  P  P1  1  0.75657728  0.55508741  0.02255841  1
  P  P2  1  0.57675572  0.44491259  0.97744159  1
  P  P3  1  0.48335654  0.22260483  0.31213674  1
  P  P4  1  0.11687020  0.73396204  0.54906800  1
  P  P5  1  0.08270646  0.88794348  0.03777699  1
  P  P6  1  0.87648735  0.22992760  0.11071201  1
  P  P7  1  0.71452824  0.38170961  0.62736893  1
  P  P8  1  0.61880476  0.61829039  0.37263107  1
  P  P9  1  0.45684665  0.77007240  0.88928799  1
  P  P10  1  0.25062654  0.11205652  0.96222301  1
  P  P11  1  0.84997646  0.77739517  0.68786326  1
  O  O0  1  0.79782347  0.92794846  0.68530487  1
  O  O1  1  0.89700172  0.57498436  0.56009145  1
  O  O2  1  0.26472472  0.50960523  0.82368232  1
  O  O3  1  0.18610574  0.93870563  0.10523348  1
  O  O4  1  0.20155110  0.30119718  0.61049814  1
  O  O5  1  0.32857887  0.00916453  0.75893163  1
  O  O6  1  0.27478154  0.24464503  0.03811031  1
  O  O7  1  0.39877169  0.58726335  0.91896695  1
  O  O8  1  0.93456131  0.41273665  0.08103305  1
  O  O9  1  0.05855246  0.75535497  0.96188969  1
  O  O10  1  0.00475513  0.99083547  0.24106837  1
  O  O11  1  0.13178190  0.69880282  0.38950186  1
  O  O12  1  0.14722726  0.06129437  0.89476652  1
  O  O13  1  0.27006862  0.44130609  0.31029260  1
  O  O14  1  0.26114085  0.05026523  0.33634594  1
  O  O15  1  0.06860928  0.49039477  0.17631768  1
  O  O16  1  0.65606571  0.44229937  0.20936841  1
  O  O17  1  0.53550953  0.07205154  0.31469513  1
  O  O18  1  0.43633128  0.42501564  0.43990855  1
  O  O19  1  0.69558887  0.76705856  0.20828424  1
  O  O20  1  0.79552271  0.35440501  0.88907657  1
  O  O21  1  0.41577464  0.82513366  0.07947621  1
  O  O22  1  0.57190661  0.27024149  0.08874036  1
  O  O23  1  0.77250769  0.29165945  0.27168166  1
  O  O24  1  0.59402204  0.27241894  0.60502770  1
  O  O25  1  0.48249526  0.43616852  0.03556836  1
  O  O26  1  0.43231836  0.96871715  0.85131035  1
  O  O27  1  0.86817655  0.74490592  0.01631500  1
  O  O28  1  0.30398833  0.74938710  0.47737239  1
  O  O29  1  0.45919647  0.28742571  0.66209678  1
  O  O30  1  0.51720047  0.70939504  0.50557987  1
  O  O31  1  0.40927464  0.11213603  0.34876957  1
  O  O32  1  0.92405836  0.88786397  0.65123043  1
  O  O33  1  0.81613353  0.29060496  0.49442013  1
  O  O34  1  0.87413753  0.71257429  0.33790322  1
  O  O35  1  0.02934567  0.25061290  0.52262761  1
  O  O36  1  0.46515745  0.25509408  0.98368500  1
  O  O37  1  0.90101464  0.03128285  0.14868965  1
  O  O38  1  0.85083774  0.56383148  0.96443164  1
  O  O39  1  0.73931096  0.72758106  0.39497230  1
  O  O40  1  0.56082631  0.70834055  0.72831834  1
  O  O41  1  0.76142639  0.72975851  0.91125964  1
  O  O42  1  0.91755836  0.17486634  0.92052379  1
  O  O43  1  0.53781029  0.64559499  0.11092343  1
  O  O44  1  0.63774413  0.23294144  0.79171576  1
  O  O45  1  0.67726729  0.55770063  0.79063159  1
  O  O46  1  0.07219215  0.94973477  0.66365406  1
  O  O47  1  0.06326438  0.55869391  0.68970740  1
loop_
_geom_bond_atom_site_label_1
_geom_bond_atom_site_label_2
_geom_bond_distance
_geom_bond_site_symmetry_2
Li0 O35 1.900257 1_555
Li0 O1 2.069207 1_455
Li0 O15 2.319955 1_555
Li0 O11 2.358034 1_555
Li1 O14 1.890463 1_555
Li1 O6 1.932768 1_555
Li1 O26 1.934925 1_544
Li2 O6 1.919871 1_555
Li2 O7 1.983564 1_554
Li2 O13 1.992365 1_555
Li2 O11 2.274247 1_555
Li3 O28 1.901496 1_555
Li3 O12 2.130987 1_565
Li3 O31 2.139737 1_565
Li3 O5 2.517518 1_565
Li4 O28 1.900248 1_555
Li4 O18 2.069207 1_555
Li4 O2 2.319968 1_555
Li4 O4 2.358034 1_555
Li5 O41 2.256251 1_544
Li5 O22 2.256265 1_555
Li5 O0 2.273251 1_544
Li5 O17 2.273254 1_555
Li6 O46 1.890463 1_555
Li6 O9 1.932784 1_555
Li6 O37 1.934925 1_466
Li7 O9 1.919879 1_555
Li7 O8 1.983564 1_456
Li7 O47 1.992365 1_555
Li7 O4 2.274247 1_555
Li8 O35 1.901504 1_555
Li8 O3 2.130987 1_545
Li8 O32 2.139737 1_445
Li8 O10 2.517498 1_545
Fe0 O39 1.833886 1_555
Fe0 O24 1.833895 1_555
Fe0 O23 2.066778 1_555
Fe0 O40 2.066778 1_555
Co0 O15 1.902765 1_555
Co0 O3 1.921222 1_555
Co0 O2 1.947361 1_554
Co0 P5 2.188136 1_555
Co1 O24 1.740560 1_555
Co1 O36 1.854998 1_555
Co1 O29 1.865198 1_555
Co1 O26 2.133140 1_545
Co1 O7 2.155137 1_555
Co2 O39 1.740560 1_555
Co2 O27 1.854982 1_555
Co2 O34 1.865216 1_555
Co2 O37 2.133140 1_565
Co2 O8 2.155137 1_555
Co3 O28 1.867781 1_555
Co3 O13 2.004963 1_555
Co3 O14 2.047716 1_565
Co3 P4 2.240607 1_555
Co3 O21 2.347511 1_555
Co4 O2 1.902775 1_555
Co4 O12 1.921222 1_555
Co4 O15 1.947355 1_556
Co4 P10 2.188136 1_555
Co5 O43 1.939596 1_555
Co5 O28 1.972006 1_555
Co5 O21 1.979378 1_555
Co5 O31 2.027871 1_565
Co6 O29 1.872211 1_555
Co6 O18 2.046742 1_555
Co6 O2 2.060186 1_555
Co6 O30 2.153454 1_555
Co7 O29 1.895298 1_555
Co7 O30 2.016997 1_545
Co7 O17 2.035278 1_555
Co7 O5 2.072464 1_555
Co7 O26 2.564008 1_545
Co8 O34 1.895292 1_555
Co8 O33 2.016991 1_565
Co8 O0 2.035278 1_555
Co8 O10 2.072481 1_655
Co8 O37 2.564008 1_565
Co9 O34 1.872197 1_555
Co9 O1 2.046742 1_555
Co9 O15 2.060205 1_655
Co9 O33 2.153442 1_555
Co10 O20 1.939611 1_555
Co10 O35 1.972006 1_655
Co10 O42 1.979360 1_555
Co10 O32 2.027877 1_545
Co11 O35 1.867781 1_555
Co11 O47 2.004957 1_555
Co11 O46 2.047711 1_545
Co11 P0 2.240607 1_555
Co11 O42 2.347519 1_455
O0 P11 1.534091 1_555
O1 P11 1.523756 1_555
O3 P10 1.579955 1_564
O4 P0 1.539045 1_555
O5 P10 1.546901 1_555
O6 P10 1.528525 1_554
O7 P9 1.587837 1_555
O8 P6 1.587823 1_555
O9 P5 1.528508 1_556
O10 P5 1.546901 1_555
O11 P4 1.539060 1_555
O12 P5 1.579955 1_546
O13 P0 1.563192 1_555
O14 P0 1.547520 1_555
O16 P8 1.651360 1_555
O16 P1 1.693968 1_555
O17 P3 1.534091 1_555
O18 P3 1.523756 1_555
O19 P8 1.597883 1_555
O19 P1 1.832892 1_555
O20 P1 1.558916 1_556
O21 P9 1.546993 1_554
O22 P3 1.650412 1_555
O22 P2 1.656128 1_554
O23 P6 1.519975 1_555
O25 O36 1.444020 1_554
O25 P2 1.663224 1_554
O26 P9 1.586386 1_555
O27 O38 1.444033 1_554
O30 P8 1.564920 1_555
O31 P3 1.543729 1_555
O32 P11 1.543729 1_555
O33 P7 1.564936 1_555
O37 P6 1.586374 1_555
O38 P1 1.663224 1_556
O40 P9 1.519975 1_555
O41 P11 1.650412 1_555
O41 P1 1.656128 1_556
O42 P6 1.547003 1_556
O43 P2 1.558916 1_554
O44 P7 1.597883 1_555
O44 P2 1.832892 1_555
O45 P7 1.651360 1_555
O45 P2 1.693968 1_555
O46 P4 1.547520 1_555
O47 P4 1.563192 1_555
