# generated using pymatgen
data_Li4Mn2Co3O10
_symmetry_space_group_name_H-M   'P 1'
_cell_length_a   6.49895900
_cell_length_b   7.60064285
_cell_length_c   7.70257511
_cell_angle_alpha   94.60790720
_cell_angle_beta   91.16608380
_cell_angle_gamma   114.75277132
_symmetry_Int_Tables_number   1
_chemical_formula_structural   Li4Mn2Co3O10
_chemical_formula_sum   'Li8 Mn4 Co6 O20'
_cell_volume   343.79129869
_cell_formula_units_Z   2
loop_
 _symmetry_equiv_pos_site_id
 _symmetry_equiv_pos_as_xyz
  1  'x, y, z'
loop_
 _atom_site_type_symbol
 _atom_site_label
 _atom_site_symmetry_multiplicity
 _atom_site_fract_x
 _atom_site_fract_y
 _atom_site_fract_z
 _atom_site_occupancy
  Li  Li0  1  0.19028600  0.79428900  0.69908700  1
  Li  Li1  1  0.09863500  0.40650100  0.60171000  1
  Li  Li2  1  0.74085600  0.49160000  0.75165800  1
  Li  Li3  1  0.25914400  0.50840000  0.24834200  1
  Li  Li4  1  0.90136500  0.59349900  0.39829000  1
  Li  Li5  1  0.80971400  0.20571100  0.30091300  1
  Li  Li6  1  0.58966500  0.41183200  0.08765200  1
  Li  Li7  1  0.41033500  0.58816800  0.91234800  1
  Mn  Mn0  1  0.45305800  0.30144000  0.45472200  1
  Mn  Mn1  1  0.54694200  0.69856000  0.54527800  1
  Mn  Mn2  1  0.96126600  0.30317300  0.94987800  1
  Mn  Mn3  1  0.03873400  0.69682700  0.05012200  1
  Co  Co0  1  0.64624600  0.10113500  0.65264700  1
  Co  Co1  1  0.35375400  0.89886500  0.34735300  1
  Co  Co2  1  0.00000000  0.00000000  0.50000000  1
  Co  Co3  1  0.50000000  0.00000000  0.00000000  1
  Co  Co4  1  0.14835300  0.10074400  0.15108600  1
  Co  Co5  1  0.85164700  0.89925600  0.84891400  1
  O  O0  1  0.65813400  0.94913800  0.44258300  1
  O  O1  1  0.25106800  0.66835300  0.47205400  1
  O  O2  1  0.74893200  0.33164700  0.52794600  1
  O  O3  1  0.86209100  0.76256000  0.62820000  1
  O  O4  1  0.34186600  0.05086200  0.55741700  1
  O  O5  1  0.43184900  0.46309600  0.65189900  1
  O  O6  1  0.35257300  0.76353400  0.12530600  1
  O  O7  1  0.94532800  0.14138900  0.73143100  1
  O  O8  1  0.05467200  0.85861100  0.26856900  1
  O  O9  1  0.92624100  0.45479900  0.15509300  1
  O  O10  1  0.56815100  0.53690400  0.34810100  1
  O  O11  1  0.45121200  0.14153400  0.23524500  1
  O  O12  1  0.54878800  0.85846600  0.76475500  1
  O  O13  1  0.13790900  0.23744000  0.37180000  1
  O  O14  1  0.07375900  0.54520100  0.84490700  1
  O  O15  1  0.15107900  0.93904400  0.94103300  1
  O  O16  1  0.64742700  0.23646600  0.87469400  1
  O  O17  1  0.74965300  0.66572400  0.96428800  1
  O  O18  1  0.25034700  0.33427600  0.03571200  1
  O  O19  1  0.84892100  0.06095600  0.05896700  1
loop_
_geom_bond_atom_site_label_1
_geom_bond_atom_site_label_2
_geom_bond_distance
_geom_bond_site_symmetry_2
Li0 O1 2.050890 1_555
Li0 O3 2.099133 1_455
Li0 O14 2.143602 1_555
Li0 O15 2.161738 1_555
Li0 O4 2.177411 1_565
Li0 O12 2.209719 1_555
Li1 O5 2.045289 1_555
Li1 O14 2.117613 1_555
Li1 O2 2.150445 1_455
Li1 O1 2.156014 1_555
Li1 O7 2.175816 1_455
Li1 O13 2.186278 1_555
Li2 O17 2.005429 1_555
Li2 O2 2.042201 1_555
Li2 O5 2.053399 1_555
Li2 O16 2.088043 1_555
Li2 O14 2.124694 1_655
Li2 O3 2.180101 1_555
Li3 O18 2.005429 1_555
Li3 O1 2.042201 1_555
Li3 O10 2.053399 1_555
Li3 O6 2.088043 1_555
Li3 O9 2.124694 1_455
Li3 O13 2.180101 1_555
Li4 O10 2.045289 1_555
Li4 O9 2.117613 1_555
Li4 O1 2.150445 1_655
Li4 O2 2.156014 1_555
Li4 O8 2.175816 1_655
Li4 O3 2.186278 1_555
Li5 O2 2.050890 1_555
Li5 O13 2.099133 1_655
Li5 O9 2.143602 1_555
Li5 O19 2.161738 1_555
Li5 O0 2.177411 1_545
Li5 O11 2.209719 1_555
Li6 O18 2.051376 1_555
Li6 O17 2.088666 1_554
Li6 O9 2.118840 1_555
Li6 O16 2.168172 1_554
Li6 O10 2.182681 1_555
Li6 O11 2.278521 1_555
Li7 O17 2.051376 1_555
Li7 O18 2.088666 1_556
Li7 O14 2.118840 1_555
Li7 O6 2.168172 1_556
Li7 O5 2.182681 1_555
Li7 O12 2.278521 1_555
Mn0 O10 1.891309 1_555
Mn0 O2 1.906206 1_555
Mn0 O5 1.919857 1_555
Mn0 O4 1.971810 1_555
Mn0 O13 1.975344 1_555
Mn0 O11 1.998016 1_555
Mn1 O5 1.891309 1_555
Mn1 O1 1.906206 1_555
Mn1 O10 1.919857 1_555
Mn1 O0 1.971810 1_555
Mn1 O3 1.975344 1_555
Mn1 O12 1.998016 1_555
Mn2 O18 1.890771 1_656
Mn2 O14 1.925895 1_655
Mn2 O19 1.943280 1_556
Mn2 O16 1.947120 1_555
Mn2 O9 1.954522 1_556
Mn2 O7 1.976807 1_555
Mn3 O17 1.890771 1_454
Mn3 O9 1.925895 1_455
Mn3 O15 1.943280 1_554
Mn3 O6 1.947120 1_555
Mn3 O14 1.954522 1_554
Mn3 O8 1.976807 1_555
Co0 O7 1.914178 1_555
Co0 O16 1.921852 1_555
Co0 O0 1.933430 1_545
Co0 O2 1.937772 1_555
Co0 O12 1.961805 1_545
Co0 O4 1.964709 1_555
Co1 O8 1.914178 1_555
Co1 O6 1.921852 1_555
Co1 O4 1.933430 1_565
Co1 O1 1.937772 1_555
Co1 O11 1.961805 1_565
Co1 O0 1.964709 1_555
Co2 O13 2.000794 1_555
Co2 O3 2.000794 1_445
Co2 O0 2.120048 1_445
Co2 O4 2.120048 1_555
Co2 O7 2.120509 1_455
Co2 O8 2.120509 1_545
Co3 O16 1.988506 1_554
Co3 O6 1.988506 1_545
Co3 O11 2.130002 1_555
Co3 O12 2.130002 1_544
Co3 O19 2.146521 1_555
Co3 O15 2.146521 1_544
Co4 O18 1.916216 1_555
Co4 O13 1.937590 1_555
Co4 O11 1.948124 1_555
Co4 O19 1.948931 1_455
Co4 O15 1.956649 1_544
Co4 O8 1.981974 1_545
Co5 O17 1.916216 1_555
Co5 O3 1.937590 1_555
Co5 O12 1.948124 1_555
Co5 O15 1.948931 1_655
Co5 O19 1.956649 1_566
Co5 O7 1.981974 1_565
