# generated using pymatgen
data_Li3MgNiO4
_symmetry_space_group_name_H-M   'P 1'
_cell_length_a   10.20167422
_cell_length_b   10.20167422
_cell_length_c   10.20167422
_cell_angle_alpha   119.14771304
_cell_angle_beta   119.14771304
_cell_angle_gamma   91.48265421
_symmetry_Int_Tables_number   1
_chemical_formula_structural   Li3MgNiO4
_chemical_formula_sum   'Li24 Mg8 Ni8 O32'
_cell_volume   760.15298753
_cell_formula_units_Z   8
loop_
 _symmetry_equiv_pos_site_id
 _symmetry_equiv_pos_as_xyz
  1  'x, y, z'
loop_
 _atom_site_type_symbol
 _atom_site_label
 _atom_site_symmetry_multiplicity
 _atom_site_fract_x
 _atom_site_fract_y
 _atom_site_fract_z
 _atom_site_occupancy
  Li  Li0  1  0.80493600  0.13789400  0.32433900  1
  Li  Li1  1  0.31180400  0.65955800  0.33649300  1
  Li  Li2  1  0.51940300  0.19506400  0.33295800  1
  Li  Li3  1  0.02469000  0.68819600  0.34775400  1
  Li  Li4  1  0.28127600  0.94563400  0.34635900  1
  Li  Li5  1  0.59927500  0.93491700  0.65364100  1
  Li  Li6  1  0.34044200  0.67693500  0.65224600  1
  Li  Li7  1  0.86210600  0.18644500  0.66704200  1
  Li  Li8  1  0.06508300  0.71872400  0.66435800  1
  Li  Li9  1  0.69563400  0.84927500  0.16435800  1
  Li  Li10  1  0.32306500  0.97531000  0.66350700  1
  Li  Li11  1  0.81355500  0.48059700  0.67566100  1
  Li  Li12  1  0.93644500  0.76940300  0.82433900  1
  Li  Li13  1  0.42693500  0.27469000  0.83649300  1
  Li  Li14  1  0.68491700  0.53127600  0.83564200  1
  Li  Li15  1  0.05436600  0.40072500  0.33564200  1
  Li  Li16  1  0.88789400  0.06355500  0.83295800  1
  Li  Li17  1  0.40955800  0.57306500  0.84775400  1
  Li  Li18  1  0.15072500  0.31508300  0.84635900  1
  Li  Li19  1  0.46872400  0.30436600  0.15364100  1
  Li  Li20  1  0.72531000  0.56180400  0.15224600  1
  Li  Li21  1  0.23059700  0.05493600  0.16704200  1
  Li  Li22  1  0.43819600  0.59044200  0.16350700  1
  Li  Li23  1  0.94506400  0.11210600  0.17566100  1
  Mg  Mg0  1  0.55333700  0.89882300  0.32417200  1
  Mg  Mg1  1  0.77083500  0.44666300  0.34548600  1
  Mg  Mg2  1  0.64882300  0.82465100  0.84548600  1
  Mg  Mg3  1  0.57465100  0.22916500  0.67582800  1
  Mg  Mg4  1  0.17534900  0.02083500  0.82417200  1
  Mg  Mg5  1  0.97916500  0.80333700  0.15451400  1
  Mg  Mg6  1  0.10117700  0.42534900  0.65451400  1
  Mg  Mg7  1  0.19666300  0.35117700  0.17582800  1
  Ni  Ni0  1  0.80950500  0.81259200  0.49711600  1
  Ni  Ni1  1  0.68761100  0.19049500  0.00308700  1
  Ni  Ni2  1  0.56259200  0.56547500  0.50308700  1
  Ni  Ni3  1  0.43452500  0.93761100  0.99711600  1
  Ni  Ni4  1  0.31547500  0.31238900  0.50288400  1
  Ni  Ni5  1  0.18740800  0.68452500  0.99691300  1
  Ni  Ni6  1  0.06238900  0.05950500  0.49691300  1
  Ni  Ni7  1  0.94049500  0.43740800  0.00288400  1
  O  O0  1  0.65144500  0.73097300  0.25594000  1
  O  O1  1  0.59283800  0.01894000  0.23774800  1
  O  O2  1  0.72954700  0.65384300  0.75463800  1
  O  O3  1  0.35113100  0.77196500  0.24419800  1
  O  O4  1  0.72490900  0.97954700  0.57570400  1
  O  O5  1  0.48097300  0.72503300  0.57952800  1
  O  O6  1  0.85693300  0.60113100  0.07916500  1
  O  O7  1  0.52196500  0.77776700  0.92083500  1
  O  O8  1  0.64491000  0.40716200  0.42610200  1
  O  O9  1  0.76894000  0.03119300  0.92610200  1
  O  O10  1  0.14550400  0.90144500  0.42047200  1
  O  O11  1  0.40384300  0.14920500  0.42429600  1
  O  O12  1  0.52776700  0.10693300  0.75580200  1
  O  O13  1  0.89920500  0.97490900  0.24536200  1
  O  O14  1  0.78119300  0.35509000  0.76225200  1
  O  O15  1  0.27496700  0.85449600  0.75594000  1
  O  O16  1  0.47503300  0.39550400  0.74406000  1
  O  O17  1  0.96880700  0.89491000  0.73774800  1
  O  O18  1  0.85079500  0.27509100  0.25463800  1
  O  O19  1  0.22223300  0.14306700  0.74419800  1
  O  O20  1  0.34615700  0.10079500  0.07570400  1
  O  O21  1  0.60449600  0.34855500  0.07952800  1
  O  O22  1  0.10509000  0.84283800  0.07389800  1
  O  O23  1  0.98106000  0.21880700  0.57389800  1
  O  O24  1  0.22803500  0.47223300  0.57916500  1
  O  O25  1  0.89306700  0.64886900  0.42083500  1
  O  O26  1  0.26902700  0.52496700  0.92047200  1
  O  O27  1  0.02509100  0.27045300  0.92429600  1
  O  O28  1  0.39886900  0.47803500  0.25580200  1
  O  O29  1  0.02045300  0.59615700  0.74536200  1
  O  O30  1  0.15716200  0.23106000  0.26225200  1
  O  O31  1  0.09855500  0.51902700  0.24406000  1
loop_
_geom_bond_atom_site_label_1
_geom_bond_atom_site_label_2
_geom_bond_distance
_geom_bond_site_symmetry_2
Li0 O23 1.952299 1_555
Li0 O13 1.967539 1_545
Li0 O1 1.973005 1_555
Li0 O18 1.985733 1_555
Li1 O5 1.931508 1_555
Li1 O3 1.938680 1_555
Li1 O31 2.049555 1_555
Li1 O28 2.051402 1_555
Li2 O1 1.952297 1_555
Li2 O20 1.967539 1_555
Li2 O8 1.973005 1_555
Li2 O11 1.985733 1_555
Li3 O31 1.931501 1_555
Li3 O25 1.938698 1_455
Li3 O10 2.049547 1_555
Li3 O6 2.051411 1_455
Li4 O3 1.929546 1_555
Li4 O11 1.948661 1_565
Li4 O10 2.003306 1_555
Li4 O22 2.062185 1_555
Li5 O12 1.929546 1_565
Li5 O4 1.948661 1_555
Li5 O5 2.003298 1_555
Li5 O9 2.062183 1_565
Li6 O15 1.931515 1_555
Li6 O24 1.938676 1_555
Li6 O5 2.049555 1_555
Li6 O7 2.051408 1_555
Li7 O14 1.952290 1_555
Li7 O27 1.967539 1_655
Li7 O23 1.973001 1_555
Li7 O4 1.985733 1_545
Li8 O25 1.929539 1_455
Li8 O29 1.948661 1_555
Li8 O15 2.003302 1_555
Li8 O17 2.062192 1_455
Li9 O7 1.929539 1_554
Li9 O13 1.948661 1_555
Li9 O0 2.003298 1_555
Li9 O1 2.062185 1_565
Li10 O10 1.931514 1_555
Li10 O12 1.938685 1_565
Li10 O15 2.049538 1_555
Li10 O19 2.051408 1_565
Li11 O8 1.952297 1_555
Li11 O2 1.967539 1_555
Li11 O14 1.973001 1_555
Li11 O29 1.985733 1_655
Li12 O22 1.952297 1_656
Li12 O29 1.967539 1_655
Li12 O17 1.973001 1_555
Li12 O2 1.985733 1_555
Li13 O21 1.931514 1_556
Li13 O19 1.938685 1_555
Li13 O16 2.049538 1_555
Li13 O12 2.051408 1_555
Li14 O6 1.929539 1_556
Li14 O2 1.948661 1_555
Li14 O16 2.003302 1_555
Li14 O14 2.062192 1_555
Li15 O24 1.929539 1_555
Li15 O18 1.948661 1_455
Li15 O31 2.003298 1_555
Li15 O30 2.062185 1_555
Li16 O17 1.952290 1_545
Li16 O4 1.967539 1_545
Li16 O9 1.973001 1_555
Li16 O27 1.985733 1_655
Li17 O16 1.931515 1_555
Li17 O7 1.938676 1_555
Li17 O26 2.049555 1_555
Li17 O24 2.051408 1_555
Li18 O19 1.929546 1_555
Li18 O27 1.948661 1_555
Li18 O26 2.003298 1_555
Li18 O23 2.062183 1_455
Li19 O28 1.929546 1_555
Li19 O20 1.948661 1_555
Li19 O21 2.003306 1_555
Li19 O8 2.062185 1_555
Li20 O0 1.931501 1_555
Li20 O6 1.938698 1_555
Li20 O21 2.049547 1_555
Li20 O25 2.051411 1_555
Li21 O30 1.952297 1_555
Li21 O11 1.967539 1_555
Li21 O22 1.973005 1_545
Li21 O20 1.985733 1_555
Li22 O26 1.931508 1_554
Li22 O28 1.938680 1_555
Li22 O0 2.049555 1_555
Li22 O3 2.051402 1_555
Li23 O9 1.952299 1_554
Li23 O18 1.967539 1_555
Li23 O30 1.973005 1_655
Li23 O13 1.985733 1_545
Mg0 O3 1.946703 1_555
Mg0 O1 1.953025 1_565
Mg0 O4 1.953998 1_555
Mg0 O0 2.006155 1_555
Mg1 O25 1.946698 1_555
Mg1 O8 1.953025 1_555
Mg1 O18 1.953998 1_555
Mg1 O21 2.006153 1_555
Mg2 O7 1.946711 1_555
Mg2 O9 1.953034 1_565
Mg2 O2 1.953998 1_555
Mg2 O5 2.006155 1_555
Mg3 O12 1.946703 1_555
Mg3 O14 1.953034 1_555
Mg3 O11 1.953998 1_555
Mg3 O16 2.006148 1_555
Mg4 O19 1.946703 1_555
Mg4 O17 1.953034 1_445
Mg4 O20 1.953998 1_556
Mg4 O15 2.006148 1_545
Mg5 O6 1.946698 1_555
Mg5 O22 1.953025 1_655
Mg5 O13 1.953998 1_555
Mg5 O10 2.006153 1_655
Mg6 O24 1.946711 1_555
Mg6 O23 1.953034 1_455
Mg6 O29 1.953998 1_555
Mg6 O26 2.006155 1_555
Mg7 O28 1.946703 1_555
Mg7 O30 1.953025 1_555
Mg7 O27 1.953998 1_554
Mg7 O31 2.006155 1_555
Ni0 O17 1.845951 1_555
Ni0 O0 1.848552 1_555
Ni0 O25 1.890975 1_555
Ni0 O4 1.925725 1_555
Ni1 O9 1.845946 1_554
Ni1 O21 1.848545 1_555
Ni1 O12 1.890977 1_554
Ni1 O18 1.925725 1_555
Ni2 O8 1.845946 1_555
Ni2 O5 1.848559 1_555
Ni2 O28 1.890979 1_555
Ni2 O2 1.925723 1_555
Ni3 O1 1.845951 1_566
Ni3 O15 1.848556 1_555
Ni3 O7 1.890967 1_555
Ni3 O20 1.925732 1_566
Ni4 O30 1.845951 1_555
Ni4 O16 1.848556 1_555
Ni4 O24 1.890967 1_555
Ni4 O11 1.925732 1_555
Ni5 O22 1.845946 1_556
Ni5 O26 1.848559 1_555
Ni5 O3 1.890979 1_556
Ni5 O29 1.925723 1_555
Ni6 O23 1.845946 1_455
Ni6 O10 1.848545 1_545
Ni6 O19 1.890977 1_555
Ni6 O13 1.925725 1_445
Ni7 O14 1.845951 1_554
Ni7 O31 1.848552 1_655
Ni7 O6 1.890975 1_555
Ni7 O27 1.925725 1_654
