# generated using pymatgen
data_K3Mo4H6O16F
_symmetry_space_group_name_H-M   'P 1'
_cell_length_a   8.12404700
_cell_length_b   10.60426600
_cell_length_c   10.71918718
_cell_angle_alpha   103.98709776
_cell_angle_beta   96.59669172
_cell_angle_gamma   106.42890167
_symmetry_Int_Tables_number   1
_chemical_formula_structural   K3Mo4H6O16F
_chemical_formula_sum   'K6 Mo8 H12 O32 F2'
_cell_volume   842.66591027
_cell_formula_units_Z   2
loop_
 _symmetry_equiv_pos_site_id
 _symmetry_equiv_pos_as_xyz
  1  'x, y, z'
loop_
 _atom_site_type_symbol
 _atom_site_label
 _atom_site_symmetry_multiplicity
 _atom_site_fract_x
 _atom_site_fract_y
 _atom_site_fract_z
 _atom_site_occupancy
  K  K0  1  0.81913900  0.14242200  0.46981200  1
  K  K1  1  0.18086100  0.85757800  0.53018800  1
  K  K2  1  0.68059100  0.10322300  0.83129500  1
  K  K3  1  0.31940900  0.89677700  0.16870500  1
  K  K4  1  0.91602600  0.52687100  0.17896100  1
  K  K5  1  0.08397400  0.47312900  0.82103900  1
  Mo  Mo0  1  0.27463400  0.47932800  0.48871700  1
  Mo  Mo1  1  0.72536600  0.52067200  0.51128300  1
  Mo  Mo2  1  0.14311300  0.24609200  0.17744200  1
  Mo  Mo3  1  0.85688700  0.75390800  0.82255800  1
  Mo  Mo4  1  0.60528900  0.78754800  0.49679200  1
  Mo  Mo5  1  0.39471100  0.21245200  0.50320800  1
  Mo  Mo6  1  0.40562500  0.56135800  0.20658800  1
  Mo  Mo7  1  0.59437500  0.43864200  0.79341200  1
  H  H0  1  0.08895100  0.17350400  0.69990800  1
  H  H1  1  0.91104900  0.82649600  0.30009200  1
  H  H2  1  0.04833600  0.18510300  0.83923300  1
  H  H3  1  0.95166400  0.81489700  0.16076700  1
  H  H4  1  0.70123100  0.26054400  0.08548000  1
  H  H5  1  0.29876900  0.73945600  0.91452000  1
  H  H6  1  0.52141000  0.24977000  0.12530000  1
  H  H7  1  0.47859000  0.75023000  0.87470000  1
  H  H8  1  0.31226700  0.02536200  0.89421300  1
  H  H9  1  0.68773300  0.97463800  0.10578700  1
  H  H10  1  0.37007600  0.17652100  0.89242000  1
  H  H11  1  0.62992400  0.82347900  0.10758000  1
  O  O0  1  0.09424100  0.41239800  0.55393500  1
  O  O1  1  0.90575900  0.58760200  0.44606500  1
  O  O2  1  0.99756000  0.26091800  0.05028600  1
  O  O3  1  0.00244000  0.73908200  0.94971400  1
  O  O4  1  0.17504600  0.08891500  0.11829800  1
  O  O5  1  0.82495400  0.91108500  0.88170200  1
  O  O6  1  0.79182800  0.85985500  0.43663400  1
  O  O7  1  0.20817200  0.14014500  0.56336600  1
  O  O8  1  0.56338500  0.92977600  0.59198900  1
  O  O9  1  0.43661500  0.07022400  0.40801100  1
  O  O10  1  0.60368600  0.60613000  0.15461900  1
  O  O11  1  0.39631400  0.39387000  0.84538100  1
  O  O12  1  0.25098600  0.58062100  0.08931000  1
  O  O13  1  0.74901400  0.41937900  0.91069000  1
  O  O14  1  0.34172800  0.66028800  0.55958100  1
  O  O15  1  0.65827200  0.33971200  0.44041900  1
  O  O16  1  0.36153400  0.36089500  0.15087800  1
  O  O17  1  0.63846600  0.63910500  0.84912200  1
  O  O18  1  0.42780400  0.73409200  0.33695200  1
  O  O19  1  0.57219600  0.26590800  0.66304800  1
  O  O20  1  0.29041100  0.28076700  0.37615700  1
  O  O21  1  0.70958900  0.71923300  0.62384300  1
  O  O22  1  0.18822700  0.46393900  0.30946600  1
  O  O23  1  0.81177300  0.53606100  0.69053400  1
  O  O24  1  0.54348700  0.55980500  0.40334200  1
  O  O25  1  0.45651300  0.44019500  0.59665800  1
  O  O26  1  0.00388700  0.19373800  0.75419900  1
  O  O27  1  0.99611300  0.80626200  0.24580100  1
  O  O28  1  0.59646400  0.19477800  0.09578200  1
  O  O29  1  0.40353600  0.80522200  0.90421800  1
  O  O30  1  0.32711700  0.08221900  0.83490500  1
  O  O31  1  0.67288300  0.91778100  0.16509500  1
  F  F0  1  0.95573700  0.19737900  0.27391500  1
  F  F1  1  0.04426300  0.80262100  0.72608500  1
loop_
_geom_bond_atom_site_label_1
_geom_bond_atom_site_label_2
_geom_bond_distance
_geom_bond_site_symmetry_2
K0 O15 2.820426 1_555
K0 O6 2.871390 1_545
K0 O9 2.935721 1_555
K0 O0 2.945168 1_655
K1 O14 2.820426 1_555
K1 O7 2.871390 1_565
K1 O8 2.935721 1_555
K1 O1 2.945168 1_455
K2 O8 2.652754 1_545
K2 O5 2.749004 1_545
K3 O9 2.652754 1_565
K3 O4 2.749004 1_565
K4 O27 2.736941 1_555
K4 O1 2.795205 1_555
K4 O22 2.804952 1_655
K4 O13 2.837915 1_554
K4 O10 2.893696 1_555
K4 O12 2.939683 1_655
K4 O2 3.111449 1_555
K5 O26 2.736941 1_555
K5 O0 2.795205 1_555
K5 O23 2.804952 1_455
K5 O12 2.837915 1_556
K5 O11 2.893696 1_555
K5 O13 2.939683 1_455
K5 O3 3.111449 1_555
Mo0 O0 1.739855 1_555
Mo0 O14 1.779059 1_555
Mo0 O22 1.919636 1_555
Mo0 O25 1.969865 1_555
Mo0 O20 2.205858 1_555
Mo0 O24 2.473629 1_555
Mo1 O1 1.739855 1_555
Mo1 O15 1.779059 1_555
Mo1 O23 1.919636 1_555
Mo1 O24 1.969865 1_555
Mo1 O21 2.205858 1_555
Mo1 O25 2.473629 1_555
Mo2 O4 1.737481 1_555
Mo2 O2 1.766128 1_455
Mo2 O16 1.942573 1_555
Mo2 O20 2.211606 1_555
Mo2 O22 2.301135 1_555
Mo3 O5 1.737481 1_555
Mo3 O3 1.766128 1_655
Mo3 O17 1.942573 1_555
Mo3 O21 2.211606 1_555
Mo3 O23 2.301135 1_555
Mo4 O8 1.748765 1_555
Mo4 O6 1.762557 1_555
Mo4 O21 1.912201 1_555
Mo4 O18 1.958705 1_555
Mo4 O24 2.262096 1_555
Mo4 O14 2.448370 1_555
Mo5 O9 1.748765 1_555
Mo5 O7 1.762557 1_555
Mo5 O20 1.912201 1_555
Mo5 O19 1.958705 1_555
Mo5 O25 2.262096 1_555
Mo5 O15 2.448370 1_555
Mo6 O10 1.739675 1_555
Mo6 O12 1.762611 1_555
Mo6 O18 1.964303 1_555
Mo6 O16 1.977441 1_555
Mo6 O24 2.277549 1_555
Mo6 O22 2.317056 1_555
Mo7 O11 1.739675 1_555
Mo7 O13 1.762611 1_555
Mo7 O19 1.964303 1_555
Mo7 O17 1.977441 1_555
Mo7 O25 2.277549 1_555
Mo7 O23 2.317056 1_555
H0 O26 0.989037 1_555
H1 O27 0.989037 1_555
H2 O26 0.976234 1_555
H3 O27 0.976234 1_555
H4 O28 0.972652 1_555
H4 K4 2.732729 1_555
H5 O29 0.972652 1_555
H5 K5 2.732729 1_555
H6 O28 0.983984 1_555
H7 O29 0.983984 1_555
H8 O30 0.971596 1_555
H9 O31 0.971596 1_555
H10 O30 0.978274 1_555
H11 O31 0.978274 1_555
F0 Mo2 1.956679 1_655
F0 K0 2.596474 1_555
F1 Mo3 1.956679 1_455
F1 K1 2.596474 1_555
