# generated using pymatgen
data_Li3MnFeCo(PO4)3
_symmetry_space_group_name_H-M   'P 1'
_cell_length_a   6.09230500
_cell_length_b   10.46045000
_cell_length_c   14.27796637
_cell_angle_alpha   89.88988648
_cell_angle_beta   90.00000000
_cell_angle_gamma   90.00000000
_symmetry_Int_Tables_number   1
_chemical_formula_structural   Li3MnFeCo(PO4)3
_chemical_formula_sum   'Li12 Mn4 Fe4 Co4 P12 O48'
_cell_volume   909.90815604
_cell_formula_units_Z   4
loop_
 _symmetry_equiv_pos_site_id
 _symmetry_equiv_pos_as_xyz
  1  'x, y, z'
loop_
 _atom_site_type_symbol
 _atom_site_label
 _atom_site_symmetry_multiplicity
 _atom_site_fract_x
 _atom_site_fract_y
 _atom_site_fract_z
 _atom_site_occupancy
  Li  Li0  1  0.75079300  0.99755700  0.66716300  1
  Li  Li1  1  0.24952500  0.99867700  0.99965100  1
  Li  Li2  1  0.75047500  0.99867700  0.99965100  1
  Li  Li3  1  0.24897600  0.99810700  0.33307400  1
  Li  Li4  1  0.75102400  0.99810700  0.33307400  1
  Li  Li5  1  0.24920700  0.99755700  0.66716300  1
  Li  Li6  1  0.24925400  0.50240500  0.50092800  1
  Li  Li7  1  0.75074600  0.50240500  0.50092800  1
  Li  Li8  1  0.24955000  0.50151900  0.16675600  1
  Li  Li9  1  0.75045000  0.50151900  0.16675600  1
  Li  Li10  1  0.25015600  0.50257700  0.83285300  1
  Li  Li11  1  0.74984400  0.50257700  0.83285300  1
  Mn  Mn0  1  0.50000000  0.21804300  0.16019200  1
  Mn  Mn1  1  0.50000000  0.21854600  0.49381000  1
  Mn  Mn2  1  0.50000000  0.21809100  0.82669000  1
  Mn  Mn3  1  0.00000000  0.28183400  0.66003700  1
  Fe  Fe0  1  0.00000000  0.28033900  0.99289400  1
  Fe  Fe1  1  0.00000000  0.28187400  0.32576100  1
  Fe  Fe2  1  0.50000000  0.71993400  0.00716500  1
  Fe  Fe3  1  0.50000000  0.72009400  0.34099200  1
  Co  Co0  1  0.50000000  0.72155300  0.67405400  1
  Co  Co1  1  0.00000000  0.77819800  0.83914100  1
  Co  Co2  1  0.00000000  0.78016500  0.50693700  1
  Co  Co3  1  0.00000000  0.77908000  0.17296600  1
  P  P0  1  0.00000000  0.09046500  0.80603400  1
  P  P1  1  0.00000000  0.09242300  0.13837400  1
  P  P2  1  0.00000000  0.09161000  0.47058500  1
  P  P3  1  0.50000000  0.40868900  0.30690900  1
  P  P4  1  0.50000000  0.41067400  0.63918600  1
  P  P5  1  0.50000000  0.40834900  0.97358200  1
  P  P6  1  0.00000000  0.59646200  0.36055000  1
  P  P7  1  0.00000000  0.59567500  0.02733500  1
  P  P8  1  0.00000000  0.59783800  0.69414800  1
  P  P9  1  0.50000000  0.90210500  0.86067900  1
  P  P10  1  0.50000000  0.90256900  0.19419700  1
  P  P11  1  0.50000000  0.90208000  0.52778300  1
  O  O0  1  0.50000000  0.04030400  0.23623600  1
  O  O1  1  0.50000000  0.03932200  0.56989000  1
  O  O2  1  0.50000000  0.03973200  0.90286400  1
  O  O3  1  0.00000000  0.09548600  0.57798000  1
  O  O4  1  0.00000000  0.09603700  0.91358700  1
  O  O5  1  0.00000000  0.09856700  0.24589100  1
  O  O6  1  0.20107000  0.16300500  0.09228800  1
  O  O7  1  0.79893000  0.16300500  0.09228800  1
  O  O8  1  0.20181800  0.16233100  0.42532300  1
  O  O9  1  0.79818200  0.16233100  0.42532300  1
  O  O10  1  0.20190000  0.16080500  0.76084700  1
  O  O11  1  0.79810000  0.16080500  0.76084700  1
  O  O12  1  0.70186500  0.34000100  0.59427900  1
  O  O13  1  0.29813500  0.34000100  0.59427900  1
  O  O14  1  0.70315500  0.33731100  0.26317500  1
  O  O15  1  0.29684500  0.33731100  0.26317500  1
  O  O16  1  0.70314600  0.33718000  0.92997400  1
  O  O17  1  0.29685400  0.33718000  0.92997400  1
  O  O18  1  0.50000000  0.40676800  0.41415800  1
  O  O19  1  0.50000000  0.40623500  0.08123800  1
  O  O20  1  0.50000000  0.40518500  0.74673700  1
  O  O21  1  0.00000000  0.45821000  0.40153700  1
  O  O22  1  0.00000000  0.45788300  0.06876400  1
  O  O23  1  0.00000000  0.46044900  0.73670900  1
  O  O24  1  0.50000000  0.54569500  0.26441400  1
  O  O25  1  0.50000000  0.54524400  0.93129800  1
  O  O26  1  0.50000000  0.54858000  0.59892700  1
  O  O27  1  0.00000000  0.59936500  0.25284200  1
  O  O28  1  0.00000000  0.59811800  0.91965600  1
  O  O29  1  0.00000000  0.59822500  0.58649300  1
  O  O30  1  0.20249700  0.66630300  0.07195600  1
  O  O31  1  0.20235000  0.66629700  0.40557100  1
  O  O32  1  0.20353300  0.66835000  0.73869900  1
  O  O33  1  0.79646700  0.66835000  0.73869900  1
  O  O34  1  0.79750300  0.66630300  0.07195600  1
  O  O35  1  0.79765000  0.66629700  0.40557100  1
  O  O36  1  0.70399100  0.83235100  0.90507500  1
  O  O37  1  0.29600900  0.83235100  0.90507500  1
  O  O38  1  0.70415400  0.83285500  0.23842400  1
  O  O39  1  0.70334700  0.83124500  0.57179800  1
  O  O40  1  0.29584600  0.83285500  0.23842400  1
  O  O41  1  0.29665300  0.83124500  0.57179800  1
  O  O42  1  0.50000000  0.90188800  0.75303700  1
  O  O43  1  0.50000000  0.90192200  0.41986700  1
  O  O44  1  0.50000000  0.90220900  0.08660500  1
  O  O45  1  0.00000000  0.95269400  0.76576400  1
  O  O46  1  0.00000000  0.95415800  0.09935600  1
  O  O47  1  0.00000000  0.95328200  0.43048400  1
loop_
_geom_bond_atom_site_label_1
_geom_bond_atom_site_label_2
_geom_bond_distance
_geom_bond_site_symmetry_2
Li0 O1 2.109969 1_565
Li0 O45 2.122433 1_655
Li0 O11 2.190234 1_565
Li0 O42 2.198773 1_555
Li0 O3 2.229537 1_665
Li0 O39 2.230070 1_555
Li1 O2 2.102485 1_565
Li1 O46 2.133510 1_556
Li1 O6 2.190914 1_566
Li1 O4 2.203029 1_565
Li1 O44 2.209850 1_556
Li1 O37 2.222553 1_555
Li2 O2 2.102485 1_565
Li2 O46 2.133510 1_656
Li2 O7 2.190914 1_566
Li2 O4 2.203029 1_665
Li2 O44 2.209850 1_556
Li2 O36 2.222553 1_555
Li3 O0 2.107845 1_565
Li3 O47 2.110099 1_555
Li3 O8 2.185657 1_565
Li3 O43 2.209527 1_555
Li3 O40 2.214705 1_555
Li3 O5 2.224766 1_565
Li4 O0 2.107845 1_565
Li4 O47 2.110099 1_655
Li4 O9 2.185657 1_565
Li4 O43 2.209527 1_555
Li4 O38 2.214705 1_555
Li4 O5 2.224766 1_665
Li5 O1 2.109969 1_565
Li5 O45 2.122433 1_555
Li5 O10 2.190234 1_565
Li5 O42 2.198773 1_555
Li5 O3 2.229537 1_565
Li5 O41 2.230070 1_555
Li6 O26 2.127759 1_555
Li6 O21 2.129795 1_555
Li6 O13 2.177726 1_555
Li6 O29 2.192676 1_555
Li6 O31 2.205785 1_555
Li6 O18 2.207730 1_555
Li7 O26 2.127759 1_555
Li7 O21 2.129795 1_655
Li7 O12 2.177726 1_555
Li7 O29 2.192676 1_655
Li7 O35 2.205785 1_555
Li7 O18 2.207730 1_555
Li8 O22 2.116548 1_555
Li8 O24 2.118577 1_555
Li8 O19 2.194797 1_555
Li8 O27 2.207850 1_555
Li8 O30 2.208280 1_555
Li8 O15 2.218018 1_555
Li9 O22 2.116548 1_655
Li9 O24 2.118577 1_555
Li9 O19 2.194797 1_555
Li9 O27 2.207850 1_655
Li9 O34 2.208280 1_555
Li9 O14 2.218018 1_555
Li10 O23 2.098475 1_555
Li10 O25 2.119946 1_555
Li10 O28 2.205054 1_555
Li10 O20 2.207121 1_555
Li10 O32 2.210407 1_555
Li10 O17 2.233376 1_555
Li11 O23 2.098475 1_655
Li11 O25 2.119946 1_555
Li11 O28 2.205054 1_655
Li11 O20 2.207121 1_555
Li11 O33 2.210407 1_555
Li11 O16 2.233376 1_555
Mn0 O6 2.142490 1_555
Mn0 O7 2.142490 1_555
Mn0 O0 2.151241 1_555
Mn0 O19 2.266619 1_555
Mn0 O14 2.292912 1_555
Mn0 O15 2.292912 1_555
Mn1 O9 2.145760 1_555
Mn1 O8 2.145760 1_555
Mn1 O1 2.164922 1_555
Mn1 O18 2.271847 1_555
Mn1 O13 2.278452 1_555
Mn1 O12 2.278452 1_555
Mn2 O10 2.131508 1_555
Mn2 O11 2.131508 1_555
Mn2 O2 2.157774 1_555
Mn2 O20 2.263797 1_555
Mn2 O16 2.294626 1_555
Mn2 O17 2.294626 1_555
Mn3 O13 2.132742 1_555
Mn3 O12 2.132742 1_455
Mn3 O23 2.167295 1_555
Mn3 O11 2.276082 1_455
Mn3 O10 2.276082 1_555
Mn3 O3 2.276214 1_555
Fe0 O17 2.104592 1_555
Fe0 O16 2.104592 1_455
Fe0 O22 2.151827 1_556
Fe0 O4 2.237704 1_555
Fe0 O6 2.239259 1_556
Fe0 O7 2.239259 1_456
Fe1 O15 2.098422 1_555
Fe1 O14 2.098422 1_455
Fe1 O21 2.140237 1_555
Fe1 O5 2.232841 1_555
Fe1 O9 2.255969 1_455
Fe1 O8 2.255969 1_555
Fe2 O34 2.110353 1_555
Fe2 O30 2.110353 1_555
Fe2 O25 2.126063 1_554
Fe2 O44 2.220414 1_555
Fe2 O36 2.246203 1_554
Fe2 O37 2.246203 1_554
Fe3 O31 2.110260 1_555
Fe3 O35 2.110260 1_555
Fe3 O24 2.128658 1_555
Fe3 O43 2.212265 1_555
Fe3 O38 2.253057 1_555
Fe3 O40 2.253057 1_555
Co0 O33 2.102835 1_555
Co0 O32 2.102835 1_555
Co0 O26 2.105208 1_555
Co0 O42 2.199630 1_555
Co0 O39 2.230813 1_555
Co0 O41 2.230813 1_555
Co1 O45 2.102859 1_555
Co1 O37 2.112189 1_555
Co1 O36 2.112189 1_455
Co1 O28 2.204910 1_555
Co1 O32 2.218310 1_555
Co1 O33 2.218310 1_455
Co2 O41 2.100325 1_555
Co2 O39 2.100325 1_455
Co2 O47 2.112645 1_555
Co2 O29 2.214504 1_555
Co2 O35 2.244948 1_455
Co2 O31 2.244948 1_555
Co3 O40 2.107254 1_555
Co3 O38 2.107254 1_455
Co3 O46 2.109789 1_555
Co3 O27 2.196918 1_555
Co3 O30 2.236106 1_555
Co3 O34 2.236106 1_455
O0 P10 1.561864 1_545
O1 P11 1.557481 1_545
O2 P9 1.561628 1_545
O3 P2 1.533996 1_555
O4 P0 1.536856 1_555
O5 P1 1.536592 1_555
O6 P1 1.573787 1_555
O7 P1 1.573787 1_655
O8 P2 1.573158 1_555
O9 P2 1.573158 1_655
O10 P0 1.571243 1_555
O11 P0 1.571243 1_655
O12 P4 1.572235 1_555
O13 P4 1.572235 1_555
O14 P3 1.575134 1_555
O15 P3 1.575134 1_555
O16 P5 1.573339 1_555
O17 P5 1.573339 1_555
O18 P3 1.531391 1_555
O19 P5 1.537225 1_554
O20 P4 1.536572 1_555
O21 P6 1.559054 1_555
O22 P7 1.556971 1_555
O23 P8 1.559271 1_555
O24 P3 1.555216 1_555
O25 P5 1.552979 1_555
O26 P4 1.551839 1_555
O27 P6 1.538093 1_555
O28 P7 1.537600 1_556
O29 P8 1.537092 1_555
O30 P7 1.573365 1_555
O31 P6 1.571110 1_555
O32 P8 1.577346 1_555
O33 P8 1.577346 1_655
O34 P7 1.573365 1_655
O35 P6 1.571110 1_655
O36 P9 1.573825 1_555
O37 P9 1.573825 1_555
O38 P10 1.573447 1_555
O39 P11 1.573829 1_555
O40 P10 1.573447 1_555
O41 P11 1.573829 1_555
O42 P9 1.536915 1_555
O43 P11 1.540825 1_555
O44 P10 1.536207 1_555
O45 P0 1.552638 1_565
O46 P1 1.550896 1_565
O47 P2 1.557158 1_565
