# generated using pymatgen
data_Li6Cr3Sb3O16
_symmetry_space_group_name_H-M   'P 1'
_cell_length_a   6.04711615
_cell_length_b   6.04711615
_cell_length_c   10.02636895
_cell_angle_alpha   89.85000666
_cell_angle_beta   89.85000666
_cell_angle_gamma   60.31100107
_symmetry_Int_Tables_number   1
_chemical_formula_structural   Li6Cr3Sb3O16
_chemical_formula_sum   'Li6 Cr3 Sb3 O16'
_cell_volume   318.50880723
_cell_formula_units_Z   1
loop_
 _symmetry_equiv_pos_site_id
 _symmetry_equiv_pos_as_xyz
  1  'x, y, z'
loop_
 _atom_site_type_symbol
 _atom_site_label
 _atom_site_symmetry_multiplicity
 _atom_site_fract_x
 _atom_site_fract_y
 _atom_site_fract_z
 _atom_site_occupancy
  Li  Li0  1  0.33999200  0.33999200  0.49915100  1
  Li  Li1  1  0.32936700  0.32936700  0.11131900  1
  Li  Li2  1  0.98985900  0.98985900  0.99603800  1
  Li  Li3  1  0.98883500  0.98883500  0.50305700  1
  Li  Li4  1  0.66995400  0.66995400  0.99984700  1
  Li  Li5  1  0.66721500  0.66721500  0.62012400  1
  Cr  Cr0  1  0.66562900  0.16943300  0.78452600  1
  Cr  Cr1  1  0.16943300  0.66562900  0.78452600  1
  Cr  Cr2  1  0.83265400  0.83265400  0.28384000  1
  Sb  Sb0  1  0.17027400  0.17027400  0.78470700  1
  Sb  Sb1  1  0.83262800  0.33734200  0.28400600  1
  Sb  Sb2  1  0.33734200  0.83262800  0.28400600  1
  O  O0  1  0.69276400  0.16067600  0.39090600  1
  O  O1  1  0.48415400  0.48415400  0.68823500  1
  O  O2  1  0.33402800  0.33402800  0.89512200  1
  O  O3  1  0.00152400  0.00152400  0.68225700  1
  O  O4  1  0.00020600  0.00020600  0.17727100  1
  O  O5  1  0.16067600  0.69276400  0.39090600  1
  O  O6  1  0.49123300  0.03237900  0.67702600  1
  O  O7  1  0.03237900  0.49123300  0.67702600  1
  O  O8  1  0.84769000  0.84769000  0.87963100  1
  O  O9  1  0.15464700  0.15464700  0.39620700  1
  O  O10  1  0.97143100  0.50969200  0.17520200  1
  O  O11  1  0.50969200  0.97143100  0.17520200  1
  O  O12  1  0.66734600  0.66734600  0.39763300  1
  O  O13  1  0.84348900  0.30369200  0.89105000  1
  O  O14  1  0.51207000  0.51207000  0.17228400  1
  O  O15  1  0.30369200  0.84348900  0.89105000  1
loop_
_geom_bond_atom_site_label_1
_geom_bond_atom_site_label_2
_geom_bond_distance
_geom_bond_site_symmetry_2
Li0 O0 2.146415 1_555
Li0 O5 2.146415 1_555
Li0 O9 2.198687 1_555
Li0 O6 2.404843 1_555
Li0 O7 2.404843 1_555
Li0 O1 2.425742 1_555
Li1 O10 1.985619 1_455
Li1 O11 1.985619 1_545
Li1 O14 2.007769 1_555
Li1 O2 2.168071 1_554
Li2 O4 1.820655 1_666
Li2 O8 1.892902 1_555
Li2 O15 1.955393 1_655
Li2 O13 1.955393 1_565
Li3 O3 1.802019 1_665
Li3 O5 1.926441 1_655
Li3 O0 1.926441 1_565
Li3 O9 2.035469 1_665
Li4 O8 2.212216 1_555
Li4 O13 2.213806 1_555
Li4 O15 2.213806 1_555
Li4 O11 2.368896 1_556
Li4 O10 2.368896 1_556
Li4 O14 2.387025 1_556
Li5 O7 2.002425 1_655
Li5 O6 2.002425 1_565
Li5 O1 2.030565 1_555
Li5 O12 2.230773 1_555
Cr0 O1 1.919752 1_555
Cr0 O8 1.944406 1_545
Cr0 O13 1.957602 1_555
Cr0 O6 1.958877 1_555
Cr0 O3 2.039535 1_655
Cr0 O2 2.063565 1_555
Cr1 O1 1.919752 1_555
Cr1 O8 1.944406 1_455
Cr1 O15 1.957602 1_555
Cr1 O7 1.958877 1_555
Cr1 O3 2.039535 1_565
Cr1 O2 2.063565 1_555
Cr2 O11 2.021809 1_555
Cr2 O10 2.021809 1_555
Cr2 O0 2.036369 1_565
Cr2 O5 2.036369 1_655
Cr2 O4 2.049500 1_665
Cr2 O12 2.068379 1_555
O0 Sb1 1.972243 1_555
O2 Sb0 2.041949 1_555
O3 Sb0 2.044572 1_555
O4 Sb2 2.070679 1_545
O4 Sb1 2.070679 1_455
O5 Sb2 1.972243 1_555
O6 Sb0 2.004626 1_555
O7 Sb0 2.004626 1_555
O9 Sb1 2.037624 1_455
O9 Sb2 2.037624 1_545
O10 Sb1 1.958734 1_555
O11 Sb2 1.958734 1_555
O12 Sb2 2.075906 1_555
O12 Sb1 2.075906 1_555
O13 Sb0 2.026560 1_655
O14 Sb2 2.026095 1_555
O14 Sb1 2.026095 1_555
O15 Sb0 2.026560 1_565
