# generated using pymatgen
data_YbHfO3
_symmetry_space_group_name_H-M   'P 1'
_cell_length_a   5.53038900
_cell_length_b   5.72589500
_cell_length_c   7.96073200
_cell_angle_alpha   90.00000000
_cell_angle_beta   90.00000000
_cell_angle_gamma   90.00000000
_symmetry_Int_Tables_number   1
_chemical_formula_structural   YbHfO3
_chemical_formula_sum   'Yb4 Hf4 O12'
_cell_volume   252.08793654
_cell_formula_units_Z   4
loop_
 _symmetry_equiv_pos_site_id
 _symmetry_equiv_pos_as_xyz
  1  'x, y, z'
loop_
 _atom_site_type_symbol
 _atom_site_label
 _atom_site_symmetry_multiplicity
 _atom_site_fract_x
 _atom_site_fract_y
 _atom_site_fract_z
 _atom_site_occupancy
  Yb  Yb0  1  0.98728000  0.05284000  0.25000000  1
  Yb  Yb1  1  0.48728000  0.44716000  0.75000000  1
  Yb  Yb2  1  0.51272000  0.55284000  0.25000000  1
  Yb  Yb3  1  0.01272000  0.94716000  0.75000000  1
  Hf  Hf0  1  0.50000000  0.00000000  0.00000000  1
  Hf  Hf1  1  0.50000000  0.00000000  0.50000000  1
  Hf  Hf2  1  0.00000000  0.50000000  0.00000000  1
  Hf  Hf3  1  0.00000000  0.50000000  0.50000000  1
  O  O0  1  0.60693700  0.04105100  0.75000000  1
  O  O1  1  0.19339700  0.19612000  0.55543200  1
  O  O2  1  0.19339700  0.19612000  0.94456800  1
  O  O3  1  0.69339700  0.30388000  0.05543200  1
  O  O4  1  0.69339700  0.30388000  0.44456800  1
  O  O5  1  0.10693700  0.45894900  0.25000000  1
  O  O6  1  0.89306300  0.54105100  0.75000000  1
  O  O7  1  0.30660300  0.69612000  0.55543200  1
  O  O8  1  0.30660300  0.69612000  0.94456800  1
  O  O9  1  0.80660300  0.80388000  0.05543200  1
  O  O10  1  0.80660300  0.80388000  0.44456800  1
  O  O11  1  0.39306300  0.95894900  0.25000000  1
loop_
_geom_bond_atom_site_label_1
_geom_bond_atom_site_label_2
_geom_bond_distance
_geom_bond_site_symmetry_2
Hf0 O2 2.081093 1_554
Hf0 O9 2.081093 1_545
Hf0 O0 2.089458 1_554
Hf0 O11 2.089458 1_545
Hf0 O3 2.089554 1_555
Hf0 O8 2.089554 1_544
Hf1 O1 2.081093 1_555
Hf1 O10 2.081093 1_545
Hf1 O0 2.089458 1_555
Hf1 O11 2.089458 1_545
Hf1 O4 2.089554 1_555
Hf1 O7 2.089554 1_545
Hf2 O8 2.081093 1_554
Hf2 O3 2.081093 1_455
Hf2 O5 2.089458 1_555
Hf2 O6 2.089458 1_454
Hf2 O2 2.089554 1_554
Hf2 O9 2.089554 1_455
Hf3 O4 2.081093 1_455
Hf3 O7 2.081093 1_555
Hf3 O5 2.089458 1_555
Hf3 O6 2.089458 1_455
Hf3 O1 2.089554 1_555
Hf3 O10 2.089554 1_455
O0 Yb3 2.307635 1_645
O0 Yb1 2.417666 1_555
O1 Yb3 2.330158 1_545
O1 Yb1 2.665870 1_555
O1 Yb0 2.807929 1_455
O2 Yb3 2.330158 1_545
O2 Yb1 2.665870 1_555
O2 Yb0 2.807929 1_456
O3 Yb2 2.330158 1_555
O3 Yb0 2.665870 1_555
O3 Yb1 2.807929 1_554
O4 Yb2 2.330158 1_555
O4 Yb0 2.665870 1_555
O4 Yb1 2.807929 1_555
O5 Yb2 2.307635 1_555
O5 Yb0 2.417666 1_455
O6 Yb1 2.307635 1_555
O6 Yb3 2.417666 1_655
O7 Yb1 2.330158 1_555
O7 Yb3 2.665870 1_555
O7 Yb2 2.807929 1_555
O8 Yb1 2.330158 1_555
O8 Yb3 2.665870 1_555
O8 Yb2 2.807929 1_556
O9 Yb0 2.330158 1_565
O9 Yb2 2.665870 1_555
O9 Yb3 2.807929 1_654
O10 Yb0 2.330158 1_565
O10 Yb2 2.665870 1_555
O10 Yb3 2.807929 1_655
O11 Yb0 2.307635 1_465
O11 Yb2 2.417666 1_555
