# generated using pymatgen
data_Li2AlFeO4
_symmetry_space_group_name_H-M   'P 1'
_cell_length_a   5.96842200
_cell_length_b   5.33127400
_cell_length_c   10.90250784
_cell_angle_alpha   71.90222929
_cell_angle_beta   90.00000000
_cell_angle_gamma   90.00000000
_symmetry_Int_Tables_number   1
_chemical_formula_structural   Li2AlFeO4
_chemical_formula_sum   'Li8 Al4 Fe4 O16'
_cell_volume   329.74769291
_cell_formula_units_Z   4
loop_
 _symmetry_equiv_pos_site_id
 _symmetry_equiv_pos_as_xyz
  1  'x, y, z'
loop_
 _atom_site_type_symbol
 _atom_site_label
 _atom_site_symmetry_multiplicity
 _atom_site_fract_x
 _atom_site_fract_y
 _atom_site_fract_z
 _atom_site_occupancy
  Li  Li0  1  0.33827000  0.93563100  0.19188100  1
  Li  Li1  1  0.16173000  0.93563100  0.69188100  1
  Li  Li2  1  0.15695600  0.69830200  0.43198500  1
  Li  Li3  1  0.34304400  0.69830200  0.93198500  1
  Li  Li4  1  0.65695600  0.30169800  0.06801500  1
  Li  Li5  1  0.84304400  0.30169800  0.56801500  1
  Li  Li6  1  0.83827000  0.06436900  0.30811900  1
  Li  Li7  1  0.66173000  0.06436900  0.80811900  1
  Al  Al0  1  0.83071400  0.82086700  0.05821100  1
  Al  Al1  1  0.66928600  0.82086700  0.55821100  1
  Al  Al2  1  0.33071400  0.17913300  0.44178900  1
  Al  Al3  1  0.16928600  0.17913300  0.94178900  1
  Fe  Fe0  1  0.17373500  0.43152300  0.18326100  1
  Fe  Fe1  1  0.67373500  0.56847700  0.31673900  1
  Fe  Fe2  1  0.32626500  0.43152300  0.68326100  1
  Fe  Fe3  1  0.82626500  0.56847700  0.81673900  1
  O  O0  1  0.67738900  0.91608000  0.17943100  1
  O  O1  1  0.82261100  0.91608000  0.67943100  1
  O  O2  1  0.14061200  0.82060600  0.06011400  1
  O  O3  1  0.35938800  0.82060600  0.56011400  1
  O  O4  1  0.81454000  0.69402400  0.44424200  1
  O  O5  1  0.34506000  0.54092700  0.31387200  1
  O  O6  1  0.68546000  0.69402400  0.94424200  1
  O  O7  1  0.15494000  0.54092700  0.81387200  1
  O  O8  1  0.84506000  0.45907300  0.18612800  1
  O  O9  1  0.31454000  0.30597600  0.05575800  1
  O  O10  1  0.65494000  0.45907300  0.68612800  1
  O  O11  1  0.18546000  0.30597600  0.55575800  1
  O  O12  1  0.64061200  0.17939400  0.43988600  1
  O  O13  1  0.85938800  0.17939400  0.93988600  1
  O  O14  1  0.17738900  0.08392000  0.32056900  1
  O  O15  1  0.32261100  0.08392000  0.82056900  1
loop_
_geom_bond_atom_site_label_1
_geom_bond_atom_site_label_2
_geom_bond_distance
_geom_bond_site_symmetry_2
Li0 O0 2.033390 1_555
Li0 O14 2.050507 1_565
Li0 O9 2.073739 1_565
Li0 O2 2.092576 1_555
Li0 O5 2.111815 1_555
Li1 O1 2.033390 1_455
Li1 O15 2.050507 1_565
Li1 O11 2.073739 1_565
Li1 O3 2.092576 1_555
Li1 O7 2.111815 1_555
Li2 O14 2.040924 1_565
Li2 O4 2.047712 1_455
Li2 O5 2.072158 1_555
Li2 O3 2.098141 1_555
Li2 O11 2.114510 1_555
Li3 O15 2.040924 1_565
Li3 O6 2.047712 1_555
Li3 O7 2.072158 1_555
Li3 O2 2.098141 1_556
Li3 O9 2.114510 1_556
Li4 O0 2.040924 1_545
Li4 O9 2.047712 1_555
Li4 O8 2.072158 1_555
Li4 O13 2.098141 1_554
Li4 O6 2.114510 1_554
Li5 O1 2.040924 1_545
Li5 O11 2.047712 1_655
Li5 O10 2.072158 1_555
Li5 O12 2.098141 1_555
Li5 O4 2.114510 1_555
Li6 O14 2.033390 1_655
Li6 O0 2.050507 1_545
Li6 O4 2.073739 1_545
Li6 O12 2.092576 1_555
Li6 O8 2.111815 1_555
Li7 O15 2.033390 1_555
Li7 O1 2.050507 1_545
Li7 O6 2.073739 1_545
Li7 O13 2.092576 1_555
Li7 O10 2.111815 1_555
Al0 O0 1.805133 1_555
Al0 O6 1.809649 1_554
Al0 O2 1.849714 1_655
Al0 O13 1.953207 1_564
Al0 O8 2.000356 1_555
Al1 O1 1.805133 1_555
Al1 O4 1.809649 1_555
Al1 O3 1.849714 1_555
Al1 O12 1.953207 1_565
Al1 O10 2.000356 1_555
Al2 O14 1.805133 1_555
Al2 O11 1.809649 1_555
Al2 O12 1.849714 1_555
Al2 O3 1.953207 1_545
Al2 O5 2.000356 1_555
Al3 O15 1.805133 1_555
Al3 O9 1.809649 1_556
Al3 O13 1.849714 1_455
Al3 O2 1.953207 1_546
Al3 O7 2.000356 1_555
Fe0 O9 1.914336 1_555
Fe0 O8 1.968135 1_455
Fe0 O5 1.982305 1_555
Fe0 O14 1.988006 1_555
Fe0 O2 2.100996 1_555
Fe1 O4 1.914336 1_555
Fe1 O5 1.968135 1_555
Fe1 O8 1.982305 1_555
Fe1 O0 1.988006 1_555
Fe1 O12 2.100996 1_555
Fe2 O11 1.914336 1_555
Fe2 O10 1.968135 1_555
Fe2 O7 1.982305 1_555
Fe2 O15 1.988006 1_555
Fe2 O3 2.100996 1_555
Fe3 O6 1.914336 1_555
Fe3 O7 1.968135 1_655
Fe3 O10 1.982305 1_555
Fe3 O1 1.988006 1_555
Fe3 O13 2.100996 1_555
