# generated using pymatgen
data_Cr4OF11
_symmetry_space_group_name_H-M   'P 1'
_cell_length_a   5.07715233
_cell_length_b   7.41288082
_cell_length_c   5.33143019
_cell_angle_alpha   93.72160257
_cell_angle_beta   89.16785398
_cell_angle_gamma   89.95486670
_symmetry_Int_Tables_number   1
_chemical_formula_structural   Cr4OF11
_chemical_formula_sum   'Cr4 O1 F11'
_cell_volume   200.21088189
_cell_formula_units_Z   1
loop_
 _symmetry_equiv_pos_site_id
 _symmetry_equiv_pos_as_xyz
  1  'x, y, z'
loop_
 _atom_site_type_symbol
 _atom_site_label
 _atom_site_symmetry_multiplicity
 _atom_site_fract_x
 _atom_site_fract_y
 _atom_site_fract_z
 _atom_site_occupancy
  Cr  Cr0  1  0.49943200  0.49924500  0.50004800  1
  Cr  Cr1  1  0.51211700  0.00074200  0.48878100  1
  Cr  Cr2  1  0.99984100  0.49915500  0.99999800  1
  Cr  Cr3  1  0.98877200  0.00114400  0.01178300  1
  O  O0  1  0.80834000  0.05990000  0.30778000  1
  F  F0  1  0.87930000  0.74934000  0.99971500  1
  F  F1  1  0.80955000  0.44123700  0.69044900  1
  F  F2  1  0.68798800  0.43639500  0.18850100  1
  F  F3  1  0.69152600  0.05732800  0.80661200  1
  F  F4  1  0.61844600  0.74936300  0.49813800  1
  F  F5  1  0.38274700  0.24907000  0.50079000  1
  F  F6  1  0.30669500  0.93977100  0.19014400  1
  F  F7  1  0.31163500  0.56159400  0.81182800  1
  F  F8  1  0.18999700  0.55832600  0.30932400  1
  F  F9  1  0.19763500  0.94814000  0.69730400  1
  F  F10  1  0.11597800  0.24925200  0.99880600  1
loop_
_geom_bond_atom_site_label_1
_geom_bond_atom_site_label_2
_geom_bond_distance
_geom_bond_site_symmetry_2
Cr0 F7 1.933723 1_555
Cr0 F2 1.935221 1_555
Cr0 F5 1.947521 1_555
Cr0 F1 1.948455 1_555
Cr0 F8 1.948609 1_555
Cr0 F4 1.951135 1_555
Cr1 O0 1.843710 1_555
Cr1 F4 1.943607 1_545
Cr1 F6 1.944885 1_545
Cr1 F5 1.950831 1_555
Cr1 F3 1.957074 1_555
Cr1 F9 1.985710 1_545
Cr2 F7 1.934412 1_655
Cr2 F2 1.936234 1_556
Cr2 F10 1.943225 1_655
Cr2 F1 1.948423 1_555
Cr2 F8 1.948639 1_656
Cr2 F0 1.952604 1_555
Cr3 O0 1.840495 1_555
Cr3 F3 1.937435 1_554
Cr3 F0 1.945331 1_544
Cr3 F6 1.953529 1_645
Cr3 F10 1.954900 1_654
Cr3 F9 1.987998 1_644
