# generated using pymatgen
data_FeOF
_symmetry_space_group_name_H-M   'P 1'
_cell_length_a   3.10311900
_cell_length_b   14.22939400
_cell_length_c   14.29474106
_cell_angle_alpha   89.74455836
_cell_angle_beta   90.00000000
_cell_angle_gamma   90.00000000
_symmetry_Int_Tables_number   1
_chemical_formula_structural   FeOF
_chemical_formula_sum   'Fe18 O18 F18'
_cell_volume   631.18520731
_cell_formula_units_Z   18
loop_
 _symmetry_equiv_pos_site_id
 _symmetry_equiv_pos_as_xyz
  1  'x, y, z'
loop_
 _atom_site_type_symbol
 _atom_site_label
 _atom_site_symmetry_multiplicity
 _atom_site_fract_x
 _atom_site_fract_y
 _atom_site_fract_z
 _atom_site_occupancy
  Fe  Fe0  1  0.00000000  0.98512400  0.99959200  1
  Fe  Fe1  1  0.00000000  0.99697500  0.33333500  1
  Fe  Fe2  1  0.00000000  0.98609100  0.66446900  1
  Fe  Fe3  1  0.50000000  0.82782800  0.14682800  1
  Fe  Fe4  1  0.50000000  0.84747400  0.49585500  1
  Fe  Fe5  1  0.50000000  0.84587100  0.83186400  1
  Fe  Fe6  1  0.00000000  0.66070800  0.00340700  1
  Fe  Fe7  1  0.00000000  0.65431900  0.33037000  1
  Fe  Fe8  1  0.00000000  0.65387000  0.66497600  1
  Fe  Fe9  1  0.50000000  0.51424700  0.49805600  1
  Fe  Fe10  1  0.50000000  0.51508500  0.16429400  1
  Fe  Fe11  1  0.50000000  0.52031900  0.83468600  1
  Fe  Fe12  1  0.00000000  0.32532200  0.99358200  1
  Fe  Fe13  1  0.00000000  0.32149400  0.33004000  1
  Fe  Fe14  1  0.00000000  0.32384000  0.66701900  1
  Fe  Fe15  1  0.50000000  0.15992800  0.18355400  1
  Fe  Fe16  1  0.50000000  0.18374500  0.50107900  1
  Fe  Fe17  1  0.50000000  0.17813100  0.83102600  1
  O  O0  1  0.50000000  0.93582700  0.59953800  1
  O  O1  1  0.50000000  0.93533400  0.93588200  1
  O  O2  1  0.00000000  0.89982300  0.10464100  1
  O  O3  1  0.00000000  0.90173900  0.43014000  1
  O  O4  1  0.00000000  0.89930100  0.76826700  1
  O  O5  1  0.50000000  0.72835700  0.06280800  1
  O  O6  1  0.50000000  0.60317900  0.26900200  1
  O  O7  1  0.50000000  0.60282200  0.60146900  1
  O  O8  1  0.50000000  0.60226900  0.93656100  1
  O  O9  1  0.00000000  0.55968500  0.10130300  1
  O  O10  1  0.00000000  0.56494400  0.43490900  1
  O  O11  1  0.00000000  0.56744200  0.76884300  1
  O  O12  1  0.50000000  0.26844500  0.26610800  1
  O  O13  1  0.50000000  0.27052100  0.60403300  1
  O  O14  1  0.50000000  0.26640600  0.93882800  1
  O  O15  1  0.00000000  0.23164200  0.43489800  1
  O  O16  1  0.00000000  0.23237100  0.77026000  1
  O  O17  1  0.00000000  0.09475500  0.23685800  1
  F  F0  1  0.50000000  0.93187500  0.26943800  1
  F  F1  1  0.00000000  0.76942500  0.23513300  1
  F  F2  1  0.00000000  0.77055700  0.56296700  1
  F  F3  1  0.00000000  0.76919200  0.89420600  1
  F  F4  1  0.50000000  0.73400000  0.73060400  1
  F  F5  1  0.50000000  0.73411400  0.40033800  1
  F  F6  1  0.00000000  0.43340200  0.23430200  1
  F  F7  1  0.00000000  0.43453700  0.56618000  1
  F  F8  1  0.00000000  0.43343300  0.90115200  1
  F  F9  1  0.50000000  0.39319500  0.06695000  1
  F  F10  1  0.50000000  0.39797300  0.39911400  1
  F  F11  1  0.50000000  0.39996100  0.73343000  1
  F  F12  1  0.00000000  0.22887600  0.10454800  1
  F  F13  1  0.00000000  0.10227500  0.56624900  1
  F  F14  1  0.00000000  0.10110900  0.89850700  1
  F  F15  1  0.50000000  0.07003700  0.06490400  1
  F  F16  1  0.50000000  0.06464300  0.40168500  1
  F  F17  1  0.50000000  0.06615800  0.73191100  1
loop_
_geom_bond_atom_site_label_1
_geom_bond_atom_site_label_2
_geom_bond_distance
_geom_bond_site_symmetry_2
Fe0 O2 1.926645 1_556
Fe0 O1 1.935056 1_555
Fe0 O1 1.935056 1_455
Fe1 O3 1.932517 1_555
Fe1 O17 1.954661 1_565
Fe2 O4 1.926232 1_555
Fe2 O0 1.945844 1_555
Fe2 O0 1.945844 1_455
Fe3 O5 1.860391 1_555
Fe3 O2 1.953200 1_555
Fe3 O2 1.953200 1_655
Fe4 O0 1.947787 1_555
Fe4 O3 1.969652 1_555
Fe4 O3 1.969652 1_655
Fe5 O4 1.950811 1_555
Fe5 O4 1.950811 1_655
Fe5 O1 1.961714 1_555
Fe6 O9 2.001692 1_555
Fe6 O8 2.004737 1_554
Fe6 O8 2.004737 1_454
Fe6 O5 2.015500 1_555
Fe6 O5 2.015500 1_455
Fe7 O6 1.926684 1_555
Fe7 O6 1.926684 1_455
Fe7 O10 1.957936 1_555
Fe8 O11 1.923710 1_555
Fe8 O7 1.940355 1_455
Fe8 O7 1.940355 1_555
Fe9 O10 1.933066 1_655
Fe9 O10 1.933066 1_555
Fe9 O7 1.946895 1_555
Fe10 O9 1.901523 1_655
Fe10 O9 1.901523 1_555
Fe10 O6 1.956626 1_555
Fe11 O8 1.869671 1_555
Fe11 O11 1.933183 1_655
Fe11 O11 1.933183 1_555
Fe12 O14 1.930961 1_455
Fe12 O14 1.930961 1_555
Fe13 O12 1.954096 1_455
Fe13 O12 1.954096 1_555
Fe13 O15 1.965790 1_555
Fe14 O13 1.949285 1_455
Fe14 O13 1.949285 1_555
Fe14 O16 1.963389 1_555
Fe15 O12 1.947613 1_555
Fe15 O17 1.960013 1_555
Fe15 O17 1.960013 1_655
Fe16 O13 1.925296 1_555
Fe16 O15 1.939351 1_555
Fe16 O15 1.939351 1_655
Fe17 O16 1.936895 1_655
Fe17 O16 1.936895 1_555
Fe17 O14 1.992419 1_555
F0 Fe1 2.026637 1_655
F0 Fe1 2.026637 1_555
F0 Fe3 2.299342 1_555
F1 Fe7 2.125129 1_555
F1 Fe3 2.163794 1_555
F1 Fe3 2.163794 1_455
F2 Fe4 2.125139 1_455
F2 Fe4 2.125139 1_555
F2 Fe8 2.204907 1_555
F3 Fe5 2.093640 1_455
F3 Fe5 2.093640 1_555
F3 Fe6 2.190463 1_556
F4 Fe8 2.144069 1_655
F4 Fe8 2.144069 1_555
F4 Fe5 2.156332 1_555
F5 Fe4 2.117981 1_555
F5 Fe7 2.169568 1_655
F5 Fe7 2.169568 1_555
F6 Fe13 2.095037 1_555
F6 Fe10 2.179312 1_555
F6 Fe10 2.179312 1_455
F7 Fe14 2.130419 1_555
F7 Fe9 2.152271 1_555
F7 Fe9 2.152271 1_455
F8 Fe12 2.023399 1_555
F8 Fe11 2.197295 1_455
F8 Fe11 2.197295 1_555
F9 Fe12 2.109278 1_554
F9 Fe12 2.109278 1_654
F9 Fe10 2.228459 1_555
F10 Fe13 2.139195 1_655
F10 Fe13 2.139195 1_555
F10 Fe9 2.181433 1_555
F11 Fe14 2.119187 1_555
F11 Fe14 2.119187 1_655
F11 Fe11 2.247270 1_555
F12 Fe12 2.092871 1_554
F12 Fe15 2.153014 1_455
F12 Fe15 2.153014 1_555
F13 Fe16 2.146967 1_455
F13 Fe16 2.146967 1_555
F13 Fe2 2.164201 1_545
F14 Fe17 2.128279 1_455
F14 Fe17 2.128279 1_555
F14 Fe0 2.188726 1_545
F15 Fe15 2.128869 1_555
F15 Fe0 2.179204 1_644
F15 Fe0 2.179204 1_544
F16 Fe1 2.073034 1_545
F16 Fe1 2.073034 1_645
F16 Fe16 2.216382 1_555
F17 Fe17 2.136854 1_555
F17 Fe2 2.155126 1_645
F17 Fe2 2.155126 1_545
