# generated using pymatgen
data_Na6Cr2C4SO16
_symmetry_space_group_name_H-M   'P 1'
_cell_length_a   9.96695434
_cell_length_b   9.96695434
_cell_length_c   9.96695434
_cell_angle_alpha   60.00000000
_cell_angle_beta   60.00000000
_cell_angle_gamma   60.00000000
_symmetry_Int_Tables_number   1
_chemical_formula_structural   Na6Cr2C4SO16
_chemical_formula_sum   'Na12 Cr4 C8 S2 O32'
_cell_volume   700.11987726
_cell_formula_units_Z   2
loop_
 _symmetry_equiv_pos_site_id
 _symmetry_equiv_pos_as_xyz
  1  'x, y, z'
loop_
 _atom_site_type_symbol
 _atom_site_label
 _atom_site_symmetry_multiplicity
 _atom_site_fract_x
 _atom_site_fract_y
 _atom_site_fract_z
 _atom_site_occupancy
  Na  Na0  1  0.28548100  0.28548100  0.71451900  1
  Na  Na1  1  0.96451900  0.53548100  0.53548100  1
  Na  Na2  1  0.28548100  0.71451900  0.28548100  1
  Na  Na3  1  0.71451900  0.28548100  0.71451900  1
  Na  Na4  1  0.53548100  0.96451900  0.96451900  1
  Na  Na5  1  0.53548100  0.53548100  0.96451900  1
  Na  Na6  1  0.71451900  0.28548100  0.28548100  1
  Na  Na7  1  0.71451900  0.71451900  0.28548100  1
  Na  Na8  1  0.53548100  0.96451900  0.53548100  1
  Na  Na9  1  0.96451900  0.53548100  0.96451900  1
  Na  Na10  1  0.28548100  0.71451900  0.71451900  1
  Na  Na11  1  0.96451900  0.96451900  0.53548100  1
  Cr  Cr0  1  0.62500000  0.12500000  0.12500000  1
  Cr  Cr1  1  0.12500000  0.12500000  0.12500000  1
  Cr  Cr2  1  0.12500000  0.12500000  0.62500000  1
  Cr  Cr3  1  0.12500000  0.62500000  0.12500000  1
  C  C0  1  0.28685800  0.90438100  0.90438100  1
  C  C1  1  0.90438100  0.28685800  0.90438100  1
  C  C2  1  0.90438100  0.90438100  0.90438100  1
  C  C3  1  0.90438100  0.90438100  0.28685800  1
  C  C4  1  0.34561900  0.34561900  0.96314200  1
  C  C5  1  0.34561900  0.34561900  0.34561900  1
  C  C6  1  0.34561900  0.96314200  0.34561900  1
  C  C7  1  0.96314200  0.34561900  0.34561900  1
  S  S0  1  0.50000000  0.50000000  0.50000000  1
  S  S1  1  0.75000000  0.75000000  0.75000000  1
  O  O0  1  0.22779100  0.48665500  0.32397900  1
  O  O1  1  0.96157500  0.32397900  0.48665500  1
  O  O2  1  0.28842500  0.02220900  0.92602100  1
  O  O3  1  0.02220900  0.28842400  0.76334500  1
  O  O4  1  0.28842400  0.76334500  0.02220900  1
  O  O5  1  0.56140500  0.56140500  0.31578500  1
  O  O6  1  0.92602100  0.02220900  0.76334500  1
  O  O7  1  0.56140500  0.56140500  0.56140500  1
  O  O8  1  0.56140500  0.31578500  0.56140500  1
  O  O9  1  0.92602100  0.28842500  0.02220900  1
  O  O10  1  0.76334500  0.28842400  0.92602100  1
  O  O11  1  0.31578500  0.56140500  0.56140500  1
  O  O12  1  0.02220900  0.92602100  0.28842400  1
  O  O13  1  0.76334500  0.92602100  0.02220900  1
  O  O14  1  0.92602100  0.76334500  0.28842400  1
  O  O15  1  0.48665500  0.22779100  0.96157600  1
  O  O16  1  0.76334500  0.02220900  0.28842400  1
  O  O17  1  0.32397900  0.48665500  0.96157600  1
  O  O18  1  0.48665500  0.32397900  0.22779100  1
  O  O19  1  0.22779100  0.32397900  0.96157500  1
  O  O20  1  0.93421500  0.68859500  0.68859500  1
  O  O21  1  0.48665500  0.96157600  0.32397900  1
  O  O22  1  0.32397900  0.96157600  0.22779100  1
  O  O23  1  0.68859500  0.68859500  0.68859500  1
  O  O24  1  0.68859500  0.93421500  0.68859500  1
  O  O25  1  0.32397900  0.22779100  0.48665500  1
  O  O26  1  0.68859500  0.68859500  0.93421500  1
  O  O27  1  0.96157600  0.48665500  0.22779100  1
  O  O28  1  0.22779100  0.96157600  0.48665500  1
  O  O29  1  0.96157600  0.22779100  0.32397900  1
  O  O30  1  0.28842400  0.92602100  0.76334500  1
  O  O31  1  0.02220900  0.76334500  0.92602100  1
loop_
_geom_bond_atom_site_label_1
_geom_bond_atom_site_label_2
_geom_bond_distance
_geom_bond_site_symmetry_2
Na0 O2 2.404887 1_555
Na0 O3 2.404891 1_555
Na0 O19 2.418593 1_555
Na0 O25 2.418593 1_555
Na0 O11 2.481153 1_555
Na0 O8 2.481153 1_555
Na1 O0 2.404887 1_655
Na1 O1 2.404887 1_555
Na1 O3 2.418597 1_655
Na1 O14 2.418599 1_555
Na1 O20 2.481153 1_555
Na1 O23 2.481153 1_555
Na2 O12 2.404888 1_555
Na2 O4 2.404891 1_555
Na2 O0 2.418593 1_555
Na2 O22 2.418603 1_555
Na2 O11 2.481153 1_555
Na2 O5 2.481153 1_555
Na3 O10 2.404881 1_555
Na3 O6 2.404887 1_555
Na3 O1 2.418593 1_555
Na3 O15 2.418597 1_555
Na3 O8 2.481153 1_555
Na3 O7 2.481153 1_555
Na4 O22 2.404888 1_556
Na4 O15 2.404891 1_565
Na4 O13 2.418593 1_556
Na4 O2 2.418593 1_565
Na4 O24 2.481153 1_555
Na4 O26 2.481153 1_555
Na5 O17 2.404881 1_555
Na5 O18 2.404887 1_556
Na5 O4 2.418597 1_556
Na5 O10 2.418599 1_555
Na5 O26 2.481153 1_555
Na5 O23 2.481153 1_555
Na6 O9 2.404887 1_555
Na6 O16 2.404891 1_555
Na6 O18 2.418593 1_555
Na6 O29 2.418603 1_555
Na6 O5 2.481153 1_555
Na6 O8 2.481153 1_555
Na7 O14 2.404881 1_555
Na7 O13 2.404887 1_555
Na7 O27 2.418597 1_555
Na7 O21 2.418599 1_555
Na7 O5 2.481153 1_555
Na7 O7 2.481153 1_555
Na8 O21 2.404881 1_555
Na8 O25 2.404887 1_565
Na8 O16 2.418597 1_565
Na8 O30 2.418599 1_555
Na8 O24 2.481153 1_555
Na8 O23 2.481153 1_555
Na9 O19 2.404887 1_655
Na9 O27 2.404891 1_556
Na9 O31 2.418593 1_655
Na9 O9 2.418593 1_556
Na9 O26 2.481153 1_555
Na9 O20 2.481153 1_555
Na10 O30 2.404881 1_555
Na10 O31 2.404887 1_555
Na10 O28 2.418597 1_555
Na10 O17 2.418599 1_555
Na10 O11 2.481153 1_555
Na10 O7 2.481153 1_555
Na11 O29 2.404888 1_565
Na11 O28 2.404891 1_655
Na11 O6 2.418593 1_565
Na11 O12 2.418603 1_655
Na11 O24 2.481153 1_555
Na11 O20 2.481153 1_555
Cr0 O15 2.183707 1_554
Cr0 O16 2.183707 1_555
Cr0 O21 2.183709 1_545
Cr0 O10 2.183709 1_554
Cr0 O18 2.183715 1_555
Cr0 O13 2.183715 1_545
Cr1 O22 2.183715 1_545
Cr1 O29 2.183715 1_455
Cr1 O12 2.183715 1_545
Cr1 O19 2.183715 1_554
Cr1 O9 2.183715 1_455
Cr1 O2 2.183715 1_554
Cr2 O3 2.183707 1_555
Cr2 O28 2.183707 1_545
Cr2 O30 2.183709 1_545
Cr2 O25 2.183715 1_555
Cr2 O6 2.183715 1_455
Cr2 O1 2.183715 1_455
Cr3 O27 2.183707 1_455
Cr3 O4 2.183707 1_555
Cr3 O17 2.183709 1_554
Cr3 O14 2.183709 1_455
Cr3 O0 2.183715 1_555
Cr3 O31 2.183715 1_554
C0 O2 1.304207 1_565
C0 O4 1.304214 1_556
C0 O30 1.304221 1_555
C1 O9 1.304207 1_556
C1 O3 1.304214 1_655
C1 O10 1.304221 1_555
C2 O13 1.304212 1_556
C2 O31 1.304212 1_655
C2 O6 1.304212 1_565
C3 O12 1.304201 1_655
C3 O16 1.304214 1_565
C3 O14 1.304221 1_555
C4 O19 1.304207 1_555
C4 O15 1.304214 1_555
C4 O17 1.304221 1_555
C5 O25 1.304212 1_555
C5 O0 1.304212 1_555
C5 O18 1.304212 1_555
C6 O22 1.304201 1_555
C6 O28 1.304214 1_555
C6 O21 1.304221 1_555
C7 O29 1.304201 1_555
C7 O27 1.304214 1_555
C7 O1 1.304216 1_555
O5 S0 1.499139 1_555
O7 S0 1.499139 1_555
O8 S0 1.499139 1_555
O11 S0 1.499139 1_555
O20 S1 1.499139 1_555
O23 S1 1.499139 1_555
O24 S1 1.499139 1_555
O26 S1 1.499139 1_555
