# generated using pymatgen
data_Li3V3(BO5)2
_symmetry_space_group_name_H-M   'P 1'
_cell_length_a   3.06455600
_cell_length_b   9.11794700
_cell_length_c   12.39028200
_cell_angle_alpha   90.00000000
_cell_angle_beta   90.00000000
_cell_angle_gamma   90.00000000
_symmetry_Int_Tables_number   1
_chemical_formula_structural   Li3V3(BO5)2
_chemical_formula_sum   'Li6 V6 B4 O20'
_cell_volume   346.21494909
_cell_formula_units_Z   2
loop_
 _symmetry_equiv_pos_site_id
 _symmetry_equiv_pos_as_xyz
  1  'x, y, z'
loop_
 _atom_site_type_symbol
 _atom_site_label
 _atom_site_symmetry_multiplicity
 _atom_site_fract_x
 _atom_site_fract_y
 _atom_site_fract_z
 _atom_site_occupancy
  Li  Li0  1  0.50000000  0.73502200  0.00017500  1
  Li  Li1  1  0.00000000  0.74318900  0.49766500  1
  Li  Li2  1  0.50000000  0.26497800  0.50017500  1
  Li  Li3  1  0.00000000  0.25681100  0.99766500  1
  Li  Li4  1  0.00000000  0.48438200  0.39464400  1
  Li  Li5  1  0.00000000  0.51561800  0.89464400  1
  V  V0  1  0.50000000  0.74022100  0.29122300  1
  V  V1  1  0.00000000  0.98675300  0.11129700  1
  V  V2  1  0.00000000  0.01324700  0.61129700  1
  V  V3  1  0.50000000  0.25977900  0.79122300  1
  V  V4  1  0.50000000  0.26020100  0.21909500  1
  V  V5  1  0.50000000  0.73979900  0.71909500  1
  B  B0  1  0.00000000  0.97280600  0.86123800  1
  B  B1  1  0.00000000  0.02719400  0.36123800  1
  B  B2  1  0.00000000  0.46702600  0.63556700  1
  B  B3  1  0.00000000  0.53297400  0.13556700  1
  O  O0  1  0.50000000  0.85829000  0.15767000  1
  O  O1  1  0.50000000  0.86730500  0.58536600  1
  O  O2  1  0.00000000  0.87398200  0.34847600  1
  O  O3  1  0.00000000  0.89122900  0.76187500  1
  O  O4  1  0.00000000  0.90498700  0.95654400  1
  O  O5  1  0.00000000  0.09501300  0.45654400  1
  O  O6  1  0.00000000  0.10877100  0.26187500  1
  O  O7  1  0.00000000  0.12601800  0.84847600  1
  O  O8  1  0.50000000  0.13269500  0.08536600  1
  O  O9  1  0.50000000  0.14171000  0.65767000  1
  O  O10  1  0.50000000  0.34269100  0.34127000  1
  O  O11  1  0.50000000  0.35240500  0.91366600  1
  O  O12  1  0.00000000  0.37523000  0.14995200  1
  O  O13  1  0.00000000  0.38584700  0.73397700  1
  O  O14  1  0.00000000  0.40451900  0.54024700  1
  O  O15  1  0.00000000  0.59548100  0.04024700  1
  O  O16  1  0.00000000  0.61415300  0.23397700  1
  O  O17  1  0.00000000  0.62477000  0.64995200  1
  O  O18  1  0.50000000  0.64759500  0.41366600  1
  O  O19  1  0.50000000  0.65730900  0.84127000  1
loop_
_geom_bond_atom_site_label_1
_geom_bond_atom_site_label_2
_geom_bond_distance
_geom_bond_site_symmetry_2
Li0 O15 2.052610 1_555
Li0 O15 2.052610 1_655
Li0 O19 2.092503 1_554
Li0 O4 2.245394 1_654
Li0 O4 2.245394 1_554
Li0 O0 2.251945 1_555
Li1 O18 2.047145 1_455
Li1 O18 2.047145 1_555
Li1 O17 2.173970 1_555
Li1 O1 2.193027 1_455
Li1 O1 2.193027 1_555
Li1 O2 2.199804 1_555
Li2 O14 2.052610 1_555
Li2 O14 2.052610 1_655
Li2 O10 2.092503 1_555
Li2 O5 2.245394 1_655
Li2 O5 2.245394 1_555
Li2 O9 2.251945 1_555
Li3 O11 2.047145 1_455
Li3 O11 2.047145 1_555
Li3 O12 2.173970 1_556
Li3 O8 2.193027 1_456
Li3 O8 2.193027 1_556
Li3 O7 2.199804 1_555
Li4 O14 1.945481 1_555
Li4 O10 2.110522 1_455
Li4 O10 2.110522 1_555
Li4 O18 2.148969 1_455
Li4 O18 2.148969 1_555
Li4 O16 2.315814 1_555
Li5 O15 1.945481 1_556
Li5 O19 2.110522 1_455
Li5 O19 2.110522 1_555
Li5 O11 2.148969 1_555
Li5 O11 2.148969 1_455
Li5 O13 2.315814 1_555
B0 O4 1.332978 1_555
B0 O7 1.405900 1_565
B0 O3 1.438386 1_555
B1 O5 1.332978 1_555
B1 O2 1.405900 1_545
B1 O6 1.438386 1_555
B2 O14 1.311368 1_555
B2 O13 1.426406 1_555
B2 O17 1.449303 1_555
B3 O15 1.311368 1_555
B3 O16 1.426406 1_555
B3 O12 1.449303 1_555
O0 V0 1.974128 1_555
O0 V1 2.012461 1_655
O0 V1 2.012461 1_555
O1 V5 2.024123 1_555
O1 V2 2.054713 1_565
O1 V2 2.054713 1_665
O2 V0 2.082927 1_455
O2 V0 2.082927 1_555
O3 V5 2.129613 1_555
O3 V5 2.129613 1_455
O3 V2 2.172240 1_565
O4 V1 2.057274 1_556
O5 V2 2.057274 1_555
O6 V4 2.129613 1_555
O6 V4 2.129613 1_455
O6 V1 2.172240 1_545
O7 V3 2.082927 1_555
O7 V3 2.082927 1_455
O8 V4 2.024123 1_555
O8 V1 2.054713 1_645
O8 V1 2.054713 1_545
O9 V3 1.974128 1_555
O9 V2 2.012461 1_655
O9 V2 2.012461 1_555
O10 V4 1.690341 1_555
O11 V3 1.736342 1_555
O12 V4 2.044958 1_555
O12 V4 2.044958 1_455
O13 V3 2.042616 1_555
O13 V3 2.042616 1_455
O16 V0 2.042616 1_555
O16 V0 2.042616 1_455
O17 V5 2.044958 1_555
O17 V5 2.044958 1_455
O18 V0 1.736342 1_555
O19 V5 1.690341 1_555
