# generated using pymatgen
data_Li4Cr3Fe2Sn3O16
_symmetry_space_group_name_H-M   'P 1'
_cell_length_a   6.09102300
_cell_length_b   6.09833252
_cell_length_c   9.66613387
_cell_angle_alpha   90.45819027
_cell_angle_beta   89.79176730
_cell_angle_gamma   119.89582756
_symmetry_Int_Tables_number   1
_chemical_formula_structural   Li4Cr3Fe2Sn3O16
_chemical_formula_sum   'Li4 Cr3 Fe2 Sn3 O16'
_cell_volume   311.26176983
_cell_formula_units_Z   1
loop_
 _symmetry_equiv_pos_site_id
 _symmetry_equiv_pos_as_xyz
  1  'x, y, z'
loop_
 _atom_site_type_symbol
 _atom_site_label
 _atom_site_symmetry_multiplicity
 _atom_site_fract_x
 _atom_site_fract_y
 _atom_site_fract_z
 _atom_site_occupancy
  Li  Li0  1  0.66765500  0.32463200  0.88881500  1
  Li  Li1  1  0.98774200  0.01426000  0.99225500  1
  Li  Li2  1  0.99000500  0.00631200  0.50068500  1
  Li  Li3  1  0.33456800  0.66587500  0.39703600  1
  Cr  Cr0  1  0.83045000  0.17071200  0.21562300  1
  Cr  Cr1  1  0.65983200  0.82818000  0.71418800  1
  Cr  Cr2  1  0.17042800  0.33724300  0.71260600  1
  Fe  Fe0  1  0.67633100  0.33625500  0.49342400  1
  Fe  Fe1  1  0.34050300  0.66153800  0.98808900  1
  Sn  Sn0  1  0.83160900  0.66161300  0.21391600  1
  Sn  Sn1  1  0.33914900  0.16908200  0.21411100  1
  Sn  Sn2  1  0.16899900  0.82812700  0.71441500  1
  O  O0  1  0.83536200  0.67424200  0.59629900  1
  O  O1  1  0.51836200  0.48316400  0.34586700  1
  O  O2  1  0.67128700  0.32879300  0.09835000  1
  O  O3  1  0.99544900  0.00566500  0.31563900  1
  O  O4  1  0.99776600  0.00698200  0.80900700  1
  O  O5  1  0.32418000  0.17508300  0.60064600  1
  O  O6  1  0.96324500  0.47748600  0.34226400  1
  O  O7  1  0.52402800  0.03866000  0.34365900  1
  O  O8  1  0.16100700  0.83792800  0.09141000  1
  O  O9  1  0.84806100  0.17599500  0.60846800  1
  O  O10  1  0.48419900  0.95590200  0.84320300  1
  O  O11  1  0.04009400  0.50328400  0.83812600  1
  O  O12  1  0.33570600  0.65781500  0.60358100  1
  O  O13  1  0.67156900  0.83691200  0.09760800  1
  O  O14  1  0.46948100  0.50912900  0.83045600  1
  O  O15  1  0.16323200  0.32942700  0.09809500  1
loop_
_geom_bond_atom_site_label_1
_geom_bond_atom_site_label_2
_geom_bond_distance
_geom_bond_site_symmetry_2
Li0 O10 1.995584 1_545
Li0 O2 2.025412 1_556
Li0 O11 2.027315 1_655
Li0 O14 2.100025 1_555
Li1 O4 1.773093 1_555
Li1 O15 1.952389 1_656
Li1 O13 1.960260 1_546
Li1 O8 2.084194 1_646
Li2 O3 1.788876 1_555
Li2 O9 1.942105 1_555
Li2 O0 1.991098 1_545
Li2 O5 2.011488 1_655
Li3 O1 1.992491 1_555
Li3 O12 1.997612 1_555
Li3 O6 2.030856 1_455
Li3 O7 2.040919 1_565
Cr0 O3 1.997186 1_555
Cr0 O2 2.027641 1_555
Cr0 O6 2.028495 1_555
Cr0 O7 2.040732 1_555
Cr0 O15 2.093130 1_655
Cr0 O13 2.094929 1_545
Cr1 O4 2.006546 1_565
Cr1 O12 2.018183 1_555
Cr1 O10 2.027732 1_555
Cr1 O14 2.041995 1_555
Cr1 O0 2.073034 1_555
Cr1 O9 2.111815 1_565
Cr2 O14 1.951171 1_555
Cr2 O11 1.975418 1_555
Cr2 O9 1.977251 1_455
Cr2 O5 1.981135 1_555
Cr2 O4 1.985480 1_455
Cr2 O12 2.002319 1_555
Fe0 O0 2.039475 1_555
Fe0 O9 2.081059 1_555
Fe0 O6 2.105221 1_555
Fe0 O7 2.130577 1_555
Fe0 O5 2.130637 1_555
Fe0 O1 2.156971 1_555
Fe1 O13 2.044123 1_556
Fe1 O15 2.060247 1_556
Fe1 O10 2.101185 1_555
Fe1 O8 2.120637 1_556
Fe1 O14 2.121139 1_555
Fe1 O11 2.148800 1_555
O0 Sn2 2.100631 1_655
O1 Sn1 2.090237 1_555
O1 Sn0 2.094324 1_555
O2 Sn0 2.077700 1_555
O2 Sn1 2.080925 1_555
O3 Sn0 2.061994 1_545
O3 Sn1 2.063958 1_655
O4 Sn2 2.055391 1_645
O5 Sn2 2.148405 1_545
O6 Sn0 2.090421 1_555
O7 Sn1 2.094704 1_555
O8 Sn0 2.106290 1_455
O8 Sn1 2.109282 1_565
O10 Sn2 2.086493 1_555
O11 Sn2 2.109823 1_555
O12 Sn2 2.069581 1_555
O13 Sn0 2.103097 1_555
O15 Sn1 2.105384 1_555
