# generated using pymatgen
data_MnFeCo(PO4)3
_symmetry_space_group_name_H-M   'P 1'
_cell_length_a   5.98498000
_cell_length_b   9.83659600
_cell_length_c   14.59043713
_cell_angle_alpha   89.75249987
_cell_angle_beta   90.00000000
_cell_angle_gamma   90.00000000
_symmetry_Int_Tables_number   1
_chemical_formula_structural   MnFeCo(PO4)3
_chemical_formula_sum   'Mn4 Fe4 Co4 P12 O48'
_cell_volume   858.95772491
_cell_formula_units_Z   4
loop_
 _symmetry_equiv_pos_site_id
 _symmetry_equiv_pos_as_xyz
  1  'x, y, z'
loop_
 _atom_site_type_symbol
 _atom_site_label
 _atom_site_symmetry_multiplicity
 _atom_site_fract_x
 _atom_site_fract_y
 _atom_site_fract_z
 _atom_site_occupancy
  Mn  Mn0  1  0.00000000  0.21579500  0.48041900  1
  Mn  Mn1  1  0.00000000  0.21660800  0.81281100  1
  Mn  Mn2  1  0.50000000  0.28420800  0.64627700  1
  Mn  Mn3  1  0.50000000  0.28475700  0.97781100  1
  Fe  Fe0  1  0.00000000  0.22185300  0.15236700  1
  Fe  Fe1  1  0.50000000  0.27407600  0.31929400  1
  Fe  Fe2  1  0.00000000  0.72623500  0.01051500  1
  Fe  Fe3  1  0.00000000  0.72867100  0.34384900  1
  Co  Co0  1  0.00000000  0.72977800  0.67614900  1
  Co  Co1  1  0.50000000  0.77278200  0.84253900  1
  Co  Co2  1  0.50000000  0.77038600  0.51099800  1
  Co  Co3  1  0.50000000  0.77490000  0.17631600  1
  P  P0  1  0.50000000  0.09860500  0.80559000  1
  P  P1  1  0.50000000  0.09791600  0.13773800  1
  P  P2  1  0.50000000  0.09603800  0.47341400  1
  P  P3  1  0.00000000  0.39957800  0.30596900  1
  P  P4  1  0.00000000  0.40128900  0.97116700  1
  P  P5  1  0.00000000  0.40229400  0.63941700  1
  P  P6  1  0.50000000  0.60093300  0.36182700  1
  P  P7  1  0.50000000  0.59997000  0.02803900  1
  P  P8  1  0.50000000  0.60002100  0.69624500  1
  P  P9  1  0.00000000  0.90166500  0.52968600  1
  P  P10  1  0.00000000  0.90189200  0.19601700  1
  P  P11  1  0.00000000  0.90077300  0.86108000  1
  O  O0  1  0.00000000  0.05495700  0.55309900  1
  O  O1  1  0.00000000  0.05319500  0.21937000  1
  O  O2  1  0.00000000  0.05352900  0.88289700  1
  O  O3  1  0.50000000  0.11820700  0.24168900  1
  O  O4  1  0.50000000  0.11848300  0.57706700  1
  O  O5  1  0.50000000  0.11850200  0.90981400  1
  O  O6  1  0.29927900  0.16991200  0.75656100  1
  O  O7  1  0.70072100  0.16991200  0.75656100  1
  O  O8  1  0.29536900  0.16763500  0.09118900  1
  O  O9  1  0.70463100  0.16763500  0.09118900  1
  O  O10  1  0.30229600  0.17052600  0.42290200  1
  O  O11  1  0.69770400  0.17052600  0.42290200  1
  O  O12  1  0.79892300  0.32570100  0.25818100  1
  O  O13  1  0.20107700  0.32570100  0.25818100  1
  O  O14  1  0.79873700  0.32874800  0.92304400  1
  O  O15  1  0.20126300  0.32874800  0.92304400  1
  O  O16  1  0.79949300  0.33037700  0.59057200  1
  O  O17  1  0.20050700  0.33037700  0.59057200  1
  O  O18  1  0.00000000  0.37973000  0.07491700  1
  O  O19  1  0.00000000  0.37908300  0.41074000  1
  O  O20  1  0.00000000  0.38180000  0.74376400  1
  O  O21  1  0.50000000  0.44850000  0.38239000  1
  O  O22  1  0.50000000  0.44715400  0.05021600  1
  O  O23  1  0.50000000  0.44647500  0.71770600  1
  O  O24  1  0.00000000  0.55137000  0.28625600  1
  O  O25  1  0.00000000  0.55346800  0.94937400  1
  O  O26  1  0.00000000  0.55652500  0.62065600  1
  O  O27  1  0.50000000  0.62515600  0.25742900  1
  O  O28  1  0.50000000  0.62257000  0.59121900  1
  O  O29  1  0.50000000  0.62400600  0.92349200  1
  O  O30  1  0.29817200  0.67362900  0.41056800  1
  O  O31  1  0.70182800  0.67362900  0.41056800  1
  O  O32  1  0.29748400  0.67124000  0.07620200  1
  O  O33  1  0.70251600  0.67124000  0.07620200  1
  O  O34  1  0.29783100  0.67047100  0.74432200  1
  O  O35  1  0.70216900  0.67047100  0.74432200  1
  O  O36  1  0.79839100  0.83025600  0.57919400  1
  O  O37  1  0.20160900  0.83025600  0.57919400  1
  O  O38  1  0.79999400  0.82802400  0.24569300  1
  O  O39  1  0.20000600  0.82802400  0.24569300  1
  O  O40  1  0.79918700  0.83002400  0.91042200  1
  O  O41  1  0.20081300  0.83002400  0.91042200  1
  O  O42  1  0.00000000  0.87818300  0.75656100  1
  O  O43  1  0.00000000  0.88069200  0.09243400  1
  O  O44  1  0.00000000  0.88388500  0.42595900  1
  O  O45  1  0.50000000  0.94422100  0.78675200  1
  O  O46  1  0.50000000  0.94327800  0.45401700  1
  O  O47  1  0.50000000  0.94260300  0.11844400  1
loop_
_geom_bond_atom_site_label_1
_geom_bond_atom_site_label_2
_geom_bond_distance
_geom_bond_site_symmetry_2
Mn0 O19 1.897192 1_555
Mn0 O0 1.900805 1_555
Mn0 O11 2.044285 1_455
Mn0 O10 2.044285 1_555
Mn0 O16 2.304148 1_455
Mn0 O17 2.304148 1_555
Mn1 O2 1.898626 1_555
Mn1 O20 1.908180 1_555
Mn1 O7 2.023890 1_455
Mn1 O6 2.023890 1_555
Mn1 O15 2.295613 1_555
Mn1 O14 2.295613 1_455
Mn2 O23 1.910032 1_555
Mn2 O4 1.921296 1_555
Mn2 O16 2.019047 1_555
Mn2 O17 2.019047 1_555
Mn2 O6 2.297979 1_555
Mn2 O7 2.297979 1_555
Mn3 O5 1.916447 1_555
Mn3 O22 1.918958 1_556
Mn3 O15 2.004867 1_555
Mn3 O14 2.004867 1_555
Mn3 O8 2.355258 1_556
Mn3 O9 2.355258 1_556
Fe0 O18 1.916645 1_555
Fe0 O1 1.921990 1_555
Fe0 O8 2.051911 1_555
Fe0 O9 2.051911 1_455
Fe0 O12 2.211091 1_455
Fe0 O13 2.211091 1_555
Fe1 O3 1.909933 1_555
Fe1 O21 1.950617 1_555
Fe1 O13 2.061486 1_555
Fe1 O12 2.061486 1_555
Fe1 O11 2.170135 1_555
Fe1 O10 2.170135 1_555
Fe2 O25 1.922755 1_554
Fe2 O43 1.937173 1_555
Fe2 O33 2.092044 1_455
Fe2 O32 2.092044 1_555
Fe2 O40 2.146313 1_454
Fe2 O41 2.146313 1_554
Fe3 O24 1.939187 1_555
Fe3 O44 1.944764 1_555
Fe3 O30 2.102580 1_555
Fe3 O31 2.102580 1_455
Fe3 O39 2.104025 1_555
Fe3 O38 2.104025 1_455
Co0 O42 1.876784 1_555
Co0 O26 1.889933 1_555
Co0 O37 2.102823 1_555
Co0 O36 2.102823 1_455
Co0 O35 2.121802 1_455
Co0 O34 2.121802 1_555
Co1 O45 1.869367 1_555
Co1 O29 1.876657 1_555
Co1 O41 2.123485 1_555
Co1 O40 2.123485 1_555
Co1 O34 2.131408 1_555
Co1 O35 2.131408 1_555
Co2 O28 1.862634 1_555
Co2 O46 1.889775 1_555
Co2 O30 2.127008 1_555
Co2 O31 2.127008 1_555
Co2 O37 2.128671 1_555
Co2 O36 2.128671 1_555
Co3 O47 1.849921 1_555
Co3 O27 1.885522 1_555
Co3 O38 2.127425 1_555
Co3 O39 2.127425 1_555
Co3 O32 2.157619 1_555
Co3 O33 2.157619 1_555
O0 P9 1.547521 1_545
O1 P10 1.528246 1_545
O2 P11 1.537291 1_545
O3 P1 1.530622 1_555
O4 P2 1.529317 1_555
O5 P0 1.534055 1_555
O6 P0 1.562861 1_555
O7 P0 1.562861 1_555
O8 P1 1.558040 1_555
O9 P1 1.558040 1_555
O10 P2 1.573355 1_555
O11 P2 1.573355 1_555
O12 P3 1.570635 1_655
O13 P3 1.570635 1_555
O14 P4 1.567622 1_655
O15 P4 1.567622 1_555
O16 P5 1.566131 1_655
O17 P5 1.566131 1_555
O18 P4 1.527633 1_554
O19 P3 1.541027 1_555
O20 P5 1.534893 1_555
O21 P6 1.527872 1_555
O22 P7 1.536253 1_555
O23 P8 1.541162 1_555
O24 P3 1.519346 1_555
O25 P4 1.528977 1_555
O26 P5 1.540441 1_555
O27 P6 1.540719 1_555
O28 P8 1.547396 1_555
O29 P7 1.542591 1_556
O30 P6 1.574987 1_555
O31 P6 1.574987 1_555
O32 P7 1.568000 1_555
O33 P7 1.568000 1_555
O34 P8 1.562220 1_555
O35 P8 1.562220 1_555
O36 P9 1.570585 1_655
O37 P9 1.570585 1_555
O38 P10 1.575317 1_655
O39 P10 1.575317 1_555
O40 P11 1.562929 1_655
O41 P11 1.562929 1_555
O42 P11 1.542032 1_555
O43 P10 1.526533 1_555
O44 P9 1.524245 1_555
O45 P0 1.544454 1_565
O46 P2 1.530259 1_565
O47 P1 1.554666 1_565
