# generated using pymatgen
data_Zr2N2O
_symmetry_space_group_name_H-M   'P 1'
_cell_length_a   8.86681000
_cell_length_b   8.87617378
_cell_length_c   8.87817098
_cell_angle_alpha   109.65738107
_cell_angle_beta   109.36006578
_cell_angle_gamma   109.33705866
_symmetry_Int_Tables_number   1
_chemical_formula_structural   Zr2N2O
_chemical_formula_sum   'Zr16 N16 O8'
_cell_volume   538.28007234
_cell_formula_units_Z   8
loop_
 _symmetry_equiv_pos_site_id
 _symmetry_equiv_pos_as_xyz
  1  'x, y, z'
loop_
 _atom_site_type_symbol
 _atom_site_label
 _atom_site_symmetry_multiplicity
 _atom_site_fract_x
 _atom_site_fract_y
 _atom_site_fract_z
 _atom_site_occupancy
  Zr  Zr0  1  0.46453200  0.70864600  0.24945200  1
  Zr  Zr1  1  0.01011700  0.01727400  0.48985100  1
  Zr  Zr2  1  0.78806800  0.82247400  0.96799700  1
  Zr  Zr3  1  0.70551400  0.16756900  0.53620900  1
  Zr  Zr4  1  0.69172500  0.46989400  0.28071900  1
  Zr  Zr5  1  0.68264700  0.96687700  0.78099900  1
  Zr  Zr6  1  0.99863100  0.49755500  0.00203600  1
  Zr  Zr7  1  0.95161500  0.20377000  0.25474300  1
  Zr  Zr8  1  0.03306000  0.77504900  0.75753300  1
  Zr  Zr9  1  0.51356100  0.02031000  0.98826300  1
  Zr  Zr10  1  0.50680600  0.50233300  0.50241800  1
  Zr  Zr11  1  0.32128300  0.04481100  0.21232600  1
  Zr  Zr12  1  0.31595100  0.53328200  0.71292600  1
  Zr  Zr13  1  0.22146100  0.18322400  0.03634700  1
  Zr  Zr14  1  0.27990700  0.81907600  0.46670200  1
  Zr  Zr15  1  0.53882000  0.29040600  0.74899900  1
  N  N0  1  0.97559400  0.20481800  0.53507500  1
  N  N1  1  0.25656400  0.48446900  0.98385700  1
  N  N2  1  0.55800200  0.28671600  0.48633300  1
  N  N3  1  0.79943100  0.07371000  0.96999900  1
  N  N4  1  0.21754400  0.68300100  0.77373000  1
  N  N5  1  0.58492700  0.32189000  0.95054200  1
  N  N6  1  0.82570500  0.06365100  0.45051900  1
  N  N7  1  0.29693200  0.24713700  0.73825800  1
  N  N8  1  0.77570300  0.31146200  0.22998900  1
  N  N9  1  0.19196500  0.92398800  0.03407100  1
  N  N10  1  0.74677600  0.51948900  0.01289600  1
  N  N11  1  0.43934500  0.71117400  0.51285900  1
  N  N12  1  0.81367100  0.29900000  0.72988400  1
  N  N13  1  0.50963700  0.49686600  0.23014600  1
  N  N14  1  0.99665900  0.96090800  0.27289500  1
  N  N15  1  0.02499400  0.79701200  0.46610800  1
  O  O0  1  0.99416800  0.03088400  0.73063000  1
  O  O1  1  0.49149400  0.50177700  0.77084800  1
  O  O2  1  0.18513500  0.69627200  0.27329700  1
  O  O3  1  0.42318500  0.68160800  0.04490500  1
  O  O4  1  0.69897500  0.75274200  0.26238000  1
  O  O5  1  0.17357000  0.93432800  0.55033500  1
  O  O6  1  0.45883800  0.00600700  0.76562700  1
  O  O7  1  0.53748700  0.98854200  0.23729700  1
loop_
_geom_bond_atom_site_label_1
_geom_bond_atom_site_label_2
_geom_bond_distance
_geom_bond_site_symmetry_2
N0 N6 1.225871 1_555
N0 Zr1 1.730699 1_655
N0 Zr3 2.310435 1_555
N0 Zr7 2.423193 1_555
N0 Zr12 2.831517 1_655
N1 O3 1.630145 1_556
N1 Zr0 2.109592 1_556
N1 Zr6 2.382886 1_456
N1 Zr12 2.764175 1_555
N1 Zr13 2.801278 1_556
N2 Zr3 1.967848 1_555
N2 Zr10 2.079363 1_555
N2 Zr11 2.247144 1_555
N2 Zr15 2.384002 1_555
N3 Zr5 1.383568 1_545
N3 Zr7 2.070645 1_556
N3 Zr2 2.192437 1_545
N4 Zr12 1.848349 1_555
N4 Zr8 2.042595 1_555
N4 Zr9 2.669386 1_565
N5 Zr15 1.596828 1_555
N6 Zr1 1.768900 1_655
N6 Zr3 1.811558 1_555
N7 Zr15 2.012685 1_555
N7 Zr1 2.304777 1_555
N8 Zr4 1.795714 1_555
N8 Zr7 2.072777 1_555
N8 Zr9 2.381241 1_554
N9 Zr11 1.345399 1_565
N9 Zr8 2.012444 1_554
N9 Zr13 2.220404 1_565
N10 N5 1.610994 1_554
N10 Zr15 2.114572 1_554
N10 Zr6 2.334998 1_555
N10 Zr4 2.723479 1_555
N10 Zr2 2.773350 1_554
N11 Zr14 1.964798 1_555
N11 Zr10 2.111422 1_555
N11 Zr5 2.278113 1_555
N11 Zr0 2.415281 1_555
N11 Zr12 2.979369 1_555
N12 Zr3 1.432997 1_555
N12 Zr6 2.056072 1_556
N12 Zr15 2.476619 1_555
N13 Zr4 1.647218 1_555
N13 Zr0 2.012341 1_555
N13 Zr10 2.410048 1_555
N13 Zr13 2.528107 1_555
N14 Zr1 1.770424 1_665
N14 Zr2 2.279446 1_554
N14 Zr7 2.365101 1_565
N14 Zr11 3.000817 1_665
N15 O5 1.204395 1_555
N15 Zr1 1.948370 1_565
N15 Zr8 2.638796 1_555
O0 Zr1 2.154590 1_655
O0 Zr13 2.314379 1_656
O0 Zr8 2.482251 1_645
O0 Zr5 2.846595 1_545
O1 Zr12 1.618542 1_555
O1 Zr15 2.015991 1_555
O1 Zr10 2.433092 1_555
O1 Zr2 2.592419 1_555
O2 Zr14 1.421330 1_555
O2 Zr6 2.053210 1_455
O2 Zr0 2.525343 1_555
O3 Zr0 1.642245 1_555
O3 Zr12 2.454921 1_554
O4 Zr0 1.939169 1_555
O4 Zr1 2.455340 1_665
O5 Zr14 1.754635 1_555
O5 Zr1 1.840529 1_565
O6 Zr9 1.820165 1_555
O6 Zr5 2.094320 1_545
O6 Zr14 2.194504 1_545
O6 Zr15 2.455962 1_555
O7 Zr11 2.097724 1_565
O7 Zr3 2.181969 1_565
O7 Zr9 2.271777 1_564
O7 Zr0 2.400983 1_555
