# generated using pymatgen
data_LiFePCO7
_symmetry_space_group_name_H-M   'P 1'
_cell_length_a   8.24125500
_cell_length_b   8.28284091
_cell_length_c   8.48977786
_cell_angle_alpha   94.13790282
_cell_angle_beta   93.64495878
_cell_angle_gamma   102.12060757
_symmetry_Int_Tables_number   1
_chemical_formula_structural   LiFePCO7
_chemical_formula_sum   'Li4 Fe4 P4 C4 O28'
_cell_volume   563.28041722
_cell_formula_units_Z   4
loop_
 _symmetry_equiv_pos_site_id
 _symmetry_equiv_pos_as_xyz
  1  'x, y, z'
loop_
 _atom_site_type_symbol
 _atom_site_label
 _atom_site_symmetry_multiplicity
 _atom_site_fract_x
 _atom_site_fract_y
 _atom_site_fract_z
 _atom_site_occupancy
  Li  Li0  1  0.74318000  0.50196600  0.11111400  1
  Li  Li1  1  0.58951600  0.12862700  0.28841100  1
  Li  Li2  1  0.26395300  0.51334000  0.89076600  1
  Li  Li3  1  0.77148900  0.01280700  0.88438900  1
  Fe  Fe0  1  0.46915200  0.72005700  0.33511400  1
  Fe  Fe1  1  0.97804900  0.22164400  0.33580000  1
  Fe  Fe2  1  0.02697200  0.77507200  0.66305000  1
  Fe  Fe3  1  0.52056400  0.27068600  0.66313500  1
  P  P0  1  0.75546800  0.50645900  0.42232600  1
  P  P1  1  0.25438400  0.99844100  0.42312700  1
  P  P2  1  0.73606700  0.99390000  0.57529400  1
  P  P3  1  0.24127200  0.48846400  0.57793600  1
  C  C0  1  0.52629600  0.78401100  0.04889100  1
  C  C1  1  0.02602500  0.27486600  0.04882500  1
  C  C2  1  0.97030100  0.72409600  0.94597500  1
  C  C3  1  0.49362800  0.23073200  0.96093400  1
  O  O0  1  0.41365800  0.65421500  0.06872200  1
  O  O1  1  0.90244900  0.15523800  0.07188500  1
  O  O2  1  0.93474800  0.68736600  0.08194500  1
  O  O3  1  0.59486000  0.87213000  0.18060100  1
  O  O4  1  0.47627500  0.19020600  0.10018100  1
  O  O5  1  0.10980200  0.35215200  0.17824800  1
  O  O6  1  0.63501700  0.57585200  0.30999900  1
  O  O7  1  0.80489600  0.37122000  0.30719600  1
  O  O8  1  0.30624700  0.86408800  0.31397700  1
  O  O9  1  0.11881700  0.06085000  0.32700400  1
  O  O10  1  0.90857800  0.64550500  0.47872200  1
  O  O11  1  0.79273200  0.07609000  0.42342100  1
  O  O12  1  0.31947500  0.55477000  0.43003400  1
  O  O13  1  0.41324200  0.14129600  0.46618700  1
  O  O14  1  0.58932800  0.84721600  0.52108400  1
  O  O15  1  0.67498800  0.43201200  0.56608000  1
  O  O16  1  0.19376400  0.93495200  0.57970800  1
  O  O17  1  0.08836200  0.34791000  0.52150200  1
  O  O18  1  0.87232400  0.93678300  0.67597400  1
  O  O19  1  0.18632200  0.61904800  0.68980800  1
  O  O20  1  0.67854100  0.11941500  0.69299200  1
  O  O21  1  0.36291700  0.41962100  0.68909100  1
  O  O22  1  0.88598900  0.64060600  0.81941900  1
  O  O23  1  0.57706800  0.82749300  0.91886600  1
  O  O24  1  0.39940200  0.14780800  0.84158900  1
  O  O25  1  0.06692500  0.32137300  0.91690100  1
  O  O26  1  0.60558300  0.35548200  0.92746000  1
  O  O27  1  0.08814200  0.84288500  0.91050300  1
loop_
_geom_bond_atom_site_label_1
_geom_bond_atom_site_label_2
_geom_bond_distance
_geom_bond_site_symmetry_2
Li0 O2 1.999620 1_555
Li0 O26 2.028166 1_554
Li0 O6 2.071581 1_555
Li0 O7 2.141609 1_555
Li1 O4 1.952614 1_555
Li1 O11 2.107582 1_555
Li1 O13 2.172387 1_555
Li1 O3 2.262096 1_545
Li1 O7 2.373517 1_555
Li2 O0 2.017490 1_556
Li2 O25 2.055853 1_555
Li2 O19 2.097306 1_555
Li2 O21 2.109721 1_555
Li3 O1 2.016505 1_556
Li3 O23 2.025001 1_545
Li3 O20 2.083195 1_555
Li3 O18 2.112762 1_545
Fe0 O12 1.903075 1_555
Fe0 O14 1.925124 1_555
Fe0 O8 1.982596 1_555
Fe0 O6 2.006633 1_555
Fe0 O3 2.060069 1_555
Fe0 O0 2.281930 1_555
Fe1 O17 1.893774 1_655
Fe1 O9 1.941827 1_655
Fe1 O11 1.959585 1_555
Fe1 O5 2.009240 1_655
Fe1 O7 2.090929 1_555
Fe1 O1 2.282905 1_555
Fe2 O16 1.907413 1_555
Fe2 O10 1.917402 1_455
Fe2 O18 2.035653 1_455
Fe2 O19 2.040452 1_555
Fe2 O22 2.053983 1_455
Fe2 O27 2.135232 1_555
Fe3 O15 1.913685 1_555
Fe3 O13 1.970252 1_555
Fe3 O21 1.982044 1_555
Fe3 O20 2.004512 1_555
Fe3 O24 2.077585 1_555
Fe3 O26 2.320776 1_555
C0 O23 1.255455 1_554
C0 O0 1.293347 1_555
C0 O3 1.315690 1_555
C1 O25 1.253854 1_554
C1 O1 1.298804 1_455
C1 O5 1.307751 1_555
C2 O2 1.251876 1_556
C2 O27 1.296379 1_655
C2 O22 1.308240 1_555
C3 O4 1.260663 1_556
C3 O26 1.294250 1_555
C3 O24 1.294960 1_555
O6 P0 1.556760 1_555
O7 P0 1.568534 1_555
O8 P1 1.543062 1_555
O9 P1 1.539117 1_545
O10 P0 1.543102 1_555
O11 P2 1.553616 1_545
O12 P3 1.532135 1_555
O13 P1 1.572858 1_545
O14 P2 1.543345 1_555
O15 P0 1.532774 1_555
O16 P1 1.538916 1_555
O17 P3 1.549052 1_555
O18 P2 1.541036 1_555
O19 P3 1.545685 1_555
O20 P2 1.556060 1_545
O21 P3 1.555033 1_555
