# generated using pymatgen
data_LiPWO5
_symmetry_space_group_name_H-M   'P 1'
_cell_length_a   7.09787700
_cell_length_b   7.46169314
_cell_length_c   8.13231515
_cell_angle_alpha   89.67082537
_cell_angle_beta   92.38234979
_cell_angle_gamma   115.90471277
_symmetry_Int_Tables_number   1
_chemical_formula_structural   LiPWO5
_chemical_formula_sum   'Li4 P4 W4 O20'
_cell_volume   387.05688843
_cell_formula_units_Z   4
loop_
 _symmetry_equiv_pos_site_id
 _symmetry_equiv_pos_as_xyz
  1  'x, y, z'
loop_
 _atom_site_type_symbol
 _atom_site_label
 _atom_site_symmetry_multiplicity
 _atom_site_fract_x
 _atom_site_fract_y
 _atom_site_fract_z
 _atom_site_occupancy
  Li  Li0  1  0.29698900  0.81702300  0.43115800  1
  Li  Li1  1  0.21766800  0.29638500  0.06971500  1
  Li  Li2  1  0.78233200  0.70361500  0.93028500  1
  Li  Li3  1  0.70301100  0.18297700  0.56884200  1
  P  P0  1  0.23213800  0.74551000  0.09445700  1
  P  P1  1  0.26459800  0.24132600  0.40616500  1
  P  P2  1  0.73540200  0.75867400  0.59383500  1
  P  P3  1  0.76786200  0.25449000  0.90554300  1
  W  W0  1  0.24464900  0.49852100  0.74401600  1
  W  W1  1  0.24558300  0.00051500  0.75771800  1
  W  W2  1  0.75441700  0.99948500  0.24228200  1
  W  W3  1  0.75535100  0.50147900  0.25598400  1
  O  O0  1  0.12819100  0.84501400  0.97726300  1
  O  O1  1  0.08656100  0.64516000  0.23877500  1
  O  O2  1  0.24332700  0.75143400  0.66343100  1
  O  O3  1  0.27450400  0.58960000  0.99668800  1
  O  O4  1  0.20080500  0.37643100  0.50965200  1
  O  O5  1  0.43309600  0.90341500  0.18144400  1
  O  O6  1  0.07306000  0.09407200  0.30223900  1
  O  O7  1  0.26594000  0.25897800  0.84155500  1
  O  O8  1  0.64530600  0.87610800  0.48084100  1
  O  O9  1  0.42380500  0.36314100  0.27654600  1
  O  O10  1  0.57619500  0.63685900  0.72345400  1
  O  O11  1  0.35469400  0.12389200  0.51915900  1
  O  O12  1  0.73406000  0.74102200  0.15844500  1
  O  O13  1  0.92694000  0.90592800  0.69776100  1
  O  O14  1  0.56690400  0.09658500  0.81855600  1
  O  O15  1  0.79919500  0.62356900  0.49034800  1
  O  O16  1  0.72549600  0.41040000  0.00331200  1
  O  O17  1  0.75667300  0.24856600  0.33656900  1
  O  O18  1  0.91343900  0.35484000  0.76122500  1
  O  O19  1  0.87180900  0.15498600  0.02273700  1
loop_
_geom_bond_atom_site_label_1
_geom_bond_atom_site_label_2
_geom_bond_distance
_geom_bond_site_symmetry_2
Li0 O2 1.959315 1_555
Li0 O1 2.116197 1_555
Li0 O5 2.253158 1_555
Li0 O11 2.257862 1_565
Li0 O8 2.331646 1_555
Li1 O7 1.944333 1_554
Li1 O9 2.094347 1_555
Li1 O3 2.129800 1_554
Li1 O19 2.224654 1_455
Li1 O6 2.383870 1_555
Li2 O12 1.944333 1_556
Li2 O10 2.094347 1_555
Li2 O16 2.129800 1_556
Li2 O0 2.224654 1_655
Li2 O13 2.383870 1_555
Li3 O17 1.959315 1_555
Li3 O18 2.116197 1_555
Li3 O14 2.253158 1_555
Li3 O8 2.257862 1_545
Li3 O11 2.331646 1_555
O0 P0 1.554343 1_556
O0 W1 2.117402 1_565
O1 P0 1.555789 1_555
O1 W3 2.125816 1_455
O2 W0 1.997920 1_555
O2 W1 2.007938 1_565
O3 P0 1.553110 1_556
O3 W0 2.140798 1_555
O4 P1 1.539433 1_555
O4 W0 2.069355 1_555
O5 P0 1.542877 1_555
O5 W2 2.107603 1_555
O6 P1 1.542661 1_555
O6 W2 2.090131 1_445
O7 W1 1.992119 1_555
O7 W0 2.014094 1_555
O8 P2 1.566098 1_555
O8 W2 2.166210 1_555
O9 P1 1.550756 1_555
O9 W3 2.130643 1_555
O10 P2 1.550756 1_555
O10 W0 2.130643 1_555
O11 P1 1.566098 1_555
O11 W1 2.166210 1_555
O12 W2 1.992119 1_555
O12 W3 2.014094 1_555
O13 P2 1.542661 1_555
O13 W1 2.090131 1_665
O14 P3 1.542877 1_555
O14 W1 2.107603 1_555
O15 P2 1.539433 1_555
O15 W3 2.069355 1_555
O16 P3 1.553110 1_554
O16 W3 2.140798 1_555
O17 W3 1.997920 1_555
O17 W2 2.007938 1_545
O18 P3 1.555789 1_555
O18 W0 2.125816 1_655
O19 P3 1.554343 1_554
O19 W2 2.117402 1_545
