# generated using pymatgen
data_LiMnPO4F
_symmetry_space_group_name_H-M   'P 1'
_cell_length_a   7.31735829
_cell_length_b   7.31735829
_cell_length_c   9.98017075
_cell_angle_alpha   62.60508860
_cell_angle_beta   62.60508860
_cell_angle_gamma   50.26793458
_symmetry_Int_Tables_number   1
_chemical_formula_structural   LiMnPO4F
_chemical_formula_sum   'Li4 Mn4 P4 O16 F4'
_cell_volume   353.92206095
_cell_formula_units_Z   4
loop_
 _symmetry_equiv_pos_site_id
 _symmetry_equiv_pos_as_xyz
  1  'x, y, z'
loop_
 _atom_site_type_symbol
 _atom_site_label
 _atom_site_symmetry_multiplicity
 _atom_site_fract_x
 _atom_site_fract_y
 _atom_site_fract_z
 _atom_site_occupancy
  Li  Li0  1  0.96412500  0.46031800  0.35378300  1
  Li  Li1  1  0.18298200  0.41989200  0.01592200  1
  Li  Li2  1  0.46031800  0.96412500  0.85378300  1
  Li  Li3  1  0.41989200  0.18298200  0.51592200  1
  Mn  Mn0  1  0.09650100  0.89133800  0.73287100  1
  Mn  Mn1  1  0.36844400  0.81235400  0.37491400  1
  Mn  Mn2  1  0.89133800  0.09650100  0.23287100  1
  Mn  Mn3  1  0.81235400  0.36844400  0.87491400  1
  P  P0  1  0.69379300  0.95269900  0.04552000  1
  P  P1  1  0.56344700  0.37810600  0.65938300  1
  P  P2  1  0.37810600  0.56344700  0.15938300  1
  P  P3  1  0.95269900  0.69379300  0.54552000  1
  O  O0  1  0.76191900  0.11571100  0.05080600  1
  O  O1  1  0.21531100  0.49803700  0.16746600  1
  O  O2  1  0.66442200  0.79580900  0.21553500  1
  O  O3  1  0.80463600  0.22964900  0.71486500  1
  O  O4  1  0.61769300  0.52362100  0.48795700  1
  O  O5  1  0.37386900  0.55767700  0.77030900  1
  O  O6  1  0.92218400  0.77895100  0.93661000  1
  O  O7  1  0.46810200  0.09873900  0.98777600  1
  O  O8  1  0.11571100  0.76191900  0.55080600  1
  O  O9  1  0.49803700  0.21531100  0.66746600  1
  O  O10  1  0.22964900  0.80463600  0.21486500  1
  O  O11  1  0.52362100  0.61769300  0.98795700  1
  O  O12  1  0.55767700  0.37386900  0.27030900  1
  O  O13  1  0.77895100  0.92218400  0.43661000  1
  O  O14  1  0.79580900  0.66442200  0.71553500  1
  O  O15  1  0.09873900  0.46810200  0.48777600  1
  F  F0  1  0.29580000  0.98297000  0.54160800  1
  F  F1  1  0.08962300  0.14991400  0.31215400  1
  F  F2  1  0.98297000  0.29580000  0.04160800  1
  F  F3  1  0.14991400  0.08962300  0.81215400  1
loop_
_geom_bond_atom_site_label_1
_geom_bond_atom_site_label_2
_geom_bond_distance
_geom_bond_site_symmetry_2
Li0 O1 1.985755 1_655
Li0 O15 2.028744 1_655
Li0 O4 2.092762 1_555
Li0 O2 2.350458 1_555
Li1 O7 1.937652 1_554
Li1 O1 1.992091 1_555
Li1 O6 2.058606 1_454
Li1 O5 2.313316 1_554
Li2 O9 1.985755 1_565
Li2 O7 2.028744 1_565
Li2 O11 2.092762 1_555
Li2 O14 2.350458 1_555
Li3 O15 1.937652 1_555
Li3 O9 1.992091 1_555
Li3 O13 2.058606 1_545
Li3 O12 2.313316 1_555
Mn0 O5 1.934790 1_555
Mn0 O6 1.962971 1_455
Mn0 O3 1.976535 1_465
Mn0 O8 2.323036 1_555
Mn1 O4 1.958805 1_555
Mn1 O2 1.976658 1_555
Mn1 O8 1.981581 1_555
Mn1 O10 2.288074 1_555
Mn2 O12 1.934790 1_555
Mn2 O13 1.962971 1_545
Mn2 O10 1.976535 1_645
Mn2 O0 2.323036 1_555
Mn3 O11 1.958805 1_555
Mn3 O14 1.976658 1_555
Mn3 O0 1.981581 1_556
Mn3 O3 2.288074 1_555
O0 P0 1.586308 1_545
O1 P2 1.503178 1_555
O2 P0 1.558994 1_555
O3 P1 1.579955 1_555
O4 P1 1.567592 1_555
O5 P1 1.572153 1_555
O6 P0 1.573085 1_556
O7 P0 1.501463 1_546
O8 P3 1.586308 1_455
O9 P1 1.503178 1_555
O10 P2 1.579955 1_555
O11 P2 1.567592 1_556
O12 P2 1.572153 1_555
O13 P3 1.573085 1_555
O14 P3 1.558994 1_555
O15 P3 1.501463 1_455
F0 Mn0 1.931458 1_555
F0 Li3 2.042471 1_565
F0 Mn1 2.204094 1_555
F1 Mn1 1.991436 1_545
F1 Li0 2.006415 1_455
F1 Mn2 2.224872 1_455
F2 Mn2 1.931458 1_555
F2 Li1 2.042471 1_655
F2 Mn3 2.204094 1_554
F3 Mn3 1.991436 1_455
F3 Li2 2.006415 1_545
F3 Mn0 2.224872 1_545
