# generated using pymatgen
data_Yb19(Mg4H27)2
_symmetry_space_group_name_H-M   'P 1'
_cell_length_a   10.43857139
_cell_length_b   10.43857139
_cell_length_c   10.43857139
_cell_angle_alpha   109.47122063
_cell_angle_beta   109.47122063
_cell_angle_gamma   109.47122063
_symmetry_Int_Tables_number   1
_chemical_formula_structural   Yb19(Mg4H27)2
_chemical_formula_sum   'Yb19 Mg8 H54'
_cell_volume   875.59103447
_cell_formula_units_Z   1
loop_
 _symmetry_equiv_pos_site_id
 _symmetry_equiv_pos_as_xyz
  1  'x, y, z'
loop_
 _atom_site_type_symbol
 _atom_site_label
 _atom_site_symmetry_multiplicity
 _atom_site_fract_x
 _atom_site_fract_y
 _atom_site_fract_z
 _atom_site_occupancy
  Yb  Yb0  1  0.31154600  0.96594900  0.65440400  1
  Yb  Yb1  1  0.68845400  0.03405100  0.34559600  1
  Yb  Yb2  1  0.31154600  0.65714200  0.34559600  1
  Yb  Yb3  1  0.68845400  0.34285800  0.65440400  1
  Yb  Yb4  1  0.65440400  0.31154600  0.96594900  1
  Yb  Yb5  1  0.34559600  0.68845400  0.03405100  1
  Yb  Yb6  1  0.34559600  0.31154600  0.65714200  1
  Yb  Yb7  1  0.65440400  0.68845400  0.34285800  1
  Yb  Yb8  1  0.96594900  0.65440400  0.31154600  1
  Yb  Yb9  1  0.03405100  0.34559600  0.68845400  1
  Yb  Yb10  1  0.65714200  0.34559600  0.31154600  1
  Yb  Yb11  1  0.34285800  0.65440400  0.68845400  1
  Yb  Yb12  1  0.33287000  0.00000000  0.33287000  1
  Yb  Yb13  1  0.66713000  0.00000000  0.66713000  1
  Yb  Yb14  1  0.33287000  0.33287000  0.00000000  1
  Yb  Yb15  1  0.66713000  0.66713000  0.00000000  1
  Yb  Yb16  1  0.00000000  0.33287000  0.33287000  1
  Yb  Yb17  1  0.00000000  0.66713000  0.66713000  1
  Yb  Yb18  1  0.00000000  0.00000000  0.00000000  1
  Mg  Mg0  1  0.31465900  0.00000000  0.00000000  1
  Mg  Mg1  1  0.00000000  0.00000000  0.31465900  1
  Mg  Mg2  1  0.00000000  0.31465900  0.00000000  1
  Mg  Mg3  1  0.68534100  0.68534100  0.68534100  1
  Mg  Mg4  1  0.68534100  0.00000000  0.00000000  1
  Mg  Mg5  1  0.00000000  0.00000000  0.68534100  1
  Mg  Mg6  1  0.00000000  0.68534100  0.00000000  1
  Mg  Mg7  1  0.31465900  0.31465900  0.31465900  1
  H  H0  1  0.42539000  0.94629400  0.14449200  1
  H  H1  1  0.19819800  0.05370600  0.47909700  1
  H  H2  1  0.80180200  0.28089900  0.85550800  1
  H  H3  1  0.57461000  0.71910100  0.52090300  1
  H  H4  1  0.14449200  0.42539000  0.94629400  1
  H  H5  1  0.47909700  0.19819800  0.05370600  1
  H  H6  1  0.85550800  0.80180200  0.28089900  1
  H  H7  1  0.52090300  0.57461000  0.71910100  1
  H  H8  1  0.94629400  0.14449200  0.42539000  1
  H  H9  1  0.05370600  0.47909700  0.19819800  1
  H  H10  1  0.28089900  0.85550800  0.80180200  1
  H  H11  1  0.71910100  0.52090300  0.57461000  1
  H  H12  1  0.57461000  0.05370600  0.85550800  1
  H  H13  1  0.80180200  0.94629400  0.52090300  1
  H  H14  1  0.19819800  0.71910100  0.14449200  1
  H  H15  1  0.42539000  0.28089900  0.47909700  1
  H  H16  1  0.85550800  0.57461000  0.05370600  1
  H  H17  1  0.52090300  0.80180200  0.94629400  1
  H  H18  1  0.14449200  0.19819800  0.71910100  1
  H  H19  1  0.47909700  0.42539000  0.28089900  1
  H  H20  1  0.05370600  0.85550800  0.57461000  1
  H  H21  1  0.94629400  0.52090300  0.80180200  1
  H  H22  1  0.71910100  0.14449200  0.19819800  1
  H  H23  1  0.28089900  0.47909700  0.42539000  1
  H  H24  1  0.39847000  0.21753100  0.81906100  1
  H  H25  1  0.60153000  0.78246900  0.18093900  1
  H  H26  1  0.39847000  0.57940900  0.18093900  1
  H  H27  1  0.60153000  0.42059100  0.81906100  1
  H  H28  1  0.81906100  0.39847000  0.21753100  1
  H  H29  1  0.18093900  0.60153000  0.78246900  1
  H  H30  1  0.18093900  0.39847000  0.57940900  1
  H  H31  1  0.81906100  0.60153000  0.42059100  1
  H  H32  1  0.21753100  0.81906100  0.39847000  1
  H  H33  1  0.78246900  0.18093900  0.60153000  1
  H  H34  1  0.57940900  0.18093900  0.39847000  1
  H  H35  1  0.42059100  0.81906100  0.60153000  1
  H  H36  1  0.17082800  0.06235600  0.89152900  1
  H  H37  1  0.82917200  0.93764400  0.10847100  1
  H  H38  1  0.17082800  0.27929900  0.10847100  1
  H  H39  1  0.82917200  0.72070100  0.89152900  1
  H  H40  1  0.89152900  0.17082800  0.06235600  1
  H  H41  1  0.10847100  0.82917200  0.93764400  1
  H  H42  1  0.10847100  0.17082800  0.27929900  1
  H  H43  1  0.89152900  0.82917200  0.72070100  1
  H  H44  1  0.06235600  0.89152900  0.17082800  1
  H  H45  1  0.93764400  0.10847100  0.82917200  1
  H  H46  1  0.27929900  0.10847100  0.17082800  1
  H  H47  1  0.72070100  0.89152900  0.82917200  1
  H  H48  1  0.61720700  0.50000000  0.11720700  1
  H  H49  1  0.38279300  0.50000000  0.88279300  1
  H  H50  1  0.11720700  0.61720700  0.50000000  1
  H  H51  1  0.88279300  0.38279300  0.50000000  1
  H  H52  1  0.50000000  0.11720700  0.61720700  1
  H  H53  1  0.50000000  0.88279300  0.38279300  1
loop_
_geom_bond_atom_site_label_1
_geom_bond_atom_site_label_2
_geom_bond_distance
_geom_bond_site_symmetry_2
H0 Mg0 1.938742 1_565
H0 Yb5 2.250247 1_555
H0 Yb1 2.446325 1_565
H0 Yb12 2.450678 1_565
H1 Mg1 1.938746 1_555
H1 Yb6 2.250245 1_555
H1 Yb0 2.446329 1_545
H1 Yb12 2.450686 1_555
H2 Mg2 1.938746 1_656
H2 Yb4 2.250238 1_555
H2 Yb3 2.446320 1_555
H2 Yb13 2.450686 1_555
H3 Mg3 1.938743 1_555
H3 Yb7 2.250238 1_555
H3 Yb2 2.446329 1_555
H3 Yb13 2.450688 1_565
H4 Mg2 1.938742 1_556
H4 Yb9 2.250247 1_555
H4 Yb5 2.446325 1_556
H4 Yb14 2.450678 1_556
H5 Mg0 1.938746 1_555
H5 Yb10 2.250245 1_555
H5 Yb4 2.446329 1_554
H5 Yb14 2.450686 1_555
H6 Mg1 1.938746 1_665
H6 Yb8 2.250238 1_555
H6 Yb7 2.446320 1_555
H6 Yb15 2.450686 1_555
H7 Mg3 1.938743 1_555
H7 Yb11 2.250238 1_555
H7 Yb6 2.446329 1_555
H7 Yb15 2.450688 1_556
H8 Mg1 1.938742 1_655
H8 Yb1 2.250247 1_555
H8 Yb9 2.446325 1_655
H8 Yb16 2.450678 1_655
H9 Mg2 1.938746 1_555
H9 Yb2 2.250245 1_555
H9 Yb8 2.446329 1_455
H9 Yb16 2.450686 1_555
H10 Mg0 1.938746 1_566
H10 Yb0 2.250238 1_555
H10 Yb11 2.446320 1_555
H10 Yb17 2.450686 1_555
H11 Mg3 1.938743 1_555
H11 Yb3 2.250238 1_555
H11 Yb10 2.446329 1_555
H11 Yb17 2.450688 1_655
H12 Mg4 1.938742 1_556
H12 Yb4 2.250247 1_555
H12 Yb0 2.446325 1_545
H12 Yb13 2.450678 1_555
H13 Mg5 1.938746 1_665
H13 Yb7 2.250245 1_555
H13 Yb1 2.446329 1_565
H13 Yb13 2.450686 1_565
H14 Mg6 1.938746 1_555
H14 Yb5 2.250238 1_555
H14 Yb2 2.446320 1_555
H14 Yb12 2.450686 1_565
H15 Mg7 1.938743 1_555
H15 Yb6 2.250238 1_555
H15 Yb3 2.446329 1_555
H15 Yb12 2.450688 1_555
H16 Mg6 1.938742 1_655
H16 Yb8 2.250247 1_555
H16 Yb4 2.446325 1_554
H16 Yb15 2.450678 1_555
H17 Mg4 1.938746 1_566
H17 Yb11 2.250245 1_555
H17 Yb5 2.446329 1_556
H17 Yb15 2.450686 1_556
H18 Mg5 1.938746 1_555
H18 Yb9 2.250238 1_555
H18 Yb6 2.446320 1_555
H18 Yb14 2.450686 1_556
H19 Mg7 1.938743 1_555
H19 Yb10 2.250238 1_555
H19 Yb7 2.446329 1_555
H19 Yb14 2.450688 1_555
H20 Mg5 1.938742 1_565
H20 Yb0 2.250247 1_555
H20 Yb8 2.446325 1_455
H20 Yb17 2.450678 1_555
H21 Mg6 1.938746 1_656
H21 Yb3 2.250245 1_555
H21 Yb9 2.446329 1_655
H21 Yb17 2.450686 1_655
H22 Mg4 1.938746 1_555
H22 Yb1 2.250238 1_555
H22 Yb10 2.446320 1_555
H22 Yb16 2.450686 1_655
H23 Mg7 1.938743 1_555
H23 Yb2 2.250238 1_555
H23 Yb11 2.446329 1_555
H23 Yb16 2.450688 1_555
H24 Yb4 2.229244 1_555
H24 Yb6 2.229245 1_555
H24 Yb0 2.244267 1_545
H24 Yb14 2.319847 1_556
H25 Yb5 2.229244 1_555
H25 Yb7 2.229245 1_555
H25 Yb1 2.244267 1_565
H25 Yb15 2.319847 1_555
H26 Yb5 2.229237 1_555
H26 Yb7 2.229245 1_555
H26 Yb2 2.244259 1_555
H26 Yb14 2.319847 1_555
H27 Yb4 2.229237 1_555
H27 Yb6 2.229245 1_555
H27 Yb3 2.244259 1_555
H27 Yb15 2.319847 1_556
H28 Yb8 2.229244 1_555
H28 Yb10 2.229245 1_555
H28 Yb4 2.244267 1_554
H28 Yb16 2.319847 1_655
H29 Yb9 2.229244 1_555
H29 Yb11 2.229245 1_555
H29 Yb5 2.244267 1_556
H29 Yb17 2.319847 1_555
H30 Yb9 2.229237 1_555
H30 Yb11 2.229245 1_555
H30 Yb6 2.244259 1_555
H30 Yb16 2.319847 1_555
H31 Yb8 2.229237 1_555
H31 Yb10 2.229245 1_555
H31 Yb7 2.244259 1_555
H31 Yb17 2.319847 1_655
H32 Yb0 2.229244 1_555
H32 Yb2 2.229245 1_555
H32 Yb8 2.244267 1_455
H32 Yb12 2.319847 1_565
H33 Yb1 2.229244 1_555
H33 Yb3 2.229245 1_555
H33 Yb9 2.244267 1_655
H33 Yb13 2.319847 1_555
H34 Yb1 2.229237 1_555
H34 Yb3 2.229245 1_555
H34 Yb10 2.244259 1_555
H34 Yb12 2.319847 1_555
H35 Yb0 2.229237 1_555
H35 Yb2 2.229245 1_555
H35 Yb11 2.244259 1_555
H35 Yb13 2.319847 1_565
H36 Mg0 1.992344 1_556
H36 Mg5 1.992356 1_555
H36 Yb14 2.350382 1_556
H36 Yb18 2.439087 1_556
H37 Mg4 1.992344 1_565
H37 Mg1 1.992356 1_665
H37 Yb15 2.350382 1_555
H37 Yb18 2.439087 1_665
H38 Mg2 1.992352 1_555
H38 Mg7 1.992352 1_555
H38 Yb14 2.350373 1_555
H38 Yb18 2.439089 1_555
H39 Mg6 1.992352 1_656
H39 Mg3 1.992352 1_555
H39 Yb15 2.350373 1_556
H39 Yb18 2.439089 1_666
H40 Mg2 1.992344 1_655
H40 Mg4 1.992356 1_555
H40 Yb16 2.350382 1_655
H40 Yb18 2.439087 1_655
H41 Mg6 1.992344 1_556
H41 Mg0 1.992356 1_566
H41 Yb17 2.350382 1_555
H41 Yb18 2.439087 1_566
H42 Mg1 1.992352 1_555
H42 Mg7 1.992352 1_555
H42 Yb16 2.350373 1_555
H42 Yb18 2.439089 1_555
H43 Mg3 1.992352 1_555
H43 Mg5 1.992352 1_665
H43 Yb17 2.350373 1_655
H43 Yb18 2.439089 1_666
H44 Mg1 1.992344 1_565
H44 Mg6 1.992356 1_555
H44 Yb12 2.350382 1_565
H44 Yb18 2.439087 1_565
H45 Mg5 1.992344 1_655
H45 Mg2 1.992356 1_656
H45 Yb13 2.350382 1_555
H45 Yb18 2.439087 1_656
H46 Mg0 1.992352 1_555
H46 Mg7 1.992352 1_555
H46 Yb12 2.350373 1_555
H46 Yb18 2.439089 1_555
H47 Mg3 1.992352 1_555
H47 Mg4 1.992352 1_566
H47 Yb13 2.350373 1_565
H47 Yb18 2.439089 1_666
H48 Yb7 2.315341 1_555
H48 Yb4 2.315346 1_554
H48 Yb14 2.460491 1_555
H48 Yb15 2.460491 1_555
H49 Yb6 2.315341 1_555
H49 Yb5 2.315346 1_556
H49 Yb14 2.460491 1_556
H49 Yb15 2.460491 1_556
H50 Yb11 2.315341 1_555
H50 Yb8 2.315346 1_455
H50 Yb16 2.460491 1_555
H50 Yb17 2.460491 1_555
H51 Yb10 2.315341 1_555
H51 Yb9 2.315346 1_655
H51 Yb16 2.460491 1_655
H51 Yb17 2.460491 1_655
H52 Yb3 2.315341 1_555
H52 Yb0 2.315346 1_545
H52 Yb12 2.460491 1_555
H52 Yb13 2.460491 1_555
H53 Yb2 2.315341 1_555
H53 Yb1 2.315346 1_565
H53 Yb12 2.460491 1_565
H53 Yb13 2.460491 1_565
