# generated using pymatgen
data_LiCuPO4
_symmetry_space_group_name_H-M   'P 1'
_cell_length_a   4.85905800
_cell_length_b   7.49402600
_cell_length_c   17.87545269
_cell_angle_alpha   87.75806740
_cell_angle_beta   90.00000000
_cell_angle_gamma   90.00000000
_symmetry_Int_Tables_number   1
_chemical_formula_structural   LiCuPO4
_chemical_formula_sum   'Li8 Cu8 P8 O32'
_cell_volume   650.41683141
_cell_formula_units_Z   8
loop_
 _symmetry_equiv_pos_site_id
 _symmetry_equiv_pos_as_xyz
  1  'x, y, z'
loop_
 _atom_site_type_symbol
 _atom_site_label
 _atom_site_symmetry_multiplicity
 _atom_site_fract_x
 _atom_site_fract_y
 _atom_site_fract_z
 _atom_site_occupancy
  Li  Li0  1  0.77021400  0.00163000  0.58793700  1
  Li  Li1  1  0.72978600  0.00163000  0.08793700  1
  Li  Li2  1  0.34410800  0.49825000  0.82256800  1
  Li  Li3  1  0.15589200  0.49825000  0.32256800  1
  Li  Li4  1  0.84410800  0.50175000  0.67743200  1
  Li  Li5  1  0.65589200  0.50175000  0.17743200  1
  Li  Li6  1  0.27021400  0.99837000  0.91206300  1
  Li  Li7  1  0.22978600  0.99837000  0.41206300  1
  Cu  Cu0  1  0.77511800  0.17613700  0.77427600  1
  Cu  Cu1  1  0.72488200  0.17613700  0.27427600  1
  Cu  Cu2  1  0.25134800  0.36621000  0.51343100  1
  Cu  Cu3  1  0.24865200  0.36621000  0.01343100  1
  Cu  Cu4  1  0.75134800  0.63379000  0.98656900  1
  Cu  Cu5  1  0.74865200  0.63379000  0.48656900  1
  Cu  Cu6  1  0.27511800  0.82386300  0.72572400  1
  Cu  Cu7  1  0.22488200  0.82386300  0.22572400  1
  P  P0  1  0.33409400  0.23589600  0.68108500  1
  P  P1  1  0.16590600  0.23589600  0.18108500  1
  P  P2  1  0.71579400  0.25199500  0.93696500  1
  P  P3  1  0.78420600  0.25199500  0.43696500  1
  P  P4  1  0.21579400  0.74800500  0.56303500  1
  P  P5  1  0.28420600  0.74800500  0.06303500  1
  P  P6  1  0.83409400  0.76410400  0.81891500  1
  P  P7  1  0.66590600  0.76410400  0.31891500  1
  O  O0  1  0.45379600  0.05340200  0.71216200  1
  O  O1  1  0.04620400  0.05340200  0.21216200  1
  O  O2  1  0.60978200  0.17205200  0.01053700  1
  O  O3  1  0.59467400  0.14968700  0.87052600  1
  O  O4  1  0.42047700  0.24355700  0.59796300  1
  O  O5  1  0.02074500  0.25714700  0.69161700  1
  O  O6  1  0.89021800  0.17205200  0.51053700  1
  O  O7  1  0.90532600  0.14968700  0.37052600  1
  O  O8  1  0.07952300  0.24355700  0.09796300  1
  O  O9  1  0.47925500  0.25714700  0.19161700  1
  O  O10  1  0.03632800  0.25776800  0.93146400  1
  O  O11  1  0.46367200  0.25776800  0.43146400  1
  O  O12  1  0.49334400  0.37699900  0.72756300  1
  O  O13  1  0.00665600  0.37699900  0.22756300  1
  O  O14  1  0.58504500  0.44765000  0.92708600  1
  O  O15  1  0.91495500  0.44765000  0.42708600  1
  O  O16  1  0.08504500  0.55235000  0.57291400  1
  O  O17  1  0.41495500  0.55235000  0.07291400  1
  O  O18  1  0.99334400  0.62300100  0.77243700  1
  O  O19  1  0.50665600  0.62300100  0.27243700  1
  O  O20  1  0.53632800  0.74223200  0.56853600  1
  O  O21  1  0.96367200  0.74223200  0.06853600  1
  O  O22  1  0.52074500  0.74285300  0.80838300  1
  O  O23  1  0.92047700  0.75644300  0.90203700  1
  O  O24  1  0.09467400  0.85031300  0.62947400  1
  O  O25  1  0.10978200  0.82794800  0.48946300  1
  O  O26  1  0.97925500  0.74285300  0.30838300  1
  O  O27  1  0.57952300  0.75644300  0.40203700  1
  O  O28  1  0.40532600  0.85031300  0.12947400  1
  O  O29  1  0.39021800  0.82794800  0.98946300  1
  O  O30  1  0.95379600  0.94659800  0.78783800  1
  O  O31  1  0.54620400  0.94659800  0.28783800  1
loop_
_geom_bond_atom_site_label_1
_geom_bond_atom_site_label_2
_geom_bond_distance
_geom_bond_site_symmetry_2
Li0 O6 1.935745 1_555
Li0 O24 2.063223 1_645
Li0 O20 2.289859 1_545
Li0 O4 2.496492 1_555
Li1 O2 1.935745 1_555
Li1 O28 2.063223 1_545
Li1 O21 2.289859 1_545
Li1 O8 2.496492 1_655
Li2 O22 2.030937 1_555
Li2 O12 2.087177 1_555
Li2 O18 2.125185 1_455
Li2 O14 2.224755 1_555
Li3 O26 2.030937 1_455
Li3 O13 2.087177 1_555
Li3 O19 2.125185 1_555
Li3 O15 2.224755 1_455
Li4 O5 2.030937 1_655
Li4 O18 2.087177 1_555
Li4 O12 2.125185 1_555
Li4 O16 2.224755 1_655
Li5 O9 2.030937 1_555
Li5 O19 2.087177 1_555
Li5 O13 2.125185 1_655
Li5 O17 2.224755 1_555
Li6 O29 1.935745 1_555
Li6 O3 2.063223 1_565
Li6 O10 2.289859 1_565
Li6 O23 2.496492 1_455
Li7 O25 1.935745 1_555
Li7 O7 2.063223 1_465
Li7 O11 2.289859 1_565
Li7 O27 2.496492 1_555
Cu0 O30 1.933628 1_545
Cu0 O3 1.934303 1_555
Cu0 O5 1.976376 1_655
Cu0 O0 2.143927 1_555
Cu0 O12 2.176999 1_555
Cu1 O31 1.933628 1_545
Cu1 O7 1.934303 1_555
Cu1 O9 1.976376 1_555
Cu1 O1 2.143927 1_655
Cu1 O13 2.176999 1_655
Cu2 O4 1.922195 1_555
Cu2 O16 1.960984 1_555
Cu2 O11 1.991177 1_555
Cu2 O6 2.281407 1_455
Cu2 O15 2.313613 1_455
Cu3 O8 1.922195 1_555
Cu3 O17 1.960984 1_555
Cu3 O10 1.991177 1_554
Cu3 O2 2.281407 1_555
Cu3 O14 2.313613 1_554
Cu4 O23 1.922195 1_555
Cu4 O14 1.960984 1_555
Cu4 O21 1.991177 1_556
Cu4 O29 2.281407 1_555
Cu4 O17 2.313613 1_556
Cu5 O27 1.922195 1_555
Cu5 O15 1.960984 1_555
Cu5 O20 1.991177 1_555
Cu5 O25 2.281407 1_655
Cu5 O16 2.313613 1_655
Cu6 O0 1.933628 1_565
Cu6 O24 1.934303 1_555
Cu6 O22 1.976376 1_555
Cu6 O30 2.143927 1_455
Cu6 O18 2.176999 1_455
Cu7 O1 1.933628 1_565
Cu7 O28 1.934303 1_555
Cu7 O26 1.976376 1_455
Cu7 O31 2.143927 1_555
Cu7 O19 2.176999 1_555
O0 P0 1.567747 1_555
O1 P1 1.567747 1_555
O2 P2 1.513999 1_554
O3 P2 1.554314 1_555
O4 P0 1.542898 1_555
O5 P0 1.543180 1_555
O6 P3 1.513999 1_555
O7 P3 1.554314 1_555
O8 P1 1.542898 1_555
O9 P1 1.543180 1_555
O10 P2 1.561087 1_455
O11 P3 1.561087 1_555
O12 P0 1.573506 1_555
O13 P1 1.573506 1_555
O14 P2 1.601382 1_555
O15 P3 1.601382 1_555
O16 P4 1.601382 1_555
O17 P5 1.601382 1_555
O18 P6 1.573506 1_555
O19 P7 1.573506 1_555
O20 P4 1.561087 1_555
O21 P5 1.561087 1_655
O22 P6 1.543180 1_555
O23 P6 1.542898 1_555
O24 P4 1.554314 1_555
O25 P4 1.513999 1_555
O26 P7 1.543180 1_555
O27 P7 1.542898 1_555
O28 P5 1.554314 1_555
O29 P5 1.513999 1_556
O30 P6 1.567747 1_555
O31 P7 1.567747 1_555
