# generated using pymatgen
data_LiSO3F
_symmetry_space_group_name_H-M   'P 1'
_cell_length_a   5.77250668
_cell_length_b   5.77250668
_cell_length_c   5.30769549
_cell_angle_alpha   88.77908663
_cell_angle_beta   88.77908663
_cell_angle_gamma   83.51151217
_symmetry_Int_Tables_number   1
_chemical_formula_structural   LiSO3F
_chemical_formula_sum   'Li2 S2 O6 F2'
_cell_volume   175.65757263
_cell_formula_units_Z   2
loop_
 _symmetry_equiv_pos_site_id
 _symmetry_equiv_pos_as_xyz
  1  'x, y, z'
loop_
 _atom_site_type_symbol
 _atom_site_label
 _atom_site_symmetry_multiplicity
 _atom_site_fract_x
 _atom_site_fract_y
 _atom_site_fract_z
 _atom_site_occupancy
  Li  Li0  1  0.19288400  0.80711600  0.00000000  1
  Li  Li1  1  0.80711600  0.19288400  0.00000000  1
  S  S0  1  0.70806200  0.70806200  0.25557200  1
  S  S1  1  0.29193800  0.29193800  0.74442800  1
  O  O0  1  0.53443600  0.21432000  0.78931600  1
  O  O1  1  0.78568000  0.46556400  0.21068400  1
  O  O2  1  0.13062400  0.13062400  0.84162700  1
  O  O3  1  0.86937600  0.86937600  0.15837300  1
  O  O4  1  0.21432000  0.53443600  0.78931600  1
  O  O5  1  0.46556400  0.78568000  0.21068400  1
  F  F0  1  0.72845400  0.72845400  0.55423300  1
  F  F1  1  0.27154600  0.27154600  0.44576700  1
loop_
_geom_bond_atom_site_label_1
_geom_bond_atom_site_label_2
_geom_bond_distance
_geom_bond_site_symmetry_2
Li0 O4 1.941263 1_554
Li0 O5 1.941263 1_555
Li0 O3 2.029147 1_455
Li0 O2 2.029147 1_564
Li1 O0 1.941263 1_554
Li1 O1 1.941263 1_555
Li1 O3 2.029147 1_545
Li1 O2 2.029147 1_654
O0 S1 1.443928 1_555
O1 S0 1.443928 1_555
O2 S1 1.468128 1_555
O3 S0 1.468128 1_555
O4 S1 1.443928 1_555
O5 S0 1.443928 1_555
F0 S0 1.599879 1_555
F1 S1 1.599879 1_555
