# generated using pymatgen
data_Li3CuSiO4
_symmetry_space_group_name_H-M   'P 1'
_cell_length_a   9.97915565
_cell_length_b   9.97915565
_cell_length_c   9.97915565
_cell_angle_alpha   114.83263574
_cell_angle_beta   114.83263574
_cell_angle_gamma   99.21048503
_symmetry_Int_Tables_number   1
_chemical_formula_structural   Li3CuSiO4
_chemical_formula_sum   'Li24 Cu8 Si8 O32'
_cell_volume   747.08701584
_cell_formula_units_Z   8
loop_
 _symmetry_equiv_pos_site_id
 _symmetry_equiv_pos_as_xyz
  1  'x, y, z'
loop_
 _atom_site_type_symbol
 _atom_site_label
 _atom_site_symmetry_multiplicity
 _atom_site_fract_x
 _atom_site_fract_y
 _atom_site_fract_z
 _atom_site_occupancy
  Li  Li0  1  0.96577200  0.09915700  0.19125100  1
  Li  Li1  1  0.78422800  0.15084300  0.30874900  1
  Li  Li2  1  0.84915700  0.15790600  0.63338400  1
  Li  Li3  1  0.22547900  0.03422800  0.13338400  1
  Li  Li4  1  0.72417000  0.55728300  0.14005800  1
  Li  Li5  1  0.43763800  0.29975000  0.13965100  1
  Li  Li6  1  0.52452100  0.21577200  0.36661600  1
  Li  Li7  1  0.90084300  0.09209400  0.86661600  1
  Li  Li8  1  0.70025000  0.83990100  0.13788800  1
  Li  Li9  1  0.44271700  0.58277500  0.16688800  1
  Li  Li10  1  0.84209400  0.47547900  0.69125100  1
  Li  Li11  1  0.90790600  0.77452100  0.80874900  1
  Li  Li12  1  0.41588700  0.27583000  0.83311200  1
  Li  Li13  1  0.30728300  0.66722500  0.33311200  1
  Li  Li14  1  0.70201300  0.56236200  0.86211200  1
  Li  Li15  1  0.04975000  0.41009900  0.36211200  1
  Li  Li16  1  0.33277500  0.66588700  0.64005800  1
  Li  Li17  1  0.58990100  0.95201300  0.63965100  1
  Li  Li18  1  0.31236200  0.95025000  0.36034900  1
  Li  Li19  1  0.16009900  0.29798700  0.86034900  1
  Li  Li20  1  0.02583000  0.69271700  0.35994200  1
  Li  Li21  1  0.41722500  0.58411300  0.85994200  1
  Li  Li22  1  0.04798700  0.68763800  0.63788800  1
  Li  Li23  1  0.33411300  0.97417000  0.66688800  1
  Cu  Cu0  1  0.82536600  0.31671500  0.04459000  1
  Cu  Cu1  1  0.21922400  0.17463400  0.49134900  1
  Cu  Cu2  1  0.06671500  0.52212500  0.99134900  1
  Cu  Cu3  1  0.92463400  0.93328500  0.45541000  1
  Cu  Cu4  1  0.47787500  0.46922400  0.54459000  1
  Cu  Cu5  1  0.53077600  0.07536600  0.00865100  1
  Cu  Cu6  1  0.68328500  0.72787500  0.50865100  1
  Cu  Cu7  1  0.27212500  0.78077600  0.95541000  1
  Si  Si0  1  0.00515100  0.78800600  0.15106100  1
  Si  Si1  1  0.74484900  0.46199400  0.34893900  1
  Si  Si2  1  0.21199400  0.36305400  0.21714400  1
  Si  Si3  1  0.60409000  0.25515100  0.71714400  1
  Si  Si4  1  0.14591000  0.99484900  0.78285600  1
  Si  Si5  1  0.53800600  0.88694600  0.28285600  1
  Si  Si6  1  0.11305400  0.39591000  0.65106100  1
  Si  Si7  1  0.63694600  0.85409000  0.84893900  1
  O  O0  1  0.72914900  0.00495800  0.37953000  1
  O  O1  1  0.65038200  0.27085100  0.27580900  1
  O  O2  1  0.88390200  0.48983700  0.30088800  1
  O  O3  1  0.86609800  0.76016300  0.19911200  1
  O  O4  1  0.99504200  0.37457300  0.72419100  1
  O  O5  1  0.60655100  0.51398600  0.24340400  1
  O  O6  1  0.73400200  0.17129100  0.75385900  1
  O  O7  1  0.33256800  0.26985800  0.25385900  1
  O  O8  1  0.23983700  0.43894900  0.10593500  1
  O  O9  1  0.41698600  0.11609800  0.60593500  1
  O  O10  1  0.82870900  0.58256800  0.56271000  1
  O  O11  1  0.73014200  0.98400200  0.06271000  1
  O  O12  1  0.02085100  0.24504200  0.12047000  1
  O  O13  1  0.62542700  0.34961800  0.62047000  1
  O  O14  1  0.48601400  0.72941800  0.09256500  1
  O  O15  1  0.26398600  0.52058200  0.40743500  1
  O  O16  1  0.63685300  0.39344900  0.90743500  1
  O  O17  1  0.92129100  0.66743200  0.93729000  1
  O  O18  1  0.01985800  0.26599800  0.43729000  1
  O  O19  1  0.51016300  0.81105100  0.39406500  1
  O  O20  1  0.33301400  0.13390200  0.89406500  1
  O  O21  1  0.01599800  0.07870900  0.74614100  1
  O  O22  1  0.41743200  0.98014200  0.24614100  1
  O  O23  1  0.14344900  0.73601400  0.25659600  1
  O  O24  1  0.27058200  0.36314700  0.75659600  1
  O  O25  1  0.75495800  0.87542700  0.77580900  1
  O  O26  1  0.56105100  0.66698600  0.80088800  1
  O  O27  1  0.18894900  0.58301400  0.69911200  1
  O  O28  1  0.09961800  0.97914900  0.22419100  1
  O  O29  1  0.47941800  0.88685300  0.74340400  1
  O  O30  1  0.11314700  0.85655100  0.59256500  1
  O  O31  1  0.12457300  0.90038200  0.87953000  1
loop_
_geom_bond_atom_site_label_1
_geom_bond_atom_site_label_2
_geom_bond_distance
_geom_bond_site_symmetry_2
Li0 O28 1.949409 1_645
Li0 O12 1.963168 1_655
Li0 O11 1.964290 1_545
Li0 O18 2.063333 1_655
Li1 O1 1.949409 1_555
Li1 O0 1.963168 1_555
Li1 O18 1.964290 1_655
Li1 O11 2.063333 1_545
Li2 O0 1.949409 1_555
Li2 O4 1.963173 1_555
Li2 O6 1.964291 1_555
Li2 O21 2.063333 1_655
Li3 O31 1.949409 1_544
Li3 O28 1.963185 1_545
Li3 O7 1.964290 1_555
Li3 O22 2.063338 1_545
Li4 O16 1.864998 1_554
Li4 O3 1.957299 1_555
Li4 O5 1.963821 1_555
Li4 O2 2.161396 1_555
Li5 O7 1.917397 1_555
Li5 O20 1.930325 1_554
Li5 O5 2.001288 1_555
Li5 O1 2.130427 1_555
Li6 O13 1.949409 1_555
Li6 O1 1.963185 1_555
Li6 O22 1.964290 1_545
Li6 O7 2.063338 1_555
Li7 O12 1.949409 1_656
Li7 O25 1.963173 1_545
Li7 O21 1.964291 1_655
Li7 O6 2.063333 1_555
Li8 O11 1.917406 1_555
Li8 O3 1.930325 1_555
Li8 O14 2.001288 1_555
Li8 O0 2.130420 1_565
Li9 O5 1.864996 1_555
Li9 O8 1.957295 1_555
Li9 O14 1.963829 1_555
Li9 O19 2.161391 1_555
Li10 O4 1.949409 1_555
Li10 O13 1.963180 1_555
Li10 O10 1.964291 1_555
Li10 O17 2.063335 1_555
Li11 O25 1.949409 1_555
Li11 O31 1.963180 1_655
Li11 O17 1.964291 1_555
Li11 O10 2.063335 1_555
Li12 O24 1.864989 1_555
Li12 O20 1.957303 1_555
Li12 O16 1.963826 1_555
Li12 O9 2.161394 1_555
Li13 O23 1.864996 1_555
Li13 O19 1.957295 1_555
Li13 O15 1.963829 1_555
Li13 O8 2.161391 1_555
Li14 O17 1.917397 1_555
Li14 O26 1.930325 1_555
Li14 O16 2.001288 1_555
Li14 O13 2.130422 1_555
Li15 O18 1.917406 1_555
Li15 O2 1.930325 1_455
Li15 O15 2.001288 1_555
Li15 O12 2.130420 1_555
Li16 O15 1.864996 1_555
Li16 O27 1.957295 1_555
Li16 O29 1.963829 1_555
Li16 O26 2.161391 1_555
Li17 O6 1.917400 1_565
Li17 O19 1.930325 1_555
Li17 O29 2.001288 1_555
Li17 O25 2.130427 1_555
Li18 O22 1.917397 1_555
Li18 O9 1.930325 1_565
Li18 O23 2.001288 1_555
Li18 O28 2.130427 1_555
Li19 O21 1.917400 1_555
Li19 O8 1.930325 1_556
Li19 O24 2.001288 1_555
Li19 O4 2.130427 1_455
Li20 O30 1.864998 1_555
Li20 O2 1.957299 1_455
Li20 O23 1.963821 1_555
Li20 O3 2.161396 1_455
Li21 O14 1.864996 1_556
Li21 O26 1.957295 1_555
Li21 O24 1.963829 1_555
Li21 O27 2.161391 1_555
Li22 O10 1.917397 1_455
Li22 O27 1.930325 1_555
Li22 O30 2.001288 1_555
Li22 O31 2.130422 1_555
Li23 O29 1.864989 1_555
Li23 O9 1.957303 1_565
Li23 O30 1.963826 1_555
Li23 O20 2.161394 1_565
Cu0 O12 2.133378 1_655
Cu0 O2 2.139644 1_555
Cu0 O6 2.274372 1_554
Cu0 O16 2.275386 1_554
Cu1 O28 2.133376 1_545
Cu1 O9 2.139644 1_555
Cu1 O18 2.274363 1_555
Cu1 O24 2.275386 1_555
Cu2 O4 2.133376 1_455
Cu2 O8 2.139644 1_556
Cu2 O17 2.274370 1_455
Cu2 O23 2.275386 1_556
Cu3 O0 2.133378 1_565
Cu3 O3 2.139644 1_555
Cu3 O21 2.274372 1_665
Cu3 O30 2.275386 1_655
Cu4 O13 2.133379 1_555
Cu4 O26 2.139644 1_555
Cu4 O7 2.274370 1_555
Cu4 O15 2.275386 1_555
Cu5 O1 2.133376 1_555
Cu5 O20 2.139644 1_554
Cu5 O11 2.274363 1_545
Cu5 O29 2.275386 1_544
Cu6 O25 2.133376 1_555
Cu6 O19 2.139644 1_555
Cu6 O10 2.274370 1_555
Cu6 O5 2.275386 1_555
Cu7 O31 2.133379 1_555
Cu7 O27 2.139644 1_555
Cu7 O22 2.274370 1_556
Cu7 O14 2.275386 1_556
O0 Si5 1.654369 1_545
O1 Si1 1.654368 1_555
O2 Si1 1.667336 1_555
O3 Si0 1.667336 1_655
O4 Si6 1.654359 1_655
O5 Si1 1.658419 1_555
O6 Si3 1.649582 1_555
O7 Si2 1.649567 1_555
O8 Si2 1.667334 1_555
O9 Si3 1.667338 1_555
O10 Si1 1.649574 1_555
O11 Si7 1.649576 1_554
O12 Si2 1.654369 1_555
O13 Si3 1.654350 1_555
O14 Si5 1.658429 1_555
O15 Si2 1.658429 1_555
O16 Si3 1.658426 1_555
O17 Si0 1.649574 1_656
O18 Si6 1.649576 1_555
O19 Si5 1.667334 1_555
O20 Si4 1.667338 1_545
O21 Si4 1.649582 1_545
O22 Si5 1.649567 1_555
O23 Si0 1.658419 1_555
O24 Si6 1.658426 1_555
O25 Si7 1.654359 1_555
O26 Si7 1.667338 1_555
O27 Si6 1.667338 1_555
O28 Si0 1.654368 1_555
O29 Si7 1.658426 1_555
O30 Si4 1.658426 1_555
O31 Si4 1.654350 1_555
