# generated using pymatgen
data_Li4VCr3O8
_symmetry_space_group_name_H-M   'P 1'
_cell_length_a   5.15105200
_cell_length_b   7.86814830
_cell_length_c   7.86954289
_cell_angle_alpha   94.18395814
_cell_angle_beta   96.35372483
_cell_angle_gamma   108.79106720
_symmetry_Int_Tables_number   1
_chemical_formula_structural   Li4VCr3O8
_chemical_formula_sum   'Li8 V2 Cr6 O16'
_cell_volume   298.08597584
_cell_formula_units_Z   2
loop_
 _symmetry_equiv_pos_site_id
 _symmetry_equiv_pos_as_xyz
  1  'x, y, z'
loop_
 _atom_site_type_symbol
 _atom_site_label
 _atom_site_symmetry_multiplicity
 _atom_site_fract_x
 _atom_site_fract_y
 _atom_site_fract_z
 _atom_site_occupancy
  Li  Li0  1  0.62573900  0.62397900  0.87512900  1
  Li  Li1  1  0.87411400  0.87466800  0.62338100  1
  Li  Li2  1  0.75055100  0.74887500  0.25019300  1
  Li  Li3  1  0.24944900  0.25112500  0.74980700  1
  Li  Li4  1  0.12588600  0.12533200  0.37661900  1
  Li  Li5  1  0.00000000  0.00000000  0.00000000  1
  Li  Li6  1  0.50000000  0.50000000  0.50000000  1
  Li  Li7  1  0.37426100  0.37602100  0.12487100  1
  V  V0  1  0.43789500  0.93792100  0.81359300  1
  V  V1  1  0.56210500  0.06207900  0.18640700  1
  Cr  Cr0  1  0.31191600  0.81219900  0.43758800  1
  Cr  Cr1  1  0.18593800  0.68622900  0.06301400  1
  Cr  Cr2  1  0.68808400  0.18780100  0.56241200  1
  Cr  Cr3  1  0.06218000  0.56267200  0.68750800  1
  Cr  Cr4  1  0.93782000  0.43732800  0.31249200  1
  Cr  Cr5  1  0.81406200  0.31377100  0.93698600  1
  O  O0  1  0.04693700  0.77434900  0.84605000  1
  O  O1  1  0.44800600  0.72297000  0.65522600  1
  O  O2  1  0.92695700  0.65147900  0.47002100  1
  O  O3  1  0.82845200  0.10129700  0.78000500  1
  O  O4  1  0.30204300  0.02719000  0.59410900  1
  O  O5  1  0.17154800  0.89870300  0.21999500  1
  O  O6  1  0.69795700  0.97281000  0.40589100  1
  O  O7  1  0.67708400  0.40163100  0.71889000  1
  O  O8  1  0.55199400  0.27703000  0.34477400  1
  O  O9  1  0.57460300  0.84542300  0.03083200  1
  O  O10  1  0.07304300  0.34852100  0.52997900  1
  O  O11  1  0.42539700  0.15457700  0.96916800  1
  O  O12  1  0.95306300  0.22565100  0.15395000  1
  O  O13  1  0.80153100  0.52597000  0.09511900  1
  O  O14  1  0.32291600  0.59836900  0.28111000  1
  O  O15  1  0.19846900  0.47403000  0.90488100  1
loop_
_geom_bond_atom_site_label_1
_geom_bond_atom_site_label_2
_geom_bond_distance
_geom_bond_site_symmetry_2
Li0 O0 2.157561 1_655
Li0 O9 2.159201 1_556
Li0 O7 2.167607 1_555
Li0 O13 2.170126 1_556
Li0 O1 2.178294 1_555
Li0 O15 2.184540 1_555
Li1 O6 2.156284 1_555
Li1 O2 2.164686 1_555
Li1 O3 2.183532 1_565
Li1 O1 2.186932 1_555
Li1 O0 2.189826 1_655
Li1 O4 2.191034 1_665
Li2 O5 2.157987 1_655
Li2 O9 2.160350 1_555
Li2 O13 2.165539 1_555
Li2 O2 2.167899 1_555
Li2 O6 2.178334 1_555
Li2 O14 2.189494 1_555
Li3 O3 2.157987 1_455
Li3 O11 2.160350 1_555
Li3 O15 2.165539 1_555
Li3 O10 2.167899 1_555
Li3 O4 2.178334 1_555
Li3 O7 2.189494 1_555
Li4 O4 2.156284 1_555
Li4 O10 2.164686 1_555
Li4 O5 2.183532 1_545
Li4 O8 2.186932 1_555
Li4 O12 2.189826 1_455
Li4 O6 2.191034 1_445
Li5 O12 2.169326 1_455
Li5 O0 2.169326 1_544
Li5 O5 2.174814 1_545
Li5 O3 2.174814 1_454
Li5 O9 2.187109 1_445
Li5 O11 2.187109 1_554
Li6 O14 2.167932 1_555
Li6 O7 2.167932 1_555
Li6 O1 2.168898 1_555
Li6 O8 2.168898 1_555
Li6 O10 2.186364 1_555
Li6 O2 2.186364 1_555
Li7 O12 2.157561 1_455
Li7 O11 2.159201 1_554
Li7 O14 2.167607 1_555
Li7 O15 2.170126 1_554
Li7 O8 2.178294 1_555
Li7 O13 2.184540 1_555
Cr0 O14 2.030949 1_555
Cr0 O5 2.032556 1_555
Cr0 O2 2.034697 1_455
Cr0 O1 2.035798 1_555
Cr0 O4 2.036293 1_565
Cr0 O6 2.037219 1_555
Cr1 O13 2.030590 1_455
Cr1 O15 2.030867 1_554
Cr1 O5 2.031061 1_555
Cr1 O0 2.032388 1_554
Cr1 O14 2.034897 1_555
Cr1 O9 2.045524 1_555
Cr2 O7 2.030949 1_555
Cr2 O3 2.032556 1_555
Cr2 O10 2.034697 1_655
Cr2 O8 2.035798 1_555
Cr2 O6 2.036293 1_545
Cr2 O4 2.037219 1_555
Cr3 O2 2.031484 1_455
Cr3 O15 2.032056 1_555
Cr3 O7 2.033766 1_455
Cr3 O0 2.034559 1_555
Cr3 O1 2.036844 1_555
Cr3 O10 2.037245 1_555
Cr4 O10 2.031484 1_655
Cr4 O13 2.032056 1_555
Cr4 O14 2.033766 1_655
Cr4 O12 2.034559 1_555
Cr4 O8 2.036844 1_555
Cr4 O2 2.037245 1_555
Cr5 O15 2.030590 1_655
Cr5 O13 2.030867 1_556
Cr5 O3 2.031061 1_555
Cr5 O12 2.032388 1_556
Cr5 O7 2.034897 1_555
Cr5 O11 2.045524 1_555
O0 V0 2.066220 1_555
O1 V0 2.044468 1_555
O3 V0 2.066586 1_545
O4 V0 2.047569 1_545
O5 V1 2.066586 1_565
O6 V1 2.047569 1_565
O8 V1 2.044468 1_555
O9 V1 2.047587 1_565
O9 V0 2.047795 1_554
O11 V0 2.047587 1_545
O11 V1 2.047795 1_556
O12 V1 2.066220 1_555
