# generated using pymatgen
data_Sr3TeO6
_symmetry_space_group_name_H-M   'P 1'
_cell_length_a   5.86425804
_cell_length_b   6.06292504
_cell_length_c   8.38780632
_cell_angle_alpha   90.00000000
_cell_angle_beta   89.86896254
_cell_angle_gamma   90.00000000
_symmetry_Int_Tables_number   1
_chemical_formula_structural   Sr3TeO6
_chemical_formula_sum   'Sr6 Te2 O12'
_cell_volume   298.22395724
_cell_formula_units_Z   2
loop_
 _symmetry_equiv_pos_site_id
 _symmetry_equiv_pos_as_xyz
  1  'x, y, z'
loop_
 _atom_site_type_symbol
 _atom_site_label
 _atom_site_symmetry_multiplicity
 _atom_site_fract_x
 _atom_site_fract_y
 _atom_site_fract_z
 _atom_site_occupancy
  Sr  Sr0  1  -0.00000000  0.50000000  0.50000000  1
  Sr  Sr1  1  0.01306206  0.95328497  0.74708422  1
  Sr  Sr2  1  0.48693794  0.45328497  0.75291578  1
  Sr  Sr3  1  0.50000000  -0.00000000  0.00000000  1
  Sr  Sr4  1  0.51306206  0.54671503  0.24708422  1
  Sr  Sr5  1  0.98693794  0.04671503  0.25291578  1
  Te  Te0  1  -0.00000000  0.50000000  0.00000000  1
  Te  Te1  1  0.50000000  -0.00000000  0.50000000  1
  O  O0  1  0.09633126  0.45624132  0.21793457  1
  O  O1  1  0.17083646  0.23893098  0.93891176  1
  O  O2  1  0.23382386  0.17773056  0.54221788  1
  O  O3  1  0.26617614  0.67773056  0.95778212  1
  O  O4  1  0.32916354  0.73893098  0.56108824  1
  O  O5  1  0.40366874  0.95624132  0.28206543  1
  O  O6  1  0.59633126  0.04375868  0.71793457  1
  O  O7  1  0.67083646  0.26106902  0.43891176  1
  O  O8  1  0.73382386  0.32226944  0.04221788  1
  O  O9  1  0.76617614  0.82226944  0.45778212  1
  O  O10  1  0.82916354  0.76106902  0.06108824  1
  O  O11  1  0.90366874  0.54375868  0.78206543  1
loop_
_geom_bond_atom_site_label_1
_geom_bond_atom_site_label_2
_geom_bond_distance
_geom_bond_site_symmetry_2
O0 Te0 1.932820 1_555
O0 Sr0 2.445594 1_555
O0 Sr4 2.517071 1_555
O0 Sr5 2.581026 1_455
O1 Te0 1.941456 1_556
O1 Sr3 2.468124 1_556
O1 Sr1 2.539899 1_545
O1 Sr2 2.746976 1_555
O1 Sr5 3.073285 1_456
O2 Te1 1.928862 1_555
O2 Sr0 2.413612 1_555
O2 Sr1 2.543702 1_545
O2 Sr2 2.851258 1_555
O2 Sr5 2.937960 1_455
O3 Te0 1.928862 1_556
O3 Sr3 2.413612 1_566
O3 Sr2 2.543702 1_555
O3 Sr1 2.851258 1_555
O3 Sr4 2.937960 1_556
O4 Te1 1.941456 1_565
O4 Sr0 2.468124 1_555
O4 Sr2 2.539899 1_555
O4 Sr1 2.746976 1_555
O4 Sr4 3.073285 1_555
O5 Te1 1.932820 1_565
O5 Sr3 2.445594 1_565
O5 Sr5 2.517071 1_465
O5 Sr4 2.581026 1_555
O6 Te1 1.932820 1_555
O6 Sr3 2.445594 1_556
O6 Sr1 2.517071 1_645
O6 Sr2 2.581026 1_555
O7 Te1 1.941456 1_555
O7 Sr0 2.468124 1_655
O7 Sr4 2.539899 1_555
O7 Sr5 2.746976 1_555
O7 Sr2 3.073285 1_555
O8 Te0 1.928862 1_655
O8 Sr3 2.413612 1_555
O8 Sr4 2.543702 1_555
O8 Sr5 2.851258 1_555
O8 Sr2 2.937960 1_554
O9 Te1 1.928862 1_565
O9 Sr0 2.413612 1_655
O9 Sr5 2.543702 1_565
O9 Sr4 2.851258 1_555
O9 Sr1 2.937960 1_655
O10 Te0 1.941456 1_655
O10 Sr3 2.468124 1_565
O10 Sr5 2.539899 1_565
O10 Sr4 2.746976 1_555
O10 Sr1 3.073285 1_654
O11 Te0 1.932820 1_656
O11 Sr0 2.445594 1_655
O11 Sr2 2.517071 1_555
O11 Sr1 2.581026 1_655
