# generated using pymatgen
data_Li2RhF6
_symmetry_space_group_name_H-M   'P 1'
_cell_length_a   4.58665343
_cell_length_b   4.58665343
_cell_length_c   9.00593804
_cell_angle_alpha   90.00000000
_cell_angle_beta   90.00000000
_cell_angle_gamma   90.00000000
_symmetry_Int_Tables_number   1
_chemical_formula_structural   Li2RhF6
_chemical_formula_sum   'Li4 Rh2 F12'
_cell_volume   189.46142804
_cell_formula_units_Z   2
loop_
 _symmetry_equiv_pos_site_id
 _symmetry_equiv_pos_as_xyz
  1  'x, y, z'
loop_
 _atom_site_type_symbol
 _atom_site_label
 _atom_site_symmetry_multiplicity
 _atom_site_fract_x
 _atom_site_fract_y
 _atom_site_fract_z
 _atom_site_occupancy
  Li  Li0  1  0.00000000  0.00000000  0.66617768  1
  Li  Li1  1  0.50000000  0.50000000  0.16617768  1
  Li  Li2  1  0.00000000  0.00000000  0.33382232  1
  Li  Li3  1  0.50000000  0.50000000  0.83382232  1
  Rh  Rh0  1  0.50000000  0.50000000  0.50000000  1
  Rh  Rh1  1  0.00000000  0.00000000  0.00000000  1
  F  F0  1  0.30308692  0.30308692  0.33899206  1
  F  F1  1  0.80308692  0.19691308  0.16100794  1
  F  F2  1  0.70643555  0.70643555  0.00000000  1
  F  F3  1  0.20643555  0.79356445  0.50000000  1
  F  F4  1  0.29356445  0.29356445  0.00000000  1
  F  F5  1  0.79356445  0.20643555  0.50000000  1
  F  F6  1  0.80308692  0.19691308  0.83899206  1
  F  F7  1  0.30308692  0.30308692  0.66100794  1
  F  F8  1  0.19691308  0.80308692  0.16100794  1
  F  F9  1  0.69691308  0.69691308  0.33899206  1
  F  F10  1  0.19691308  0.80308692  0.83899206  1
  F  F11  1  0.69691308  0.69691308  0.66100794  1
loop_
_geom_bond_atom_site_label_1
_geom_bond_atom_site_label_2
_geom_bond_distance
_geom_bond_site_symmetry_2
F0 Rh0 1.932361 1_555
F0 Li2 1.966527 1_555
F0 Li1 2.013376 1_555
F1 Rh1 1.932361 1_655
F1 Li1 1.966527 1_555
F1 Li2 2.013376 1_655
F2 Rh1 1.904208 1_665
F2 Li3 2.008186 1_554
F2 Li1 2.008186 1_555
F3 Rh0 1.904208 1_555
F3 Li0 2.008186 1_565
F3 Li2 2.008186 1_565
F4 Rh1 1.904208 1_555
F4 Li3 2.008186 1_554
F4 Li1 2.008186 1_555
F5 Rh0 1.904208 1_555
F5 Li2 2.008186 1_655
F5 Li0 2.008186 1_655
F6 Rh1 1.932361 1_656
F6 Li3 1.966527 1_555
F6 Li0 2.013376 1_655
F7 Rh0 1.932361 1_555
F7 Li0 1.966527 1_555
F7 Li3 2.013376 1_555
F8 Rh1 1.932361 1_565
F8 Li1 1.966527 1_555
F8 Li2 2.013376 1_565
F9 Rh0 1.932361 1_555
F9 Li2 1.966527 1_665
F9 Li1 2.013376 1_555
F10 Rh1 1.932361 1_566
F10 Li3 1.966527 1_555
F10 Li0 2.013376 1_565
F11 Rh0 1.932361 1_555
F11 Li0 1.966527 1_665
F11 Li3 2.013376 1_555
