# generated using pymatgen
data_Li2TiNiO4
_symmetry_space_group_name_H-M   'P 1'
_cell_length_a   2.97538817
_cell_length_b   9.83342416
_cell_length_c   5.12938546
_cell_angle_alpha   79.23012100
_cell_angle_beta   89.99977351
_cell_angle_gamma   90.00061371
_symmetry_Int_Tables_number   1
_chemical_formula_structural   Li2TiNiO4
_chemical_formula_sum   'Li4 Ti2 Ni2 O8'
_cell_volume   147.43335172
_cell_formula_units_Z   2
loop_
 _symmetry_equiv_pos_site_id
 _symmetry_equiv_pos_as_xyz
  1  'x, y, z'
loop_
 _atom_site_type_symbol
 _atom_site_label
 _atom_site_symmetry_multiplicity
 _atom_site_fract_x
 _atom_site_fract_y
 _atom_site_fract_z
 _atom_site_occupancy
  Li  Li0  1  0.00000000  0.50000000  0.50000000  1
  Li  Li1  1  0.00000000  0.00000000  0.00000000  1
  Li  Li2  1  0.50000000  0.75000000  0.25000000  1
  Li  Li3  1  0.50000000  0.25000000  0.75000000  1
  Ti  Ti0  1  0.00000000  0.75000100  0.75000000  1
  Ti  Ti1  1  0.00000000  0.24999900  0.25000000  1
  Ni  Ni0  1  0.50000000  0.00000000  0.50000000  1
  Ni  Ni1  1  0.50000000  0.50000000  0.00000000  1
  O  O0  1  0.00001100  0.12920800  0.59866900  1
  O  O1  1  0.00001100  0.62920800  0.09867300  1
  O  O2  1  0.99998900  0.87079200  0.40133100  1
  O  O3  1  0.99998900  0.37079200  0.90132700  1
  O  O4  1  0.50001200  0.86334000  0.86657300  1
  O  O5  1  0.50001200  0.36334100  0.36657200  1
  O  O6  1  0.49998800  0.13666000  0.13342700  1
  O  O7  1  0.49998800  0.63666000  0.63342800  1
loop_
_geom_bond_atom_site_label_1
_geom_bond_atom_site_label_2
_geom_bond_distance
_geom_bond_site_symmetry_2
Li0 O5 2.197975 1_455
Li0 O7 2.197982 1_555
Li0 O5 2.198040 1_555
Li0 O7 2.198046 1_455
Li0 O3 2.207825 1_455
Li0 O1 2.207825 1_555
Li1 O4 2.197980 1_444
Li1 O6 2.197980 1_555
Li1 O4 2.198044 1_544
Li1 O6 2.198044 1_455
Li1 O2 2.207842 1_445
Li1 O0 2.207842 1_554
Li2 O4 2.071481 1_554
Li2 O7 2.071485 1_555
Li2 O1 2.138003 1_555
Li2 O2 2.138013 1_555
Li2 O1 2.138062 1_655
Li2 O2 2.138072 1_455
Li3 O6 2.071481 1_556
Li3 O5 2.071489 1_555
Li3 O3 2.138003 1_555
Li3 O0 2.138013 1_555
Li3 O3 2.138062 1_455
Li3 O0 2.138072 1_655
Ni0 O0 2.079413 1_555
Ni0 O2 2.079413 1_545
Ni0 O2 2.079443 1_445
Ni0 O0 2.079443 1_655
Ni0 O4 2.096916 1_545
Ni0 O6 2.096916 1_555
Ni1 O3 2.079421 1_554
Ni1 O1 2.079421 1_555
Ni1 O3 2.079451 1_454
Ni1 O1 2.079451 1_655
Ni1 O5 2.096908 1_555
Ni1 O7 2.096912 1_554
O0 Ti1 1.953332 1_555
O1 Ti0 1.953357 1_554
O2 Ti0 1.953332 1_655
O3 Ti1 1.953357 1_656
O4 Ti0 2.015414 1_655
O4 Ti0 2.015452 1_555
O5 Ti1 2.015429 1_655
O5 Ti1 2.015468 1_555
O6 Ti1 2.015414 1_555
O6 Ti1 2.015452 1_655
O7 Ti0 2.015423 1_555
O7 Ti0 2.015462 1_655
