# generated using pymatgen
data_Y6N2O5
_symmetry_space_group_name_H-M   'P 1'
_cell_length_a   5.93767501
_cell_length_b   5.93767501
_cell_length_c   7.61445695
_cell_angle_alpha   82.31551494
_cell_angle_beta   82.31551494
_cell_angle_gamma   47.52975316
_symmetry_Int_Tables_number   1
_chemical_formula_structural   Y6N2O5
_chemical_formula_sum   'Y6 N2 O5'
_cell_volume   195.89508720
_cell_formula_units_Z   1
loop_
 _symmetry_equiv_pos_site_id
 _symmetry_equiv_pos_as_xyz
  1  'x, y, z'
loop_
 _atom_site_type_symbol
 _atom_site_label
 _atom_site_symmetry_multiplicity
 _atom_site_fract_x
 _atom_site_fract_y
 _atom_site_fract_z
 _atom_site_occupancy
  Y  Y0  1  0.29114400  0.29114400  0.13894100  1
  Y  Y1  1  0.56578900  0.56578900  0.28338200  1
  Y  Y2  1  0.14561300  0.14561300  0.57663300  1
  Y  Y3  1  0.85438700  0.85438700  0.42336700  1
  Y  Y4  1  0.70885600  0.70885600  0.86105900  1
  Y  Y5  1  0.43421100  0.43421100  0.71661800  1
  N  N0  1  0.35751000  0.35751000  0.42481300  1
  N  N1  1  0.64249000  0.64249000  0.57518700  1
  O  O0  1  0.07910200  0.07910200  0.29819700  1
  O  O1  1  0.50000000  0.50000000  0.00000000  1
  O  O2  1  0.77141000  0.77141000  0.14572900  1
  O  O3  1  0.92089800  0.92089800  0.70180300  1
  O  O4  1  0.22859000  0.22859000  0.85427100  1
loop_
_geom_bond_atom_site_label_1
_geom_bond_atom_site_label_2
_geom_bond_distance
_geom_bond_site_symmetry_2
N0 Y1 2.360415 1_555
N0 Y0 2.391097 1_555
N0 Y3 2.393079 1_455
N0 Y3 2.393079 1_545
N0 Y2 2.421190 1_555
N0 Y5 2.484587 1_555
N1 Y5 2.360415 1_555
N1 Y4 2.391097 1_555
N1 Y2 2.393079 1_655
N1 Y2 2.393079 1_565
N1 Y3 2.421190 1_555
N1 Y1 2.484587 1_555
O0 Y2 2.337813 1_555
O0 Y1 2.400807 1_455
O0 Y1 2.400807 1_545
O0 Y0 2.442310 1_555
O0 Y3 2.488573 1_445
O1 Y0 2.360110 1_555
O1 Y4 2.360110 1_554
O1 Y5 2.370275 1_554
O1 Y1 2.370275 1_555
O2 Y1 2.325587 1_555
O2 Y4 2.364606 1_554
O2 Y0 2.402265 1_565
O2 Y0 2.402265 1_655
O2 Y3 2.416540 1_555
O3 Y3 2.337813 1_555
O3 Y5 2.400807 1_565
O3 Y5 2.400807 1_655
O3 Y4 2.442310 1_555
O3 Y2 2.488573 1_665
O4 Y5 2.325587 1_555
O4 Y0 2.364606 1_556
O4 Y4 2.402265 1_545
O4 Y4 2.402265 1_455
O4 Y2 2.416540 1_555
