# generated using pymatgen
data_Li10Si(PSe6)2
_symmetry_space_group_name_H-M   'P 1'
_cell_length_a   9.26351500
_cell_length_b   9.26351500
_cell_length_c   13.30969600
_cell_angle_alpha   90.00000000
_cell_angle_beta   90.00000000
_cell_angle_gamma   90.00000000
_symmetry_Int_Tables_number   1
_chemical_formula_structural   Li10Si(PSe6)2
_chemical_formula_sum   'Li20 Si2 P4 Se24'
_cell_volume   1142.14108510
_cell_formula_units_Z   2
loop_
 _symmetry_equiv_pos_site_id
 _symmetry_equiv_pos_as_xyz
  1  'x, y, z'
loop_
 _atom_site_type_symbol
 _atom_site_label
 _atom_site_symmetry_multiplicity
 _atom_site_fract_x
 _atom_site_fract_y
 _atom_site_fract_z
 _atom_site_occupancy
  Li  Li0  1  0.23213800  0.27394500  0.29532100  1
  Li  Li1  1  0.76786200  0.72605500  0.29532100  1
  Li  Li2  1  0.27394500  0.76786200  0.79532100  1
  Li  Li3  1  0.72605500  0.23213800  0.79532100  1
  Li  Li4  1  0.23213800  0.72605500  0.29532100  1
  Li  Li5  1  0.76786200  0.27394500  0.29532100  1
  Li  Li6  1  0.27394500  0.23213800  0.79532100  1
  Li  Li7  1  0.72605500  0.76786200  0.79532100  1
  Li  Li8  1  0.00000000  0.00000000  0.94150200  1
  Li  Li9  1  0.00000000  0.00000000  0.44150200  1
  Li  Li10  1  0.50000000  0.50000000  0.54651400  1
  Li  Li11  1  0.50000000  0.50000000  0.04651400  1
  Li  Li12  1  0.25971800  0.72732000  0.03469900  1
  Li  Li13  1  0.74028200  0.27268000  0.03469900  1
  Li  Li14  1  0.27268000  0.25971800  0.53469900  1
  Li  Li15  1  0.72732000  0.74028200  0.53469900  1
  Li  Li16  1  0.27268000  0.74028200  0.53469900  1
  Li  Li17  1  0.72732000  0.25971800  0.53469900  1
  Li  Li18  1  0.25971800  0.27268000  0.03469900  1
  Li  Li19  1  0.74028200  0.72732000  0.03469900  1
  Si  Si0  1  0.50000000  0.50000000  0.80119700  1
  Si  Si1  1  0.50000000  0.50000000  0.30119700  1
  P  P0  1  0.00000000  0.00000000  0.68568500  1
  P  P1  1  0.00000000  0.00000000  0.18568500  1
  P  P2  1  0.00000000  0.50000000  0.50412500  1
  P  P3  1  0.50000000  0.00000000  0.00412500  1
  Se  Se0  1  0.00000000  0.69973100  0.40909800  1
  Se  Se1  1  0.00000000  0.30026900  0.40909800  1
  Se  Se2  1  0.30026900  0.00000000  0.90909800  1
  Se  Se3  1  0.69973100  0.00000000  0.90909800  1
  Se  Se4  1  0.50000000  0.19405100  0.10186400  1
  Se  Se5  1  0.50000000  0.80594900  0.10186400  1
  Se  Se6  1  0.19405100  0.50000000  0.60186400  1
  Se  Se7  1  0.80594900  0.50000000  0.60186400  1
  Se  Se8  1  0.00000000  0.79732400  0.09299600  1
  Se  Se9  1  0.00000000  0.20267600  0.09299600  1
  Se  Se10  1  0.20267600  0.00000000  0.59299600  1
  Se  Se11  1  0.79732400  0.00000000  0.59299600  1
  Se  Se12  1  0.50000000  0.29330200  0.39982800  1
  Se  Se13  1  0.50000000  0.70669800  0.39982800  1
  Se  Se14  1  0.29330200  0.50000000  0.89982800  1
  Se  Se15  1  0.70669800  0.50000000  0.89982800  1
  Se  Se16  1  0.00000000  0.19771300  0.77938300  1
  Se  Se17  1  0.00000000  0.80228700  0.77938300  1
  Se  Se18  1  0.80228700  0.00000000  0.27938300  1
  Se  Se19  1  0.19771300  0.00000000  0.27938300  1
  Se  Se20  1  0.50000000  0.70217300  0.70088300  1
  Se  Se21  1  0.50000000  0.29782700  0.70088300  1
  Se  Se22  1  0.70217300  0.50000000  0.20088300  1
  Se  Se23  1  0.29782700  0.50000000  0.20088300  1
loop_
_geom_bond_atom_site_label_1
_geom_bond_atom_site_label_2
_geom_bond_distance
_geom_bond_site_symmetry_2
Li0 Se23 2.517000 1_555
Li0 Se19 2.566434 1_555
Li0 Se1 2.641394 1_555
Li0 Se12 2.850260 1_555
Li1 Se22 2.517000 1_555
Li1 Se18 2.566434 1_565
Li1 Se0 2.641394 1_655
Li1 Se13 2.850260 1_555
Li2 Se20 2.517000 1_555
Li2 Se17 2.566434 1_555
Li2 Se2 2.641394 1_565
Li2 Se14 2.850260 1_555
Li3 Se21 2.517000 1_555
Li3 Se16 2.566434 1_655
Li3 Se3 2.641394 1_555
Li3 Se15 2.850260 1_555
Li4 Se23 2.517000 1_555
Li4 Se19 2.566434 1_565
Li4 Se0 2.641394 1_555
Li4 Se13 2.850260 1_555
Li5 Se22 2.517000 1_555
Li5 Se18 2.566434 1_555
Li5 Se1 2.641394 1_655
Li5 Se12 2.850260 1_555
Li6 Se21 2.517000 1_555
Li6 Se16 2.566434 1_555
Li6 Se2 2.641394 1_555
Li6 Se14 2.850260 1_555
Li7 Se20 2.517000 1_555
Li7 Se17 2.566434 1_655
Li7 Se3 2.641394 1_565
Li7 Se15 2.850260 1_555
Li8 Se9 2.755104 1_556
Li8 Se8 2.755104 1_546
Li8 Se2 2.814784 1_555
Li8 Se3 2.814784 1_455
Li8 Se17 2.830258 1_545
Li8 Se16 2.830258 1_555
Li9 Se11 2.755104 1_455
Li9 Se10 2.755104 1_555
Li9 Se1 2.814784 1_555
Li9 Se0 2.814784 1_545
Li9 Se19 2.830258 1_555
Li9 Se18 2.830258 1_455
Li10 Se12 2.734579 1_555
Li10 Se13 2.734579 1_555
Li10 Se21 2.780090 1_555
Li10 Se20 2.780090 1_555
Li10 Se7 2.928343 1_555
Li10 Se6 2.928343 1_555
Li11 Se14 2.734579 1_554
Li11 Se15 2.734579 1_554
Li11 Se22 2.780090 1_555
Li11 Se23 2.780090 1_555
Li11 Se4 2.928343 1_555
Li11 Se5 2.928343 1_555
Li12 Se5 2.506813 1_555
Li12 Se8 2.609777 1_555
Li12 Se14 2.784504 1_554
Li12 Se2 3.052258 1_564
Li12 Se23 3.074291 1_555
Li13 Se4 2.506813 1_555
Li13 Se9 2.609777 1_655
Li13 Se15 2.784504 1_554
Li13 Se3 3.052258 1_554
Li13 Se22 3.074291 1_555
Li14 Se6 2.506813 1_555
Li14 Se10 2.609777 1_555
Li14 Se12 2.784504 1_555
Li14 Se1 3.052258 1_555
Li14 Se21 3.074291 1_555
Li15 Se7 2.506813 1_555
Li15 Se11 2.609777 1_565
Li15 Se13 2.784504 1_555
Li15 Se0 3.052258 1_655
Li15 Se20 3.074291 1_555
Li16 Se6 2.506813 1_555
Li16 Se10 2.609777 1_565
Li16 Se13 2.784504 1_555
Li16 Se0 3.052258 1_555
Li16 Se20 3.074291 1_555
Li17 Se7 2.506813 1_555
Li17 Se11 2.609777 1_555
Li17 Se12 2.784504 1_555
Li17 Se1 3.052258 1_655
Li17 Se21 3.074291 1_555
Li18 Se4 2.506813 1_555
Li18 Se9 2.609777 1_555
Li18 Se14 2.784504 1_554
Li18 Se2 3.052258 1_554
Li18 Se23 3.074291 1_555
Li19 Se5 2.506813 1_555
Li19 Se8 2.609777 1_655
Li19 Se15 2.784504 1_554
Li19 Se3 3.052258 1_564
Li19 Se22 3.074291 1_555
P0 Se16 2.215783 1_555
P0 Se17 2.215783 1_545
P0 Se10 2.246531 1_555
P0 Se11 2.246531 1_455
P1 Se19 2.215783 1_555
P1 Se18 2.215783 1_455
P1 Se8 2.246531 1_545
P1 Se9 2.246531 1_555
P2 Se7 2.218924 1_455
P2 Se6 2.218924 1_555
P2 Se1 2.241194 1_555
P2 Se0 2.241194 1_555
P3 Se5 2.218924 1_545
P3 Se4 2.218924 1_555
P3 Se2 2.241194 1_554
P3 Se3 2.241194 1_554
Se12 Si1 2.321546 1_555
Se13 Si1 2.321546 1_555
Se14 Si0 2.321546 1_555
Se15 Si0 2.321546 1_555
Se20 Si0 2.300027 1_555
Se21 Si0 2.300027 1_555
Se22 Si1 2.300027 1_555
Se23 Si1 2.300027 1_555
