# generated using pymatgen
data_SnCl8O25
_symmetry_space_group_name_H-M   'P 1'
_cell_length_a   16.43127649
_cell_length_b   16.43127649
_cell_length_c   7.56881300
_cell_angle_alpha   90.00000000
_cell_angle_beta   90.00000000
_cell_angle_gamma   120.00000198
_symmetry_Int_Tables_number   1
_chemical_formula_structural   SnCl8O25
_chemical_formula_sum   'Sn3 Cl24 O75'
_cell_volume   1769.70552085
_cell_formula_units_Z   3
loop_
 _symmetry_equiv_pos_site_id
 _symmetry_equiv_pos_as_xyz
  1  'x, y, z'
loop_
 _atom_site_type_symbol
 _atom_site_label
 _atom_site_symmetry_multiplicity
 _atom_site_fract_x
 _atom_site_fract_y
 _atom_site_fract_z
 _atom_site_occupancy
  Sn  Sn0  1  0.66666700  0.33333300  0.15521100  1
  Sn  Sn1  1  0.00000000  0.00000000  0.63179800  1
  Sn  Sn2  1  0.33333300  0.66666700  0.06608000  1
  Cl  Cl0  1  0.67719300  0.00511700  0.88522300  1
  Cl  Cl1  1  0.32792400  0.32280700  0.88522300  1
  Cl  Cl2  1  0.99488300  0.67207600  0.88522300  1
  Cl  Cl3  1  0.65999300  0.62332600  0.45635500  1
  Cl  Cl4  1  0.96333300  0.34000700  0.45635500  1
  Cl  Cl5  1  0.37667400  0.03666700  0.45635500  1
  Cl  Cl6  1  0.66909900  0.15514300  0.37500600  1
  Cl  Cl7  1  0.48604500  0.33090100  0.37500600  1
  Cl  Cl8  1  0.84485700  0.51395500  0.37500600  1
  Cl  Cl9  1  0.50406900  0.14579900  0.93441400  1
  Cl  Cl10  1  0.64173000  0.49593100  0.93441400  1
  Cl  Cl11  1  0.85420100  0.35827000  0.93441400  1
  Cl  Cl12  1  0.83436100  0.02758900  0.41180900  1
  Cl  Cl13  1  0.19322800  0.16563900  0.41180900  1
  Cl  Cl14  1  0.97241100  0.80677200  0.41180900  1
  Cl  Cl15  1  0.02313400  0.19197400  0.84616200  1
  Cl  Cl16  1  0.16884000  0.97686600  0.84616200  1
  Cl  Cl17  1  0.80802600  0.83116000  0.84616200  1
  Cl  Cl18  1  0.14828700  0.64107400  0.31143900  1
  Cl  Cl19  1  0.49278600  0.85171300  0.31143900  1
  Cl  Cl20  1  0.35892600  0.50721400  0.31143900  1
  Cl  Cl21  1  0.30363000  0.83373900  0.85946100  1
  Cl  Cl22  1  0.53010900  0.69637000  0.85946100  1
  Cl  Cl23  1  0.16626100  0.46989100  0.85946100  1
  O  O0  1  0.61973600  0.21339800  0.31422800  1
  O  O1  1  0.59366100  0.38026400  0.31422800  1
  O  O2  1  0.78660200  0.40633900  0.31422800  1
  O  O3  1  0.68831900  0.11813800  0.21894400  1
  O  O4  1  0.42981900  0.31168100  0.21894400  1
  O  O5  1  0.88186200  0.57018100  0.21894400  1
  O  O6  1  0.59909600  0.08496800  0.48781500  1
  O  O7  1  0.48587200  0.40090400  0.48781500  1
  O  O8  1  0.91503200  0.51412800  0.48781500  1
  O  O9  1  0.75298300  0.21855400  0.46926100  1
  O  O10  1  0.46557200  0.24701700  0.46926100  1
  O  O11  1  0.78144600  0.53442800  0.46926100  1
  O  O12  1  0.56164800  0.25400700  0.96556300  1
  O  O13  1  0.69236000  0.43835200  0.96556300  1
  O  O14  1  0.74599300  0.30764000  0.96556300  1
  O  O15  1  0.44231200  0.10426100  0.08258700  1
  O  O16  1  0.66194800  0.55768800  0.08258700  1
  O  O17  1  0.89573900  0.33805200  0.08258700  1
  O  O18  1  0.45396400  0.13910700  0.77460200  1
  O  O19  1  0.68514300  0.54603600  0.77460200  1
  O  O20  1  0.86089300  0.31485700  0.77460200  1
  O  O21  1  0.56930100  0.11241600  0.91635800  1
  O  O22  1  0.54311500  0.43069900  0.91635800  1
  O  O23  1  0.88758400  0.45688500  0.91635800  1
  O  O24  1  0.88617600  0.97223000  0.46351900  1
  O  O25  1  0.08605400  0.11382400  0.46351900  1
  O  O26  1  0.02777000  0.91394600  0.46351900  1
  O  O27  1  0.75603000  0.99857900  0.53189700  1
  O  O28  1  0.24254900  0.24397000  0.53189700  1
  O  O29  1  0.00142100  0.75745100  0.53189700  1
  O  O30  1  0.90003900  0.12635400  0.42526300  1
  O  O31  1  0.22631500  0.09996100  0.42526300  1
  O  O32  1  0.87364600  0.77368500  0.42526300  1
  O  O33  1  0.80263200  0.99738300  0.23508200  1
  O  O34  1  0.19475100  0.19736800  0.23508200  1
  O  O35  1  0.00261700  0.80524900  0.23508200  1
  O  O36  1  0.96658500  0.08403100  0.79165000  1
  O  O37  1  0.11744600  0.03341500  0.79165000  1
  O  O38  1  0.91596900  0.88255400  0.79165000  1
  O  O39  1  0.02421500  0.24572700  0.69536300  1
  O  O40  1  0.22151300  0.97578500  0.69536300  1
  O  O41  1  0.75427300  0.77848700  0.69536300  1
  O  O42  1  0.96917500  0.19642100  0.99021500  1
  O  O43  1  0.22724600  0.03082500  0.99021500  1
  O  O44  1  0.80357900  0.77275400  0.99021500  1
  O  O45  1  0.11628800  0.21383000  0.89549700  1
  O  O46  1  0.09754200  0.88371200  0.89549700  1
  O  O47  1  0.78617000  0.90245800  0.89549700  1
  O  O48  1  0.25014900  0.69709800  0.23378900  1
  O  O49  1  0.44694900  0.74985100  0.23378900  1
  O  O50  1  0.30290200  0.55305100  0.23378900  1
  O  O51  1  0.08447500  0.63710100  0.17680500  1
  O  O52  1  0.55262600  0.91552500  0.17680500  1
  O  O53  1  0.36289900  0.44737400  0.17680500  1
  O  O54  1  0.15089400  0.69527400  0.46154500  1
  O  O55  1  0.54438000  0.84910600  0.46154500  1
  O  O56  1  0.30472600  0.45562000  0.46154500  1
  O  O57  1  0.13065100  0.54871700  0.35739000  1
  O  O58  1  0.41806600  0.86934900  0.35739000  1
  O  O59  1  0.45128300  0.58193400  0.35739000  1
  O  O60  1  0.36004400  0.78142200  0.90634500  1
  O  O61  1  0.42137800  0.63995600  0.90634500  1
  O  O62  1  0.21857800  0.57862200  0.90634500  1
  O  O63  1  0.30277000  0.88422700  0.01340900  1
  O  O64  1  0.58145700  0.69723000  0.01340900  1
  O  O65  1  0.11577300  0.41854300  0.01340900  1
  O  O66  1  0.21025300  0.76423400  0.80579300  1
  O  O67  1  0.55398100  0.78974700  0.80579300  1
  O  O68  1  0.23576600  0.44601900  0.80579300  1
  O  O69  1  0.35910900  0.89452000  0.71800000  1
  O  O70  1  0.53541100  0.64089100  0.71800000  1
  O  O71  1  0.10548000  0.46458900  0.71800000  1
  O  O72  1  0.68214900  0.70507500  0.33771600  1
  O  O73  1  0.02292600  0.31785100  0.33771600  1
  O  O74  1  0.29492500  0.97707400  0.33771600  1
loop_
_geom_bond_atom_site_label_1
_geom_bond_atom_site_label_2
_geom_bond_distance
_geom_bond_site_symmetry_2
Cl3 O72 1.501381 1_555
Cl4 O73 1.501381 1_655
Cl5 O74 1.501381 1_545
Cl6 O6 1.433644 1_555
Cl6 O3 1.434125 1_555
Cl6 O9 1.434645 1_555
Cl6 O0 1.600662 1_555
Cl7 O7 1.433650 1_555
Cl7 O4 1.434134 1_555
Cl7 O10 1.434645 1_555
Cl7 O1 1.600634 1_555
Cl8 O8 1.433637 1_555
Cl8 O5 1.434132 1_555
Cl8 O11 1.434645 1_555
Cl8 O2 1.600636 1_555
Cl9 O21 1.433995 1_555
Cl9 O15 1.435517 1_556
Cl9 O18 1.436130 1_555
Cl9 O12 1.558780 1_555
Cl10 O22 1.433995 1_555
Cl10 O16 1.435519 1_556
Cl10 O19 1.436130 1_555
Cl10 O13 1.558794 1_555
Cl11 O23 1.433995 1_555
Cl11 O17 1.435509 1_556
Cl11 O20 1.436130 1_555
Cl11 O14 1.558779 1_555
Cl12 O33 1.431291 1_545
Cl12 O30 1.434314 1_555
Cl12 O27 1.447900 1_545
Cl12 O24 1.574765 1_545
Cl13 O34 1.431291 1_555
Cl13 O31 1.434314 1_555
Cl13 O28 1.447900 1_555
Cl13 O25 1.574765 1_555
Cl14 O35 1.431291 1_655
Cl14 O32 1.434314 1_555
Cl14 O29 1.447900 1_655
Cl14 O26 1.574765 1_655
Cl15 O42 1.430030 1_455
Cl15 O45 1.435817 1_555
Cl15 O39 1.437862 1_555
Cl15 O36 1.591030 1_455
Cl16 O43 1.430030 1_565
Cl16 O46 1.435817 1_555
Cl16 O40 1.437872 1_555
Cl16 O37 1.591030 1_565
Cl17 O44 1.430030 1_555
Cl17 O47 1.435817 1_555
Cl17 O41 1.437867 1_555
Cl17 O38 1.591030 1_555
Cl18 O54 1.430940 1_555
Cl18 O57 1.438095 1_555
Cl18 O51 1.439998 1_555
Cl18 O48 1.566342 1_555
Cl19 O55 1.430950 1_555
Cl19 O58 1.438079 1_555
Cl19 O52 1.440003 1_555
Cl19 O49 1.566343 1_555
Cl20 O56 1.430944 1_555
Cl20 O59 1.438089 1_555
Cl20 O53 1.440009 1_555
Cl20 O50 1.566329 1_555
Cl21 O63 1.434513 1_556
Cl21 O69 1.436797 1_555
Cl21 O66 1.439138 1_555
Cl21 O60 1.587760 1_555
Cl22 O64 1.434513 1_556
Cl22 O70 1.436797 1_555
Cl22 O67 1.439138 1_555
Cl22 O61 1.587760 1_555
Cl23 O65 1.434513 1_556
Cl23 O71 1.436797 1_555
Cl23 O68 1.439138 1_555
Cl23 O62 1.587760 1_555
O0 Sn0 2.099325 1_555
O1 Sn0 2.099350 1_555
O2 Sn0 2.099328 1_555
O12 Sn0 2.118447 1_556
O13 Sn0 2.118447 1_556
O14 Sn0 2.118447 1_556
O24 Sn1 2.115413 1_665
O25 Sn1 2.115413 1_555
O26 Sn1 2.115413 1_565
O36 Sn1 2.104714 1_655
O37 Sn1 2.104714 1_555
O38 Sn1 2.104714 1_665
O48 Sn2 2.100696 1_555
O49 Sn2 2.100705 1_555
O50 Sn2 2.100708 1_555
O60 Sn2 2.093354 1_556
O61 Sn2 2.093367 1_556
O62 Sn2 2.093358 1_556
