# generated using pymatgen
data_Li3Mn2Fe(BO3)3
_symmetry_space_group_name_H-M   'P 1'
_cell_length_a   6.33997600
_cell_length_b   8.25706000
_cell_length_c   8.27033712
_cell_angle_alpha   60.12403300
_cell_angle_beta   90.00000000
_cell_angle_gamma   90.00000000
_symmetry_Int_Tables_number   1
_chemical_formula_structural   Li3Mn2Fe(BO3)3
_chemical_formula_sum   'Li6 Mn4 Fe2 B6 O18'
_cell_volume   375.41216459
_cell_formula_units_Z   2
loop_
 _symmetry_equiv_pos_site_id
 _symmetry_equiv_pos_as_xyz
  1  'x, y, z'
loop_
 _atom_site_type_symbol
 _atom_site_label
 _atom_site_symmetry_multiplicity
 _atom_site_fract_x
 _atom_site_fract_y
 _atom_site_fract_z
 _atom_site_occupancy
  Li  Li0  1  0.74939900  0.71598300  0.30182100  1
  Li  Li1  1  0.25060100  0.71598300  0.30182100  1
  Li  Li2  1  0.74895000  0.98325400  0.71540500  1
  Li  Li3  1  0.25105000  0.98325400  0.71540500  1
  Li  Li4  1  0.25017900  0.30147500  0.98344400  1
  Li  Li5  1  0.74982100  0.30147500  0.98344400  1
  Mn  Mn0  1  0.00000000  0.62888700  0.01184800  1
  Mn  Mn1  1  0.50000000  0.62650100  0.01208600  1
  Mn  Mn2  1  0.00000000  0.35864000  0.62915300  1
  Mn  Mn3  1  0.00000000  0.01203600  0.35896800  1
  Fe  Fe0  1  0.50000000  0.35933400  0.63339000  1
  Fe  Fe1  1  0.50000000  0.00755500  0.36001500  1
  B  B0  1  0.00000000  0.99988100  0.99995000  1
  B  B1  1  0.50000000  0.00256000  0.99795100  1
  B  B2  1  0.74634200  0.66663800  0.66570200  1
  B  B3  1  0.25365800  0.66663800  0.66570200  1
  B  B4  1  0.74717600  0.33236200  0.33454800  1
  B  B5  1  0.25282400  0.33236200  0.33454800  1
  O  O0  1  0.50000000  0.89343000  0.19220300  1
  O  O1  1  0.00000000  0.88414600  0.19316700  1
  O  O2  1  0.74583900  0.86038500  0.55807500  1
  O  O3  1  0.25416100  0.86038500  0.55807500  1
  O  O4  1  0.00000000  0.92208100  0.88424100  1
  O  O5  1  0.50000000  0.91894400  0.88843900  1
  O  O6  1  0.74610900  0.55869000  0.58010100  1
  O  O7  1  0.25389100  0.55869000  0.58010100  1
  O  O8  1  0.74997500  0.58118800  0.85865800  1
  O  O9  1  0.25002500  0.58118800  0.85865800  1
  O  O10  1  0.74933000  0.52604300  0.22244400  1
  O  O11  1  0.25067000  0.52604300  0.22244400  1
  O  O12  1  0.00000000  0.19323600  0.92264700  1
  O  O13  1  0.50000000  0.19669500  0.91465800  1
  O  O14  1  0.74723600  0.22012900  0.25289200  1
  O  O15  1  0.25276400  0.22012900  0.25289200  1
  O  O16  1  0.25349600  0.25188900  0.52755300  1
  O  O17  1  0.74650400  0.25188900  0.52755300  1
loop_
_geom_bond_atom_site_label_1
_geom_bond_atom_site_label_2
_geom_bond_distance
_geom_bond_site_symmetry_2
Li0 O10 1.978986 1_555
Li0 O6 2.001534 1_555
Li0 O1 2.004183 1_655
Li0 O0 2.036046 1_555
Li1 O11 1.978986 1_555
Li1 O7 2.001534 1_555
Li1 O1 2.004183 1_555
Li1 O0 2.036046 1_555
Li2 O17 1.975062 1_565
Li2 O4 2.008874 1_655
Li2 O2 2.009442 1_555
Li2 O5 2.015929 1_555
Li3 O16 1.975062 1_565
Li3 O4 2.008874 1_555
Li3 O3 2.009442 1_555
Li3 O5 2.015929 1_555
Li4 O15 1.981447 1_556
Li4 O12 2.003767 1_555
Li4 O9 2.006174 1_555
Li4 O13 2.017697 1_555
Li5 O14 1.981447 1_556
Li5 O12 2.003767 1_655
Li5 O8 2.006174 1_555
Li5 O13 2.017697 1_555
Mn0 O4 2.104587 1_554
Mn0 O9 2.184047 1_554
Mn0 O8 2.184047 1_454
Mn0 O11 2.192452 1_555
Mn0 O10 2.192452 1_455
Mn1 O5 2.101559 1_554
Mn1 O8 2.175956 1_554
Mn1 O9 2.175956 1_554
Mn1 O11 2.185361 1_555
Mn1 O10 2.185361 1_555
Mn2 O12 2.110543 1_555
Mn2 O16 2.191765 1_555
Mn2 O17 2.191765 1_455
Mn2 O6 2.194657 1_455
Mn2 O7 2.194657 1_555
Mn3 O1 2.106651 1_545
Mn3 O14 2.188219 1_455
Mn3 O15 2.188219 1_555
Mn3 O3 2.195871 1_545
Mn3 O2 2.195871 1_445
Fe0 O13 2.025438 1_555
Fe0 O6 2.148426 1_555
Fe0 O7 2.148426 1_555
Fe0 O17 2.183879 1_555
Fe0 O16 2.183879 1_555
Fe1 O0 2.029060 1_545
Fe1 O2 2.146169 1_545
Fe1 O3 2.146169 1_545
Fe1 O14 2.184836 1_555
Fe1 O15 2.184836 1_555
B0 O12 1.393129 1_565
B0 O4 1.393153 1_555
B0 O1 1.394775 1_556
B1 O5 1.385622 1_545
B1 O13 1.394273 1_555
B1 O0 1.396676 1_546
B2 O8 1.386810 1_555
B2 O6 1.387199 1_555
B2 O2 1.390312 1_555
B3 O9 1.386810 1_555
B3 O7 1.387199 1_555
B3 O3 1.390312 1_555
B4 O17 1.390247 1_555
B4 O14 1.392244 1_555
B4 O10 1.392902 1_555
B5 O16 1.390247 1_555
B5 O15 1.392244 1_555
B5 O11 1.392902 1_555
