# generated using pymatgen
data_Bi25O38
_symmetry_space_group_name_H-M   'P 1'
_cell_length_a   8.86007084
_cell_length_b   8.95994674
_cell_length_c   14.50501515
_cell_angle_alpha   90.64338981
_cell_angle_beta   90.09300898
_cell_angle_gamma   109.71983282
_symmetry_Int_Tables_number   1
_chemical_formula_structural   Bi25O38
_chemical_formula_sum   'Bi25 O38'
_cell_volume   1083.87482635
_cell_formula_units_Z   1
loop_
 _symmetry_equiv_pos_site_id
 _symmetry_equiv_pos_as_xyz
  1  'x, y, z'
loop_
 _atom_site_type_symbol
 _atom_site_label
 _atom_site_symmetry_multiplicity
 _atom_site_fract_x
 _atom_site_fract_y
 _atom_site_fract_z
 _atom_site_occupancy
  Bi  Bi0  1  0.43592121  0.23238130  0.08381483  1
  Bi  Bi1  1  0.77881328  0.61863547  0.08640328  1
  Bi  Bi2  1  0.47162517  0.17472042  0.33653241  1
  Bi  Bi3  1  0.83318156  0.50883207  0.35014851  1
  Bi  Bi4  1  0.99686916  0.35081832  0.15484274  1
  Bi  Bi5  1  0.66341327  0.96694602  0.17580759  1
  Bi  Bi6  1  0.92574634  0.05425776  0.76651008  1
  Bi  Bi7  1  0.25003125  0.77049731  0.06447895  1
  Bi  Bi8  1  0.41217618  0.55405678  0.24264874  1
  Bi  Bi9  1  0.77133188  0.26124508  0.57807479  1
  Bi  Bi10  1  0.92067189  0.72540552  0.58687680  1
  Bi  Bi11  1  0.09655995  0.26496828  0.40247513  1
  Bi  Bi12  1  0.25456242  0.10320025  0.59506439  1
  Bi  Bi13  1  0.73002607  0.91815756  0.42445069  1
  Bi  Bi14  1  0.49841600  0.50503278  0.50660783  1
  Bi  Bi15  1  0.26823221  0.75838840  0.42896736  1
  Bi  Bi16  1  0.76301015  0.27170769  0.91899517  1
  Bi  Bi17  1  0.06103252  0.90968184  0.25515462  1
  Bi  Bi18  1  0.56140544  0.41708270  0.74527158  1
  Bi  Bi19  1  0.98415270  0.68322789  0.84924477  1
  Bi  Bi20  1  0.32774000  0.02231793  0.84997407  1
  Bi  Bi21  1  0.50846195  0.86098643  0.65824628  1
  Bi  Bi22  1  0.16434155  0.48693955  0.67624125  1
  Bi  Bi23  1  0.57346499  0.75485338  0.90298005  1
  Bi  Bi24  1  0.21307878  0.38989181  0.92156472  1
  O  O0  1  0.37636296  0.00000764  0.99901110  1
  O  O1  1  0.95153773  0.06473989  0.30888133  1
  O  O2  1  0.68316848  0.29075151  0.05423710  1
  O  O3  1  0.93748639  0.55866071  0.17586002  1
  O  O4  1  0.44318606  0.07595711  0.18873660  1
  O  O5  1  0.56599249  0.44739933  0.18308125  1
  O  O6  1  0.80253199  0.17933795  0.44532092  1
  O  O7  1  0.99224791  0.36047886  -0.00025860  1
  O  O8  1  0.81888778  0.81174272  0.18646998  1
  O  O9  1  0.23868639  0.47308431  0.12943077  1
  O  O10  1  0.50054677  0.75630965  0.12480442  1
  O  O11  1  0.98645279  0.74622599  0.36433793  1
  O  O12  1  0.25988487  -0.00273638  0.37523000  1
  O  O13  1  0.30713899  0.30569888  0.30711458  1
  O  O14  1  0.87313668  0.50389030  0.49811335  1
  O  O15  1  0.00293098  0.73680783  0.00206632  1
  O  O16  1  0.62158685  0.61590219  0.38598201  1
  O  O17  1  0.48375323  0.26336950  0.49563114  1
  O  O18  1  0.43571725  0.07041708  0.67747750  1
  O  O19  1  0.57997746  0.92844564  0.31281741  1
  O  O20  1  0.04873179  0.42993812  0.31679637  1
  O  O21  1  0.94163156  0.57357724  0.68967426  1
  O  O22  1  0.62546147  0.62097369  0.62901770  1
  O  O23  1  0.25983931  0.50873250  0.49455221  1
  O  O24  1  0.50124928  0.87091210  0.49759920  1
  O  O25  1  0.32317766  0.32572593  0.68010431  1
  O  O26  1  0.00819611  0.27190918  0.62297956  1
  O  O27  1  0.74384113  0.00417986  0.63032667  1
  O  O28  1  0.76700996  0.50112755  0.88231788  1
  O  O29  1  0.49469099  0.25114164  0.87140268  1
  O  O30  1  0.81791411  0.81341298  0.82287456  1
  O  O31  1  0.18412754  0.80597849  0.55651138  1
  O  O32  1  0.45358961  0.56355762  0.81286282  1
  O  O33  1  0.13457260  0.13577941  0.86813430  1
  O  O34  1  0.06712997  0.42493014  0.81511986  1
  O  O35  1  0.55409337  0.93231651  0.81747664  1
  O  O36  1  0.06911993  0.95217618  0.69215446  1
  O  O37  1  0.30233563  0.67871059  0.94017337  1
loop_
_geom_bond_atom_site_label_1
_geom_bond_atom_site_label_2
_geom_bond_distance
_geom_bond_site_symmetry_2
Bi0 O4 2.095975 1_555
Bi0 O2 2.119286 1_555
Bi0 O0 2.307693 1_554
Bi0 O5 2.355190 1_555
Bi1 O3 2.113869 1_555
Bi1 O8 2.180338 1_555
Bi1 O15 2.275677 1_655
Bi1 O5 2.445516 1_555
Bi2 O12 2.091210 1_555
Bi2 O13 2.201505 1_555
Bi2 O4 2.290748 1_555
Bi2 O17 2.422497 1_555
Bi2 O19 2.706040 1_545
Bi3 O11 2.109685 1_555
Bi3 O14 2.178035 1_555
Bi3 O20 2.299431 1_655
Bi3 O16 2.431223 1_555
Bi3 O3 2.683085 1_555
Bi4 O9 2.086638 1_655
Bi4 O3 2.118192 1_555
Bi4 O7 2.253219 1_555
Bi4 O20 2.443650 1_655
Bi5 O10 2.078166 1_555
Bi5 O19 2.112590 1_555
Bi5 O8 2.269831 1_555
Bi5 O4 2.465701 1_565
Bi6 O36 2.092807 1_645
Bi6 O30 2.211065 1_545
Bi6 O33 2.276978 1_655
Bi6 O27 2.486483 1_555
Bi7 O37 2.090148 1_554
Bi7 O0 2.208481 1_564
Bi7 O15 2.290257 1_555
Bi7 O10 2.427959 1_555
Bi8 O5 2.093147 1_555
Bi8 O9 2.190551 1_555
Bi8 O13 2.311776 1_555
Bi8 O10 2.436234 1_555
Bi8 O16 2.709202 1_555
Bi9 O6 2.104714 1_555
Bi9 O26 2.167138 1_655
Bi9 O27 2.366457 1_555
Bi9 O14 2.371105 1_555
Bi9 O17 2.818847 1_555
Bi10 O21 2.079316 1_555
Bi10 O31 2.244349 1_655
Bi10 O14 2.269605 1_555
Bi10 O36 2.512085 1_655
Bi10 O22 2.541039 1_555
Bi11 O20 2.090728 1_555
Bi11 O13 2.255586 1_555
Bi11 O1 2.257562 1_455
Bi11 O6 2.535471 1_455
Bi11 O23 2.538287 1_555
Bi12 O18 2.100299 1_555
Bi12 O25 2.234005 1_555
Bi12 O36 2.250299 1_545
Bi12 O17 2.520437 1_555
Bi12 O31 2.576452 1_545
Bi13 O19 2.115874 1_555
Bi13 O24 2.202640 1_555
Bi13 O6 2.224777 1_565
Bi13 O1 2.589885 1_565
Bi13 O16 2.603296 1_555
Bi14 O17 2.129100 1_555
Bi14 O23 2.132152 1_555
Bi14 O16 2.133724 1_555
Bi14 O22 2.159115 1_555
Bi15 O31 2.088276 1_555
Bi15 O24 2.199086 1_555
Bi15 O12 2.310423 1_565
Bi15 O23 2.418682 1_555
Bi15 O11 2.632515 1_455
Bi16 O2 2.110969 1_556
Bi16 O28 2.117828 1_555
Bi16 O7 2.238478 1_556
Bi16 O29 2.420409 1_555
Bi17 O1 2.089585 1_465
Bi17 O11 2.119454 1_455
Bi17 O8 2.251302 1_455
Bi17 O12 2.404106 1_565
Bi18 O32 2.101504 1_555
Bi18 O25 2.197464 1_555
Bi18 O29 2.319212 1_555
Bi18 O22 2.423961 1_555
Bi18 O28 2.620309 1_555
Bi19 O28 2.120351 1_555
Bi19 O30 2.200889 1_555
Bi19 O15 2.256727 1_656
Bi19 O21 2.482082 1_555
Bi19 O34 2.695426 1_655
Bi20 O29 2.103744 1_555
Bi20 O0 2.227927 1_555
Bi20 O33 2.280711 1_555
Bi20 O35 2.445500 1_545
Bi20 O18 2.667407 1_555
Bi21 O27 2.089993 1_565
Bi21 O18 2.195322 1_565
Bi21 O24 2.334476 1_555
Bi21 O35 2.386587 1_555
Bi21 O22 2.713732 1_555
Bi22 O26 2.094558 1_555
Bi22 O34 2.194611 1_555
Bi22 O25 2.333129 1_555
Bi22 O21 2.359179 1_455
Bi22 O23 2.758023 1_555
Bi23 O35 2.079347 1_555
Bi23 O32 2.119238 1_555
Bi23 O37 2.331023 1_555
Bi23 O30 2.360341 1_555
Bi24 O34 2.105460 1_555
Bi24 O7 2.202145 1_456
Bi24 O33 2.271190 1_555
Bi24 O37 2.448986 1_555
Bi24 O32 2.697512 1_555
