# generated using pymatgen
data_NdH4S2NO8
_symmetry_space_group_name_H-M   'P 1'
_cell_length_a   7.25413000
_cell_length_b   8.93718200
_cell_length_c   10.89965588
_cell_angle_alpha   88.37918725
_cell_angle_beta   90.00000000
_cell_angle_gamma   90.00000000
_symmetry_Int_Tables_number   1
_chemical_formula_structural   NdH4S2NO8
_chemical_formula_sum   'Nd4 H16 S8 N4 O32'
_cell_volume   706.35810056
_cell_formula_units_Z   4
loop_
 _symmetry_equiv_pos_site_id
 _symmetry_equiv_pos_as_xyz
  1  'x, y, z'
loop_
 _atom_site_type_symbol
 _atom_site_label
 _atom_site_symmetry_multiplicity
 _atom_site_fract_x
 _atom_site_fract_y
 _atom_site_fract_z
 _atom_site_occupancy
  Nd  Nd0  1  0.32908700  0.94476300  0.85037300  1
  Nd  Nd1  1  0.17091300  0.94476300  0.35037300  1
  Nd  Nd2  1  0.82908700  0.05523700  0.64962700  1
  Nd  Nd3  1  0.67091300  0.05523700  0.14962700  1
  H  H0  1  0.59409400  0.67247500  0.64806500  1
  H  H1  1  0.90590600  0.67247500  0.14806500  1
  H  H2  1  0.69828400  0.54850000  0.74344600  1
  H  H3  1  0.74821800  0.55047200  0.59260300  1
  H  H4  1  0.80171600  0.54850000  0.24344600  1
  H  H5  1  0.75178200  0.55047200  0.09260300  1
  H  H6  1  0.04151600  0.51159000  0.85726600  1
  H  H7  1  0.54151600  0.48841000  0.64273400  1
  H  H8  1  0.45848400  0.51159000  0.35726600  1
  H  H9  1  0.95848400  0.48841000  0.14273400  1
  H  H10  1  0.24821800  0.44952800  0.90739700  1
  H  H11  1  0.19828400  0.45150000  0.75655400  1
  H  H12  1  0.25178200  0.44952800  0.40739700  1
  H  H13  1  0.30171600  0.45150000  0.25655400  1
  H  H14  1  0.09409400  0.32752500  0.85193500  1
  H  H15  1  0.40590600  0.32752500  0.35193500  1
  S  S0  1  0.83076400  0.82438200  0.88743100  1
  S  S1  1  0.66923600  0.82438200  0.38743100  1
  S  S2  1  0.16249200  0.73389800  0.58694600  1
  S  S3  1  0.33750800  0.73389800  0.08694600  1
  S  S4  1  0.66249200  0.26610200  0.91305400  1
  S  S5  1  0.83750800  0.26610200  0.41305400  1
  S  S6  1  0.33076400  0.17561800  0.61256900  1
  S  S7  1  0.16923600  0.17561800  0.11256900  1
  N  N0  1  0.64561100  0.56529700  0.65629300  1
  N  N1  1  0.85438900  0.56529700  0.15629300  1
  N  N2  1  0.14561100  0.43470300  0.84370700  1
  N  N3  1  0.35438900  0.43470300  0.34370700  1
  O  O0  1  0.98659000  0.90139300  0.81798400  1
  O  O1  1  0.51341000  0.90139300  0.31798400  1
  O  O2  1  0.67620400  0.88340600  0.51272800  1
  O  O3  1  0.66303200  0.87113800  0.81178300  1
  O  O4  1  0.05071800  0.87515800  0.55931200  1
  O  O5  1  0.82379600  0.88340600  0.01272800  1
  O  O6  1  0.83696800  0.87113800  0.31178300  1
  O  O7  1  0.44928200  0.87515800  0.05931200  1
  O  O8  1  0.30337500  0.76641200  0.68330500  1
  O  O9  1  0.19662500  0.76641200  0.18330500  1
  O  O10  1  0.24283800  0.70981500  0.96705600  1
  O  O11  1  0.25716200  0.70981500  0.46705600  1
  O  O12  1  0.84841600  0.66149000  0.89038300  1
  O  O13  1  0.65158400  0.66149000  0.39038300  1
  O  O14  1  0.04464600  0.60928500  0.62512400  1
  O  O15  1  0.45535400  0.60928500  0.12512400  1
  O  O16  1  0.54464600  0.39071500  0.87487600  1
  O  O17  1  0.95535400  0.39071500  0.37487600  1
  O  O18  1  0.34841600  0.33851000  0.60961700  1
  O  O19  1  0.15158400  0.33851000  0.10961700  1
  O  O20  1  0.74283800  0.29018500  0.53294400  1
  O  O21  1  0.75716200  0.29018500  0.03294400  1
  O  O22  1  0.80337500  0.23358800  0.81669500  1
  O  O23  1  0.69662500  0.23358800  0.31669500  1
  O  O24  1  0.55071800  0.12484200  0.94068800  1
  O  O25  1  0.16303200  0.12886200  0.68821700  1
  O  O26  1  0.17620400  0.11659400  0.98727200  1
  O  O27  1  0.94928200  0.12484200  0.44068800  1
  O  O28  1  0.33696800  0.12886200  0.18821700  1
  O  O29  1  0.32379600  0.11659400  0.48727200  1
  O  O30  1  0.48659000  0.09860700  0.68201600  1
  O  O31  1  0.01341000  0.09860700  0.18201600  1
loop_
_geom_bond_atom_site_label_1
_geom_bond_atom_site_label_2
_geom_bond_distance
_geom_bond_site_symmetry_2
Nd0 O26 2.438120 1_565
Nd0 O8 2.460825 1_555
Nd0 O24 2.496731 1_565
Nd0 O7 2.500689 1_556
Nd0 O10 2.503381 1_555
Nd0 O30 2.533865 1_565
Nd0 O0 2.540755 1_455
Nd0 O3 2.548323 1_555
Nd0 O25 2.667860 1_565
Nd1 O29 2.438120 1_565
Nd1 O9 2.460825 1_555
Nd1 O27 2.496731 1_465
Nd1 O4 2.500689 1_555
Nd1 O11 2.503381 1_555
Nd1 O31 2.533865 1_565
Nd1 O1 2.540755 1_555
Nd1 O6 2.548323 1_455
Nd1 O28 2.667860 1_565
Nd2 O2 2.438120 1_545
Nd2 O22 2.460825 1_555
Nd2 O4 2.496731 1_645
Nd2 O27 2.500689 1_555
Nd2 O20 2.503381 1_555
Nd2 O0 2.533865 1_545
Nd2 O30 2.540755 1_555
Nd2 O25 2.548323 1_655
Nd2 O3 2.667860 1_545
Nd3 O5 2.438120 1_545
Nd3 O23 2.460825 1_555
Nd3 O7 2.496731 1_545
Nd3 O24 2.500689 1_554
Nd3 O21 2.503381 1_555
Nd3 O1 2.533865 1_545
Nd3 O31 2.540755 1_655
Nd3 O28 2.548323 1_555
Nd3 O6 2.667860 1_545
H0 N0 1.029736 1_555
H1 N1 1.029736 1_555
H2 N0 1.030945 1_555
H3 N0 1.028926 1_555
H4 N1 1.030945 1_555
H5 N1 1.028926 1_555
H6 N2 1.034393 1_555
H7 N0 1.034393 1_555
H8 N3 1.034393 1_555
H9 N1 1.034393 1_555
H10 N2 1.028926 1_555
H11 N2 1.030945 1_555
H12 N3 1.028926 1_555
H13 N3 1.030945 1_555
H14 N2 1.029736 1_555
H15 N3 1.029736 1_555
O0 S0 1.514915 1_555
O1 S1 1.514915 1_555
O2 S1 1.478747 1_555
O3 S0 1.521665 1_555
O4 S2 1.523308 1_555
O5 S0 1.478747 1_554
O6 S1 1.521665 1_555
O7 S3 1.523308 1_555
O8 S2 1.499747 1_555
O9 S3 1.499747 1_555
O10 S3 1.497158 1_556
O11 S2 1.497158 1_555
O12 S0 1.460864 1_555
O13 S1 1.460864 1_555
O14 S2 1.455353 1_555
O15 S3 1.455353 1_555
O16 S4 1.455353 1_555
O17 S5 1.455353 1_555
O18 S6 1.460864 1_555
O19 S7 1.460864 1_555
O20 S5 1.497158 1_555
O21 S4 1.497158 1_554
O22 S4 1.499747 1_555
O23 S5 1.499747 1_555
O24 S4 1.523308 1_555
O25 S6 1.521665 1_555
O26 S7 1.478747 1_556
O27 S5 1.523308 1_555
O28 S7 1.521665 1_555
O29 S6 1.478747 1_555
O30 S6 1.514915 1_555
O31 S7 1.514915 1_555
