# generated using pymatgen
data_LiVSiO4
_symmetry_space_group_name_H-M   'P 1'
_cell_length_a   5.16484900
_cell_length_b   10.32251400
_cell_length_c   13.62911200
_cell_angle_alpha   90.00000000
_cell_angle_beta   90.00000000
_cell_angle_gamma   90.00000000
_symmetry_Int_Tables_number   1
_chemical_formula_structural   LiVSiO4
_chemical_formula_sum   'Li8 V8 Si8 O32'
_cell_volume   726.62555885
_cell_formula_units_Z   8
loop_
 _symmetry_equiv_pos_site_id
 _symmetry_equiv_pos_as_xyz
  1  'x, y, z'
loop_
 _atom_site_type_symbol
 _atom_site_label
 _atom_site_symmetry_multiplicity
 _atom_site_fract_x
 _atom_site_fract_y
 _atom_site_fract_z
 _atom_site_occupancy
  Li  Li0  1  0.91451300  0.03409600  0.49811500  1
  Li  Li1  1  0.55974400  0.21786700  0.25007300  1
  Li  Li2  1  0.55974400  0.28213300  0.75007300  1
  Li  Li3  1  0.91451300  0.46590400  0.99811500  1
  Li  Li4  1  0.08548700  0.53409600  0.49811500  1
  Li  Li5  1  0.44025600  0.71786700  0.25007300  1
  Li  Li6  1  0.44025600  0.78213300  0.75007300  1
  Li  Li7  1  0.08548700  0.96590400  0.99811500  1
  V  V0  1  0.06961400  0.04033800  0.24841100  1
  V  V1  1  0.55697600  0.21441400  0.00051000  1
  V  V2  1  0.55697600  0.28558600  0.50051000  1
  V  V3  1  0.06961400  0.45966200  0.74841100  1
  V  V4  1  0.93038600  0.54033800  0.24841100  1
  V  V5  1  0.44302400  0.71441400  0.00051000  1
  V  V6  1  0.44302400  0.78558600  0.50051000  1
  V  V7  1  0.93038600  0.95966200  0.74841100  1
  Si  Si0  1  0.42725800  0.03317700  0.62373200  1
  Si  Si1  1  0.05641500  0.21319800  0.87190800  1
  Si  Si2  1  0.05641500  0.28680200  0.37190800  1
  Si  Si3  1  0.42725800  0.46682300  0.12373200  1
  Si  Si4  1  0.57274200  0.53317700  0.62373200  1
  Si  Si5  1  0.94358500  0.71319800  0.87190800  1
  Si  Si6  1  0.94358500  0.78680200  0.37190800  1
  Si  Si7  1  0.57274200  0.96682300  0.12373200  1
  O  O0  1  0.88574800  0.99615600  0.12760300  1
  O  O1  1  0.54754300  0.96452500  0.52445300  1
  O  O2  1  0.43679600  0.03450500  0.22059200  1
  O  O3  1  0.00276800  0.05622500  0.86643700  1
  O  O4  1  0.48934800  0.18902400  0.62017200  1
  O  O5  1  0.90668300  0.23057800  0.46991500  1
  O  O6  1  0.94171500  0.28496200  0.77323700  1
  O  O7  1  0.36704300  0.24702900  0.87924200  1
  O  O8  1  0.36704300  0.25297100  0.37924200  1
  O  O9  1  0.94171500  0.21503800  0.27323700  1
  O  O10  1  0.90668300  0.26942200  0.96991500  1
  O  O11  1  0.48934800  0.31097600  0.12017200  1
  O  O12  1  0.00276800  0.44377500  0.36643700  1
  O  O13  1  0.43679600  0.46549500  0.72059200  1
  O  O14  1  0.54754300  0.53547500  0.02445300  1
  O  O15  1  0.88574800  0.50384400  0.62760300  1
  O  O16  1  0.11425200  0.49615600  0.12760300  1
  O  O17  1  0.45245700  0.46452500  0.52445300  1
  O  O18  1  0.56320400  0.53450500  0.22059200  1
  O  O19  1  0.99723200  0.55622500  0.86643700  1
  O  O20  1  0.51065200  0.68902400  0.62017200  1
  O  O21  1  0.09331700  0.73057800  0.46991500  1
  O  O22  1  0.05828500  0.78496200  0.77323700  1
  O  O23  1  0.63295700  0.74702900  0.87924200  1
  O  O24  1  0.63295700  0.75297100  0.37924200  1
  O  O25  1  0.05828500  0.71503800  0.27323700  1
  O  O26  1  0.09331700  0.76942200  0.96991500  1
  O  O27  1  0.51065200  0.81097600  0.12017200  1
  O  O28  1  0.99723200  0.94377500  0.36643700  1
  O  O29  1  0.56320400  0.96549500  0.72059200  1
  O  O30  1  0.45245700  0.03547500  0.02445300  1
  O  O31  1  0.11425200  0.00384400  0.62760300  1
loop_
_geom_bond_atom_site_label_1
_geom_bond_atom_site_label_2
_geom_bond_distance
_geom_bond_site_symmetry_2
Li0 O1 2.058379 1_545
Li0 O5 2.064679 1_555
Li0 O28 2.067019 1_545
Li0 O31 2.067922 1_655
Li1 O9 1.998137 1_555
Li1 O2 2.036469 1_555
Li1 O11 2.047043 1_555
Li1 O8 2.054528 1_555
Li2 O6 1.998137 1_555
Li2 O13 2.036469 1_555
Li2 O4 2.047043 1_555
Li2 O7 2.054528 1_555
Li3 O14 2.058379 1_556
Li3 O10 2.064679 1_555
Li3 O19 2.067019 1_555
Li3 O16 2.067922 1_656
Li4 O17 2.058379 1_555
Li4 O21 2.064679 1_555
Li4 O12 2.067019 1_555
Li4 O15 2.067922 1_455
Li5 O25 1.998137 1_555
Li5 O18 2.036469 1_555
Li5 O27 2.047043 1_555
Li5 O24 2.054528 1_555
Li6 O22 1.998137 1_555
Li6 O29 2.036469 1_555
Li6 O20 2.047043 1_555
Li6 O23 2.054528 1_555
Li7 O30 2.058379 1_566
Li7 O26 2.064679 1_555
Li7 O3 2.067019 1_565
Li7 O0 2.067922 1_456
O0 Si7 1.645586 1_555
O0 V0 1.954686 1_665
O1 Si0 1.648938 1_565
O1 V6 1.951839 1_555
O2 Si7 1.650399 1_545
O2 V0 1.934906 1_555
O3 Si1 1.645566 1_555
O3 V7 1.928957 1_445
O4 Si0 1.641102 1_555
O4 V2 1.943021 1_555
O5 Si2 1.648974 1_655
O5 V2 1.938710 1_555
O6 Si1 1.645658 1_655
O6 V3 1.950102 1_655
O7 Si1 1.644954 1_555
O7 V1 1.951237 1_556
O8 Si2 1.644954 1_555
O8 V2 1.951237 1_555
O9 Si2 1.645658 1_655
O9 V0 1.950102 1_655
O10 Si1 1.648974 1_655
O10 V1 1.938710 1_556
O11 Si3 1.641102 1_555
O11 V1 1.943021 1_555
O12 Si2 1.645566 1_555
O12 V4 1.928957 1_455
O13 Si4 1.650399 1_555
O13 V3 1.934906 1_555
O14 Si3 1.648938 1_555
O14 V5 1.951839 1_555
O15 Si4 1.645586 1_555
O15 V3 1.954686 1_655
O16 Si3 1.645586 1_555
O16 V4 1.954686 1_455
O17 Si4 1.648938 1_555
O17 V2 1.951839 1_555
O18 Si3 1.650399 1_555
O18 V4 1.934906 1_555
O19 Si5 1.645566 1_555
O19 V3 1.928957 1_655
O20 Si4 1.641102 1_555
O20 V6 1.943021 1_555
O21 Si6 1.648974 1_455
O21 V6 1.938710 1_555
O22 Si5 1.645658 1_455
O22 V7 1.950102 1_455
O23 Si5 1.644954 1_555
O23 V5 1.951237 1_556
O24 Si6 1.644954 1_555
O24 V6 1.951237 1_555
O25 Si6 1.645658 1_455
O25 V4 1.950102 1_455
O26 Si5 1.648974 1_455
O26 V5 1.938710 1_556
O27 Si7 1.641102 1_555
O27 V5 1.943021 1_555
O28 Si6 1.645566 1_555
O28 V0 1.928957 1_665
O29 Si0 1.650399 1_565
O29 V7 1.934906 1_555
O30 Si7 1.648938 1_545
O30 V1 1.951839 1_555
O31 Si0 1.645586 1_555
O31 V7 1.954686 1_445
