# generated using pymatgen
data_Li3V3(BO5)2
_symmetry_space_group_name_H-M   'P 1'
_cell_length_a   3.03871800
_cell_length_b   9.26970489
_cell_length_c   12.22733536
_cell_angle_alpha   89.75167433
_cell_angle_beta   89.90915019
_cell_angle_gamma   89.41154883
_symmetry_Int_Tables_number   1
_chemical_formula_structural   Li3V3(BO5)2
_chemical_formula_sum   'Li6 V6 B4 O20'
_cell_volume   344.39800747
_cell_formula_units_Z   2
loop_
 _symmetry_equiv_pos_site_id
 _symmetry_equiv_pos_as_xyz
  1  'x, y, z'
loop_
 _atom_site_type_symbol
 _atom_site_label
 _atom_site_symmetry_multiplicity
 _atom_site_fract_x
 _atom_site_fract_y
 _atom_site_fract_z
 _atom_site_occupancy
  Li  Li0  1  0.00172100  0.00520100  0.99837800  1
  Li  Li1  1  0.49993400  0.97700100  0.50870800  1
  Li  Li2  1  0.00253500  0.51806300  0.50685000  1
  Li  Li3  1  0.49929000  0.49840000  0.00020800  1
  Li  Li4  1  0.49917400  0.73050400  0.40056000  1
  Li  Li5  1  0.00156900  0.98598000  0.70963900  1
  V  V0  1  0.00003800  0.99334700  0.29021800  1
  V  V1  1  0.50071500  0.23802700  0.10735000  1
  V  V2  1  0.52062500  0.24940300  0.61198000  1
  V  V3  1  0.99800700  0.50026000  0.78414600  1
  V  V4  1  0.99959300  0.50790700  0.21991400  1
  V  V5  1  0.47103400  0.76565100  0.88468800  1
  B  B0  1  0.49889900  0.22789300  0.85747100  1
  B  B1  1  0.49717900  0.27467200  0.36230900  1
  B  B2  1  0.50166600  0.72969500  0.63378800  1
  B  B3  1  0.50407200  0.77903100  0.13653100  1
  O  O0  1  0.00006400  0.10716700  0.15459600  1
  O  O1  1  0.97994300  0.13380800  0.57451200  1
  O  O2  1  0.49658800  0.12425000  0.34659000  1
  O  O3  1  0.49528700  0.15705700  0.76002300  1
  O  O4  1  0.49986700  0.15572900  0.95681500  1
  O  O5  1  0.49683900  0.33984500  0.45938100  1
  O  O6  1  0.50088800  0.35764400  0.26250300  1
  O  O7  1  0.49587700  0.38150100  0.85648400  1
  O  O8  1  0.00242100  0.38561000  0.08567400  1
  O  O9  1  0.01137200  0.38459800  0.65203100  1
  O  O10  1  0.99814700  0.59266600  0.34130900  1
  O  O11  1  0.99131300  0.62270400  0.92112300  1
  O  O12  1  0.49689400  0.62637300  0.14907700  1
  O  O13  1  0.49737800  0.64675900  0.74252400  1
  O  O14  1  0.49882500  0.64613200  0.54531500  1
  O  O15  1  0.51730400  0.84181900  0.03688100  1
  O  O16  1  0.50296100  0.86456500  0.23038300  1
  O  O17  1  0.50594600  0.87344700  0.64545100  1
  O  O18  1  0.00098500  0.89692900  0.41142800  1
  O  O19  1  0.01505300  0.88036300  0.85516300  1
loop_
_geom_bond_atom_site_label_1
_geom_bond_atom_site_label_2
_geom_bond_distance
_geom_bond_site_symmetry_2
Li0 O19 2.103245 1_545
Li0 O4 2.117423 1_455
Li0 O4 2.128717 1_555
Li0 O0 2.134839 1_556
Li0 O15 2.172459 1_446
Li0 O15 2.217514 1_546
Li1 O17 1.924367 1_555
Li1 O18 2.064616 1_655
Li1 O18 2.073891 1_555
Li1 O1 2.223774 1_565
Li1 O1 2.283830 1_465
Li1 O2 2.401860 1_565
Li2 O14 1.984598 1_455
Li2 O14 1.987145 1_555
Li2 O10 2.136179 1_455
Li2 O9 2.159403 1_555
Li2 O5 2.297132 1_555
Li2 O5 2.343228 1_455
Li3 O7 2.068684 1_554
Li3 O8 2.117259 1_555
Li3 O8 2.117881 1_655
Li3 O11 2.125869 1_554
Li3 O11 2.145701 1_454
Li3 O12 2.176966 1_555
Li4 O14 1.931964 1_555
Li4 O10 2.102656 1_555
Li4 O10 2.127642 1_455
Li4 O18 2.154656 1_555
Li4 O18 2.184848 1_655
Li4 O16 2.419097 1_555
Li5 O17 2.003864 1_455
Li5 O17 2.005899 1_555
Li5 O19 2.027477 1_555
Li5 O1 2.142633 1_465
Li5 O3 2.281552 1_565
Li5 O3 2.283982 1_465
B0 O3 1.363083 1_555
B0 O4 1.384175 1_555
B0 O7 1.423835 1_555
B1 O5 1.334161 1_555
B1 O2 1.408397 1_555
B1 O6 1.439779 1_555
B2 O14 1.333336 1_555
B2 O17 1.340960 1_555
B2 O13 1.533039 1_555
B3 O15 1.348770 1_555
B3 O16 1.397632 1_555
B3 O12 1.423110 1_555
O0 V0 1.961624 1_545
O0 V1 2.016562 1_455
O0 V1 2.036834 1_555
O1 V2 1.810430 1_555
O1 V2 2.024908 1_655
O2 V0 2.062454 1_645
O2 V0 2.066975 1_545
O3 V2 2.000725 1_555
O4 V1 1.995540 1_556
O5 V2 2.043335 1_555
O6 V4 2.117641 1_455
O6 V4 2.131293 1_555
O6 V1 2.201530 1_555
O7 V3 2.060256 1_455
O7 V3 2.084270 1_555
O8 V4 1.998830 1_455
O8 V1 2.046977 1_555
O8 V1 2.074718 1_455
O9 V3 1.942842 1_455
O9 V2 2.019951 1_455
O9 V2 2.041603 1_555
O10 V4 1.682440 1_555
O11 V3 2.027251 1_555
O11 V5 2.027757 1_655
O11 V5 2.099497 1_555
O12 V4 2.061812 1_555
O12 V4 2.064321 1_455
O13 V5 2.063253 1_555
O13 V3 2.090806 1_555
O13 V3 2.107062 1_455
O15 V5 1.998886 1_554
O16 V0 2.064566 1_555
O16 V0 2.071235 1_655
O18 V0 1.727383 1_555
O19 V5 1.774517 1_555
O19 V5 2.006173 1_455
