# generated using pymatgen
data_Na2LiMnPCO7
_symmetry_space_group_name_H-M   'P 1'
_cell_length_a   6.78351300
_cell_length_b   8.85783676
_cell_length_c   10.22579922
_cell_angle_alpha   89.31100363
_cell_angle_beta   89.94925307
_cell_angle_gamma   89.92415832
_symmetry_Int_Tables_number   1
_chemical_formula_structural   Na2LiMnPCO7
_chemical_formula_sum   'Na8 Li4 Mn4 P4 C4 O28'
_cell_volume   614.39496620
_cell_formula_units_Z   4
loop_
 _symmetry_equiv_pos_site_id
 _symmetry_equiv_pos_as_xyz
  1  'x, y, z'
loop_
 _atom_site_type_symbol
 _atom_site_label
 _atom_site_symmetry_multiplicity
 _atom_site_fract_x
 _atom_site_fract_y
 _atom_site_fract_z
 _atom_site_occupancy
  Na  Na0  1  0.74907000  0.08243600  0.87881700  1
  Na  Na1  1  0.74646100  0.08355300  0.37950900  1
  Na  Na2  1  0.99950000  0.25443100  0.62508800  1
  Na  Na3  1  0.00028800  0.25770700  0.12428600  1
  Na  Na4  1  0.49911100  0.25712200  0.12404000  1
  Na  Na5  1  0.49784700  0.74566500  0.87539700  1
  Na  Na6  1  0.49843500  0.74299900  0.37650300  1
  Na  Na7  1  0.00064300  0.74376500  0.37668000  1
  Li  Li0  1  0.52198500  0.27121900  0.61604000  1
  Li  Li1  1  0.01924800  0.73077200  0.88333200  1
  Li  Li2  1  0.25074900  0.91467900  0.62728300  1
  Li  Li3  1  0.24648300  0.90900300  0.12313100  1
  Mn  Mn0  1  0.25256600  0.35989300  0.88450800  1
  Mn  Mn1  1  0.25244400  0.36173900  0.39244600  1
  Mn  Mn2  1  0.75228400  0.64356900  0.61528000  1
  Mn  Mn3  1  0.75286500  0.64119300  0.10794700  1
  P  P0  1  0.75149400  0.41123500  0.84899400  1
  P  P1  1  0.75046600  0.41110300  0.35525300  1
  P  P2  1  0.25055100  0.59474900  0.65131600  1
  P  P3  1  0.25053300  0.59472100  0.14534600  1
  C  C0  1  0.24280600  0.04588100  0.86656400  1
  C  C1  1  0.25022500  0.05226000  0.36609500  1
  C  C2  1  0.74255200  0.94598900  0.63274700  1
  C  C3  1  0.75075000  0.94073100  0.13206100  1
  O  O0  1  0.72601600  0.09233000  0.64210200  1
  O  O1  1  0.75046000  0.08683600  0.14278000  1
  O  O2  1  0.25015600  0.08921100  0.98792800  1
  O  O3  1  0.24806500  0.09332700  0.48800700  1
  O  O4  1  0.25509500  0.14550800  0.77161800  1
  O  O5  1  0.25289100  0.15435200  0.27273300  1
  O  O6  1  0.93527900  0.31491400  0.88746700  1
  O  O7  1  0.56790300  0.32548300  0.90182200  1
  O  O8  1  0.93596400  0.31825300  0.39630000  1
  O  O9  1  0.56837900  0.31707700  0.40223300  1
  O  O10  1  0.73570700  0.42129100  0.69618500  1
  O  O11  1  0.26630400  0.43094800  0.59620900  1
  O  O12  1  0.74694400  0.42745600  0.20273500  1
  O  O13  1  0.24879900  0.43489200  0.08479800  1
  O  O14  1  0.76717700  0.57484900  0.90216100  1
  O  O15  1  0.23528600  0.57994800  0.80376400  1
  O  O16  1  0.74918400  0.57091900  0.41377600  1
  O  O17  1  0.24655800  0.57391400  0.29726200  1
  O  O18  1  0.43212900  0.69368900  0.61403200  1
  O  O19  1  0.06846300  0.68301800  0.59991300  1
  O  O20  1  0.43447000  0.68960800  0.10567000  1
  O  O21  1  0.07089500  0.69235100  0.09962300  1
  O  O22  1  0.75300700  0.86123800  0.73721700  1
  O  O23  1  0.75237600  0.85512800  0.23633300  1
  O  O24  1  0.74949900  0.88274400  0.51895500  1
  O  O25  1  0.74946500  0.87881900  0.01785500  1
  O  O26  1  0.22418800  0.90422100  0.83757100  1
  O  O27  1  0.24998600  0.91126600  0.33428800  1
loop_
_geom_bond_atom_site_label_1
_geom_bond_atom_site_label_2
_geom_bond_distance
_geom_bond_site_symmetry_2
Na0 O25 2.283149 1_546
Na0 O6 2.419785 1_555
Na0 O0 2.426309 1_555
Na0 O22 2.450380 1_545
Na0 O7 2.491018 1_555
Na0 O1 2.700008 1_556
Na1 O24 2.266406 1_545
Na1 O9 2.407597 1_555
Na1 O1 2.420697 1_555
Na1 O8 2.453569 1_555
Na1 O23 2.511980 1_545
Na1 O0 2.690731 1_555
Na2 O0 2.352477 1_555
Na2 O11 2.408939 1_655
Na2 O10 2.435518 1_555
Na2 O8 2.438879 1_555
Na2 O4 2.479440 1_655
Na2 O3 2.623356 1_655
Na2 O6 2.776215 1_555
Na3 O1 2.279907 1_455
Na3 O13 2.336388 1_555
Na3 O12 2.424367 1_455
Na3 O5 2.458795 1_555
Na3 O6 2.507487 1_454
Na3 O2 2.661576 1_554
Na3 O8 2.871969 1_455
Na4 O1 2.281629 1_555
Na4 O13 2.345782 1_555
Na4 O7 2.390358 1_554
Na4 O12 2.405971 1_555
Na4 O5 2.428280 1_555
Na4 O2 2.657445 1_554
Na5 O26 2.355747 1_555
Na5 O14 2.384492 1_555
Na5 O15 2.428711 1_555
Na5 O20 2.438600 1_556
Na5 O22 2.450736 1_555
Na5 O25 2.545120 1_556
Na5 O18 2.754286 1_555
Na6 O27 2.286368 1_555
Na6 O16 2.311321 1_555
Na6 O17 2.420236 1_555
Na6 O23 2.444236 1_555
Na6 O18 2.503163 1_555
Na6 O24 2.570613 1_555
Na6 O20 2.848886 1_555
Na7 O27 2.289116 1_555
Na7 O16 2.321520 1_455
Na7 O19 2.384059 1_555
Na7 O17 2.392950 1_555
Na7 O23 2.415542 1_455
Na7 O24 2.562747 1_455
Li0 O0 2.117112 1_555
Li0 O10 2.138695 1_555
Li0 O9 2.240964 1_555
Li0 O11 2.244628 1_555
Li1 O26 2.121166 1_555
Li1 O15 2.147877 1_555
Li1 O14 2.206297 1_455
Li1 O21 2.261272 1_556
Li2 O3 2.116263 1_565
Li2 O26 2.158627 1_555
Li2 O18 2.315970 1_555
Li2 O19 2.416459 1_555
Li2 O4 2.536269 1_565
Li3 O2 2.099305 1_564
Li3 O27 2.159735 1_555
Li3 O21 2.275300 1_555
Li3 O20 2.331544 1_555
Mn0 O15 2.110867 1_555
Mn0 O13 2.160877 1_556
Mn0 O7 2.167398 1_555
Mn0 O6 2.189520 1_455
Mn0 O4 2.234203 1_555
Mn0 O2 2.608933 1_555
Mn1 O17 2.106427 1_555
Mn1 O9 2.181008 1_555
Mn1 O11 2.181154 1_555
Mn1 O8 2.181868 1_455
Mn1 O5 2.219732 1_555
Mn1 O3 2.559840 1_555
Mn2 O10 2.129536 1_555
Mn2 O16 2.166192 1_555
Mn2 O19 2.178772 1_655
Mn2 O18 2.216129 1_555
Mn2 O22 2.308706 1_555
Mn2 O24 2.325656 1_555
Mn3 O12 2.116957 1_555
Mn3 O14 2.193671 1_554
Mn3 O20 2.201533 1_555
Mn3 O21 2.206384 1_655
Mn3 O25 2.287561 1_555
Mn3 O23 2.318280 1_555
C0 O26 1.299157 1_545
C0 O2 1.304455 1_555
C0 O4 1.306832 1_555
C1 O27 1.294343 1_545
C1 O3 1.302893 1_555
C1 O5 1.307216 1_555
C2 O24 1.298295 1_555
C2 O22 1.300209 1_555
C2 O0 1.305609 1_565
C3 O25 1.296197 1_555
C3 O1 1.300119 1_565
C3 O23 1.300980 1_555
O6 P0 1.557877 1_555
O7 P0 1.552813 1_555
O8 P1 1.557526 1_555
O9 P1 1.562755 1_555
O10 P0 1.567810 1_555
O11 P2 1.566298 1_555
O12 P1 1.564796 1_555
O13 P3 1.552077 1_555
O14 P0 1.557798 1_555
O15 P2 1.566181 1_555
O16 P1 1.543546 1_555
O17 P3 1.562368 1_555
O18 P2 1.557110 1_555
O19 P2 1.549851 1_555
O20 P3 1.556139 1_555
O21 P3 1.562016 1_555
