# generated using pymatgen
data_LiCoPO4
_symmetry_space_group_name_H-M   'P 1'
_cell_length_a   5.90640716
_cell_length_b   6.45883665
_cell_length_c   9.46006053
_cell_angle_alpha   74.22695186
_cell_angle_beta   95.51863449
_cell_angle_gamma   99.72702429
_symmetry_Int_Tables_number   1
_chemical_formula_structural   LiCoPO4
_chemical_formula_sum   'Li4 Co4 P4 O16'
_cell_volume   341.82506676
_cell_formula_units_Z   4
loop_
 _symmetry_equiv_pos_site_id
 _symmetry_equiv_pos_as_xyz
  1  'x, y, z'
loop_
 _atom_site_type_symbol
 _atom_site_label
 _atom_site_symmetry_multiplicity
 _atom_site_fract_x
 _atom_site_fract_y
 _atom_site_fract_z
 _atom_site_occupancy
  Li  Li0  1  0.59394500  0.16432400  0.26187300  1
  Li  Li1  1  0.40721200  0.83514200  0.73771200  1
  Li  Li2  1  0.42740700  0.34333700  0.67484900  1
  Li  Li3  1  0.57162000  0.65765400  0.32519800  1
  Co  Co0  1  0.02485500  0.92180100  0.28728500  1
  Co  Co1  1  0.80208200  0.37222900  0.92815600  1
  Co  Co2  1  0.97538500  0.07782800  0.71299700  1
  Co  Co3  1  0.19737700  0.62822200  0.07177700  1
  P  P0  1  0.15515000  0.28760600  0.38131100  1
  P  P1  1  0.84571000  0.71167100  0.61872800  1
  P  P2  1  0.28143000  0.17430300  0.99976100  1
  P  P3  1  0.71787500  0.82630000  0.00027100  1
  O  O0  1  0.52845700  0.25960900  0.04889900  1
  O  O1  1  0.47084400  0.74108500  0.95095400  1
  O  O2  1  0.30091000  0.11943600  0.35685900  1
  O  O3  1  0.70074500  0.88025400  0.64351900  1
  O  O4  1  0.90841700  0.21745100  0.32359100  1
  O  O5  1  0.09278900  0.78082900  0.67621100  1
  O  O6  1  0.79797400  0.05195500  0.89334900  1
  O  O7  1  0.20154100  0.94855100  0.10660500  1
  O  O8  1  0.12282000  0.33929100  0.01261500  1
  O  O9  1  0.87649000  0.66117200  0.98747400  1
  O  O10  1  0.16856000  0.28456500  0.54646200  1
  O  O11  1  0.83135000  0.71497900  0.45350600  1
  O  O12  1  0.27135000  0.15951200  0.83850500  1
  O  O13  1  0.72791100  0.84123000  0.16155700  1
  O  O14  1  0.73884800  0.47616400  0.70478700  1
  O  O15  1  0.26095100  0.52349700  0.29519200  1
loop_
_geom_bond_atom_site_label_1
_geom_bond_atom_site_label_2
_geom_bond_distance
_geom_bond_site_symmetry_2
Li0 O4 1.895662 1_555
Li0 O0 1.960618 1_555
Li0 O2 1.968513 1_555
Li1 O5 1.895631 1_555
Li1 O1 1.960820 1_555
Li1 O3 1.967232 1_555
Li2 O12 1.887200 1_555
Li2 O10 1.911548 1_555
Li2 O14 1.923174 1_555
Li3 O13 1.887220 1_555
Li3 O11 1.912596 1_555
Li3 O15 1.922151 1_555
Co0 O7 2.040105 1_555
Co0 O11 2.061829 1_455
Co0 O2 2.065959 1_565
Co0 O13 2.094850 1_455
Co0 O4 2.254570 1_465
Co1 O0 1.987924 1_556
Co1 O8 2.006259 1_656
Co1 O14 2.053534 1_555
Co1 O9 2.058065 1_555
Co1 O6 2.177135 1_555
Co2 O6 2.041212 1_555
Co2 O3 2.059901 1_545
Co2 O10 2.062532 1_655
Co2 O12 2.091310 1_655
Co2 O5 2.267273 1_645
Co3 O1 1.987705 1_554
Co3 O9 2.006674 1_454
Co3 O15 2.054618 1_555
Co3 O8 2.057287 1_555
Co3 O7 2.177513 1_555
O0 P2 1.544542 1_554
O1 P3 1.544919 1_556
O2 P0 1.570147 1_555
O3 P1 1.570413 1_555
O4 P0 1.544518 1_655
O5 P1 1.544047 1_455
O6 P3 1.558437 1_546
O7 P2 1.558310 1_564
O8 P2 1.567695 1_554
O9 P3 1.568269 1_556
O10 P0 1.551645 1_555
O11 P1 1.551647 1_555
O12 P2 1.549075 1_555
O13 P3 1.549666 1_555
O14 P1 1.573561 1_555
O15 P0 1.573822 1_555
