# generated using pymatgen
data_Li2NbCr3O8
_symmetry_space_group_name_H-M   'P 1'
_cell_length_a   6.02959250
_cell_length_b   6.05194869
_cell_length_c   10.40976803
_cell_angle_alpha   106.70751515
_cell_angle_beta   90.00068047
_cell_angle_gamma   60.12215708
_symmetry_Int_Tables_number   1
_chemical_formula_structural   Li2NbCr3O8
_chemical_formula_sum   'Li4 Nb2 Cr6 O16'
_cell_volume   310.74344119
_cell_formula_units_Z   2
loop_
 _symmetry_equiv_pos_site_id
 _symmetry_equiv_pos_as_xyz
  1  'x, y, z'
loop_
 _atom_site_type_symbol
 _atom_site_label
 _atom_site_symmetry_multiplicity
 _atom_site_fract_x
 _atom_site_fract_y
 _atom_site_fract_z
 _atom_site_occupancy
  Li  Li0  1  0.30713500  0.38572400  0.56456300  1
  Li  Li1  1  0.80712500  0.38574800  0.06459100  1
  Li  Li2  1  0.19278600  0.61442400  0.93571900  1
  Li  Li3  1  0.69279600  0.61440200  0.43569800  1
  Nb  Nb0  1  0.75035300  0.49928500  0.74962100  1
  Nb  Nb1  1  0.25037300  0.49925300  0.24959600  1
  Cr  Cr0  1  0.75017300  0.99989300  0.75066500  1
  Cr  Cr1  1  0.24991600  0.99991400  0.75067900  1
  Cr  Cr2  1  0.00011600  0.99974700  0.49928100  1
  Cr  Cr3  1  0.25013900  0.99995000  0.25072100  1
  Cr  Cr4  1  0.74992200  0.99994700  0.25071300  1
  Cr  Cr5  1  0.50020300  0.99962100  0.99922800  1
  O  O0  1  0.10145400  0.79703400  0.63265000  1
  O  O1  1  0.60148200  0.79703600  0.13263000  1
  O  O2  1  0.39671900  0.20655800  0.86703000  1
  O  O3  1  0.89672300  0.20655400  0.36703000  1
  O  O4  1  0.87831900  0.24335700  0.85856600  1
  O  O5  1  0.37832500  0.24335100  0.35854400  1
  O  O6  1  0.65286000  0.24239400  0.63142000  1
  O  O7  1  0.15275100  0.24245700  0.13148700  1
  O  O8  1  0.10474800  0.24242800  0.63146500  1
  O  O9  1  0.60479200  0.24245900  0.13148800  1
  O  O10  1  0.39503900  0.75599900  0.86811800  1
  O  O11  1  0.89506300  0.75599300  0.36809400  1
  O  O12  1  0.84896000  0.75600500  0.86812600  1
  O  O13  1  0.34896100  0.75600800  0.36813000  1
  O  O14  1  0.62138400  0.75722600  0.64207600  1
  O  O15  1  0.12138300  0.75723300  0.14207300  1
loop_
_geom_bond_atom_site_label_1
_geom_bond_atom_site_label_2
_geom_bond_distance
_geom_bond_site_symmetry_2
Li0 O5 2.023630 1_555
Li0 O6 2.031702 1_555
Li0 O8 2.031723 1_555
Li0 O0 2.036314 1_555
Li1 O4 2.023691 1_554
Li1 O9 2.031399 1_555
Li1 O7 2.031402 1_655
Li1 O1 2.036206 1_555
Li2 O2 2.019259 1_555
Li2 O12 2.025827 1_455
Li2 O10 2.025888 1_555
Li2 O15 2.026940 1_556
Li3 O3 2.019169 1_555
Li3 O13 2.025751 1_555
Li3 O11 2.026051 1_555
Li3 O14 2.027176 1_555
Nb0 O8 2.021562 1_655
Nb0 O6 2.021692 1_555
Nb0 O14 2.022443 1_555
Nb0 O4 2.024789 1_555
Nb0 O10 2.026620 1_555
Nb0 O12 2.026687 1_555
Nb1 O7 2.021421 1_555
Nb1 O9 2.021441 1_555
Nb1 O15 2.022440 1_555
Nb1 O5 2.024698 1_555
Nb1 O11 2.026618 1_455
Nb1 O13 2.026883 1_555
Cr0 O0 2.011183 1_655
Cr0 O2 2.011681 1_565
Cr0 O12 2.047000 1_555
Cr0 O4 2.052394 1_565
Cr0 O14 2.054094 1_555
Cr0 O6 2.056331 1_565
Cr1 O0 2.011488 1_555
Cr1 O2 2.011575 1_565
Cr1 O10 2.046934 1_555
Cr1 O4 2.052305 1_465
Cr1 O14 2.054220 1_555
Cr1 O8 2.056113 1_565
Cr2 O0 2.009564 1_555
Cr2 O3 2.015872 1_465
Cr2 O6 2.051311 1_465
Cr2 O8 2.051738 1_565
Cr2 O11 2.053041 1_455
Cr2 O13 2.053043 1_555
Cr3 O3 2.011292 1_465
Cr3 O1 2.011778 1_555
Cr3 O13 2.046795 1_555
Cr3 O5 2.052009 1_565
Cr3 O15 2.054385 1_555
Cr3 O7 2.056234 1_565
Cr4 O3 2.011267 1_565
Cr4 O1 2.011756 1_555
Cr4 O11 2.046616 1_555
Cr4 O5 2.052103 1_565
Cr4 O15 2.054324 1_655
Cr4 O9 2.056181 1_565
Cr5 O1 2.009352 1_556
Cr5 O2 2.015918 1_565
Cr5 O12 2.052443 1_555
Cr5 O10 2.052576 1_555
Cr5 O9 2.052576 1_566
Cr5 O7 2.052694 1_566
