# generated using pymatgen
data_VAsO4
_symmetry_space_group_name_H-M   'P 1'
_cell_length_a   6.15560226
_cell_length_b   6.51809185
_cell_length_c   7.89417984
_cell_angle_alpha   113.57572692
_cell_angle_beta   89.97491855
_cell_angle_gamma   89.99031449
_symmetry_Int_Tables_number   1
_chemical_formula_structural   VAsO4
_chemical_formula_sum   'V4 As4 O16'
_cell_volume   290.29912211
_cell_formula_units_Z   4
loop_
 _symmetry_equiv_pos_site_id
 _symmetry_equiv_pos_as_xyz
  1  'x, y, z'
loop_
 _atom_site_type_symbol
 _atom_site_label
 _atom_site_symmetry_multiplicity
 _atom_site_fract_x
 _atom_site_fract_y
 _atom_site_fract_z
 _atom_site_occupancy
  V  V0  1  0.61941400  0.08240500  0.20965700  1
  V  V1  1  0.38052400  0.91757200  0.79035200  1
  V  V2  1  0.11903900  0.41710200  0.29014700  1
  V  V3  1  0.88101400  0.58283900  0.70976700  1
  As  As0  1  0.11064000  0.84972000  0.14593300  1
  As  As1  1  0.61069600  0.65029800  0.35416200  1
  As  As2  1  0.38932100  0.34971200  0.64584900  1
  As  As3  1  0.88934300  0.15028900  0.85407400  1
  O  O0  1  0.02196100  0.65401900  0.94127500  1
  O  O1  1  0.52199700  0.84613200  0.55884700  1
  O  O2  1  0.47800900  0.15385200  0.44114700  1
  O  O3  1  0.97804800  0.34596700  0.05872000  1
  O  O4  1  0.33133800  0.96460000  0.06952100  1
  O  O5  1  0.83158900  0.53576700  0.43034600  1
  O  O6  1  0.16845000  0.46426300  0.56966800  1
  O  O7  1  0.66863400  0.03541700  0.93049000  1
  O  O8  1  0.67860800  0.76402700  0.20234700  1
  O  O9  1  0.17870000  0.73598900  0.29762100  1
  O  O10  1  0.82130200  0.26404300  0.70239700  1
  O  O11  1  0.32138800  0.23595800  0.79764900  1
  O  O12  1  0.45873800  0.40397300  0.24972900  1
  O  O13  1  0.95866000  0.09629200  0.25067800  1
  O  O14  1  0.04131700  0.90372100  0.74933700  1
  O  O15  1  0.54127100  0.59604300  0.75028800  1
loop_
_geom_bond_atom_site_label_1
_geom_bond_atom_site_label_2
_geom_bond_distance
_geom_bond_site_symmetry_2
As0 O9 1.693919 1_555
As0 O0 1.699350 1_554
As0 O13 1.754346 1_465
As0 O4 1.769491 1_555
As1 O8 1.694372 1_555
As1 O1 1.699256 1_555
As1 O12 1.753520 1_555
As1 O5 1.768436 1_555
As2 O11 1.694416 1_555
As2 O2 1.699385 1_555
As2 O15 1.753527 1_555
As2 O6 1.768393 1_555
As3 O10 1.693921 1_555
As3 O3 1.699284 1_556
As3 O14 1.754301 1_645
As3 O7 1.769530 1_555
O0 V3 1.905588 1_455
O1 V1 1.906007 1_555
O2 V0 1.905707 1_555
O3 V2 1.905202 1_655
O4 V0 2.068968 1_565
O4 V1 2.121654 1_554
O5 V2 2.065695 1_655
O5 V3 2.124029 1_555
O6 V3 2.065224 1_455
O6 V2 2.124634 1_555
O7 V1 2.069195 1_545
O7 V0 2.121739 1_556
O8 V0 2.084840 1_565
O9 V2 2.088262 1_555
O10 V3 2.088037 1_555
O11 V1 2.084867 1_545
O12 V2 2.111667 1_555
O12 V0 2.222657 1_555
O13 V0 2.109765 1_555
O13 V2 2.219024 1_655
O14 V1 2.109526 1_555
O14 V3 2.219044 1_455
O15 V3 2.112035 1_555
O15 V1 2.222641 1_555
