# generated using pymatgen
data_LiCu4(PO4)3
_symmetry_space_group_name_H-M   'P 1'
_cell_length_a   8.31112458
_cell_length_b   8.31112458
_cell_length_c   9.94626500
_cell_angle_alpha   90.00000000
_cell_angle_beta   90.00000000
_cell_angle_gamma   136.03495950
_symmetry_Int_Tables_number   1
_chemical_formula_structural   LiCu4(PO4)3
_chemical_formula_sum   'Li2 Cu8 P6 O24'
_cell_volume   476.95379938
_cell_formula_units_Z   2
loop_
 _symmetry_equiv_pos_site_id
 _symmetry_equiv_pos_as_xyz
  1  'x, y, z'
loop_
 _atom_site_type_symbol
 _atom_site_label
 _atom_site_symmetry_multiplicity
 _atom_site_fract_x
 _atom_site_fract_y
 _atom_site_fract_z
 _atom_site_occupancy
  Li  Li0  1  0.01326400  0.98673600  0.25565000  1
  Li  Li1  1  0.98673600  0.01326400  0.75565000  1
  Cu  Cu0  1  0.61934700  0.38065300  0.43619200  1
  Cu  Cu1  1  0.05550400  0.45115500  0.25146500  1
  Cu  Cu2  1  0.54884500  0.94449600  0.25146500  1
  Cu  Cu3  1  0.63056000  0.36944000  0.05276700  1
  Cu  Cu4  1  0.38065300  0.61934700  0.93619200  1
  Cu  Cu5  1  0.45115500  0.05550400  0.75146500  1
  Cu  Cu6  1  0.94449600  0.54884500  0.75146500  1
  Cu  Cu7  1  0.36944000  0.63056000  0.55276700  1
  P  P0  1  0.18319200  0.81680800  0.46653200  1
  P  P1  1  0.47983900  0.52016100  0.20582200  1
  P  P2  1  0.18484100  0.81515900  0.03377800  1
  P  P3  1  0.81680800  0.18319200  0.96653200  1
  P  P4  1  0.52016100  0.47983900  0.70582200  1
  P  P5  1  0.81515900  0.18484100  0.53377800  1
  O  O0  1  0.32698300  0.06381700  0.42409800  1
  O  O1  1  0.93618300  0.67301700  0.42409800  1
  O  O2  1  0.27674900  0.72325100  0.39205000  1
  O  O3  1  0.78668600  0.21331400  0.38084400  1
  O  O4  1  0.22801300  0.35272900  0.25820400  1
  O  O5  1  0.57853000  0.42147000  0.24377300  1
  O  O6  1  0.64727100  0.77198700  0.25820400  1
  O  O7  1  0.79162900  0.20837100  0.12032500  1
  O  O8  1  0.27375500  0.72624500  0.11718100  1
  O  O9  1  0.32658800  0.06478000  0.06927800  1
  O  O10  1  0.93522000  0.67341200  0.06927800  1
  O  O11  1  0.48596000  0.51404000  0.04876600  1
  O  O12  1  0.06381700  0.32698300  0.92409800  1
  O  O13  1  0.67301700  0.93618300  0.92409800  1
  O  O14  1  0.72325100  0.27674900  0.89205000  1
  O  O15  1  0.21331400  0.78668600  0.88084400  1
  O  O16  1  0.42147000  0.57853000  0.74377300  1
  O  O17  1  0.35272900  0.22801300  0.75820400  1
  O  O18  1  0.77198700  0.64727100  0.75820400  1
  O  O19  1  0.20837100  0.79162900  0.62032500  1
  O  O20  1  0.72624500  0.27375600  0.61718100  1
  O  O21  1  0.67341200  0.93522000  0.56927800  1
  O  O22  1  0.06478000  0.32658800  0.56927800  1
  O  O23  1  0.51404000  0.48596000  0.54876600  1
loop_
_geom_bond_atom_site_label_1
_geom_bond_atom_site_label_2
_geom_bond_distance
_geom_bond_site_symmetry_2
Li0 O6 2.150244 1_455
Li0 O4 2.150244 1_565
Li1 O18 2.150244 1_545
Li1 O17 2.150244 1_655
Cu0 O1 1.908408 1_555
Cu0 O0 1.908408 1_555
Cu0 O23 1.971907 1_555
Cu0 O5 2.014608 1_555
Cu0 O20 2.440387 1_555
Cu0 O3 2.637420 1_555
Cu1 O3 2.048777 1_455
Cu1 O7 2.052388 1_455
Cu1 O8 2.081206 1_555
Cu1 O4 2.101816 1_555
Cu1 O2 2.112926 1_555
Cu2 O3 2.048777 1_565
Cu2 O7 2.052388 1_565
Cu2 O8 2.081206 1_555
Cu2 O6 2.101816 1_555
Cu2 O2 2.112926 1_555
Cu3 O9 1.900601 1_555
Cu3 O10 1.900601 1_555
Cu3 O5 2.062134 1_555
Cu3 O14 2.143956 1_554
Cu3 O11 2.229188 1_555
Cu3 O7 2.572008 1_555
Cu4 O12 1.908408 1_555
Cu4 O13 1.908408 1_555
Cu4 O11 1.971907 1_556
Cu4 O16 2.014608 1_555
Cu4 O8 2.440392 1_556
Cu4 O15 2.637420 1_555
Cu5 O15 2.048777 1_545
Cu5 O19 2.052388 1_545
Cu5 O20 2.081207 1_555
Cu5 O17 2.101816 1_555
Cu5 O14 2.112926 1_555
Cu6 O15 2.048777 1_655
Cu6 O19 2.052388 1_655
Cu6 O20 2.081203 1_555
Cu6 O18 2.101816 1_555
Cu6 O14 2.112926 1_555
Cu7 O22 1.900601 1_555
Cu7 O21 1.900601 1_555
Cu7 O16 2.062134 1_555
Cu7 O2 2.143956 1_555
Cu7 O23 2.229188 1_555
Cu7 O19 2.572008 1_555
O0 P0 1.512979 1_545
O1 P0 1.512979 1_655
O2 P0 1.621224 1_555
O3 P5 1.583169 1_555
O4 P1 1.547828 1_555
O5 P1 1.567335 1_555
O6 P1 1.547828 1_555
O7 P3 1.578133 1_554
O8 P2 1.602006 1_555
O9 P2 1.516022 1_545
O10 P2 1.516022 1_655
O11 P1 1.564967 1_555
O12 P3 1.512979 1_455
O13 P3 1.512979 1_565
O14 P3 1.621224 1_555
O15 P2 1.583169 1_556
O16 P4 1.567335 1_555
O17 P4 1.547828 1_555
O18 P4 1.547828 1_555
O19 P0 1.578133 1_555
O20 P5 1.602013 1_555
O21 P5 1.516022 1_565
O22 P5 1.516022 1_455
O23 P4 1.564967 1_555
