# generated using pymatgen
data_Ti17(NO4)6
_symmetry_space_group_name_H-M   'P 1'
_cell_length_a   10.04240800
_cell_length_b   7.64610900
_cell_length_c   14.64017033
_cell_angle_alpha   82.48832623
_cell_angle_beta   90.00000000
_cell_angle_gamma   90.00000000
_symmetry_Int_Tables_number   1
_chemical_formula_structural   Ti17(NO4)6
_chemical_formula_sum   'Ti34 N12 O48'
_cell_volume   1114.50336441
_cell_formula_units_Z   2
loop_
 _symmetry_equiv_pos_site_id
 _symmetry_equiv_pos_as_xyz
  1  'x, y, z'
loop_
 _atom_site_type_symbol
 _atom_site_label
 _atom_site_symmetry_multiplicity
 _atom_site_fract_x
 _atom_site_fract_y
 _atom_site_fract_z
 _atom_site_occupancy
  Ti  Ti0  1  0.42971800  0.39471600  0.42312000  1
  Ti  Ti1  1  0.07028200  0.39471600  0.42312000  1
  Ti  Ti2  1  0.75000000  0.38615700  0.46473400  1
  Ti  Ti3  1  0.94033300  0.43959500  0.24099700  1
  Ti  Ti4  1  0.55966700  0.43959500  0.24099700  1
  Ti  Ti5  1  0.44033300  0.56040500  0.75900300  1
  Ti  Ti6  1  0.05966700  0.56040500  0.75900300  1
  Ti  Ti7  1  0.92372700  0.76678600  0.90647500  1
  Ti  Ti8  1  0.42375000  0.71993000  0.09352800  1
  Ti  Ti9  1  0.92971800  0.60528400  0.57688000  1
  Ti  Ti10  1  0.57028200  0.60528400  0.57688000  1
  Ti  Ti11  1  0.75000000  0.71120100  0.13051700  1
  Ti  Ti12  1  0.07625000  0.71993000  0.09352800  1
  Ti  Ti13  1  0.57627300  0.76678600  0.90647500  1
  Ti  Ti14  1  0.25000000  0.61384300  0.53526600  1
  Ti  Ti15  1  0.25000000  0.77645800  0.86951400  1
  Ti  Ti16  1  0.75000000  0.04997900  0.80009400  1
  Ti  Ti17  1  0.75000000  0.88136700  0.46366300  1
  Ti  Ti18  1  0.07223800  0.89288200  0.42593300  1
  Ti  Ti19  1  0.42776200  0.89288200  0.42593300  1
  Ti  Ti20  1  0.25000000  0.95002100  0.19990600  1
  Ti  Ti21  1  0.92783200  0.94033200  0.23827100  1
  Ti  Ti22  1  0.07216800  0.05966800  0.76172900  1
  Ti  Ti23  1  0.42783200  0.05966800  0.76172900  1
  Ti  Ti24  1  0.57216800  0.94033200  0.23827100  1
  Ti  Ti25  1  0.92776200  0.10711800  0.57406700  1
  Ti  Ti26  1  0.75000000  0.22354200  0.13048600  1
  Ti  Ti27  1  0.92375000  0.28007000  0.90647200  1
  Ti  Ti28  1  0.07627300  0.23321400  0.09352500  1
  Ti  Ti29  1  0.42372700  0.23321400  0.09352500  1
  Ti  Ti30  1  0.57223800  0.10711800  0.57406700  1
  Ti  Ti31  1  0.25000000  0.11863300  0.53633700  1
  Ti  Ti32  1  0.25000000  0.28879900  0.86948300  1
  Ti  Ti33  1  0.57625000  0.28007000  0.90647200  1
  N  N0  1  0.75000000  0.45544800  0.17800900  1
  N  N1  1  0.25000000  0.37629400  0.48928100  1
  N  N2  1  0.25000000  0.54455200  0.82199100  1
  N  N3  1  0.75000000  0.62370600  0.51071900  1
  N  N4  1  0.75000000  0.80479300  0.85496500  1
  N  N5  1  0.25000000  0.73231500  0.14500000  1
  N  N6  1  0.75000000  0.95486600  0.18041700  1
  N  N7  1  0.25000000  0.04513400  0.81958300  1
  N  N8  1  0.25000000  0.87988100  0.48676700  1
  N  N9  1  0.75000000  0.12011900  0.51323300  1
  N  N10  1  0.75000000  0.26768500  0.85500000  1
  N  N11  1  0.25000000  0.19520700  0.14503500  1
  O  O0  1  0.56713500  0.36408100  0.54256500  1
  O  O1  1  0.10892000  0.42353600  0.30395200  1
  O  O2  1  0.87833800  0.40847000  0.36630200  1
  O  O3  1  0.93286500  0.36408100  0.54256500  1
  O  O4  1  0.62166200  0.40847000  0.36630200  1
  O  O5  1  0.04996100  0.47042100  0.11818000  1
  O  O6  1  0.54996100  0.52957900  0.88182000  1
  O  O7  1  0.39108000  0.42353600  0.30395200  1
  O  O8  1  0.45003900  0.47042100  0.11818000  1
  O  O9  1  0.95003900  0.52957900  0.88182000  1
  O  O10  1  0.89108000  0.57646400  0.69604800  1
  O  O11  1  0.60892000  0.57646400  0.69604800  1
  O  O12  1  0.43551600  0.80128400  0.79187100  1
  O  O13  1  0.38027500  0.75955800  0.96808100  1
  O  O14  1  0.37833800  0.59153000  0.63369800  1
  O  O15  1  0.93550100  0.69703900  0.20819900  1
  O  O16  1  0.12166200  0.59153000  0.63369800  1
  O  O17  1  0.43286500  0.63591900  0.45743500  1
  O  O18  1  0.06713500  0.63591900  0.45743500  1
  O  O19  1  0.56449900  0.69703900  0.20819900  1
  O  O20  1  0.11972500  0.75955800  0.96808100  1
  O  O21  1  0.88028400  0.74375100  0.03194400  1
  O  O22  1  0.61971600  0.74375100  0.03194400  1
  O  O23  1  0.06448400  0.80128400  0.79187100  1
  O  O24  1  0.94043200  0.03209900  0.87178900  1
  O  O25  1  0.88192900  0.07513700  0.69778200  1
  O  O26  1  0.88133800  0.90899400  0.36502300  1
  O  O27  1  0.05956800  0.96790100  0.12821100  1
  O  O28  1  0.11807100  0.92486300  0.30221800  1
  O  O29  1  0.38192900  0.92486300  0.30221800  1
  O  O30  1  0.55956800  0.03209900  0.87178900  1
  O  O31  1  0.61807100  0.07513700  0.69778200  1
  O  O32  1  0.93535200  0.86506500  0.54024300  1
  O  O33  1  0.61866200  0.90899400  0.36502300  1
  O  O34  1  0.56464800  0.86506500  0.54024300  1
  O  O35  1  0.44043200  0.96790100  0.12821100  1
  O  O36  1  0.88027500  0.24044200  0.03191900  1
  O  O37  1  0.11971600  0.25624900  0.96805600  1
  O  O38  1  0.11866200  0.09100600  0.63497700  1
  O  O39  1  0.93551600  0.19871600  0.20812900  1
  O  O40  1  0.06449900  0.30296100  0.79180100  1
  O  O41  1  0.06464800  0.13493500  0.45975700  1
  O  O42  1  0.56448400  0.19871600  0.20812900  1
  O  O43  1  0.61972500  0.24044200  0.03191900  1
  O  O44  1  0.43550100  0.30296100  0.79180100  1
  O  O45  1  0.38133800  0.09100600  0.63497700  1
  O  O46  1  0.38028400  0.25624900  0.96805600  1
  O  O47  1  0.43535200  0.13493500  0.45975700  1
loop_
_geom_bond_atom_site_label_1
_geom_bond_atom_site_label_2
_geom_bond_distance
_geom_bond_site_symmetry_2
N0 Ti26 1.987656 1_555
N0 Ti11 1.987959 1_555
N0 Ti3 2.118795 1_555
N0 Ti4 2.118795 1_555
N1 Ti31 2.000263 1_555
N1 Ti14 2.017916 1_555
N1 Ti0 2.044426 1_555
N1 Ti1 2.044426 1_555
N2 Ti15 1.987656 1_555
N2 Ti32 1.987959 1_555
N2 Ti5 2.118795 1_555
N2 Ti6 2.118795 1_555
N3 Ti17 2.000263 1_555
N3 Ti2 2.017916 1_555
N3 Ti9 2.044426 1_555
N3 Ti10 2.044426 1_555
N4 Ti7 1.907774 1_555
N4 Ti13 1.907774 1_555
N4 Ti16 1.940655 1_565
N5 Ti12 1.907889 1_555
N5 Ti8 1.907889 1_555
N5 Ti20 1.940850 1_555
N6 Ti24 1.973433 1_555
N6 Ti21 1.973433 1_555
N6 Ti11 2.088219 1_555
N6 Ti26 2.088536 1_565
N7 Ti22 1.973433 1_555
N7 Ti23 1.973433 1_555
N7 Ti32 2.088219 1_555
N7 Ti15 2.088536 1_545
N8 Ti19 1.991665 1_555
N8 Ti18 1.991665 1_555
N8 Ti31 2.050750 1_565
N8 Ti14 2.065021 1_555
N9 Ti25 1.991665 1_555
N9 Ti30 1.991665 1_555
N9 Ti17 2.050750 1_545
N9 Ti2 2.065021 1_555
N10 Ti33 1.907889 1_555
N10 Ti27 1.907889 1_555
N10 Ti16 1.940850 1_555
N11 Ti29 1.907774 1_555
N11 Ti28 1.907774 1_555
N11 Ti20 1.940655 1_545
O0 Ti30 1.959265 1_555
O0 Ti10 1.974066 1_555
O0 Ti2 2.156143 1_555
O0 Ti0 2.215875 1_555
O1 Ti1 1.772673 1_555
O1 Ti3 1.923872 1_455
O2 Ti3 1.922352 1_555
O2 Ti2 1.924200 1_555
O2 Ti1 2.096589 1_655
O3 Ti25 1.959265 1_555
O3 Ti9 1.974066 1_555
O3 Ti2 2.156143 1_555
O3 Ti1 2.215875 1_655
O4 Ti4 1.922352 1_555
O4 Ti2 1.924200 1_555
O4 Ti0 2.096589 1_555
O5 Ti12 1.912990 1_555
O5 Ti28 1.913327 1_555
O5 Ti3 2.095190 1_455
O6 Ti33 1.912990 1_555
O6 Ti13 1.913327 1_555
O6 Ti5 2.095190 1_555
O7 Ti0 1.772673 1_555
O7 Ti4 1.923872 1_555
O8 Ti8 1.912990 1_555
O8 Ti29 1.913327 1_555
O8 Ti4 2.095190 1_555
O9 Ti27 1.912990 1_555
O9 Ti7 1.913327 1_555
O9 Ti6 2.095190 1_655
O10 Ti9 1.772673 1_555
O10 Ti6 1.923872 1_655
O11 Ti10 1.772673 1_555
O11 Ti5 1.923872 1_555
O12 Ti5 1.964124 1_555
O12 Ti23 1.968722 1_565
O12 Ti15 2.177749 1_555
O12 Ti13 2.183356 1_555
O13 Ti8 1.873473 1_556
O13 Ti15 1.939558 1_555
O13 Ti13 2.162790 1_555
O14 Ti5 1.922352 1_555
O14 Ti14 1.924200 1_555
O14 Ti10 2.096589 1_555
O15 Ti3 1.964833 1_555
O15 Ti21 1.968350 1_555
O15 Ti11 2.177898 1_555
O15 Ti12 2.184045 1_655
O16 Ti6 1.922352 1_555
O16 Ti14 1.924200 1_555
O16 Ti9 2.096589 1_455
O17 Ti19 1.959265 1_555
O17 Ti0 1.974066 1_555
O17 Ti14 2.156143 1_555
O17 Ti10 2.215875 1_555
O18 Ti18 1.959265 1_555
O18 Ti1 1.974066 1_555
O18 Ti14 2.156143 1_555
O18 Ti9 2.215875 1_455
O19 Ti4 1.964833 1_555
O19 Ti24 1.968350 1_555
O19 Ti11 2.177898 1_555
O19 Ti8 2.184045 1_555
O20 Ti12 1.873473 1_556
O20 Ti15 1.939558 1_555
O20 Ti7 2.162790 1_455
O21 Ti7 1.873745 1_554
O21 Ti11 1.939708 1_555
O21 Ti12 2.162413 1_655
O22 Ti13 1.873745 1_554
O22 Ti11 1.939708 1_555
O22 Ti8 2.162413 1_555
O23 Ti6 1.964124 1_555
O23 Ti22 1.968722 1_565
O23 Ti15 2.177749 1_555
O23 Ti7 2.183356 1_455
O24 Ti7 2.032718 1_545
O24 Ti27 2.032847 1_555
O24 Ti22 2.074150 1_655
O24 Ti16 2.177188 1_555
O25 Ti25 1.853733 1_555
O25 Ti16 1.990123 1_555
O25 Ti22 2.123993 1_655
O26 Ti21 1.898073 1_555
O26 Ti17 1.946776 1_555
O26 Ti18 2.111137 1_655
O27 Ti28 2.032718 1_565
O27 Ti12 2.032847 1_555
O27 Ti21 2.074150 1_455
O27 Ti20 2.177188 1_555
O28 Ti18 1.853733 1_555
O28 Ti20 1.990123 1_555
O28 Ti21 2.123993 1_455
O29 Ti19 1.853733 1_555
O29 Ti20 1.990123 1_555
O29 Ti24 2.123993 1_555
O30 Ti13 2.032718 1_545
O30 Ti33 2.032847 1_555
O30 Ti23 2.074150 1_555
O30 Ti16 2.177188 1_555
O31 Ti30 1.853733 1_555
O31 Ti16 1.990123 1_555
O31 Ti23 2.123993 1_555
O32 Ti25 1.978880 1_565
O32 Ti9 1.989418 1_555
O32 Ti18 2.154655 1_655
O32 Ti17 2.168110 1_555
O33 Ti24 1.898073 1_555
O33 Ti17 1.946776 1_555
O33 Ti19 2.111137 1_555
O34 Ti30 1.978880 1_565
O34 Ti10 1.989418 1_555
O34 Ti19 2.154655 1_555
O34 Ti17 2.168110 1_555
O35 Ti29 2.032718 1_565
O35 Ti8 2.032847 1_555
O35 Ti24 2.074150 1_555
O35 Ti20 2.177188 1_555
O36 Ti27 1.873473 1_554
O36 Ti26 1.939558 1_555
O36 Ti28 2.162790 1_655
O37 Ti28 1.873745 1_556
O37 Ti32 1.939708 1_555
O37 Ti27 2.162413 1_455
O38 Ti22 1.898073 1_555
O38 Ti31 1.946776 1_555
O38 Ti25 2.111137 1_455
O39 Ti3 1.964124 1_555
O39 Ti21 1.968722 1_545
O39 Ti26 2.177749 1_555
O39 Ti28 2.183356 1_655
O40 Ti6 1.964833 1_555
O40 Ti22 1.968350 1_555
O40 Ti32 2.177898 1_555
O40 Ti27 2.184045 1_455
O41 Ti18 1.978880 1_545
O41 Ti1 1.989418 1_555
O41 Ti25 2.154655 1_455
O41 Ti31 2.168110 1_555
O42 Ti4 1.964124 1_555
O42 Ti24 1.968722 1_545
O42 Ti26 2.177749 1_555
O42 Ti29 2.183356 1_555
O43 Ti33 1.873473 1_554
O43 Ti26 1.939558 1_555
O43 Ti29 2.162790 1_555
O44 Ti5 1.964833 1_555
O44 Ti23 1.968350 1_555
O44 Ti32 2.177898 1_555
O44 Ti33 2.184045 1_555
O45 Ti23 1.898073 1_555
O45 Ti31 1.946776 1_555
O45 Ti30 2.111137 1_555
O46 Ti29 1.873745 1_556
O46 Ti32 1.939708 1_555
O46 Ti33 2.162413 1_555
O47 Ti19 1.978880 1_545
O47 Ti0 1.989418 1_555
O47 Ti30 2.154655 1_555
O47 Ti31 2.168110 1_555
