# generated using pymatgen
data_BaLa2O4
_symmetry_space_group_name_H-M   'P 1'
_cell_length_a   6.31597302
_cell_length_b   6.31597302
_cell_length_c   11.92853600
_cell_angle_alpha   90.00000000
_cell_angle_beta   90.00000000
_cell_angle_gamma   146.33138807
_symmetry_Int_Tables_number   1
_chemical_formula_structural   BaLa2O4
_chemical_formula_sum   'Ba2 La4 O8'
_cell_volume   263.80434977
_cell_formula_units_Z   2
loop_
 _symmetry_equiv_pos_site_id
 _symmetry_equiv_pos_as_xyz
  1  'x, y, z'
loop_
 _atom_site_type_symbol
 _atom_site_label
 _atom_site_symmetry_multiplicity
 _atom_site_fract_x
 _atom_site_fract_y
 _atom_site_fract_z
 _atom_site_occupancy
  Ba  Ba0  1  0.88991500  0.11008500  0.25000000  1
  Ba  Ba1  1  0.11008500  0.88991500  0.75000000  1
  La  La0  1  0.63379700  0.36620300  0.42747100  1
  La  La1  1  0.63379700  0.36620300  0.07252900  1
  La  La2  1  0.36620300  0.63379700  0.57252900  1
  La  La3  1  0.36620300  0.63379700  0.92747100  1
  O  O0  1  0.00000000  0.00000000  0.00000000  1
  O  O1  1  0.00000000  0.00000000  0.50000000  1
  O  O2  1  0.54593500  0.45406500  0.25000000  1
  O  O3  1  0.73711500  0.26288500  0.60404500  1
  O  O4  1  0.73711500  0.26288500  0.89595500  1
  O  O5  1  0.45406500  0.54593500  0.75000000  1
  O  O6  1  0.26288500  0.73711500  0.39595500  1
  O  O7  1  0.26288500  0.73711500  0.10404500  1
loop_
_geom_bond_atom_site_label_1
_geom_bond_atom_site_label_2
_geom_bond_distance
_geom_bond_site_symmetry_2
Ba0 O2 2.627578 1_545
Ba0 O2 2.627578 1_655
Ba0 O6 2.955643 1_545
Ba0 O7 2.955643 1_545
Ba0 O6 2.955643 1_655
Ba0 O7 2.955643 1_655
Ba0 O0 3.265681 1_655
Ba0 O1 3.265681 1_655
Ba1 O5 2.627578 1_455
Ba1 O5 2.627578 1_565
Ba1 O4 2.955643 1_455
Ba1 O4 2.955643 1_565
Ba1 O3 2.955643 1_455
Ba1 O3 2.955643 1_565
Ba1 O0 3.265681 1_566
Ba1 O1 3.265681 1_565
La0 O2 2.368555 1_555
La0 O6 2.433727 1_545
La0 O6 2.433727 1_655
La0 O3 2.448840 1_555
La0 O1 2.590592 1_555
La0 O1 2.590592 1_665
La1 O2 2.368555 1_555
La1 O7 2.433727 1_545
La1 O7 2.433727 1_655
La1 O4 2.448840 1_554
La1 O0 2.590592 1_555
La1 O0 2.590592 1_665
La2 O5 2.368555 1_555
La2 O3 2.433727 1_455
La2 O3 2.433727 1_565
La2 O6 2.448840 1_555
La2 O1 2.590592 1_555
La2 O1 2.590592 1_665
La3 O5 2.368555 1_555
La3 O4 2.433727 1_455
La3 O4 2.433727 1_565
La3 O7 2.448840 1_556
La3 O0 2.590592 1_556
La3 O0 2.590592 1_666
