# generated using pymatgen
data_K2CrPCO7
_symmetry_space_group_name_H-M   'P 1'
_cell_length_a   9.72505197
_cell_length_b   6.69843600
_cell_length_c   5.58592246
_cell_angle_alpha   90.00090122
_cell_angle_beta   89.55253879
_cell_angle_gamma   89.99744909
_symmetry_Int_Tables_number   1
_chemical_formula_structural   K2CrPCO7
_chemical_formula_sum   'K4 Cr2 P2 C2 O14'
_cell_volume   363.87062926
_cell_formula_units_Z   2
loop_
 _symmetry_equiv_pos_site_id
 _symmetry_equiv_pos_as_xyz
  1  'x, y, z'
loop_
 _atom_site_type_symbol
 _atom_site_label
 _atom_site_symmetry_multiplicity
 _atom_site_fract_x
 _atom_site_fract_y
 _atom_site_fract_z
 _atom_site_occupancy
  K  K0  1  0.24160900  0.47569900  0.24393900  1
  K  K1  1  0.24162200  0.02430400  0.24395800  1
  K  K2  1  0.75834300  0.52429500  0.75601900  1
  K  K3  1  0.75835000  0.97569200  0.75602300  1
  Cr  Cr0  1  0.35770800  0.75002900  0.77163900  1
  Cr  Cr1  1  0.64234000  0.24998200  0.22842600  1
  P  P0  1  0.43315800  0.25000400  0.72437900  1
  P  P1  1  0.56685200  0.75000100  0.27568100  1
  C  C0  1  0.10513200  0.74999000  0.72881300  1
  C  C1  1  0.89486100  0.24999800  0.27106000  1
  O  O0  1  0.02187800  0.25000100  0.29569900  1
  O  O1  1  0.16931400  0.75001100  0.93626500  1
  O  O2  1  0.19467500  0.75000200  0.54774800  1
  O  O3  1  0.34355700  0.06099300  0.77112300  1
  O  O4  1  0.34356700  0.43902500  0.77112000  1
  O  O5  1  0.44012100  0.75001300  0.10750000  1
  O  O6  1  0.47995900  0.24999800  0.45548300  1
  O  O7  1  0.52011400  0.75001800  0.54462000  1
  O  O8  1  0.55982500  0.24999700  0.89265400  1
  O  O9  1  0.65641500  0.56096200  0.22896800  1
  O  O10  1  0.65642200  0.93902600  0.22896600  1
  O  O11  1  0.80539300  0.24999100  0.45222100  1
  O  O12  1  0.83064100  0.24999400  0.06365900  1
  O  O13  1  0.97814200  0.74997300  0.70403700  1
loop_
_geom_bond_atom_site_label_1
_geom_bond_atom_site_label_2
_geom_bond_distance
_geom_bond_site_symmetry_2
K0 O2 2.540098 1_555
K0 O1 2.615945 1_554
K0 O0 2.631763 1_555
K0 O5 2.767947 1_555
K0 O4 2.824560 1_554
K0 O6 3.016207 1_555
K0 O4 3.124247 1_555
K1 O2 2.540112 1_545
K1 O1 2.615966 1_544
K1 O0 2.631737 1_555
K1 O5 2.767655 1_545
K1 O3 2.824590 1_554
K1 O6 3.016129 1_555
K1 O3 3.124098 1_555
K2 O11 2.540258 1_555
K2 O12 2.615776 1_556
K2 O13 2.632352 1_555
K2 O8 2.768212 1_555
K2 O9 2.825132 1_556
K2 O7 3.015051 1_555
K2 O9 3.123463 1_555
K3 O11 2.540305 1_565
K3 O12 2.615753 1_566
K3 O13 2.632342 1_555
K3 O8 2.768154 1_565
K3 O10 2.825115 1_556
K3 O7 3.015033 1_555
K3 O10 3.123494 1_555
Cr0 O7 2.017758 1_555
Cr0 O2 2.027040 1_555
Cr0 O1 2.043543 1_555
Cr0 O5 2.045866 1_556
Cr0 O3 2.087511 1_565
Cr0 O4 2.087784 1_555
Cr1 O6 2.017701 1_555
Cr1 O11 2.026859 1_555
Cr1 O12 2.043085 1_555
Cr1 O8 2.045805 1_554
Cr1 O10 2.087414 1_545
Cr1 O9 2.087582 1_555
C0 O13 1.243788 1_455
C0 O1 1.320504 1_555
C0 O2 1.329479 1_555
C1 O0 1.243959 1_655
C1 O12 1.320431 1_555
C1 O11 1.329411 1_555
O3 P0 1.557877 1_555
O4 P0 1.557804 1_555
O5 P1 1.555511 1_555
O6 P0 1.566071 1_555
O7 P1 1.566127 1_555
O8 P0 1.555336 1_555
O9 P1 1.557725 1_555
O10 P1 1.557758 1_555
