# generated using pymatgen
data_Na5Ni2P2(CO7)2
_symmetry_space_group_name_H-M   'P 1'
_cell_length_a   6.61901900
_cell_length_b   10.16022400
_cell_length_c   10.37387798
_cell_angle_alpha   60.82424628
_cell_angle_beta   90.00000000
_cell_angle_gamma   90.00000000
_symmetry_Int_Tables_number   1
_chemical_formula_structural   Na5Ni2P2(CO7)2
_chemical_formula_sum   'Na10 Ni4 P4 C4 O28'
_cell_volume   609.13869062
_cell_formula_units_Z   2
loop_
 _symmetry_equiv_pos_site_id
 _symmetry_equiv_pos_as_xyz
  1  'x, y, z'
loop_
 _atom_site_type_symbol
 _atom_site_label
 _atom_site_symmetry_multiplicity
 _atom_site_fract_x
 _atom_site_fract_y
 _atom_site_fract_z
 _atom_site_occupancy
  Na  Na0  1  0.48630900  0.73009200  0.26758000  1
  Na  Na1  1  0.01369100  0.73009200  0.26758000  1
  Na  Na2  1  0.99382700  0.25342100  0.25725600  1
  Na  Na3  1  0.50617300  0.25342100  0.25725600  1
  Na  Na4  1  0.75000000  0.08405500  0.06939400  1
  Na  Na5  1  0.25000000  0.91594500  0.93060600  1
  Na  Na6  1  0.00617300  0.74657900  0.74274400  1
  Na  Na7  1  0.49382700  0.74657900  0.74274400  1
  Na  Na8  1  0.98630900  0.26990800  0.73242000  1
  Na  Na9  1  0.51369100  0.26990800  0.73242000  1
  Ni  Ni0  1  0.75000000  0.65150300  0.06422100  1
  Ni  Ni1  1  0.25000000  0.34944000  0.43671500  1
  Ni  Ni2  1  0.75000000  0.65056000  0.56328500  1
  Ni  Ni3  1  0.25000000  0.34849700  0.93577900  1
  P  P0  1  0.25000000  0.58115800  0.06717500  1
  P  P1  1  0.75000000  0.42000200  0.43126900  1
  P  P2  1  0.25000000  0.57999800  0.56873100  1
  P  P3  1  0.75000000  0.41884200  0.93282500  1
  C  C0  1  0.25000000  0.06592700  0.10769400  1
  C  C1  1  0.25000000  0.06957300  0.61035900  1
  C  C2  1  0.75000000  0.93042700  0.38964100  1
  C  C3  1  0.75000000  0.93407300  0.89230600  1
  O  O0  1  0.75000000  0.87174000  0.03618100  1
  O  O1  1  0.06444300  0.68008500  0.05463700  1
  O  O2  1  0.43555700  0.68008500  0.05463700  1
  O  O3  1  0.75000000  0.57110000  0.28630200  1
  O  O4  1  0.25000000  0.54522200  0.43610500  1
  O  O5  1  0.75000000  0.45156200  0.06440300  1
  O  O6  1  0.25000000  0.43038000  0.21334100  1
  O  O7  1  0.93840100  0.32473900  0.44564900  1
  O  O8  1  0.56159900  0.32473900  0.44564900  1
  O  O9  1  0.25000000  0.15825100  0.15971300  1
  O  O10  1  0.25000000  0.16249100  0.66314200  1
  O  O11  1  0.25000000  0.13299000  0.46740500  1
  O  O12  1  0.75000000  0.07198400  0.30486700  1
  O  O13  1  0.75000000  0.07671500  0.81354500  1
  O  O14  1  0.25000000  0.92328500  0.18645500  1
  O  O15  1  0.25000000  0.92801600  0.69513300  1
  O  O16  1  0.75000000  0.86701000  0.53259500  1
  O  O17  1  0.75000000  0.83750900  0.33685800  1
  O  O18  1  0.75000000  0.84174900  0.84028700  1
  O  O19  1  0.06159900  0.67526100  0.55435100  1
  O  O20  1  0.43840100  0.67526100  0.55435100  1
  O  O21  1  0.75000000  0.56962000  0.78665900  1
  O  O22  1  0.25000000  0.54843800  0.93559700  1
  O  O23  1  0.75000000  0.45477800  0.56389500  1
  O  O24  1  0.25000000  0.42890000  0.71369800  1
  O  O25  1  0.56444300  0.31991500  0.94536300  1
  O  O26  1  0.93555700  0.31991500  0.94536300  1
  O  O27  1  0.25000000  0.12826000  0.96381900  1
loop_
_geom_bond_atom_site_label_1
_geom_bond_atom_site_label_2
_geom_bond_distance
_geom_bond_site_symmetry_2
Na0 O3 2.321134 1_555
Na0 O14 2.323164 1_555
Na0 O17 2.349188 1_555
Na0 O4 2.414411 1_555
Na0 O2 2.518962 1_555
Na0 O0 2.740744 1_555
Na0 O20 2.765005 1_555
Na1 O3 2.321134 1_455
Na1 O14 2.323164 1_555
Na1 O17 2.349188 1_455
Na1 O4 2.414411 1_555
Na1 O1 2.518962 1_555
Na1 O0 2.740744 1_455
Na1 O19 2.765005 1_555
Na2 O12 2.314987 1_555
Na2 O6 2.348756 1_655
Na2 O9 2.405828 1_655
Na2 O7 2.420725 1_555
Na2 O11 2.554249 1_655
Na2 O5 2.594836 1_555
Na3 O12 2.314987 1_555
Na3 O6 2.348756 1_555
Na3 O9 2.405828 1_555
Na3 O8 2.420725 1_555
Na3 O11 2.554249 1_555
Na3 O5 2.594836 1_555
Na4 O0 2.344512 1_545
Na4 O12 2.385385 1_555
Na4 O25 2.429090 1_554
Na4 O26 2.429090 1_554
Na4 O17 2.682720 1_545
Na4 O13 2.691289 1_554
Na5 O27 2.344512 1_565
Na5 O15 2.385385 1_555
Na5 O2 2.429090 1_556
Na5 O1 2.429090 1_556
Na5 O10 2.682720 1_565
Na5 O14 2.691289 1_556
Na6 O15 2.314987 1_555
Na6 O21 2.348756 1_455
Na6 O18 2.405828 1_455
Na6 O19 2.420725 1_555
Na6 O16 2.554249 1_455
Na6 O22 2.594836 1_555
Na7 O15 2.314987 1_555
Na7 O21 2.348756 1_555
Na7 O18 2.405828 1_555
Na7 O20 2.420725 1_555
Na7 O16 2.554249 1_555
Na7 O22 2.594836 1_555
Na8 O24 2.321134 1_655
Na8 O13 2.323164 1_555
Na8 O10 2.349188 1_655
Na8 O23 2.414411 1_555
Na8 O26 2.518962 1_555
Na8 O27 2.740744 1_655
Na8 O7 2.765005 1_555
Na9 O24 2.321134 1_555
Na9 O13 2.323164 1_555
Na9 O10 2.349188 1_555
Na9 O23 2.414411 1_555
Na9 O25 2.518962 1_555
Na9 O27 2.740744 1_555
Na9 O8 2.765005 1_555
Ni0 O5 2.030526 1_555
Ni0 O3 2.034719 1_555
Ni0 O2 2.097116 1_555
Ni0 O1 2.097116 1_655
Ni0 O0 2.111187 1_555
Ni0 O18 2.180571 1_554
Ni1 O4 1.986112 1_555
Ni1 O6 2.046460 1_555
Ni1 O11 2.062792 1_555
Ni1 O8 2.074300 1_555
Ni1 O7 2.074300 1_455
Ni1 O10 2.185250 1_555
Ni2 O23 1.986112 1_555
Ni2 O21 2.046460 1_555
Ni2 O16 2.062792 1_555
Ni2 O19 2.074300 1_655
Ni2 O20 2.074300 1_555
Ni2 O17 2.185250 1_555
Ni3 O22 2.030526 1_555
Ni3 O24 2.034719 1_555
Ni3 O25 2.097116 1_555
Ni3 O26 2.097116 1_455
Ni3 O27 2.111187 1_555
Ni3 O9 2.180571 1_556
C0 O14 1.270223 1_545
C0 O9 1.290213 1_555
C0 O27 1.306587 1_554
C1 O15 1.268373 1_545
C1 O11 1.297223 1_555
C1 O10 1.301958 1_555
C2 O12 1.268373 1_565
C2 O16 1.297223 1_555
C2 O17 1.301958 1_555
C3 O13 1.270223 1_565
C3 O18 1.290213 1_555
C3 O0 1.306587 1_556
O1 P0 1.551841 1_555
O2 P0 1.551841 1_555
O3 P1 1.538658 1_555
O4 P2 1.578532 1_555
O5 P3 1.554379 1_554
O6 P0 1.543131 1_555
O7 P1 1.540578 1_555
O8 P1 1.540578 1_555
O19 P2 1.540578 1_555
O20 P2 1.540578 1_555
O21 P3 1.543131 1_555
O22 P0 1.554379 1_556
O23 P1 1.578532 1_555
O24 P2 1.538658 1_555
O25 P3 1.551841 1_555
O26 P3 1.551841 1_555
