# generated using pymatgen
data_Cd(CoO2)2
_symmetry_space_group_name_H-M   'P 1'
_cell_length_a   4.87401760
_cell_length_b   5.62265629
_cell_length_c   10.84153747
_cell_angle_alpha   89.99974734
_cell_angle_beta   90.00260225
_cell_angle_gamma   90.00001040
_symmetry_Int_Tables_number   1
_chemical_formula_structural   Cd(CoO2)2
_chemical_formula_sum   'Cd4 Co8 O16'
_cell_volume   297.11152886
_cell_formula_units_Z   4
loop_
 _symmetry_equiv_pos_site_id
 _symmetry_equiv_pos_as_xyz
  1  'x, y, z'
loop_
 _atom_site_type_symbol
 _atom_site_label
 _atom_site_symmetry_multiplicity
 _atom_site_fract_x
 _atom_site_fract_y
 _atom_site_fract_z
 _atom_site_occupancy
  Cd  Cd0  1  0.04025369  0.74999943  0.24999937  1
  Cd  Cd1  1  0.36560015  0.75000315  0.74999640  1
  Cd  Cd2  1  0.63440859  0.24999721  0.25000350  1
  Cd  Cd3  1  0.95974884  0.25000082  0.75000080  1
  Co  Co0  1  0.00345478  0.25000020  0.00572241  1
  Co  Co1  1  0.99654250  0.74999964  0.99429435  1
  Co  Co2  1  0.00345762  0.25000109  0.49427893  1
  Co  Co3  1  0.99654117  0.74999932  0.50570551  1
  Co  Co4  1  0.49999970  0.00000045  0.00001030  1
  Co  Co5  1  0.50000110  -0.00000017  0.49998984  1
  Co  Co6  1  0.50000027  0.49999941  0.00001057  1
  Co  Co7  1  0.50000106  0.50000039  0.49998976  1
  O  O0  1  0.16678560  0.99948965  0.90416069  1
  O  O1  1  0.16680356  0.99948792  0.59583815  1
  O  O2  1  0.16680330  0.50051040  0.59583829  1
  O  O3  1  0.16678627  0.50051171  0.90416083  1
  O  O4  1  0.34066545  0.24999941  0.09242044  1
  O  O5  1  0.34064518  0.25000053  0.40757765  1
  O  O6  1  0.32606594  0.74999893  0.08815549  1
  O  O7  1  0.32604935  0.75000085  0.41184844  1
  O  O8  1  0.67396017  0.24999905  0.58812682  1
  O  O9  1  0.67393405  0.25000119  0.91187231  1
  O  O10  1  0.65934284  0.74999955  0.59239710  1
  O  O11  1  0.65932420  0.75000028  0.90760339  1
  O  O12  1  0.83321458  0.00051490  0.09586041  1
  O  O13  1  0.83319742  0.00051598  0.40413860  1
  O  O14  1  0.83321467  0.49948301  0.09586084  1
  O  O15  1  0.83319796  0.49948371  0.40413881  1
loop_
_geom_bond_atom_site_label_1
_geom_bond_atom_site_label_2
_geom_bond_distance
_geom_bond_site_symmetry_2
Cd0 O7 2.240334 1_555
Cd0 O6 2.240440 1_555
Cd0 O12 2.407233 1_465
Cd0 O14 2.407241 1_455
Cd0 O15 2.407334 1_455
Cd0 O13 2.407345 1_465
Cd1 O11 2.229118 1_555
Cd1 O10 2.229212 1_555
Cd1 O1 2.387408 1_555
Cd1 O2 2.387442 1_555
Cd1 O0 2.387565 1_555
Cd1 O3 2.387572 1_555
Cd2 O4 2.228979 1_555
Cd2 O5 2.229068 1_555
Cd2 O13 2.387205 1_555
Cd2 O15 2.387233 1_555
Cd2 O14 2.387373 1_555
Cd2 O12 2.387373 1_555
Cd3 O8 2.240525 1_555
Cd3 O9 2.240682 1_555
Cd3 O0 2.407371 1_645
Cd3 O3 2.407381 1_655
Cd3 O2 2.407485 1_655
Cd3 O1 2.407507 1_645
Co0 O4 1.893323 1_555
Co0 O14 1.900341 1_455
Co0 O12 1.900343 1_455
Co0 O9 1.901221 1_454
Co0 O3 1.957085 1_554
Co0 O0 1.957087 1_544
Co1 O11 1.893317 1_555
Co1 O3 1.900343 1_655
Co1 O0 1.900345 1_655
Co1 O6 1.901296 1_656
Co1 O12 1.957127 1_566
Co1 O14 1.957128 1_556
Co2 O5 1.893317 1_555
Co2 O15 1.900347 1_455
Co2 O13 1.900365 1_455
Co2 O8 1.901190 1_455
Co2 O2 1.957057 1_555
Co2 O1 1.957065 1_545
Co3 O10 1.893310 1_555
Co3 O2 1.900337 1_655
Co3 O1 1.900342 1_655
Co3 O7 1.901288 1_655
Co3 O13 1.957122 1_565
Co3 O15 1.957122 1_555
Co4 O11 1.892796 1_544
Co4 O4 1.892829 1_555
Co4 O9 1.899405 1_554
Co4 O6 1.899446 1_545
Co4 O0 1.928050 1_544
Co4 O12 1.928056 1_555
Co5 O10 1.892789 1_545
Co5 O5 1.892848 1_555
Co5 O8 1.899414 1_555
Co5 O7 1.899421 1_545
Co5 O1 1.928054 1_545
Co5 O13 1.928066 1_555
Co6 O11 1.892793 1_554
Co6 O4 1.892826 1_555
Co6 O9 1.899401 1_554
Co6 O6 1.899444 1_555
Co6 O3 1.928050 1_554
Co6 O14 1.928055 1_555
Co7 O10 1.892791 1_555
Co7 O5 1.892850 1_555
Co7 O8 1.899417 1_555
Co7 O7 1.899421 1_555
Co7 O2 1.928056 1_555
Co7 O15 1.928066 1_555
