# generated using pymatgen
data_Li3Co2(SiO4)2
_symmetry_space_group_name_H-M   'P 1'
_cell_length_a   5.14168900
_cell_length_b   6.48976500
_cell_length_c   10.58967797
_cell_angle_alpha   89.47181109
_cell_angle_beta   90.00000000
_cell_angle_gamma   90.00000000
_symmetry_Int_Tables_number   1
_chemical_formula_structural   Li3Co2(SiO4)2
_chemical_formula_sum   'Li6 Co4 Si4 O16'
_cell_volume   353.34510122
_cell_formula_units_Z   2
loop_
 _symmetry_equiv_pos_site_id
 _symmetry_equiv_pos_as_xyz
  1  'x, y, z'
loop_
 _atom_site_type_symbol
 _atom_site_label
 _atom_site_symmetry_multiplicity
 _atom_site_fract_x
 _atom_site_fract_y
 _atom_site_fract_z
 _atom_site_occupancy
  Li  Li0  1  0.42797700  0.88672400  0.15864600  1
  Li  Li1  1  0.93518700  0.37631000  0.33641100  1
  Li  Li2  1  0.52802500  0.62589600  0.42179100  1
  Li  Li3  1  0.57202300  0.88672400  0.65864600  1
  Li  Li4  1  0.06481300  0.37631000  0.83641100  1
  Li  Li5  1  0.47197500  0.62589600  0.92179100  1
  Co  Co0  1  0.42335200  0.37222700  0.16157500  1
  Co  Co1  1  0.93485100  0.88841900  0.33701400  1
  Co  Co2  1  0.57664800  0.37222700  0.66157500  1
  Co  Co3  1  0.06514900  0.88841900  0.83701400  1
  Si  Si0  1  0.93370900  0.63217100  0.09346700  1
  Si  Si1  1  0.43385200  0.13515400  0.41156600  1
  Si  Si2  1  0.06629100  0.63217100  0.59346700  1
  Si  Si3  1  0.56614800  0.13515400  0.91156600  1
  O  O0  1  0.49241800  0.13753000  0.05982000  1
  O  O1  1  0.61252200  0.62138400  0.09594700  1
  O  O2  1  0.03791500  0.83948200  0.16859600  1
  O  O3  1  0.05695100  0.43210700  0.16404300  1
  O  O4  1  0.55634500  0.92138400  0.34466300  1
  O  O5  1  0.54240600  0.34507700  0.33897900  1
  O  O6  1  0.11479800  0.12566800  0.38642000  1
  O  O7  1  0.96229100  0.64479700  0.44286700  1
  O  O8  1  0.50758200  0.13753000  0.55982000  1
  O  O9  1  0.38747800  0.62138400  0.59594700  1
  O  O10  1  0.96208500  0.83948200  0.66859600  1
  O  O11  1  0.94304900  0.43210700  0.66404300  1
  O  O12  1  0.44365500  0.92138400  0.84466300  1
  O  O13  1  0.45759400  0.34507700  0.83897900  1
  O  O14  1  0.88520200  0.12566800  0.88642000  1
  O  O15  1  0.03770900  0.64479700  0.94286700  1
loop_
_geom_bond_atom_site_label_1
_geom_bond_atom_site_label_2
_geom_bond_distance
_geom_bond_site_symmetry_2
Li0 O0 1.955231 1_565
Li0 O2 2.031464 1_555
Li0 O1 2.080276 1_555
Li0 O4 2.091591 1_555
Li1 O6 1.939919 1_655
Li1 O3 1.960281 1_655
Li1 O5 2.029861 1_555
Li1 O7 2.088669 1_555
Li2 O9 1.980748 1_555
Li2 O5 2.031084 1_555
Li2 O4 2.082498 1_555
Li2 O7 2.247450 1_555
Li3 O8 1.955231 1_565
Li3 O10 2.031464 1_555
Li3 O9 2.080276 1_555
Li3 O12 2.091591 1_555
Li4 O14 1.939919 1_455
Li4 O11 1.960281 1_455
Li4 O13 2.029861 1_555
Li4 O15 2.088669 1_555
Li5 O1 1.980748 1_556
Li5 O13 2.031084 1_555
Li5 O12 2.082498 1_555
Li5 O15 2.247450 1_555
Co0 O0 1.907199 1_555
Co0 O3 1.923809 1_555
Co0 O5 1.982167 1_555
Co0 O1 2.005723 1_555
Co1 O6 1.874909 1_665
Co1 O2 1.890230 1_655
Co1 O7 1.934806 1_555
Co1 O4 1.959640 1_555
Co2 O8 1.907199 1_555
Co2 O11 1.923809 1_555
Co2 O13 1.982167 1_555
Co2 O9 2.005723 1_555
Co3 O14 1.874909 1_465
Co3 O10 1.890230 1_455
Co3 O15 1.934806 1_555
Co3 O12 1.959640 1_555
O0 Si3 1.615295 1_554
O1 Si0 1.653125 1_555
O2 Si0 1.658276 1_455
O3 Si0 1.621105 1_455
O4 Si1 1.685642 1_565
O5 Si1 1.655018 1_555
O6 Si1 1.663179 1_555
O7 Si2 1.683345 1_655
O8 Si1 1.615295 1_555
O9 Si2 1.653125 1_555
O10 Si2 1.658276 1_655
O11 Si2 1.621105 1_655
O12 Si3 1.685642 1_565
O13 Si3 1.655018 1_555
O14 Si3 1.663179 1_555
O15 Si0 1.683345 1_456
