# generated using pymatgen
data_LiCo2(PO4)2
_symmetry_space_group_name_H-M   'P 1'
_cell_length_a   5.15519500
_cell_length_b   8.48014300
_cell_length_c   16.73510599
_cell_angle_alpha   78.70966217
_cell_angle_beta   90.00000000
_cell_angle_gamma   90.00000000
_symmetry_Int_Tables_number   1
_chemical_formula_structural   LiCo2(PO4)2
_chemical_formula_sum   'Li4 Co8 P8 O32'
_cell_volume   717.44687688
_cell_formula_units_Z   4
loop_
 _symmetry_equiv_pos_site_id
 _symmetry_equiv_pos_as_xyz
  1  'x, y, z'
loop_
 _atom_site_type_symbol
 _atom_site_label
 _atom_site_symmetry_multiplicity
 _atom_site_fract_x
 _atom_site_fract_y
 _atom_site_fract_z
 _atom_site_occupancy
  Li  Li0  1  0.32713900  0.00361700  0.25106900  1
  Li  Li1  1  0.67286100  0.00361700  0.75106900  1
  Li  Li2  1  0.83076300  0.60813400  0.49172200  1
  Li  Li3  1  0.16923700  0.60813400  0.99172200  1
  Co  Co0  1  0.32617100  0.36527800  0.12793900  1
  Co  Co1  1  0.67382900  0.36527800  0.62793900  1
  Co  Co2  1  0.18715200  0.46969700  0.36502100  1
  Co  Co3  1  0.81284800  0.46969700  0.86502100  1
  Co  Co4  1  0.69101500  0.87690800  0.11607100  1
  Co  Co5  1  0.30898500  0.87690800  0.61607100  1
  Co  Co6  1  0.82594800  0.97882300  0.37490200  1
  Co  Co7  1  0.17405200  0.97882300  0.87490200  1
  P  P0  1  0.81408200  0.17706400  0.18749300  1
  P  P1  1  0.18591800  0.17706400  0.68749300  1
  P  P2  1  0.69195600  0.29752700  0.43561400  1
  P  P3  1  0.30804400  0.29752700  0.93561400  1
  P  P4  1  0.19094800  0.68714800  0.18063900  1
  P  P5  1  0.80905200  0.68714800  0.68063900  1
  P  P6  1  0.31788700  0.78812600  0.43177900  1
  P  P7  1  0.68211300  0.78812600  0.93177900  1
  O  O0  1  0.75331300  0.08978400  0.11427500  1
  O  O1  1  0.69871800  0.06469700  0.26402300  1
  O  O2  1  0.11170100  0.19484700  0.19716100  1
  O  O3  1  0.77760700  0.12207700  0.45054300  1
  O  O4  1  0.24668700  0.08978400  0.61427500  1
  O  O5  1  0.30128200  0.06469700  0.76402300  1
  O  O6  1  0.27661300  0.37548900  0.01071800  1
  O  O7  1  0.68108000  0.34125600  0.16837200  1
  O  O8  1  0.39868100  0.30518800  0.40971400  1
  O  O9  1  0.88829900  0.19484700  0.69716100  1
  O  O10  1  0.22239300  0.12207700  0.95054300  1
  O  O11  1  0.84206000  0.40621300  0.36426700  1
  O  O12  1  0.72338700  0.37548900  0.51071800  1
  O  O13  1  0.31892000  0.34125600  0.66837200  1
  O  O14  1  0.60131900  0.30518800  0.90971400  1
  O  O15  1  0.23890600  0.60199100  0.10846000  1
  O  O16  1  0.27019800  0.57118200  0.25996500  1
  O  O17  1  0.15794000  0.40621300  0.86426700  1
  O  O18  1  0.90138000  0.73244300  0.18635600  1
  O  O19  1  0.18962600  0.61820800  0.43880900  1
  O  O20  1  0.76109400  0.60199100  0.60846000  1
  O  O21  1  0.72980200  0.57118200  0.75996500  1
  O  O22  1  0.75296500  0.84185700  0.01249800  1
  O  O23  1  0.35686500  0.84503600  0.16992400  1
  O  O24  1  0.61383900  0.77935700  0.41956800  1
  O  O25  1  0.09862000  0.73244300  0.68635600  1
  O  O26  1  0.81037400  0.61820800  0.93880900  1
  O  O27  1  0.19106900  0.90768600  0.36041400  1
  O  O28  1  0.24703500  0.84185700  0.51249800  1
  O  O29  1  0.64313500  0.84503600  0.66992400  1
  O  O30  1  0.38616100  0.77935700  0.91956800  1
  O  O31  1  0.80893100  0.90768600  0.86041400  1
loop_
_geom_bond_atom_site_label_1
_geom_bond_atom_site_label_2
_geom_bond_distance
_geom_bond_site_symmetry_2
Li0 O27 1.979771 1_545
Li0 O1 2.007145 1_555
Li0 O2 2.025906 1_555
Li0 O23 2.095493 1_545
Li1 O31 1.979771 1_545
Li1 O5 2.007145 1_555
Li1 O9 2.025906 1_555
Li1 O29 2.095493 1_545
Li2 O20 1.976993 1_555
Li2 O12 2.013475 1_555
Li2 O24 2.032339 1_555
Li2 O19 2.045563 1_655
Li3 O15 1.976993 1_556
Li3 O6 2.013475 1_556
Li3 O30 2.032339 1_555
Li3 O26 2.045563 1_455
Co0 O7 1.947539 1_555
Co0 O6 1.963300 1_555
Co0 O2 1.999415 1_555
Co0 O15 2.020375 1_555
Co1 O13 1.947539 1_555
Co1 O12 1.963300 1_555
Co1 O9 1.999415 1_555
Co1 O20 2.020375 1_555
Co2 O8 1.812781 1_555
Co2 O16 1.849993 1_555
Co2 O11 1.859447 1_455
Co2 O19 1.928739 1_555
Co3 O14 1.812781 1_555
Co3 O21 1.849993 1_555
Co3 O17 1.859447 1_655
Co3 O26 1.928739 1_555
Co4 O0 1.828009 1_565
Co4 O22 1.842939 1_555
Co4 O18 1.869810 1_555
Co4 O23 1.938370 1_555
Co5 O4 1.828009 1_565
Co5 O28 1.842939 1_555
Co5 O25 1.869810 1_555
Co5 O29 1.938370 1_555
Co6 O3 1.934533 1_565
Co6 O1 1.968388 1_565
Co6 O27 2.005719 1_655
Co6 O24 2.029900 1_555
Co7 O10 1.934533 1_565
Co7 O5 1.968388 1_565
Co7 O31 2.005719 1_455
Co7 O30 2.029900 1_555
O0 P0 1.581916 1_555
O1 P0 1.556959 1_555
O2 P0 1.553222 1_455
O3 P2 1.524960 1_555
O4 P1 1.581916 1_555
O5 P1 1.556959 1_555
O6 P3 1.538976 1_554
O7 P0 1.528644 1_555
O8 P2 1.570629 1_555
O9 P1 1.553222 1_655
O10 P3 1.524960 1_555
O11 P2 1.563010 1_555
O12 P2 1.538976 1_555
O13 P1 1.528644 1_555
O14 P3 1.570629 1_555
O15 P4 1.543778 1_555
O16 P4 1.544394 1_555
O17 P3 1.563010 1_555
O18 P4 1.549023 1_655
O19 P6 1.568738 1_555
O20 P5 1.543778 1_555
O21 P5 1.544394 1_555
O22 P7 1.551388 1_554
O23 P4 1.569213 1_555
O24 P6 1.543039 1_555
O25 P5 1.549023 1_455
O26 P7 1.568738 1_555
O27 P6 1.551644 1_555
O28 P6 1.551388 1_555
O29 P5 1.569213 1_555
O30 P7 1.543039 1_555
O31 P7 1.551644 1_555
