# generated using pymatgen
data_Li4MnV3O8
_symmetry_space_group_name_H-M   'P 1'
_cell_length_a   5.92822600
_cell_length_b   5.94089141
_cell_length_c   6.01236525
_cell_angle_alpha   119.26566895
_cell_angle_beta   119.46502021
_cell_angle_gamma   90.11231767
_symmetry_Int_Tables_number   1
_chemical_formula_structural   Li4MnV3O8
_chemical_formula_sum   'Li4 Mn1 V3 O8'
_cell_volume   152.41699039
_cell_formula_units_Z   1
loop_
 _symmetry_equiv_pos_site_id
 _symmetry_equiv_pos_as_xyz
  1  'x, y, z'
loop_
 _atom_site_type_symbol
 _atom_site_label
 _atom_site_symmetry_multiplicity
 _atom_site_fract_x
 _atom_site_fract_y
 _atom_site_fract_z
 _atom_site_occupancy
  Li  Li0  1  0.49997800  0.99022400  0.48644500  1
  Li  Li1  1  0.00074100  0.99210600  0.48761600  1
  Li  Li2  1  0.50060700  0.49372000  0.99268700  1
  Li  Li3  1  0.99872800  0.49268800  0.98974100  1
  Mn  Mn0  1  0.00095600  0.99746000  0.99411300  1
  V  V0  1  0.50120800  0.99753900  0.99454400  1
  V  V1  1  0.00146600  0.49707900  0.49522200  1
  V  V2  1  0.50117100  0.49687300  0.49525900  1
  O  O0  1  0.25412000  0.23972400  0.01617300  1
  O  O1  1  0.76983300  0.23907900  0.01576300  1
  O  O2  1  0.74508300  0.72436000  0.48143500  1
  O  O3  1  0.26381300  0.74775100  0.51890300  1
  O  O4  1  0.73889800  0.24626700  0.47114000  1
  O  O5  1  0.25693600  0.26926900  0.50782800  1
  O  O6  1  0.23328700  0.75620600  0.97505100  1
  O  O7  1  0.74904200  0.75549200  0.97461600  1
loop_
_geom_bond_atom_site_label_1
_geom_bond_atom_site_label_2
_geom_bond_distance
_geom_bond_site_symmetry_2
Li0 O4 2.141266 1_565
Li0 O3 2.146854 1_555
Li0 O2 2.147671 1_555
Li0 O5 2.196336 1_565
Li0 O6 2.217169 1_554
Li0 O1 2.292360 1_566
Li1 O3 2.135939 1_555
Li1 O5 2.155395 1_565
Li1 O4 2.168738 1_465
Li1 O2 2.169315 1_455
Li1 O7 2.222773 1_454
Li1 O0 2.289932 1_566
Li2 O5 2.100469 1_555
Li2 O2 2.116289 1_556
Li2 O0 2.198812 1_556
Li2 O1 2.202714 1_556
Li2 O7 2.216539 1_555
Li2 O6 2.227195 1_555
Li3 O1 2.137081 1_556
Li3 O0 2.140500 1_656
Li3 O6 2.153998 1_655
Li3 O7 2.156926 1_555
Li3 O4 2.245249 1_555
Li3 O3 2.290466 1_656
Mn0 O0 1.987605 1_566
Mn0 O1 1.988769 1_466
Mn0 O7 1.991237 1_455
Mn0 O6 1.991681 1_555
Mn0 O2 2.221578 1_455
Mn0 O5 2.225547 1_566
O0 V0 2.060433 1_544
O0 V2 2.077111 1_555
O1 V0 2.055125 1_544
O1 V1 2.079017 1_655
O2 V1 2.033143 1_655
O2 V2 2.035831 1_555
O3 V2 2.054126 1_555
O3 V1 2.054899 1_555
O3 V0 2.060117 1_555
O4 V2 2.054736 1_555
O4 V1 2.054833 1_655
O4 V0 2.063901 1_544
O5 V1 2.031375 1_555
O5 V2 2.032315 1_555
O6 V0 2.058074 1_555
O6 V1 2.080948 1_555
O7 V0 2.062458 1_555
O7 V2 2.078834 1_555
