# generated using pymatgen
data_Li4FeOF4
_symmetry_space_group_name_H-M   'P 1'
_cell_length_a   6.80243300
_cell_length_b   8.00703600
_cell_length_c   6.80243300
_cell_angle_alpha   89.99999158
_cell_angle_beta   90.00000000
_cell_angle_gamma   90.00000000
_symmetry_Int_Tables_number   1
_chemical_formula_structural   Li4FeOF4
_chemical_formula_sum   'Li16 Fe4 O4 F16'
_cell_volume   370.51033525
_cell_formula_units_Z   4
loop_
 _symmetry_equiv_pos_site_id
 _symmetry_equiv_pos_as_xyz
  1  'x, y, z'
loop_
 _atom_site_type_symbol
 _atom_site_label
 _atom_site_symmetry_multiplicity
 _atom_site_fract_x
 _atom_site_fract_y
 _atom_site_fract_z
 _atom_site_occupancy
  Li  Li0  1  0.29204800  0.23396500  0.09073800  1
  Li  Li1  1  0.79204800  0.48396500  0.59073800  1
  Li  Li2  1  0.29204800  0.73396500  0.09073800  1
  Li  Li3  1  0.79204800  0.98396500  0.59073800  1
  Li  Li4  1  0.40926200  0.98396500  0.79204800  1
  Li  Li5  1  0.90926200  0.23396500  0.29204800  1
  Li  Li6  1  0.40926200  0.48396500  0.79204800  1
  Li  Li7  1  0.90926200  0.73396500  0.29204800  1
  Li  Li8  1  0.59073800  0.48396500  0.20795200  1
  Li  Li9  1  0.09073800  0.73396500  0.70795200  1
  Li  Li10  1  0.59073800  0.98396500  0.20795200  1
  Li  Li11  1  0.09073800  0.23396500  0.70795200  1
  Li  Li12  1  0.70795200  0.23396500  0.90926200  1
  Li  Li13  1  0.20795200  0.48396500  0.40926200  1
  Li  Li14  1  0.70795200  0.73396500  0.90926200  1
  Li  Li15  1  0.20795200  0.98396500  0.40926200  1
  Fe  Fe0  1  0.00000000  0.48417800  0.00000000  1
  Fe  Fe1  1  0.50000000  0.73417800  0.50000000  1
  Fe  Fe2  1  0.00000000  0.98417800  0.00000000  1
  Fe  Fe3  1  0.50000000  0.23417800  0.50000000  1
  O  O0  1  0.00000000  0.23406400  0.00000000  1
  O  O1  1  0.50000000  0.48406400  0.50000000  1
  O  O2  1  0.00000000  0.73406400  0.00000000  1
  O  O3  1  0.50000000  0.98406400  0.50000000  1
  F  F0  1  0.30915700  0.48397500  0.10288700  1
  F  F1  1  0.80915700  0.73397500  0.60288700  1
  F  F2  1  0.30915700  0.98397500  0.10288700  1
  F  F3  1  0.80915700  0.23397500  0.60288700  1
  F  F4  1  0.39711300  0.23397500  0.80915700  1
  F  F5  1  0.89711300  0.48397500  0.30915700  1
  F  F6  1  0.39711300  0.73397500  0.80915700  1
  F  F7  1  0.89711300  0.98397500  0.30915700  1
  F  F8  1  0.60288700  0.23397500  0.19084300  1
  F  F9  1  0.10288700  0.48397500  0.69084300  1
  F  F10  1  0.60288700  0.73397500  0.19084300  1
  F  F11  1  0.10288700  0.98397500  0.69084300  1
  F  F12  1  0.69084300  0.98397500  0.89711300  1
  F  F13  1  0.19084300  0.23397500  0.39711300  1
  F  F14  1  0.69084300  0.48397500  0.89711300  1
  F  F15  1  0.19084300  0.73397500  0.39711300  1
loop_
_geom_bond_atom_site_label_1
_geom_bond_atom_site_label_2
_geom_bond_distance
_geom_bond_site_symmetry_2
Li0 O0 2.080315 1_555
Li1 O1 2.080315 1_555
Li2 O2 2.080315 1_555
Li3 O3 2.080315 1_555
Li4 O3 2.080315 1_555
Li5 O0 2.080315 1_655
Li6 O1 2.080315 1_555
Li7 O2 2.080315 1_655
Li8 O1 2.080315 1_555
Li9 O2 2.080315 1_556
Li10 O3 2.080315 1_555
Li11 O0 2.080315 1_556
Li12 O0 2.080315 1_656
Li13 O1 2.080315 1_555
Li14 O2 2.080315 1_656
Li15 O3 2.080315 1_555
Fe0 O2 2.000846 1_555
Fe0 O0 2.002672 1_555
Fe1 O3 2.000846 1_555
Fe1 O1 2.002672 1_555
Fe2 O0 2.000846 1_565
Fe2 O2 2.002672 1_555
Fe3 O1 2.000846 1_555
Fe3 O3 2.002672 1_545
F0 Li2 2.006762 1_555
F0 Li0 2.006922 1_555
F0 Li8 2.044428 1_555
F0 Li13 2.194858 1_555
F0 Fe0 2.216423 1_555
F0 Li6 2.221407 1_554
F1 Li3 2.006762 1_555
F1 Li1 2.006922 1_555
F1 Li9 2.044428 1_655
F1 Li14 2.194858 1_555
F1 Fe1 2.216423 1_555
F1 Li7 2.221407 1_555
F2 Li0 2.006762 1_565
F2 Li2 2.006922 1_555
F2 Li10 2.044428 1_555
F2 Li15 2.194858 1_555
F2 Fe2 2.216423 1_555
F2 Li4 2.221407 1_554
F3 Li1 2.006762 1_555
F3 Li3 2.006922 1_545
F3 Li11 2.044428 1_655
F3 Li12 2.194858 1_555
F3 Fe3 2.216423 1_555
F3 Li5 2.221407 1_555
F4 Li6 2.006762 1_555
F4 Li4 2.006922 1_545
F4 Li0 2.044428 1_556
F4 Li11 2.194858 1_555
F4 Fe3 2.216423 1_555
F4 Li12 2.221407 1_555
F5 Li7 2.006762 1_555
F5 Li5 2.006922 1_555
F5 Li1 2.044428 1_555
F5 Li8 2.194858 1_555
F5 Fe0 2.216423 1_655
F5 Li13 2.221407 1_655
F6 Li4 2.006762 1_555
F6 Li6 2.006922 1_555
F6 Li2 2.044428 1_556
F6 Li9 2.194858 1_555
F6 Fe1 2.216423 1_555
F6 Li14 2.221407 1_555
F7 Li5 2.006762 1_565
F7 Li7 2.006922 1_555
F7 Li3 2.044428 1_555
F7 Li10 2.194858 1_555
F7 Fe2 2.216423 1_655
F7 Li15 2.221407 1_655
F8 Li8 2.006762 1_555
F8 Li10 2.006922 1_545
F8 Li12 2.044428 1_554
F8 Li5 2.194858 1_555
F8 Fe3 2.216423 1_555
F8 Li0 2.221407 1_555
F9 Li9 2.006762 1_555
F9 Li11 2.006922 1_555
F9 Li13 2.044428 1_555
F9 Li6 2.194858 1_555
F9 Fe0 2.216423 1_556
F9 Li1 2.221407 1_455
F10 Li10 2.006762 1_555
F10 Li8 2.006922 1_555
F10 Li14 2.044428 1_554
F10 Li7 2.194858 1_555
F10 Fe1 2.216423 1_555
F10 Li2 2.221407 1_555
F11 Li11 2.006762 1_565
F11 Li9 2.006922 1_555
F11 Li15 2.044428 1_555
F11 Li4 2.194858 1_555
F11 Fe2 2.216423 1_556
F11 Li3 2.221407 1_455
F12 Li12 2.006762 1_565
F12 Li14 2.006922 1_555
F12 Li4 2.044428 1_555
F12 Li3 2.194858 1_555
F12 Fe2 2.216423 1_656
F12 Li10 2.221407 1_556
F13 Li13 2.006762 1_555
F13 Li15 2.006922 1_545
F13 Li5 2.044428 1_455
F13 Li0 2.194858 1_555
F13 Fe3 2.216423 1_555
F13 Li11 2.221407 1_555
F14 Li14 2.006762 1_555
F14 Li12 2.006922 1_555
F14 Li6 2.044428 1_555
F14 Li1 2.194858 1_555
F14 Fe0 2.216423 1_656
F14 Li8 2.221407 1_556
F15 Li15 2.006762 1_555
F15 Li13 2.006922 1_555
F15 Li7 2.044428 1_455
F15 Li2 2.194858 1_555
F15 Fe1 2.216423 1_555
F15 Li9 2.221407 1_555
