# generated using pymatgen
data_FeP3H18C6(SO)6
_symmetry_space_group_name_H-M   'P 1'
_cell_length_a   9.21827962
_cell_length_b   9.21827962
_cell_length_c   13.33573846
_cell_angle_alpha   84.09943526
_cell_angle_beta   84.09943526
_cell_angle_gamma   75.68317455
_symmetry_Int_Tables_number   1
_chemical_formula_structural   FeP3H18C6(SO)6
_chemical_formula_sum   'Fe2 P6 H36 C12 S12 O12'
_cell_volume   1088.68886314
_cell_formula_units_Z   2
loop_
 _symmetry_equiv_pos_site_id
 _symmetry_equiv_pos_as_xyz
  1  'x, y, z'
loop_
 _atom_site_type_symbol
 _atom_site_label
 _atom_site_symmetry_multiplicity
 _atom_site_fract_x
 _atom_site_fract_y
 _atom_site_fract_z
 _atom_site_occupancy
  Fe  Fe0  1  0.16323600  0.83676400  0.75000000  1
  Fe  Fe1  1  0.83676400  0.16323600  0.25000000  1
  P  P0  1  0.43216900  0.56783100  0.75000000  1
  P  P1  1  0.56783100  0.43216900  0.25000000  1
  P  P2  1  0.85781700  0.79455400  0.85121100  1
  P  P3  1  0.20544600  0.14218300  0.64878900  1
  P  P4  1  0.14218300  0.20544600  0.14878900  1
  P  P5  1  0.79455400  0.85781700  0.35121100  1
  H  H0  1  0.43722200  0.31185400  0.96596200  1
  H  H1  1  0.68814600  0.56277800  0.53403800  1
  H  H2  1  0.56277800  0.68814600  0.03403800  1
  H  H3  1  0.31185400  0.43722200  0.46596200  1
  H  H4  1  0.32205700  0.49865700  0.95134200  1
  H  H5  1  0.50134300  0.67794300  0.54865800  1
  H  H6  1  0.67794300  0.50134300  0.04865800  1
  H  H7  1  0.49865700  0.32205700  0.45134200  1
  H  H8  1  0.28221900  0.35047900  0.88862800  1
  H  H9  1  0.64952100  0.71778100  0.61137200  1
  H  H10  1  0.71778100  0.64952100  0.11137200  1
  H  H11  1  0.35047900  0.28221900  0.38862800  1
  H  H12  1  0.80782600  0.42786100  0.84073100  1
  H  H13  1  0.57213900  0.19217400  0.65926900  1
  H  H14  1  0.19217400  0.57213900  0.15926900  1
  H  H15  1  0.42786100  0.80782600  0.34073100  1
  H  H16  1  0.97891100  0.46353800  0.87321000  1
  H  H17  1  0.53646200  0.02108900  0.62679000  1
  H  H18  1  0.02108900  0.53646200  0.12679000  1
  H  H19  1  0.46353800  0.97891100  0.37321000  1
  H  H20  1  0.91772000  0.51997800  0.74810800  1
  H  H21  1  0.48002200  0.08228000  0.75189200  1
  H  H22  1  0.08228000  0.48002200  0.25189200  1
  H  H23  1  0.51997800  0.91772000  0.24810800  1
  H  H24  1  0.71649400  0.12149300  0.85198700  1
  H  H25  1  0.87850700  0.28350600  0.64801300  1
  H  H26  1  0.28350600  0.87850700  0.14801300  1
  H  H27  1  0.12149300  0.71649400  0.35198700  1
  H  H28  1  0.80822800  0.05289900  0.96639800  1
  H  H29  1  0.94710100  0.19177200  0.53360200  1
  H  H30  1  0.19177200  0.94710100  0.03360200  1
  H  H31  1  0.05289900  0.80822800  0.46639800  1
  H  H32  1  0.60726100  0.09460500  0.96916400  1
  H  H33  1  0.90539500  0.39273900  0.53083600  1
  H  H34  1  0.39273900  0.90539500  0.03083600  1
  H  H35  1  0.09460500  0.60726100  0.46916400  1
  C  C0  1  0.37113900  0.39534800  0.91360100  1
  C  C1  1  0.60465200  0.62886100  0.58639900  1
  C  C2  1  0.62886100  0.60465200  0.08639900  1
  C  C3  1  0.39534800  0.37113900  0.41360100  1
  C  C4  1  0.88100200  0.50657400  0.82874900  1
  C  C5  1  0.49342600  0.11899800  0.67125100  1
  C  C6  1  0.11899800  0.49342600  0.17125100  1
  C  C7  1  0.50657400  0.88100200  0.32874900  1
  C  C8  1  0.71236900  0.05158600  0.92373100  1
  C  C9  1  0.94841400  0.28763100  0.57626900  1
  C  C10  1  0.28763100  0.94841400  0.07626900  1
  C  C11  1  0.05158600  0.71236900  0.42373100  1
  S  S0  1  0.23863000  0.59224200  0.68595100  1
  S  S1  1  0.40775800  0.76137000  0.81404900  1
  S  S2  1  0.76137000  0.40775800  0.31404900  1
  S  S3  1  0.59224200  0.23863000  0.18595100  1
  S  S4  1  0.03998200  0.76857500  0.92530200  1
  S  S5  1  0.23142500  0.96001800  0.57469800  1
  S  S6  1  0.96001800  0.23142500  0.07469800  1
  S  S7  1  0.76857500  0.03998200  0.42530200  1
  S  S8  1  0.89817300  0.86406100  0.70565900  1
  S  S9  1  0.13593900  0.10182700  0.79434100  1
  S  S10  1  0.10182700  0.13593900  0.29434100  1
  S  S11  1  0.86406100  0.89817300  0.20565900  1
  O  O0  1  0.47468900  0.42221300  0.82712700  1
  O  O1  1  0.57778700  0.52531100  0.67287300  1
  O  O2  1  0.52531100  0.57778700  0.17287300  1
  O  O3  1  0.42221300  0.47468900  0.32712700  1
  O  O4  1  0.79147200  0.64713900  0.86308300  1
  O  O5  1  0.35286100  0.20852800  0.63691700  1
  O  O6  1  0.20852800  0.35286100  0.13691700  1
  O  O7  1  0.64713900  0.79147200  0.36308300  1
  O  O8  1  0.71151000  0.90028900  0.90526600  1
  O  O9  1  0.09971100  0.28849000  0.59473400  1
  O  O10  1  0.28849000  0.09971100  0.09473400  1
  O  O11  1  0.90028900  0.71151000  0.40526600  1
loop_
_geom_bond_atom_site_label_1
_geom_bond_atom_site_label_2
_geom_bond_distance
_geom_bond_site_symmetry_2
Fe0 S1 2.406749 1_555
Fe0 S0 2.406749 1_555
Fe0 S9 2.519067 1_565
Fe0 S8 2.519067 1_455
Fe0 S4 2.579967 1_555
Fe0 S5 2.579967 1_555
Fe1 S2 2.406749 1_555
Fe1 S3 2.406749 1_555
Fe1 S10 2.519067 1_655
Fe1 S11 2.519067 1_545
Fe1 S7 2.579967 1_555
Fe1 S6 2.579967 1_555
P0 S0 2.009586 1_555
P0 S1 2.009586 1_555
P1 S3 2.009586 1_555
P1 S2 2.009586 1_555
P2 S4 1.986726 1_655
P2 S8 2.007559 1_555
P3 S5 1.986726 1_545
P3 S9 2.007559 1_555
P4 S6 1.986726 1_455
P4 S10 2.007559 1_555
P5 S7 1.986726 1_565
P5 S11 2.007559 1_555
C0 H0 1.093683 1_555
C0 H4 1.097082 1_555
C0 H8 1.098182 1_555
C0 O0 1.460899 1_555
C1 H1 1.093683 1_555
C1 H5 1.097082 1_555
C1 H9 1.098182 1_555
C1 O1 1.460899 1_555
C2 H2 1.093683 1_555
C2 H6 1.097082 1_555
C2 H10 1.098182 1_555
C2 O2 1.460899 1_555
C3 H3 1.093683 1_555
C3 H7 1.097082 1_555
C3 H11 1.098182 1_555
C3 O3 1.460899 1_555
C4 H12 1.096869 1_555
C4 H20 1.097660 1_555
C4 H16 1.099146 1_555
C4 O4 1.444019 1_555
C5 H13 1.096869 1_555
C5 H21 1.097660 1_555
C5 H17 1.099146 1_555
C5 O5 1.444019 1_555
C6 H14 1.096869 1_555
C6 H22 1.097660 1_555
C6 H18 1.099146 1_555
C6 O6 1.444019 1_555
C7 H15 1.096869 1_555
C7 H23 1.097660 1_555
C7 H19 1.099146 1_555
C7 O7 1.444019 1_555
C8 H32 1.096276 1_555
C8 H24 1.099994 1_555
C8 H28 1.102194 1_555
C8 O8 1.443037 1_545
C9 H33 1.096276 1_555
C9 H25 1.099994 1_555
C9 H29 1.102194 1_555
C9 O9 1.443037 1_655
C10 H34 1.096276 1_555
C10 H26 1.099994 1_555
C10 H30 1.102194 1_555
C10 O10 1.443037 1_565
C11 H35 1.096276 1_555
C11 H27 1.099994 1_555
C11 H31 1.102194 1_555
C11 O11 1.443037 1_455
O0 P0 1.597573 1_555
O1 P0 1.597573 1_555
O2 P1 1.597573 1_555
O3 P1 1.597573 1_555
O4 P2 1.610166 1_555
O5 P3 1.610166 1_555
O6 P4 1.610166 1_555
O7 P5 1.610166 1_555
O8 P2 1.607199 1_555
O9 P3 1.607199 1_555
O10 P4 1.607199 1_555
O11 P5 1.607199 1_555
