# generated using pymatgen
data_LiV4(PO4)3
_symmetry_space_group_name_H-M   'P 1'
_cell_length_a   10.72735238
_cell_length_b   10.72735238
_cell_length_c   10.72735238
_cell_angle_alpha   142.88385523
_cell_angle_beta   142.88385523
_cell_angle_gamma   53.49963903
_symmetry_Int_Tables_number   1
_chemical_formula_structural   LiV4(PO4)3
_chemical_formula_sum   'Li2 V8 P6 O24'
_cell_volume   446.64156105
_cell_formula_units_Z   2
loop_
 _symmetry_equiv_pos_site_id
 _symmetry_equiv_pos_as_xyz
  1  'x, y, z'
loop_
 _atom_site_type_symbol
 _atom_site_label
 _atom_site_symmetry_multiplicity
 _atom_site_fract_x
 _atom_site_fract_y
 _atom_site_fract_z
 _atom_site_occupancy
  Li  Li0  1  0.25000000  0.75000000  0.50000000  1
  Li  Li1  1  0.50000000  0.50000000  0.00000000  1
  V  V0  1  0.37500000  0.37000600  0.49500600  1
  V  V1  1  0.77293800  0.77293800  0.00000000  1
  V  V2  1  0.62999400  0.12500000  0.00499400  1
  V  V3  1  0.87500000  0.87999400  0.50499400  1
  V  V4  1  0.22706200  0.22706200  0.00000000  1
  V  V5  1  0.97706200  0.47706200  0.50000000  1
  V  V6  1  0.52293800  0.02293800  0.50000000  1
  V  V7  1  0.12000600  0.62500000  0.99500600  1
  P  P0  1  0.00000000  0.00000000  0.00000000  1
  P  P1  1  0.87500000  0.47759900  0.10259900  1
  P  P2  1  0.37500000  0.77240100  0.89740100  1
  P  P3  1  0.22759900  0.12500000  0.60259900  1
  P  P4  1  0.75000000  0.25000000  0.50000000  1
  P  P5  1  0.52240100  0.62500000  0.39740100  1
  O  O0  1  0.23107200  0.08947600  0.23575600  1
  O  O1  1  0.66931100  0.34079800  0.79982600  1
  O  O2  1  0.08068900  0.38051500  0.17148700  1
  O  O3  1  0.61948500  0.79097200  0.70017400  1
  O  O4  1  0.27689300  0.56548300  0.72080800  1
  O  O5  1  0.47310700  0.69391500  0.78859000  1
  O  O6  1  0.90532500  0.68451700  0.21141000  1
  O  O7  1  0.84467500  0.55608500  0.27919200  1
  O  O8  1  0.09079800  0.91931100  0.29982600  1
  O  O9  1  0.91052400  0.14628000  0.14159700  1
  O  O10  1  0.43451700  0.15532500  0.71141000  1
  O  O11  1  0.20902800  0.90920200  0.82851300  1
  O  O12  1  0.54097200  0.86948500  0.20017400  1
  O  O13  1  0.30608500  0.09467500  0.77919200  1
  O  O14  1  0.74531700  0.10372000  0.26424400  1
  O  O15  1  0.89628000  0.16052400  0.64159700  1
  O  O16  1  0.85372000  0.99531700  0.76424400  1
  O  O17  1  0.13051500  0.33068900  0.67148700  1
  O  O18  1  0.65920200  0.45902800  0.32851300  1
  O  O19  1  0.51892800  0.25468300  0.35840300  1
  O  O20  1  0.83947600  0.48107200  0.73575600  1
  O  O21  1  0.31548300  0.52689300  0.22080800  1
  O  O22  1  0.44391500  0.72310700  0.28859000  1
  O  O23  1  0.00468300  0.76892800  0.85840300  1
loop_
_geom_bond_atom_site_label_1
_geom_bond_atom_site_label_2
_geom_bond_distance
_geom_bond_site_symmetry_2
Li0 O5 2.261621 1_555
Li0 O13 2.261621 1_565
Li0 O21 2.261621 1_555
Li0 O6 2.261621 1_455
Li1 O7 2.261621 1_555
Li1 O4 2.261621 1_554
Li1 O10 2.261621 1_554
Li1 O22 2.261621 1_555
O0 P0 1.556568 1_555
O0 V0 2.122839 1_555
O0 V6 2.182062 1_555
O1 P1 1.546772 1_556
O1 V0 2.179654 1_555
O1 V6 2.293824 1_555
O2 P1 1.546772 1_455
O2 V0 2.179654 1_555
O2 V4 2.293824 1_555
O3 P5 1.546772 1_555
O3 V2 2.179654 1_566
O3 V1 2.293824 1_556
O4 P2 1.586394 1_555
O4 V0 2.170627 1_555
O4 V5 2.179771 1_455
O5 P2 1.586394 1_555
O5 V0 2.170627 1_555
O5 V1 2.179771 1_556
O6 P1 1.586394 1_555
O6 V3 2.170627 1_555
O6 V1 2.179771 1_555
O7 P1 1.586394 1_555
O7 V3 2.170627 1_555
O7 V5 2.179771 1_555
O8 P3 1.546772 1_565
O8 V7 2.179654 1_554
O8 V1 2.293824 1_455
O9 P0 1.556575 1_655
O9 V2 2.122833 1_555
O9 V5 2.182060 1_555
O10 P3 1.586394 1_555
O10 V2 2.170627 1_556
O10 V6 2.179771 1_555
O11 P2 1.546772 1_555
O11 V3 2.179654 1_455
O11 V4 2.293824 1_566
O12 P2 1.546772 1_554
O12 V3 2.179654 1_555
O12 V6 2.293824 1_565
O13 P3 1.586394 1_555
O13 V2 2.170627 1_556
O13 V4 2.179771 1_556
O14 P4 1.556575 1_555
O14 V2 2.122833 1_555
O14 V1 2.182060 1_545
O15 P4 1.556575 1_555
O15 V3 2.122833 1_545
O15 V4 2.182060 1_656
O16 P0 1.556575 1_666
O16 V3 2.122833 1_555
O16 V6 2.182060 1_565
O17 P3 1.546772 1_555
O17 V7 2.179654 1_555
O17 V5 2.293824 1_455
O18 P5 1.546772 1_555
O18 V2 2.179654 1_555
O18 V5 2.293824 1_555
O19 P4 1.556567 1_555
O19 V0 2.122843 1_555
O19 V4 2.182061 1_555
O20 P4 1.556568 1_555
O20 V7 2.122839 1_655
O20 V1 2.182062 1_556
O21 P5 1.586394 1_555
O21 V7 2.170627 1_554
O21 V4 2.179771 1_555
O22 P5 1.586394 1_555
O22 V7 2.170627 1_554
O22 V6 2.179771 1_565
O23 P0 1.556567 1_566
O23 V7 2.122843 1_555
O23 V5 2.182061 1_455
