# generated using pymatgen
data_K8Rh3(Br9O5)2
_symmetry_space_group_name_H-M   'P 1'
_cell_length_a   9.66914200
_cell_length_b   15.33683700
_cell_length_c   16.06464300
_cell_angle_alpha   90.00000000
_cell_angle_beta   90.00000000
_cell_angle_gamma   90.00000000
_symmetry_Int_Tables_number   1
_chemical_formula_structural   K8Rh3(Br9O5)2
_chemical_formula_sum   'K16 Rh6 Br36 O20'
_cell_volume   2382.29104913
_cell_formula_units_Z   2
loop_
 _symmetry_equiv_pos_site_id
 _symmetry_equiv_pos_as_xyz
  1  'x, y, z'
loop_
 _atom_site_type_symbol
 _atom_site_label
 _atom_site_symmetry_multiplicity
 _atom_site_fract_x
 _atom_site_fract_y
 _atom_site_fract_z
 _atom_site_occupancy
  K  K0  1  0.25414600  0.91383600  0.18728000  1
  K  K1  1  0.25414600  0.08616400  0.81272000  1
  K  K2  1  0.74585400  0.41383600  0.31272000  1
  K  K3  1  0.74585400  0.58616400  0.68728000  1
  K  K4  1  0.74585400  0.08616400  0.81272000  1
  K  K5  1  0.74585400  0.91383600  0.18728000  1
  K  K6  1  0.25414600  0.58616400  0.68728000  1
  K  K7  1  0.25414600  0.41383600  0.31272000  1
  K  K8  1  0.26434700  0.71221200  0.42386300  1
  K  K9  1  0.26434700  0.28778800  0.57613700  1
  K  K10  1  0.73565300  0.21221200  0.07613700  1
  K  K11  1  0.73565300  0.78778800  0.92386300  1
  K  K12  1  0.73565300  0.28778800  0.57613700  1
  K  K13  1  0.73565300  0.71221200  0.42386300  1
  K  K14  1  0.26434700  0.78778800  0.92386300  1
  K  K15  1  0.26434700  0.21221200  0.07613700  1
  Rh  Rh0  1  0.00000000  0.50000000  0.50000000  1
  Rh  Rh1  1  0.00000000  0.00000000  0.00000000  1
  Rh  Rh2  1  0.50000000  0.69468100  0.18559300  1
  Rh  Rh3  1  0.50000000  0.30531900  0.81440700  1
  Rh  Rh4  1  0.50000000  0.19468100  0.31440700  1
  Rh  Rh5  1  0.50000000  0.80531900  0.68559300  1
  Br  Br0  1  0.00000000  0.65394900  0.55505500  1
  Br  Br1  1  0.00000000  0.34605100  0.44494500  1
  Br  Br2  1  0.00000000  0.15394900  0.94494500  1
  Br  Br3  1  0.00000000  0.84605100  0.05505500  1
  Br  Br4  1  0.26198800  0.50000000  0.50000000  1
  Br  Br5  1  0.73801200  0.00000000  0.00000000  1
  Br  Br6  1  0.73801200  0.50000000  0.50000000  1
  Br  Br7  1  0.26198800  0.00000000  0.00000000  1
  Br  Br8  1  0.00000000  0.56070600  0.35374300  1
  Br  Br9  1  0.00000000  0.43929400  0.64625700  1
  Br  Br10  1  0.00000000  0.06070600  0.14625700  1
  Br  Br11  1  0.00000000  0.93929400  0.85374300  1
  Br  Br12  1  0.50000000  0.80859300  0.30258800  1
  Br  Br13  1  0.50000000  0.19140700  0.69741200  1
  Br  Br14  1  0.50000000  0.30859300  0.19741200  1
  Br  Br15  1  0.50000000  0.69140700  0.80258800  1
  Br  Br16  1  0.23865900  0.69291500  0.19215400  1
  Br  Br17  1  0.23865900  0.30708500  0.80784600  1
  Br  Br18  1  0.76134100  0.19291500  0.30784600  1
  Br  Br19  1  0.76134100  0.80708500  0.69215400  1
  Br  Br20  1  0.76134100  0.30708500  0.80784600  1
  Br  Br21  1  0.76134100  0.69291500  0.19215400  1
  Br  Br22  1  0.23865900  0.80708500  0.69215400  1
  Br  Br23  1  0.23865900  0.19291500  0.30784600  1
  Br  Br24  1  0.50000000  0.57398900  0.29304800  1
  Br  Br25  1  0.50000000  0.42601100  0.70695200  1
  Br  Br26  1  0.50000000  0.07398900  0.20695200  1
  Br  Br27  1  0.50000000  0.92601100  0.79304800  1
  Br  Br28  1  0.50000000  0.81560200  0.07952800  1
  Br  Br29  1  0.50000000  0.18439800  0.92047200  1
  Br  Br30  1  0.50000000  0.31560200  0.42047200  1
  Br  Br31  1  0.50000000  0.68439800  0.57952800  1
  Br  Br32  1  0.50000000  0.59394200  0.06399700  1
  Br  Br33  1  0.50000000  0.40605800  0.93600300  1
  Br  Br34  1  0.50000000  0.09394200  0.43600300  1
  Br  Br35  1  0.50000000  0.90605800  0.56399700  1
  O  O0  1  0.00000000  0.84783500  0.32807300  1
  O  O1  1  0.00000000  0.15216500  0.67192700  1
  O  O2  1  0.00000000  0.34783500  0.17192700  1
  O  O3  1  0.00000000  0.65216500  0.82807300  1
  O  O4  1  0.35816300  0.88160400  0.50705700  1
  O  O5  1  0.35816300  0.11839600  0.49294300  1
  O  O6  1  0.64183700  0.38160400  0.99294300  1
  O  O7  1  0.64183700  0.61839600  0.00705700  1
  O  O8  1  0.64183700  0.11839600  0.49294300  1
  O  O9  1  0.64183700  0.88160400  0.50705700  1
  O  O10  1  0.35816300  0.61839600  0.00705700  1
  O  O11  1  0.35816300  0.38160400  0.99294300  1
  O  O12  1  0.07513500  0.92628400  0.35490100  1
  O  O13  1  0.07513500  0.07371600  0.64509900  1
  O  O14  1  0.92486500  0.42628400  0.14509900  1
  O  O15  1  0.92486500  0.57371600  0.85490100  1
  O  O16  1  0.92486500  0.07371600  0.64509900  1
  O  O17  1  0.92486500  0.92628400  0.35490100  1
  O  O18  1  0.07513500  0.57371600  0.85490100  1
  O  O19  1  0.07513500  0.42628400  0.14509900  1
loop_
_geom_bond_atom_site_label_1
_geom_bond_atom_site_label_2
_geom_bond_distance
_geom_bond_site_symmetry_2
K0 O12 3.206777 1_555
K1 O13 3.206777 1_555
K2 O14 3.206777 1_555
K3 O15 3.206777 1_555
K4 O16 3.206777 1_555
K5 O17 3.206777 1_555
K6 O18 3.206777 1_555
K7 O19 3.206777 1_555
K8 O4 3.059139 1_555
K9 O5 3.059139 1_555
K10 O6 3.059139 1_554
K11 O7 3.059139 1_556
K12 O8 3.059139 1_555
K13 O9 3.059139 1_555
K14 O10 3.059139 1_556
K15 O11 3.059139 1_554
Br0 Rh0 2.521306 1_555
Br0 K6 3.410494 1_555
Br0 K3 3.410494 1_455
Br0 K8 3.431243 1_555
Br0 K13 3.431243 1_455
Br1 Rh0 2.521306 1_555
Br1 K2 3.410494 1_455
Br1 K7 3.410494 1_555
Br1 K12 3.431243 1_455
Br1 K9 3.431243 1_555
Br2 Rh1 2.521306 1_556
Br2 K4 3.410494 1_455
Br2 K1 3.410494 1_555
Br2 K10 3.431243 1_456
Br2 K15 3.431243 1_556
Br3 Rh1 2.521306 1_565
Br3 K0 3.410494 1_555
Br3 K5 3.410494 1_455
Br3 K14 3.431243 1_554
Br3 K11 3.431243 1_454
Br4 Rh0 2.533199 1_555
Br4 K6 3.286892 1_555
Br4 K7 3.286892 1_555
Br4 K8 3.476974 1_555
Br4 K9 3.476974 1_555
Br5 Rh1 2.533199 1_655
Br5 K4 3.286892 1_554
Br5 K5 3.286892 1_545
Br5 K11 3.476974 1_544
Br5 K10 3.476974 1_555
Br6 Rh0 2.533199 1_655
Br6 K2 3.286892 1_555
Br6 K3 3.286892 1_555
Br6 K13 3.476974 1_555
Br6 K12 3.476974 1_555
Br7 Rh1 2.533199 1_555
Br7 K1 3.286892 1_554
Br7 K0 3.286892 1_545
Br7 K14 3.476974 1_544
Br7 K15 3.476974 1_555
Br8 Rh0 2.527310 1_555
Br8 K2 3.398065 1_455
Br8 K7 3.398065 1_555
Br8 K13 3.633359 1_455
Br8 K8 3.633359 1_555
Br9 Rh0 2.527310 1_555
Br9 K3 3.398065 1_455
Br9 K6 3.398065 1_555
Br9 K12 3.633359 1_455
Br9 K9 3.633359 1_555
Br10 Rh1 2.527310 1_555
Br10 K5 3.398065 1_445
Br10 K0 3.398065 1_545
Br10 K10 3.633359 1_455
Br10 K15 3.633359 1_555
Br11 Rh1 2.527310 1_566
Br11 K4 3.398065 1_465
Br11 K1 3.398065 1_565
Br11 K14 3.633359 1_555
Br11 K11 3.633359 1_455
Br12 Rh2 2.566055 1_555
Br12 K13 3.342529 1_555
Br12 K8 3.342529 1_555
Br12 K5 3.418726 1_555
Br12 K0 3.418726 1_555
Br13 Rh3 2.566055 1_555
Br13 K12 3.342529 1_555
Br13 K9 3.342529 1_555
Br13 K1 3.418726 1_555
Br13 K4 3.418726 1_555
Br14 Rh4 2.566055 1_555
Br14 K10 3.342529 1_555
Br14 K15 3.342529 1_555
Br14 K7 3.418726 1_555
Br14 K2 3.418726 1_555
Br15 Rh5 2.566055 1_555
Br15 K11 3.342529 1_555
Br15 K14 3.342529 1_555
Br15 K6 3.418726 1_555
Br15 K3 3.418726 1_555
Br16 Rh2 2.529285 1_555
Br16 K0 3.392441 1_555
Br16 K8 3.742321 1_555
Br17 Rh3 2.529285 1_555
Br17 K1 3.392441 1_555
Br17 K9 3.742321 1_555
Br18 Rh4 2.529285 1_555
Br18 K2 3.392441 1_555
Br18 K10 3.742321 1_555
Br19 Rh5 2.529285 1_555
Br19 K3 3.392441 1_555
Br19 K11 3.742321 1_555
Br20 Rh3 2.529285 1_555
Br20 K4 3.392441 1_555
Br20 K12 3.742321 1_555
Br21 Rh2 2.529285 1_555
Br21 K5 3.392441 1_555
Br21 K13 3.742321 1_555
Br22 Rh5 2.529285 1_555
Br22 K6 3.392441 1_555
Br22 K14 3.742321 1_555
Br23 Rh4 2.529285 1_555
Br23 K7 3.392441 1_555
Br23 K15 3.742321 1_555
Br24 Rh2 2.531044 1_555
Br24 K7 3.432791 1_555
Br24 K2 3.432791 1_555
Br24 K8 3.755280 1_555
Br24 K13 3.755280 1_555
Br25 Rh3 2.531044 1_555
Br25 K6 3.432791 1_555
Br25 K3 3.432791 1_555
Br25 K12 3.755280 1_555
Br25 K9 3.755280 1_555
Br26 Rh4 2.531044 1_555
Br26 K0 3.432791 1_545
Br26 K5 3.432791 1_545
Br26 K15 3.755280 1_555
Br26 K10 3.755280 1_555
Br27 Rh5 2.531044 1_555
Br27 K4 3.432791 1_565
Br27 K1 3.432791 1_565
Br27 K11 3.755280 1_555
Br27 K14 3.755280 1_555
Br28 Rh2 2.518452 1_555
Br28 K5 3.304128 1_555
Br28 K0 3.304128 1_555
Br28 K11 3.409887 1_554
Br28 K14 3.409887 1_554
Br29 Rh3 2.518452 1_555
Br29 K4 3.304128 1_555
Br29 K1 3.304128 1_555
Br29 K10 3.409887 1_556
Br29 K15 3.409887 1_556
Br30 Rh4 2.518452 1_555
Br30 K7 3.304128 1_555
Br30 K2 3.304128 1_555
Br30 K12 3.409887 1_555
Br30 K9 3.409887 1_555
Br31 Rh5 2.518452 1_555
Br31 K6 3.304128 1_555
Br31 K3 3.304128 1_555
Br31 K13 3.409887 1_555
Br31 K8 3.409887 1_555
Br32 O10 1.690629 1_555
Br32 O7 1.690629 1_555
Br32 Rh2 2.490549 1_555
Br33 O11 1.690629 1_555
Br33 O6 1.690629 1_555
Br33 Rh3 2.490549 1_555
Br34 O8 1.690629 1_555
Br34 O5 1.690629 1_555
Br34 Rh4 2.490549 1_555
Br35 O9 1.690629 1_555
Br35 O4 1.690629 1_555
Br35 Rh5 2.490549 1_555
O0 O17 1.470077 1_455
O0 O12 1.470077 1_555
O1 O16 1.470077 1_455
O1 O13 1.470077 1_555
O12 O17 1.452982 1_455
O13 O16 1.452982 1_455
O14 O19 1.452982 1_655
O14 O2 1.470077 1_655
O15 O18 1.452982 1_655
O15 O3 1.470077 1_655
O18 O3 1.470077 1_555
O19 O2 1.470077 1_555
