# generated using pymatgen
data_Lu2GeO5
_symmetry_space_group_name_H-M   'P 1'
_cell_length_a   8.03012786
_cell_length_b   8.03012786
_cell_length_c   10.18153168
_cell_angle_alpha   61.38978615
_cell_angle_beta   61.38978615
_cell_angle_gamma   49.15488320
_symmetry_Int_Tables_number   1
_chemical_formula_structural   Lu2GeO5
_chemical_formula_sum   'Lu8 Ge4 O20'
_cell_volume   422.22787577
_cell_formula_units_Z   4
loop_
 _symmetry_equiv_pos_site_id
 _symmetry_equiv_pos_as_xyz
  1  'x, y, z'
loop_
 _atom_site_type_symbol
 _atom_site_label
 _atom_site_symmetry_multiplicity
 _atom_site_fract_x
 _atom_site_fract_y
 _atom_site_fract_z
 _atom_site_occupancy
  Lu  Lu0  1  0.76416085  0.50861442  0.66102895  1
  Lu  Lu1  1  0.22307915  0.70564556  0.96764441  1
  Lu  Lu2  1  0.29435444  0.77692085  0.53235559  1
  Lu  Lu3  1  0.50861442  0.76416085  0.16102895  1
  Lu  Lu4  1  0.49138558  0.23583915  0.83897105  1
  Lu  Lu5  1  0.70564556  0.22307915  0.46764441  1
  Lu  Lu6  1  0.77692085  0.29435444  0.03235559  1
  Lu  Lu7  1  0.23583915  0.49138558  0.33897105  1
  Ge  Ge0  1  0.71736920  0.91037349  0.30869986  1
  Ge  Ge1  1  0.08962651  0.28263080  0.19130014  1
  Ge  Ge2  1  0.91037349  0.71736920  0.80869986  1
  Ge  Ge3  1  0.28263080  0.08962651  0.69130014  1
  O  O0  1  0.90697281  0.92766685  0.12927090  1
  O  O1  1  0.12714769  0.28346938  0.55193485  1
  O  O2  1  0.41918113  0.81600402  0.67114576  1
  O  O3  1  0.14996968  0.46357449  0.17695668  1
  O  O4  1  0.53642551  0.85003032  0.32304332  1
  O  O5  1  0.58291319  0.38362496  0.89736635  1
  O  O6  1  0.61637504  0.41708681  0.60263365  1
  O  O7  1  0.07233315  0.09302719  0.37072910  1
  O  O8  1  0.28346938  0.12714769  0.05193485  1
  O  O9  1  0.18399598  0.58081887  0.82885424  1
  O  O10  1  0.81600402  0.41918113  0.17114576  1
  O  O11  1  0.71653062  0.87285231  0.94806515  1
  O  O12  1  0.92766685  0.90697281  0.62927090  1
  O  O13  1  0.38362496  0.58291319  0.39736635  1
  O  O14  1  0.41708681  0.61637504  0.10263365  1
  O  O15  1  0.46357449  0.14996968  0.67695668  1
  O  O16  1  0.85003032  0.53642551  0.82304332  1
  O  O17  1  0.58081887  0.18399598  0.32885424  1
  O  O18  1  0.87285231  0.71653062  0.44806515  1
  O  O19  1  0.09302719  0.07233315  0.87072910  1
loop_
_geom_bond_atom_site_label_1
_geom_bond_atom_site_label_2
_geom_bond_distance
_geom_bond_site_symmetry_2
Lu0 O6 2.130063 1_555
Lu0 O2 2.191712 1_555
Lu0 O18 2.208502 1_555
Lu0 O16 2.211318 1_555
Lu0 O1 2.219923 1_655
Lu0 O5 2.271480 1_555
Lu1 O14 2.115694 1_556
Lu1 O19 2.217349 1_565
Lu1 O3 2.234299 1_556
Lu1 O0 2.284661 1_456
Lu1 O9 2.300618 1_555
Lu1 O5 2.359327 1_555
Lu1 O2 2.662501 1_555
Lu2 O13 2.115694 1_555
Lu2 O12 2.217349 1_455
Lu2 O4 2.234299 1_555
Lu2 O7 2.284661 1_565
Lu2 O2 2.300618 1_555
Lu2 O6 2.359327 1_555
Lu2 O9 2.662501 1_555
Lu3 O14 2.130063 1_555
Lu3 O10 2.191712 1_555
Lu3 O11 2.208502 1_554
Lu3 O4 2.211318 1_555
Lu3 O8 2.219923 1_565
Lu3 O13 2.271480 1_555
Lu4 O5 2.130063 1_555
Lu4 O9 2.191712 1_555
Lu4 O8 2.208502 1_556
Lu4 O15 2.211318 1_555
Lu4 O11 2.219923 1_545
Lu4 O6 2.271480 1_555
Lu5 O6 2.115694 1_555
Lu5 O7 2.217349 1_655
Lu5 O15 2.234299 1_555
Lu5 O12 2.284661 1_545
Lu5 O17 2.300618 1_555
Lu5 O13 2.359327 1_555
Lu5 O10 2.662501 1_555
Lu6 O5 2.115694 1_554
Lu6 O0 2.217349 1_545
Lu6 O16 2.234299 1_554
Lu6 O19 2.284661 1_654
Lu6 O10 2.300618 1_555
Lu6 O14 2.359327 1_555
Lu6 O17 2.662501 1_555
Lu7 O13 2.130063 1_555
Lu7 O17 2.191712 1_555
Lu7 O1 2.208502 1_555
Lu7 O3 2.211318 1_555
Lu7 O18 2.219923 1_455
Lu7 O14 2.271480 1_555
Ge0 O4 1.737038 1_555
Ge0 O18 1.741991 1_555
Ge0 O0 1.744888 1_555
Ge0 O17 1.771194 1_565
Ge1 O3 1.737038 1_555
Ge1 O8 1.741991 1_555
Ge1 O7 1.744888 1_555
Ge1 O10 1.771194 1_455
Ge2 O16 1.737038 1_555
Ge2 O11 1.741991 1_555
Ge2 O12 1.744888 1_555
Ge2 O9 1.771194 1_655
Ge3 O15 1.737038 1_555
Ge3 O1 1.741991 1_555
Ge3 O19 1.744888 1_555
Ge3 O2 1.771194 1_545
