# generated using pymatgen
data_Na5Co2As(CO4)4
_symmetry_space_group_name_H-M   'P 1'
_cell_length_a   10.00958724
_cell_length_b   10.00958724
_cell_length_c   9.90830843
_cell_angle_alpha   60.37775736
_cell_angle_beta   60.37775736
_cell_angle_gamma   90.75962414
_symmetry_Int_Tables_number   1
_chemical_formula_structural   Na5Co2As(CO4)4
_chemical_formula_sum   'Na10 Co4 As2 C8 O32'
_cell_volume   705.27421381
_cell_formula_units_Z   2
loop_
 _symmetry_equiv_pos_site_id
 _symmetry_equiv_pos_as_xyz
  1  'x, y, z'
loop_
 _atom_site_type_symbol
 _atom_site_label
 _atom_site_symmetry_multiplicity
 _atom_site_fract_x
 _atom_site_fract_y
 _atom_site_fract_z
 _atom_site_occupancy
  Na  Na0  1  0.08725800  0.91274200  0.25000000  1
  Na  Na1  1  0.09465200  0.34808000  0.82058100  1
  Na  Na2  1  0.09448200  0.34790800  0.23765600  1
  Na  Na3  1  0.34808000  0.09465200  0.32058100  1
  Na  Na4  1  0.65209200  0.90551800  0.26234400  1
  Na  Na5  1  0.34790800  0.09448200  0.73765600  1
  Na  Na6  1  0.65192000  0.90534800  0.67941900  1
  Na  Na7  1  0.90551800  0.65209200  0.76234400  1
  Na  Na8  1  0.90534800  0.65192000  0.17941900  1
  Na  Na9  1  0.91274200  0.08725800  0.75000000  1
  Co  Co0  1  0.50000000  0.00000000  0.00000000  1
  Co  Co1  1  0.50000000  0.50000000  0.50000000  1
  Co  Co2  1  0.50000000  0.50000000  0.00000000  1
  Co  Co3  1  0.00000000  0.50000000  0.50000000  1
  As  As0  1  0.12787700  0.87212300  0.75000000  1
  As  As1  1  0.87212300  0.12787700  0.25000000  1
  C  C0  1  0.28672700  0.71367700  0.42607300  1
  C  C1  1  0.35781800  0.28298300  0.93081300  1
  C  C2  1  0.71701700  0.64218200  0.56918700  1
  C  C3  1  0.71367700  0.28672700  0.92607300  1
  C  C4  1  0.28632300  0.71327300  0.07392700  1
  C  C5  1  0.28298300  0.35781800  0.43081300  1
  C  C6  1  0.64218200  0.71701700  0.06918700  1
  C  C7  1  0.71327300  0.28632300  0.57392700  1
  O  O0  1  0.14138400  0.68695300  0.46141000  1
  O  O1  1  0.35368700  0.31250400  0.79017700  1
  O  O2  1  0.31669000  0.59868700  0.53366000  1
  O  O3  1  0.35258600  0.13849100  0.04557000  1
  O  O4  1  0.39718200  0.85821200  0.28833900  1
  O  O5  1  0.05753800  0.94413300  0.60749000  1
  O  O6  1  0.04567300  0.66247800  0.89477300  1
  O  O7  1  0.35645200  0.39151000  0.96608700  1
  O  O8  1  0.68695300  0.14138400  0.96141000  1
  O  O9  1  0.60849000  0.64354800  0.53391300  1
  O  O10  1  0.05586700  0.94246200  0.89251000  1
  O  O11  1  0.33752200  0.95432700  0.60522700  1
  O  O12  1  0.14178800  0.60281800  0.21166100  1
  O  O13  1  0.31250400  0.35368700  0.29017700  1
  O  O14  1  0.86150900  0.64741400  0.45443000  1
  O  O15  1  0.59868700  0.31669000  0.03366000  1
  O  O16  1  0.13849100  0.35258600  0.54557000  1
  O  O17  1  0.40131300  0.68331000  0.96634000  1
  O  O18  1  0.68749600  0.64631300  0.70982300  1
  O  O19  1  0.85821200  0.39718200  0.78833900  1
  O  O20  1  0.66247800  0.04567300  0.39477300  1
  O  O21  1  0.94413300  0.05753800  0.10749000  1
  O  O22  1  0.31304700  0.85861600  0.03859000  1
  O  O23  1  0.39151000  0.35645200  0.46608700  1
  O  O24  1  0.64354800  0.60849000  0.03391300  1
  O  O25  1  0.94246200  0.05586700  0.39251000  1
  O  O26  1  0.95432700  0.33752200  0.10522700  1
  O  O27  1  0.60281800  0.14178800  0.71166100  1
  O  O28  1  0.64741400  0.86150900  0.95443000  1
  O  O29  1  0.68331000  0.40131300  0.46634000  1
  O  O30  1  0.64631300  0.68749600  0.20982300  1
  O  O31  1  0.85861600  0.31304700  0.53859000  1
loop_
_geom_bond_atom_site_label_1
_geom_bond_atom_site_label_2
_geom_bond_distance
_geom_bond_site_symmetry_2
Na0 O21 2.485671 1_465
Na0 O25 2.485671 1_465
Na0 O3 2.502105 1_565
Na0 O14 2.502105 1_455
Na0 O22 2.502709 1_555
Na0 O0 2.502709 1_555
Na1 O26 2.392439 1_456
Na1 O2 2.422893 1_555
Na1 O21 2.507190 1_456
Na1 O1 2.509724 1_555
Na1 O16 2.513083 1_555
Na1 O19 2.562766 1_455
Na2 O26 2.377262 1_455
Na2 O12 2.449216 1_555
Na2 O7 2.477994 1_554
Na2 O13 2.487109 1_555
Na2 O25 2.520901 1_455
Na2 O31 2.564565 1_455
Na3 O11 2.392439 1_545
Na3 O15 2.422893 1_555
Na3 O5 2.507190 1_545
Na3 O13 2.509724 1_555
Na3 O3 2.513083 1_555
Na3 O4 2.562766 1_545
Na4 O20 2.377262 1_565
Na4 O4 2.449216 1_555
Na4 O9 2.477994 1_555
Na4 O30 2.487109 1_555
Na4 O21 2.520901 1_565
Na4 O8 2.564565 1_564
Na5 O11 2.377262 1_545
Na5 O27 2.449216 1_555
Na5 O23 2.477994 1_555
Na5 O1 2.487109 1_555
Na5 O10 2.520901 1_545
Na5 O22 2.564565 1_546
Na6 O20 2.392439 1_565
Na6 O17 2.422893 1_555
Na6 O25 2.507190 1_565
Na6 O18 2.509724 1_555
Na6 O28 2.513083 1_555
Na6 O27 2.562766 1_565
Na7 O6 2.377262 1_655
Na7 O19 2.449216 1_555
Na7 O24 2.477994 1_556
Na7 O18 2.487109 1_555
Na7 O5 2.520901 1_655
Na7 O0 2.564565 1_655
Na8 O6 2.392439 1_654
Na8 O29 2.422893 1_555
Na8 O10 2.507190 1_654
Na8 O30 2.509724 1_555
Na8 O14 2.513083 1_555
Na8 O12 2.562766 1_655
Na9 O10 2.485671 1_645
Na9 O5 2.485671 1_645
Na9 O16 2.502105 1_655
Na9 O28 2.502105 1_545
Na9 O8 2.502709 1_555
Na9 O31 2.502709 1_555
Co0 O4 2.069281 1_545
Co0 O27 2.069281 1_554
Co0 O3 2.077776 1_555
Co0 O28 2.077776 1_544
Co0 O8 2.082870 1_554
Co0 O22 2.082870 1_545
Co1 O9 2.037982 1_555
Co1 O23 2.037982 1_555
Co1 O2 2.054873 1_555
Co1 O29 2.054873 1_555
Co1 O1 2.088999 1_555
Co1 O30 2.088999 1_555
Co2 O7 2.037982 1_554
Co2 O24 2.037982 1_555
Co2 O17 2.054873 1_554
Co2 O15 2.054873 1_555
Co2 O13 2.088999 1_555
Co2 O18 2.088999 1_554
Co3 O12 2.069281 1_555
Co3 O19 2.069281 1_455
Co3 O16 2.077776 1_555
Co3 O14 2.077776 1_455
Co3 O31 2.082870 1_455
Co3 O0 2.082870 1_555
As0 O6 1.717541 1_555
As0 O11 1.717541 1_555
As0 O5 1.731817 1_555
As0 O10 1.731817 1_555
As1 O26 1.717541 1_555
As1 O20 1.717541 1_555
As1 O21 1.731817 1_555
As1 O25 1.731817 1_555
C0 O2 1.289727 1_555
C0 O4 1.300800 1_555
C0 O0 1.305451 1_555
C1 O7 1.293603 1_555
C1 O1 1.296536 1_555
C1 O3 1.304163 1_556
C2 O9 1.293603 1_555
C2 O18 1.296536 1_555
C2 O14 1.304163 1_555
C3 O15 1.289727 1_556
C3 O19 1.300800 1_555
C3 O8 1.305451 1_555
C4 O17 1.289727 1_554
C4 O12 1.300800 1_555
C4 O22 1.305451 1_555
C5 O23 1.293603 1_555
C5 O13 1.296536 1_555
C5 O16 1.304163 1_555
C6 O24 1.293603 1_555
C6 O30 1.296536 1_555
C6 O28 1.304163 1_554
C7 O29 1.289727 1_555
C7 O27 1.300800 1_555
C7 O31 1.305451 1_555
