# generated using pymatgen
data_Sr4(RuO4)3
_symmetry_space_group_name_H-M   'P 1'
_cell_length_a   5.57647900
_cell_length_b   9.79350400
_cell_length_c   18.33263500
_cell_angle_alpha   90.00000000
_cell_angle_beta   90.00000000
_cell_angle_gamma   90.00000000
_symmetry_Int_Tables_number   1
_chemical_formula_structural   Sr4(RuO4)3
_chemical_formula_sum   'Sr16 Ru12 O48'
_cell_volume   1001.20513393
_cell_formula_units_Z   4
loop_
 _symmetry_equiv_pos_site_id
 _symmetry_equiv_pos_as_xyz
  1  'x, y, z'
loop_
 _atom_site_type_symbol
 _atom_site_label
 _atom_site_symmetry_multiplicity
 _atom_site_fract_x
 _atom_site_fract_y
 _atom_site_fract_z
 _atom_site_occupancy
  Sr  Sr0  1  0.75000000  0.08492100  0.74841200  1
  Sr  Sr1  1  0.75000000  0.74920600  0.49300400  1
  Sr  Sr2  1  0.75000000  0.75079400  0.99300400  1
  Sr  Sr3  1  0.75000000  0.09858900  0.13750900  1
  Sr  Sr4  1  0.75000000  0.41507900  0.24841200  1
  Sr  Sr5  1  0.75000000  0.06528200  0.36530800  1
  Sr  Sr6  1  0.75000000  0.40141100  0.63750900  1
  Sr  Sr7  1  0.75000000  0.43471800  0.86530800  1
  Sr  Sr8  1  0.25000000  0.58492100  0.75158800  1
  Sr  Sr9  1  0.25000000  0.25079400  0.50699600  1
  Sr  Sr10  1  0.25000000  0.91507900  0.25158800  1
  Sr  Sr11  1  0.25000000  0.24920600  0.00699600  1
  Sr  Sr12  1  0.25000000  0.56528200  0.13469200  1
  Sr  Sr13  1  0.25000000  0.59858900  0.36249100  1
  Sr  Sr14  1  0.25000000  0.93471800  0.63469200  1
  Sr  Sr15  1  0.25000000  0.90141100  0.86249100  1
  Ru  Ru0  1  0.75000000  0.08502900  0.56283200  1
  Ru  Ru1  1  0.75000000  0.08283400  0.93718400  1
  Ru  Ru2  1  0.75000000  0.74933500  0.69290800  1
  Ru  Ru3  1  0.75000000  0.75066500  0.19290800  1
  Ru  Ru4  1  0.75000000  0.41497100  0.06283200  1
  Ru  Ru5  1  0.75000000  0.41716600  0.43718400  1
  Ru  Ru6  1  0.25000000  0.58283400  0.56281600  1
  Ru  Ru7  1  0.25000000  0.58502900  0.93716800  1
  Ru  Ru8  1  0.25000000  0.91716600  0.06281600  1
  Ru  Ru9  1  0.25000000  0.91497100  0.43716800  1
  Ru  Ru10  1  0.25000000  0.25066500  0.30709200  1
  Ru  Ru11  1  0.25000000  0.24933500  0.80709200  1
  O  O0  1  0.75000000  0.58160100  0.74161900  1
  O  O1  1  0.75000000  0.91617300  0.62401500  1
  O  O2  1  0.75000000  0.92761800  0.87805700  1
  O  O3  1  0.75000000  0.24853600  0.50262500  1
  O  O4  1  0.00000000  0.50000000  0.50000000  1
  O  O5  1  0.00000000  0.00000000  0.00000000  1
  O  O6  1  0.99181000  0.15874700  0.62192200  1
  O  O7  1  0.99181000  0.34125300  0.12192200  1
  O  O8  1  0.00003500  0.82940000  0.74406300  1
  O  O9  1  0.00003500  0.67060000  0.24406300  1
  O  O10  1  0.00819000  0.84125300  0.37807800  1
  O  O11  1  0.00819000  0.65874700  0.87807800  1
  O  O12  1  0.99843000  0.16867700  0.87847100  1
  O  O13  1  0.99843000  0.33132300  0.37847100  1
  O  O14  1  0.99996500  0.32940000  0.75593700  1
  O  O15  1  0.99996500  0.17060000  0.25593700  1
  O  O16  1  0.00157000  0.83132300  0.12152900  1
  O  O17  1  0.00157000  0.66867700  0.62152900  1
  O  O18  1  0.00000000  0.00000000  0.50000000  1
  O  O19  1  0.00000000  0.50000000  0.00000000  1
  O  O20  1  0.25000000  0.74853600  0.99737500  1
  O  O21  1  0.25000000  0.08382700  0.37598500  1
  O  O22  1  0.25000000  0.07238200  0.12194300  1
  O  O23  1  0.25000000  0.41839900  0.25838100  1
  O  O24  1  0.25000000  0.08160100  0.75838100  1
  O  O25  1  0.25000000  0.42761800  0.62194300  1
  O  O26  1  0.25000000  0.41617300  0.87598500  1
  O  O27  1  0.25000000  0.75146400  0.49737500  1
  O  O28  1  0.50000000  0.00000000  0.50000000  1
  O  O29  1  0.50000000  0.50000000  0.00000000  1
  O  O30  1  0.49843000  0.66867700  0.62152900  1
  O  O31  1  0.49843000  0.83132300  0.12152900  1
  O  O32  1  0.50003500  0.32940000  0.75593700  1
  O  O33  1  0.50003500  0.17060000  0.25593700  1
  O  O34  1  0.50157000  0.16867700  0.87847100  1
  O  O35  1  0.50157000  0.33132300  0.37847100  1
  O  O36  1  0.49181000  0.65874700  0.87807800  1
  O  O37  1  0.49181000  0.84125300  0.37807800  1
  O  O38  1  0.49996500  0.82940000  0.74406300  1
  O  O39  1  0.49996500  0.67060000  0.24406300  1
  O  O40  1  0.50819000  0.15874700  0.62192200  1
  O  O41  1  0.50819000  0.34125300  0.12192200  1
  O  O42  1  0.50000000  0.00000000  0.00000000  1
  O  O43  1  0.50000000  0.50000000  0.50000000  1
  O  O44  1  0.75000000  0.25146400  0.00262500  1
  O  O45  1  0.75000000  0.57238200  0.37805700  1
  O  O46  1  0.75000000  0.58382700  0.12401500  1
  O  O47  1  0.75000000  0.91839900  0.24161900  1
loop_
_geom_bond_atom_site_label_1
_geom_bond_atom_site_label_2
_geom_bond_distance
_geom_bond_site_symmetry_2
O0 Ru2 1.869740 1_555
O0 Sr6 2.599410 1_555
O0 Sr7 2.685338 1_555
O0 Sr8 2.794412 1_655
O0 Sr8 2.794412 1_555
O1 Ru0 1.998196 1_565
O1 Ru2 2.065155 1_555
O1 Sr14 2.800996 1_555
O1 Sr14 2.800996 1_655
O1 Sr0 2.816379 1_565
O1 Sr1 2.905578 1_555
O2 Ru1 1.866999 1_565
O2 Sr2 2.727547 1_555
O2 Sr15 2.814531 1_655
O2 Sr15 2.814531 1_555
O2 Sr0 2.832341 1_565
O3 Ru0 1.944853 1_555
O3 Ru5 2.041244 1_555
O3 Sr9 2.789478 1_655
O3 Sr9 2.789478 1_555
O3 Sr6 2.890708 1_555
O3 Sr5 3.091627 1_555
O4 Ru6 1.981872 1_555
O4 Ru5 1.981872 1_455
O4 Sr1 2.813636 1_455
O4 Sr9 2.813636 1_555
O4 Sr13 3.038218 1_555
O4 Sr6 3.038218 1_455
O5 Ru8 1.981872 1_545
O5 Ru1 1.981872 1_454
O5 Sr11 2.813636 1_555
O5 Sr2 2.813636 1_444
O5 Sr3 3.038218 1_455
O5 Sr15 3.038218 1_544
O6 Ru0 1.874306 1_555
O6 Sr14 2.634686 1_645
O6 Sr9 2.706408 1_655
O6 Sr6 2.747338 1_555
O6 Sr0 2.778190 1_555
O7 Ru4 1.874306 1_555
O7 Sr12 2.634686 1_655
O7 Sr11 2.706408 1_655
O7 Sr3 2.747338 1_555
O7 Sr4 2.778190 1_555
O8 Ru2 1.854301 1_455
O8 Sr14 2.650875 1_555
O8 Sr15 2.674706 1_555
O8 Sr8 2.773943 1_555
O8 Sr0 2.865782 1_465
O9 Ru3 1.854301 1_455
O9 Sr12 2.650875 1_555
O9 Sr13 2.674706 1_555
O9 Sr10 2.773943 1_555
O9 Sr4 2.865782 1_455
O10 Ru9 1.874306 1_555
O10 Sr5 2.634686 1_465
O10 Sr1 2.706408 1_455
O10 Sr13 2.747338 1_555
O10 Sr10 2.778190 1_555
O11 Ru7 1.874306 1_555
O11 Sr7 2.634686 1_455
O11 Sr2 2.706408 1_455
O11 Sr15 2.747338 1_555
O11 Sr8 2.778190 1_555
O12 Ru1 1.945399 1_555
O12 Ru11 2.074700 1_655
O12 Sr11 2.853372 1_656
O12 Sr0 2.876990 1_555
O12 Sr7 2.960736 1_555
O12 Sr15 2.984130 1_645
O13 Ru5 1.945399 1_555
O13 Ru10 2.074700 1_655
O13 Sr9 2.853372 1_655
O13 Sr4 2.876990 1_555
O13 Sr5 2.960736 1_555
O13 Sr13 2.984130 1_655
O14 Ru11 1.854301 1_655
O14 Sr7 2.650875 1_555
O14 Sr6 2.674706 1_555
O14 Sr0 2.773943 1_555
O14 Sr8 2.865782 1_655
O15 Ru10 1.854301 1_655
O15 Sr5 2.650875 1_555
O15 Sr3 2.674706 1_555
O15 Sr4 2.773943 1_555
O15 Sr10 2.865782 1_645
O16 Ru8 1.945399 1_555
O16 Ru3 2.074700 1_455
O16 Sr2 2.853372 1_454
O16 Sr10 2.876990 1_555
O16 Sr12 2.960736 1_555
O16 Sr3 2.984130 1_465
O17 Ru6 1.945399 1_555
O17 Ru2 2.074700 1_455
O17 Sr1 2.853372 1_455
O17 Sr8 2.876990 1_555
O17 Sr14 2.960736 1_555
O17 Sr6 2.984130 1_455
O18 Ru0 1.990937 1_455
O18 Ru9 1.990937 1_545
O18 Sr9 2.827137 1_555
O18 Sr1 2.827137 1_445
O18 Sr14 2.906814 1_545
O18 Sr5 2.906814 1_455
O19 Ru7 1.990937 1_554
O19 Ru4 1.990937 1_455
O19 Sr2 2.827137 1_454
O19 Sr11 2.827137 1_555
O19 Sr12 2.906814 1_555
O19 Sr7 2.906814 1_454
O20 Ru7 1.944853 1_555
O20 Ru8 2.041244 1_556
O20 Sr2 2.789478 1_455
O20 Sr2 2.789478 1_555
O20 Sr15 2.890708 1_555
O20 Sr12 3.091627 1_556
O21 Ru9 1.998196 1_545
O21 Ru10 2.065155 1_555
O21 Sr5 2.800996 1_455
O21 Sr5 2.800996 1_555
O21 Sr10 2.816379 1_545
O21 Sr9 2.905578 1_555
O22 Ru8 1.866999 1_545
O22 Sr11 2.727547 1_555
O22 Sr3 2.814531 1_455
O22 Sr3 2.814531 1_555
O22 Sr10 2.832341 1_545
O23 Ru10 1.869740 1_555
O23 Sr13 2.599410 1_555
O23 Sr12 2.685338 1_555
O23 Sr4 2.794412 1_455
O23 Sr4 2.794412 1_555
O24 Ru11 1.869740 1_555
O24 Sr15 2.599410 1_545
O24 Sr14 2.685338 1_545
O24 Sr0 2.794412 1_555
O24 Sr0 2.794412 1_455
O25 Ru6 1.866999 1_555
O25 Sr9 2.727547 1_555
O25 Sr6 2.814531 1_455
O25 Sr6 2.814531 1_555
O25 Sr8 2.832341 1_555
O26 Ru7 1.998196 1_555
O26 Ru11 2.065155 1_555
O26 Sr7 2.800996 1_455
O26 Sr7 2.800996 1_555
O26 Sr8 2.816379 1_555
O26 Sr11 2.905578 1_556
O27 Ru9 1.944853 1_555
O27 Ru6 2.041244 1_555
O27 Sr1 2.789478 1_455
O27 Sr1 2.789478 1_555
O27 Sr13 2.890708 1_555
O27 Sr14 3.091627 1_555
O28 Ru0 1.990937 1_555
O28 Ru9 1.990937 1_545
O28 Sr9 2.827137 1_555
O28 Sr1 2.827137 1_545
O28 Sr14 2.906814 1_545
O28 Sr5 2.906814 1_555
O29 Ru7 1.990937 1_554
O29 Ru4 1.990937 1_555
O29 Sr2 2.827137 1_554
O29 Sr11 2.827137 1_555
O29 Sr12 2.906814 1_555
O29 Sr7 2.906814 1_554
O30 Ru6 1.945399 1_555
O30 Ru2 2.074700 1_555
O30 Sr1 2.853372 1_555
O30 Sr8 2.876990 1_555
O30 Sr14 2.960736 1_555
O30 Sr6 2.984130 1_555
O31 Ru8 1.945399 1_555
O31 Ru3 2.074700 1_555
O31 Sr2 2.853372 1_554
O31 Sr10 2.876990 1_555
O31 Sr12 2.960736 1_555
O31 Sr3 2.984130 1_565
O32 Ru11 1.854301 1_555
O32 Sr7 2.650875 1_555
O32 Sr6 2.674706 1_555
O32 Sr0 2.773943 1_555
O32 Sr8 2.865782 1_555
O33 Ru10 1.854301 1_555
O33 Sr5 2.650875 1_555
O33 Sr3 2.674706 1_555
O33 Sr4 2.773943 1_555
O33 Sr10 2.865782 1_545
O34 Ru1 1.945399 1_555
O34 Ru11 2.074700 1_555
O34 Sr11 2.853372 1_556
O34 Sr0 2.876990 1_555
O34 Sr7 2.960736 1_555
O34 Sr15 2.984130 1_545
O35 Ru5 1.945399 1_555
O35 Ru10 2.074700 1_555
O35 Sr9 2.853372 1_555
O35 Sr4 2.876990 1_555
O35 Sr5 2.960736 1_555
O35 Sr13 2.984130 1_555
O36 Ru7 1.874306 1_555
O36 Sr7 2.634686 1_555
O36 Sr2 2.706408 1_555
O36 Sr15 2.747338 1_555
O36 Sr8 2.778190 1_555
O37 Ru9 1.874306 1_555
O37 Sr5 2.634686 1_565
O37 Sr1 2.706408 1_555
O37 Sr13 2.747338 1_555
O37 Sr10 2.778190 1_555
O38 Ru2 1.854301 1_555
O38 Sr14 2.650875 1_555
O38 Sr15 2.674706 1_555
O38 Sr8 2.773943 1_555
O38 Sr0 2.865782 1_565
O39 Ru3 1.854301 1_555
O39 Sr12 2.650875 1_555
O39 Sr13 2.674706 1_555
O39 Sr10 2.773943 1_555
O39 Sr4 2.865782 1_555
O40 Ru0 1.874306 1_555
O40 Sr14 2.634686 1_545
O40 Sr9 2.706408 1_555
O40 Sr6 2.747338 1_555
O40 Sr0 2.778190 1_555
O41 Ru4 1.874306 1_555
O41 Sr12 2.634686 1_555
O41 Sr11 2.706408 1_555
O41 Sr3 2.747338 1_555
O41 Sr4 2.778190 1_555
O42 Ru8 1.981872 1_545
O42 Ru1 1.981872 1_554
O42 Sr11 2.813636 1_555
O42 Sr2 2.813636 1_544
O42 Sr15 3.038218 1_544
O42 Sr3 3.038218 1_555
O43 Ru6 1.981872 1_555
O43 Ru5 1.981872 1_555
O43 Sr1 2.813636 1_555
O43 Sr9 2.813636 1_555
O43 Sr13 3.038218 1_555
O43 Sr6 3.038218 1_555
O44 Ru4 1.944853 1_555
O44 Ru1 2.041244 1_554
O44 Sr11 2.789478 1_555
O44 Sr11 2.789478 1_655
O44 Sr3 2.890708 1_555
O44 Sr7 3.091627 1_554
O45 Ru5 1.866999 1_555
O45 Sr1 2.727547 1_555
O45 Sr13 2.814531 1_555
O45 Sr13 2.814531 1_655
O45 Sr4 2.832341 1_555
O46 Ru4 1.998196 1_555
O46 Ru3 2.065155 1_555
O46 Sr12 2.800996 1_655
O46 Sr12 2.800996 1_555
O46 Sr4 2.816379 1_555
O46 Sr2 2.905578 1_554
O47 Ru3 1.869740 1_555
O47 Sr3 2.599410 1_565
O47 Sr5 2.685338 1_565
O47 Sr10 2.794412 1_655
O47 Sr10 2.794412 1_555
