# generated using pymatgen
data_Li4Mn3Nb2Sn3O16
_symmetry_space_group_name_H-M   'P 1'
_cell_length_a   6.28107844
_cell_length_b   6.28107844
_cell_length_c   10.00688808
_cell_angle_alpha   89.56636794
_cell_angle_beta   89.56636794
_cell_angle_gamma   59.46384355
_symmetry_Int_Tables_number   1
_chemical_formula_structural   Li4Mn3Nb2Sn3O16
_chemical_formula_sum   'Li4 Mn3 Nb2 Sn3 O16'
_cell_volume   340.02419277
_cell_formula_units_Z   1
loop_
 _symmetry_equiv_pos_site_id
 _symmetry_equiv_pos_as_xyz
  1  'x, y, z'
loop_
 _atom_site_type_symbol
 _atom_site_label
 _atom_site_symmetry_multiplicity
 _atom_site_fract_x
 _atom_site_fract_y
 _atom_site_fract_z
 _atom_site_occupancy
  Li  Li0  1  0.66971400  0.66971400  0.09716400  1
  Li  Li1  1  0.99521800  0.99521800  0.01597900  1
  Li  Li2  1  0.99907800  0.99907800  0.50522300  1
  Li  Li3  1  0.32713500  0.32713500  0.59467300  1
  Mn  Mn0  1  0.82924700  0.82924700  0.78674100  1
  Mn  Mn1  1  0.17192600  0.66246400  0.29002000  1
  Mn  Mn2  1  0.66246400  0.17192600  0.29002000  1
  Nb  Nb0  1  0.67468000  0.67468000  0.50353500  1
  Nb  Nb1  1  0.34967100  0.34967100  0.01978400  1
  Sn  Sn0  1  0.33771200  0.83181700  0.78545800  1
  Sn  Sn1  1  0.83181700  0.33771200  0.78545800  1
  Sn  Sn2  1  0.17288400  0.17288400  0.28320700  1
  O  O0  1  0.34618200  0.83694500  0.41171200  1
  O  O1  1  0.51451900  0.51451900  0.66087600  1
  O  O2  1  0.65943700  0.65943700  0.89785600  1
  O  O3  1  0.00156800  0.00156800  0.68870500  1
  O  O4  1  0.00631400  0.00631400  0.19907600  1
  O  O5  1  0.83694500  0.34618200  0.41171200  1
  O  O6  1  0.50939600  0.95351800  0.65106000  1
  O  O7  1  0.95351800  0.50939600  0.65106000  1
  O  O8  1  0.15928300  0.15928300  0.90149200  1
  O  O9  1  0.82893700  0.82893700  0.41967800  1
  O  O10  1  0.04150300  0.47265400  0.14476200  1
  O  O11  1  0.47265400  0.04150300  0.14476200  1
  O  O12  1  0.32735100  0.32735100  0.39414100  1
  O  O13  1  0.17622700  0.66156400  0.90899100  1
  O  O14  1  0.48194400  0.48194400  0.14008100  1
  O  O15  1  0.66156400  0.17622700  0.90899100  1
loop_
_geom_bond_atom_site_label_1
_geom_bond_atom_site_label_2
_geom_bond_distance
_geom_bond_site_symmetry_2
Li0 O2 1.998576 1_554
Li0 O11 2.069535 1_565
Li0 O10 2.069535 1_655
Li0 O14 2.089146 1_555
Li1 O4 1.837277 1_665
Li1 O15 2.103609 1_564
Li1 O13 2.103609 1_654
Li1 O8 2.116549 1_664
Li2 O3 1.836521 1_665
Li2 O9 2.050638 1_555
Li2 O5 2.096032 1_565
Li2 O0 2.096032 1_655
Li3 O12 2.006682 1_555
Li3 O6 2.096623 1_545
Li3 O7 2.096623 1_455
Li3 O1 2.154225 1_555
Mn0 O3 2.112757 1_665
Mn0 O2 2.152135 1_555
Mn0 O6 2.218245 1_555
Mn0 O7 2.218245 1_555
Mn0 O13 2.245888 1_655
Mn0 O15 2.245888 1_565
Mn1 O4 2.067956 1_565
Mn1 O12 2.088843 1_555
Mn1 O14 2.250914 1_555
Mn1 O9 2.259897 1_455
Mn1 O0 2.267429 1_555
Mn1 O10 2.289552 1_555
Mn2 O4 2.067956 1_655
Mn2 O12 2.088843 1_555
Mn2 O14 2.250914 1_555
Mn2 O9 2.259897 1_545
Mn2 O5 2.267429 1_555
Mn2 O11 2.289552 1_555
Nb0 O9 1.873775 1_555
Nb0 O5 2.004486 1_555
Nb0 O0 2.004486 1_555
Nb0 O7 2.119637 1_555
Nb0 O6 2.119637 1_555
Nb0 O1 2.341677 1_555
Nb1 O14 1.887150 1_555
Nb1 O13 2.017553 1_554
Nb1 O15 2.017553 1_554
Nb1 O11 2.089513 1_555
Nb1 O10 2.089513 1_555
Nb1 O8 2.399440 1_554
O0 Sn2 2.221937 1_565
O1 Sn0 2.127686 1_555
O1 Sn1 2.127686 1_555
O2 Sn1 2.076914 1_555
O2 Sn0 2.076914 1_555
O3 Sn0 2.063924 1_545
O3 Sn1 2.063924 1_455
O4 Sn2 2.009225 1_555
O5 Sn2 2.221937 1_655
O6 Sn0 2.087124 1_555
O7 Sn1 2.087124 1_555
O8 Sn1 2.123417 1_455
O8 Sn0 2.123417 1_545
O10 Sn2 2.131779 1_555
O11 Sn2 2.131779 1_555
O12 Sn2 2.025865 1_555
O13 Sn0 2.182593 1_555
O15 Sn1 2.182593 1_555
