# generated using pymatgen
data_Li6MnV3(PO4)6
_symmetry_space_group_name_H-M   'P 1'
_cell_length_a   9.06761078
_cell_length_b   8.48538042
_cell_length_c   14.64649091
_cell_angle_alpha   90.46677389
_cell_angle_beta   73.97662815
_cell_angle_gamma   62.10339497
_symmetry_Int_Tables_number   1
_chemical_formula_structural   Li6MnV3(PO4)6
_chemical_formula_sum   'Li12 Mn2 V6 P12 O48'
_cell_volume   944.69441787
_cell_formula_units_Z   2
loop_
 _symmetry_equiv_pos_site_id
 _symmetry_equiv_pos_as_xyz
  1  'x, y, z'
loop_
 _atom_site_type_symbol
 _atom_site_label
 _atom_site_symmetry_multiplicity
 _atom_site_fract_x
 _atom_site_fract_y
 _atom_site_fract_z
 _atom_site_occupancy
  Li  Li0  1  0.15016200  0.25523500  0.33182100  1
  Li  Li1  1  0.14895900  0.79600200  0.13138200  1
  Li  Li2  1  0.15137100  0.29423200  0.63115200  1
  Li  Li3  1  0.14995700  0.72482900  0.46101600  1
  Li  Li4  1  0.15013500  0.22596300  0.96124200  1
  Li  Li5  1  0.14940900  0.75501600  0.83199200  1
  Li  Li6  1  0.84983800  0.24476500  0.16817900  1
  Li  Li7  1  0.85004300  0.77517100  0.03898400  1
  Li  Li8  1  0.84986500  0.27403700  0.53875800  1
  Li  Li9  1  0.85104100  0.70399800  0.36861800  1
  Li  Li10  1  0.84862900  0.20576800  0.86884800  1
  Li  Li11  1  0.85059100  0.74498400  0.66800800  1
  Mn  Mn0  1  0.56065900  0.22330200  0.07271400  1
  Mn  Mn1  1  0.43934100  0.27669800  0.42728600  1
  V  V0  1  0.04629800  0.97602100  0.32610700  1
  V  V1  1  0.04515100  0.47802000  0.82574300  1
  V  V2  1  0.56577600  0.71816300  0.57156800  1
  V  V3  1  0.43422400  0.78183700  0.92843200  1
  V  V4  1  0.95370200  0.52397900  0.17389300  1
  V  V5  1  0.95484900  0.02198000  0.67425700  1
  P  P0  1  0.25092100  0.08483200  0.12532300  1
  P  P1  1  0.25122200  0.01865400  0.47919600  1
  P  P2  1  0.24917200  0.52197200  0.26920200  1
  P  P3  1  0.25021900  0.02053600  0.77010200  1
  P  P4  1  0.25234600  0.58372500  0.62390000  1
  P  P5  1  0.25014100  0.52130300  0.97797100  1
  P  P6  1  0.74877800  0.48134600  0.02080400  1
  P  P7  1  0.74907900  0.41516800  0.37467700  1
  P  P8  1  0.75082800  0.97802800  0.23079900  1
  P  P9  1  0.74978100  0.47946400  0.72989800  1
  P  P10  1  0.74985900  0.97869700  0.52202900  1
  P  P11  1  0.74765400  0.91627500  0.87610000  1
  O  O0  1  0.09862900  0.25922000  0.10454800  1
  O  O1  1  0.19123400  0.06729900  0.23323400  1
  O  O2  1  0.09656400  0.61614700  0.07749900  1
  O  O3  1  0.09732000  0.11549300  0.57813600  1
  O  O4  1  0.09891000  0.47725000  0.26671700  1
  O  O5  1  0.42173300  0.09012300  0.09922400  1
  O  O6  1  0.26355100  0.17679000  0.43172700  1
  O  O7  1  0.19375500  0.71933700  0.25097400  1
  O  O8  1  0.19456600  0.21801500  0.75317000  1
  O  O9  1  0.26135100  0.50322000  0.37143700  1
  O  O10  1  0.42379800  0.39062800  0.19298200  1
  O  O11  1  0.09823600  0.75737300  0.60445800  1
  O  O12  1  0.26507300  0.92650000  0.06214400  1
  O  O13  1  0.26976400  0.42358200  0.55977400  1
  O  O14  1  0.57620200  0.10937200  0.30701800  1
  O  O15  1  0.19393200  0.56520900  0.73132900  1
  O  O16  1  0.19326000  0.92295800  0.41684200  1
  O  O17  1  0.18976600  0.42670500  0.91586500  1
  O  O18  1  0.73864900  0.99678000  0.12856300  1
  O  O19  1  0.58021000  0.61489100  0.00291500  1
  O  O20  1  0.58079400  0.11322800  0.50680300  1
  O  O21  1  0.09691000  0.97864800  0.76882100  1
  O  O22  1  0.73644900  0.32321000  0.06827300  1
  O  O23  1  0.57826700  0.40987700  0.40077600  1
  O  O24  1  0.42082300  0.59321700  0.59867400  1
  O  O25  1  0.26246300  0.67998700  0.93145900  1
  O  O26  1  0.90109000  0.02275000  0.23328300  1
  O  O27  1  0.41979000  0.88510900  0.49708500  1
  O  O28  1  0.41920600  0.38677200  0.99319700  1
  O  O29  1  0.26551000  0.99839300  0.87259400  1
  O  O30  1  0.80674000  0.57704200  0.08315800  1
  O  O31  1  0.81023400  0.07329500  0.58413500  1
  O  O32  1  0.80876600  0.43270100  0.26676600  1
  O  O33  1  0.42045900  0.89025500  0.69359300  1
  O  O34  1  0.73492700  0.57350000  0.43785600  1
  O  O35  1  0.73023600  0.07641800  0.94022600  1
  O  O36  1  0.90137100  0.24078000  0.39545200  1
  O  O37  1  0.57954100  0.60974500  0.80640700  1
  O  O38  1  0.73449000  0.50160700  0.62740600  1
  O  O39  1  0.80624500  0.78066300  0.24902600  1
  O  O40  1  0.80543400  0.28198500  0.74683000  1
  O  O41  1  0.73753700  0.82001300  0.56854100  1
  O  O42  1  0.57917700  0.90678300  0.90132600  1
  O  O43  1  0.90309000  0.52135200  0.73117900  1
  O  O44  1  0.90343600  0.88385300  0.42250100  1
  O  O45  1  0.90268000  0.38450700  0.92186400  1
  O  O46  1  0.80606800  0.93479100  0.76867100  1
  O  O47  1  0.90176400  0.74262700  0.89554200  1
loop_
_geom_bond_atom_site_label_1
_geom_bond_atom_site_label_2
_geom_bond_distance
_geom_bond_site_symmetry_2
Li0 O6 1.961475 1_555
Li0 O1 1.968921 1_555
Li0 O4 2.031967 1_555
Li0 O36 2.252328 1_455
Li1 O7 1.954580 1_555
Li1 O12 1.970516 1_555
Li1 O2 2.010845 1_555
Li1 O26 2.244060 1_465
Li2 O8 1.983368 1_555
Li2 O13 1.987922 1_555
Li2 O3 2.007470 1_555
Li2 O43 2.236523 1_455
Li3 O9 1.930938 1_555
Li3 O16 1.973425 1_555
Li3 O11 2.008853 1_555
Li3 O44 2.240947 1_455
Li4 O29 1.956523 1_545
Li4 O17 1.982856 1_555
Li4 O0 2.007266 1_556
Li4 O45 2.253801 1_455
Li5 O25 1.951274 1_555
Li5 O15 1.988711 1_555
Li5 O21 2.027320 1_555
Li5 O47 2.233500 1_455
Li6 O22 1.961475 1_555
Li6 O32 1.968921 1_555
Li6 O26 2.031967 1_555
Li6 O0 2.252328 1_655
Li7 O18 1.930938 1_555
Li7 O30 1.973425 1_555
Li7 O47 2.008853 1_554
Li7 O2 2.240947 1_655
Li8 O38 1.956523 1_555
Li8 O31 1.982856 1_555
Li8 O36 2.007266 1_555
Li8 O3 2.253801 1_655
Li9 O39 1.954580 1_555
Li9 O34 1.970516 1_555
Li9 O44 2.010845 1_555
Li9 O4 2.244060 1_655
Li10 O40 1.983368 1_555
Li10 O35 1.987922 1_555
Li10 O45 2.007470 1_555
Li10 O21 2.236523 1_645
Li11 O41 1.951274 1_555
Li11 O46 1.988711 1_555
Li11 O43 2.027320 1_555
Li11 O11 2.233500 1_655
Mn0 O10 1.939720 1_555
Mn0 O5 2.020889 1_555
Mn0 O28 2.027750 1_554
Mn0 O35 2.050195 1_554
Mn0 O22 2.114689 1_555
Mn0 O18 2.195457 1_545
Mn1 O14 1.939720 1_555
Mn1 O23 2.020889 1_555
Mn1 O20 2.027750 1_555
Mn1 O13 2.050195 1_555
Mn1 O6 2.114689 1_555
Mn1 O9 2.195457 1_555
O0 P0 1.586304 1_555
O0 V4 2.066152 1_455
O1 P0 1.555645 1_555
O1 V0 2.039647 1_545
O2 P5 1.588528 1_554
O2 V4 2.058977 1_455
O3 P1 1.585493 1_555
O3 V5 2.062510 1_455
O4 P2 1.585173 1_555
O4 V4 2.061005 1_455
O5 P0 1.511817 1_555
O6 P1 1.552123 1_555
O7 P2 1.556383 1_555
O7 V0 2.041130 1_555
O8 P3 1.551983 1_555
O8 V1 2.050031 1_555
O9 P2 1.535709 1_555
O10 P2 1.532365 1_555
O11 P4 1.582627 1_555
O11 V5 2.067365 1_465
O12 P0 1.559042 1_565
O12 V3 2.058023 1_554
O13 P4 1.565280 1_555
O14 P8 1.532358 1_545
O15 P4 1.550101 1_555
O15 V1 2.049479 1_555
O16 P1 1.556252 1_565
O16 V0 2.042205 1_555
O17 P5 1.563875 1_555
O17 V1 2.020417 1_555
O18 P8 1.535724 1_555
O19 P6 1.514668 1_555
O19 V3 2.004198 1_554
O20 P10 1.502764 1_545
O21 P3 1.592434 1_565
O21 V5 2.064674 1_465
O22 P6 1.552123 1_555
O23 P7 1.511817 1_555
O24 P4 1.510244 1_555
O24 V2 2.007993 1_555
O25 P5 1.550265 1_555
O25 V3 2.096807 1_555
O26 P8 1.585169 1_545
O26 V0 2.061005 1_645
O27 P1 1.514668 1_565
O27 V2 2.004198 1_555
O28 P5 1.502764 1_555
O29 P3 1.550192 1_565
O29 V3 2.114355 1_555
O30 P6 1.556252 1_555
O30 V4 2.042205 1_555
O31 P10 1.563875 1_545
O31 V5 2.020417 1_555
O32 P7 1.555645 1_555
O32 V4 2.039647 1_555
O33 P3 1.512850 1_565
O33 V2 1.979825 1_555
O34 P7 1.559042 1_555
O34 V2 2.058023 1_555
O35 P11 1.565280 1_545
O36 P7 1.586304 1_555
O36 V0 2.066152 1_645
O37 P9 1.512850 1_555
O37 V3 1.979825 1_555
O38 P9 1.550192 1_555
O38 V2 2.114355 1_555
O39 P8 1.556379 1_555
O39 V4 2.041130 1_555
O40 P9 1.551983 1_555
O40 V5 2.050031 1_555
O41 P10 1.550265 1_555
O41 V2 2.096807 1_555
O42 P11 1.510244 1_555
O42 V3 2.007993 1_555
O43 P9 1.592434 1_555
O43 V1 2.064674 1_655
O44 P10 1.588528 1_555
O44 V0 2.058977 1_655
O45 P6 1.585493 1_556
O45 V1 2.062510 1_655
O46 P11 1.550101 1_555
O46 V5 2.049479 1_565
O47 P11 1.582627 1_555
O47 V1 2.067365 1_655
