# generated using pymatgen
data_Li12V3CoP4(CO7)4
_symmetry_space_group_name_H-M   'P 1'
_cell_length_a   6.59471600
_cell_length_b   8.48174000
_cell_length_c   10.00792810
_cell_angle_alpha   84.63377344
_cell_angle_beta   90.00000000
_cell_angle_gamma   90.00000000
_symmetry_Int_Tables_number   1
_chemical_formula_structural   Li12V3CoP4(CO7)4
_chemical_formula_sum   'Li12 V3 Co1 P4 C4 O28'
_cell_volume   557.33670855
_cell_formula_units_Z   1
loop_
 _symmetry_equiv_pos_site_id
 _symmetry_equiv_pos_as_xyz
  1  'x, y, z'
loop_
 _atom_site_type_symbol
 _atom_site_label
 _atom_site_symmetry_multiplicity
 _atom_site_fract_x
 _atom_site_fract_y
 _atom_site_fract_z
 _atom_site_occupancy
  Li  Li0  1  0.00000000  0.90070600  0.61585400  1
  Li  Li1  1  0.00000000  0.90302600  0.11558400  1
  Li  Li2  1  0.22388300  0.72024100  0.87476600  1
  Li  Li3  1  0.77611700  0.72024100  0.87476600  1
  Li  Li4  1  0.22213300  0.72058500  0.37442300  1
  Li  Li5  1  0.77786700  0.72058500  0.37442300  1
  Li  Li6  1  0.72796100  0.27821500  0.62283700  1
  Li  Li7  1  0.27203900  0.27821500  0.62283700  1
  Li  Li8  1  0.72669600  0.27902000  0.12754600  1
  Li  Li9  1  0.27330400  0.27902000  0.12754600  1
  Li  Li10  1  0.50000000  0.09831000  0.88485000  1
  Li  Li11  1  0.50000000  0.09741700  0.38496900  1
  V  V0  1  0.50000000  0.67118400  0.60448100  1
  V  V1  1  0.50000000  0.67098200  0.10344300  1
  V  V2  1  0.00000000  0.32875700  0.89603000  1
  Co  Co0  1  0.00000000  0.33112200  0.39471300  1
  P  P0  1  0.00000000  0.58804700  0.63879300  1
  P  P1  1  0.00000000  0.58923100  0.13911200  1
  P  P2  1  0.50000000  0.41032100  0.86055400  1
  P  P3  1  0.50000000  0.41120500  0.36080200  1
  C  C0  1  0.50000000  0.96514700  0.65240300  1
  C  C1  1  0.50000000  0.96516500  0.15247800  1
  C  C2  1  0.00000000  0.03428600  0.84773100  1
  C  C3  1  0.00000000  0.03704000  0.34935800  1
  O  O0  1  0.50000000  0.92696400  0.52975100  1
  O  O1  1  0.00000000  0.88841500  0.81979300  1
  O  O2  1  0.50000000  0.92706300  0.02960900  1
  O  O3  1  0.50000000  0.85001600  0.74842300  1
  O  O4  1  0.00000000  0.89149000  0.31862900  1
  O  O5  1  0.50000000  0.85008700  0.24833700  1
  O  O6  1  0.18295500  0.69179500  0.58657500  1
  O  O7  1  0.81704500  0.69179500  0.58657500  1
  O  O8  1  0.18251600  0.69327800  0.08609600  1
  O  O9  1  0.81748400  0.69327800  0.08609600  1
  O  O10  1  0.50000000  0.57691400  0.91138100  1
  O  O11  1  0.00000000  0.56819900  0.79574600  1
  O  O12  1  0.50000000  0.57737700  0.41197400  1
  O  O13  1  0.00000000  0.56669400  0.29607000  1
  O  O14  1  0.50000000  0.43152100  0.70377200  1
  O  O15  1  0.00000000  0.42191600  0.58689000  1
  O  O16  1  0.50000000  0.43086400  0.20414000  1
  O  O17  1  0.00000000  0.42262700  0.08859100  1
  O  O18  1  0.31689600  0.30705100  0.91343800  1
  O  O19  1  0.68310400  0.30705100  0.91343800  1
  O  O20  1  0.68579500  0.30874600  0.41205800  1
  O  O21  1  0.31420500  0.30874600  0.41205800  1
  O  O22  1  0.00000000  0.14930900  0.75192000  1
  O  O23  1  0.50000000  0.11110300  0.68018900  1
  O  O24  1  0.00000000  0.15403200  0.25479100  1
  O  O25  1  0.00000000  0.07247700  0.97062900  1
  O  O26  1  0.50000000  0.11103500  0.18042700  1
  O  O27  1  0.00000000  0.07208600  0.47230400  1
loop_
_geom_bond_atom_site_label_1
_geom_bond_atom_site_label_2
_geom_bond_distance
_geom_bond_site_symmetry_2
Li0 O27 1.945837 1_565
Li0 O1 2.033907 1_555
Li0 O6 2.185964 1_555
Li0 O7 2.185964 1_455
Li1 O25 1.944274 1_564
Li1 O4 2.025253 1_555
Li1 O9 2.190659 1_455
Li1 O8 2.190659 1_555
Li2 O1 2.090557 1_555
Li2 O8 2.123529 1_556
Li2 O11 2.158487 1_555
Li2 O10 2.201026 1_555
Li2 O3 2.421935 1_555
Li3 O1 2.090557 1_655
Li3 O9 2.123529 1_556
Li3 O11 2.158487 1_655
Li3 O10 2.201026 1_555
Li3 O3 2.421935 1_555
Li4 O4 2.099428 1_555
Li4 O6 2.130116 1_555
Li4 O13 2.157775 1_555
Li4 O12 2.211136 1_555
Li4 O5 2.428460 1_555
Li5 O4 2.099428 1_655
Li5 O7 2.130116 1_555
Li5 O13 2.157775 1_655
Li5 O12 2.211136 1_555
Li5 O5 2.428460 1_555
Li6 O23 2.108632 1_555
Li6 O20 2.119442 1_555
Li6 O15 2.179788 1_655
Li6 O14 2.191779 1_555
Li6 O22 2.412180 1_655
Li7 O23 2.108632 1_555
Li7 O21 2.119442 1_555
Li7 O15 2.179788 1_555
Li7 O14 2.191779 1_555
Li7 O22 2.412180 1_555
Li8 O26 2.098601 1_555
Li8 O19 2.152992 1_554
Li8 O16 2.160082 1_555
Li8 O17 2.189816 1_655
Li8 O24 2.396151 1_655
Li9 O26 2.098601 1_555
Li9 O18 2.152992 1_554
Li9 O16 2.160082 1_555
Li9 O17 2.189816 1_555
Li9 O24 2.396151 1_555
Li10 O2 1.953185 1_546
Li10 O23 2.040946 1_555
Li10 O18 2.183879 1_555
Li10 O19 2.183879 1_555
Li11 O0 1.948806 1_545
Li11 O26 2.039484 1_555
Li11 O21 2.208732 1_555
Li11 O20 2.208732 1_555
Co0 O20 2.086518 1_455
Co0 O21 2.086518 1_555
Co0 O15 2.137552 1_555
Co0 O13 2.144269 1_555
Co0 O24 2.147192 1_555
Co0 O27 2.260757 1_555
C0 O23 1.293934 1_565
C0 O0 1.298452 1_555
C0 O3 1.304416 1_555
C1 O26 1.293719 1_565
C1 O2 1.300324 1_555
C1 O5 1.303037 1_555
C2 O1 1.293694 1_545
C2 O25 1.300860 1_555
C2 O22 1.302399 1_555
C3 O27 1.292570 1_555
C3 O4 1.299854 1_545
C3 O24 1.305643 1_555
O0 V0 2.227648 1_555
O2 V1 2.227881 1_555
O3 V0 2.187377 1_555
O5 V1 2.196023 1_555
O6 P0 1.554721 1_555
O6 V0 2.104365 1_555
O7 P0 1.554721 1_655
O7 V0 2.104365 1_555
O8 P1 1.556115 1_555
O8 V1 2.107940 1_555
O9 P1 1.556115 1_655
O9 V1 2.107940 1_555
O10 P2 1.545882 1_555
O10 V1 2.148968 1_556
O11 P0 1.564037 1_555
O11 V2 2.179572 1_555
O12 P3 1.543945 1_555
O12 V0 2.152102 1_555
O13 P1 1.564566 1_555
O14 P2 1.562536 1_555
O14 V0 2.177551 1_555
O15 P0 1.546683 1_555
O16 P3 1.561120 1_555
O16 V1 2.186211 1_555
O17 P1 1.544703 1_555
O17 V2 2.152847 1_554
O18 P2 1.555225 1_555
O18 V2 2.103729 1_555
O19 P2 1.555225 1_555
O19 V2 2.103729 1_655
O20 P3 1.560847 1_555
O21 P3 1.560847 1_555
O22 V2 2.192539 1_555
O25 V2 2.231326 1_555
