# generated using pymatgen
data_Li3V3P8O29
_symmetry_space_group_name_H-M   'P 1'
_cell_length_a   9.72726700
_cell_length_b   9.74030793
_cell_length_c   14.01147675
_cell_angle_alpha   89.76561308
_cell_angle_beta   89.86991824
_cell_angle_gamma   60.12871951
_symmetry_Int_Tables_number   1
_chemical_formula_structural   Li3V3P8O29
_chemical_formula_sum   'Li6 V6 P16 O58'
_cell_volume   1151.16151887
_cell_formula_units_Z   2
loop_
 _symmetry_equiv_pos_site_id
 _symmetry_equiv_pos_as_xyz
  1  'x, y, z'
loop_
 _atom_site_type_symbol
 _atom_site_label
 _atom_site_symmetry_multiplicity
 _atom_site_fract_x
 _atom_site_fract_y
 _atom_site_fract_z
 _atom_site_occupancy
  Li  Li0  1  0.32918700  0.90568700  0.44081300  1
  Li  Li1  1  0.90386800  0.32920500  0.94143900  1
  Li  Li2  1  0.76526800  0.32926700  0.43993000  1
  Li  Li3  1  0.33642800  0.33164700  0.89076900  1
  Li  Li4  1  0.01420200  0.96210300  0.99917200  1
  Li  Li5  1  0.98624000  0.97253600  0.49956200  1
  V  V0  1  0.42903300  0.57400500  0.75004900  1
  V  V1  1  0.56283500  0.43550200  0.24539000  1
  V  V2  1  0.99637800  0.57032200  0.25283500  1
  V  V3  1  0.00171800  0.43293800  0.74383700  1
  V  V4  1  0.57204700  0.99725400  0.75026300  1
  V  V5  1  0.43811500  0.00126400  0.24543000  1
  P  P0  1  0.77986700  0.91622500  0.15620700  1
  P  P1  1  0.91794800  0.77756600  0.65697800  1
  P  P2  1  0.31101000  0.91783400  0.65735900  1
  P  P3  1  0.66874500  0.66424100  0.87100200  1
  P  P4  1  0.66448900  0.66576400  0.37054400  1
  P  P5  1  0.30781000  0.77767700  0.15504900  1
  P  P6  1  0.22500100  0.69060200  0.34170800  1
  P  P7  1  0.91393600  0.31531400  0.15625500  1
  P  P8  1  0.08565500  0.69005500  0.84458300  1
  P  P9  1  0.77004000  0.31390500  0.65605400  1
  P  P10  1  0.68840100  0.22383000  0.84120300  1
  P  P11  1  0.33801100  0.33252200  0.62904000  1
  P  P12  1  0.32879100  0.33712000  0.13021300  1
  P  P13  1  0.69199200  0.08535700  0.34361700  1
  P  P14  1  0.08637300  0.22346200  0.34042400  1
  P  P15  1  0.22172500  0.08795600  0.84350600  1
  O  O0  1  0.78431500  0.00729300  0.43064800  1
  O  O1  1  0.74268800  0.91488300  0.66760100  1
  O  O2  1  0.00601300  0.78197500  0.93066800  1
  O  O3  1  0.91511200  0.74172400  0.16828700  1
  O  O4  1  0.61970800  0.91449000  0.17240000  1
  O  O5  1  0.66106600  0.81577900  0.82551400  1
  O  O6  1  0.47021200  0.91305000  0.67576800  1
  O  O7  1  0.20716300  0.00456200  0.92752100  1
  O  O8  1  0.34750800  0.91329700  0.16826500  1
  O  O9  1  0.81264700  0.66696300  0.32514100  1
  O  O10  1  0.91638700  0.61910700  0.67276000  1
  O  O11  1  0.51376500  0.81551200  0.32967600  1
  O  O12  1  0.66924000  0.65817200  0.97661900  1
  O  O13  1  0.66542200  0.65978700  0.47687800  1
  O  O14  1  0.52342700  0.65915100  0.82409900  1
  O  O15  1  0.90974900  0.47388900  0.17457900  1
  O  O16  1  0.81970800  0.51742500  0.82747400  1
  O  O17  1  0.34022300  0.74532600  0.66801200  1
  O  O18  1  0.20219600  0.79596000  0.24773500  1
  O  O19  1  0.21762600  0.78605900  0.42649500  1
  O  O20  1  0.21934500  0.78883800  0.06750000  1
  O  O21  1  0.46745400  0.61870800  0.17126600  1
  O  O22  1  0.66890700  0.51398500  0.32731500  1
  O  O23  1  0.26151800  0.65427200  0.83464000  1
  O  O24  1  0.61630500  0.47133100  0.67424600  1
  O  O25  1  0.91350900  0.34368800  0.66783200  1
  O  O26  1  0.00248900  0.79489300  0.75051800  1
  O  O27  1  0.99587700  0.78981700  0.56968700  1
  O  O28  1  0.99321900  0.21709000  0.42310100  1
  O  O29  1  0.08666600  0.65504200  0.33600500  1
  O  O30  1  0.38283500  0.53293300  0.32728100  1
  O  O31  1  0.74160200  0.34480200  0.16846700  1
  O  O32  1  0.33787700  0.47848300  0.67590800  1
  O  O33  1  0.52320300  0.37515800  0.83113900  1
  O  O34  1  0.78750100  0.21919700  0.92289900  1
  O  O35  1  0.77921500  0.23509500  0.56390600  1
  O  O36  1  0.78852800  0.20046900  0.74363800  1
  O  O37  1  0.65421500  0.26134500  0.33632300  1
  O  O38  1  0.18302600  0.48129100  0.17470600  1
  O  O39  1  0.09751400  0.52561200  0.83027900  1
  O  O40  1  0.47921300  0.33552300  0.17339300  1
  O  O41  1  0.33114100  0.33355700  0.02398900  1
  O  O42  1  0.33546000  0.33056000  0.52370900  1
  O  O43  1  0.48064100  0.18348000  0.67725900  1
  O  O44  1  0.08605300  0.38186500  0.32780500  1
  O  O45  1  0.18593000  0.33569900  0.67593000  1
  O  O46  1  0.65726600  0.08158100  0.83764000  1
  O  O47  1  0.79645900  0.00275000  0.24959800  1
  O  O48  1  0.78883700  0.99518000  0.06840900  1
  O  O49  1  0.53442500  0.08315600  0.32713000  1
  O  O50  1  0.33403500  0.18510100  0.17446300  1
  O  O51  1  0.37520800  0.09954900  0.83109200  1
  O  O52  1  0.07998600  0.26425900  0.83788100  1
  O  O53  1  0.98498100  0.23929700  0.06378500  1
  O  O54  1  0.01056900  0.19941400  0.24285600  1
  O  O55  1  0.25960100  0.08288400  0.33912400  1
  O  O56  1  0.23417700  0.98848400  0.56466500  1
  O  O57  1  0.19923900  0.01162800  0.74540500  1
loop_
_geom_bond_atom_site_label_1
_geom_bond_atom_site_label_2
_geom_bond_distance
_geom_bond_site_symmetry_2
Li0 O56 1.943629 1_555
Li0 O19 1.959092 1_555
Li0 O55 2.070681 1_565
Li0 O11 2.201719 1_555
Li1 O53 1.906220 1_556
Li1 O34 1.925788 1_555
Li1 O52 2.087382 1_655
Li1 O16 2.251235 1_555
Li2 O35 1.934251 1_555
Li2 O28 1.937130 1_555
Li2 O37 2.106863 1_555
Li2 O22 2.215654 1_555
Li3 O41 1.867114 1_556
Li3 O33 2.221639 1_555
Li3 O51 2.262039 1_555
Li3 O39 2.304539 1_555
Li4 O2 2.039426 1_555
Li4 O20 2.094654 1_556
Li4 O48 2.267150 1_456
Li4 O7 2.337363 1_565
Li5 O27 1.990376 1_555
Li5 O0 2.061197 1_565
Li5 O19 2.312064 1_655
Li5 O35 2.507801 1_565
Li5 O28 2.639375 1_565
Li5 O56 2.656517 1_655
O0 P13 1.479482 1_555
O1 P1 1.564161 1_555
O1 V4 1.847340 1_555
O2 P8 1.473201 1_555
O3 P0 1.555514 1_555
O3 V2 1.867884 1_555
O4 P0 1.582224 1_555
O4 V5 1.842096 1_565
O5 P3 1.572625 1_555
O5 V4 1.857487 1_555
O6 P2 1.548128 1_555
O6 V4 1.887960 1_555
O7 P15 1.473648 1_555
O8 P5 1.561677 1_555
O8 V5 1.855819 1_565
O9 P4 1.579354 1_555
O9 V2 1.852126 1_555
O10 P1 1.565845 1_555
O10 V3 1.859752 1_655
O11 P4 1.572179 1_555
O11 V5 1.966884 1_565
O12 P3 1.480712 1_555
O13 P4 1.490667 1_555
O14 P3 1.583273 1_555
O14 V0 1.837748 1_555
O15 P7 1.547193 1_555
O15 V2 1.896222 1_555
O16 P3 1.576272 1_555
O16 V3 1.931895 1_655
O17 P2 1.564896 1_555
O17 V0 1.845271 1_555
O18 P5 1.608498 1_555
O18 P6 1.612311 1_555
O19 P6 1.491030 1_555
O20 P5 1.472279 1_555
O21 P5 1.569796 1_555
O21 V1 1.861147 1_555
O22 P4 1.580580 1_555
O22 V1 1.940325 1_555
O23 P8 1.572473 1_555
O23 V0 1.844186 1_555
O24 P9 1.539433 1_555
O24 V0 1.905738 1_555
O25 P9 1.569614 1_555
O25 V3 1.838687 1_655
O26 P1 1.602330 1_455
O26 P8 1.614080 1_555
O27 P1 1.472913 1_555
O28 P14 1.489144 1_655
O29 P6 1.549848 1_555
O29 V2 1.882742 1_455
O30 P6 1.552093 1_555
O30 V1 1.904596 1_555
O31 P7 1.562491 1_555
O31 V1 1.853372 1_555
O32 P11 1.567889 1_555
O32 V0 1.888104 1_555
O33 P10 1.553926 1_555
O33 V0 2.025041 1_555
O34 P10 1.484194 1_555
O35 P9 1.484448 1_555
O36 P9 1.597217 1_555
O36 P10 1.626312 1_555
O37 P13 1.566897 1_555
O37 V1 1.943326 1_555
O38 P12 1.546233 1_555
O38 V2 1.917584 1_455
O39 P8 1.561241 1_555
O39 V3 2.000506 1_555
O40 P12 1.577497 1_555
O40 V1 1.851601 1_555
O41 P12 1.488760 1_555
O42 P11 1.476470 1_555
O43 P11 1.574415 1_555
O43 V4 1.873374 1_545
O44 P14 1.550735 1_555
O44 V2 1.904539 1_455
O45 P11 1.603491 1_555
O45 V3 1.822716 1_555
O46 P10 1.559676 1_555
O46 V4 1.884603 1_545
O47 P0 1.610618 1_545
O47 P13 1.613558 1_555
O48 P0 1.473431 1_555
O49 P13 1.561205 1_555
O49 V5 1.892361 1_555
O50 P12 1.580163 1_555
O50 V5 1.845068 1_555
O51 P15 1.561587 1_555
O51 V4 2.010110 1_545
O52 P15 1.580200 1_555
O52 V3 1.938093 1_555
O53 P7 1.482764 1_555
O54 P7 1.602278 1_455
O54 P14 1.626868 1_555
O55 P14 1.554464 1_555
O55 V5 1.998449 1_555
O56 P2 1.484501 1_555
O57 P2 1.597600 1_545
O57 P15 1.631453 1_555
