# generated using pymatgen
data_Ba2CaI6
_symmetry_space_group_name_H-M   'P 1'
_cell_length_a   9.11102846
_cell_length_b   7.76294335
_cell_length_c   13.49951688
_cell_angle_alpha   56.09985993
_cell_angle_beta   90.00000000
_cell_angle_gamma   90.00000000
_symmetry_Int_Tables_number   1
_chemical_formula_structural   Ba2CaI6
_chemical_formula_sum   'Ba4 Ca2 I12'
_cell_volume   792.49376363
_cell_formula_units_Z   2
loop_
 _symmetry_equiv_pos_site_id
 _symmetry_equiv_pos_as_xyz
  1  'x, y, z'
loop_
 _atom_site_type_symbol
 _atom_site_label
 _atom_site_symmetry_multiplicity
 _atom_site_fract_x
 _atom_site_fract_y
 _atom_site_fract_z
 _atom_site_occupancy
  Ba  Ba0  1  0.88792091  0.78766927  0.75345571  1
  Ba  Ba1  1  0.11207909  0.21233073  0.24654429  1
  Ba  Ba2  1  0.61207909  0.78766927  0.25345571  1
  Ba  Ba3  1  0.38792091  0.21233073  0.74654429  1
  Ca  Ca0  1  0.50000000  0.50000000  0.00000000  1
  Ca  Ca1  1  0.00000000  0.50000000  0.50000000  1
  I  I0  1  0.96875209  0.64137070  0.23781482  1
  I  I1  1  0.69019769  0.28339333  0.55708239  1
  I  I2  1  0.67108457  0.89361286  0.94098231  1
  I  I3  1  0.17108457  0.10638714  0.55901769  1
  I  I4  1  0.19019769  0.71660667  0.94291761  1
  I  I5  1  0.46875209  0.35862930  0.26218518  1
  I  I6  1  0.53124791  0.64137070  0.73781482  1
  I  I7  1  0.80980231  0.28339333  0.05708239  1
  I  I8  1  0.82891543  0.89361286  0.44098231  1
  I  I9  1  0.32891543  0.10638714  0.05901769  1
  I  I10  1  0.30980231  0.71660667  0.44291761  1
  I  I11  1  0.03124791  0.35862930  0.76218518  1
loop_
_geom_bond_atom_site_label_1
_geom_bond_atom_site_label_2
_geom_bond_distance
_geom_bond_site_symmetry_2
Ba0 I6 3.487432 1_555
Ba0 I11 3.517714 1_655
Ba0 I3 3.524611 1_665
Ba0 I4 3.585635 1_655
Ba0 I2 3.648350 1_555
Ba0 I1 3.701651 1_565
Ba0 I7 3.838334 1_556
Ba0 I8 3.858635 1_555
Ba1 I5 3.487432 1_555
Ba1 I0 3.517714 1_455
Ba1 I8 3.524611 1_445
Ba1 I7 3.585635 1_455
Ba1 I9 3.648350 1_555
Ba1 I10 3.701651 1_545
Ba1 I4 3.838334 1_554
Ba1 I3 3.858635 1_555
Ba2 I0 3.487432 1_555
Ba2 I5 3.517714 1_555
Ba2 I9 3.524611 1_565
Ba2 I10 3.585635 1_555
Ba2 I8 3.648350 1_555
Ba2 I7 3.701651 1_565
Ba2 I1 3.838334 1_555
Ba2 I2 3.858635 1_554
Ba3 I11 3.487432 1_555
Ba3 I6 3.517714 1_555
Ba3 I2 3.524611 1_545
Ba3 I1 3.585635 1_555
Ba3 I3 3.648350 1_555
Ba3 I4 3.701651 1_545
Ba3 I10 3.838334 1_555
Ba3 I9 3.858635 1_556
Ca0 I5 3.078914 1_555
Ca0 I6 3.078914 1_554
Ca0 I9 3.112160 1_555
Ca0 I2 3.112160 1_554
Ca0 I7 3.153258 1_555
Ca0 I4 3.153258 1_554
Ca1 I0 3.078914 1_455
Ca1 I11 3.078914 1_555
Ca1 I3 3.112160 1_555
Ca1 I8 3.112160 1_455
Ca1 I1 3.153258 1_455
Ca1 I10 3.153258 1_555
