# generated using pymatgen
data_Li4Ti3VO8
_symmetry_space_group_name_H-M   'P 1'
_cell_length_a   4.13867100
_cell_length_b   6.10895300
_cell_length_c   6.90013008
_cell_angle_alpha   88.32167299
_cell_angle_beta   90.00000000
_cell_angle_gamma   90.00000000
_symmetry_Int_Tables_number   1
_chemical_formula_structural   Li4Ti3VO8
_chemical_formula_sum   'Li4 Ti3 V1 O8'
_cell_volume   174.38078095
_cell_formula_units_Z   1
loop_
 _symmetry_equiv_pos_site_id
 _symmetry_equiv_pos_as_xyz
  1  'x, y, z'
loop_
 _atom_site_type_symbol
 _atom_site_label
 _atom_site_symmetry_multiplicity
 _atom_site_fract_x
 _atom_site_fract_y
 _atom_site_fract_z
 _atom_site_occupancy
  Li  Li0  1  0.50000000  0.92242100  0.38300400  1
  Li  Li1  1  0.00000000  0.58083900  0.88572000  1
  Li  Li2  1  0.50000000  0.42214100  0.11571300  1
  Li  Li3  1  0.00000000  0.07325900  0.61401100  1
  Ti  Ti0  1  0.50000000  0.91428500  0.86782400  1
  Ti  Ti1  1  0.00000000  0.58216500  0.37819000  1
  Ti  Ti2  1  0.50000000  0.42039100  0.62550300  1
  V  V0  1  0.00000000  0.08759800  0.12916600  1
  O  O0  1  0.00000000  0.90894100  0.87103200  1
  O  O1  1  0.00000000  0.88987900  0.38425400  1
  O  O2  1  0.50000000  0.59924400  0.85221700  1
  O  O3  1  0.50000000  0.58079300  0.37530700  1
  O  O4  1  0.00000000  0.41409500  0.63134700  1
  O  O5  1  0.00000000  0.42666000  0.14510900  1
  O  O6  1  0.50000000  0.10183200  0.64024900  1
  O  O7  1  0.50000000  0.07545600  0.10135500  1
loop_
_geom_bond_atom_site_label_1
_geom_bond_atom_site_label_2
_geom_bond_distance
_geom_bond_site_symmetry_2
Li0 O1 2.078856 1_555
Li0 O1 2.078856 1_655
Li0 O3 2.089219 1_555
Li0 O6 2.113271 1_565
Li0 O7 2.131770 1_565
Li1 O5 1.997955 1_556
Li1 O0 2.003954 1_555
Li1 O4 2.055016 1_555
Li1 O2 2.084877 1_555
Li1 O2 2.084877 1_455
Li2 O3 2.061443 1_555
Li2 O5 2.079515 1_655
Li2 O5 2.079515 1_555
Li2 O2 2.088302 1_554
Li2 O7 2.123095 1_555
Li3 O1 1.967831 1_545
Li3 O0 2.012109 1_545
Li3 O6 2.085005 1_455
Li3 O6 2.085005 1_555
Li3 O4 2.089079 1_555
O0 Ti0 2.069701 1_455
O0 Ti0 2.069701 1_555
O0 V0 2.116026 1_566
O1 Ti1 1.881501 1_555
O1 V0 2.105345 1_565
O2 Ti0 1.930728 1_555
O2 Ti2 1.934196 1_555
O3 Ti2 1.959973 1_555
O3 Ti1 2.069450 1_555
O3 Ti1 2.069450 1_655
O4 Ti1 2.000122 1_555
O4 Ti2 2.070064 1_455
O4 Ti2 2.070064 1_555
O5 Ti1 1.891702 1_555
O5 V0 2.077448 1_555
O6 Ti0 1.916537 1_545
O6 Ti2 1.945742 1_555
O7 Ti0 1.912834 1_544
O7 V0 2.079738 1_555
O7 V0 2.079738 1_655
