# generated using pymatgen
data_LiBiB2O5
_symmetry_space_group_name_H-M   'P 1'
_cell_length_a   7.52995837
_cell_length_b   7.52995837
_cell_length_c   10.22722395
_cell_angle_alpha   71.73208780
_cell_angle_beta   71.73208780
_cell_angle_gamma   92.28294973
_symmetry_Int_Tables_number   1
_chemical_formula_structural   LiBiB2O5
_chemical_formula_sum   'Li4 Bi4 B8 O20'
_cell_volume   516.74025034
_cell_formula_units_Z   4
loop_
 _symmetry_equiv_pos_site_id
 _symmetry_equiv_pos_as_xyz
  1  'x, y, z'
loop_
 _atom_site_type_symbol
 _atom_site_label
 _atom_site_symmetry_multiplicity
 _atom_site_fract_x
 _atom_site_fract_y
 _atom_site_fract_z
 _atom_site_occupancy
  Li  Li0  1  0.95553700  0.66452700  0.15685400  1
  Li  Li1  1  0.66452700  0.95553700  0.65685400  1
  Li  Li2  1  0.33547300  0.04446300  0.34314600  1
  Li  Li3  1  0.04446300  0.33547300  0.84314600  1
  Bi  Bi0  1  0.85419400  0.14580600  0.25000000  1
  Bi  Bi1  1  0.42073600  0.57926400  0.25000000  1
  Bi  Bi2  1  0.57926400  0.42073600  0.75000000  1
  Bi  Bi3  1  0.14580600  0.85419400  0.75000000  1
  B  B0  1  0.76516300  0.77322100  0.40989700  1
  B  B1  1  0.75132400  0.40387100  0.47049100  1
  B  B2  1  0.77322100  0.76516300  0.90989700  1
  B  B3  1  0.40387100  0.75132400  0.97049100  1
  B  B4  1  0.59612900  0.24867600  0.02950900  1
  B  B5  1  0.22677900  0.23483700  0.09010300  1
  B  B6  1  0.24867600  0.59612900  0.52950900  1
  B  B7  1  0.23483700  0.22677900  0.59010300  1
  O  O0  1  0.71635700  0.89852900  0.48129900  1
  O  O1  1  0.83159500  0.82323700  0.26186700  1
  O  O2  1  0.89852900  0.71635700  0.98129900  1
  O  O3  1  0.80883300  0.40708200  0.33236600  1
  O  O4  1  0.31676700  0.74678400  0.39538400  1
  O  O5  1  0.82323700  0.83159500  0.76186700  1
  O  O6  1  0.57888100  0.74590300  0.00004500  1
  O  O7  1  0.25409700  0.42111900  0.49995500  1
  O  O8  1  0.40708200  0.80883300  0.83236600  1
  O  O9  1  0.74678400  0.31676700  0.89538400  1
  O  O10  1  0.25321600  0.68323300  0.10461600  1
  O  O11  1  0.59291800  0.19116700  0.16763400  1
  O  O12  1  0.74590300  0.57888100  0.50004500  1
  O  O13  1  0.42111900  0.25409700  0.99995500  1
  O  O14  1  0.17676300  0.16840500  0.23813300  1
  O  O15  1  0.68323300  0.25321600  0.60461600  1
  O  O16  1  0.19116700  0.59291800  0.66763400  1
  O  O17  1  0.10147100  0.28364300  0.01870100  1
  O  O18  1  0.16840500  0.17676300  0.73813300  1
  O  O19  1  0.28364300  0.10147100  0.51870100  1
loop_
_geom_bond_atom_site_label_1
_geom_bond_atom_site_label_2
_geom_bond_distance
_geom_bond_site_symmetry_2
Li0 O2 1.901954 1_554
Li0 O1 1.928163 1_555
Li0 O10 2.122863 1_655
Li0 O3 2.145947 1_555
Li1 O0 1.901954 1_555
Li1 O5 1.928163 1_555
Li1 O15 2.122863 1_565
Li1 O8 2.145947 1_555
Li2 O19 1.901954 1_555
Li2 O14 1.928163 1_555
Li2 O4 2.122863 1_545
Li2 O11 2.145947 1_555
Li3 O17 1.901954 1_556
Li3 O18 1.928163 1_555
Li3 O9 2.122863 1_455
Li3 O16 2.145947 1_555
Bi0 O11 2.368346 1_555
Bi0 O3 2.368346 1_555
Bi0 O17 2.384431 1_655
Bi0 O0 2.384431 1_545
Bi0 O14 2.390127 1_655
Bi0 O1 2.390127 1_545
Bi1 O4 2.222526 1_555
Bi1 O10 2.222526 1_555
Bi1 O6 2.342863 1_555
Bi1 O7 2.342863 1_555
Bi2 O9 2.222526 1_555
Bi2 O15 2.222526 1_555
Bi2 O13 2.342863 1_555
Bi2 O12 2.342863 1_555
Bi3 O8 2.368346 1_555
Bi3 O16 2.368346 1_555
Bi3 O19 2.384431 1_565
Bi3 O2 2.384431 1_455
Bi3 O18 2.390127 1_565
Bi3 O5 2.390127 1_455
B0 O1 1.355297 1_555
B0 O0 1.360140 1_555
B0 O12 1.437340 1_555
B1 O3 1.333377 1_555
B1 O15 1.403072 1_555
B1 O12 1.440810 1_555
B2 O5 1.355297 1_555
B2 O2 1.360140 1_555
B2 O6 1.437340 1_556
B3 O8 1.333377 1_555
B3 O10 1.403072 1_556
B3 O6 1.440810 1_556
B4 O11 1.333377 1_555
B4 O9 1.403072 1_554
B4 O13 1.440810 1_554
B5 O14 1.355297 1_555
B5 O17 1.360140 1_555
B5 O13 1.437340 1_554
B6 O16 1.333377 1_555
B6 O4 1.403072 1_555
B6 O7 1.440810 1_555
B7 O18 1.355297 1_555
B7 O19 1.360140 1_555
B7 O7 1.437340 1_555
