# generated using pymatgen
data_Li2Fe3CoO8
_symmetry_space_group_name_H-M   'P 1'
_cell_length_a   8.38333381
_cell_length_b   8.31411187
_cell_length_c   8.42490602
_cell_angle_alpha   89.98928288
_cell_angle_beta   89.99831328
_cell_angle_gamma   90.07545051
_symmetry_Int_Tables_number   1
_chemical_formula_structural   Li2Fe3CoO8
_chemical_formula_sum   'Li8 Fe12 Co4 O32'
_cell_volume   587.21522040
_cell_formula_units_Z   4
loop_
 _symmetry_equiv_pos_site_id
 _symmetry_equiv_pos_as_xyz
  1  'x, y, z'
loop_
 _atom_site_type_symbol
 _atom_site_label
 _atom_site_symmetry_multiplicity
 _atom_site_fract_x
 _atom_site_fract_y
 _atom_site_fract_z
 _atom_site_occupancy
  Li  Li0  1  0.00218300  0.00200000  0.00323700  1
  Li  Li1  1  0.24750700  0.24752900  0.24688400  1
  Li  Li2  1  0.25268500  0.75225700  0.74660700  1
  Li  Li3  1  0.49743500  0.99808500  0.50304200  1
  Li  Li4  1  0.50232500  0.49761000  0.99828700  1
  Li  Li5  1  0.74736800  0.25232700  0.75176700  1
  Li  Li6  1  0.75275200  0.74765500  0.25161400  1
  Li  Li7  1  0.99790200  0.50238800  0.49839300  1
  Fe  Fe0  1  0.12689900  0.12227600  0.62525500  1
  Fe  Fe1  1  0.12574900  0.37173600  0.87828900  1
  Fe  Fe2  1  0.12222800  0.62476400  0.12713100  1
  Fe  Fe3  1  0.37786000  0.37522100  0.62708700  1
  Fe  Fe4  1  0.37429200  0.62831000  0.37821800  1
  Fe  Fe5  1  0.37292900  0.87768900  0.12518500  1
  Fe  Fe6  1  0.62752100  0.37774500  0.37474800  1
  Fe  Fe7  1  0.62615900  0.12784300  0.12202000  1
  Fe  Fe8  1  0.62134200  0.87481700  0.87274700  1
  Fe  Fe9  1  0.87860200  0.12534300  0.37282900  1
  Fe  Fe10  1  0.87367500  0.87216200  0.62190200  1
  Fe  Fe11  1  0.87256100  0.62240100  0.87474100  1
  Co  Co0  1  0.12534400  0.87610500  0.37506100  1
  Co  Co1  1  0.37451500  0.12373600  0.87503700  1
  Co  Co2  1  0.62488700  0.62443500  0.62480000  1
  Co  Co3  1  0.87525500  0.37557000  0.12495800  1
  O  O0  1  0.11917300  0.10295300  0.38380700  1
  O  O1  1  0.11545700  0.88419400  0.60252500  1
  O  O2  1  0.11213700  0.61209900  0.88520800  1
  O  O3  1  0.14737700  0.13099000  0.86652800  1
  O  O4  1  0.10348500  0.38407700  0.11813700  1
  O  O5  1  0.13586000  0.35969900  0.63626800  1
  O  O6  1  0.13377500  0.64853500  0.36900700  1
  O  O7  1  0.13382800  0.86653800  0.14809100  1
  O  O8  1  0.36592400  0.13339400  0.64800100  1
  O  O9  1  0.36631800  0.35124500  0.86902000  1
  O  O10  1  0.36410500  0.64025700  0.13613800  1
  O  O11  1  0.39657800  0.61581100  0.61796200  1
  O  O12  1  0.35242800  0.86891500  0.36648800  1
  O  O13  1  0.38780900  0.38796800  0.38530300  1
  O  O14  1  0.38448700  0.11574500  0.10256000  1
  O  O15  1  0.38070300  0.89708600  0.88365000  1
  O  O16  1  0.61907700  0.39806800  0.61616800  1
  O  O17  1  0.61528900  0.61737200  0.39740300  1
  O  O18  1  0.61126200  0.88697100  0.11487500  1
  O  O19  1  0.64706900  0.36864300  0.13430800  1
  O  O20  1  0.60204100  0.11574200  0.88105500  1
  O  O21  1  0.63725700  0.13924900  0.36464400  1
  O  O22  1  0.63309100  0.85165800  0.63041200  1
  O  O23  1  0.63247300  0.63311100  0.85183800  1
  O  O24  1  0.86777600  0.36689700  0.35186800  1
  O  O25  1  0.86681800  0.14825500  0.13071500  1
  O  O26  1  0.86275700  0.86092100  0.86442400  1
  O  O27  1  0.89783500  0.88430900  0.38102100  1
  O  O28  1  0.85321800  0.63156600  0.63439200  1
  O  O29  1  0.88874600  0.11304400  0.61492800  1
  O  O30  1  0.88478200  0.38276100  0.89756300  1
  O  O31  1  0.88109200  0.60206500  0.11599300  1
loop_
_geom_bond_atom_site_label_1
_geom_bond_atom_site_label_2
_geom_bond_distance
_geom_bond_site_symmetry_2
Li0 O25 1.980886 1_455
Li0 O3 1.988540 1_554
Li0 O7 1.994639 1_545
Li0 O26 2.026501 1_444
Li1 O4 1.981511 1_555
Li1 O0 1.982184 1_555
Li1 O14 2.000343 1_555
Li1 O13 2.025762 1_555
Li2 O11 1.980088 1_555
Li2 O15 1.982913 1_555
Li2 O1 2.000791 1_555
Li2 O2 2.026207 1_555
Li3 O22 1.982462 1_555
Li3 O12 1.987906 1_555
Li3 O8 1.994058 1_565
Li3 O21 2.026517 1_565
Li4 O19 1.984546 1_556
Li4 O9 1.990940 1_555
Li4 O23 1.994512 1_555
Li4 O10 2.025366 1_556
Li5 O16 1.983187 1_555
Li5 O20 1.989000 1_555
Li5 O30 2.002285 1_555
Li5 O29 2.019617 1_555
Li6 O31 1.982974 1_555
Li6 O27 1.988898 1_555
Li6 O17 2.001516 1_555
Li6 O18 2.019638 1_555
Li7 O28 1.985272 1_555
Li7 O6 1.989455 1_655
Li7 O24 1.995061 1_555
Li7 O5 2.024214 1_655
Fe0 O5 1.977487 1_555
Fe0 O1 1.990904 1_545
Fe0 O29 1.999787 1_455
Fe0 O8 2.014976 1_555
Fe0 O3 2.041236 1_555
Fe0 O0 2.041564 1_555
Fe1 O2 2.002670 1_555
Fe1 O3 2.012481 1_555
Fe1 O9 2.025681 1_555
Fe1 O30 2.028811 1_455
Fe1 O4 2.031917 1_556
Fe1 O5 2.043239 1_555
Fe2 O4 2.008496 1_555
Fe2 O7 2.020125 1_555
Fe2 O31 2.032238 1_455
Fe2 O10 2.033073 1_555
Fe2 O2 2.042666 1_554
Fe2 O6 2.049658 1_555
Fe3 O11 2.007690 1_555
Fe3 O8 2.020597 1_555
Fe3 O16 2.032934 1_555
Fe3 O5 2.034166 1_555
Fe3 O13 2.041439 1_555
Fe3 O9 2.050219 1_555
Fe4 O13 2.002469 1_555
Fe4 O12 2.011448 1_555
Fe4 O6 2.025043 1_555
Fe4 O17 2.028975 1_555
Fe4 O11 2.031102 1_555
Fe4 O10 2.043693 1_555
Fe5 O10 1.977461 1_555
Fe5 O14 1.990579 1_565
Fe5 O18 2.001296 1_555
Fe5 O7 2.015736 1_555
Fe5 O12 2.041484 1_555
Fe5 O15 2.042291 1_554
Fe6 O21 1.986509 1_555
Fe6 O17 2.004202 1_555
Fe6 O13 2.013457 1_555
Fe6 O24 2.025464 1_555
Fe6 O19 2.033728 1_555
Fe6 O16 2.042212 1_555
Fe7 O18 2.007277 1_545
Fe7 O19 2.012152 1_555
Fe7 O25 2.025755 1_555
Fe7 O14 2.035001 1_555
Fe7 O20 2.042642 1_554
Fe7 O21 2.048412 1_555
Fe8 O20 2.011046 1_565
Fe8 O23 2.019589 1_555
Fe8 O15 2.028158 1_555
Fe8 O26 2.028520 1_555
Fe8 O18 2.044176 1_556
Fe8 O22 2.053118 1_555
Fe9 O27 2.011843 1_545
Fe9 O24 2.018184 1_555
Fe9 O0 2.027716 1_655
Fe9 O21 2.027902 1_555
Fe9 O29 2.043982 1_555
Fe9 O25 2.051023 1_555
Fe10 O29 2.007384 1_565
Fe10 O28 2.010191 1_555
Fe10 O22 2.025130 1_555
Fe10 O1 2.035824 1_655
Fe10 O27 2.041943 1_555
Fe10 O26 2.047383 1_555
Fe11 O26 1.986779 1_555
Fe11 O30 2.004369 1_555
Fe11 O2 2.012319 1_655
Fe11 O23 2.024046 1_555
Fe11 O28 2.032828 1_555
Fe11 O31 2.040778 1_556
Co0 O0 1.888269 1_565
Co0 O6 1.894151 1_555
Co0 O12 1.906105 1_555
Co0 O27 1.909252 1_455
Co0 O7 1.915192 1_555
Co0 O1 1.919347 1_555
Co1 O15 1.886558 1_545
Co1 O9 1.893543 1_555
Co1 O3 1.906558 1_555
Co1 O20 1.909346 1_555
Co1 O8 1.915787 1_555
Co1 O14 1.919826 1_556
Co2 O16 1.884024 1_555
Co2 O22 1.890919 1_555
Co2 O23 1.915202 1_555
Co2 O11 1.916107 1_555
Co2 O28 1.916722 1_555
Co2 O17 1.918396 1_555
Co3 O31 1.885175 1_555
Co3 O25 1.891765 1_555
Co3 O24 1.914064 1_555
Co3 O19 1.915368 1_555
Co3 O4 1.915402 1_655
Co3 O30 1.918361 1_554
