# generated using pymatgen
data_Li5CrO4
_symmetry_space_group_name_H-M   'P 1'
_cell_length_a   9.12651500
_cell_length_b   9.17979100
_cell_length_c   9.46679600
_cell_angle_alpha   90.00000000
_cell_angle_beta   90.00000000
_cell_angle_gamma   90.00000000
_symmetry_Int_Tables_number   1
_chemical_formula_structural   Li5CrO4
_chemical_formula_sum   'Li40 Cr8 O32'
_cell_volume   793.12343793
_cell_formula_units_Z   8
loop_
 _symmetry_equiv_pos_site_id
 _symmetry_equiv_pos_as_xyz
  1  'x, y, z'
loop_
 _atom_site_type_symbol
 _atom_site_label
 _atom_site_symmetry_multiplicity
 _atom_site_fract_x
 _atom_site_fract_y
 _atom_site_fract_z
 _atom_site_occupancy
  Li  Li0  1  0.10855900  0.60758200  0.14113600  1
  Li  Li1  1  0.10855900  0.89241800  0.64113600  1
  Li  Li2  1  0.11473200  0.11175300  0.83973400  1
  Li  Li3  1  0.11473200  0.38824700  0.33973400  1
  Li  Li4  1  0.12501100  0.85154900  0.38034600  1
  Li  Li5  1  0.12501100  0.64845100  0.88034600  1
  Li  Li6  1  0.15041000  0.87200000  0.11403800  1
  Li  Li7  1  0.15041000  0.62800000  0.61403800  1
  Li  Li8  1  0.16116800  0.11555500  0.39389700  1
  Li  Li9  1  0.16116800  0.38444500  0.89389700  1
  Li  Li10  1  0.33883200  0.88444500  0.89389700  1
  Li  Li11  1  0.33883200  0.61555500  0.39389700  1
  Li  Li12  1  0.34959000  0.37200000  0.11403800  1
  Li  Li13  1  0.34959000  0.12800000  0.61403800  1
  Li  Li14  1  0.37498900  0.35154900  0.38034600  1
  Li  Li15  1  0.37498900  0.14845100  0.88034600  1
  Li  Li16  1  0.38526800  0.88824700  0.33973400  1
  Li  Li17  1  0.38526800  0.61175300  0.83973400  1
  Li  Li18  1  0.39144100  0.10758200  0.14113600  1
  Li  Li19  1  0.39144100  0.39241800  0.64113600  1
  Li  Li20  1  0.60855900  0.60758200  0.35886400  1
  Li  Li21  1  0.60855900  0.89241800  0.85886400  1
  Li  Li22  1  0.61473200  0.11175300  0.66026600  1
  Li  Li23  1  0.61473200  0.38824700  0.16026600  1
  Li  Li24  1  0.62501100  0.64845100  0.61965400  1
  Li  Li25  1  0.62501100  0.85154900  0.11965400  1
  Li  Li26  1  0.65041000  0.62800000  0.88596200  1
  Li  Li27  1  0.65041000  0.87200000  0.38596200  1
  Li  Li28  1  0.66116800  0.11555500  0.10610300  1
  Li  Li29  1  0.66116800  0.38444500  0.60610300  1
  Li  Li30  1  0.83883200  0.61555500  0.10610300  1
  Li  Li31  1  0.83883200  0.88444500  0.60610300  1
  Li  Li32  1  0.84959000  0.37200000  0.38596200  1
  Li  Li33  1  0.84959000  0.12800000  0.88596200  1
  Li  Li34  1  0.87498900  0.14845100  0.61965400  1
  Li  Li35  1  0.87498900  0.35154900  0.11965400  1
  Li  Li36  1  0.88526800  0.61175300  0.66026600  1
  Li  Li37  1  0.88526800  0.88824700  0.16026600  1
  Li  Li38  1  0.89144100  0.10758200  0.35886400  1
  Li  Li39  1  0.89144100  0.39241800  0.85886400  1
  Cr  Cr0  1  0.10826800  0.14768500  0.11926700  1
  Cr  Cr1  1  0.10826800  0.35231500  0.61926700  1
  Cr  Cr2  1  0.39173200  0.64768500  0.11926700  1
  Cr  Cr3  1  0.39173200  0.85231500  0.61926700  1
  Cr  Cr4  1  0.60826800  0.14768500  0.38073300  1
  Cr  Cr5  1  0.60826800  0.35231500  0.88073300  1
  Cr  Cr6  1  0.89173200  0.64768500  0.38073300  1
  Cr  Cr7  1  0.89173200  0.85231500  0.88073300  1
  O  O0  1  0.00456300  0.24936100  0.47645200  1
  O  O1  1  0.00456300  0.25063900  0.97645200  1
  O  O2  1  0.04037500  0.00224500  0.25328300  1
  O  O3  1  0.04037500  0.49775500  0.75328300  1
  O  O4  1  0.23592200  0.03516600  0.00016300  1
  O  O5  1  0.23592200  0.46483400  0.50016300  1
  O  O6  1  0.24557900  0.24065600  0.24478200  1
  O  O7  1  0.24557900  0.25934400  0.74478200  1
  O  O8  1  0.25442100  0.74065600  0.24478200  1
  O  O9  1  0.25442100  0.75934400  0.74478200  1
  O  O10  1  0.26407800  0.53516600  0.00016300  1
  O  O11  1  0.26407800  0.96483400  0.50016300  1
  O  O12  1  0.45962500  0.50224500  0.25328300  1
  O  O13  1  0.45962500  0.99775500  0.75328300  1
  O  O14  1  0.49543700  0.74936100  0.47645200  1
  O  O15  1  0.49543700  0.75063900  0.97645200  1
  O  O16  1  0.50456300  0.24936100  0.02354800  1
  O  O17  1  0.50456300  0.25063900  0.52354800  1
  O  O18  1  0.54037500  0.00224500  0.24671700  1
  O  O19  1  0.54037500  0.49775500  0.74671700  1
  O  O20  1  0.73592200  0.03516600  0.49983700  1
  O  O21  1  0.73592200  0.46483400  0.99983700  1
  O  O22  1  0.74557900  0.24065600  0.25521800  1
  O  O23  1  0.74557900  0.25934400  0.75521800  1
  O  O24  1  0.75442100  0.74065600  0.25521800  1
  O  O25  1  0.75442100  0.75934400  0.75521800  1
  O  O26  1  0.76407800  0.53516600  0.49983700  1
  O  O27  1  0.76407800  0.96483400  0.99983700  1
  O  O28  1  0.95962500  0.50224500  0.24671700  1
  O  O29  1  0.95962500  0.99775500  0.74671700  1
  O  O30  1  0.99543700  0.74936100  0.02354800  1
  O  O31  1  0.99543700  0.75063900  0.52354800  1
loop_
_geom_bond_atom_site_label_1
_geom_bond_atom_site_label_2
_geom_bond_distance
_geom_bond_site_symmetry_2
Li0 O28 1.944638 1_455
Li0 O30 1.999737 1_455
Li0 O8 2.056005 1_555
Li0 O10 2.058522 1_555
Li1 O29 1.944638 1_455
Li1 O31 1.999737 1_455
Li1 O9 2.056005 1_555
Li1 O11 2.058522 1_555
Li2 O29 1.968352 1_445
Li2 O4 2.006043 1_556
Li2 O7 2.017349 1_555
Li2 O1 2.076438 1_555
Li3 O28 1.968352 1_455
Li3 O5 2.006043 1_555
Li3 O6 2.017349 1_555
Li3 O0 2.076438 1_555
Li4 O2 1.989283 1_565
Li4 O11 1.994723 1_555
Li4 O8 2.019452 1_555
Li4 O31 2.023453 1_455
Li5 O3 1.989283 1_555
Li5 O10 1.994723 1_556
Li5 O9 2.019452 1_555
Li5 O30 2.023453 1_456
Li6 O8 1.971496 1_555
Li6 O30 2.000425 1_455
Li6 O4 2.003674 1_565
Li6 O2 2.043444 1_565
Li7 O9 1.971496 1_555
Li7 O31 2.000425 1_455
Li7 O5 2.003674 1_555
Li7 O3 2.043444 1_555
Li8 O11 1.951528 1_545
Li8 O6 1.976117 1_555
Li8 O2 2.017241 1_555
Li8 O0 2.040176 1_555
Li9 O10 1.951528 1_556
Li9 O7 1.976117 1_555
Li9 O3 2.017241 1_555
Li9 O1 2.040176 1_555
Li10 O4 1.951528 1_566
Li10 O9 1.976117 1_555
Li10 O13 2.017241 1_555
Li10 O15 2.040176 1_555
Li11 O5 1.951528 1_555
Li11 O8 1.976117 1_555
Li11 O12 2.017241 1_555
Li11 O14 2.040176 1_555
Li12 O6 1.971496 1_555
Li12 O16 2.000425 1_555
Li12 O10 2.003674 1_555
Li12 O12 2.043444 1_555
Li13 O7 1.971496 1_555
Li13 O17 2.000425 1_555
Li13 O11 2.003674 1_545
Li13 O13 2.043444 1_545
Li14 O12 1.989283 1_555
Li14 O5 1.994723 1_555
Li14 O6 2.019452 1_555
Li14 O17 2.023453 1_555
Li15 O13 1.989283 1_545
Li15 O4 1.994723 1_556
Li15 O7 2.019452 1_555
Li15 O16 2.023453 1_556
Li16 O18 1.968352 1_565
Li16 O11 2.006043 1_555
Li16 O8 2.017349 1_555
Li16 O14 2.076438 1_555
Li17 O19 1.968352 1_555
Li17 O10 2.006043 1_556
Li17 O9 2.017349 1_555
Li17 O15 2.076438 1_555
Li18 O18 1.944638 1_555
Li18 O16 1.999737 1_555
Li18 O6 2.056005 1_555
Li18 O4 2.058522 1_555
Li19 O19 1.944638 1_555
Li19 O17 1.999737 1_555
Li19 O7 2.056005 1_555
Li19 O5 2.058522 1_555
Li20 O12 1.944638 1_555
Li20 O14 1.999737 1_555
Li20 O24 2.056005 1_555
Li20 O26 2.058522 1_555
Li21 O13 1.944638 1_555
Li21 O15 1.999737 1_555
Li21 O25 2.056005 1_555
Li21 O27 2.058522 1_555
Li22 O13 1.968352 1_545
Li22 O20 2.006043 1_555
Li22 O23 2.017349 1_555
Li22 O17 2.076438 1_555
Li23 O12 1.968352 1_555
Li23 O21 2.006043 1_554
Li23 O22 2.017349 1_555
Li23 O16 2.076438 1_555
Li24 O19 1.989283 1_555
Li24 O26 1.994723 1_555
Li24 O25 2.019452 1_555
Li24 O14 2.023453 1_555
Li25 O18 1.989283 1_565
Li25 O27 1.994723 1_554
Li25 O24 2.019452 1_555
Li25 O15 2.023453 1_554
Li26 O25 1.971496 1_555
Li26 O15 2.000425 1_555
Li26 O21 2.003674 1_555
Li26 O19 2.043444 1_555
Li27 O24 1.971496 1_555
Li27 O14 2.000425 1_555
Li27 O20 2.003674 1_565
Li27 O18 2.043444 1_565
Li28 O27 1.951528 1_544
Li28 O22 1.976117 1_555
Li28 O18 2.017241 1_555
Li28 O16 2.040176 1_555
Li29 O26 1.951528 1_555
Li29 O23 1.976117 1_555
Li29 O19 2.017241 1_555
Li29 O17 2.040176 1_555
Li30 O21 1.951528 1_554
Li30 O24 1.976117 1_555
Li30 O28 2.017241 1_555
Li30 O30 2.040176 1_555
Li31 O20 1.951528 1_565
Li31 O25 1.976117 1_555
Li31 O29 2.017241 1_555
Li31 O31 2.040176 1_555
Li32 O22 1.971496 1_555
Li32 O0 2.000425 1_655
Li32 O26 2.003674 1_555
Li32 O28 2.043444 1_555
Li33 O23 1.971496 1_555
Li33 O1 2.000425 1_655
Li33 O27 2.003674 1_545
Li33 O29 2.043444 1_545
Li34 O29 1.989283 1_545
Li34 O20 1.994723 1_555
Li34 O23 2.019452 1_555
Li34 O0 2.023453 1_655
Li35 O28 1.989283 1_555
Li35 O21 1.994723 1_554
Li35 O22 2.019452 1_555
Li35 O1 2.023453 1_654
Li36 O3 1.968352 1_655
Li36 O26 2.006043 1_555
Li36 O25 2.017349 1_555
Li36 O31 2.076438 1_555
Li37 O2 1.968352 1_665
Li37 O27 2.006043 1_554
Li37 O24 2.017349 1_555
Li37 O30 2.076438 1_555
Li38 O2 1.944638 1_655
Li38 O0 1.999737 1_655
Li38 O22 2.056005 1_555
Li38 O20 2.058522 1_555
Li39 O3 1.944638 1_655
Li39 O1 1.999737 1_655
Li39 O23 2.056005 1_555
Li39 O21 2.058522 1_555
Cr0 O1 1.901817 1_554
Cr0 O4 1.922375 1_555
Cr0 O6 1.926318 1_555
Cr0 O2 1.943208 1_555
Cr1 O0 1.901817 1_555
Cr1 O5 1.922375 1_555
Cr1 O7 1.926318 1_555
Cr1 O3 1.943208 1_555
Cr2 O15 1.901817 1_554
Cr2 O10 1.922375 1_555
Cr2 O8 1.926318 1_555
Cr2 O12 1.943208 1_555
Cr3 O14 1.901817 1_555
Cr3 O11 1.922375 1_555
Cr3 O9 1.926318 1_555
Cr3 O13 1.943208 1_555
Cr4 O17 1.901817 1_555
Cr4 O20 1.922375 1_555
Cr4 O22 1.926318 1_555
Cr4 O18 1.943208 1_555
Cr5 O16 1.901817 1_556
Cr5 O21 1.922375 1_555
Cr5 O23 1.926318 1_555
Cr5 O19 1.943208 1_555
Cr6 O31 1.901817 1_555
Cr6 O26 1.922375 1_555
Cr6 O24 1.926318 1_555
Cr6 O28 1.943208 1_555
Cr7 O30 1.901817 1_556
Cr7 O27 1.922375 1_555
Cr7 O25 1.926318 1_555
Cr7 O29 1.943208 1_555
