# generated using pymatgen
data_Li8Nb2S9
_symmetry_space_group_name_H-M   'P 1'
_cell_length_a   7.25302000
_cell_length_b   10.91950029
_cell_length_c   18.70398679
_cell_angle_alpha   85.71428183
_cell_angle_beta   79.00565118
_cell_angle_gamma   70.79695210
_symmetry_Int_Tables_number   1
_chemical_formula_structural   Li8Nb2S9
_chemical_formula_sum   'Li32 Nb8 S36'
_cell_volume   1373.12917069
_cell_formula_units_Z   4
loop_
 _symmetry_equiv_pos_site_id
 _symmetry_equiv_pos_as_xyz
  1  'x, y, z'
loop_
 _atom_site_type_symbol
 _atom_site_label
 _atom_site_symmetry_multiplicity
 _atom_site_fract_x
 _atom_site_fract_y
 _atom_site_fract_z
 _atom_site_occupancy
  Li  Li0  1  0.08658500  0.12527200  0.04128100  1
  Li  Li1  1  0.78185400  0.62746100  0.04894300  1
  Li  Li2  1  0.28668700  0.62587600  0.05274800  1
  Li  Li3  1  0.50332000  0.12312500  0.03945100  1
  Li  Li4  1  0.59014000  0.40041600  0.15781200  1
  Li  Li5  1  0.86816400  0.85177000  0.15834000  1
  Li  Li6  1  0.16269700  0.62636800  0.23950700  1
  Li  Li7  1  0.71244900  0.63434900  0.24084000  1
  Li  Li8  1  0.95759600  0.12549300  0.25703100  1
  Li  Li9  1  0.41377500  0.11849200  0.25780600  1
  Li  Li10  1  0.53339800  0.34297800  0.33941300  1
  Li  Li11  1  0.26006700  0.89157000  0.34346900  1
  Li  Li12  1  0.03581200  0.63064800  0.46051700  1
  Li  Li13  1  0.82805100  0.12207700  0.44578400  1
  Li  Li14  1  0.62353900  0.62439100  0.45808500  1
  Li  Li15  1  0.65737600  0.86981800  0.54843200  1
  Li  Li16  1  0.34262400  0.13018200  0.45156800  1
  Li  Li17  1  0.37646100  0.37560900  0.54191500  1
  Li  Li18  1  0.17194900  0.87792300  0.55421600  1
  Li  Li19  1  0.96418800  0.36935200  0.53948300  1
  Li  Li20  1  0.73993300  0.10843000  0.65653100  1
  Li  Li21  1  0.46660200  0.65702200  0.66058700  1
  Li  Li22  1  0.58622500  0.88150800  0.74219400  1
  Li  Li23  1  0.04240400  0.87450700  0.74296900  1
  Li  Li24  1  0.28755100  0.36565100  0.75916000  1
  Li  Li25  1  0.83730300  0.37363200  0.76049300  1
  Li  Li26  1  0.13183600  0.14823000  0.84166000  1
  Li  Li27  1  0.40986000  0.59958400  0.84218800  1
  Li  Li28  1  0.49668000  0.87687500  0.96054900  1
  Li  Li29  1  0.71331300  0.37412400  0.94725200  1
  Li  Li30  1  0.21814600  0.37253900  0.95105700  1
  Li  Li31  1  0.91341500  0.87472800  0.95871900  1
  Nb  Nb0  1  0.34450500  0.86475200  0.14423700  1
  Nb  Nb1  1  0.12345400  0.37507600  0.13609900  1
  Nb  Nb2  1  0.73044800  0.87158500  0.36473900  1
  Nb  Nb3  1  0.00598400  0.35620600  0.35638400  1
  Nb  Nb4  1  0.99401600  0.64379400  0.64361600  1
  Nb  Nb5  1  0.26955200  0.12841500  0.63526100  1
  Nb  Nb6  1  0.87654600  0.62492400  0.86390100  1
  Nb  Nb7  1  0.65549500  0.13524800  0.85576300  1
  S  S0  1  0.16280900  0.88063000  0.05284900  1
  S  S1  1  0.64430900  0.88786900  0.06721800  1
  S  S2  1  0.90673600  0.36055600  0.05994400  1
  S  S3  1  0.41453600  0.36778700  0.05442800  1
  S  S4  1  0.47774000  0.63797100  0.15254900  1
  S  S5  1  0.99520600  0.60672200  0.14166100  1
  S  S6  1  0.23476500  0.12677100  0.15313700  1
  S  S7  1  0.07755700  0.87805600  0.24693800  1
  S  S8  1  0.56825400  0.87501600  0.25402900  1
  S  S9  1  0.82819600  0.37776600  0.25137500  1
  S  S10  1  0.28474400  0.37623100  0.24877400  1
  S  S11  1  0.64894900  0.10348700  0.34445700  1
  S  S12  1  0.88042000  0.63638100  0.34636600  1
  S  S13  1  0.12810400  0.13306400  0.35835500  1
  S  S14  1  0.95793700  0.86991600  0.44207500  1
  S  S15  1  0.21610400  0.39353900  0.43226900  1
  S  S16  1  0.45812600  0.86688400  0.45029900  1
  S  S17  1  0.71535800  0.38596400  0.44262200  1
  S  S18  1  0.28464200  0.61403600  0.55737800  1
  S  S19  1  0.54187400  0.13311600  0.54970100  1
  S  S20  1  0.78389600  0.60646100  0.56773100  1
  S  S21  1  0.04206300  0.13008400  0.55792500  1
  S  S22  1  0.87189600  0.86693600  0.64164500  1
  S  S23  1  0.11958000  0.36361900  0.65363400  1
  S  S24  1  0.35105100  0.89651300  0.65554300  1
  S  S25  1  0.71525600  0.62376900  0.75122600  1
  S  S26  1  0.17180400  0.62223400  0.74862500  1
  S  S27  1  0.43174600  0.12498400  0.74597100  1
  S  S28  1  0.92244300  0.12194400  0.75306200  1
  S  S29  1  0.76523500  0.87322900  0.84686300  1
  S  S30  1  0.00479400  0.39327800  0.85833900  1
  S  S31  1  0.52226000  0.36202900  0.84745100  1
  S  S32  1  0.58546400  0.63221300  0.94557200  1
  S  S33  1  0.09326400  0.63944400  0.94005600  1
  S  S34  1  0.35569100  0.11213100  0.93278200  1
  S  S35  1  0.83719100  0.11937000  0.94715100  1
loop_
_geom_bond_atom_site_label_1
_geom_bond_atom_site_label_2
_geom_bond_distance
_geom_bond_site_symmetry_2
Li0 S2 2.485932 1_455
Li0 S34 2.509387 1_554
Li0 S6 2.531167 1_555
Li0 S0 2.544871 1_545
Li0 S35 2.772044 1_454
Li1 S5 2.487502 1_555
Li1 S32 2.599373 1_554
Li1 S4 2.621084 1_555
Li1 S1 2.710499 1_555
Li1 S2 2.757131 1_555
Li1 S33 2.768849 1_654
Li2 S5 2.485309 1_455
Li2 S4 2.562417 1_555
Li2 S0 2.627083 1_555
Li2 S3 2.661182 1_555
Li2 S32 2.672134 1_554
Li2 S33 2.716125 1_554
Li3 S34 2.465095 1_554
Li3 S1 2.487901 1_545
Li3 S3 2.557704 1_555
Li3 S6 2.588240 1_555
Li3 S35 2.682681 1_554
Li4 S4 2.450380 1_555
Li4 S2 2.582919 1_555
Li4 S10 2.598267 1_555
Li4 S3 2.613276 1_555
Li4 S9 2.629032 1_555
Li5 S8 2.493820 1_555
Li5 S1 2.496074 1_555
Li5 S7 2.540243 1_655
Li5 S5 2.549404 1_555
Li5 S0 2.702084 1_655
Li6 S5 2.439102 1_455
Li6 S12 2.554017 1_455
Li6 S4 2.573870 1_555
Li6 S10 2.582878 1_555
Li6 S7 2.619497 1_555
Li7 S5 2.442069 1_555
Li7 S8 2.500261 1_555
Li7 S12 2.514352 1_555
Li7 S4 2.577767 1_555
Li7 S9 2.650800 1_555
Li8 S13 2.472354 1_655
Li8 S6 2.518346 1_655
Li8 S7 2.561247 1_645
Li8 S11 2.577205 1_555
Li8 S9 2.602682 1_555
Li9 S13 2.489351 1_555
Li9 S8 2.523296 1_545
Li9 S6 2.528334 1_555
Li9 S11 2.528630 1_555
Li9 S10 2.661148 1_555
Li10 S11 2.470154 1_555
Li10 S15 2.529890 1_555
Li10 S9 2.554500 1_555
Li10 S10 2.627149 1_555
Li10 S17 2.683896 1_555
Li11 S7 2.472633 1_555
Li11 S8 2.486127 1_555
Li11 S13 2.509005 1_565
Li11 S16 2.624588 1_555
Li11 S14 2.644542 1_455
Li12 S14 2.496595 1_455
Li12 S20 2.504061 1_455
Li12 S15 2.531076 1_555
Li12 S12 2.585383 1_455
Li12 S18 2.748629 1_555
Li13 S13 2.491938 1_655
Li13 S19 2.536196 1_555
Li13 S11 2.547657 1_555
Li13 S14 2.602142 1_545
Li13 S17 2.723658 1_555
Li13 S21 2.859202 1_655
Li14 S17 2.490760 1_555
Li14 S20 2.509363 1_555
Li14 S16 2.528078 1_555
Li14 S12 2.547451 1_555
Li14 S18 2.813189 1_555
Li15 S22 2.540821 1_555
Li15 S16 2.551374 1_555
Li15 S24 2.645445 1_555
Li15 S14 2.656450 1_555
Li15 S19 2.717839 1_565
Li15 S20 2.734487 1_555
Li16 S13 2.540821 1_555
Li16 S19 2.551374 1_555
Li16 S11 2.645445 1_555
Li16 S21 2.656450 1_555
Li16 S16 2.717839 1_545
Li16 S15 2.734487 1_555
Li17 S18 2.490760 1_555
Li17 S15 2.509363 1_555
Li17 S19 2.528078 1_555
Li17 S23 2.547451 1_555
Li17 S17 2.813189 1_555
Li18 S22 2.491938 1_455
Li18 S16 2.536196 1_555
Li18 S24 2.547657 1_555
Li18 S21 2.602142 1_565
Li18 S18 2.723658 1_555
Li18 S14 2.859202 1_455
Li19 S21 2.496595 1_655
Li19 S15 2.504061 1_655
Li19 S20 2.531076 1_555
Li19 S23 2.585383 1_655
Li19 S17 2.748629 1_555
Li20 S28 2.472633 1_555
Li20 S27 2.486127 1_555
Li20 S22 2.509005 1_545
Li20 S19 2.624588 1_555
Li20 S21 2.644542 1_655
Li21 S24 2.470154 1_555
Li21 S20 2.529890 1_555
Li21 S26 2.554500 1_555
Li21 S25 2.627149 1_555
Li21 S18 2.683896 1_555
Li22 S22 2.489351 1_555
Li22 S27 2.523296 1_565
Li22 S29 2.528334 1_555
Li22 S24 2.528630 1_555
Li22 S25 2.661148 1_555
Li23 S22 2.472354 1_455
Li23 S29 2.518346 1_455
Li23 S28 2.561247 1_465
Li23 S24 2.577205 1_555
Li23 S26 2.602682 1_555
Li24 S30 2.442069 1_555
Li24 S27 2.500261 1_555
Li24 S23 2.514352 1_555
Li24 S31 2.577767 1_555
Li24 S26 2.650800 1_555
Li25 S30 2.439102 1_655
Li25 S23 2.554017 1_655
Li25 S31 2.573870 1_555
Li25 S25 2.582878 1_555
Li25 S28 2.619497 1_555
Li26 S27 2.493820 1_555
Li26 S34 2.496074 1_555
Li26 S28 2.540243 1_455
Li26 S30 2.549404 1_555
Li26 S35 2.702084 1_455
Li27 S31 2.450380 1_555
Li27 S33 2.582919 1_555
Li27 S25 2.598267 1_555
Li27 S32 2.613276 1_555
Li27 S26 2.629032 1_555
Li28 S1 2.465095 1_556
Li28 S34 2.487901 1_565
Li28 S32 2.557704 1_555
Li28 S29 2.588240 1_555
Li28 S0 2.682681 1_556
Li29 S30 2.485309 1_655
Li29 S31 2.562417 1_555
Li29 S35 2.627083 1_555
Li29 S32 2.661182 1_555
Li29 S3 2.672134 1_556
Li29 S2 2.716125 1_556
Li30 S30 2.487502 1_555
Li30 S3 2.599373 1_556
Li30 S31 2.621084 1_555
Li30 S34 2.710499 1_555
Li30 S33 2.757131 1_555
Li30 S2 2.768849 1_456
Li31 S33 2.485932 1_655
Li31 S1 2.509387 1_556
Li31 S29 2.531167 1_555
Li31 S35 2.544871 1_565
Li31 S0 2.772044 1_656
Nb0 S0 2.313688 1_555
Nb0 S4 2.348575 1_555
Nb0 S7 2.428557 1_555
Nb0 S1 2.445251 1_555
Nb0 S6 2.714736 1_565
Nb0 S8 2.878971 1_555
Nb1 S3 2.339786 1_555
Nb1 S2 2.361461 1_455
Nb1 S5 2.393502 1_455
Nb1 S6 2.575628 1_555
Nb1 S10 2.600801 1_555
Nb1 S9 2.728132 1_455
Nb2 S16 2.305140 1_555
Nb2 S14 2.387830 1_555
Nb2 S11 2.421345 1_565
Nb2 S12 2.459486 1_555
Nb2 S8 2.561590 1_555
Nb2 S7 3.029181 1_655
Nb3 S13 2.302652 1_555
Nb3 S17 2.341268 1_455
Nb3 S15 2.413207 1_555
Nb3 S9 2.504613 1_455
Nb3 S10 2.619097 1_555
Nb3 S12 2.893235 1_455
Nb4 S22 2.302652 1_555
Nb4 S18 2.341268 1_655
Nb4 S20 2.413207 1_555
Nb4 S26 2.504613 1_655
Nb4 S25 2.619097 1_555
Nb4 S23 2.893235 1_655
Nb5 S19 2.305140 1_555
Nb5 S21 2.387830 1_555
Nb5 S24 2.421345 1_545
Nb5 S23 2.459486 1_555
Nb5 S27 2.561590 1_555
Nb5 S28 3.029181 1_455
Nb6 S32 2.339786 1_555
Nb6 S33 2.361461 1_655
Nb6 S30 2.393502 1_655
Nb6 S29 2.575628 1_555
Nb6 S25 2.600801 1_555
Nb6 S26 2.728132 1_655
Nb7 S35 2.313688 1_555
Nb7 S31 2.348575 1_555
Nb7 S28 2.428557 1_555
Nb7 S34 2.445251 1_555
Nb7 S29 2.714736 1_545
Nb7 S27 2.878971 1_555
