# generated using pymatgen
data_CaZnP2H5O8
_symmetry_space_group_name_H-M   'P 1'
_cell_length_a   8.09231300
_cell_length_b   7.29523100
_cell_length_c   15.50905415
_cell_angle_alpha   67.64882908
_cell_angle_beta   90.00000000
_cell_angle_gamma   90.00000000
_symmetry_Int_Tables_number   1
_chemical_formula_structural   CaZnP2H5O8
_chemical_formula_sum   'Ca4 Zn4 P8 H20 O32'
_cell_volume   846.79432718
_cell_formula_units_Z   4
loop_
 _symmetry_equiv_pos_site_id
 _symmetry_equiv_pos_as_xyz
  1  'x, y, z'
loop_
 _atom_site_type_symbol
 _atom_site_label
 _atom_site_symmetry_multiplicity
 _atom_site_fract_x
 _atom_site_fract_y
 _atom_site_fract_z
 _atom_site_occupancy
  Ca  Ca0  1  0.05139400  0.61556800  0.36613800  1
  Ca  Ca1  1  0.44860600  0.61556800  0.86613800  1
  Ca  Ca2  1  0.94860600  0.38443200  0.63386200  1
  Ca  Ca3  1  0.55139400  0.38443200  0.13386200  1
  Zn  Zn0  1  0.57114700  0.51740300  0.35730800  1
  Zn  Zn1  1  0.92885300  0.51740300  0.85730800  1
  Zn  Zn2  1  0.42885300  0.48259700  0.64269200  1
  Zn  Zn3  1  0.07114700  0.48259700  0.14269200  1
  P  P0  1  0.29655200  0.26970300  0.50972400  1
  P  P1  1  0.20344800  0.26970300  0.00972400  1
  P  P2  1  0.70344800  0.73029700  0.49027600  1
  P  P3  1  0.79655200  0.73029700  0.99027600  1
  P  P4  1  0.86455000  0.26691900  0.32088500  1
  P  P5  1  0.63545000  0.26691900  0.82088500  1
  P  P6  1  0.13545000  0.73308100  0.67911500  1
  P  P7  1  0.36455000  0.73308100  0.17911500  1
  H  H0  1  0.28866300  0.06456200  0.52878300  1
  H  H1  1  0.21133700  0.06456200  0.02878300  1
  H  H2  1  0.71133700  0.93543800  0.47121700  1
  H  H3  1  0.78866300  0.93543800  0.97121700  1
  H  H4  1  0.93048000  0.08407200  0.38228600  1
  H  H5  1  0.56952000  0.08407200  0.88228600  1
  H  H6  1  0.06952000  0.91592800  0.61771400  1
  H  H7  1  0.43048000  0.91592800  0.11771400  1
  H  H8  1  0.21304500  0.77954300  0.49321700  1
  H  H9  1  0.28695500  0.77954300  0.99321700  1
  H  H10  1  0.78695500  0.22045700  0.50678300  1
  H  H11  1  0.71304500  0.22045700  0.00678300  1
  H  H12  1  0.24022600  0.96028600  0.39485000  1
  H  H13  1  0.25977400  0.96028600  0.89485000  1
  H  H14  1  0.75977400  0.03971400  0.60515000  1
  H  H15  1  0.74022600  0.03971400  0.10515000  1
  H  H16  1  0.82792200  0.97279800  0.25419200  1
  H  H17  1  0.67207800  0.97279800  0.75419200  1
  H  H18  1  0.17207800  0.02720200  0.74580800  1
  H  H19  1  0.32792200  0.02720200  0.24580800  1
  O  O0  1  0.78094300  0.36117000  0.38501000  1
  O  O1  1  0.71905700  0.36117000  0.88501000  1
  O  O2  1  0.21905700  0.63883000  0.61499000  1
  O  O3  1  0.28094300  0.63883000  0.11499000  1
  O  O4  1  0.59368700  0.71775900  0.41134300  1
  O  O5  1  0.90631300  0.71775900  0.91134300  1
  O  O6  1  0.40631300  0.28224100  0.58865700  1
  O  O7  1  0.09368700  0.28224100  0.08865700  1
  O  O8  1  0.24936800  0.77497000  0.24654800  1
  O  O9  1  0.25063200  0.77497000  0.74654800  1
  O  O10  1  0.75063200  0.22503000  0.75345200  1
  O  O11  1  0.74936800  0.22503000  0.25345200  1
  O  O12  1  0.37203700  0.36479600  0.41174100  1
  O  O13  1  0.12796300  0.36479600  0.91174100  1
  O  O14  1  0.62796300  0.63520400  0.58825900  1
  O  O15  1  0.87203700  0.63520400  0.08825900  1
  O  O16  1  0.51737100  0.60204600  0.22355900  1
  O  O17  1  0.98262900  0.60204600  0.72355900  1
  O  O18  1  0.48262900  0.39795400  0.77644100  1
  O  O19  1  0.01737100  0.39795400  0.27644100  1
  O  O20  1  0.19716000  0.82627300  0.42476400  1
  O  O21  1  0.30284000  0.82627300  0.92476400  1
  O  O22  1  0.80284000  0.17372700  0.57523600  1
  O  O23  1  0.69716000  0.17372700  0.07523600  1
  O  O24  1  0.85058400  0.83267600  0.26167300  1
  O  O25  1  0.64941600  0.83267600  0.76167300  1
  O  O26  1  0.14941600  0.16732400  0.73832700  1
  O  O27  1  0.35058400  0.16732400  0.23832700  1
  O  O28  1  0.87852200  0.64935900  0.49052400  1
  O  O29  1  0.62147800  0.64935900  0.99052400  1
  O  O30  1  0.12147800  0.35064100  0.50947600  1
  O  O31  1  0.37852200  0.35064100  0.00947600  1
loop_
_geom_bond_atom_site_label_1
_geom_bond_atom_site_label_2
_geom_bond_distance
_geom_bond_site_symmetry_2
Ca0 O20 2.375692 1_555
Ca0 O8 2.391342 1_555
Ca0 O30 2.393980 1_555
Ca0 O24 2.412985 1_455
Ca0 O28 2.470007 1_455
Ca0 O19 2.492183 1_555
Ca0 O0 2.811890 1_455
Ca1 O21 2.375692 1_555
Ca1 O9 2.391342 1_555
Ca1 O31 2.393980 1_556
Ca1 O25 2.412985 1_555
Ca1 O29 2.470007 1_555
Ca1 O18 2.492183 1_555
Ca1 O1 2.811890 1_555
Ca2 O22 2.375692 1_555
Ca2 O10 2.391342 1_555
Ca2 O28 2.393980 1_555
Ca2 O26 2.412985 1_655
Ca2 O30 2.470007 1_655
Ca2 O17 2.492183 1_555
Ca2 O2 2.811890 1_655
Ca3 O23 2.375692 1_555
Ca3 O11 2.391342 1_555
Ca3 O29 2.393980 1_554
Ca3 O27 2.412985 1_555
Ca3 O31 2.470007 1_555
Ca3 O16 2.492183 1_555
Ca3 O3 2.811890 1_555
H0 P0 1.412327 1_555
H1 P1 1.412327 1_555
H2 P2 1.412327 1_555
H3 P3 1.412327 1_555
H4 P4 1.415869 1_555
H5 P5 1.415869 1_555
H6 P6 1.415869 1_555
H7 P7 1.415869 1_555
H8 O20 0.992250 1_555
H9 O21 0.992250 1_555
H10 O22 0.992250 1_555
H11 O23 0.992250 1_555
H12 O20 0.973413 1_555
H13 O21 0.973413 1_555
H14 O22 0.973413 1_555
H15 O23 0.973413 1_555
H16 O24 1.000913 1_555
H17 O25 1.000913 1_555
H18 O26 1.000913 1_555
H19 O27 1.000913 1_555
O0 P4 1.561945 1_555
O0 Zn0 1.998375 1_555
O1 P5 1.561945 1_555
O1 Zn1 1.998375 1_555
O2 P6 1.561945 1_555
O2 Zn2 1.998375 1_555
O3 P7 1.561945 1_555
O3 Zn3 1.998375 1_555
O4 P2 1.543072 1_555
O4 Zn0 1.950279 1_555
O5 P3 1.543072 1_555
O5 Zn1 1.950279 1_555
O6 P0 1.543072 1_555
O6 Zn2 1.950279 1_555
O7 P1 1.543072 1_555
O7 Zn3 1.950279 1_555
O8 P7 1.516242 1_555
O9 P6 1.516242 1_555
O10 P5 1.516242 1_555
O11 P4 1.516242 1_555
O12 P0 1.536834 1_555
O12 Zn0 1.957924 1_555
O13 P1 1.536834 1_556
O13 Zn1 1.957924 1_455
O14 P2 1.536834 1_555
O14 Zn2 1.957924 1_555
O15 P3 1.536834 1_554
O15 Zn3 1.957924 1_655
O16 P7 1.554715 1_555
O16 Zn0 1.974662 1_555
O17 P6 1.554715 1_655
O17 Zn1 1.974662 1_555
O18 P5 1.554715 1_555
O18 Zn2 1.974662 1_555
O19 P4 1.554715 1_455
O19 Zn3 1.974662 1_555
O28 P2 1.534315 1_555
O29 P3 1.534315 1_555
O30 P0 1.534315 1_555
O31 P1 1.534315 1_555
