# generated using pymatgen
data_Li32Mn5Cr11O48
_symmetry_space_group_name_H-M   'P 1'
_cell_length_a   5.02216817
_cell_length_b   5.02216817
_cell_length_c   38.48053647
_cell_angle_alpha   88.94805263
_cell_angle_beta   88.94805263
_cell_angle_gamma   119.76284296
_symmetry_Int_Tables_number   1
_chemical_formula_structural   Li32Mn5Cr11O48
_chemical_formula_sum   'Li32 Mn5 Cr11 O48'
_cell_volume   841.96936289
_cell_formula_units_Z   1
loop_
 _symmetry_equiv_pos_site_id
 _symmetry_equiv_pos_as_xyz
  1  'x, y, z'
loop_
 _atom_site_type_symbol
 _atom_site_label
 _atom_site_symmetry_multiplicity
 _atom_site_fract_x
 _atom_site_fract_y
 _atom_site_fract_z
 _atom_site_occupancy
  Li  Li0  1  0.46656200  0.91331900  0.43742100  1
  Li  Li1  1  0.87475700  0.00125900  0.18768500  1
  Li  Li2  1  0.81169300  0.94019000  0.37497200  1
  Li  Li3  1  0.74920700  0.87853100  0.56255000  1
  Li  Li4  1  0.68756800  0.81029900  0.74992600  1
  Li  Li5  1  0.62938800  0.74952300  0.93770300  1
  Li  Li6  1  0.56263400  0.68771100  0.12497500  1
  Li  Li7  1  0.16691300  0.96602900  0.31241200  1
  Li  Li8  1  0.49647300  0.62723100  0.31247300  1
  Li  Li9  1  0.03397100  0.83308700  0.68758800  1
  Li  Li10  1  0.91267800  0.71850300  0.06226600  1
  Li  Li11  1  0.43800400  0.56199600  0.50000000  1
  Li  Li12  1  0.37276900  0.50352700  0.68752700  1
  Li  Li13  1  0.78731900  0.58677200  0.43753100  1
  Li  Li14  1  0.66367600  0.46869600  0.81222600  1
  Li  Li15  1  0.33777100  0.78269100  0.81245100  1
  Li  Li16  1  0.21730900  0.66222900  0.18754900  1
  Li  Li17  1  0.53130400  0.33632400  0.18777400  1
  Li  Li18  1  0.41322800  0.21268100  0.56246900  1
  Li  Li19  1  0.08668100  0.53343800  0.56257900  1
  Li  Li20  1  0.96323900  0.41196000  0.93764600  1
  Li  Li21  1  0.31228900  0.43736600  0.87502500  1
  Li  Li22  1  0.83548000  0.28164600  0.31254900  1
  Li  Li23  1  0.71835400  0.16452000  0.68745100  1
  Li  Li24  1  0.25047700  0.37061200  0.06229700  1
  Li  Li25  1  0.58804000  0.03676100  0.06235400  1
  Li  Li26  1  0.18970100  0.31243200  0.25007400  1
  Li  Li27  1  0.12146900  0.25079300  0.43745000  1
  Li  Li28  1  0.05981000  0.18830700  0.62502800  1
  Li  Li29  1  0.99874100  0.12524300  0.81231500  1
  Li  Li30  1  0.93929900  0.06070100  0.00000000  1
  Li  Li31  1  0.28149700  0.08732200  0.93773400  1
  Mn  Mn0  1  0.52098200  0.97960200  0.24998100  1
  Mn  Mn1  1  0.39487700  0.85544500  0.62490700  1
  Mn  Mn2  1  0.60530000  0.39470000  0.00000000  1
  Mn  Mn3  1  0.14455500  0.60512300  0.37509300  1
  Mn  Mn4  1  0.02039800  0.47901800  0.75001900  1
  Cr  Cr0  1  0.10359200  0.89640800  0.50000000  1
  Cr  Cr1  1  0.98314500  0.76664600  0.87495400  1
  Cr  Cr2  1  0.85914500  0.64377500  0.25003600  1
  Cr  Cr3  1  0.72536300  0.52149400  0.62493900  1
  Cr  Cr4  1  0.27311000  0.72689000  0.00000000  1
  Cr  Cr5  1  0.47850600  0.27463700  0.37506100  1
  Cr  Cr6  1  0.89168200  0.35868300  0.12496900  1
  Cr  Cr7  1  0.77178400  0.22821600  0.50000000  1
  Cr  Cr8  1  0.64131700  0.10831800  0.87503100  1
  Cr  Cr9  1  0.35622500  0.14085500  0.74996400  1
  Cr  Cr10  1  0.23335400  0.01685500  0.12504600  1
  O  O0  1  0.43688500  0.91780600  0.52802100  1
  O  O1  1  0.46184100  0.94170100  0.34695200  1
  O  O2  1  0.80387900  0.92833400  0.47118400  1
  O  O3  1  0.68098300  0.80604100  0.84652000  1
  O  O4  1  0.81824200  0.94207700  0.27838000  1
  O  O5  1  0.69446900  0.82343500  0.65359600  1
  O  O6  1  0.57219000  0.69453000  0.02850500  1
  O  O7  1  0.55339600  0.68014300  0.22145100  1
  O  O8  1  0.42954800  0.55590900  0.59642700  1
  O  O9  1  0.16711300  0.93127500  0.40291700  1
  O  O10  1  0.44409100  0.57045200  0.40357300  1
  O  O11  1  0.03276900  0.79930100  0.77811600  1
  O  O12  1  0.90715000  0.66772700  0.15339800  1
  O  O13  1  0.20069900  0.96723100  0.22188400  1
  O  O14  1  0.06872500  0.83288700  0.59708300  1
  O  O15  1  0.94094300  0.71194200  0.97187500  1
  O  O16  1  0.29227600  0.78200600  0.90342700  1
  O  O17  1  0.33636300  0.82102700  0.72212300  1
  O  O18  1  0.21799400  0.70772400  0.09657300  1
  O  O19  1  0.79298200  0.56159100  0.52812700  1
  O  O20  1  0.65640000  0.41789600  0.90331600  1
  O  O21  1  0.81786800  0.58162200  0.34713800  1
  O  O22  1  0.70223700  0.46796300  0.72176800  1
  O  O23  1  0.58210400  0.34360000  0.09668400  1
  O  O24  1  0.17897300  0.66363700  0.27787700  1
  O  O25  1  0.05829900  0.53815900  0.65304800  1
  O  O26  1  0.93213800  0.41785300  0.02783500  1
  O  O27  1  0.08219400  0.56311500  0.47197900  1
  O  O28  1  0.96804600  0.45698500  0.84667100  1
  O  O29  1  0.53203700  0.29776300  0.27823200  1
  O  O30  1  0.41837800  0.18213200  0.65286200  1
  O  O31  1  0.43840900  0.20701800  0.47187300  1
  O  O32  1  0.80924100  0.28795100  0.40326400  1
  O  O33  1  0.67748000  0.16530100  0.77790600  1
  O  O34  1  0.54301500  0.03195400  0.15332900  1
  O  O35  1  0.83469900  0.32252000  0.22209400  1
  O  O36  1  0.71204900  0.19075900  0.59673600  1
  O  O37  1  0.30547000  0.42781000  0.97149500  1
  O  O38  1  0.58214700  0.06786200  0.97216500  1
  O  O39  1  0.31985700  0.44660400  0.77854900  1
  O  O40  1  0.19395900  0.31901700  0.15348000  1
  O  O41  1  0.17656500  0.30553100  0.34640400  1
  O  O42  1  0.05792300  0.18175800  0.72162000  1
  O  O43  1  0.93027400  0.05583600  0.09650500  1
  O  O44  1  0.07166600  0.19612100  0.52881600  1
  O  O45  1  0.94416400  0.06972600  0.90349500  1
  O  O46  1  0.28805800  0.05905700  0.02812500  1
  O  O47  1  0.33227300  0.09285000  0.84660200  1
loop_
_geom_bond_atom_site_label_1
_geom_bond_atom_site_label_2
_geom_bond_distance
_geom_bond_site_symmetry_2
Li0 O31 2.055521 1_565
Li0 O9 2.058211 1_555
Li0 O2 2.126285 1_555
Li0 O10 2.137544 1_555
Li0 O32 2.200162 1_565
Li0 O27 2.244361 1_555
Li1 O40 2.038266 1_655
Li1 O7 2.038577 1_545
Li1 O35 2.188084 1_555
Li1 O13 2.188420 1_645
Li1 O34 2.208098 1_555
Li1 O12 2.217398 1_545
Li2 O32 2.079997 1_565
Li2 O1 2.081400 1_555
Li2 O41 2.108740 1_665
Li2 O9 2.119567 1_655
Li2 O10 2.124727 1_555
Li2 O21 2.125096 1_555
Li3 O44 2.033222 1_665
Li3 O8 2.040838 1_555
Li3 O36 2.140425 1_565
Li3 O0 2.153764 1_555
Li3 O19 2.179605 1_555
Li3 O14 2.196742 1_655
Li4 O22 2.080044 1_555
Li4 O11 2.085008 1_655
Li4 O17 2.102399 1_555
Li4 O39 2.112413 1_555
Li4 O33 2.120999 1_565
Li4 O42 2.128900 1_665
Li5 O45 2.034653 1_565
Li5 O37 2.045339 1_555
Li5 O15 2.138362 1_555
Li5 O38 2.194028 1_565
Li5 O20 2.200416 1_555
Li5 O16 2.231800 1_555
Li6 O23 2.101021 1_555
Li6 O34 2.103212 1_565
Li6 O12 2.106616 1_555
Li6 O18 2.106783 1_555
Li6 O43 2.118863 1_565
Li6 O40 2.122977 1_555
Li7 O1 2.054595 1_555
Li7 O24 2.058766 1_555
Li7 O41 2.150024 1_565
Li7 O29 2.160085 1_565
Li7 O4 2.162544 1_455
Li7 O21 2.246091 1_455
Li8 O4 2.035157 1_555
Li8 O41 2.040775 1_555
Li8 O1 2.150816 1_555
Li8 O24 2.169498 1_555
Li8 O29 2.206960 1_555
Li8 O21 2.207272 1_555
Li9 O25 2.054595 1_555
Li9 O17 2.058766 1_555
Li9 O5 2.150024 1_455
Li9 O22 2.160085 1_455
Li9 O42 2.162544 1_565
Li9 O30 2.246091 1_565
Li10 O18 2.061795 1_655
Li10 O26 2.063982 1_555
Li10 O6 2.123496 1_555
Li10 O43 2.133407 1_565
Li10 O23 2.186244 1_555
Li10 O46 2.197862 1_665
Li11 O31 2.103347 1_555
Li11 O19 2.103347 1_555
Li11 O0 2.106258 1_555
Li11 O27 2.106258 1_555
Li11 O44 2.117720 1_555
Li11 O2 2.117720 1_555
Li12 O42 2.035157 1_555
Li12 O5 2.040775 1_555
Li12 O25 2.150816 1_555
Li12 O17 2.169498 1_555
Li12 O22 2.206960 1_555
Li12 O30 2.207272 1_555
Li13 O27 2.050695 1_655
Li13 O32 2.057770 1_555
Li13 O2 2.137830 1_555
Li13 O10 2.152190 1_555
Li13 O9 2.225175 1_655
Li13 O31 2.226816 1_555
Li14 O33 2.060580 1_555
Li14 O28 2.063422 1_555
Li14 O3 2.135290 1_555
Li14 O39 2.137868 1_555
Li14 O11 2.165791 1_655
Li14 O47 2.188893 1_555
Li15 O47 2.066547 1_565
Li15 O11 2.072692 1_555
Li15 O39 2.119751 1_555
Li15 O3 2.142761 1_555
Li15 O28 2.161730 1_455
Li15 O33 2.222214 1_565
Li16 O12 2.066547 1_455
Li16 O13 2.072692 1_555
Li16 O7 2.119751 1_555
Li16 O40 2.142761 1_555
Li16 O34 2.161730 1_565
Li16 O35 2.222214 1_455
Li17 O35 2.060580 1_555
Li17 O34 2.063422 1_555
Li17 O40 2.135290 1_555
Li17 O7 2.137868 1_555
Li17 O13 2.165791 1_545
Li17 O12 2.188893 1_555
Li18 O0 2.050695 1_545
Li18 O36 2.057770 1_555
Li18 O44 2.137830 1_555
Li18 O8 2.152190 1_555
Li18 O14 2.225175 1_545
Li18 O19 2.226816 1_555
Li19 O19 2.055521 1_455
Li19 O14 2.058211 1_555
Li19 O44 2.126285 1_555
Li19 O8 2.137544 1_555
Li19 O36 2.200162 1_455
Li19 O0 2.244361 1_555
Li20 O20 2.059031 1_555
Li20 O15 2.062057 1_555
Li20 O37 2.146430 1_655
Li20 O45 2.148110 1_555
Li20 O16 2.167857 1_655
Li20 O38 2.225420 1_555
Li21 O20 2.101021 1_555
Li21 O28 2.103212 1_455
Li21 O47 2.106616 1_555
Li21 O16 2.106783 1_555
Li21 O45 2.118863 1_455
Li21 O3 2.122977 1_555
Li22 O21 2.061705 1_555
Li22 O29 2.065236 1_555
Li22 O41 2.128277 1_655
Li22 O4 2.141152 1_545
Li22 O1 2.198553 1_545
Li22 O24 2.229834 1_655
Li23 O30 2.061705 1_555
Li23 O22 2.065236 1_555
Li23 O5 2.128277 1_545
Li23 O42 2.141152 1_655
Li23 O25 2.198553 1_655
Li23 O17 2.229834 1_545
Li24 O43 2.034653 1_455
Li24 O6 2.045339 1_555
Li24 O46 2.138362 1_555
Li24 O26 2.194028 1_455
Li24 O23 2.200416 1_555
Li24 O18 2.231800 1_555
Li25 O23 2.059031 1_555
Li25 O46 2.062057 1_555
Li25 O6 2.146430 1_545
Li25 O43 2.148110 1_555
Li25 O18 2.167857 1_545
Li25 O26 2.225420 1_555
Li26 O29 2.080044 1_555
Li26 O13 2.085008 1_545
Li26 O24 2.102399 1_555
Li26 O7 2.112413 1_555
Li26 O35 2.120999 1_455
Li26 O4 2.128900 1_445
Li27 O2 2.033222 1_445
Li27 O10 2.040838 1_555
Li27 O32 2.140425 1_455
Li27 O27 2.153764 1_555
Li27 O31 2.179605 1_555
Li27 O9 2.196742 1_545
Li28 O36 2.079997 1_455
Li28 O25 2.081400 1_555
Li28 O5 2.108740 1_445
Li28 O14 2.119567 1_545
Li28 O8 2.124727 1_555
Li28 O30 2.125096 1_555
Li29 O3 2.038266 1_545
Li29 O39 2.038577 1_655
Li29 O33 2.188084 1_555
Li29 O11 2.188420 1_645
Li29 O28 2.208098 1_555
Li29 O47 2.217398 1_655
Li30 O15 2.079145 1_544
Li30 O46 2.079145 1_655
Li30 O6 2.114163 1_545
Li30 O37 2.114163 1_654
Li30 O26 2.121088 1_555
Li30 O38 2.121088 1_554
Li31 O16 2.061795 1_545
Li31 O38 2.063982 1_555
Li31 O37 2.123496 1_555
Li31 O45 2.133407 1_455
Li31 O20 2.186244 1_555
Li31 O15 2.197862 1_445
Mn0 O29 1.927685 1_565
Mn0 O13 1.930609 1_555
Mn0 O35 1.943189 1_565
Mn0 O24 1.945330 1_555
Mn0 O4 1.946827 1_555
Mn0 O7 1.946977 1_555
Mn1 O14 1.930497 1_555
Mn1 O30 1.933946 1_565
Mn1 O36 1.937702 1_565
Mn1 O25 1.940180 1_555
Mn1 O5 1.950136 1_555
Mn1 O8 1.951393 1_555
Mn2 O26 1.932546 1_555
Mn2 O38 1.932546 1_554
Mn2 O15 1.937647 1_554
Mn2 O46 1.937647 1_555
Mn2 O37 1.949559 1_554
Mn2 O6 1.949559 1_555
Mn3 O9 1.930497 1_555
Mn3 O21 1.933946 1_455
Mn3 O32 1.937702 1_455
Mn3 O1 1.940180 1_555
Mn3 O41 1.950136 1_555
Mn3 O10 1.951393 1_555
Mn4 O22 1.927685 1_455
Mn4 O11 1.930609 1_555
Mn4 O33 1.943189 1_455
Mn4 O17 1.945330 1_555
Mn4 O42 1.946827 1_555
Mn4 O39 1.946977 1_555
Cr0 O31 1.923355 1_565
Cr0 O19 1.923355 1_455
Cr0 O44 1.953276 1_565
Cr0 O2 1.953276 1_455
Cr0 O0 1.966703 1_555
Cr0 O27 1.966703 1_555
Cr1 O28 1.885973 1_555
Cr1 O16 1.887685 1_655
Cr1 O3 1.972372 1_555
Cr1 O45 1.977551 1_565
Cr1 O47 1.990167 1_665
Cr1 O20 1.990513 1_555
Cr2 O24 1.909378 1_655
Cr2 O35 1.909480 1_555
Cr2 O4 1.957929 1_555
Cr2 O13 1.963530 1_655
Cr2 O29 1.981609 1_555
Cr2 O7 1.983482 1_555
Cr3 O30 1.923379 1_555
Cr3 O8 1.936117 1_555
Cr3 O14 1.939454 1_655
Cr3 O5 1.956597 1_555
Cr3 O36 1.974792 1_555
Cr3 O25 1.975740 1_655
Cr4 O26 1.929097 1_455
Cr4 O38 1.929097 1_564
Cr4 O6 1.944729 1_555
Cr4 O37 1.944729 1_554
Cr4 O15 1.976046 1_454
Cr4 O46 1.976046 1_565
Cr5 O21 1.923379 1_555
Cr5 O10 1.936117 1_555
Cr5 O9 1.939454 1_545
Cr5 O41 1.956597 1_555
Cr5 O32 1.974792 1_555
Cr5 O1 1.975740 1_545
Cr6 O23 1.885707 1_555
Cr6 O12 1.886127 1_555
Cr6 O43 1.973979 1_555
Cr6 O40 1.975174 1_655
Cr6 O34 1.990251 1_555
Cr6 O18 1.991045 1_655
Cr7 O0 1.921011 1_545
Cr7 O27 1.921011 1_655
Cr7 O44 1.954359 1_655
Cr7 O2 1.954359 1_545
Cr7 O19 1.969713 1_555
Cr7 O31 1.969713 1_555
Cr8 O20 1.885707 1_555
Cr8 O47 1.886127 1_555
Cr8 O45 1.973979 1_555
Cr8 O3 1.975174 1_545
Cr8 O28 1.990251 1_555
Cr8 O16 1.991045 1_545
Cr9 O17 1.909378 1_545
Cr9 O33 1.909480 1_555
Cr9 O42 1.957929 1_555
Cr9 O11 1.963530 1_545
Cr9 O22 1.981609 1_555
Cr9 O39 1.983482 1_555
Cr10 O34 1.885973 1_555
Cr10 O18 1.887685 1_545
Cr10 O40 1.972372 1_555
Cr10 O43 1.977551 1_455
Cr10 O12 1.990167 1_445
Cr10 O23 1.990513 1_555
