# generated using pymatgen
data_HfTiO4
_symmetry_space_group_name_H-M   'P 1'
_cell_length_a   4.77077700
_cell_length_b   5.68478575
_cell_length_c   10.17510644
_cell_angle_alpha   90.14598707
_cell_angle_beta   90.94091080
_cell_angle_gamma   90.05634046
_symmetry_Int_Tables_number   1
_chemical_formula_structural   HfTiO4
_chemical_formula_sum   'Hf4 Ti4 O16'
_cell_volume   275.91923550
_cell_formula_units_Z   4
loop_
 _symmetry_equiv_pos_site_id
 _symmetry_equiv_pos_as_xyz
  1  'x, y, z'
loop_
 _atom_site_type_symbol
 _atom_site_label
 _atom_site_symmetry_multiplicity
 _atom_site_fract_x
 _atom_site_fract_y
 _atom_site_fract_z
 _atom_site_occupancy
  Hf  Hf0  1  0.00173600  0.32768000  0.12088500  1
  Hf  Hf1  1  0.49914700  0.82093900  0.12183600  1
  Hf  Hf2  1  0.50135800  0.18190600  0.37938200  1
  Hf  Hf3  1  0.49871200  0.81755200  0.62838100  1
  Ti  Ti0  1  0.99981400  0.68100400  0.87199500  1
  Ti  Ti1  1  0.00222600  0.32711400  0.62807300  1
  Ti  Ti2  1  0.99654900  0.67247000  0.37791400  1
  Ti  Ti3  1  0.50202700  0.18709600  0.87129300  1
  O  O0  1  0.24550300  0.38676700  0.95443300  1
  O  O1  1  0.21693000  0.38959200  0.47008300  1
  O  O2  1  0.22484100  0.60870500  0.21854000  1
  O  O3  1  0.20725900  0.60975300  0.71419100  1
  O  O4  1  0.25822600  0.88411700  0.95237400  1
  O  O5  1  0.27270200  0.12175100  0.70946400  1
  O  O6  1  0.28099800  0.10666400  0.20849100  1
  O  O7  1  0.26649200  0.88159300  0.45660600  1
  O  O8  1  0.73158900  0.88291900  0.79691500  1
  O  O9  1  0.74271400  0.88552100  0.29465500  1
  O  O10  1  0.73654500  0.11462300  0.54936100  1
  O  O11  1  0.71034000  0.11384200  0.03292700  1
  O  O12  1  0.78799300  0.61391500  0.03103900  1
  O  O13  1  0.77810900  0.60727800  0.53541300  1
  O  O14  1  0.77381000  0.39689800  0.28828900  1
  O  O15  1  0.76437900  0.38030500  0.78745900  1
loop_
_geom_bond_atom_site_label_1
_geom_bond_atom_site_label_2
_geom_bond_distance
_geom_bond_site_symmetry_2
Hf0 O6 2.029339 1_555
Hf0 O11 2.040004 1_455
Hf0 O14 2.072899 1_455
Hf0 O0 2.097767 1_554
Hf0 O12 2.122153 1_455
Hf0 O2 2.150885 1_555
Hf1 O12 2.043770 1_555
Hf1 O2 2.044912 1_555
Hf1 O4 2.088572 1_554
Hf1 O9 2.122724 1_555
Hf1 O6 2.127215 1_565
Hf1 O11 2.154162 1_565
Hf2 O14 2.021029 1_555
Hf2 O1 2.031178 1_555
Hf2 O6 2.060824 1_555
Hf2 O10 2.082565 1_555
Hf2 O7 2.195336 1_545
Hf2 O9 2.221921 1_545
Hf3 O3 2.032996 1_555
Hf3 O13 2.034513 1_555
Hf3 O8 2.060704 1_555
Hf3 O7 2.086926 1_555
Hf3 O10 2.195224 1_565
Hf3 O5 2.204403 1_565
O0 Ti3 1.879798 1_555
O0 Ti0 2.203190 1_455
O1 Ti1 1.953430 1_555
O1 Ti2 2.132969 1_455
O2 Ti2 2.000783 1_455
O3 Ti0 1.942000 1_455
O3 Ti1 2.065877 1_555
O4 Ti0 1.865814 1_455
O4 Ti3 2.243850 1_565
O5 Ti1 1.920066 1_555
O5 Ti3 1.995809 1_555
O7 Ti2 1.916040 1_455
O8 Ti0 1.874538 1_555
O8 Ti3 2.187815 1_565
O9 Ti2 1.904073 1_555
O10 Ti1 1.914658 1_655
O11 Ti3 1.953602 1_554
O12 Ti0 1.960007 1_554
O13 Ti2 1.961816 1_555
O13 Ti1 2.132283 1_655
O14 Ti2 2.091075 1_555
O15 Ti3 1.880881 1_555
O15 Ti1 2.016869 1_655
O15 Ti0 2.209198 1_555
