# generated using pymatgen
data_Cr2Te(PO4)3
_symmetry_space_group_name_H-M   'P 1'
_cell_length_a   8.90425308
_cell_length_b   8.90425308
_cell_length_c   8.90425328
_cell_angle_alpha   57.56987276
_cell_angle_beta   57.56987276
_cell_angle_gamma   57.56987216
_symmetry_Int_Tables_number   1
_chemical_formula_structural   Cr2Te(PO4)3
_chemical_formula_sum   'Cr4 Te2 P6 O24'
_cell_volume   471.31216399
_cell_formula_units_Z   2
loop_
 _symmetry_equiv_pos_site_id
 _symmetry_equiv_pos_as_xyz
  1  'x, y, z'
loop_
 _atom_site_type_symbol
 _atom_site_label
 _atom_site_symmetry_multiplicity
 _atom_site_fract_x
 _atom_site_fract_y
 _atom_site_fract_z
 _atom_site_occupancy
  Cr  Cr0  1  0.14735000  0.14735000  0.14735000  1
  Cr  Cr1  1  0.35265000  0.35265000  0.35265000  1
  Cr  Cr2  1  0.64735000  0.64735000  0.64735000  1
  Cr  Cr3  1  0.85265000  0.85265000  0.85265000  1
  Te  Te0  1  0.00000000  0.00000000  0.00000000  1
  Te  Te1  1  0.50000000  0.50000000  0.50000000  1
  P  P0  1  0.46229700  0.75000000  0.03770300  1
  P  P1  1  0.75000000  0.03770300  0.46229700  1
  P  P2  1  0.03770300  0.46229700  0.75000000  1
  P  P3  1  0.96229700  0.53770300  0.25000000  1
  P  P4  1  0.25000000  0.96229700  0.53770300  1
  P  P5  1  0.53770300  0.25000000  0.96229700  1
  O  O0  1  0.51337000  0.29047600  0.12059900  1
  O  O1  1  0.12059900  0.51337000  0.29047600  1
  O  O2  1  0.26861400  0.92218500  0.06355000  1
  O  O3  1  0.29047600  0.12059900  0.51337000  1
  O  O4  1  0.43645000  0.57781500  0.23138600  1
  O  O5  1  0.62059900  0.79047600  0.01337000  1
  O  O6  1  0.92218500  0.06355000  0.26861400  1
  O  O7  1  0.57781500  0.23138600  0.43645000  1
  O  O8  1  0.23138600  0.43645000  0.57781500  1
  O  O9  1  0.98663000  0.37940100  0.20952400  1
  O  O10  1  0.93645000  0.73138600  0.07781500  1
  O  O11  1  0.20952400  0.98663000  0.37940100  1
  O  O12  1  0.79047600  0.01337000  0.62059900  1
  O  O13  1  0.06355000  0.26861400  0.92218500  1
  O  O14  1  0.01337000  0.62059900  0.79047600  1
  O  O15  1  0.76861400  0.56355000  0.42218500  1
  O  O16  1  0.42218500  0.76861400  0.56355000  1
  O  O17  1  0.07781500  0.93645000  0.73138600  1
  O  O18  1  0.37940100  0.20952400  0.98663000  1
  O  O19  1  0.56355000  0.42218500  0.76861400  1
  O  O20  1  0.70952400  0.87940100  0.48663000  1
  O  O21  1  0.73138600  0.07781500  0.93645000  1
  O  O22  1  0.87940100  0.48663000  0.70952400  1
  O  O23  1  0.48663000  0.70952400  0.87940100  1
loop_
_geom_bond_atom_site_label_1
_geom_bond_atom_site_label_2
_geom_bond_distance
_geom_bond_site_symmetry_2
Cr0 O9 1.956914 1_455
Cr0 O18 1.956914 1_554
Cr0 O11 1.956914 1_545
Cr0 O2 2.039834 1_545
Cr0 O6 2.039834 1_455
Cr0 O13 2.039834 1_554
Cr1 O1 1.956914 1_555
Cr1 O3 1.956914 1_555
Cr1 O0 1.956914 1_555
Cr1 O7 2.039834 1_555
Cr1 O4 2.039834 1_555
Cr1 O8 2.039834 1_555
Cr2 O22 1.956914 1_555
Cr2 O20 1.956914 1_555
Cr2 O23 1.956914 1_555
Cr2 O16 2.039834 1_555
Cr2 O19 2.039834 1_555
Cr2 O15 2.039834 1_555
Cr3 O14 1.956914 1_655
Cr3 O5 1.956914 1_556
Cr3 O12 1.956914 1_565
Cr3 O21 2.039834 1_565
Cr3 O17 2.039834 1_655
Cr3 O10 2.039834 1_556
O0 P5 1.515671 1_554
O1 P3 1.515671 1_455
O2 P0 1.579454 1_555
O2 Te0 2.403054 1_565
O3 P4 1.515671 1_545
O4 P0 1.579454 1_555
O4 Te1 2.403054 1_555
O5 P0 1.515671 1_555
O6 P1 1.579454 1_555
O6 Te0 2.403054 1_655
O7 P1 1.579454 1_555
O7 Te1 2.403054 1_555
O8 P2 1.579454 1_555
O8 Te1 2.403054 1_555
O9 P3 1.515671 1_555
O10 P3 1.579454 1_555
O10 Te0 2.403054 1_665
O11 P4 1.515671 1_555
O12 P1 1.515671 1_555
O13 P2 1.579454 1_555
O13 Te0 2.403054 1_556
O14 P2 1.515671 1_555
O15 P3 1.579454 1_555
O15 Te1 2.403054 1_555
O16 P4 1.579454 1_555
O16 Te1 2.403054 1_555
O17 P4 1.579454 1_555
O17 Te0 2.403054 1_566
O18 P5 1.515671 1_555
O19 P5 1.579454 1_555
O19 Te1 2.403054 1_555
O20 P1 1.515671 1_565
O21 P5 1.579454 1_555
O21 Te0 2.403054 1_656
O22 P2 1.515671 1_655
O23 P0 1.515671 1_556
