# generated using pymatgen
data_K3TeS4
_symmetry_space_group_name_H-M   'P 1'
_cell_length_a   11.26767986
_cell_length_b   11.26767986
_cell_length_c   11.26767986
_cell_angle_alpha   109.47122063
_cell_angle_beta   109.47122063
_cell_angle_gamma   109.47122063
_symmetry_Int_Tables_number   1
_chemical_formula_structural   K3TeS4
_chemical_formula_sum   'K12 Te4 S16'
_cell_volume   1101.23905942
_cell_formula_units_Z   4
loop_
 _symmetry_equiv_pos_site_id
 _symmetry_equiv_pos_as_xyz
  1  'x, y, z'
loop_
 _atom_site_type_symbol
 _atom_site_label
 _atom_site_symmetry_multiplicity
 _atom_site_fract_x
 _atom_site_fract_y
 _atom_site_fract_z
 _atom_site_occupancy
  K  K0  1  0.25000000  0.50000000  0.75000000  1
  K  K1  1  0.50000000  0.25000000  0.75000000  1
  K  K2  1  0.75000000  0.25000000  0.50000000  1
  K  K3  1  0.25000000  0.75000000  0.50000000  1
  K  K4  1  0.50000000  0.75000000  0.25000000  1
  K  K5  1  0.75000000  0.50000000  0.25000000  1
  K  K6  1  0.00000000  0.25076300  0.25076300  1
  K  K7  1  0.74923700  0.74923700  0.00000000  1
  K  K8  1  0.74923700  0.00000000  0.74923700  1
  K  K9  1  0.25076300  0.25076300  0.00000000  1
  K  K10  1  0.25076300  0.00000000  0.25076300  1
  K  K11  1  0.00000000  0.74923700  0.74923700  1
  Te  Te0  1  0.45275100  0.00000000  0.00000000  1
  Te  Te1  1  0.54724900  0.54724900  0.54724900  1
  Te  Te2  1  0.00000000  0.00000000  0.45275100  1
  Te  Te3  1  0.00000000  0.45275100  0.00000000  1
  S  S0  1  0.00000000  0.00000000  0.00000000  1
  S  S1  1  0.00000000  0.50000000  0.50000000  1
  S  S2  1  0.50000000  0.50000000  0.00000000  1
  S  S3  1  0.50000000  0.00000000  0.50000000  1
  S  S4  1  0.49969000  0.20271600  0.20271600  1
  S  S5  1  0.29697400  0.79728400  0.00000000  1
  S  S6  1  0.29697400  0.00000000  0.79728400  1
  S  S7  1  0.50031000  0.70302600  0.70302600  1
  S  S8  1  0.70302600  0.70302600  0.50031000  1
  S  S9  1  0.70302600  0.50031000  0.70302600  1
  S  S10  1  0.00000000  0.79728400  0.29697400  1
  S  S11  1  0.20271600  0.20271600  0.49969000  1
  S  S12  1  0.79728400  0.00000000  0.29697400  1
  S  S13  1  0.00000000  0.29697400  0.79728400  1
  S  S14  1  0.79728400  0.29697400  0.00000000  1
  S  S15  1  0.20271600  0.49969000  0.20271600  1
loop_
_geom_bond_atom_site_label_1
_geom_bond_atom_site_label_2
_geom_bond_distance
_geom_bond_site_symmetry_2
K0 S1 3.252699 1_555
K0 S2 3.252699 1_556
K0 S7 3.311974 1_555
K0 S11 3.311974 1_555
K0 S13 3.311974 1_555
K0 S5 3.311974 1_556
K1 S3 3.252699 1_555
K1 S2 3.252699 1_556
K1 S9 3.311974 1_555
K1 S11 3.311974 1_555
K1 S14 3.311974 1_556
K1 S6 3.311974 1_555
K2 S3 3.252699 1_555
K2 S1 3.252699 1_655
K2 S9 3.311974 1_555
K2 S4 3.311974 1_555
K2 S13 3.311974 1_655
K2 S12 3.311974 1_555
K3 S1 3.252699 1_555
K3 S3 3.252699 1_565
K3 S15 3.311974 1_555
K3 S7 3.311974 1_555
K3 S10 3.311974 1_555
K3 S6 3.311974 1_565
K4 S3 3.252699 1_565
K4 S2 3.252699 1_555
K4 S15 3.311974 1_555
K4 S8 3.311974 1_555
K4 S12 3.311974 1_565
K4 S5 3.311974 1_555
K5 S1 3.252699 1_655
K5 S2 3.252699 1_555
K5 S4 3.311974 1_555
K5 S8 3.311974 1_555
K5 S10 3.311974 1_655
K5 S14 3.311974 1_555
K6 S1 3.242772 1_555
K6 S0 3.262626 1_555
K6 S12 3.308032 1_455
K6 S14 3.308032 1_455
K6 S11 3.308032 1_555
K6 S15 3.308032 1_555
K7 S2 3.242772 1_555
K7 S0 3.262626 1_665
K7 S12 3.308032 1_565
K7 S10 3.308032 1_655
K7 S9 3.308032 1_554
K7 S7 3.308032 1_554
K8 S3 3.242772 1_555
K8 S0 3.262626 1_656
K8 S14 3.308032 1_556
K8 S13 3.308032 1_655
K8 S8 3.308032 1_545
K8 S7 3.308032 1_545
K9 S2 3.242772 1_555
K9 S0 3.262626 1_555
K9 S13 3.308032 1_554
K9 S6 3.308032 1_554
K9 S15 3.308032 1_555
K9 S4 3.308032 1_555
K10 S3 3.242772 1_555
K10 S0 3.262626 1_555
K10 S5 3.308032 1_545
K10 S10 3.308032 1_545
K10 S11 3.308032 1_555
K10 S4 3.308032 1_555
K11 S1 3.242772 1_555
K11 S0 3.262626 1_566
K11 S6 3.308032 1_565
K11 S5 3.308032 1_556
K11 S8 3.308032 1_455
K11 S9 3.308032 1_455
S4 Te0 2.371784 1_555
S5 Te0 2.371784 1_565
S6 Te0 2.371784 1_556
S7 Te1 2.371784 1_555
S8 Te1 2.371784 1_555
S9 Te1 2.371784 1_555
S10 Te2 2.371784 1_565
S11 Te2 2.371784 1_555
S12 Te2 2.371784 1_655
S13 Te3 2.371784 1_556
S14 Te3 2.371784 1_655
S15 Te3 2.371784 1_555
