# generated using pymatgen
data_Li4V3P8O29
_symmetry_space_group_name_H-M   'P 1'
_cell_length_a   9.76271700
_cell_length_b   9.77219961
_cell_length_c   14.10927208
_cell_angle_alpha   89.92652145
_cell_angle_beta   90.17965680
_cell_angle_gamma   119.83618981
_symmetry_Int_Tables_number   1
_chemical_formula_structural   Li4V3P8O29
_chemical_formula_sum   'Li8 V6 P16 O58'
_cell_volume   1167.64445506
_cell_formula_units_Z   2
loop_
 _symmetry_equiv_pos_site_id
 _symmetry_equiv_pos_as_xyz
  1  'x, y, z'
loop_
 _atom_site_type_symbol
 _atom_site_label
 _atom_site_symmetry_multiplicity
 _atom_site_fract_x
 _atom_site_fract_y
 _atom_site_fract_z
 _atom_site_occupancy
  Li  Li0  1  0.90345500  0.67509700  0.05965700  1
  Li  Li1  1  0.77487200  0.08786100  0.05769400  1
  Li  Li2  1  0.31283500  0.22751900  0.06215900  1
  Li  Li3  1  0.66985500  0.90201100  0.43954700  1
  Li  Li4  1  0.32799400  0.09233100  0.55591200  1
  Li  Li5  1  0.22355500  0.91033400  0.94500300  1
  Li  Li6  1  0.23466600  0.33470200  0.43992000  1
  Li  Li7  1  0.97706800  0.94951800  0.49580300  1
  V  V0  1  0.56874200  0.00057700  0.25006300  1
  V  V1  1  0.43755900  0.00020000  0.74880500  1
  V  V2  1  0.56985000  0.56591400  0.75219800  1
  V  V3  1  0.43450200  0.43692700  0.24769400  1
  V  V4  1  0.00317100  0.56633500  0.25751600  1
  V  V5  1  0.99929300  0.43391600  0.74520800  1
  P  P0  1  0.91479300  0.68331300  0.84126700  1
  P  P1  1  0.77474200  0.69157000  0.34066600  1
  P  P2  1  0.91854400  0.22405500  0.34264000  1
  P  P3  1  0.66986600  0.33501600  0.13097400  1
  P  P4  1  0.66322700  0.33251400  0.63069100  1
  P  P5  1  0.77570700  0.09231600  0.83973000  1
  P  P6  1  0.68768800  0.90948800  0.65927300  1
  P  P7  1  0.31841100  0.22812200  0.84401900  1
  P  P8  1  0.68499200  0.77044600  0.15597500  1
  P  P9  1  0.31647900  0.09018800  0.34206500  1
  P  P10  1  0.22911800  0.90947100  0.16186100  1
  P  P11  1  0.33519700  0.66630200  0.37230500  1
  P  P12  1  0.33168000  0.66606300  0.86728100  1
  P  P13  1  0.08506200  0.77935900  0.65705900  1
  P  P14  1  0.22895000  0.31427500  0.66105200  1
  P  P15  1  0.08316700  0.31601600  0.15650300  1
  O  O0  1  0.00476900  0.80146400  0.57447500  1
  O  O1  1  0.91498800  0.65805000  0.33366300  1
  O  O2  1  0.76492500  0.75798300  0.07040900  1
  O  O3  1  0.74569000  0.65851800  0.83545700  1
  O  O4  1  0.90682200  0.52403700  0.82088700  1
  O  O5  1  0.81670900  0.48437000  0.17639900  1
  O  O6  1  0.91672100  0.38248600  0.33099500  1
  O  O7  1  0.99160300  0.23666600  0.07034300  1
  O  O8  1  0.91801400  0.26088100  0.82983800  1
  O  O9  1  0.66577100  0.48014100  0.67700100  1
  O  O10  1  0.61801900  0.53746200  0.33204100  1
  O  O11  1  0.81093200  0.33061200  0.67325700  1
  O  O12  1  0.67647100  0.34038700  0.02531300  1
  O  O13  1  0.65029000  0.32523100  0.52588100  1
  O  O14  1  0.67271400  0.18527000  0.17086700  1
  O  O15  1  0.47759200  0.37997900  0.82369400  1
  O  O16  1  0.51534500  0.32922400  0.16888000  1
  O  O17  1  0.74609000  0.08402400  0.34027700  1
  O  O18  1  0.79518900  0.99988400  0.75012200  1
  O  O19  1  0.76596600  0.98174600  0.56781800  1
  O  O20  1  0.76185900  0.01178700  0.93074000  1
  O  O21  1  0.62123900  0.09897500  0.81747900  1
  O  O22  1  0.50871000  0.18272000  0.67235000  1
  O  O23  1  0.66139600  0.91619700  0.15827700  1
  O  O24  1  0.47226300  0.09075700  0.32857400  1
  O  O25  1  0.34242700  0.26047800  0.33353100  1
  O  O26  1  0.79384900  0.79564800  0.24783800  1
  O  O27  1  0.79350600  0.79464500  0.42359000  1
  O  O28  1  0.22832500  0.22823000  0.57266000  1
  O  O29  1  0.65583100  0.73872200  0.66985700  1
  O  O30  1  0.52915400  0.90958100  0.67432500  1
  O  O31  1  0.33986500  0.07996000  0.83815400  1
  O  O32  1  0.48879100  0.81173600  0.33353900  1
  O  O33  1  0.37985400  0.89919500  0.18011500  1
  O  O34  1  0.24100900  0.99820800  0.07213400  1
  O  O35  1  0.22961300  0.01736400  0.43176000  1
  O  O36  1  0.20685100  0.99911400  0.25087800  1
  O  O37  1  0.26079300  0.91765700  0.66221400  1
  O  O38  1  0.47670400  0.66013100  0.82472100  1
  O  O39  1  0.52331600  0.61964700  0.17668800  1
  O  O40  1  0.33550700  0.81993600  0.82472600  1
  O  O41  1  0.32582200  0.67113100  0.97198900  1
  O  O42  1  0.32541100  0.66392600  0.47752200  1
  O  O43  1  0.18803200  0.67205800  0.32473700  1
  O  O44  1  0.38462000  0.47114200  0.67467400  1
  O  O45  1  0.32304100  0.51147700  0.33228500  1
  O  O46  1  0.08102100  0.74314800  0.16200200  1
  O  O47  1  0.00981100  0.79996200  0.75531600  1
  O  O48  1  0.99899300  0.75602800  0.93223700  1
  O  O49  1  0.07918500  0.61847000  0.66757400  1
  O  O50  1  0.18304900  0.52587600  0.81835300  1
  O  O51  1  0.09173000  0.47587300  0.17962600  1
  O  O52  1  0.25191900  0.33841800  0.15849100  1
  O  O53  1  0.24550500  0.23315400  0.93485300  1
  O  O54  1  0.20718100  0.20685700  0.75326100  1
  O  O55  1  0.08742900  0.34404300  0.66426500  1
  O  O56  1  0.00807400  0.21685700  0.42646000  1
  O  O57  1  0.99778100  0.20517200  0.24794800  1
loop_
_geom_bond_atom_site_label_1
_geom_bond_atom_site_label_2
_geom_bond_distance
_geom_bond_site_symmetry_2
Li0 O2 1.897302 1_555
Li0 O48 2.000099 1_554
Li0 O46 2.090979 1_655
Li0 O5 2.309629 1_555
Li1 O7 1.886823 1_555
Li1 O20 1.919716 1_554
Li1 O23 2.051816 1_545
Li1 O14 2.325743 1_555
Li2 O53 1.920881 1_554
Li2 O34 1.992306 1_545
Li2 O52 2.006401 1_555
Li2 O16 2.278986 1_555
Li3 O27 1.967580 1_555
Li3 O19 2.007097 1_555
Li3 O17 2.088601 1_565
Li3 O32 2.138960 1_555
Li4 O35 1.954538 1_555
Li4 O28 2.013551 1_555
Li4 O37 2.116344 1_545
Li4 O22 2.242043 1_555
Li5 O48 1.954822 1_455
Li5 O34 1.959675 1_556
Li5 O31 2.107423 1_565
Li5 O40 2.414746 1_555
Li6 O56 1.928447 1_555
Li6 O28 2.127360 1_555
Li6 O45 2.133851 1_555
Li6 O25 2.158264 1_555
Li7 O0 1.944697 1_655
Li7 O27 1.958028 1_555
Li7 O35 2.391812 1_665
Li7 O19 2.457404 1_555
O0 P13 1.476799 1_555
O1 P1 1.561705 1_555
O1 V4 1.864072 1_655
O2 P8 1.477216 1_555
O3 P0 1.546636 1_555
O3 V2 1.894772 1_555
O4 P0 1.546559 1_555
O4 V5 1.878909 1_555
O5 P3 1.584549 1_555
O5 V4 1.950295 1_655
O6 P2 1.565580 1_555
O6 V4 1.872658 1_655
O7 P15 1.477855 1_655
O8 P5 1.544835 1_555
O8 V5 1.892181 1_555
O9 P4 1.573348 1_555
O9 V2 1.869416 1_555
O10 P1 1.526537 1_555
O10 V3 1.956930 1_555
O11 P4 1.568954 1_555
O11 V5 1.890772 1_555
O12 P3 1.492123 1_555
O13 P4 1.482565 1_555
O14 P3 1.580268 1_555
O14 V0 1.927541 1_555
O15 P7 1.551270 1_555
O15 V2 1.871592 1_555
O16 P3 1.576379 1_555
O16 V3 1.949946 1_555
O17 P2 1.554199 1_555
O17 V0 1.966424 1_555
O18 P6 1.611460 1_555
O18 P5 1.620466 1_565
O19 P6 1.488138 1_555
O20 P5 1.476167 1_555
O21 P5 1.572122 1_555
O21 V1 1.831763 1_555
O22 P4 1.603108 1_555
O22 V1 1.895894 1_555
O23 P8 1.552230 1_555
O23 V0 1.981799 1_565
O24 P9 1.530595 1_555
O24 V0 1.930244 1_555
O25 P9 1.558248 1_555
O25 V3 1.925398 1_555
O26 P1 1.610581 1_555
O26 P8 1.612992 1_555
O27 P1 1.495031 1_555
O28 P14 1.503322 1_555
O29 P6 1.544994 1_555
O29 V2 1.869937 1_555
O30 P6 1.563333 1_555
O30 V1 1.866640 1_565
O31 P7 1.564995 1_555
O31 V1 1.963713 1_555
O32 P11 1.565280 1_555
O32 V0 1.992190 1_565
O33 P10 1.544863 1_555
O33 V0 1.878640 1_565
O34 P10 1.505352 1_555
O35 P9 1.493686 1_555
O36 P10 1.608142 1_555
O36 P9 1.624606 1_565
O37 P13 1.570813 1_555
O37 V1 1.930176 1_565
O38 P12 1.567038 1_555
O38 V2 1.887597 1_555
O39 P8 1.560668 1_555
O39 V3 1.845019 1_555
O40 P12 1.601521 1_555
O40 V1 1.870483 1_565
O41 P12 1.480484 1_555
O42 P11 1.487315 1_555
O43 P11 1.609991 1_555
O43 V4 1.833164 1_555
O44 P14 1.541843 1_555
O44 V2 1.909969 1_555
O45 P11 1.563693 1_555
O45 V3 1.984568 1_555
O46 P10 1.547208 1_555
O46 V4 2.018161 1_555
O47 P0 1.606828 1_455
O47 P13 1.629865 1_555
O48 P0 1.497523 1_555
O49 P13 1.551429 1_555
O49 V5 1.913468 1_455
O50 P12 1.573841 1_555
O50 V5 1.864818 1_455
O51 P15 1.557223 1_555
O51 V4 1.872343 1_555
O52 P15 1.550403 1_555
O52 V3 1.992406 1_555
O53 P7 1.480619 1_555
O54 P14 1.617378 1_555
O54 P7 1.621590 1_555
O55 P14 1.547878 1_555
O55 V5 1.891205 1_455
O56 P2 1.490650 1_455
O57 P2 1.602061 1_555
O57 P15 1.624054 1_655
