# generated using pymatgen
data_LiCrPO4
_symmetry_space_group_name_H-M   'P 1'
_cell_length_a   10.75752100
_cell_length_b   5.88572300
_cell_length_c   10.05097930
_cell_angle_alpha   88.27132956
_cell_angle_beta   90.00000000
_cell_angle_gamma   90.00000000
_symmetry_Int_Tables_number   1
_chemical_formula_structural   LiCrPO4
_chemical_formula_sum   'Li8 Cr8 P8 O32'
_cell_volume   636.09605690
_cell_formula_units_Z   8
loop_
 _symmetry_equiv_pos_site_id
 _symmetry_equiv_pos_as_xyz
  1  'x, y, z'
loop_
 _atom_site_type_symbol
 _atom_site_label
 _atom_site_symmetry_multiplicity
 _atom_site_fract_x
 _atom_site_fract_y
 _atom_site_fract_z
 _atom_site_occupancy
  Li  Li0  1  0.86191500  0.88430200  0.89874000  1
  Li  Li1  1  0.63808500  0.88430200  0.39874000  1
  Li  Li2  1  0.34542900  0.60254300  0.64485500  1
  Li  Li3  1  0.15457100  0.60254300  0.14485500  1
  Li  Li4  1  0.84542900  0.39745700  0.85514500  1
  Li  Li5  1  0.65457100  0.39745700  0.35514500  1
  Li  Li6  1  0.36191500  0.11569800  0.60126000  1
  Li  Li7  1  0.13808500  0.11569800  0.10126000  1
  Cr  Cr0  1  0.09637700  0.86820000  0.72232300  1
  Cr  Cr1  1  0.40362300  0.86820000  0.22232300  1
  Cr  Cr2  1  0.62701300  0.65848600  0.98083600  1
  Cr  Cr3  1  0.87298700  0.65848600  0.48083600  1
  Cr  Cr4  1  0.12701300  0.34151400  0.51916400  1
  Cr  Cr5  1  0.37298700  0.34151400  0.01916400  1
  Cr  Cr6  1  0.59637700  0.13180000  0.77767700  1
  Cr  Cr7  1  0.90362300  0.13180000  0.27767700  1
  P  P0  1  0.35492600  0.87433000  0.90688700  1
  P  P1  1  0.14507400  0.87433000  0.40688700  1
  P  P2  1  0.60758900  0.62778500  0.65765600  1
  P  P3  1  0.89241100  0.62778500  0.15765600  1
  P  P4  1  0.10758900  0.37221500  0.84234400  1
  P  P5  1  0.39241100  0.37221500  0.34234400  1
  P  P6  1  0.85492600  0.12567000  0.59311300  1
  P  P7  1  0.64507400  0.12567000  0.09311300  1
  O  O0  1  0.21507700  0.91039600  0.54006900  1
  O  O1  1  0.92706600  0.89969700  0.62749300  1
  O  O2  1  0.28492300  0.91039600  0.04006900  1
  O  O3  1  0.57293400  0.89969700  0.12749300  1
  O  O4  1  0.27004300  0.82287100  0.79002300  1
  O  O5  1  0.52802900  0.84820400  0.64450500  1
  O  O6  1  0.22995700  0.82287100  0.29002300  1
  O  O7  1  0.97197100  0.84820400  0.14450500  1
  O  O8  1  0.44523600  0.67130000  0.92398600  1
  O  O9  1  0.69395000  0.63205000  0.78349400  1
  O  O10  1  0.05476400  0.67130000  0.42398600  1
  O  O11  1  0.68958300  0.61344600  0.52883700  1
  O  O12  1  0.01943500  0.58175000  0.83310400  1
  O  O13  1  0.80605000  0.63205000  0.28349400  1
  O  O14  1  0.81041700  0.61344600  0.02883700  1
  O  O15  1  0.48056500  0.58175000  0.33310400  1
  O  O16  1  0.51943500  0.41825000  0.66689600  1
  O  O17  1  0.18958300  0.38655400  0.97116300  1
  O  O18  1  0.19395000  0.36795000  0.71650600  1
  O  O19  1  0.98056500  0.41825000  0.16689600  1
  O  O20  1  0.31041700  0.38655400  0.47116300  1
  O  O21  1  0.94523600  0.32870000  0.57601400  1
  O  O22  1  0.30605000  0.36795000  0.21650600  1
  O  O23  1  0.55476400  0.32870000  0.07601400  1
  O  O24  1  0.02802900  0.15179600  0.85549500  1
  O  O25  1  0.77004300  0.17712900  0.70997700  1
  O  O26  1  0.47197100  0.15179600  0.35549500  1
  O  O27  1  0.72995700  0.17712900  0.20997700  1
  O  O28  1  0.42706600  0.10030300  0.87250700  1
  O  O29  1  0.71507700  0.08960400  0.95993100  1
  O  O30  1  0.07293400  0.10030300  0.37250700  1
  O  O31  1  0.78492300  0.08960400  0.45993100  1
loop_
_geom_bond_atom_site_label_1
_geom_bond_atom_site_label_2
_geom_bond_distance
_geom_bond_site_symmetry_2
Li0 O29 2.092460 1_565
Li0 O14 2.105323 1_556
Li0 O24 2.412393 1_665
Li0 O12 2.559009 1_655
Li1 O31 2.092460 1_565
Li1 O11 2.105323 1_555
Li1 O26 2.412393 1_565
Li1 O15 2.559009 1_555
Li2 O4 2.140655 1_555
Li2 O16 2.171418 1_555
Li2 O20 2.222514 1_555
Li2 O18 2.240649 1_555
Li2 O5 2.439032 1_555
Li2 O0 2.498712 1_555
Li3 O6 2.140655 1_555
Li3 O19 2.171418 1_455
Li3 O17 2.222514 1_554
Li3 O22 2.240649 1_555
Li3 O7 2.439032 1_455
Li3 O2 2.498712 1_555
Li4 O25 2.140655 1_555
Li4 O12 2.171418 1_655
Li4 O14 2.222514 1_556
Li4 O9 2.240649 1_555
Li4 O24 2.439032 1_655
Li4 O29 2.498712 1_555
Li5 O27 2.140655 1_555
Li5 O15 2.171418 1_555
Li5 O11 2.222514 1_555
Li5 O13 2.240649 1_555
Li5 O26 2.439032 1_555
Li5 O31 2.498712 1_555
Li6 O0 2.092460 1_545
Li6 O20 2.105323 1_555
Li6 O5 2.412393 1_545
Li6 O16 2.559009 1_555
Li7 O2 2.092460 1_545
Li7 O17 2.105323 1_554
Li7 O7 2.412393 1_445
Li7 O19 2.559009 1_455
Cr0 O4 2.003365 1_555
Cr0 O1 2.061443 1_455
Cr0 O12 2.157337 1_555
Cr0 O0 2.240615 1_555
Cr0 O24 2.291969 1_565
Cr1 O6 2.003365 1_555
Cr1 O3 2.061443 1_555
Cr1 O15 2.157337 1_555
Cr1 O2 2.240615 1_555
Cr1 O26 2.291969 1_565
Cr2 O8 2.038001 1_555
Cr2 O14 2.046446 1_556
Cr2 O9 2.120267 1_555
Cr2 O3 2.157096 1_556
Cr2 O23 2.274814 1_556
Cr3 O10 2.038001 1_655
Cr3 O11 2.046446 1_555
Cr3 O13 2.120267 1_555
Cr3 O1 2.157096 1_555
Cr3 O21 2.274814 1_555
Cr4 O21 2.038001 1_455
Cr4 O20 2.046446 1_555
Cr4 O18 2.120267 1_555
Cr4 O30 2.157096 1_555
Cr4 O10 2.274814 1_555
Cr5 O23 2.038001 1_555
Cr5 O17 2.046446 1_554
Cr5 O22 2.120267 1_555
Cr5 O28 2.157096 1_554
Cr5 O8 2.274814 1_554
Cr6 O25 2.003365 1_555
Cr6 O28 2.061443 1_555
Cr6 O16 2.157337 1_555
Cr6 O29 2.240615 1_555
Cr6 O5 2.291969 1_545
Cr7 O27 2.003365 1_555
Cr7 O30 2.061443 1_655
Cr7 O19 2.157337 1_555
Cr7 O31 2.240615 1_555
Cr7 O7 2.291969 1_545
O0 P1 1.556013 1_555
O1 P6 1.569352 1_565
O2 P0 1.556013 1_554
O3 P7 1.569352 1_565
O4 P0 1.525347 1_555
O5 P2 1.556499 1_555
O6 P1 1.525347 1_555
O7 P3 1.556499 1_555
O8 P0 1.545624 1_555
O9 P2 1.570143 1_555
O10 P1 1.545624 1_555
O11 P2 1.571027 1_555
O12 P4 1.556266 1_555
O13 P3 1.570143 1_555
O14 P3 1.571027 1_555
O15 P5 1.556266 1_555
O16 P2 1.556266 1_555
O17 P4 1.571027 1_555
O18 P4 1.570143 1_555
O19 P3 1.556266 1_555
O20 P5 1.571027 1_555
O21 P6 1.545624 1_555
O22 P5 1.570143 1_555
O23 P7 1.545624 1_555
O24 P4 1.556499 1_555
O25 P6 1.525347 1_555
O26 P5 1.556499 1_555
O27 P7 1.525347 1_555
O28 P0 1.569352 1_545
O29 P7 1.556013 1_556
O30 P1 1.569352 1_545
O31 P6 1.556013 1_555
