# generated using pymatgen
data_Li7V3Ni(PO4)6
_symmetry_space_group_name_H-M   'P 1'
_cell_length_a   8.84933084
_cell_length_b   8.84933084
_cell_length_c   8.84933040
_cell_angle_alpha   60.10466089
_cell_angle_beta   60.10466089
_cell_angle_gamma   60.10465837
_symmetry_Int_Tables_number   1
_chemical_formula_structural   Li7V3Ni(PO4)6
_chemical_formula_sum   'Li7 V3 Ni1 P6 O24'
_cell_volume   491.18479547
_cell_formula_units_Z   1
loop_
 _symmetry_equiv_pos_site_id
 _symmetry_equiv_pos_as_xyz
  1  'x, y, z'
loop_
 _atom_site_type_symbol
 _atom_site_label
 _atom_site_symmetry_multiplicity
 _atom_site_fract_x
 _atom_site_fract_y
 _atom_site_fract_z
 _atom_site_occupancy
  Li  Li0  1  0.61838400  0.25986600  0.78652800  1
  Li  Li1  1  0.25986600  0.78652800  0.61838400  1
  Li  Li2  1  0.17571800  0.34642000  0.79002800  1
  Li  Li3  1  0.02207000  0.02207000  0.02207000  1
  Li  Li4  1  0.78652800  0.61838400  0.25986600  1
  Li  Li5  1  0.79002800  0.17571800  0.34642000  1
  Li  Li6  1  0.34642000  0.79002800  0.17571800  1
  V  V0  1  0.64635800  0.64635800  0.64635800  1
  V  V1  1  0.85618800  0.85618800  0.85618800  1
  V  V2  1  0.35556900  0.35556900  0.35556900  1
  Ni  Ni0  1  0.15103100  0.15103100  0.15103100  1
  P  P0  1  0.25395000  0.53979200  0.95574000  1
  P  P1  1  0.95574000  0.25395000  0.53979200  1
  P  P2  1  0.53979200  0.95574000  0.25395000  1
  P  P3  1  0.45482500  0.03969800  0.75414200  1
  P  P4  1  0.03969800  0.75414200  0.45482500  1
  P  P5  1  0.75414200  0.45482500  0.03969800  1
  O  O0  1  0.12276300  0.28912500  0.50754400  1
  O  O1  1  0.50754400  0.12276300  0.28912500  1
  O  O2  1  0.28912500  0.50754400  0.12276300  1
  O  O3  1  0.09173500  0.72486800  0.92166900  1
  O  O4  1  0.42164900  0.56520600  0.77287100  1
  O  O5  1  0.22224800  0.37655000  0.96861900  1
  O  O6  1  0.92166900  0.09173500  0.72486800  1
  O  O7  1  0.77287100  0.42164900  0.56520600  1
  O  O8  1  0.56520600  0.77287100  0.42164900  1
  O  O9  1  0.61923400  0.02397900  0.78870600  1
  O  O10  1  0.27696700  0.04645100  0.92873700  1
  O  O11  1  0.02397900  0.78870600  0.61923400  1
  O  O12  1  0.96861900  0.22224800  0.37655000  1
  O  O13  1  0.72486800  0.92166900  0.09173500  1
  O  O14  1  0.37655000  0.96861900  0.22224800  1
  O  O15  1  0.41251800  0.22911400  0.60108200  1
  O  O16  1  0.22911400  0.60108200  0.41251800  1
  O  O17  1  0.04645100  0.92873700  0.27696700  1
  O  O18  1  0.78870600  0.61923400  0.02397900  1
  O  O19  1  0.60108200  0.41251800  0.22911400  1
  O  O20  1  0.92873700  0.27696700  0.04645100  1
  O  O21  1  0.70603600  0.49745500  0.87643600  1
  O  O22  1  0.49745500  0.87643600  0.70603600  1
  O  O23  1  0.87643600  0.70603600  0.49745500  1
loop_
_geom_bond_atom_site_label_1
_geom_bond_atom_site_label_2
_geom_bond_distance
_geom_bond_site_symmetry_2
Li0 O7 2.059476 1_555
Li0 O9 2.074182 1_555
Li0 O6 2.254659 1_555
Li0 O4 2.354059 1_555
Li1 O4 2.059476 1_555
Li1 O11 2.074182 1_555
Li1 O3 2.254659 1_555
Li1 O8 2.354059 1_555
Li2 O5 1.979019 1_555
Li2 O15 2.081737 1_555
Li2 O10 2.198494 1_555
Li2 O20 2.304079 1_456
Li3 O17 2.065700 1_545
Li3 O20 2.065700 1_455
Li3 O10 2.065700 1_554
Li4 O8 2.059476 1_555
Li4 O18 2.074182 1_555
Li4 O13 2.254659 1_555
Li4 O7 2.354059 1_555
Li5 O12 1.979019 1_555
Li5 O19 2.081737 1_555
Li5 O20 2.198494 1_555
Li5 O17 2.304078 1_645
Li6 O14 1.979019 1_555
Li6 O16 2.081737 1_555
Li6 O17 2.198494 1_555
Li6 O10 2.304078 1_564
Ni0 O12 2.003507 1_455
Ni0 O14 2.003507 1_545
Ni0 O5 2.003507 1_554
Ni0 O10 2.137631 1_554
Ni0 O20 2.137631 1_455
Ni0 O17 2.137631 1_545
O0 P1 1.520708 1_455
O0 V2 2.013974 1_555
O1 P2 1.520708 1_545
O1 V2 2.013974 1_555
O2 P0 1.520708 1_554
O2 V2 2.013974 1_555
O3 P0 1.558693 1_555
O3 V1 2.036966 1_455
O4 P0 1.564499 1_555
O4 V0 2.031308 1_555
O5 P0 1.544831 1_555
O6 P1 1.558693 1_555
O6 V1 2.036966 1_545
O7 P1 1.564498 1_555
O7 V0 2.031307 1_555
O8 P2 1.564499 1_555
O8 V0 2.031307 1_555
O9 P3 1.558562 1_555
O9 V1 2.054006 1_545
O10 P3 1.562745 1_555
O11 P4 1.558562 1_555
O11 V1 2.054006 1_455
O12 P1 1.544831 1_555
O13 P2 1.558693 1_555
O13 V1 2.036966 1_554
O14 P2 1.544831 1_555
O15 P3 1.549573 1_555
O15 V2 2.081407 1_555
O16 P4 1.549573 1_555
O16 V2 2.081407 1_555
O17 P4 1.562745 1_555
O18 P5 1.558562 1_555
O18 V1 2.054006 1_554
O19 P5 1.549573 1_555
O19 V2 2.081407 1_555
O20 P5 1.562745 1_555
O21 P5 1.523343 1_556
O21 V0 1.965819 1_555
O22 P3 1.523343 1_565
O22 V0 1.965819 1_555
O23 P4 1.523343 1_655
O23 V0 1.965819 1_555
