# generated using pymatgen
data_Li2FeF5
_symmetry_space_group_name_H-M   'P 1'
_cell_length_a   5.49040600
_cell_length_b   7.22456200
_cell_length_c   19.19966900
_cell_angle_alpha   90.00000000
_cell_angle_beta   90.00000000
_cell_angle_gamma   90.00000000
_symmetry_Int_Tables_number   1
_chemical_formula_structural   Li2FeF5
_chemical_formula_sum   'Li16 Fe8 F40'
_cell_volume   761.56981883
_cell_formula_units_Z   8
loop_
 _symmetry_equiv_pos_site_id
 _symmetry_equiv_pos_as_xyz
  1  'x, y, z'
loop_
 _atom_site_type_symbol
 _atom_site_label
 _atom_site_symmetry_multiplicity
 _atom_site_fract_x
 _atom_site_fract_y
 _atom_site_fract_z
 _atom_site_occupancy
  Li  Li0  1  0.50000000  0.10261800  0.65332400  1
  Li  Li1  1  0.00000000  0.19355100  0.08289000  1
  Li  Li2  1  0.00000000  0.26493800  0.73551900  1
  Li  Li3  1  0.50000000  0.20104100  0.51600300  1
  Li  Li4  1  0.50000000  0.29895900  0.01600300  1
  Li  Li5  1  0.00000000  0.23506200  0.23551900  1
  Li  Li6  1  0.00000000  0.30644900  0.58289000  1
  Li  Li7  1  0.50000000  0.39738200  0.15332400  1
  Li  Li8  1  0.50000000  0.60261800  0.84667600  1
  Li  Li9  1  0.00000000  0.69355100  0.41711000  1
  Li  Li10  1  0.00000000  0.76493800  0.76448100  1
  Li  Li11  1  0.50000000  0.70104100  0.98399700  1
  Li  Li12  1  0.50000000  0.79895900  0.48399700  1
  Li  Li13  1  0.00000000  0.73506200  0.26448100  1
  Li  Li14  1  0.00000000  0.80644900  0.91711000  1
  Li  Li15  1  0.50000000  0.89738200  0.34667600  1
  Fe  Fe0  1  0.50000000  0.01011300  0.84312400  1
  Fe  Fe1  1  0.00000000  0.12732100  0.39725600  1
  Fe  Fe2  1  0.00000000  0.37267900  0.89725600  1
  Fe  Fe3  1  0.50000000  0.48988700  0.34312400  1
  Fe  Fe4  1  0.50000000  0.51011300  0.65687600  1
  Fe  Fe5  1  0.00000000  0.62732100  0.10274400  1
  Fe  Fe6  1  0.00000000  0.87267900  0.60274400  1
  Fe  Fe7  1  0.50000000  0.98988700  0.15687600  1
  F  F0  1  0.00000000  0.01916500  0.30342700  1
  F  F1  1  0.26019600  0.04265800  0.57289700  1
  F  F2  1  0.73980400  0.04265800  0.57289700  1
  F  F3  1  0.50000000  0.06994900  0.06106800  1
  F  F4  1  0.75821000  0.17755000  0.16501400  1
  F  F5  1  0.24179000  0.17755000  0.16501400  1
  F  F6  1  0.50000000  0.05233000  0.74657900  1
  F  F7  1  0.25116000  0.20460900  0.85851500  1
  F  F8  1  0.74884000  0.20460900  0.85851500  1
  F  F9  1  0.00000000  0.22754100  0.98158200  1
  F  F10  1  0.00000000  0.27245900  0.48158200  1
  F  F11  1  0.25116000  0.29539100  0.35851500  1
  F  F12  1  0.74884000  0.29539100  0.35851500  1
  F  F13  1  0.50000000  0.44767000  0.24657900  1
  F  F14  1  0.24179000  0.32245000  0.66501400  1
  F  F15  1  0.75821000  0.32245000  0.66501400  1
  F  F16  1  0.50000000  0.43005100  0.56106800  1
  F  F17  1  0.26019600  0.45734200  0.07289700  1
  F  F18  1  0.73980400  0.45734200  0.07289700  1
  F  F19  1  0.00000000  0.48083500  0.80342700  1
  F  F20  1  0.00000000  0.51916500  0.19657300  1
  F  F21  1  0.26019600  0.54265800  0.92710300  1
  F  F22  1  0.73980400  0.54265800  0.92710300  1
  F  F23  1  0.50000000  0.56994900  0.43893200  1
  F  F24  1  0.24179000  0.67755000  0.33498600  1
  F  F25  1  0.75821000  0.67755000  0.33498600  1
  F  F26  1  0.50000000  0.55233000  0.75342100  1
  F  F27  1  0.25116000  0.70460900  0.64148500  1
  F  F28  1  0.74884000  0.70460900  0.64148500  1
  F  F29  1  0.00000000  0.72754100  0.51841800  1
  F  F30  1  0.00000000  0.77245900  0.01841800  1
  F  F31  1  0.25116000  0.79539100  0.14148500  1
  F  F32  1  0.74884000  0.79539100  0.14148500  1
  F  F33  1  0.50000000  0.94767000  0.25342100  1
  F  F34  1  0.24179000  0.82245000  0.83498600  1
  F  F35  1  0.75821000  0.82245000  0.83498600  1
  F  F36  1  0.50000000  0.93005100  0.93893200  1
  F  F37  1  0.26019600  0.95734200  0.42710300  1
  F  F38  1  0.73980400  0.95734200  0.42710300  1
  F  F39  1  0.00000000  0.98083500  0.69657300  1
loop_
_geom_bond_atom_site_label_1
_geom_bond_atom_site_label_2
_geom_bond_distance
_geom_bond_site_symmetry_2
F0 Fe1 1.963646 1_555
F0 Li5 2.032924 1_555
F0 Li13 2.184483 1_545
F1 Fe6 1.969080 1_545
F1 Li3 2.058158 1_555
F1 Li0 2.074996 1_555
F1 Li6 2.389484 1_555
F2 Fe6 1.969080 1_645
F2 Li3 2.058158 1_555
F2 Li0 2.074996 1_555
F2 Li6 2.389484 1_655
F3 Li4 1.867080 1_555
F3 Fe7 1.928278 1_545
F4 Li5 1.940977 1_655
F4 Fe7 1.967834 1_545
F4 Li1 2.064422 1_655
F4 Li7 2.140685 1_555
F5 Li5 1.940977 1_555
F5 Fe7 1.967834 1_545
F5 Li1 2.064422 1_555
F5 Li7 2.140685 1_555
F6 Li0 1.826953 1_555
F6 Fe0 1.878557 1_555
F7 Fe0 1.982008 1_555
F7 Fe2 1.982216 1_555
F8 Fe0 1.982008 1_555
F8 Fe2 1.982216 1_655
F9 Fe2 1.928921 1_555
F9 Li1 1.960520 1_556
F10 Fe1 1.928921 1_555
F10 Li6 1.960520 1_555
F11 Fe3 1.982008 1_555
F11 Fe1 1.982216 1_555
F12 Fe3 1.982008 1_555
F12 Fe1 1.982216 1_655
F13 Li7 1.826953 1_555
F13 Fe3 1.878557 1_555
F14 Li2 1.940977 1_555
F14 Fe4 1.967834 1_555
F14 Li6 2.064422 1_555
F14 Li0 2.140685 1_555
F15 Li2 1.940977 1_655
F15 Fe4 1.967834 1_555
F15 Li6 2.064422 1_655
F15 Li0 2.140685 1_555
F16 Li3 1.867080 1_555
F16 Fe4 1.928278 1_555
F17 Fe5 1.969080 1_555
F17 Li4 2.058158 1_555
F17 Li7 2.074996 1_555
F17 Li1 2.389484 1_555
F18 Fe5 1.969080 1_655
F18 Li4 2.058158 1_555
F18 Li7 2.074996 1_555
F18 Li1 2.389484 1_655
F19 Fe2 1.963646 1_555
F19 Li2 2.032924 1_555
F19 Li10 2.184483 1_555
F20 Fe5 1.963646 1_555
F20 Li13 2.032924 1_555
F20 Li5 2.184483 1_555
F21 Fe2 1.969080 1_555
F21 Li11 2.058158 1_555
F21 Li8 2.074996 1_555
F21 Li14 2.389484 1_555
F22 Fe2 1.969080 1_655
F22 Li11 2.058158 1_555
F22 Li8 2.074996 1_555
F22 Li14 2.389484 1_655
F23 Li12 1.867080 1_555
F23 Fe3 1.928278 1_555
F24 Li13 1.940977 1_555
F24 Fe3 1.967834 1_555
F24 Li9 2.064422 1_555
F24 Li15 2.140685 1_555
F25 Li13 1.940977 1_655
F25 Fe3 1.967834 1_555
F25 Li9 2.064422 1_655
F25 Li15 2.140685 1_555
F26 Li8 1.826953 1_555
F26 Fe4 1.878557 1_555
F27 Fe4 1.982008 1_555
F27 Fe6 1.982216 1_555
F28 Fe4 1.982008 1_555
F28 Fe6 1.982216 1_655
F29 Fe6 1.928921 1_555
F29 Li9 1.960520 1_555
F30 Fe5 1.928921 1_555
F30 Li14 1.960520 1_554
F31 Fe7 1.982008 1_555
F31 Fe5 1.982216 1_555
F32 Fe7 1.982008 1_555
F32 Fe5 1.982216 1_655
F33 Li15 1.826953 1_555
F33 Fe7 1.878557 1_555
F34 Li10 1.940977 1_555
F34 Fe0 1.967834 1_565
F34 Li14 2.064422 1_555
F34 Li8 2.140685 1_555
F35 Li10 1.940977 1_655
F35 Fe0 1.967834 1_565
F35 Li14 2.064422 1_655
F35 Li8 2.140685 1_555
F36 Li11 1.867080 1_555
F36 Fe0 1.928278 1_565
F37 Fe1 1.969080 1_565
F37 Li12 2.058158 1_555
F37 Li15 2.074996 1_555
F37 Li9 2.389484 1_555
F38 Fe1 1.969080 1_665
F38 Li12 2.058158 1_555
F38 Li15 2.074996 1_555
F38 Li9 2.389484 1_655
F39 Fe6 1.963646 1_555
F39 Li10 2.032924 1_555
F39 Li2 2.184483 1_565
