# generated using pymatgen
data_Li4V2Si(PO6)2
_symmetry_space_group_name_H-M   'P 1'
_cell_length_a   8.47854526
_cell_length_b   8.47854526
_cell_length_c   8.49177644
_cell_angle_alpha   64.08340127
_cell_angle_beta   64.08340127
_cell_angle_gamma   64.38125569
_symmetry_Int_Tables_number   1
_chemical_formula_structural   Li4V2Si(PO6)2
_chemical_formula_sum   'Li8 V4 Si2 P4 O24'
_cell_volume   471.33907665
_cell_formula_units_Z   2
loop_
 _symmetry_equiv_pos_site_id
 _symmetry_equiv_pos_as_xyz
  1  'x, y, z'
loop_
 _atom_site_type_symbol
 _atom_site_label
 _atom_site_symmetry_multiplicity
 _atom_site_fract_x
 _atom_site_fract_y
 _atom_site_fract_z
 _atom_site_occupancy
  Li  Li0  1  0.25378000  0.16138900  0.09014300  1
  Li  Li1  1  0.16811000  0.26143500  0.59316200  1
  Li  Li2  1  0.99788300  0.49848300  0.23965900  1
  Li  Li3  1  0.65789400  0.34210600  0.50000000  1
  Li  Li4  1  0.33867800  0.66132200  0.00000000  1
  Li  Li5  1  0.83861100  0.74622000  0.90985700  1
  Li  Li6  1  0.50151700  0.00211700  0.76034100  1
  Li  Li7  1  0.73856500  0.83189000  0.40683800  1
  V  V0  1  0.64243800  0.13996300  0.89103700  1
  V  V1  1  0.14532400  0.64116200  0.39003100  1
  V  V2  1  0.86003700  0.35756200  0.10896300  1
  V  V3  1  0.35883800  0.85467600  0.60996900  1
  Si  Si0  1  0.25093700  0.45318900  0.79506700  1
  Si  Si1  1  0.54681100  0.74906300  0.20493300  1
  P  P0  1  0.95503800  0.04496200  0.50000000  1
  P  P1  1  0.44899900  0.24951700  0.29555700  1
  P  P2  1  0.04556900  0.95443100  0.00000000  1
  P  P3  1  0.75048300  0.55100100  0.70444300  1
  O  O0  1  0.11367000  0.01673500  0.55992000  1
  O  O1  1  0.01021700  0.11019600  0.06913400  1
  O  O2  1  0.09353700  0.42192100  0.99977600  1
  O  O3  1  0.41533700  0.25350400  0.81309800  1
  O  O4  1  0.30517300  0.62604300  0.77115400  1
  O  O5  1  0.19520800  0.48100000  0.62127200  1
  O  O6  1  0.76284200  0.06708700  0.65151300  1
  O  O7  1  0.42804800  0.10136000  0.49054900  1
  O  O8  1  0.25973300  0.40339600  0.30914700  1
  O  O9  1  0.61135200  0.31100100  0.26052300  1
  O  O10  1  0.47968400  0.17979700  0.14233700  1
  O  O11  1  0.93291300  0.23715800  0.34848700  1
  O  O12  1  0.06013400  0.76240800  0.15154300  1
  O  O13  1  0.51900000  0.80479200  0.37872800  1
  O  O14  1  0.37395700  0.69482700  0.22884600  1
  O  O15  1  0.74649600  0.58466300  0.18690200  1
  O  O16  1  0.57807900  0.90646300  0.00022400  1
  O  O17  1  0.23759200  0.93986600  0.84845700  1
  O  O18  1  0.82020300  0.52031600  0.85766300  1
  O  O19  1  0.68899800  0.38864800  0.73947700  1
  O  O20  1  0.59660400  0.74026700  0.69085300  1
  O  O21  1  0.89864000  0.57195200  0.50945100  1
  O  O22  1  0.98326500  0.88633000  0.44008000  1
  O  O23  1  0.88980400  0.98978300  0.93086600  1
loop_
_geom_bond_atom_site_label_1
_geom_bond_atom_site_label_2
_geom_bond_distance
_geom_bond_site_symmetry_2
Li0 O2 2.036786 1_554
Li0 O3 2.126757 1_554
Li0 O10 2.224938 1_555
Li0 O1 2.376873 1_555
Li1 O7 2.055945 1_555
Li1 O5 2.093209 1_555
Li1 O8 2.121855 1_555
Li1 O0 2.459890 1_555
Li2 O15 2.116418 1_555
Li2 O2 2.117810 1_654
Li2 O11 2.210705 1_555
Li2 O12 2.249057 1_655
Li2 O8 2.260205 1_655
Li2 O21 2.335357 1_555
Li3 O6 2.113838 1_555
Li3 O11 2.113838 1_555
Li3 O19 2.370858 1_555
Li3 O9 2.370862 1_555
Li3 O3 2.583246 1_555
Li3 O15 2.583246 1_555
Li4 O12 2.127237 1_555
Li4 O17 2.127237 1_554
Li4 O4 2.238472 1_554
Li4 O14 2.238472 1_555
Li5 O16 2.036786 1_556
Li5 O15 2.126757 1_556
Li5 O18 2.224938 1_555
Li5 O23 2.376873 1_555
Li6 O3 2.116418 1_555
Li6 O16 2.117810 1_546
Li6 O6 2.210705 1_555
Li6 O17 2.249057 1_545
Li6 O20 2.260205 1_545
Li6 O7 2.335357 1_555
Li7 O21 2.055945 1_555
Li7 O13 2.093209 1_555
Li7 O20 2.121855 1_555
Li7 O22 2.459890 1_555
O0 P0 1.529227 1_455
O0 V3 2.044831 1_545
O1 P2 1.536306 1_545
O1 V2 2.017087 1_455
O2 Si0 1.657809 1_555
O2 V2 1.991031 1_456
O3 Si0 1.658894 1_555
O3 V0 2.006578 1_555
O4 Si0 1.625284 1_555
O4 V3 1.933189 1_555
O5 Si0 1.632771 1_555
O5 V1 1.943511 1_555
O6 P0 1.568414 1_555
O6 V0 2.073424 1_555
O7 P1 1.571286 1_555
O7 V3 2.105784 1_545
O8 P1 1.565187 1_555
O8 V1 2.100837 1_555
O9 P1 1.543390 1_555
O9 V2 2.039993 1_555
O10 P1 1.534086 1_555
O10 V0 2.055492 1_554
O11 P0 1.568414 1_555
O11 V2 2.073424 1_555
O12 P2 1.567025 1_555
O12 V1 2.120514 1_555
O13 Si1 1.632771 1_555
O13 V3 1.943511 1_555
O14 Si1 1.625284 1_555
O14 V1 1.933189 1_555
O15 Si1 1.658894 1_555
O15 V2 2.006578 1_555
O16 Si1 1.657809 1_555
O16 V0 1.991031 1_564
O17 P2 1.567025 1_556
O17 V3 2.120514 1_555
O18 P3 1.534086 1_555
O18 V2 2.055492 1_556
O19 P3 1.543395 1_555
O19 V0 2.039990 1_555
O20 P3 1.565187 1_555
O20 V3 2.100837 1_555
O21 P3 1.571286 1_555
O21 V1 2.105784 1_655
O22 P0 1.529227 1_565
O22 V1 2.044831 1_655
O23 P2 1.536306 1_656
O23 V0 2.017087 1_565
