# generated using pymatgen
data_BaSr2I6
_symmetry_space_group_name_H-M   'P 1'
_cell_length_a   8.97438341
_cell_length_b   8.97438341
_cell_length_c   11.92077604
_cell_angle_alpha   87.08173987
_cell_angle_beta   87.08173987
_cell_angle_gamma   119.30135244
_symmetry_Int_Tables_number   1
_chemical_formula_structural   BaSr2I6
_chemical_formula_sum   'Ba2 Sr4 I12'
_cell_volume   832.99638107
_cell_formula_units_Z   2
loop_
 _symmetry_equiv_pos_site_id
 _symmetry_equiv_pos_as_xyz
  1  'x, y, z'
loop_
 _atom_site_type_symbol
 _atom_site_label
 _atom_site_symmetry_multiplicity
 _atom_site_fract_x
 _atom_site_fract_y
 _atom_site_fract_z
 _atom_site_occupancy
  Ba  Ba0  1  0.03158000  0.96842000  0.75000000  1
  Ba  Ba1  1  0.96842000  0.03158000  0.25000000  1
  Sr  Sr0  1  0.39419000  0.70434400  0.44491500  1
  Sr  Sr1  1  0.29565600  0.60581000  0.05508500  1
  Sr  Sr2  1  0.70434400  0.39419000  0.94491500  1
  Sr  Sr3  1  0.60581000  0.29565600  0.55508500  1
  I  I0  1  0.61027200  0.69665100  0.86603400  1
  I  I1  1  0.45236800  0.06631000  0.80535400  1
  I  I2  1  0.24247800  0.97788700  0.46685800  1
  I  I3  1  0.02211300  0.75752200  0.03314200  1
  I  I4  1  0.93369000  0.54763200  0.69464600  1
  I  I5  1  0.30334900  0.38972800  0.63396600  1
  I  I6  1  0.69665100  0.61027200  0.36603400  1
  I  I7  1  0.06631000  0.45236800  0.30535400  1
  I  I8  1  0.97788700  0.24247800  0.96685800  1
  I  I9  1  0.75752200  0.02211300  0.53314200  1
  I  I10  1  0.54763200  0.93369000  0.19464600  1
  I  I11  1  0.38972800  0.30334900  0.13396600  1
loop_
_geom_bond_atom_site_label_1
_geom_bond_atom_site_label_2
_geom_bond_distance
_geom_bond_site_symmetry_2
Ba0 I5 3.500767 1_565
Ba0 I0 3.500767 1_455
Ba0 I1 3.540238 1_565
Ba0 I4 3.540238 1_455
Ba0 I2 3.760964 1_555
Ba0 I3 3.760964 1_556
Ba0 I8 3.826845 1_465
Ba0 I9 3.826845 1_465
Ba1 I11 3.500767 1_655
Ba1 I6 3.500767 1_545
Ba1 I7 3.540238 1_655
Ba1 I10 3.540238 1_545
Ba1 I8 3.760964 1_554
Ba1 I9 3.760964 1_555
Ba1 I2 3.826845 1_645
Ba1 I3 3.826845 1_645
I0 Sr1 3.259990 1_556
I0 Sr2 3.320977 1_555
I1 Sr2 3.302787 1_555
I1 Sr3 3.348955 1_555
I2 Sr0 3.353991 1_555
I2 Sr3 3.379904 1_565
I3 Sr1 3.353991 1_555
I3 Sr2 3.379904 1_454
I4 Sr3 3.302787 1_555
I4 Sr2 3.348955 1_555
I5 Sr0 3.259990 1_555
I5 Sr3 3.320977 1_555
I6 Sr3 3.259990 1_555
I6 Sr0 3.320977 1_555
I7 Sr0 3.302787 1_555
I7 Sr1 3.348955 1_555
I8 Sr2 3.353991 1_555
I8 Sr1 3.379904 1_656
I9 Sr3 3.353991 1_555
I9 Sr0 3.379904 1_545
I10 Sr1 3.302787 1_555
I10 Sr0 3.348955 1_555
I11 Sr2 3.259990 1_554
I11 Sr1 3.320977 1_555
