# generated using pymatgen
data_LiFeSiO4
_symmetry_space_group_name_H-M   'P 1'
_cell_length_a   5.13706800
_cell_length_b   10.27359200
_cell_length_c   13.45671300
_cell_angle_alpha   90.00000000
_cell_angle_beta   90.00000000
_cell_angle_gamma   90.00000000
_symmetry_Int_Tables_number   1
_chemical_formula_structural   LiFeSiO4
_chemical_formula_sum   'Li8 Fe8 Si8 O32'
_cell_volume   710.19337876
_cell_formula_units_Z   8
loop_
 _symmetry_equiv_pos_site_id
 _symmetry_equiv_pos_as_xyz
  1  'x, y, z'
loop_
 _atom_site_type_symbol
 _atom_site_label
 _atom_site_symmetry_multiplicity
 _atom_site_fract_x
 _atom_site_fract_y
 _atom_site_fract_z
 _atom_site_occupancy
  Li  Li0  1  0.90904400  0.03616000  0.49649900  1
  Li  Li1  1  0.56028400  0.21573300  0.25066600  1
  Li  Li2  1  0.56028400  0.28426700  0.75066600  1
  Li  Li3  1  0.90904400  0.46384000  0.99649900  1
  Li  Li4  1  0.09095600  0.53616000  0.49649900  1
  Li  Li5  1  0.43971600  0.71573300  0.25066600  1
  Li  Li6  1  0.43971600  0.78426700  0.75066600  1
  Li  Li7  1  0.09095600  0.96384000  0.99649900  1
  Fe  Fe0  1  0.06977100  0.04047700  0.24663700  1
  Fe  Fe1  1  0.55485500  0.21389700  0.00006300  1
  Fe  Fe2  1  0.55485500  0.28610300  0.50006300  1
  Fe  Fe3  1  0.06977100  0.45952300  0.74663700  1
  Fe  Fe4  1  0.93022900  0.54047700  0.24663700  1
  Fe  Fe5  1  0.44514500  0.71389700  0.00006300  1
  Fe  Fe6  1  0.44514500  0.78610300  0.50006300  1
  Fe  Fe7  1  0.93022900  0.95952300  0.74663700  1
  Si  Si0  1  0.42562800  0.03453000  0.62460800  1
  Si  Si1  1  0.05563800  0.21289700  0.87196800  1
  Si  Si2  1  0.05563800  0.28710300  0.37196800  1
  Si  Si3  1  0.42562800  0.46547000  0.12460800  1
  Si  Si4  1  0.57437200  0.53453000  0.62460800  1
  Si  Si5  1  0.94436200  0.71289700  0.87196800  1
  Si  Si6  1  0.94436200  0.78710300  0.37196800  1
  Si  Si7  1  0.57437200  0.96547000  0.12460800  1
  O  O0  1  0.89071900  0.99138100  0.12897200  1
  O  O1  1  0.54176100  0.96282900  0.52431700  1
  O  O2  1  0.43447400  0.03320600  0.22200500  1
  O  O3  1  0.00587000  0.05522900  0.86434700  1
  O  O4  1  0.48999100  0.19081000  0.61958900  1
  O  O5  1  0.90145100  0.23255400  0.47096700  1
  O  O6  1  0.94316600  0.28821800  0.77299000  1
  O  O7  1  0.36749100  0.24836200  0.88076800  1
  O  O8  1  0.36749100  0.25163800  0.38076800  1
  O  O9  1  0.94316600  0.21178200  0.27299000  1
  O  O10  1  0.90145100  0.26744600  0.97096700  1
  O  O11  1  0.48999100  0.30919000  0.11958900  1
  O  O12  1  0.00587000  0.44477100  0.36434700  1
  O  O13  1  0.43447400  0.46679400  0.72200500  1
  O  O14  1  0.54176100  0.53717100  0.02431700  1
  O  O15  1  0.89071900  0.50861900  0.62897200  1
  O  O16  1  0.10928100  0.49138100  0.12897200  1
  O  O17  1  0.45823900  0.46282900  0.52431700  1
  O  O18  1  0.56552600  0.53320600  0.22200500  1
  O  O19  1  0.99413000  0.55522900  0.86434700  1
  O  O20  1  0.51000900  0.69081000  0.61958900  1
  O  O21  1  0.09854900  0.73255400  0.47096700  1
  O  O22  1  0.05683400  0.78821800  0.77299000  1
  O  O23  1  0.63250900  0.74836200  0.88076800  1
  O  O24  1  0.63250900  0.75163800  0.38076800  1
  O  O25  1  0.05683400  0.71178200  0.27299000  1
  O  O26  1  0.09854900  0.76744600  0.97096700  1
  O  O27  1  0.51000900  0.80919000  0.11958900  1
  O  O28  1  0.99413000  0.94477100  0.36434700  1
  O  O29  1  0.56552600  0.96679400  0.72200500  1
  O  O30  1  0.45823900  0.03717100  0.02431700  1
  O  O31  1  0.10928100  0.00861900  0.62897200  1
loop_
_geom_bond_atom_site_label_1
_geom_bond_atom_site_label_2
_geom_bond_distance
_geom_bond_site_symmetry_2
Li0 O5 2.047087 1_555
Li0 O28 2.057920 1_545
Li0 O1 2.065806 1_545
Li0 O31 2.077495 1_655
Li1 O9 1.990114 1_555
Li1 O2 2.020607 1_555
Li1 O11 2.040461 1_555
Li1 O8 2.045006 1_555
Li2 O6 1.990114 1_555
Li2 O13 2.020607 1_555
Li2 O4 2.040461 1_555
Li2 O7 2.045006 1_555
Li3 O10 2.047087 1_555
Li3 O19 2.057920 1_555
Li3 O14 2.065806 1_556
Li3 O16 2.077495 1_656
Li4 O21 2.047087 1_555
Li4 O12 2.057920 1_555
Li4 O17 2.065806 1_555
Li4 O15 2.077495 1_455
Li5 O25 1.990114 1_555
Li5 O18 2.020607 1_555
Li5 O27 2.040461 1_555
Li5 O24 2.045006 1_555
Li6 O22 1.990114 1_555
Li6 O29 2.020607 1_555
Li6 O20 2.040461 1_555
Li6 O23 2.045006 1_555
Li7 O26 2.047087 1_555
Li7 O3 2.057920 1_565
Li7 O30 2.065806 1_566
Li7 O0 2.077495 1_456
Fe0 O0 1.899356 1_445
Fe0 O2 1.904066 1_555
Fe0 O28 1.904411 1_445
Fe0 O9 1.909466 1_455
Fe1 O10 1.904230 1_554
Fe1 O7 1.904949 1_554
Fe1 O30 1.910315 1_555
Fe1 O11 1.912201 1_555
Fe2 O5 1.904230 1_555
Fe2 O8 1.904949 1_555
Fe2 O17 1.910315 1_555
Fe2 O4 1.912201 1_555
Fe3 O15 1.899356 1_455
Fe3 O13 1.904066 1_555
Fe3 O19 1.904411 1_455
Fe3 O6 1.909466 1_455
Fe4 O16 1.899356 1_655
Fe4 O18 1.904066 1_555
Fe4 O12 1.904411 1_655
Fe4 O25 1.909466 1_655
Fe5 O26 1.904230 1_554
Fe5 O23 1.904949 1_554
Fe5 O14 1.910315 1_555
Fe5 O27 1.912201 1_555
Fe6 O21 1.904230 1_555
Fe6 O24 1.904949 1_555
Fe6 O1 1.910315 1_555
Fe6 O20 1.912201 1_555
Fe7 O31 1.899356 1_665
Fe7 O29 1.904066 1_555
Fe7 O3 1.904411 1_665
Fe7 O22 1.909466 1_655
O0 Si7 1.647801 1_555
O1 Si0 1.649217 1_565
O2 Si7 1.648797 1_545
O3 Si1 1.643072 1_555
O4 Si0 1.640639 1_555
O5 Si2 1.648089 1_655
O6 Si1 1.645183 1_655
O7 Si1 1.647183 1_555
O8 Si2 1.647183 1_555
O9 Si2 1.645183 1_655
O10 Si1 1.648089 1_655
O11 Si3 1.640639 1_555
O12 Si2 1.643072 1_555
O13 Si4 1.648797 1_555
O14 Si3 1.649217 1_555
O15 Si4 1.647801 1_555
O16 Si3 1.647801 1_555
O17 Si4 1.649217 1_555
O18 Si3 1.648797 1_555
O19 Si5 1.643072 1_555
O20 Si4 1.640639 1_555
O21 Si6 1.648089 1_455
O22 Si5 1.645183 1_455
O23 Si5 1.647183 1_555
O24 Si6 1.647183 1_555
O25 Si6 1.645183 1_455
O26 Si5 1.648089 1_455
O27 Si7 1.640639 1_555
O28 Si6 1.643072 1_555
O29 Si0 1.648797 1_565
O30 Si7 1.649217 1_545
O31 Si0 1.647801 1_555
