# generated using pymatgen
data_Ti3CoSn2(PO4)6
_symmetry_space_group_name_H-M   'P 1'
_cell_length_a   9.05123923
_cell_length_b   9.05123923
_cell_length_c   9.05123867
_cell_angle_alpha   57.14564610
_cell_angle_beta   57.14564610
_cell_angle_gamma   57.14565135
_symmetry_Int_Tables_number   1
_chemical_formula_structural   Ti3CoSn2(PO4)6
_chemical_formula_sum   'Ti3 Co1 Sn2 P6 O24'
_cell_volume   489.85130483
_cell_formula_units_Z   1
loop_
 _symmetry_equiv_pos_site_id
 _symmetry_equiv_pos_as_xyz
  1  'x, y, z'
loop_
 _atom_site_type_symbol
 _atom_site_label
 _atom_site_symmetry_multiplicity
 _atom_site_fract_x
 _atom_site_fract_y
 _atom_site_fract_z
 _atom_site_occupancy
  Ti  Ti0  1  0.64789700  0.64789700  0.64789700  1
  Ti  Ti1  1  0.85534900  0.85534900  0.85534900  1
  Ti  Ti2  1  0.34851500  0.34851500  0.34851500  1
  Co  Co0  1  0.15004000  0.15004000  0.15004000  1
  Sn  Sn0  1  0.01243500  0.01243500  0.01243500  1
  Sn  Sn1  1  0.49744000  0.49744000  0.49744000  1
  P  P0  1  0.95843700  0.24910900  0.53727300  1
  P  P1  1  0.53727300  0.95843700  0.24910900  1
  P  P2  1  0.24910900  0.53727300  0.95843700  1
  P  P3  1  0.74671000  0.46595000  0.03772700  1
  P  P4  1  0.46595000  0.03772700  0.74671000  1
  P  P5  1  0.03772700  0.74671000  0.46595000  1
  O  O0  1  0.50231500  0.12922800  0.28413000  1
  O  O1  1  0.28413000  0.50231500  0.12922800  1
  O  O2  1  0.12922800  0.28413000  0.50231500  1
  O  O3  1  0.93573200  0.07557100  0.72106400  1
  O  O4  1  0.97935700  0.22229000  0.37555300  1
  O  O5  1  0.77773800  0.42201600  0.57428400  1
  O  O6  1  0.72106400  0.93573200  0.07557100  1
  O  O7  1  0.57428400  0.77773800  0.42201600  1
  O  O8  1  0.78754800  0.62935300  0.00309200  1
  O  O9  1  0.42201600  0.57428400  0.77773800  1
  O  O10  1  0.91677900  0.28138500  0.05655900  1
  O  O11  1  0.62935300  0.00309200  0.78754800  1
  O  O12  1  0.37555300  0.97935700  0.22229000  1
  O  O13  1  0.07557100  0.72106400  0.93573200  1
  O  O14  1  0.57161500  0.44379800  0.22187000  1
  O  O15  1  0.22229000  0.37555300  0.97935700  1
  O  O16  1  0.44379800  0.22187000  0.57161500  1
  O  O17  1  0.28138500  0.05655900  0.91677900  1
  O  O18  1  0.22187000  0.57161500  0.44379800  1
  O  O19  1  0.00309200  0.78754800  0.62935300  1
  O  O20  1  0.05655900  0.91677900  0.28138500  1
  O  O21  1  0.87556600  0.69987200  0.50639200  1
  O  O22  1  0.69987200  0.50639200  0.87556600  1
  O  O23  1  0.50639200  0.87556600  0.69987200  1
loop_
_geom_bond_atom_site_label_1
_geom_bond_atom_site_label_2
_geom_bond_distance
_geom_bond_site_symmetry_2
Co0 O4 1.977726 1_455
Co0 O15 1.977726 1_554
Co0 O12 1.977726 1_545
Co0 O17 2.170332 1_554
Co0 O20 2.170332 1_545
Co0 O10 2.170332 1_455
O0 P1 1.575577 1_545
O0 Ti2 1.895755 1_555
O1 P2 1.575577 1_554
O1 Ti2 1.895755 1_555
O2 P0 1.575577 1_455
O2 Ti2 1.895755 1_555
O3 P0 1.555955 1_555
O3 Ti1 1.991278 1_545
O4 P0 1.507421 1_555
O5 P0 1.560011 1_555
O5 Ti0 2.006616 1_555
O5 Sn1 2.628041 1_555
O6 P1 1.555955 1_555
O6 Ti1 1.991278 1_554
O7 P1 1.560011 1_555
O7 Ti0 2.006615 1_555
O7 Sn1 2.628041 1_555
O8 P3 1.544900 1_555
O8 Ti1 1.962847 1_554
O9 P2 1.560011 1_555
O9 Ti0 2.006615 1_555
O9 Sn1 2.628041 1_555
O10 P3 1.541078 1_555
O10 Sn0 2.286470 1_655
O11 P4 1.544900 1_555
O11 Ti1 1.962847 1_545
O12 P1 1.507421 1_555
O13 P2 1.555955 1_555
O13 Ti1 1.991278 1_455
O14 P3 1.563971 1_555
O14 Ti2 2.107341 1_555
O14 Sn1 2.459903 1_555
O15 P2 1.507421 1_555
O16 P4 1.563971 1_555
O16 Ti2 2.107341 1_555
O16 Sn1 2.459903 1_555
O17 P4 1.541078 1_555
O17 Sn0 2.286470 1_556
O18 P5 1.563971 1_555
O18 Ti2 2.107342 1_555
O18 Sn1 2.459903 1_555
O19 P5 1.544900 1_555
O19 Ti1 1.962847 1_455
O20 P5 1.541078 1_555
O20 Sn0 2.286470 1_565
O21 P5 1.546561 1_655
O21 Ti0 1.908552 1_555
O22 P3 1.546561 1_556
O22 Ti0 1.908552 1_555
O23 P4 1.546561 1_565
O23 Ti0 1.908552 1_555
