# generated using pymatgen
data_CsInO2
_symmetry_space_group_name_H-M   'P 1'
_cell_length_a   3.47276104
_cell_length_b   3.47276104
_cell_length_c   13.47895100
_cell_angle_alpha   90.00000000
_cell_angle_beta   90.00000000
_cell_angle_gamma   119.99998163
_symmetry_Int_Tables_number   1
_chemical_formula_structural   CsInO2
_chemical_formula_sum   'Cs2 In2 O4'
_cell_volume   140.77858861
_cell_formula_units_Z   2
loop_
 _symmetry_equiv_pos_site_id
 _symmetry_equiv_pos_as_xyz
  1  'x, y, z'
loop_
 _atom_site_type_symbol
 _atom_site_label
 _atom_site_symmetry_multiplicity
 _atom_site_fract_x
 _atom_site_fract_y
 _atom_site_fract_z
 _atom_site_occupancy
  Cs  Cs0  1  0.66666700  0.33333300  0.75000000  1
  Cs  Cs1  1  0.33333300  0.66666700  0.25000000  1
  In  In0  1  0.00000000  0.00000000  0.00000000  1
  In  In1  1  0.00000000  0.00000000  0.50000000  1
  O  O0  1  0.66666700  0.33333300  0.08254800  1
  O  O1  1  0.66666700  0.33333300  0.41745200  1
  O  O2  1  0.33333300  0.66666700  0.58254800  1
  O  O3  1  0.33333300  0.66666700  0.91745200  1
loop_
_geom_bond_atom_site_label_1
_geom_bond_atom_site_label_2
_geom_bond_distance
_geom_bond_site_symmetry_2
Cs0 O2 3.019009 1_655
Cs0 O2 3.019009 1_545
Cs0 O3 3.019009 1_655
Cs0 O3 3.019009 1_545
Cs0 O3 3.019012 1_555
Cs0 O2 3.019012 1_555
Cs1 O0 3.019009 1_455
Cs1 O1 3.019009 1_455
Cs1 O0 3.019009 1_565
Cs1 O1 3.019009 1_565
Cs1 O1 3.019012 1_555
Cs1 O0 3.019012 1_555
In0 O3 2.293039 1_544
In0 O0 2.293039 1_455
In0 O0 2.293042 1_555
In0 O3 2.293042 1_554
In0 O0 2.293042 1_445
In0 O3 2.293042 1_444
In1 O2 2.293039 1_545
In1 O1 2.293039 1_455
In1 O1 2.293042 1_555
In1 O2 2.293042 1_555
In1 O2 2.293042 1_445
In1 O1 2.293042 1_445
