# generated using pymatgen
data_BiPO4
_symmetry_space_group_name_H-M   'P 1'
_cell_length_a   6.97242576
_cell_length_b   6.97248377
_cell_length_c   6.43984079
_cell_angle_alpha   89.99903216
_cell_angle_beta   90.00051177
_cell_angle_gamma   120.00153651
_symmetry_Int_Tables_number   1
_chemical_formula_structural   BiPO4
_chemical_formula_sum   'Bi3 P3 O12'
_cell_volume   271.12555137
_cell_formula_units_Z   3
loop_
 _symmetry_equiv_pos_site_id
 _symmetry_equiv_pos_as_xyz
  1  'x, y, z'
loop_
 _atom_site_type_symbol
 _atom_site_label
 _atom_site_symmetry_multiplicity
 _atom_site_fract_x
 _atom_site_fract_y
 _atom_site_fract_z
 _atom_site_occupancy
  Bi  Bi0  1  0.47995669  -0.00000656  0.83335695  1
  Bi  Bi1  1  0.52003764  0.52003781  0.50001104  1
  Bi  Bi2  1  -0.00000369  0.47995936  0.16664089  1
  P  P0  1  0.43984621  0.00000087  0.33333887  1
  P  P1  1  0.56013438  0.56013903  0.00000744  1
  P  P2  1  0.00000140  0.43984198  0.66665225  1
  O  O0  1  0.23722509  0.84288249  0.20251916  1
  O  O1  1  0.60564647  0.76280329  0.86914617  1
  O  O2  1  0.15712672  0.39435838  0.53585751  1
  O  O3  1  0.76279020  0.60563644  0.13085669  1
  O  O4  1  0.84287251  0.23721898  0.79747710  1
  O  O5  1  0.39436812  0.15713548  0.46414132  1
  O  O6  1  0.50146556  0.87540782  0.49304926  1
  O  O7  1  0.37389517  0.49853284  0.15971885  1
  O  O8  1  0.12462821  0.62605953  0.82639033  1
  O  O9  1  0.49853200  0.37389926  0.84027888  1
  O  O10  1  0.87541162  0.50147084  0.50695118  1
  O  O11  1  0.62606571  0.12462216  0.17360612  1
loop_
_geom_bond_atom_site_label_1
_geom_bond_atom_site_label_2
_geom_bond_distance
_geom_bond_site_symmetry_2
Bi0 O1 2.237316 1_545
Bi0 O4 2.237544 1_555
Bi0 O11 2.389310 1_556
Bi0 O6 2.389607 1_545
Bi0 O9 2.545156 1_555
Bi0 O8 2.545193 1_545
Bi0 O0 2.803930 1_546
Bi0 O5 2.804246 1_555
Bi1 O5 2.237516 1_555
Bi1 O2 2.237521 1_555
Bi1 O9 2.389465 1_555
Bi1 O7 2.389625 1_555
Bi1 O10 2.545413 1_555
Bi1 O6 2.545427 1_555
Bi1 O1 2.803943 1_555
Bi1 O3 2.803987 1_555
Bi2 O3 2.237343 1_455
Bi2 O0 2.237603 1_555
Bi2 O8 2.389294 1_554
Bi2 O10 2.389617 1_455
Bi2 O7 2.545091 1_555
Bi2 O11 2.545206 1_455
Bi2 O4 2.803996 1_454
Bi2 O2 2.804247 1_555
O0 P0 1.535582 1_565
O1 P1 1.535967 1_556
O2 P2 1.535491 1_555
O3 P1 1.535900 1_555
O4 P2 1.535619 1_655
O5 P0 1.535559 1_555
O6 P0 1.539582 1_565
O7 P1 1.539727 1_555
O8 P2 1.539755 1_555
O9 P1 1.539824 1_556
O10 P2 1.539562 1_655
O11 P0 1.539718 1_555
