# generated using pymatgen
data_Li3MnFeCo(PO4)3
_symmetry_space_group_name_H-M   'P 1'
_cell_length_a   6.09142300
_cell_length_b   10.44697300
_cell_length_c   14.31023569
_cell_angle_alpha   89.90494898
_cell_angle_beta   90.00000000
_cell_angle_gamma   90.00000000
_symmetry_Int_Tables_number   1
_chemical_formula_structural   Li3MnFeCo(PO4)3
_chemical_formula_sum   'Li12 Mn4 Fe4 Co4 P12 O48'
_cell_volume   910.65823695
_cell_formula_units_Z   4
loop_
 _symmetry_equiv_pos_site_id
 _symmetry_equiv_pos_as_xyz
  1  'x, y, z'
loop_
 _atom_site_type_symbol
 _atom_site_label
 _atom_site_symmetry_multiplicity
 _atom_site_fract_x
 _atom_site_fract_y
 _atom_site_fract_z
 _atom_site_occupancy
  Li  Li0  1  0.74998500  0.99854700  0.33322200  1
  Li  Li1  1  0.24938700  0.99961000  0.00038600  1
  Li  Li2  1  0.75061300  0.99961000  0.00038600  1
  Li  Li3  1  0.24955500  0.99844800  0.66660800  1
  Li  Li4  1  0.75044500  0.99844800  0.66660800  1
  Li  Li5  1  0.25001500  0.99854700  0.33322200  1
  Li  Li6  1  0.24993000  0.50112900  0.49974000  1
  Li  Li7  1  0.75007000  0.50112900  0.49974000  1
  Li  Li8  1  0.24944200  0.50099800  0.83302200  1
  Li  Li9  1  0.75055800  0.50099800  0.83302200  1
  Li  Li10  1  0.24975800  0.50152600  0.16698500  1
  Li  Li11  1  0.75024200  0.50152600  0.16698500  1
  Mn  Mn0  1  0.50000000  0.21830800  0.84052200  1
  Mn  Mn1  1  0.00000000  0.28130200  0.34035600  1
  Mn  Mn2  1  0.00000000  0.28106300  0.67340600  1
  Mn  Mn3  1  0.50000000  0.72010600  0.99309900  1
  Fe  Fe0  1  0.50000000  0.21935800  0.50669500  1
  Fe  Fe1  1  0.50000000  0.21869800  0.17382500  1
  Fe  Fe2  1  0.00000000  0.28031500  0.00772000  1
  Fe  Fe3  1  0.50000000  0.71969600  0.65858500  1
  Co  Co0  1  0.50000000  0.72146500  0.32808600  1
  Co  Co1  1  0.00000000  0.78108100  0.16101500  1
  Co  Co2  1  0.00000000  0.77920700  0.49359300  1
  Co  Co3  1  0.00000000  0.77902100  0.82643200  1
  P  P0  1  0.00000000  0.09363400  0.19300600  1
  P  P1  1  0.00000000  0.09268900  0.86200900  1
  P  P2  1  0.00000000  0.09271800  0.52666000  1
  P  P3  1  0.50000000  0.40779600  0.69390600  1
  P  P4  1  0.50000000  0.40670700  0.36089700  1
  P  P5  1  0.50000000  0.40496100  0.02793200  1
  P  P6  1  0.00000000  0.59672600  0.63892700  1
  P  P7  1  0.00000000  0.59417800  0.97165900  1
  P  P8  1  0.00000000  0.59718300  0.30516500  1
  P  P9  1  0.50000000  0.90573600  0.14030400  1
  P  P10  1  0.50000000  0.90443600  0.80509500  1
  P  P11  1  0.50000000  0.90447400  0.47271600  1
  O  O0  1  0.50000000  0.04139100  0.76279900  1
  O  O1  1  0.50000000  0.04174800  0.43153100  1
  O  O2  1  0.50000000  0.04230500  0.09886100  1
  O  O3  1  0.00000000  0.09513600  0.41959300  1
  O  O4  1  0.00000000  0.09654800  0.08585800  1
  O  O5  1  0.00000000  0.09629400  0.75471300  1
  O  O6  1  0.20064800  0.16354000  0.90678700  1
  O  O7  1  0.79935200  0.16354000  0.90678700  1
  O  O8  1  0.20216700  0.16320500  0.57043900  1
  O  O9  1  0.79783300  0.16320500  0.57043900  1
  O  O10  1  0.20204800  0.16386900  0.23709500  1
  O  O11  1  0.79795200  0.16386900  0.23709500  1
  O  O12  1  0.69993000  0.33635500  0.40686700  1
  O  O13  1  0.30007000  0.33635500  0.40686700  1
  O  O14  1  0.70149300  0.33748200  0.73876600  1
  O  O15  1  0.29850700  0.33748200  0.73876600  1
  O  O16  1  0.70157400  0.33336600  0.07161200  1
  O  O17  1  0.29842600  0.33336600  0.07161200  1
  O  O18  1  0.50000000  0.40334600  0.58678100  1
  O  O19  1  0.50000000  0.40451400  0.92087800  1
  O  O20  1  0.50000000  0.40189800  0.25426900  1
  O  O21  1  0.00000000  0.45989400  0.59705200  1
  O  O22  1  0.00000000  0.45626800  0.93206700  1
  O  O23  1  0.00000000  0.45953200  0.26426700  1
  O  O24  1  0.50000000  0.54491400  0.73452700  1
  O  O25  1  0.50000000  0.54143400  0.07022400  1
  O  O26  1  0.50000000  0.54579500  0.40084200  1
  O  O27  1  0.00000000  0.59786500  0.74648300  1
  O  O28  1  0.00000000  0.59837500  0.07916600  1
  O  O29  1  0.00000000  0.59834500  0.41314900  1
  O  O30  1  0.20061800  0.66482200  0.92612100  1
  O  O31  1  0.20211700  0.66757600  0.59491800  1
  O  O32  1  0.20253500  0.66680900  0.26060600  1
  O  O33  1  0.79746500  0.66680900  0.26060600  1
  O  O34  1  0.79938200  0.66482200  0.92612100  1
  O  O35  1  0.79788300  0.66757600  0.59491800  1
  O  O36  1  0.70400100  0.83543500  0.09652100  1
  O  O37  1  0.29599900  0.83543500  0.09652100  1
  O  O38  1  0.70348500  0.83366500  0.76201500  1
  O  O39  1  0.70269800  0.83346200  0.42801600  1
  O  O40  1  0.29651500  0.83366500  0.76201500  1
  O  O41  1  0.29730200  0.83346200  0.42801600  1
  O  O42  1  0.50000000  0.90249000  0.24817700  1
  O  O43  1  0.50000000  0.90277500  0.57995300  1
  O  O44  1  0.50000000  0.90457900  0.91237800  1
  O  O45  1  0.00000000  0.95557900  0.23474100  1
  O  O46  1  0.00000000  0.95421300  0.90192100  1
  O  O47  1  0.00000000  0.95420900  0.56871700  1
loop_
_geom_bond_atom_site_label_1
_geom_bond_atom_site_label_2
_geom_bond_distance
_geom_bond_site_symmetry_2
Li0 O1 2.122207 1_565
Li0 O45 2.123453 1_655
Li0 O42 2.193401 1_555
Li0 O3 2.206668 1_665
Li0 O39 2.211277 1_555
Li0 O11 2.225464 1_565
Li1 O2 2.125407 1_565
Li1 O46 2.126103 1_554
Li1 O6 2.192600 1_564
Li1 O4 2.198512 1_565
Li1 O44 2.215034 1_554
Li1 O37 2.215188 1_555
Li2 O2 2.125407 1_565
Li2 O46 2.126103 1_654
Li2 O7 2.192600 1_564
Li2 O4 2.198512 1_665
Li2 O44 2.215034 1_554
Li2 O36 2.215188 1_555
Li3 O0 2.103678 1_565
Li3 O47 2.118713 1_555
Li3 O43 2.206396 1_555
Li3 O40 2.213949 1_555
Li3 O8 2.220803 1_565
Li3 O5 2.224775 1_565
Li4 O0 2.103678 1_565
Li4 O47 2.118713 1_655
Li4 O43 2.206396 1_555
Li4 O38 2.213949 1_555
Li4 O9 2.220803 1_565
Li4 O5 2.224775 1_665
Li5 O1 2.122207 1_565
Li5 O45 2.123453 1_555
Li5 O42 2.193401 1_555
Li5 O3 2.206668 1_565
Li5 O41 2.211277 1_555
Li5 O10 2.225464 1_565
Li6 O21 2.107271 1_555
Li6 O26 2.130464 1_555
Li6 O13 2.197815 1_555
Li6 O29 2.209196 1_555
Li6 O18 2.216115 1_555
Li6 O31 2.229673 1_555
Li7 O21 2.107271 1_655
Li7 O26 2.130464 1_555
Li7 O12 2.197815 1_555
Li7 O29 2.209196 1_655
Li7 O18 2.216115 1_555
Li7 O35 2.229673 1_555
Li8 O24 2.127075 1_555
Li8 O22 2.129276 1_555
Li8 O30 2.190906 1_555
Li8 O15 2.198729 1_555
Li8 O27 2.205059 1_555
Li8 O19 2.218535 1_555
Li9 O24 2.127075 1_555
Li9 O22 2.129276 1_655
Li9 O34 2.190906 1_555
Li9 O14 2.198729 1_555
Li9 O27 2.205059 1_655
Li9 O19 2.218535 1_555
Li10 O25 2.100668 1_555
Li10 O23 2.107858 1_555
Li10 O32 2.206091 1_555
Li10 O28 2.216619 1_555
Li10 O20 2.227710 1_555
Li10 O17 2.246055 1_555
Li11 O25 2.100668 1_555
Li11 O23 2.107858 1_655
Li11 O33 2.206091 1_555
Li11 O28 2.216619 1_655
Li11 O20 2.227710 1_555
Li11 O16 2.246055 1_555
Mn0 O6 2.133039 1_555
Mn0 O7 2.133039 1_555
Mn0 O0 2.158681 1_555
Mn0 O19 2.261387 1_555
Mn0 O15 2.273954 1_555
Mn0 O14 2.273954 1_555
Mn1 O13 2.139988 1_555
Mn1 O12 2.139988 1_455
Mn1 O23 2.155407 1_555
Mn1 O3 2.249653 1_555
Mn1 O10 2.282419 1_555
Mn1 O11 2.282419 1_455
Mn2 O14 2.128469 1_455
Mn2 O15 2.128469 1_555
Mn2 O21 2.162736 1_555
Mn2 O5 2.252177 1_555
Mn2 O9 2.282482 1_455
Mn2 O8 2.282482 1_555
Mn3 O30 2.140050 1_555
Mn3 O34 2.140050 1_555
Mn3 O25 2.166886 1_556
Mn3 O44 2.245216 1_555
Mn3 O36 2.278624 1_556
Mn3 O37 2.278624 1_556
Fe0 O9 2.113261 1_555
Fe0 O8 2.113261 1_555
Fe0 O1 2.146253 1_555
Fe0 O13 2.238773 1_555
Fe0 O12 2.238773 1_555
Fe0 O18 2.239481 1_555
Fe1 O10 2.107176 1_555
Fe1 O11 2.107176 1_555
Fe1 O2 2.133816 1_555
Fe1 O20 2.235054 1_555
Fe1 O17 2.253080 1_555
Fe1 O16 2.253080 1_555
Fe2 O16 2.109347 1_455
Fe2 O17 2.109347 1_555
Fe2 O22 2.131745 1_554
Fe2 O4 2.220102 1_555
Fe2 O6 2.252595 1_554
Fe2 O7 2.252595 1_454
Fe3 O31 2.102553 1_555
Fe3 O35 2.102553 1_555
Fe3 O24 2.123324 1_555
Fe3 O43 2.217465 1_555
Fe3 O40 2.269485 1_555
Fe3 O38 2.269485 1_555
Co0 O26 2.108482 1_555
Co0 O32 2.131581 1_555
Co0 O33 2.131581 1_555
Co0 O42 2.208383 1_555
Co0 O41 2.223514 1_555
Co0 O39 2.223514 1_555
Co1 O37 2.103211 1_555
Co1 O36 2.103211 1_455
Co1 O45 2.107777 1_555
Co1 O32 2.229955 1_555
Co1 O33 2.229955 1_455
Co1 O28 2.241103 1_555
Co2 O39 2.116560 1_455
Co2 O41 2.116560 1_555
Co2 O47 2.122428 1_555
Co2 O29 2.214154 1_555
Co2 O35 2.229952 1_455
Co2 O31 2.229952 1_555
Co3 O40 2.106241 1_555
Co3 O38 2.106241 1_455
Co3 O46 2.126796 1_555
Co3 O27 2.213097 1_555
Co3 O34 2.224005 1_455
Co3 O30 2.224005 1_555
O0 P10 1.552599 1_545
O1 P11 1.549576 1_545
O2 P9 1.544175 1_545
O3 P2 1.532320 1_555
O4 P0 1.533565 1_555
O5 P1 1.535830 1_555
O6 P1 1.566490 1_555
O7 P1 1.566490 1_655
O8 P2 1.566149 1_555
O9 P2 1.566149 1_655
O10 P0 1.566126 1_555
O11 P0 1.566126 1_655
O12 P4 1.566686 1_555
O13 P4 1.566686 1_555
O14 P3 1.567353 1_555
O15 P3 1.567353 1_555
O16 P5 1.567247 1_555
O17 P5 1.567247 1_555
O18 P3 1.533766 1_555
O19 P5 1.531983 1_556
O20 P4 1.526782 1_555
O21 P6 1.550918 1_555
O22 P7 1.549015 1_555
O23 P8 1.553470 1_555
O24 P3 1.546814 1_555
O25 P5 1.549789 1_555
O26 P4 1.562325 1_555
O27 P6 1.539217 1_555
O28 P7 1.539148 1_554
O29 P8 1.545344 1_555
O30 P7 1.568801 1_555
O31 P6 1.568033 1_555
O32 P8 1.567234 1_555
O33 P8 1.567234 1_655
O34 P7 1.568801 1_655
O35 P6 1.568033 1_655
O36 P9 1.574062 1_555
O37 P9 1.574062 1_555
O38 P10 1.569900 1_555
O39 P11 1.576591 1_555
O40 P10 1.569900 1_555
O41 P11 1.576591 1_555
O42 P9 1.544004 1_555
O43 P11 1.534660 1_555
O44 P10 1.535248 1_555
O45 P0 1.560109 1_565
O46 P1 1.554439 1_565
O47 P2 1.566249 1_565
