# generated using pymatgen
data_LiVPO4
_symmetry_space_group_name_H-M   'P 1'
_cell_length_a   11.22221800
_cell_length_b   5.70756000
_cell_length_c   9.97687228
_cell_angle_alpha   88.01674953
_cell_angle_beta   90.00000000
_cell_angle_gamma   90.00000000
_symmetry_Int_Tables_number   1
_chemical_formula_structural   LiVPO4
_chemical_formula_sum   'Li8 V8 P8 O32'
_cell_volume   638.65067133
_cell_formula_units_Z   8
loop_
 _symmetry_equiv_pos_site_id
 _symmetry_equiv_pos_as_xyz
  1  'x, y, z'
loop_
 _atom_site_type_symbol
 _atom_site_label
 _atom_site_symmetry_multiplicity
 _atom_site_fract_x
 _atom_site_fract_y
 _atom_site_fract_z
 _atom_site_occupancy
  Li  Li0  1  0.88994900  0.91887000  0.93006500  1
  Li  Li1  1  0.61005100  0.91887000  0.43006500  1
  Li  Li2  1  0.34004600  0.54184400  0.67021900  1
  Li  Li3  1  0.15995400  0.54184400  0.17021900  1
  Li  Li4  1  0.84004600  0.45815600  0.82978100  1
  Li  Li5  1  0.65995400  0.45815600  0.32978100  1
  Li  Li6  1  0.38994900  0.08113000  0.56993500  1
  Li  Li7  1  0.11005100  0.08113000  0.06993500  1
  V  V0  1  0.09956900  0.86842100  0.72979200  1
  V  V1  1  0.40043100  0.86842100  0.22979200  1
  V  V2  1  0.62878500  0.66904900  0.98386000  1
  V  V3  1  0.87121500  0.66904900  0.48386000  1
  V  V4  1  0.12878500  0.33095100  0.51614000  1
  V  V5  1  0.37121500  0.33095100  0.01614000  1
  V  V6  1  0.59956900  0.13157900  0.77020800  1
  V  V7  1  0.90043100  0.13157900  0.27020800  1
  P  P0  1  0.35789800  0.88102700  0.90582700  1
  P  P1  1  0.14210200  0.88102700  0.40582700  1
  P  P2  1  0.60574200  0.62231200  0.64737000  1
  P  P3  1  0.89425800  0.62231200  0.14737000  1
  P  P4  1  0.10574200  0.37768800  0.85263000  1
  P  P5  1  0.39425800  0.37768800  0.35263000  1
  P  P6  1  0.85789800  0.11897300  0.59417300  1
  P  P7  1  0.64210200  0.11897300  0.09417300  1
  O  O0  1  0.20389600  0.96008100  0.53893100  1
  O  O1  1  0.92818200  0.89729100  0.64425500  1
  O  O2  1  0.29610400  0.96008100  0.03893100  1
  O  O3  1  0.57181800  0.89729100  0.14425500  1
  O  O4  1  0.27282700  0.80715000  0.79581000  1
  O  O5  1  0.53923500  0.86532000  0.63046000  1
  O  O6  1  0.22717300  0.80715000  0.29581000  1
  O  O7  1  0.96076500  0.86532000  0.13046000  1
  O  O8  1  0.44023700  0.66942500  0.94114100  1
  O  O9  1  0.68242100  0.61900300  0.77834900  1
  O  O10  1  0.05976300  0.66942500  0.44114100  1
  O  O11  1  0.68578300  0.60076900  0.52081500  1
  O  O12  1  0.01435600  0.58184400  0.84179200  1
  O  O13  1  0.81757900  0.61900300  0.27834900  1
  O  O14  1  0.81421700  0.60076900  0.02081500  1
  O  O15  1  0.48564400  0.58184400  0.34179200  1
  O  O16  1  0.51435600  0.41815600  0.65820800  1
  O  O17  1  0.18578300  0.39923100  0.97918500  1
  O  O18  1  0.18242100  0.38099700  0.72165100  1
  O  O19  1  0.98564400  0.41815600  0.15820800  1
  O  O20  1  0.31421700  0.39923100  0.47918500  1
  O  O21  1  0.94023700  0.33057500  0.55885900  1
  O  O22  1  0.31757900  0.38099700  0.22165100  1
  O  O23  1  0.55976300  0.33057500  0.05885900  1
  O  O24  1  0.03923500  0.13468000  0.86954000  1
  O  O25  1  0.77282700  0.19285000  0.70419000  1
  O  O26  1  0.46076500  0.13468000  0.36954000  1
  O  O27  1  0.72717300  0.19285000  0.20419000  1
  O  O28  1  0.42818200  0.10270900  0.85574500  1
  O  O29  1  0.70389600  0.03991900  0.96106900  1
  O  O30  1  0.07181800  0.10270900  0.35574500  1
  O  O31  1  0.79610400  0.03991900  0.46106900  1
loop_
_geom_bond_atom_site_label_1
_geom_bond_atom_site_label_2
_geom_bond_distance
_geom_bond_site_symmetry_2
Li0 O24 2.153382 1_665
Li0 O7 2.163319 1_556
Li0 O14 2.173616 1_556
Li0 O29 2.224241 1_565
Li0 O12 2.557782 1_655
Li1 O26 2.153382 1_565
Li1 O5 2.163319 1_555
Li1 O11 2.173616 1_555
Li1 O31 2.224241 1_565
Li1 O15 2.557782 1_555
Li2 O18 2.050004 1_555
Li2 O16 2.084489 1_555
Li2 O20 2.118132 1_555
Li2 O4 2.136197 1_555
Li3 O22 2.050004 1_555
Li3 O19 2.084489 1_455
Li3 O17 2.118132 1_554
Li3 O6 2.136197 1_555
Li4 O9 2.050004 1_555
Li4 O12 2.084489 1_655
Li4 O14 2.118132 1_556
Li4 O25 2.136197 1_555
Li5 O13 2.050004 1_555
Li5 O15 2.084489 1_555
Li5 O11 2.118132 1_555
Li5 O27 2.136197 1_555
Li6 O5 2.153382 1_545
Li6 O26 2.163319 1_555
Li6 O20 2.173616 1_555
Li6 O0 2.224241 1_545
Li6 O16 2.557782 1_555
Li7 O7 2.153382 1_445
Li7 O24 2.163319 1_554
Li7 O17 2.173616 1_554
Li7 O2 2.224241 1_545
Li7 O19 2.557782 1_455
O0 P1 1.577794 1_555
O0 V0 2.280664 1_555
O0 V4 2.282449 1_565
O1 P6 1.558496 1_565
O1 V0 2.108303 1_655
O1 V3 2.193353 1_555
O2 P0 1.577794 1_554
O2 V1 2.280664 1_555
O2 V5 2.282449 1_565
O3 P7 1.558496 1_565
O3 V1 2.108303 1_555
O3 V2 2.193353 1_554
O4 P0 1.525134 1_555
O4 V0 2.078613 1_555
O5 P2 1.578935 1_555
O5 V6 2.204195 1_565
O6 P1 1.525134 1_555
O6 V1 2.078613 1_555
O7 P3 1.578935 1_555
O7 V7 2.204195 1_565
O8 P0 1.551489 1_555
O8 V2 2.158410 1_555
O8 V5 2.189040 1_556
O9 P2 1.564208 1_555
O9 V2 2.165270 1_555
O10 P1 1.551489 1_555
O10 V3 2.158410 1_455
O10 V4 2.189040 1_555
O11 P2 1.557855 1_555
O11 V3 2.146684 1_555
O12 P4 1.553222 1_555
O12 V0 2.170700 1_555
O13 P3 1.564208 1_555
O13 V3 2.165270 1_555
O14 P3 1.557855 1_555
O14 V2 2.146684 1_554
O15 P5 1.553222 1_555
O15 V1 2.170700 1_555
O16 P2 1.553222 1_555
O16 V6 2.170700 1_555
O17 P4 1.557855 1_555
O17 V5 2.146684 1_556
O18 P4 1.564208 1_555
O18 V4 2.165270 1_555
O19 P3 1.553222 1_555
O19 V7 2.170700 1_555
O20 P5 1.557855 1_555
O20 V4 2.146684 1_555
O21 P6 1.551489 1_555
O21 V4 2.158410 1_655
O21 V3 2.189040 1_555
O22 P5 1.564208 1_555
O22 V5 2.165270 1_555
O23 P7 1.551489 1_555
O23 V5 2.158410 1_555
O23 V2 2.189040 1_554
O24 P4 1.578935 1_555
O24 V0 2.204195 1_545
O25 P6 1.525134 1_555
O25 V6 2.078613 1_555
O26 P5 1.578935 1_555
O26 V1 2.204195 1_545
O27 P7 1.525134 1_555
O27 V7 2.078613 1_555
O28 P0 1.558496 1_545
O28 V6 2.108303 1_555
O28 V5 2.193353 1_556
O29 P7 1.577794 1_556
O29 V6 2.280664 1_555
O29 V2 2.282449 1_545
O30 P1 1.558496 1_545
O30 V7 2.108303 1_455
O30 V4 2.193353 1_555
O31 P6 1.577794 1_555
O31 V7 2.280664 1_555
O31 V3 2.282449 1_545
