# generated using pymatgen
data_LiV3OF11
_symmetry_space_group_name_H-M   'P 1'
_cell_length_a   5.47800700
_cell_length_b   6.01785720
_cell_length_c   7.04899614
_cell_angle_alpha   104.46095362
_cell_angle_beta   103.60238465
_cell_angle_gamma   93.25260246
_symmetry_Int_Tables_number   1
_chemical_formula_structural   LiV3OF11
_chemical_formula_sum   'Li1 V3 O1 F11'
_cell_volume   217.05052858
_cell_formula_units_Z   1
loop_
 _symmetry_equiv_pos_site_id
 _symmetry_equiv_pos_as_xyz
  1  'x, y, z'
loop_
 _atom_site_type_symbol
 _atom_site_label
 _atom_site_symmetry_multiplicity
 _atom_site_fract_x
 _atom_site_fract_y
 _atom_site_fract_z
 _atom_site_occupancy
  Li  Li0  1  0.18656500  0.52656300  0.62258000  1
  V  V0  1  0.59298300  0.15956400  0.36313500  1
  V  V1  1  0.31663200  0.65959400  0.16119100  1
  V  V2  1  0.97473300  0.97612400  0.95547600  1
  O  O0  1  0.30527000  0.96765100  0.15519700  1
  F  F0  1  0.83059200  0.07416800  0.19723600  1
  F  F1  1  0.96508600  0.66574000  0.00988800  1
  F  F2  1  0.87144400  0.31130300  0.56776300  1
  F  F3  1  0.65844100  0.93037100  0.80980500  1
  F  F4  1  0.54879200  0.40387800  0.23886600  1
  F  F5  1  0.61256700  0.84162000  0.38759200  1
  F  F6  1  0.39642400  0.25490900  0.53380500  1
  F  F7  1  0.41590000  0.56503300  0.93078600  1
  F  F8  1  0.17770300  0.61524300  0.36441800  1
  F  F9  1  0.09510100  0.27233300  0.98842500  1
  F  F10  1  0.09568300  0.84968800  0.73537800  1
loop_
_geom_bond_atom_site_label_1
_geom_bond_atom_site_label_2
_geom_bond_distance
_geom_bond_site_symmetry_2
O0 V1 1.869056 1_555
O0 V0 1.956446 1_565
O0 V2 2.027430 1_454
F0 V0 1.953865 1_555
F0 V2 2.014794 1_544
F1 V1 1.977159 1_655
F1 V2 1.998723 1_554
F2 V0 1.841320 1_555
F2 Li0 1.997442 1_655
F3 V2 1.760707 1_555
F4 V0 1.889822 1_555
F4 V1 2.144916 1_555
F5 V0 1.970138 1_565
F5 V1 2.020733 1_555
F6 V0 1.808481 1_555
F6 Li0 2.103900 1_555
F7 V1 1.801736 1_556
F7 Li0 2.187196 1_555
F8 V1 1.839388 1_555
F8 Li0 2.011264 1_555
F9 V2 1.803884 1_445
F9 V1 2.439958 1_556
F10 V2 1.837423 1_455
F10 Li0 2.045746 1_555
