# generated using pymatgen
data_Tb2Ti2O7
_symmetry_space_group_name_H-M   'P 1'
_cell_length_a   5.33223989
_cell_length_b   7.50252599
_cell_length_c   13.07367708
_cell_angle_alpha   81.63215842
_cell_angle_beta   90.00000000
_cell_angle_gamma   90.00000000
_symmetry_Int_Tables_number   1
_chemical_formula_structural   Tb2Ti2O7
_chemical_formula_sum   'Tb8 Ti8 O28'
_cell_volume   517.44802022
_cell_formula_units_Z   4
loop_
 _symmetry_equiv_pos_site_id
 _symmetry_equiv_pos_as_xyz
  1  'x, y, z'
loop_
 _atom_site_type_symbol
 _atom_site_label
 _atom_site_symmetry_multiplicity
 _atom_site_fract_x
 _atom_site_fract_y
 _atom_site_fract_z
 _atom_site_occupancy
  Tb  Tb0  1  0.22823918  0.35410654  0.11429937  1
  Tb  Tb1  1  0.76268049  0.28448518  0.36924406  1
  Tb  Tb2  1  0.15153870  0.85774479  0.06462293  1
  Tb  Tb3  1  0.72823918  0.64589346  0.88570063  1
  Tb  Tb4  1  0.74013984  0.76696803  0.42169028  1
  Tb  Tb5  1  0.26268049  0.71551482  0.63075594  1
  Tb  Tb6  1  0.24013984  0.23303197  0.57830972  1
  Tb  Tb7  1  0.65153870  0.14225521  0.93537707  1
  Ti  Ti0  1  0.21524821  0.41076142  0.82670877  1
  Ti  Ti1  1  0.74356592  0.46994671  0.62495121  1
  Ti  Ti2  1  0.74315044  0.96980788  0.62120484  1
  Ti  Ti3  1  0.24356592  0.53005329  0.37504879  1
  Ti  Ti4  1  0.71524821  0.58923858  0.17329123  1
  Ti  Ti5  1  0.22557783  0.92799551  0.82051196  1
  Ti  Ti6  1  0.24315044  0.03019212  0.37879516  1
  Ti  Ti7  1  0.72557783  0.07200449  0.17948804  1
  O  O0  1  0.97044181  0.05636923  0.47650801  1
  O  O1  1  0.05381687  0.12692817  0.26817306  1
  O  O2  1  0.55324099  0.51248207  0.73474243  1
  O  O3  1  0.07649841  0.42408073  0.67788224  1
  O  O4  1  0.41956796  0.41259387  0.94616170  1
  O  O5  1  0.63326200  0.32654292  0.19540467  1
  O  O6  1  0.91423527  0.36688971  0.88298974  1
  O  O7  1  0.35265385  0.27250762  0.40911050  1
  O  O8  1  0.47341298  0.54391299  0.52531030  1
  O  O9  1  0.05324099  0.48751793  0.26525757  1
  O  O10  1  0.97341298  0.45608701  0.47468970  1
  O  O11  1  0.91956796  0.58740613  0.05383830  1
  O  O12  1  0.44212159  0.86135963  0.93116451  1
  O  O13  1  0.13326200  0.67345708  0.80459533  1
  O  O14  1  0.85265385  0.72749238  0.59088950  1
  O  O15  1  0.83315500  0.82755355  0.18706941  1
  O  O16  1  0.16557074  0.77817191  0.38550137  1
  O  O17  1  0.94734870  0.92521052  0.90744579  1
  O  O18  1  0.41423527  0.63311029  0.11701026  1
  O  O19  1  0.07348420  0.98895880  0.67949952  1
  O  O20  1  0.57649841  0.57591927  0.32211776  1
  O  O21  1  0.47044181  0.94363077  0.52349199  1
  O  O22  1  0.55381687  0.87307183  0.73182694  1
  O  O23  1  0.66557074  0.22182809  0.61449863  1
  O  O24  1  0.94212159  0.13864037  0.06883549  1
  O  O25  1  0.33315500  0.17244645  0.81293059  1
  O  O26  1  0.44734870  0.07478948  0.09255421  1
  O  O27  1  0.57348420  0.01104120  0.32050048  1
loop_
_geom_bond_atom_site_label_1
_geom_bond_atom_site_label_2
_geom_bond_distance
_geom_bond_site_symmetry_2
O0 Ti6 1.964194 1_655
O0 Ti2 2.260899 1_545
O0 Tb1 2.329022 1_555
O0 Tb6 2.471767 1_655
O0 Tb4 2.681202 1_545
O1 Ti6 1.825397 1_555
O1 Ti7 2.171757 1_455
O1 Tb1 2.451104 1_455
O1 Tb0 2.611320 1_555
O2 Ti1 1.823568 1_555
O2 Ti0 2.238103 1_555
O2 Tb5 2.442588 1_555
O2 Tb3 2.518441 1_555
O3 Ti1 1.918222 1_455
O3 Ti0 2.070400 1_555
O3 Tb6 2.248018 1_555
O3 Tb5 2.398717 1_555
O4 Ti0 1.905855 1_555
O4 Tb7 2.397244 1_555
O4 Tb0 2.405124 1_556
O4 Tb3 2.448431 1_555
O5 Ti4 1.998307 1_555
O5 Ti7 2.012002 1_555
O5 Tb1 2.352089 1_555
O5 Tb0 2.401559 1_555
O6 Ti0 1.776375 1_655
O6 Tb7 2.221617 1_555
O6 Tb3 2.321226 1_555
O7 Ti6 2.003191 1_555
O7 Ti3 2.004939 1_555
O7 Tb1 2.246389 1_555
O7 Tb6 2.269398 1_555
O8 Ti1 1.967131 1_555
O8 Tb5 2.310233 1_555
O8 Ti3 2.330559 1_555
O8 Tb4 2.449221 1_555
O8 Tb6 2.645183 1_555
O9 Ti3 1.823568 1_555
O9 Ti4 2.238103 1_455
O9 Tb1 2.442588 1_455
O9 Tb0 2.518441 1_555
O10 Ti3 1.967131 1_655
O10 Tb1 2.310233 1_555
O10 Ti1 2.330559 1_555
O10 Tb6 2.449221 1_655
O10 Tb4 2.645183 1_555
O11 Ti4 1.905855 1_555
O11 Tb2 2.397244 1_655
O11 Tb3 2.405124 1_554
O11 Tb0 2.448431 1_655
O12 Ti5 1.861569 1_555
O12 Tb2 2.330683 1_556
O12 Tb3 2.360879 1_555
O12 Tb7 2.392696 1_565
O13 Ti0 1.998307 1_555
O13 Ti5 2.012002 1_555
O13 Tb5 2.352089 1_555
O13 Tb3 2.401559 1_455
O14 Ti2 2.003191 1_555
O14 Ti1 2.004939 1_555
O14 Tb5 2.246389 1_655
O14 Tb4 2.269398 1_555
O15 Ti7 1.910371 1_565
O15 Ti4 1.928283 1_555
O15 Tb2 2.321765 1_655
O16 Ti6 1.925005 1_565
O16 Ti3 1.931559 1_555
O16 Tb4 2.316339 1_455
O17 Ti5 1.867159 1_655
O17 Tb2 2.315487 1_656
O17 Tb7 2.333670 1_565
O17 Tb3 2.451676 1_555
O18 Ti4 1.776375 1_555
O18 Tb2 2.221617 1_555
O18 Tb0 2.321226 1_555
O19 Ti2 1.932860 1_455
O19 Ti5 2.005038 1_555
O19 Tb6 2.277698 1_565
O19 Tb5 2.452163 1_555
O20 Ti3 1.918222 1_555
O20 Ti4 2.070400 1_555
O20 Tb4 2.248018 1_555
O20 Tb1 2.398717 1_555
O21 Ti2 1.964194 1_555
O21 Ti6 2.260899 1_565
O21 Tb5 2.329022 1_555
O21 Tb4 2.471767 1_555
O21 Tb6 2.681202 1_565
O22 Ti2 1.825397 1_555
O22 Ti5 2.171757 1_555
O22 Tb5 2.451104 1_555
O22 Tb3 2.611320 1_555
O23 Ti2 1.925005 1_545
O23 Ti1 1.931559 1_555
O23 Tb6 2.316339 1_555
O24 Ti7 1.861569 1_555
O24 Tb7 2.330683 1_554
O24 Tb0 2.360879 1_655
O24 Tb2 2.392696 1_645
O25 Ti5 1.910371 1_545
O25 Ti0 1.928283 1_555
O25 Tb7 2.321765 1_555
O26 Ti7 1.867159 1_555
O26 Tb7 2.315487 1_554
O26 Tb2 2.333670 1_545
O26 Tb0 2.451676 1_555
O27 Ti6 1.932860 1_555
O27 Ti7 2.005038 1_555
O27 Tb4 2.277698 1_545
O27 Tb1 2.452163 1_555
