# generated using pymatgen
data_BaCdO2
_symmetry_space_group_name_H-M   'P 1'
_cell_length_a   3.69197323
_cell_length_b   6.19970638
_cell_length_c   12.02174781
_cell_angle_alpha   90.00000000
_cell_angle_beta   90.00000000
_cell_angle_gamma   90.00000000
_symmetry_Int_Tables_number   1
_chemical_formula_structural   BaCdO2
_chemical_formula_sum   'Ba4 Cd4 O8'
_cell_volume   275.16758875
_cell_formula_units_Z   4
loop_
 _symmetry_equiv_pos_site_id
 _symmetry_equiv_pos_as_xyz
  1  'x, y, z'
loop_
 _atom_site_type_symbol
 _atom_site_label
 _atom_site_symmetry_multiplicity
 _atom_site_fract_x
 _atom_site_fract_y
 _atom_site_fract_z
 _atom_site_occupancy
  Ba  Ba0  1  0.25000000  0.39616042  0.35759863  1
  Ba  Ba1  1  0.75000000  0.60383958  0.64240137  1
  Ba  Ba2  1  0.25000000  0.89616042  0.14240137  1
  Ba  Ba3  1  0.75000000  0.10383958  0.85759863  1
  Cd  Cd0  1  0.75000000  0.90593269  0.39311423  1
  Cd  Cd1  1  0.75000000  0.40593269  0.10688577  1
  Cd  Cd2  1  0.25000000  0.09406731  0.60688577  1
  Cd  Cd3  1  0.25000000  0.59406731  0.89311423  1
  O  O0  1  0.25000000  0.28068468  0.01809904  1
  O  O1  1  0.75000000  0.71931532  0.98190096  1
  O  O2  1  0.25000000  0.78068468  0.48190096  1
  O  O3  1  0.75000000  0.21931532  0.51809904  1
  O  O4  1  0.25000000  0.85592964  0.74885515  1
  O  O5  1  0.75000000  0.64407036  0.24885515  1
  O  O6  1  0.25000000  0.35592964  0.75114485  1
  O  O7  1  0.75000000  0.14407036  0.25114485  1
loop_
_geom_bond_atom_site_label_1
_geom_bond_atom_site_label_2
_geom_bond_distance
_geom_bond_site_symmetry_2
Ba0 O5 2.734765 1_555
Ba0 O5 2.734765 1_455
Ba0 O7 2.736432 1_455
Ba0 O7 2.736432 1_555
Ba0 O2 2.813571 1_555
Ba0 O3 2.886639 1_455
Ba0 O3 2.886639 1_555
Ba1 O6 2.734765 1_655
Ba1 O6 2.734765 1_555
Ba1 O4 2.736432 1_555
Ba1 O4 2.736432 1_655
Ba1 O3 2.813571 1_555
Ba1 O2 2.886639 1_555
Ba1 O2 2.886639 1_655
Ba2 O7 2.734765 1_565
Ba2 O7 2.734765 1_465
Ba2 O5 2.736432 1_455
Ba2 O5 2.736432 1_555
Ba2 O0 2.813571 1_565
Ba2 O1 2.886639 1_454
Ba2 O1 2.886639 1_554
Ba3 O4 2.734765 1_545
Ba3 O4 2.734765 1_645
Ba3 O6 2.736432 1_555
Ba3 O6 2.736432 1_655
Ba3 O1 2.813571 1_545
Ba3 O0 2.886639 1_656
Ba3 O0 2.886639 1_556
Cd0 O7 2.256679 1_565
Cd0 O2 2.269340 1_555
Cd0 O2 2.269340 1_655
Cd0 O5 2.375555 1_555
Cd0 O3 2.456094 1_565
Cd1 O5 2.256679 1_555
Cd1 O0 2.269340 1_555
Cd1 O0 2.269340 1_655
Cd1 O7 2.375555 1_555
Cd1 O1 2.456094 1_554
Cd2 O4 2.256679 1_545
Cd2 O3 2.269340 1_455
Cd2 O3 2.269340 1_555
Cd2 O6 2.375555 1_555
Cd2 O2 2.456094 1_545
Cd3 O6 2.256679 1_555
Cd3 O1 2.269340 1_555
Cd3 O1 2.269340 1_455
Cd3 O4 2.375555 1_555
Cd3 O0 2.456094 1_556
