# generated using pymatgen
data_FeOF
_symmetry_space_group_name_H-M   'P 1'
_cell_length_a   4.74623000
_cell_length_b   5.67798782
_cell_length_c   7.78563088
_cell_angle_alpha   85.56827974
_cell_angle_beta   89.85618695
_cell_angle_gamma   89.25357816
_symmetry_Int_Tables_number   1
_chemical_formula_structural   FeOF
_chemical_formula_sum   'Fe6 O6 F6'
_cell_volume   209.16993777
_cell_formula_units_Z   6
loop_
 _symmetry_equiv_pos_site_id
 _symmetry_equiv_pos_as_xyz
  1  'x, y, z'
loop_
 _atom_site_type_symbol
 _atom_site_label
 _atom_site_symmetry_multiplicity
 _atom_site_fract_x
 _atom_site_fract_y
 _atom_site_fract_z
 _atom_site_occupancy
  Fe  Fe0  1  0.52919600  0.84186200  0.66773600  1
  Fe  Fe1  1  0.43437400  0.50531900  0.00780500  1
  Fe  Fe2  1  0.53194900  0.18005100  0.33776300  1
  Fe  Fe3  1  0.98556000  0.32018800  0.67189900  1
  Fe  Fe4  1  0.98409800  0.65433300  0.33826000  1
  Fe  Fe5  1  0.02678200  0.00067700  0.97849100  1
  O  O0  1  0.80686600  0.37326200  0.44484100  1
  O  O1  1  0.80522500  0.03623100  0.76674800  1
  O  O2  1  0.69388800  0.87232700  0.43217300  1
  O  O3  1  0.30157900  0.45958700  0.24044700  1
  O  O4  1  0.31421700  0.79870100  0.89096100  1
  O  O5  1  0.19154800  0.29806400  0.89178000  1
  F  F0  1  0.80768600  0.70267100  0.09751500  1
  F  F1  1  0.69836500  0.20318000  0.09862200  1
  F  F2  1  0.69760800  0.53544200  0.77561900  1
  F  F3  1  0.29951100  0.12757300  0.56048400  1
  F  F4  1  0.19007100  0.96050300  0.22765800  1
  F  F5  1  0.20147500  0.63003300  0.57119800  1
loop_
_geom_bond_atom_site_label_1
_geom_bond_atom_site_label_2
_geom_bond_distance
_geom_bond_site_symmetry_2
Fe0 O1 1.924267 1_565
Fe0 O2 1.987914 1_555
Fe0 O4 2.013307 1_555
Fe1 O3 1.916038 1_555
Fe1 O4 1.916092 1_554
Fe1 O5 1.932346 1_554
Fe2 O0 1.945552 1_555
Fe2 O2 1.988289 1_545
Fe2 O3 2.015407 1_555
Fe3 O1 1.930340 1_555
Fe3 O0 1.963096 1_555
Fe3 O5 1.968305 1_655
Fe4 O0 1.941630 1_555
Fe4 O2 2.013531 1_555
Fe4 O3 2.038180 1_655
Fe5 O4 1.927714 1_545
Fe5 O5 1.942712 1_555
Fe5 O1 1.953458 1_455
F0 Fe4 2.052309 1_555
F0 Fe5 2.145199 1_664
F0 Fe1 2.249833 1_555
F1 Fe2 2.016228 1_555
F1 Fe5 2.176856 1_654
F1 Fe1 2.184931 1_555
F2 Fe0 2.027999 1_555
F2 Fe3 2.029087 1_555
F2 Fe1 2.191907 1_556
F3 Fe2 2.057133 1_555
F3 Fe0 2.065563 1_545
F3 Fe3 2.065566 1_455
F4 Fe5 2.085791 1_564
F4 Fe4 2.127920 1_455
F4 Fe2 2.268614 1_565
F5 Fe4 2.083155 1_455
F5 Fe3 2.142374 1_455
F5 Fe0 2.150643 1_555
