# generated using pymatgen
data_Li3Ti(PO4)2
_symmetry_space_group_name_H-M   'P 1'
_cell_length_a   8.92642900
_cell_length_b   4.98025500
_cell_length_c   7.81397676
_cell_angle_alpha   55.28088469
_cell_angle_beta   90.00000000
_cell_angle_gamma   90.00000000
_symmetry_Int_Tables_number   1
_chemical_formula_structural   Li3Ti(PO4)2
_chemical_formula_sum   'Li6 Ti2 P4 O16'
_cell_volume   285.52819546
_cell_formula_units_Z   2
loop_
 _symmetry_equiv_pos_site_id
 _symmetry_equiv_pos_as_xyz
  1  'x, y, z'
loop_
 _atom_site_type_symbol
 _atom_site_label
 _atom_site_symmetry_multiplicity
 _atom_site_fract_x
 _atom_site_fract_y
 _atom_site_fract_z
 _atom_site_occupancy
  Li  Li0  1  0.14242800  0.31921100  0.69646300  1
  Li  Li1  1  0.50000000  0.00000000  0.00000000  1
  Li  Li2  1  0.64242800  0.68078900  0.80353700  1
  Li  Li3  1  0.00000000  0.00000000  0.50000000  1
  Li  Li4  1  0.35757200  0.31921100  0.19646300  1
  Li  Li5  1  0.85757200  0.68078900  0.30353700  1
  Ti  Ti0  1  0.50000000  0.50000000  0.50000000  1
  Ti  Ti1  1  0.00000000  0.50000000  0.00000000  1
  P  P0  1  0.18094100  0.80482300  0.22259100  1
  P  P1  1  0.68094100  0.19517700  0.27740900  1
  P  P2  1  0.31905900  0.80482300  0.72259100  1
  P  P3  1  0.81905900  0.19517700  0.77740900  1
  O  O0  1  0.35468700  0.82018400  0.24900000  1
  O  O1  1  0.09877400  0.74106900  0.41267900  1
  O  O2  1  0.35668000  0.52530400  0.69286800  1
  O  O3  1  0.13407300  0.14015300  0.02224900  1
  O  O4  1  0.85668000  0.47469600  0.80713200  1
  O  O5  1  0.63407300  0.85984700  0.47775100  1
  O  O6  1  0.59877400  0.25893100  0.08732100  1
  O  O7  1  0.85468700  0.17981600  0.25100000  1
  O  O8  1  0.14531300  0.82018400  0.74900000  1
  O  O9  1  0.40122600  0.74106900  0.91267900  1
  O  O10  1  0.36592700  0.14015300  0.52224900  1
  O  O11  1  0.14332000  0.52530400  0.19286800  1
  O  O12  1  0.86592700  0.85984700  0.97775100  1
  O  O13  1  0.64332000  0.47469600  0.30713200  1
  O  O14  1  0.90122600  0.25893100  0.58732100  1
  O  O15  1  0.64531300  0.17981600  0.75100000  1
loop_
_geom_bond_atom_site_label_1
_geom_bond_atom_site_label_2
_geom_bond_distance
_geom_bond_site_symmetry_2
Li0 O1 2.043571 1_555
Li0 O2 2.163125 1_555
Li0 O3 2.166882 1_556
Li0 O8 2.276758 1_545
Li0 O14 2.396835 1_455
Li1 O9 1.976908 1_544
Li1 O6 1.976908 1_555
Li1 O0 2.070117 1_545
Li1 O15 2.070117 1_554
Li2 O6 2.043571 1_556
Li2 O4 2.163125 1_555
Li2 O5 2.166882 1_555
Li2 O15 2.276758 1_565
Li2 O9 2.396835 1_555
Li3 O1 1.976908 1_545
Li3 O14 1.976908 1_455
Li3 O8 2.070117 1_545
Li3 O7 2.070117 1_455
Li4 O9 2.043571 1_554
Li4 O11 2.163125 1_555
Li4 O10 2.166882 1_555
Li4 O0 2.276758 1_545
Li4 O6 2.396835 1_555
Li5 O14 2.043571 1_555
Li5 O13 2.163125 1_555
Li5 O12 2.166882 1_554
Li5 O7 2.276758 1_565
Li5 O1 2.396835 1_655
O0 P0 1.572198 1_555
O0 Ti0 2.123547 1_555
O1 P0 1.519145 1_555
O2 P2 1.572541 1_555
O2 Ti0 2.034741 1_555
O3 P0 1.560980 1_545
O3 Ti1 2.078307 1_555
O4 P3 1.572541 1_555
O4 Ti1 2.034741 1_656
O5 P1 1.560980 1_565
O5 Ti0 2.078307 1_555
O6 P1 1.519145 1_555
O7 P1 1.572198 1_555
O7 Ti1 2.123547 1_655
O8 P2 1.572198 1_555
O8 Ti1 2.123547 1_556
O9 P2 1.519145 1_555
O10 P2 1.560980 1_545
O10 Ti0 2.078307 1_555
O11 P0 1.572541 1_555
O11 Ti1 2.034741 1_555
O12 P3 1.560980 1_565
O12 Ti1 2.078307 1_656
O13 P1 1.572541 1_555
O13 Ti0 2.034741 1_555
O14 P3 1.519145 1_555
O15 P3 1.572198 1_555
O15 Ti0 2.123547 1_555
