# generated using pymatgen
data_Li3(NiO2)4
_symmetry_space_group_name_H-M   'P 1'
_cell_length_a   5.57762126
_cell_length_b   5.61378123
_cell_length_c   5.73348322
_cell_angle_alpha   119.32623891
_cell_angle_beta   61.32493296
_cell_angle_gamma   90.00316094
_symmetry_Int_Tables_number   1
_chemical_formula_structural   Li3(NiO2)4
_chemical_formula_sum   'Li3 Ni4 O8'
_cell_volume   130.68224446
_cell_formula_units_Z   1
loop_
 _symmetry_equiv_pos_site_id
 _symmetry_equiv_pos_as_xyz
  1  'x, y, z'
loop_
 _atom_site_type_symbol
 _atom_site_label
 _atom_site_symmetry_multiplicity
 _atom_site_fract_x
 _atom_site_fract_y
 _atom_site_fract_z
 _atom_site_occupancy
  Li  Li0  1  0.99999993  -0.00000010  0.49999963  1
  Li  Li1  1  0.50000029  0.50000005  0.99999965  1
  Li  Li2  1  0.50000014  0.99999961  0.99999977  1
  Ni  Ni0  1  0.00000043  0.49999955  -0.00000063  1
  Ni  Ni1  1  0.00000038  0.99999926  0.99999913  1
  Ni  Ni2  1  0.49999980  0.49999939  0.49999919  1
  Ni  Ni3  1  1.00000017  0.50000046  0.50000014  1
  O  O0  1  0.79141143  0.72288706  0.94575036  1
  O  O1  1  0.20858823  0.27711354  0.05425014  1
  O  O2  1  0.21953848  0.75193145  0.00386877  1
  O  O3  1  0.78046092  0.24806913  0.99613285  1
  O  O4  1  0.75430035  0.72116506  0.49629298  1
  O  O5  1  0.75427844  0.27512240  0.49629737  1
  O  O6  1  0.24572115  0.72487766  0.50370412  1
  O  O7  1  0.24569988  0.27883548  0.50370752  1
loop_
_geom_bond_atom_site_label_1
_geom_bond_atom_site_label_2
_geom_bond_distance
_geom_bond_site_symmetry_2
Li0 O2 2.075409 1_645
Li0 O3 2.075419 1_555
Li0 O4 2.079386 1_545
Li0 O7 2.079390 1_655
Li0 O5 2.079546 1_555
Li0 O6 2.079553 1_645
Li1 O0 2.049400 1_555
Li1 O1 2.049402 1_556
Li1 O2 2.093795 1_556
Li1 O3 2.093797 1_555
Li1 O5 2.107996 1_555
Li1 O6 2.108006 1_556
Li2 O0 2.049337 1_555
Li2 O1 2.049342 1_566
Li2 O2 2.093707 1_556
Li2 O3 2.093709 1_565
Li2 O4 2.107940 1_555
Li2 O7 2.107944 1_566
Ni0 O3 1.869560 1_454
Ni0 O2 1.869560 1_555
Ni0 O1 1.935091 1_555
Ni0 O0 1.935093 1_454
Ni0 O7 2.076907 1_554
Ni0 O4 2.076914 1_455
Ni1 O2 1.869692 1_556
Ni1 O3 1.869693 1_465
Ni1 O0 1.934802 1_455
Ni1 O1 1.934807 1_566
Ni1 O6 2.076837 1_555
Ni1 O5 2.076850 1_466
Ni2 O7 1.884273 1_555
Ni2 O4 1.884283 1_555
Ni2 O6 1.884318 1_555
Ni2 O5 1.884326 1_555
Ni2 O3 2.110476 1_554
Ni2 O2 2.110489 1_556
Ni3 O1 1.861449 1_655
Ni3 O0 1.861449 1_555
Ni3 O6 1.863864 1_655
Ni3 O4 1.863865 1_555
Ni3 O7 1.863866 1_655
Ni3 O5 1.863870 1_555
