# generated using pymatgen
data_Li4CoO4
_symmetry_space_group_name_H-M   'P 1'
_cell_length_a   5.25848500
_cell_length_b   9.21117100
_cell_length_c   15.98984335
_cell_angle_alpha   88.02669158
_cell_angle_beta   90.00000000
_cell_angle_gamma   90.00000000
_symmetry_Int_Tables_number   1
_chemical_formula_structural   Li4CoO4
_chemical_formula_sum   'Li32 Co8 O32'
_cell_volume   774.03762217
_cell_formula_units_Z   8
loop_
 _symmetry_equiv_pos_site_id
 _symmetry_equiv_pos_as_xyz
  1  'x, y, z'
loop_
 _atom_site_type_symbol
 _atom_site_label
 _atom_site_symmetry_multiplicity
 _atom_site_fract_x
 _atom_site_fract_y
 _atom_site_fract_z
 _atom_site_occupancy
  Li  Li0  1  0.40459200  0.15204200  0.64856400  1
  Li  Li1  1  0.59540800  0.15204200  0.14856400  1
  Li  Li2  1  0.14177700  0.19366000  0.83837700  1
  Li  Li3  1  0.85822300  0.19366000  0.33837700  1
  Li  Li4  1  0.80011300  0.24871600  0.71530200  1
  Li  Li5  1  0.19988700  0.24871600  0.21530200  1
  Li  Li6  1  0.69616200  0.27973800  0.51650300  1
  Li  Li7  1  0.30383800  0.27973800  0.01650300  1
  Li  Li8  1  0.38455900  0.38727300  0.75714700  1
  Li  Li9  1  0.61544100  0.38727300  0.25714700  1
  Li  Li10  1  0.12294300  0.35990400  0.58700700  1
  Li  Li11  1  0.87705700  0.35990400  0.08700700  1
  Li  Li12  1  0.68346300  0.54707100  0.94531700  1
  Li  Li13  1  0.31653700  0.54707100  0.44531700  1
  Li  Li14  1  0.14534700  0.58206900  0.25398700  1
  Li  Li15  1  0.85465300  0.58206900  0.75398700  1
  Li  Li16  1  0.13751000  0.67654800  0.99751700  1
  Li  Li17  1  0.86249000  0.67654800  0.49751700  1
  Li  Li18  1  0.36692600  0.68237000  0.82464400  1
  Li  Li19  1  0.63307400  0.68237000  0.32464400  1
  Li  Li20  1  0.19151300  0.70120100  0.64012400  1
  Li  Li21  1  0.80848700  0.70120100  0.14012400  1
  Li  Li22  1  0.66342200  0.80606500  0.64868500  1
  Li  Li23  1  0.33657800  0.80606500  0.14868500  1
  Li  Li24  1  0.85234600  0.83911100  0.82903200  1
  Li  Li25  1  0.14765400  0.83911100  0.32903200  1
  Li  Li26  1  0.64052700  0.85725800  0.00547200  1
  Li  Li27  1  0.35947300  0.85725800  0.50547200  1
  Li  Li28  1  0.70216800  0.94530900  0.25828800  1
  Li  Li29  1  0.29783200  0.94530900  0.75828800  1
  Li  Li30  1  0.83300800  0.98102100  0.44807200  1
  Li  Li31  1  0.16699200  0.98102100  0.94807200  1
  Co  Co0  1  0.58967900  0.06503000  0.86408100  1
  Co  Co1  1  0.41032100  0.06503000  0.36408100  1
  Co  Co2  1  0.09871800  0.46453100  0.87924100  1
  Co  Co3  1  0.90128200  0.46453100  0.37924100  1
  Co  Co4  1  0.59980300  0.53631100  0.61649700  1
  Co  Co5  1  0.40019700  0.53631100  0.11649700  1
  Co  Co6  1  0.94301800  0.96883100  0.12328700  1
  Co  Co7  1  0.05698200  0.96883100  0.62328700  1
  O  O0  1  0.92701700  0.03803000  0.86512900  1
  O  O1  1  0.07298300  0.03803000  0.36512900  1
  O  O2  1  0.53569700  0.15973400  0.27044800  1
  O  O3  1  0.46430300  0.15973400  0.77044800  1
  O  O4  1  0.00522800  0.15918100  0.62989900  1
  O  O5  1  0.99477200  0.15918100  0.12989900  1
  O  O6  1  0.42251300  0.12979800  0.95073400  1
  O  O7  1  0.57748700  0.12979800  0.45073400  1
  O  O8  1  0.00544700  0.38602000  0.47502200  1
  O  O9  1  0.99455300  0.38602000  0.97502200  1
  O  O10  1  0.49805600  0.34881500  0.11897300  1
  O  O11  1  0.50194400  0.34881500  0.61897300  1
  O  O12  1  0.00505300  0.37518400  0.78430100  1
  O  O13  1  0.99494700  0.37518400  0.28430100  1
  O  O14  1  0.43686200  0.48129200  0.86960200  1
  O  O15  1  0.56313800  0.48129200  0.36960200  1
  O  O16  1  0.93846600  0.55477500  0.62047500  1
  O  O17  1  0.06153400  0.55477500  0.12047500  1
  O  O18  1  0.50766500  0.62737900  0.20997600  1
  O  O19  1  0.49233500  0.62737900  0.70997600  1
  O  O20  1  0.97351200  0.65128600  0.87374800  1
  O  O21  1  0.02648800  0.65128600  0.37374800  1
  O  O22  1  0.51715300  0.65640100  0.03327000  1
  O  O23  1  0.48284700  0.65640100  0.53327000  1
  O  O24  1  0.96828200  0.86306200  0.53533300  1
  O  O25  1  0.03171800  0.86306200  0.03533300  1
  O  O26  1  0.52480600  0.87381400  0.35933000  1
  O  O27  1  0.47519400  0.87381400  0.85933000  1
  O  O28  1  0.02591400  0.84808400  0.21266700  1
  O  O29  1  0.97408600  0.84808400  0.71266700  1
  O  O30  1  0.59818300  0.94451100  0.12677200  1
  O  O31  1  0.40181700  0.94451100  0.62677200  1
loop_
_geom_bond_atom_site_label_1
_geom_bond_atom_site_label_2
_geom_bond_distance
_geom_bond_site_symmetry_2
Li0 O11 1.926674 1_555
Li0 O31 1.954925 1_545
Li0 O3 1.977714 1_555
Li0 O4 2.121851 1_555
Li1 O10 1.926674 1_555
Li1 O30 1.954925 1_545
Li1 O2 1.977714 1_555
Li1 O5 2.121851 1_555
Li2 O0 1.863093 1_455
Li2 O12 1.990159 1_555
Li2 O3 2.043824 1_555
Li2 O6 2.383321 1_555
Li3 O1 1.863093 1_655
Li3 O13 1.990159 1_555
Li3 O2 2.043824 1_555
Li3 O7 2.383321 1_555
Li4 O4 1.945740 1_655
Li4 O12 1.955546 1_655
Li4 O3 2.125507 1_555
Li4 O11 2.362875 1_555
Li5 O5 1.945740 1_455
Li5 O13 1.955546 1_455
Li5 O2 2.125507 1_555
Li5 O10 2.362875 1_555
Li6 O7 1.871605 1_555
Li6 O8 1.999675 1_655
Li6 O11 2.050439 1_555
Li7 O6 1.871605 1_554
Li7 O9 1.999675 1_454
Li7 O10 2.050439 1_555
Li8 O14 2.041124 1_555
Li8 O12 2.044533 1_555
Li8 O3 2.140835 1_555
Li8 O11 2.332760 1_555
Li8 O19 2.380471 1_555
Li9 O15 2.041124 1_555
Li9 O13 2.044533 1_555
Li9 O2 2.140835 1_555
Li9 O10 2.332760 1_555
Li9 O18 2.380471 1_555
Li10 O8 1.901650 1_555
Li10 O4 2.045634 1_555
Li10 O11 2.059132 1_555
Li10 O16 2.124985 1_455
Li11 O9 1.901650 1_554
Li11 O5 2.045634 1_555
Li11 O10 2.059132 1_555
Li11 O17 2.124985 1_655
Li12 O14 1.888098 1_555
Li12 O22 1.963250 1_556
Li12 O20 2.117009 1_555
Li12 O9 2.248066 1_555
Li13 O15 1.888098 1_555
Li13 O23 1.963250 1_555
Li13 O21 2.117009 1_555
Li13 O8 2.248066 1_555
Li14 O18 2.068610 1_555
Li14 O13 2.104361 1_455
Li14 O21 2.132673 1_555
Li14 O17 2.202711 1_555
Li15 O19 2.068610 1_555
Li15 O12 2.104361 1_655
Li15 O20 2.132673 1_555
Li15 O16 2.202711 1_555
Li16 O25 1.923074 1_556
Li16 O22 2.083113 1_556
Li16 O20 2.178575 1_455
Li16 O17 2.265250 1_556
Li17 O24 1.923074 1_555
Li17 O23 2.083113 1_555
Li17 O21 2.178575 1_655
Li17 O16 2.265250 1_555
Li18 O27 1.951604 1_555
Li18 O14 1.997708 1_555
Li18 O19 2.029096 1_555
Li18 O20 2.227724 1_455
Li19 O26 1.951604 1_555
Li19 O15 1.997708 1_555
Li19 O18 2.029096 1_555
Li19 O21 2.227724 1_655
Li20 O16 1.928120 1_455
Li20 O19 2.039583 1_555
Li20 O29 2.142731 1_455
Li20 O23 2.342015 1_555
Li20 O24 2.497273 1_455
Li20 O31 2.501688 1_555
Li21 O17 1.928120 1_655
Li21 O18 2.039583 1_555
Li21 O28 2.142731 1_655
Li21 O22 2.342015 1_555
Li21 O25 2.497273 1_655
Li21 O30 2.501688 1_555
Li22 O31 1.900174 1_555
Li22 O29 1.972929 1_555
Li22 O19 2.089922 1_555
Li22 O24 2.462747 1_555
Li22 O23 2.526478 1_555
Li23 O30 1.900174 1_555
Li23 O28 1.972929 1_555
Li23 O18 2.089922 1_555
Li23 O25 2.462747 1_555
Li23 O22 2.526478 1_555
Li24 O20 1.955812 1_555
Li24 O29 1.966750 1_555
Li24 O0 1.979240 1_565
Li24 O27 2.069014 1_555
Li25 O21 1.955812 1_555
Li25 O28 1.966750 1_555
Li25 O1 1.979240 1_565
Li25 O26 2.069014 1_555
Li26 O22 1.996196 1_555
Li26 O25 2.112852 1_655
Li26 O30 2.136538 1_555
Li26 O27 2.493020 1_554
Li27 O23 1.996196 1_555
Li27 O24 2.112852 1_455
Li27 O31 2.136538 1_555
Li27 O26 2.493020 1_555
Li28 O26 1.959738 1_555
Li28 O28 2.068176 1_655
Li28 O30 2.173105 1_555
Li28 O2 2.175223 1_565
Li29 O27 1.959738 1_555
Li29 O29 2.068176 1_455
Li29 O31 2.173105 1_555
Li29 O3 2.175223 1_565
Li30 O24 1.878562 1_555
Li30 O1 1.891856 1_665
Li30 O7 1.920744 1_565
Li30 O26 2.389922 1_555
Li31 O25 1.878562 1_556
Li31 O0 1.891856 1_465
Li31 O6 1.920744 1_565
Li31 O27 2.389922 1_555
Co0 O6 1.762202 1_555
Co0 O0 1.791234 1_555
Co0 O3 1.829542 1_555
Co0 O27 1.865388 1_545
Co1 O7 1.762202 1_555
Co1 O1 1.791234 1_555
Co1 O2 1.829542 1_555
Co1 O26 1.865388 1_545
Co2 O9 1.758495 1_455
Co2 O14 1.791000 1_555
Co2 O12 1.819478 1_555
Co2 O20 1.841193 1_455
Co3 O8 1.758495 1_655
Co3 O15 1.791000 1_555
Co3 O13 1.819478 1_555
Co3 O21 1.841193 1_655
Co4 O16 1.790296 1_555
Co4 O11 1.801219 1_555
Co4 O23 1.808719 1_555
Co4 O19 1.828534 1_555
Co5 O17 1.790296 1_555
Co5 O10 1.801219 1_555
Co5 O22 1.808719 1_555
Co5 O18 1.828534 1_555
Co6 O5 1.781076 1_565
Co6 O25 1.799714 1_655
Co6 O30 1.827709 1_555
Co6 O28 1.833062 1_655
Co7 O4 1.781076 1_565
Co7 O24 1.799714 1_455
Co7 O31 1.827709 1_555
Co7 O29 1.833062 1_455
