# generated using pymatgen
data_LiFeSiO4
_symmetry_space_group_name_H-M   'P 1'
_cell_length_a   7.27825400
_cell_length_b   7.27622800
_cell_length_c   7.27372400
_cell_angle_alpha   90.00011026
_cell_angle_beta   89.99959052
_cell_angle_gamma   90.00003149
_symmetry_Int_Tables_number   1
_chemical_formula_structural   LiFeSiO4
_chemical_formula_sum   'Li4 Fe4 Si4 O16'
_cell_volume   385.20358888
_cell_formula_units_Z   4
loop_
 _symmetry_equiv_pos_site_id
 _symmetry_equiv_pos_as_xyz
  1  'x, y, z'
loop_
 _atom_site_type_symbol
 _atom_site_label
 _atom_site_symmetry_multiplicity
 _atom_site_fract_x
 _atom_site_fract_y
 _atom_site_fract_z
 _atom_site_occupancy
  Li  Li0  1  0.74940500  0.24951200  0.25043000  1
  Li  Li1  1  0.25059500  0.74951200  0.24957000  1
  Li  Li2  1  0.75058600  0.75046000  0.75043600  1
  Li  Li3  1  0.24941600  0.25045900  0.74956600  1
  Fe  Fe0  1  0.80618500  0.19405200  0.69399300  1
  Fe  Fe1  1  0.19381800  0.69405500  0.80600100  1
  Fe  Fe2  1  0.69398900  0.80606600  0.19396600  1
  Fe  Fe3  1  0.30601100  0.30606800  0.30604100  1
  Si  Si0  1  0.03226900  0.03227500  0.03228900  1
  Si  Si1  1  0.53225900  0.46768400  0.96767700  1
  Si  Si2  1  0.96773100  0.53227600  0.46771100  1
  Si  Si3  1  0.46774100  0.96768400  0.53232300  1
  O  O0  1  0.16091100  0.16004200  0.15997900  1
  O  O1  1  0.83908900  0.66004100  0.34002300  1
  O  O2  1  0.33908600  0.83994200  0.65996600  1
  O  O3  1  0.66091300  0.33994100  0.84003100  1
  O  O4  1  0.62018600  0.67698300  0.97716100  1
  O  O5  1  0.52264500  0.37942300  0.17690700  1
  O  O6  1  0.82294700  0.02276300  0.11996000  1
  O  O7  1  0.17705100  0.52276400  0.38003800  1
  O  O8  1  0.47735400  0.87942400  0.32309400  1
  O  O9  1  0.37981600  0.17698200  0.52284000  1
  O  O10  1  0.87983500  0.32302400  0.47713800  1
  O  O11  1  0.97729900  0.62052900  0.67687200  1
  O  O12  1  0.67709500  0.97724400  0.61997800  1
  O  O13  1  0.32290300  0.47724400  0.88002300  1
  O  O14  1  0.02270000  0.12052700  0.82312600  1
  O  O15  1  0.12016500  0.82302200  0.02286200  1
loop_
_geom_bond_atom_site_label_1
_geom_bond_atom_site_label_2
_geom_bond_distance
_geom_bond_site_symmetry_2
Li0 O5 1.975705 1_555
Li0 O10 1.976497 1_555
Li0 O6 1.977167 1_555
Li1 O8 1.975702 1_555
Li1 O15 1.976495 1_555
Li1 O7 1.977161 1_555
Li2 O11 1.975562 1_555
Li2 O4 1.976417 1_555
Li2 O12 1.977244 1_555
Li3 O14 1.975576 1_555
Li3 O9 1.976421 1_555
Li3 O13 1.977235 1_555
Fe0 O3 1.836601 1_555
Fe0 O14 1.910964 1_655
Fe0 O10 1.912066 1_555
Fe0 O12 1.913436 1_545
Fe1 O2 1.836565 1_555
Fe1 O11 1.910974 1_455
Fe1 O15 1.912088 1_556
Fe1 O13 1.913453 1_555
Fe2 O1 1.836544 1_555
Fe2 O8 1.911314 1_555
Fe2 O6 1.912278 1_565
Fe2 O4 1.912479 1_554
Fe3 O0 1.836566 1_555
Fe3 O5 1.911324 1_555
Fe3 O7 1.912260 1_555
Fe3 O9 1.912461 1_555
O0 Si0 1.613553 1_555
O1 Si2 1.613539 1_555
O2 Si3 1.613300 1_555
O3 Si1 1.613311 1_555
O4 Si1 1.653344 1_555
O5 Si1 1.653315 1_554
O6 Si0 1.653021 1_655
O7 Si2 1.653013 1_455
O8 Si3 1.653303 1_555
O9 Si3 1.653332 1_545
O10 Si2 1.652924 1_555
O11 Si2 1.652815 1_555
O12 Si3 1.653214 1_555
O13 Si1 1.653225 1_555
O14 Si0 1.652828 1_556
O15 Si0 1.652932 1_565
