# generated using pymatgen
data_LiVOF3
_symmetry_space_group_name_H-M   'P 1'
_cell_length_a   5.17617917
_cell_length_b   7.13664019
_cell_length_c   8.16528147
_cell_angle_alpha   90.02613648
_cell_angle_beta   89.97106477
_cell_angle_gamma   89.99668107
_symmetry_Int_Tables_number   1
_chemical_formula_structural   LiVOF3
_chemical_formula_sum   'Li4 V4 O4 F12'
_cell_volume   301.62974070
_cell_formula_units_Z   4
loop_
 _symmetry_equiv_pos_site_id
 _symmetry_equiv_pos_as_xyz
  1  'x, y, z'
loop_
 _atom_site_type_symbol
 _atom_site_label
 _atom_site_symmetry_multiplicity
 _atom_site_fract_x
 _atom_site_fract_y
 _atom_site_fract_z
 _atom_site_occupancy
  Li  Li0  1  0.45293600  0.17371900  0.13775500  1
  Li  Li1  1  0.45308200  0.32625100  0.63765600  1
  Li  Li2  1  0.54718000  0.67367800  0.13803000  1
  Li  Li3  1  0.54706700  0.82632000  0.63795800  1
  V  V0  1  0.04309200  0.49408700  0.95747600  1
  V  V1  1  0.04323600  0.00594100  0.45729200  1
  V  V2  1  0.95708600  0.99408500  0.95780300  1
  V  V3  1  0.95695800  0.50595100  0.45760400  1
  O  O0  1  0.15422100  0.04184500  0.27056400  1
  O  O1  1  0.15410900  0.45812100  0.77079800  1
  O  O2  1  0.84533900  0.54200300  0.27117200  1
  O  O3  1  0.84543600  0.95801700  0.77132400  1
  F  F0  1  0.31666900  0.06517100  0.60718400  1
  F  F1  1  0.31673600  0.43480300  0.10722000  1
  F  F2  1  0.68315200  0.56511300  0.60753800  1
  F  F3  1  0.68304700  0.93493500  0.10755000  1
  F  F4  1  0.28871900  0.09966900  0.93956700  1
  F  F5  1  0.28865700  0.40033600  0.43948500  1
  F  F6  1  0.71141100  0.59959000  0.93987800  1
  F  F7  1  0.71149900  0.90036300  0.43978100  1
  F  F8  1  0.84918500  0.24383600  0.50658500  1
  F  F9  1  0.84916400  0.25615000  0.00662200  1
  F  F10  1  0.15099700  0.74400300  0.50655800  1
  F  F11  1  0.15102400  0.75601000  0.00659100  1
loop_
_geom_bond_atom_site_label_1
_geom_bond_atom_site_label_2
_geom_bond_distance
_geom_bond_site_symmetry_2
Li0 O0 2.109943 1_555
Li1 O1 2.111785 1_555
Li2 O2 2.109326 1_555
Li3 O3 2.110773 1_555
O0 V1 1.649194 1_555
O1 V0 1.648716 1_555
O2 V3 1.648799 1_555
O3 V2 1.649021 1_555
F0 V1 1.918636 1_555
F0 Li1 2.007992 1_555
F0 Li3 2.095588 1_545
F1 V0 1.918966 1_554
F1 Li0 2.007829 1_555
F1 Li2 2.095824 1_555
F2 V3 1.919224 1_555
F2 Li3 2.008020 1_555
F2 Li1 2.094018 1_555
F3 V2 1.919405 1_554
F3 Li2 2.008303 1_555
F3 Li0 2.093473 1_565
F4 V2 1.880595 1_445
F4 Li0 1.902955 1_556
F5 V3 1.880787 1_455
F5 Li1 1.903770 1_555
F6 V0 1.880239 1_655
F6 Li2 1.902055 1_556
F7 V1 1.880691 1_665
F7 Li3 1.903041 1_555
F8 V3 1.992725 1_555
F8 V1 2.012983 1_655
F8 Li1 2.385820 1_555
F9 V2 1.991938 1_544
F9 V0 2.013087 1_654
F9 Li0 2.386930 1_555
F10 V1 1.992044 1_565
F10 V3 2.013647 1_455
F10 Li3 2.387695 1_555
F11 V0 1.991660 1_554
F11 V2 2.013465 1_454
F11 Li2 2.388429 1_555
