# generated using pymatgen
data_Li2MnPCO7
_symmetry_space_group_name_H-M   'P 1'
_cell_length_a   6.44506900
_cell_length_b   8.46801400
_cell_length_c   10.03582096
_cell_angle_alpha   86.42513179
_cell_angle_beta   90.00000000
_cell_angle_gamma   90.00000000
_symmetry_Int_Tables_number   1
_chemical_formula_structural   Li2MnPCO7
_chemical_formula_sum   'Li8 Mn4 P4 C4 O28'
_cell_volume   546.65856722
_cell_formula_units_Z   4
loop_
 _symmetry_equiv_pos_site_id
 _symmetry_equiv_pos_as_xyz
  1  'x, y, z'
loop_
 _atom_site_type_symbol
 _atom_site_label
 _atom_site_symmetry_multiplicity
 _atom_site_fract_x
 _atom_site_fract_y
 _atom_site_fract_z
 _atom_site_occupancy
  Li  Li0  1  0.21331800  0.73424200  0.87118800  1
  Li  Li1  1  0.78611000  0.73808300  0.87332500  1
  Li  Li2  1  0.21389000  0.73808300  0.37332500  1
  Li  Li3  1  0.78668200  0.73424200  0.37118800  1
  Li  Li4  1  0.28657300  0.26956200  0.62828100  1
  Li  Li5  1  0.71342700  0.26956200  0.12828100  1
  Li  Li6  1  0.49399400  0.10862500  0.88916300  1
  Li  Li7  1  0.50600600  0.10862500  0.38916300  1
  Mn  Mn0  1  0.50431200  0.66430000  0.59629100  1
  Mn  Mn1  1  0.49568800  0.66430000  0.09629100  1
  Mn  Mn2  1  0.00114100  0.32284300  0.90531100  1
  Mn  Mn3  1  0.99885900  0.32284300  0.40531100  1
  P  P0  1  0.00701500  0.58329100  0.63311500  1
  P  P1  1  0.99298500  0.58329100  0.13311500  1
  P  P2  1  0.49676700  0.41659800  0.85868100  1
  P  P3  1  0.50323300  0.41659800  0.35868100  1
  C  C0  1  0.49196600  0.95527400  0.64505600  1
  C  C1  1  0.50803400  0.95527400  0.14505600  1
  C  C2  1  0.99892000  0.04047900  0.86297300  1
  C  C3  1  0.00108000  0.04047900  0.36297300  1
  O  O0  1  0.50075000  0.93009000  0.51992800  1
  O  O1  1  0.00309900  0.89930000  0.82762900  1
  O  O2  1  0.49925000  0.93009000  0.01992800  1
  O  O3  1  0.50732200  0.82514300  0.72901200  1
  O  O4  1  0.99690100  0.89930000  0.32762900  1
  O  O5  1  0.49267800  0.82514300  0.22901200  1
  O  O6  1  0.19479600  0.68586400  0.58154300  1
  O  O7  1  0.81259000  0.67215600  0.57564200  1
  O  O8  1  0.18741000  0.67215600  0.07564200  1
  O  O9  1  0.80520400  0.68586400  0.08154300  1
  O  O10  1  0.50150900  0.58363100  0.91754500  1
  O  O11  1  0.00144700  0.56511700  0.78820200  1
  O  O12  1  0.49849100  0.58363100  0.41754500  1
  O  O13  1  0.99855300  0.56511700  0.28820200  1
  O  O14  1  0.48927900  0.44667100  0.70620000  1
  O  O15  1  0.02496300  0.41617000  0.57914600  1
  O  O16  1  0.51072100  0.44667100  0.20620000  1
  O  O17  1  0.97503700  0.41617000  0.07914600  1
  O  O18  1  0.31119200  0.31437600  0.90716400  1
  O  O19  1  0.68197500  0.31280000  0.90939900  1
  O  O20  1  0.68880800  0.31437600  0.40716400  1
  O  O21  1  0.31802500  0.31280000  0.40939900  1
  O  O22  1  0.01622500  0.16239100  0.77268400  1
  O  O23  1  0.46849300  0.08788700  0.69389300  1
  O  O24  1  0.98377500  0.16239100  0.27268400  1
  O  O25  1  0.97806100  0.08132900  0.98346200  1
  O  O26  1  0.53150700  0.08788700  0.19389300  1
  O  O27  1  0.02193900  0.08132900  0.48346200  1
loop_
_geom_bond_atom_site_label_1
_geom_bond_atom_site_label_2
_geom_bond_distance
_geom_bond_site_symmetry_2
Li0 O1 1.975904 1_555
Li0 O8 2.092823 1_556
Li0 O11 2.181299 1_555
Li0 O10 2.284514 1_555
Li0 O3 2.466174 1_555
Li1 O1 1.987914 1_655
Li1 O9 2.112353 1_556
Li1 O11 2.226494 1_655
Li1 O10 2.280291 1_555
Li1 O3 2.395087 1_555
Li2 O4 1.987914 1_455
Li2 O6 2.112353 1_555
Li2 O13 2.226494 1_455
Li2 O12 2.280291 1_555
Li2 O5 2.395087 1_555
Li3 O4 1.975904 1_555
Li3 O7 2.092823 1_555
Li3 O13 2.181299 1_555
Li3 O12 2.284514 1_555
Li3 O5 2.466174 1_555
Li4 O23 2.012147 1_555
Li4 O15 2.133307 1_555
Li4 O14 2.171141 1_555
Li4 O21 2.213632 1_555
Li4 O22 2.407442 1_555
Li5 O26 2.012147 1_555
Li5 O17 2.133307 1_555
Li5 O16 2.171141 1_555
Li5 O19 2.213632 1_554
Li5 O24 2.407442 1_555
Li6 O2 1.939484 1_546
Li6 O23 1.985238 1_555
Li6 O18 2.120281 1_555
Li6 O19 2.131238 1_555
Li7 O0 1.939484 1_545
Li7 O26 1.985238 1_555
Li7 O20 2.120281 1_555
Li7 O21 2.131238 1_555
Mn0 O12 1.959285 1_555
Mn0 O3 1.963630 1_555
Mn0 O7 1.998328 1_555
Mn0 O6 2.007813 1_555
Mn0 O14 2.090164 1_555
Mn0 O0 2.332049 1_555
Mn1 O10 1.959285 1_554
Mn1 O5 1.963630 1_555
Mn1 O8 1.998328 1_555
Mn1 O9 2.007813 1_555
Mn1 O16 2.090164 1_555
Mn1 O2 2.332049 1_555
Mn2 O22 1.962826 1_555
Mn2 O17 1.966813 1_456
Mn2 O18 1.999631 1_555
Mn2 O19 2.059107 1_455
Mn2 O25 2.149384 1_455
Mn2 O11 2.299911 1_555
Mn3 O24 1.962826 1_555
Mn3 O15 1.966813 1_655
Mn3 O20 1.999631 1_555
Mn3 O21 2.059107 1_655
Mn3 O27 2.149384 1_655
Mn3 O13 2.299911 1_555
C0 O23 1.262062 1_565
C0 O0 1.288029 1_555
C0 O3 1.348416 1_555
C1 O26 1.262062 1_565
C1 O2 1.288029 1_555
C1 O5 1.348416 1_555
C2 O1 1.268329 1_645
C2 O25 1.285331 1_555
C2 O22 1.335140 1_655
C3 O4 1.268329 1_445
C3 O27 1.285331 1_555
C3 O24 1.335140 1_455
O6 P0 1.559165 1_555
O7 P0 1.554042 1_655
O8 P1 1.554042 1_455
O9 P1 1.559165 1_555
O10 P2 1.566765 1_555
O11 P0 1.554851 1_555
O12 P3 1.566765 1_555
O13 P1 1.554851 1_555
O14 P2 1.536332 1_555
O15 P0 1.550827 1_555
O16 P3 1.536332 1_555
O17 P1 1.550827 1_555
O18 P2 1.537543 1_555
O19 P2 1.549429 1_555
O20 P3 1.537543 1_555
O21 P3 1.549429 1_555
