# generated using pymatgen
data_Li2TiFe2O5
_symmetry_space_group_name_H-M   'P 1'
_cell_length_a   5.29868600
_cell_length_b   5.30278793
_cell_length_c   7.86104971
_cell_angle_alpha   82.21658719
_cell_angle_beta   70.79951423
_cell_angle_gamma   67.62801467
_symmetry_Int_Tables_number   1
_chemical_formula_structural   Li2TiFe2O5
_chemical_formula_sum   'Li4 Ti2 Fe4 O10'
_cell_volume   192.87808423
_cell_formula_units_Z   2
loop_
 _symmetry_equiv_pos_site_id
 _symmetry_equiv_pos_as_xyz
  1  'x, y, z'
loop_
 _atom_site_type_symbol
 _atom_site_label
 _atom_site_symmetry_multiplicity
 _atom_site_fract_x
 _atom_site_fract_y
 _atom_site_fract_z
 _atom_site_occupancy
  Li  Li0  1  0.30469800  0.51163500  0.40220700  1
  Li  Li1  1  0.69590200  0.49708400  0.60294900  1
  Li  Li2  1  0.61288900  0.00884700  0.79792800  1
  Li  Li3  1  0.99960700  0.99706700  0.99598700  1
  Ti  Ti0  1  0.09377700  0.49187900  0.80107100  1
  Ti  Ti1  1  0.78940100  0.99385400  0.41089300  1
  Fe  Fe0  1  0.20583700  0.00047800  0.60719000  1
  Fe  Fe1  1  0.40711800  0.99665500  0.18902600  1
  Fe  Fe2  1  0.90584400  0.49726300  0.20040400  1
  Fe  Fe3  1  0.49547200  0.50588700  0.00226700  1
  O  O0  1  0.65198200  0.25292200  0.21031400  1
  O  O1  1  0.57637200  0.76876000  0.40177900  1
  O  O2  1  0.87076400  0.27959800  0.79910300  1
  O  O3  1  0.03958400  0.20800200  0.39872200  1
  O  O4  1  0.12107800  0.75753400  0.21613000  1
  O  O5  1  0.75945300  0.74719500  0.98524100  1
  O  O6  1  0.94389100  0.75351000  0.59964400  1
  O  O7  1  0.25246600  0.25664300  0.98096800  1
  O  O8  1  0.45404600  0.25170000  0.59721700  1
  O  O9  1  0.31981600  0.72348900  0.80095900  1
loop_
_geom_bond_atom_site_label_1
_geom_bond_atom_site_label_2
_geom_bond_distance
_geom_bond_site_symmetry_2
Li0 O4 2.059197 1_555
Li0 O8 2.066751 1_555
Li0 O0 2.087287 1_555
Li0 O6 2.104720 1_455
Li0 O1 2.328300 1_555
Li0 O3 2.515063 1_555
Li1 O2 2.052035 1_555
Li1 O1 2.079559 1_555
Li1 O9 2.116619 1_555
Li1 O8 2.158876 1_555
Li1 O3 2.205028 1_655
Li1 O6 2.214592 1_555
Li2 O5 2.018647 1_545
Li2 O7 2.058786 1_555
Li2 O6 2.074788 1_545
Li2 O8 2.086693 1_555
Li2 O2 2.331039 1_555
Li2 O9 2.540966 1_545
Li3 O9 2.086040 1_655
Li3 O2 2.096290 1_565
Li3 O4 2.130114 1_656
Li3 O0 2.178932 1_566
Li3 O5 2.183254 1_555
Li3 O7 2.227011 1_665
Fe0 O9 2.041126 1_545
Fe0 O3 2.096604 1_555
Fe0 O2 2.112235 1_455
Fe0 O1 2.141882 1_545
Fe0 O8 2.179028 1_555
Fe0 O6 2.259200 1_445
Fe1 O3 2.119747 1_565
Fe1 O5 2.128007 1_554
Fe1 O7 2.158251 1_564
Fe1 O1 2.162393 1_555
Fe1 O0 2.259353 1_565
Fe1 O4 2.264461 1_555
Fe2 O1 2.124301 1_555
Fe2 O3 2.130010 1_655
Fe2 O4 2.134928 1_655
Fe2 O5 2.166162 1_554
Fe2 O7 2.169165 1_654
Fe2 O0 2.173647 1_555
Fe3 O9 2.087749 1_554
Fe3 O2 2.135093 1_554
Fe3 O0 2.147777 1_555
Fe3 O5 2.191982 1_554
Fe3 O7 2.220376 1_554
Fe3 O4 2.222912 1_555
O0 Ti1 2.076205 1_545
O1 Ti1 1.950898 1_555
O2 Ti0 1.921740 1_655
O3 Ti1 2.022156 1_445
O4 Ti1 2.019023 1_455
O5 Ti0 2.021245 1_655
O6 Ti1 1.997134 1_555
O6 Ti0 2.110964 1_655
O7 Ti0 1.941347 1_555
O8 Ti1 2.037990 1_545
O8 Ti0 2.127003 1_555
O9 Ti0 2.015372 1_555
