# generated using pymatgen
data_Co2(SO4)3
_symmetry_space_group_name_H-M   'P 1'
_cell_length_a   8.45040400
_cell_length_b   8.53711200
_cell_length_c   11.83307600
_cell_angle_alpha   90.00000000
_cell_angle_beta   90.00000000
_cell_angle_gamma   90.00000000
_symmetry_Int_Tables_number   1
_chemical_formula_structural   Co2(SO4)3
_chemical_formula_sum   'Co8 S12 O48'
_cell_volume   853.66230593
_cell_formula_units_Z   4
loop_
 _symmetry_equiv_pos_site_id
 _symmetry_equiv_pos_as_xyz
  1  'x, y, z'
loop_
 _atom_site_type_symbol
 _atom_site_label
 _atom_site_symmetry_multiplicity
 _atom_site_fract_x
 _atom_site_fract_y
 _atom_site_fract_z
 _atom_site_occupancy
  Co  Co0  1  0.96891700  0.25036900  0.12186400  1
  Co  Co1  1  0.46891700  0.74963100  0.12186400  1
  Co  Co2  1  0.96891700  0.75036900  0.37813600  1
  Co  Co3  1  0.46891700  0.24963100  0.37813600  1
  Co  Co4  1  0.03108300  0.24963100  0.62186400  1
  Co  Co5  1  0.53108300  0.75036900  0.62186400  1
  Co  Co6  1  0.53108300  0.25036900  0.87813600  1
  Co  Co7  1  0.03108300  0.74963100  0.87813600  1
  S  S0  1  0.25000000  0.46115200  0.00000000  1
  S  S1  1  0.75000000  0.53884800  0.00000000  1
  S  S2  1  0.60575600  0.10274000  0.14547600  1
  S  S3  1  0.10575600  0.89726000  0.14547600  1
  S  S4  1  0.10575600  0.39726000  0.35452400  1
  S  S5  1  0.60575600  0.60274000  0.35452400  1
  S  S6  1  0.75000000  0.03884800  0.50000000  1
  S  S7  1  0.25000000  0.96115200  0.50000000  1
  S  S8  1  0.39424400  0.39726000  0.64547600  1
  S  S9  1  0.89424400  0.60274000  0.64547600  1
  S  S10  1  0.89424400  0.10274000  0.85452400  1
  S  S11  1  0.39424400  0.89726000  0.85452400  1
  O  O0  1  0.56940700  0.14086100  0.02738100  1
  O  O1  1  0.06940700  0.85913900  0.02738100  1
  O  O2  1  0.36523100  0.55880100  0.06256600  1
  O  O3  1  0.86523100  0.44119900  0.06256600  1
  O  O4  1  0.16966500  0.36150100  0.08406900  1
  O  O5  1  0.66966500  0.63849900  0.08406900  1
  O  O6  1  0.10424300  0.07161200  0.16074200  1
  O  O7  1  0.60424300  0.92838800  0.16074200  1
  O  O8  1  0.76339800  0.15937800  0.18010200  1
  O  O9  1  0.26339800  0.84062200  0.18010200  1
  O  O10  1  0.98128200  0.82900500  0.21947000  1
  O  O11  1  0.48128200  0.17099500  0.21947000  1
  O  O12  1  0.98128200  0.32900500  0.28053000  1
  O  O13  1  0.48128200  0.67099500  0.28053000  1
  O  O14  1  0.76339800  0.65937800  0.31989800  1
  O  O15  1  0.26339800  0.34062200  0.31989800  1
  O  O16  1  0.60424300  0.42838800  0.33925800  1
  O  O17  1  0.10424300  0.57161200  0.33925800  1
  O  O18  1  0.66966500  0.13849900  0.41593100  1
  O  O19  1  0.16966500  0.86150100  0.41593100  1
  O  O20  1  0.36523100  0.05880100  0.43743400  1
  O  O21  1  0.86523100  0.94119900  0.43743400  1
  O  O22  1  0.56940700  0.64086100  0.47261900  1
  O  O23  1  0.06940700  0.35913900  0.47261900  1
  O  O24  1  0.43059300  0.35913900  0.52738100  1
  O  O25  1  0.93059300  0.64086100  0.52738100  1
  O  O26  1  0.13476900  0.05880100  0.56256600  1
  O  O27  1  0.63476900  0.94119900  0.56256600  1
  O  O28  1  0.83033500  0.13849900  0.58406900  1
  O  O29  1  0.33033500  0.86150100  0.58406900  1
  O  O30  1  0.89575700  0.42838800  0.66074200  1
  O  O31  1  0.39575700  0.57161200  0.66074200  1
  O  O32  1  0.23660200  0.34062200  0.68010200  1
  O  O33  1  0.73660200  0.65937800  0.68010200  1
  O  O34  1  0.51871800  0.32900500  0.71947000  1
  O  O35  1  0.01871800  0.67099500  0.71947000  1
  O  O36  1  0.01871800  0.17099500  0.78053000  1
  O  O37  1  0.51871800  0.82900500  0.78053000  1
  O  O38  1  0.73660200  0.15937800  0.81989800  1
  O  O39  1  0.23660200  0.84062200  0.81989800  1
  O  O40  1  0.39575700  0.07161200  0.83925800  1
  O  O41  1  0.89575700  0.92838800  0.83925800  1
  O  O42  1  0.33033500  0.36150100  0.91593100  1
  O  O43  1  0.83033500  0.63849900  0.91593100  1
  O  O44  1  0.63476900  0.44119900  0.93743400  1
  O  O45  1  0.13476900  0.55880100  0.93743400  1
  O  O46  1  0.93059300  0.14086100  0.97261900  1
  O  O47  1  0.43059300  0.85913900  0.97261900  1
loop_
_geom_bond_atom_site_label_1
_geom_bond_atom_site_label_2
_geom_bond_distance
_geom_bond_site_symmetry_2
Co0 O6 1.961697 1_655
Co0 O3 1.978420 1_555
Co0 O4 1.994471 1_655
Co0 O12 1.996654 1_555
Co0 O8 2.023491 1_555
Co0 O46 2.024287 1_554
Co1 O7 1.961697 1_555
Co1 O2 1.978420 1_555
Co1 O5 1.994471 1_555
Co1 O13 1.996654 1_555
Co1 O9 2.023491 1_555
Co1 O47 2.024287 1_554
Co2 O17 1.961697 1_655
Co2 O21 1.978420 1_555
Co2 O19 1.994471 1_655
Co2 O10 1.996654 1_555
Co2 O14 2.023491 1_555
Co2 O25 2.024287 1_555
Co3 O16 1.961697 1_555
Co3 O20 1.978420 1_555
Co3 O18 1.994471 1_555
Co3 O11 1.996654 1_555
Co3 O15 2.023491 1_555
Co3 O24 2.024287 1_555
Co4 O30 1.961697 1_455
Co4 O26 1.978420 1_555
Co4 O28 1.994471 1_455
Co4 O36 1.996654 1_555
Co4 O32 2.023491 1_555
Co4 O23 2.024287 1_555
Co5 O31 1.961697 1_555
Co5 O27 1.978420 1_555
Co5 O29 1.994471 1_555
Co5 O37 1.996654 1_555
Co5 O33 2.023491 1_555
Co5 O22 2.024287 1_555
Co6 O40 1.961697 1_555
Co6 O44 1.978420 1_555
Co6 O42 1.994471 1_555
Co6 O34 1.996654 1_555
Co6 O38 2.023491 1_555
Co6 O0 2.024287 1_556
Co7 O41 1.961697 1_455
Co7 O45 1.978420 1_555
Co7 O43 1.994471 1_455
Co7 O35 1.996654 1_555
Co7 O39 2.023491 1_555
Co7 O1 2.024287 1_556
O0 S2 1.467333 1_555
O1 S3 1.467333 1_555
O2 S0 1.480290 1_555
O3 S1 1.480290 1_555
O4 S0 1.474522 1_555
O5 S1 1.474522 1_555
O6 S3 1.499439 1_545
O7 S2 1.499439 1_565
O8 S2 1.475219 1_555
O9 S3 1.475219 1_555
O10 S3 1.487473 1_655
O11 S2 1.487473 1_555
O12 S4 1.487473 1_655
O13 S5 1.487473 1_555
O14 S5 1.475219 1_555
O15 S4 1.475219 1_555
O16 S5 1.499439 1_555
O17 S4 1.499439 1_555
O18 S6 1.474522 1_555
O19 S7 1.474522 1_555
O20 S7 1.480290 1_545
O21 S6 1.480290 1_565
O22 S5 1.467333 1_555
O23 S4 1.467333 1_555
O24 S8 1.467333 1_555
O25 S9 1.467333 1_555
O26 S7 1.480290 1_545
O27 S6 1.480290 1_565
O28 S6 1.474522 1_555
O29 S7 1.474522 1_555
O30 S9 1.499439 1_555
O31 S8 1.499439 1_555
O32 S8 1.475219 1_555
O33 S9 1.475219 1_555
O34 S8 1.487473 1_555
O35 S9 1.487473 1_455
O36 S10 1.487473 1_455
O37 S11 1.487473 1_555
O38 S10 1.475219 1_555
O39 S11 1.475219 1_555
O40 S11 1.499439 1_545
O41 S10 1.499439 1_565
O42 S0 1.474522 1_556
O43 S1 1.474522 1_556
O44 S1 1.480290 1_556
O45 S0 1.480290 1_556
O46 S10 1.467333 1_555
O47 S11 1.467333 1_555
