# generated using pymatgen
data_Li6V3Cr(PO4)6
_symmetry_space_group_name_H-M   'P 1'
_cell_length_a   8.61660100
_cell_length_b   8.64386265
_cell_length_c   8.65312243
_cell_angle_alpha   61.35678205
_cell_angle_beta   61.28622796
_cell_angle_gamma   61.27926151
_symmetry_Int_Tables_number   1
_chemical_formula_structural   Li6V3Cr(PO4)6
_chemical_formula_sum   'Li6 V3 Cr1 P6 O24'
_cell_volume   469.11594034
_cell_formula_units_Z   1
loop_
 _symmetry_equiv_pos_site_id
 _symmetry_equiv_pos_as_xyz
  1  'x, y, z'
loop_
 _atom_site_type_symbol
 _atom_site_label
 _atom_site_symmetry_multiplicity
 _atom_site_fract_x
 _atom_site_fract_y
 _atom_site_fract_z
 _atom_site_occupancy
  Li  Li0  1  0.97354800  0.00302700  0.99343700  1
  Li  Li1  1  0.24992000  0.64953100  0.84896000  1
  Li  Li2  1  0.52505600  0.50709300  0.49919000  1
  Li  Li3  1  0.75855800  0.34775600  0.14904000  1
  Li  Li4  1  0.34530500  0.15379000  0.75631400  1
  Li  Li5  1  0.15324600  0.75610100  0.34506200  1
  V  V0  1  0.85722800  0.86231600  0.85494100  1
  V  V1  1  0.64418900  0.64489300  0.63718800  1
  V  V2  1  0.35431400  0.35508100  0.35429100  1
  Cr  Cr0  1  0.14528300  0.14484700  0.14613600  1
  P  P0  1  0.95261700  0.54671400  0.24942600  1
  P  P1  1  0.54533700  0.25193500  0.95030300  1
  P  P2  1  0.25061200  0.95393600  0.54390400  1
  P  P3  1  0.75165700  0.04236300  0.45614300  1
  P  P4  1  0.45556300  0.75109600  0.03756800  1
  P  P5  1  0.04421800  0.46085700  0.75288800  1
  O  O0  1  0.87435200  0.49845400  0.71253900  1
  O  O1  1  0.70177300  0.88112000  0.48663700  1
  O  O2  1  0.95833800  0.72707000  0.07830500  1
  O  O3  1  0.47140200  0.70541800  0.87788800  1
  O  O4  1  0.76159300  0.57188100  0.40577600  1
  O  O5  1  0.98140700  0.38443700  0.19760200  1
  O  O6  1  0.73620000  0.09392400  0.92763100  1
  O  O7  1  0.54538300  0.42315300  0.76842800  1
  O  O8  1  0.40595200  0.76041200  0.56782300  1
  O  O9  1  0.79775800  0.01361000  0.61818800  1
  O  O10  1  0.91490900  0.06421600  0.26425600  1
  O  O11  1  0.62693800  0.78909500  0.00134100  1
  O  O12  1  0.38501200  0.19433200  0.98267000  1
  O  O13  1  0.09337700  0.93097200  0.73751800  1
  O  O14  1  0.19460900  0.98356900  0.38484700  1
  O  O15  1  0.59156100  0.23615900  0.42695900  1
  O  O16  1  0.42806200  0.59275900  0.22995700  1
  O  O17  1  0.26716900  0.91714400  0.06184000  1
  O  O18  1  0.02748800  0.62064100  0.79931200  1
  O  O19  1  0.23470200  0.43150600  0.59172000  1
  O  O20  1  0.51360800  0.30623400  0.11122300  1
  O  O21  1  0.06424900  0.26980200  0.91598600  1
  O  O22  1  0.30605700  0.11227300  0.51495400  1
  O  O23  1  0.11145100  0.50948100  0.31281000  1
loop_
_geom_bond_atom_site_label_1
_geom_bond_atom_site_label_2
_geom_bond_distance
_geom_bond_site_symmetry_2
Li0 O6 2.066367 1_555
Li0 O2 2.185150 1_546
Li0 O13 2.205728 1_645
Li0 O10 2.412554 1_556
Li0 O21 2.474789 1_655
Li0 O17 2.552447 1_646
Li1 O8 2.122424 1_555
Li1 O13 2.124761 1_555
Li1 O18 2.296591 1_555
Li1 O3 2.323594 1_555
Li1 O2 2.359211 1_456
Li1 O7 2.368727 1_555
Li2 O4 2.049640 1_555
Li2 O7 2.152724 1_555
Li2 O8 2.168381 1_555
Li2 O15 2.443966 1_555
Li2 O16 2.509295 1_555
Li2 O19 2.544009 1_555
Li3 O15 2.137619 1_555
Li3 O10 2.142525 1_555
Li3 O5 2.335052 1_555
Li3 O21 2.439649 1_654
Li3 O20 2.488972 1_555
Li3 O16 2.606608 1_555
Li4 O19 2.127683 1_555
Li4 O21 2.135100 1_555
Li4 O12 2.343828 1_555
Li4 O17 2.460821 1_546
Li4 O22 2.473645 1_555
Li4 O15 2.612955 1_555
Li5 O16 2.112243 1_555
Li5 O17 2.153735 1_555
Li5 O14 2.356233 1_555
Li5 O10 2.477373 1_465
Li5 O23 2.481270 1_555
Li5 O19 2.593445 1_555
Cr0 O14 1.975904 1_545
Cr0 O12 1.977946 1_554
Cr0 O5 1.987621 1_455
Cr0 O17 2.040254 1_545
Cr0 O10 2.041573 1_455
Cr0 O21 2.041910 1_554
O0 P5 1.514905 1_655
O0 V1 1.999786 1_555
O1 P3 1.520249 1_565
O1 V1 1.978666 1_555
O2 P0 1.554353 1_555
O2 V0 2.081902 1_554
O3 P4 1.540695 1_556
O3 V1 2.035897 1_555
O4 P0 1.544425 1_555
O4 V1 2.020633 1_555
O5 P0 1.546589 1_555
O6 P1 1.548132 1_555
O6 V0 2.015334 1_545
O7 P1 1.560167 1_555
O7 V1 2.059300 1_555
O8 P2 1.554038 1_555
O8 V1 2.051978 1_555
O9 P3 1.513911 1_555
O9 V0 1.991466 1_545
O10 P3 1.575380 1_555
O11 P4 1.519656 1_555
O11 V0 1.991447 1_554
O12 P1 1.546088 1_555
O13 P2 1.562192 1_555
O13 V0 2.029994 1_455
O14 P2 1.540836 1_555
O15 P3 1.575160 1_555
O15 V2 2.055948 1_555
O16 P4 1.564940 1_555
O16 V2 2.064176 1_555
O17 P4 1.568912 1_555
O18 P5 1.540991 1_555
O18 V0 2.021878 1_455
O19 P5 1.562950 1_555
O19 V2 2.081304 1_555
O20 P1 1.539945 1_554
O20 V2 2.001636 1_555
O21 P5 1.573061 1_555
O22 P2 1.532614 1_545
O22 V2 1.999139 1_555
O23 P0 1.551193 1_455
O23 V2 1.966601 1_555
