# generated using pymatgen
data_Ti11BeO20
_symmetry_space_group_name_H-M   'P 1'
_cell_length_a   7.21625300
_cell_length_b   7.73456888
_cell_length_c   13.13853031
_cell_angle_alpha   90.21177746
_cell_angle_beta   93.19151998
_cell_angle_gamma   104.80258354
_symmetry_Int_Tables_number   1
_chemical_formula_structural   Ti11BeO20
_chemical_formula_sum   'Ti22 Be2 O40'
_cell_volume   707.76269511
_cell_formula_units_Z   2
loop_
 _symmetry_equiv_pos_site_id
 _symmetry_equiv_pos_as_xyz
  1  'x, y, z'
loop_
 _atom_site_type_symbol
 _atom_site_label
 _atom_site_symmetry_multiplicity
 _atom_site_fract_x
 _atom_site_fract_y
 _atom_site_fract_z
 _atom_site_occupancy
  Ti  Ti0  1  0.01220500  0.92148600  0.20241200  1
  Ti  Ti1  1  0.03610500  0.43440400  0.71030800  1
  Ti  Ti2  1  0.99567600  0.29619300  0.12596900  1
  Ti  Ti3  1  0.99767200  0.20564100  0.36792400  1
  Ti  Ti4  1  0.31977600  0.94648300  0.42377900  1
  Ti  Ti5  1  0.31547200  0.70949600  0.07969000  1
  Ti  Ti6  1  0.32130700  0.57070700  0.51500700  1
  Ti  Ti7  1  0.33409600  0.43317800  0.92983600  1
  Ti  Ti8  1  0.35444900  0.62901100  0.28572600  1
  Ti  Ti9  1  0.30211000  0.20625200  0.58468600  1
  Ti  Ti10  1  0.31950400  0.08562200  0.01277900  1
  Ti  Ti11  1  0.68049600  0.91437800  0.98722100  1
  Ti  Ti12  1  0.69789000  0.79374800  0.41531400  1
  Ti  Ti13  1  0.64555100  0.37098900  0.71427400  1
  Ti  Ti14  1  0.66590400  0.56682200  0.07016400  1
  Ti  Ti15  1  0.67869300  0.42929300  0.48499300  1
  Ti  Ti16  1  0.68452800  0.29050400  0.92031000  1
  Ti  Ti17  1  0.68022400  0.05351700  0.57622100  1
  Ti  Ti18  1  0.00232800  0.79435900  0.63207600  1
  Ti  Ti19  1  0.00432400  0.70380700  0.87403100  1
  Ti  Ti20  1  0.96389500  0.56559600  0.28969200  1
  Ti  Ti21  1  0.98779500  0.07851400  0.79758800  1
  Be  Be0  1  0.38273500  0.00686400  0.78345600  1
  Be  Be1  1  0.61726500  0.99313600  0.21654400  1
  O  O0  1  0.16014500  0.90067800  0.76846800  1
  O  O1  1  0.17490300  0.82778400  0.98107200  1
  O  O2  1  0.17134000  0.95402600  0.54516500  1
  O  O3  1  0.16314800  0.73952100  0.20065400  1
  O  O4  1  0.16218000  0.54083000  0.83639400  1
  O  O5  1  0.16740100  0.61700300  0.62027600  1
  O  O6  1  0.19006300  0.68159100  0.40110800  1
  O  O7  1  0.13530400  0.39536600  0.26657400  1
  O  O8  1  0.15495200  0.23951900  0.69635900  1
  O  O9  1  0.17539200  0.17562200  0.90520300  1
  O  O10  1  0.17209200  0.32551800  0.47792900  1
  O  O11  1  0.16946200  0.46039700  0.04786000  1
  O  O12  1  0.15875400  0.04237800  0.33380900  1
  O  O13  1  0.15493900  0.11400900  0.12116200  1
  O  O14  1  0.50106200  0.96101300  0.10658500  1
  O  O15  1  0.49840400  0.67917100  0.96843600  1
  O  O16  1  0.51096700  0.89529100  0.31362900  1
  O  O17  1  0.50221700  0.82845400  0.51822600  1
  O  O18  1  0.49333000  0.45622500  0.60228900  1
  O  O19  1  0.49496300  0.60560300  0.17232300  1
  O  O20  1  0.50503700  0.39439700  0.82767700  1
  O  O21  1  0.50667000  0.54377500  0.39771100  1
  O  O22  1  0.49778300  0.17154600  0.48177400  1
  O  O23  1  0.48903300  0.10470900  0.68637100  1
  O  O24  1  0.50159600  0.32082900  0.03156400  1
  O  O25  1  0.49893800  0.03898700  0.89341500  1
  O  O26  1  0.84506100  0.88599100  0.87883800  1
  O  O27  1  0.84124600  0.95762200  0.66619100  1
  O  O28  1  0.83053800  0.53960300  0.95214000  1
  O  O29  1  0.82790800  0.67448200  0.52207100  1
  O  O30  1  0.82460800  0.82437800  0.09479700  1
  O  O31  1  0.84504800  0.76048100  0.30364100  1
  O  O32  1  0.86469600  0.60463400  0.73342600  1
  O  O33  1  0.80993700  0.31840900  0.59889200  1
  O  O34  1  0.83259900  0.38299700  0.37972400  1
  O  O35  1  0.83782000  0.45917000  0.16360600  1
  O  O36  1  0.83685200  0.26047900  0.79934600  1
  O  O37  1  0.82866000  0.04597400  0.45483500  1
  O  O38  1  0.82509700  0.17221600  0.01892800  1
  O  O39  1  0.83985500  0.09932200  0.23153200  1
loop_
_geom_bond_atom_site_label_1
_geom_bond_atom_site_label_2
_geom_bond_distance
_geom_bond_site_symmetry_2
Be0 O0 1.607138 1_545
Be0 O23 1.614814 1_555
Be0 O25 1.614946 1_555
Be1 O39 1.607138 1_565
Be1 O16 1.614814 1_555
Be1 O14 1.614946 1_555
O0 Ti18 2.113709 1_555
O0 Ti21 2.123303 1_465
O0 Ti19 2.195677 1_555
O1 Ti19 1.899133 1_555
O1 Ti5 1.970149 1_556
O1 Ti10 2.030174 1_566
O2 Ti18 1.926754 1_555
O2 Ti4 1.978819 1_555
O2 Ti9 1.990789 1_565
O3 Ti0 1.988396 1_555
O3 Ti5 2.027377 1_555
O3 Ti8 2.079374 1_555
O3 Ti20 2.110961 1_455
O4 Ti1 1.920680 1_555
O4 Ti19 1.980654 1_555
O4 Ti7 2.026171 1_555
O5 Ti6 1.909243 1_555
O5 Ti1 1.935190 1_555
O5 Ti18 2.044196 1_555
O6 Ti6 2.034370 1_555
O6 Ti4 2.036438 1_555
O6 Ti8 2.076747 1_555
O6 Ti20 2.141849 1_455
O7 Ti20 2.055942 1_455
O7 Ti8 2.078935 1_555
O7 Ti3 2.080845 1_455
O7 Ti2 2.098484 1_455
O8 Ti9 1.912315 1_555
O8 Ti1 1.928018 1_555
O8 Ti21 2.048910 1_455
O9 Ti21 1.911898 1_455
O9 Ti10 1.943516 1_556
O9 Ti7 2.042777 1_555
O10 Ti3 1.929775 1_455
O10 Ti6 1.970923 1_555
O10 Ti9 2.000977 1_555
O11 Ti2 1.891557 1_455
O11 Ti5 1.976058 1_555
O11 Ti7 2.047153 1_554
O12 Ti4 1.895136 1_545
O12 Ti3 1.987600 1_455
O12 Ti0 2.062165 1_545
O13 Ti0 1.941213 1_545
O13 Ti10 1.950753 1_555
O13 Ti2 2.036021 1_455
O14 Ti5 2.076996 1_555
O14 Ti10 2.153753 1_565
O14 Ti11 2.174112 1_554
O15 Ti11 1.958627 1_555
O15 Ti7 2.014026 1_555
O15 Ti5 2.074795 1_556
O15 Ti14 2.089954 1_556
O16 Ti8 2.100373 1_555
O16 Ti12 2.137669 1_555
O16 Ti4 2.156836 1_555
O17 Ti17 1.999882 1_565
O17 Ti12 2.073082 1_555
O17 Ti6 2.084167 1_555
O17 Ti4 2.132391 1_555
O18 Ti13 2.000821 1_555
O18 Ti6 2.012646 1_555
O18 Ti9 2.072115 1_555
O18 Ti15 2.139428 1_555
O19 Ti8 1.881735 1_555
O19 Ti14 1.945155 1_555
O19 Ti5 2.041612 1_555
O20 Ti13 1.881735 1_555
O20 Ti7 1.945155 1_555
O20 Ti16 2.041612 1_555
O21 Ti8 2.000821 1_555
O21 Ti15 2.012646 1_555
O21 Ti12 2.072115 1_555
O21 Ti6 2.139428 1_555
O22 Ti4 1.999882 1_545
O22 Ti9 2.073082 1_555
O22 Ti15 2.084167 1_555
O22 Ti17 2.132391 1_555
O23 Ti13 2.100373 1_555
O23 Ti9 2.137669 1_555
O23 Ti17 2.156836 1_555
O24 Ti10 1.958627 1_555
O24 Ti14 2.014026 1_555
O24 Ti16 2.074795 1_554
O24 Ti7 2.089954 1_554
O25 Ti16 2.076996 1_555
O25 Ti11 2.153753 1_545
O25 Ti10 2.174112 1_556
O26 Ti21 1.941213 1_565
O26 Ti11 1.950753 1_555
O26 Ti19 2.036021 1_655
O27 Ti17 1.895136 1_565
O27 Ti18 1.987600 1_655
O27 Ti21 2.062165 1_565
O28 Ti19 1.891557 1_655
O28 Ti16 1.976058 1_555
O28 Ti14 2.047153 1_556
O29 Ti18 1.929775 1_655
O29 Ti15 1.970923 1_555
O29 Ti12 2.000977 1_555
O30 Ti0 1.911898 1_655
O30 Ti11 1.943516 1_554
O30 Ti14 2.042777 1_555
O31 Ti12 1.912315 1_555
O31 Ti20 1.928018 1_555
O31 Ti0 2.048910 1_655
O32 Ti1 2.055942 1_655
O32 Ti13 2.078935 1_555
O32 Ti18 2.080845 1_655
O32 Ti19 2.098484 1_655
O33 Ti15 2.034370 1_555
O33 Ti17 2.036438 1_555
O33 Ti13 2.076747 1_555
O33 Ti1 2.141849 1_655
O34 Ti15 1.909243 1_555
O34 Ti20 1.935190 1_555
O34 Ti3 2.044196 1_555
O35 Ti20 1.920680 1_555
O35 Ti2 1.980654 1_555
O35 Ti14 2.026171 1_555
O36 Ti21 1.988396 1_555
O36 Ti16 2.027377 1_555
O36 Ti13 2.079374 1_555
O36 Ti1 2.110961 1_655
O37 Ti3 1.926754 1_555
O37 Ti17 1.978819 1_555
O37 Ti12 1.990789 1_545
O38 Ti2 1.899133 1_555
O38 Ti16 1.970149 1_554
O38 Ti11 2.030174 1_544
O39 Ti3 2.113709 1_555
O39 Ti0 2.123303 1_645
O39 Ti2 2.195677 1_555
