# generated using pymatgen
data_LiAlVO4
_symmetry_space_group_name_H-M   'P 1'
_cell_length_a   8.72999115
_cell_length_b   8.72999115
_cell_length_c   8.72999122
_cell_angle_alpha   107.54200538
_cell_angle_beta   107.54200538
_cell_angle_gamma   107.54200430
_symmetry_Int_Tables_number   1
_chemical_formula_structural   LiAlVO4
_chemical_formula_sum   'Li6 Al6 V6 O24'
_cell_volume   545.69893225
_cell_formula_units_Z   6
loop_
 _symmetry_equiv_pos_site_id
 _symmetry_equiv_pos_as_xyz
  1  'x, y, z'
loop_
 _atom_site_type_symbol
 _atom_site_label
 _atom_site_symmetry_multiplicity
 _atom_site_fract_x
 _atom_site_fract_y
 _atom_site_fract_z
 _atom_site_occupancy
  Li  Li0  1  0.87262000  0.10106800  0.27394300  1
  Li  Li1  1  0.78694000  0.56290900  0.39141400  1
  Li  Li2  1  0.56290900  0.39141400  0.78694000  1
  Li  Li3  1  0.10106800  0.27394300  0.87262000  1
  Li  Li4  1  0.39141400  0.78694000  0.56290900  1
  Li  Li5  1  0.27394300  0.87262000  0.10106800  1
  Al  Al0  1  0.94553100  0.54193900  0.76639300  1
  Al  Al1  1  0.46543700  0.23678100  0.05357000  1
  Al  Al2  1  0.23678100  0.05357000  0.46543700  1
  Al  Al3  1  0.76639300  0.94553100  0.54193900  1
  Al  Al4  1  0.54193900  0.76639300  0.94553100  1
  Al  Al5  1  0.05357000  0.46543700  0.23678100  1
  V  V0  1  0.72292600  0.12802300  0.89939700  1
  V  V1  1  0.61077400  0.20278800  0.43311400  1
  V  V2  1  0.89939700  0.72292600  0.12802300  1
  V  V3  1  0.43311400  0.61077400  0.20278800  1
  V  V4  1  0.20278800  0.43311400  0.61077400  1
  V  V5  1  0.12802300  0.89939700  0.72292600  1
  O  O0  1  0.69252000  0.98898600  0.01944300  1
  O  O1  1  0.95442700  0.29645900  0.01454600  1
  O  O2  1  0.74842300  0.08246900  0.42908800  1
  O  O3  1  0.58712000  0.24922300  0.92290100  1
  O  O4  1  0.38087100  0.04707300  0.35803900  1
  O  O5  1  0.72044100  0.37993500  0.66214800  1
  O  O6  1  0.92290100  0.58712000  0.24922300  1
  O  O7  1  0.60602000  0.30820100  0.28043000  1
  O  O8  1  0.97001100  0.67036400  0.64265800  1
  O  O9  1  0.01454600  0.95442700  0.29645900  1
  O  O10  1  0.67036400  0.64265800  0.97001100  1
  O  O11  1  0.30820100  0.28043000  0.60602000  1
  O  O12  1  0.98898600  0.01944300  0.69252000  1
  O  O13  1  0.35803900  0.38087100  0.04707300  1
  O  O14  1  0.66214800  0.72044100  0.37993500  1
  O  O15  1  0.37993500  0.66214800  0.72044100  1
  O  O16  1  0.04707300  0.35803900  0.38087100  1
  O  O17  1  0.42908800  0.74842300  0.08246900  1
  O  O18  1  0.28043000  0.60602000  0.30820100  1
  O  O19  1  0.64265800  0.97001100  0.67036400  1
  O  O20  1  0.08246900  0.42908800  0.74842300  1
  O  O21  1  0.01944300  0.69252000  0.98898600  1
  O  O22  1  0.24922300  0.92290100  0.58712000  1
  O  O23  1  0.29645900  0.01454600  0.95442700  1
loop_
_geom_bond_atom_site_label_1
_geom_bond_atom_site_label_2
_geom_bond_distance
_geom_bond_site_symmetry_2
Li0 O2 1.986970 1_555
Li0 O0 2.005528 1_545
Li0 O16 2.011113 1_655
Li0 O9 2.042954 1_645
Li1 O6 1.972177 1_555
Li1 O8 1.996972 1_555
Li1 O14 2.002162 1_555
Li1 O7 2.009845 1_555
Li2 O3 1.972177 1_555
Li2 O10 1.996972 1_555
Li2 O5 2.002162 1_555
Li2 O11 2.009845 1_555
Li3 O20 1.986970 1_555
Li3 O12 2.005528 1_455
Li3 O13 2.011113 1_556
Li3 O1 2.042954 1_456
Li4 O22 1.972177 1_555
Li4 O19 1.996972 1_555
Li4 O15 2.002162 1_555
Li4 O18 2.009845 1_555
Li5 O17 1.986970 1_555
Li5 O21 2.005528 1_554
Li5 O4 2.011113 1_565
Li5 O23 2.042954 1_564
Al0 O21 1.764525 1_655
Al0 O20 1.776007 1_655
Al0 O5 1.777816 1_555
Al0 O8 1.787250 1_555
Al1 O7 1.773827 1_555
Al1 O3 1.782461 1_554
Al1 O23 1.783857 1_554
Al1 O13 1.785078 1_555
Al2 O11 1.773827 1_555
Al2 O22 1.782461 1_545
Al2 O9 1.783857 1_545
Al2 O4 1.785078 1_555
Al3 O12 1.764525 1_565
Al3 O2 1.776007 1_565
Al3 O14 1.777816 1_555
Al3 O19 1.787250 1_555
Al4 O0 1.764525 1_556
Al4 O17 1.776007 1_556
Al4 O15 1.777816 1_555
Al4 O10 1.787250 1_555
Al5 O18 1.773827 1_555
Al5 O6 1.782461 1_455
Al5 O1 1.783857 1_455
Al5 O16 1.785078 1_555
O0 V0 1.839112 1_564
O1 V0 1.830312 1_554
O2 V1 1.820068 1_555
O3 V0 1.827347 1_555
O4 V1 1.825113 1_555
O5 V1 1.842730 1_555
O6 V2 1.827347 1_555
O7 V1 1.831501 1_555
O8 V5 1.817086 1_655
O9 V2 1.830312 1_455
O10 V2 1.817086 1_556
O11 V4 1.831501 1_555
O12 V5 1.839112 1_645
O13 V3 1.825113 1_555
O14 V3 1.842730 1_555
O15 V4 1.842730 1_555
O16 V4 1.825113 1_555
O17 V3 1.820068 1_555
O18 V3 1.831501 1_555
O19 V0 1.817086 1_565
O20 V4 1.820068 1_555
O21 V2 1.839112 1_456
O22 V5 1.827347 1_555
O23 V5 1.830312 1_545
