# generated using pymatgen
data_Li2SbAsCO7
_symmetry_space_group_name_H-M   'P 1'
_cell_length_a   6.97704500
_cell_length_b   5.23751500
_cell_length_c   9.37014852
_cell_angle_alpha   86.38235153
_cell_angle_beta   90.00000000
_cell_angle_gamma   90.00000000
_symmetry_Int_Tables_number   1
_chemical_formula_structural   Li2SbAsCO7
_chemical_formula_sum   'Li4 Sb2 As2 C2 O14'
_cell_volume   341.72520593
_cell_formula_units_Z   2
loop_
 _symmetry_equiv_pos_site_id
 _symmetry_equiv_pos_as_xyz
  1  'x, y, z'
loop_
 _atom_site_type_symbol
 _atom_site_label
 _atom_site_symmetry_multiplicity
 _atom_site_fract_x
 _atom_site_fract_y
 _atom_site_fract_z
 _atom_site_occupancy
  Li  Li0  1  0.43932800  0.22019100  0.78148100  1
  Li  Li1  1  0.06067200  0.22019100  0.78148100  1
  Li  Li2  1  0.56067200  0.77980900  0.21851900  1
  Li  Li3  1  0.93932800  0.77980900  0.21851900  1
  Sb  Sb0  1  0.75000000  0.79541200  0.65140100  1
  Sb  Sb1  1  0.25000000  0.20458800  0.34859900  1
  As  As0  1  0.25000000  0.73714900  0.61243800  1
  As  As1  1  0.75000000  0.26285100  0.38756200  1
  C  C0  1  0.75000000  0.73978500  0.93332500  1
  C  C1  1  0.25000000  0.26021500  0.06667500  1
  O  O0  1  0.25000000  0.25603400  0.93277300  1
  O  O1  1  0.75000000  0.96036600  0.85055600  1
  O  O2  1  0.75000000  0.53393500  0.86234000  1
  O  O3  1  0.05628100  0.88434500  0.68826100  1
  O  O4  1  0.44371900  0.88434500  0.68826100  1
  O  O5  1  0.75000000  0.19470600  0.57265400  1
  O  O6  1  0.25000000  0.41583500  0.64678200  1
  O  O7  1  0.75000000  0.58416500  0.35321800  1
  O  O8  1  0.25000000  0.80529400  0.42734600  1
  O  O9  1  0.55628100  0.11565500  0.31173900  1
  O  O10  1  0.94371900  0.11565500  0.31173900  1
  O  O11  1  0.25000000  0.46606500  0.13766000  1
  O  O12  1  0.25000000  0.03963400  0.14944400  1
  O  O13  1  0.75000000  0.74396600  0.06722700  1
loop_
_geom_bond_atom_site_label_1
_geom_bond_atom_site_label_2
_geom_bond_distance
_geom_bond_site_symmetry_2
Li0 O0 1.955353 1_555
Li0 O4 2.012930 1_545
Li0 O6 2.055409 1_555
Li1 O0 1.955353 1_555
Li1 O3 2.012930 1_545
Li1 O6 2.055409 1_555
Li2 O13 1.955353 1_555
Li2 O9 2.012930 1_565
Li2 O7 2.055409 1_555
Li3 O13 1.955353 1_555
Li3 O10 2.012930 1_565
Li3 O7 2.055409 1_555
As0 O6 1.693318 1_555
As0 O4 1.730615 1_555
As0 O3 1.730615 1_555
As0 O8 1.748486 1_555
As1 O7 1.693318 1_555
As1 O10 1.730615 1_555
As1 O9 1.730615 1_555
As1 O5 1.748486 1_555
C0 O13 1.256253 1_556
C0 O2 1.302037 1_555
C0 O1 1.350233 1_555
C1 O0 1.256253 1_554
C1 O11 1.302037 1_555
C1 O12 1.350233 1_555
O1 Sb0 2.105288 1_555
O2 Sb0 2.332505 1_555
O3 Sb0 2.218794 1_455
O4 Sb0 2.218794 1_555
O5 Sb0 2.173313 1_545
O8 Sb1 2.173313 1_565
O9 Sb1 2.218794 1_555
O10 Sb1 2.218794 1_655
O11 Sb1 2.332505 1_555
O12 Sb1 2.105288 1_555
