# generated using pymatgen
data_LiV3OF11
_symmetry_space_group_name_H-M   'P 1'
_cell_length_a   5.28264600
_cell_length_b   5.46504259
_cell_length_c   15.57370037
_cell_angle_alpha   99.64220932
_cell_angle_beta   90.17585689
_cell_angle_gamma   90.30727849
_symmetry_Int_Tables_number   1
_chemical_formula_structural   LiV3OF11
_chemical_formula_sum   'Li2 V6 O2 F22'
_cell_volume   443.24928746
_cell_formula_units_Z   2
loop_
 _symmetry_equiv_pos_site_id
 _symmetry_equiv_pos_as_xyz
  1  'x, y, z'
loop_
 _atom_site_type_symbol
 _atom_site_label
 _atom_site_symmetry_multiplicity
 _atom_site_fract_x
 _atom_site_fract_y
 _atom_site_fract_z
 _atom_site_occupancy
  Li  Li0  1  0.81180700  0.63377500  0.82504700  1
  Li  Li1  1  0.45011600  0.14166000  0.10535900  1
  V  V0  1  0.51496400  0.54264500  0.00567800  1
  V  V1  1  0.49734100  0.83190700  0.66287800  1
  V  V2  1  0.00132200  0.66626400  0.33294800  1
  V  V3  1  0.00079800  0.32626800  0.65926500  1
  V  V4  1  0.50086100  0.16726900  0.33648100  1
  V  V5  1  0.99359500  0.00773500  0.99161900  1
  O  O0  1  0.68647700  0.80563600  0.02793600  1
  O  O1  1  0.91793700  0.94751700  0.88710500  1
  F  F0  1  0.79866300  0.97371700  0.35604500  1
  F  F1  1  0.30023000  0.86104800  0.31093800  1
  F  F2  1  0.59227700  0.78880500  0.55263300  1
  F  F3  1  0.91428600  0.62522400  0.22229100  1
  F  F4  1  0.43059200  0.85812300  0.77629400  1
  F  F5  1  0.08219900  0.70777700  0.44463100  1
  F  F6  1  0.40751000  0.51126200  0.11608900  1
  F  F7  1  0.79515400  0.63981100  0.69028500  1
  F  F8  1  0.70104400  0.47172100  0.35681800  1
  F  F9  1  0.78178100  0.30778000  0.03089900  1
  F  F10  1  0.20595900  0.68140200  0.97524200  1
  F  F11  1  0.30383300  0.52103400  0.63982200  1
  F  F12  1  0.20454000  0.36033500  0.31169300  1
  F  F13  1  0.91095300  0.29484700  0.54741600  1
  F  F14  1  0.58206000  0.12730600  0.22238200  1
  F  F15  1  0.59604800  0.46080700  0.88868800  1
  F  F16  1  0.06594500  0.39089000  0.77741400  1
  F  F17  1  0.41610300  0.20282700  0.44672000  1
  F  F18  1  0.11994000  0.02481900  0.10911800  1
  F  F19  1  0.69704200  0.13741000  0.68580100  1
  F  F20  1  0.30974200  0.19903600  0.97971100  1
  F  F21  1  0.19975100  0.01656200  0.64261200  1
loop_
_geom_bond_atom_site_label_1
_geom_bond_atom_site_label_2
_geom_bond_distance
_geom_bond_site_symmetry_2
Li0 O1 1.902508 1_555
Li1 O0 2.382707 1_545
O0 V0 1.680473 1_555
O0 V5 2.089883 1_564
O1 V5 1.653030 1_565
F0 V4 1.951789 1_565
F0 V2 1.979377 1_655
F1 V4 1.958971 1_565
F1 V2 1.962526 1_555
F2 V1 1.768021 1_555
F3 V2 1.759588 1_655
F4 V1 1.784459 1_555
F5 V2 1.766761 1_555
F6 V0 1.847181 1_555
F6 Li1 2.012604 1_555
F7 V1 1.980675 1_555
F7 V3 2.023754 1_655
F7 Li0 2.106096 1_555
F8 V4 1.946670 1_555
F8 V2 1.975529 1_655
F9 V0 1.993328 1_555
F9 V5 2.000726 1_554
F9 Li1 2.363627 1_555
F10 V0 1.895591 1_556
F10 V5 2.091656 1_465
F11 V1 1.958324 1_555
F11 V3 1.969761 1_555
F12 V4 1.965476 1_555
F12 V2 1.973164 1_555
F13 V3 1.784048 1_655
F14 V4 1.806904 1_555
F14 Li1 1.963186 1_555
F15 V0 1.853899 1_556
F15 Li0 1.866602 1_555
F16 V3 1.845521 1_555
F16 Li0 1.951913 1_455
F17 V4 1.754888 1_555
F18 Li1 1.858658 1_555
F18 V5 1.933210 1_454
F19 V1 1.951157 1_545
F19 V3 1.984968 1_655
F20 V5 1.991162 1_455
F20 V0 2.141542 1_556
F20 Li1 2.162504 1_556
F21 V1 1.926146 1_545
F21 V3 1.977451 1_555
