# generated using pymatgen
data_Ba2Na2O3
_symmetry_space_group_name_H-M   'P 1'
_cell_length_a   7.18098200
_cell_length_b   7.18098200
_cell_length_c   11.10306500
_cell_angle_alpha   90.00000000
_cell_angle_beta   90.00000000
_cell_angle_gamma   90.00000000
_symmetry_Int_Tables_number   1
_chemical_formula_structural   Ba2Na2O3
_chemical_formula_sum   'Ba8 Na8 O12'
_cell_volume   572.54622891
_cell_formula_units_Z   4
loop_
 _symmetry_equiv_pos_site_id
 _symmetry_equiv_pos_as_xyz
  1  'x, y, z'
loop_
 _atom_site_type_symbol
 _atom_site_label
 _atom_site_symmetry_multiplicity
 _atom_site_fract_x
 _atom_site_fract_y
 _atom_site_fract_z
 _atom_site_occupancy
  Ba  Ba0  1  0.98451600  0.75239300  0.35616800  1
  Ba  Ba1  1  0.24760700  0.01548400  0.14383200  1
  Ba  Ba2  1  0.25239300  0.51548400  0.60616800  1
  Ba  Ba3  1  0.51548400  0.25239300  0.39383200  1
  Ba  Ba4  1  0.48451600  0.74760700  0.89383200  1
  Ba  Ba5  1  0.74760700  0.48451600  0.10616800  1
  Ba  Ba6  1  0.75239300  0.98451600  0.64383200  1
  Ba  Ba7  1  0.01548400  0.24760700  0.85616800  1
  Na  Na0  1  0.96741900  0.75396300  0.89311600  1
  Na  Na1  1  0.24603700  0.03258100  0.60688400  1
  Na  Na2  1  0.25396300  0.53258100  0.14311600  1
  Na  Na3  1  0.53258100  0.25396300  0.85688400  1
  Na  Na4  1  0.46741900  0.74603700  0.35688400  1
  Na  Na5  1  0.74603700  0.46741900  0.64311600  1
  Na  Na6  1  0.75396300  0.96741900  0.10688400  1
  Na  Na7  1  0.03258100  0.24603700  0.39311600  1
  O  O0  1  0.99748300  0.25461600  0.61793900  1
  O  O1  1  0.29816300  0.29816300  0.00000000  1
  O  O2  1  0.24538400  0.49748300  0.36793900  1
  O  O3  1  0.25461600  0.99748300  0.38206100  1
  O  O4  1  0.20183700  0.79816300  0.75000000  1
  O  O5  1  0.50251700  0.75461600  0.13206100  1
  O  O6  1  0.49748300  0.24538400  0.63206100  1
  O  O7  1  0.79816300  0.20183700  0.25000000  1
  O  O8  1  0.74538400  0.00251700  0.88206100  1
  O  O9  1  0.75461600  0.50251700  0.86793900  1
  O  O10  1  0.70183700  0.70183700  0.50000000  1
  O  O11  1  0.00251700  0.74538400  0.11793900  1
loop_
_geom_bond_atom_site_label_1
_geom_bond_atom_site_label_2
_geom_bond_distance
_geom_bond_site_symmetry_2
Ba0 O10 2.608194 1_555
Ba0 O2 2.622410 1_655
Ba0 O3 2.634803 1_655
Ba0 O11 2.648707 1_655
Ba1 O1 2.608194 1_555
Ba1 O5 2.622410 1_545
Ba1 O11 2.634803 1_545
Ba1 O3 2.648707 1_545
Ba2 O4 2.608194 1_555
Ba2 O0 2.622410 1_455
Ba2 O6 2.634803 1_555
Ba2 O2 2.648707 1_555
Ba3 O7 2.608194 1_555
Ba3 O3 2.622410 1_545
Ba3 O2 2.634803 1_555
Ba3 O6 2.648707 1_555
Ba4 O4 2.608194 1_555
Ba4 O8 2.622410 1_565
Ba4 O9 2.634803 1_555
Ba4 O5 2.648707 1_556
Ba5 O7 2.608194 1_555
Ba5 O11 2.622410 1_655
Ba5 O5 2.634803 1_555
Ba5 O9 2.648707 1_554
Ba6 O10 2.608194 1_555
Ba6 O6 2.622410 1_565
Ba6 O0 2.634803 1_565
Ba6 O8 2.648707 1_565
Ba7 O1 2.608194 1_556
Ba7 O9 2.622410 1_455
Ba7 O8 2.634803 1_455
Ba7 O0 2.648707 1_455
Na0 O4 2.336540 1_655
Na0 O9 2.381939 1_555
Na0 O8 2.396456 1_565
Na0 O11 2.509672 1_656
Na1 O4 2.336540 1_545
Na1 O6 2.381939 1_555
Na1 O0 2.396456 1_455
Na1 O3 2.509672 1_545
Na2 O1 2.336540 1_555
Na2 O11 2.381939 1_555
Na2 O5 2.396456 1_555
Na2 O2 2.509672 1_555
Na3 O1 2.336540 1_556
Na3 O8 2.381939 1_555
Na3 O9 2.396456 1_555
Na3 O6 2.509672 1_555
Na4 O10 2.336540 1_555
Na4 O3 2.381939 1_555
Na4 O2 2.396456 1_555
Na4 O5 2.509672 1_555
Na5 O10 2.336540 1_555
Na5 O0 2.381939 1_555
Na5 O6 2.396456 1_555
Na5 O9 2.509672 1_555
Na6 O7 2.336540 1_565
Na6 O5 2.381939 1_555
Na6 O11 2.396456 1_655
Na6 O8 2.509672 1_564
Na7 O7 2.336540 1_455
Na7 O2 2.381939 1_555
Na7 O3 2.396456 1_545
Na7 O0 2.509672 1_455
