# generated using pymatgen
data_Na4Ti7O16
_symmetry_space_group_name_H-M   'P 1'
_cell_length_a   6.08497800
_cell_length_b   6.17435500
_cell_length_c   9.02608202
_cell_angle_alpha   86.46548626
_cell_angle_beta   90.00000000
_cell_angle_gamma   90.00000000
_symmetry_Int_Tables_number   1
_chemical_formula_structural   Na4Ti7O16
_chemical_formula_sum   'Na4 Ti7 O16'
_cell_volume   338.47219772
_cell_formula_units_Z   1
loop_
 _symmetry_equiv_pos_site_id
 _symmetry_equiv_pos_as_xyz
  1  'x, y, z'
loop_
 _atom_site_type_symbol
 _atom_site_label
 _atom_site_symmetry_multiplicity
 _atom_site_fract_x
 _atom_site_fract_y
 _atom_site_fract_z
 _atom_site_occupancy
  Na  Na0  1  0.00000000  0.24491300  0.62676000  1
  Na  Na1  1  0.50000000  0.22764900  0.87911100  1
  Na  Na2  1  0.50000000  0.77235100  0.12088900  1
  Na  Na3  1  0.00000000  0.75508700  0.37324000  1
  Ti  Ti0  1  0.24449700  0.73685500  0.75589500  1
  Ti  Ti1  1  0.75550300  0.73685500  0.75589500  1
  Ti  Ti2  1  0.00000000  0.50000000  0.00000000  1
  Ti  Ti3  1  0.24449700  0.26314500  0.24410500  1
  Ti  Ti4  1  0.75550300  0.26314500  0.24410500  1
  Ti  Ti5  1  0.50000000  0.00000000  0.50000000  1
  Ti  Ti6  1  0.50000000  0.50000000  0.50000000  1
  O  O0  1  0.50000000  0.51921600  0.71961400  1
  O  O1  1  0.50000000  0.94789600  0.72460400  1
  O  O2  1  0.00000000  0.50861800  0.77603900  1
  O  O3  1  0.00000000  0.91706200  0.72194800  1
  O  O4  1  0.76762900  0.71761600  0.95697000  1
  O  O5  1  0.23237100  0.71761600  0.95697000  1
  O  O6  1  0.76762900  0.28238400  0.04303000  1
  O  O7  1  0.23237100  0.28238400  0.04303000  1
  O  O8  1  0.00000000  0.08293800  0.27805200  1
  O  O9  1  0.50000000  0.05210400  0.27539600  1
  O  O10  1  0.50000000  0.48078400  0.28038600  1
  O  O11  1  0.00000000  0.49138200  0.22396100  1
  O  O12  1  0.29299800  0.25035800  0.48935800  1
  O  O13  1  0.70700200  0.25035800  0.48935800  1
  O  O14  1  0.70700200  0.74964200  0.51064200  1
  O  O15  1  0.29299800  0.74964200  0.51064200  1
loop_
_geom_bond_atom_site_label_1
_geom_bond_atom_site_label_2
_geom_bond_distance
_geom_bond_site_symmetry_2
Na0 O3 2.149744 1_545
Na0 O12 2.170892 1_555
Na0 O13 2.170892 1_455
Na0 O2 2.176479 1_555
Na1 O0 2.234692 1_555
Na1 O6 2.239863 1_556
Na1 O7 2.239863 1_556
Na1 O1 2.285924 1_545
Na2 O10 2.234692 1_555
Na2 O5 2.239863 1_554
Na2 O4 2.239863 1_554
Na2 O9 2.285924 1_565
Na3 O8 2.149744 1_565
Na3 O14 2.170892 1_455
Na3 O15 2.170892 1_555
Na3 O11 2.176479 1_555
O0 Ti6 1.993090 1_555
O0 Ti0 2.093903 1_555
O0 Ti1 2.093903 1_555
O1 Ti5 2.032979 1_565
O1 Ti0 2.037031 1_555
O1 Ti1 2.037031 1_555
O2 Ti2 2.018909 1_556
O2 Ti1 2.049581 1_455
O2 Ti0 2.049581 1_555
O3 Ti1 1.871709 1_455
O3 Ti0 1.871709 1_555
O4 Ti1 1.812982 1_555
O4 Ti2 1.972609 1_656
O5 Ti0 1.812982 1_555
O5 Ti2 1.972609 1_556
O6 Ti4 1.812982 1_555
O6 Ti2 1.972609 1_655
O7 Ti3 1.812982 1_555
O7 Ti2 1.972609 1_555
O8 Ti4 1.871709 1_455
O8 Ti3 1.871709 1_555
O9 Ti5 2.032979 1_555
O9 Ti4 2.037031 1_555
O9 Ti3 2.037031 1_555
O10 Ti6 1.993090 1_555
O10 Ti3 2.093903 1_555
O10 Ti4 2.093903 1_555
O11 Ti2 2.018909 1_555
O11 Ti4 2.049581 1_455
O11 Ti3 2.049581 1_555
O12 Ti5 1.991736 1_555
O12 Ti6 1.997480 1_555
O12 Ti3 2.229829 1_555
O13 Ti5 1.991736 1_555
O13 Ti6 1.997480 1_555
O13 Ti4 2.229829 1_555
O14 Ti5 1.991736 1_565
O14 Ti6 1.997480 1_555
O14 Ti1 2.229829 1_555
O15 Ti5 1.991736 1_565
O15 Ti6 1.997480 1_555
O15 Ti0 2.229829 1_555
