# generated using pymatgen
data_Li2Mn2(SO4)3
_symmetry_space_group_name_H-M   'P 1'
_cell_length_a   8.77032900
_cell_length_b   9.02385000
_cell_length_c   12.60576600
_cell_angle_alpha   90.00000000
_cell_angle_beta   90.00000000
_cell_angle_gamma   90.00000000
_symmetry_Int_Tables_number   1
_chemical_formula_structural   Li2Mn2(SO4)3
_chemical_formula_sum   'Li8 Mn8 S12 O48'
_cell_volume   997.64721371
_cell_formula_units_Z   4
loop_
 _symmetry_equiv_pos_site_id
 _symmetry_equiv_pos_as_xyz
  1  'x, y, z'
loop_
 _atom_site_type_symbol
 _atom_site_label
 _atom_site_symmetry_multiplicity
 _atom_site_fract_x
 _atom_site_fract_y
 _atom_site_fract_z
 _atom_site_occupancy
  Li  Li0  1  0.21592700  0.27774400  0.18121800  1
  Li  Li1  1  0.78407300  0.77774400  0.18121800  1
  Li  Li2  1  0.28407300  0.77774400  0.31878200  1
  Li  Li3  1  0.71592700  0.27774400  0.31878200  1
  Li  Li4  1  0.28407300  0.72225600  0.68121800  1
  Li  Li5  1  0.71592700  0.22225600  0.68121800  1
  Li  Li6  1  0.21592700  0.22225600  0.81878200  1
  Li  Li7  1  0.78407300  0.72225600  0.81878200  1
  Mn  Mn0  1  0.25246800  0.95894300  0.10923800  1
  Mn  Mn1  1  0.74753200  0.45894300  0.10923800  1
  Mn  Mn2  1  0.75246800  0.95894300  0.39076200  1
  Mn  Mn3  1  0.24753200  0.45894300  0.39076200  1
  Mn  Mn4  1  0.24753200  0.04105700  0.60923800  1
  Mn  Mn5  1  0.75246800  0.54105700  0.60923800  1
  Mn  Mn6  1  0.25246800  0.54105700  0.89076200  1
  Mn  Mn7  1  0.74753200  0.04105700  0.89076200  1
  S  S0  1  0.45267700  0.25000000  0.00000000  1
  S  S1  1  0.54732300  0.75000000  0.00000000  1
  S  S2  1  0.10236000  0.60571500  0.14751900  1
  S  S3  1  0.89764000  0.10571500  0.14751900  1
  S  S4  1  0.39764000  0.10571500  0.35248100  1
  S  S5  1  0.60236000  0.60571500  0.35248100  1
  S  S6  1  0.04732300  0.75000000  0.50000000  1
  S  S7  1  0.95267700  0.25000000  0.50000000  1
  S  S8  1  0.39764000  0.39428500  0.64751900  1
  S  S9  1  0.60236000  0.89428500  0.64751900  1
  S  S10  1  0.10236000  0.89428500  0.85248100  1
  S  S11  1  0.89764000  0.39428500  0.85248100  1
  O  O0  1  0.13605500  0.57861000  0.03546200  1
  O  O1  1  0.86394500  0.07861000  0.03546200  1
  O  O2  1  0.54472100  0.36189800  0.05507000  1
  O  O3  1  0.45527900  0.86189800  0.05507000  1
  O  O4  1  0.35123300  0.17675900  0.08020900  1
  O  O5  1  0.64876700  0.67675900  0.08020900  1
  O  O6  1  0.06670500  0.11432800  0.16300500  1
  O  O7  1  0.93329500  0.61432800  0.16300500  1
  O  O8  1  0.17165700  0.74900900  0.18349700  1
  O  O9  1  0.82834300  0.24900900  0.18349700  1
  O  O10  1  0.83538300  0.98263500  0.21444100  1
  O  O11  1  0.16461700  0.48263500  0.21444100  1
  O  O12  1  0.33538300  0.98263500  0.28555900  1
  O  O13  1  0.66461700  0.48263500  0.28555900  1
  O  O14  1  0.67165700  0.74900900  0.31650300  1
  O  O15  1  0.32834300  0.24900900  0.31650300  1
  O  O16  1  0.43329500  0.61432800  0.33699500  1
  O  O17  1  0.56670500  0.11432800  0.33699500  1
  O  O18  1  0.14876700  0.67675900  0.41979100  1
  O  O19  1  0.85123300  0.17675900  0.41979100  1
  O  O20  1  0.04472100  0.36189800  0.44493000  1
  O  O21  1  0.95527900  0.86189800  0.44493000  1
  O  O22  1  0.63605500  0.57861000  0.46453800  1
  O  O23  1  0.36394500  0.07861000  0.46453800  1
  O  O24  1  0.36394500  0.42139000  0.53546200  1
  O  O25  1  0.63605500  0.92139000  0.53546200  1
  O  O26  1  0.04472100  0.13810200  0.55507000  1
  O  O27  1  0.95527900  0.63810200  0.55507000  1
  O  O28  1  0.14876700  0.82324100  0.58020900  1
  O  O29  1  0.85123300  0.32324100  0.58020900  1
  O  O30  1  0.43329500  0.88567200  0.66300500  1
  O  O31  1  0.56670500  0.38567200  0.66300500  1
  O  O32  1  0.32834300  0.25099100  0.68349700  1
  O  O33  1  0.67165700  0.75099100  0.68349700  1
  O  O34  1  0.33538300  0.51736500  0.71444100  1
  O  O35  1  0.66461700  0.01736500  0.71444100  1
  O  O36  1  0.16461700  0.01736500  0.78555900  1
  O  O37  1  0.83538300  0.51736500  0.78555900  1
  O  O38  1  0.17165700  0.75099100  0.81650300  1
  O  O39  1  0.82834300  0.25099100  0.81650300  1
  O  O40  1  0.06670500  0.38567200  0.83699500  1
  O  O41  1  0.93329500  0.88567200  0.83699500  1
  O  O42  1  0.35123300  0.32324100  0.91979100  1
  O  O43  1  0.64876700  0.82324100  0.91979100  1
  O  O44  1  0.45527900  0.63810200  0.94493000  1
  O  O45  1  0.54472100  0.13810200  0.94493000  1
  O  O46  1  0.13605500  0.92139000  0.96453800  1
  O  O47  1  0.86394500  0.42139000  0.96453800  1
loop_
_geom_bond_atom_site_label_1
_geom_bond_atom_site_label_2
_geom_bond_distance
_geom_bond_site_symmetry_2
Li0 O11 1.948423 1_555
Li0 O4 1.964665 1_555
Li0 O6 1.984954 1_555
Li0 O15 1.986851 1_555
Li1 O10 1.948423 1_555
Li1 O5 1.964665 1_555
Li1 O7 1.984954 1_555
Li1 O14 1.986851 1_555
Li2 O12 1.948423 1_555
Li2 O18 1.964665 1_555
Li2 O16 1.984954 1_555
Li2 O8 1.986851 1_555
Li3 O13 1.948423 1_555
Li3 O19 1.964665 1_555
Li3 O17 1.984954 1_555
Li3 O9 1.986851 1_555
Li4 O34 1.948423 1_555
Li4 O28 1.964665 1_555
Li4 O30 1.984954 1_555
Li4 O38 1.986851 1_555
Li5 O35 1.948423 1_555
Li5 O29 1.964665 1_555
Li5 O31 1.984954 1_555
Li5 O39 1.986851 1_555
Li6 O36 1.948423 1_555
Li6 O42 1.964665 1_555
Li6 O40 1.984954 1_555
Li6 O32 1.986851 1_555
Li7 O37 1.948423 1_555
Li7 O43 1.964665 1_555
Li7 O41 1.984954 1_555
Li7 O33 1.986851 1_555
Mn0 O3 2.096898 1_555
Mn0 O46 2.117642 1_554
Mn0 O4 2.178889 1_565
Mn0 O8 2.228762 1_555
Mn0 O6 2.253833 1_565
Mn0 O12 2.348348 1_555
Mn1 O2 2.096898 1_555
Mn1 O47 2.117642 1_554
Mn1 O5 2.178889 1_555
Mn1 O9 2.228762 1_555
Mn1 O7 2.253833 1_555
Mn1 O13 2.348348 1_555
Mn2 O21 2.096898 1_555
Mn2 O25 2.117642 1_555
Mn2 O19 2.178889 1_565
Mn2 O14 2.228762 1_555
Mn2 O17 2.253833 1_565
Mn2 O10 2.348348 1_555
Mn3 O20 2.096898 1_555
Mn3 O24 2.117642 1_555
Mn3 O18 2.178889 1_555
Mn3 O15 2.228762 1_555
Mn3 O16 2.253833 1_555
Mn3 O11 2.348348 1_555
Mn4 O26 2.096898 1_555
Mn4 O23 2.117642 1_555
Mn4 O28 2.178889 1_545
Mn4 O32 2.228762 1_555
Mn4 O30 2.253833 1_545
Mn4 O36 2.348348 1_555
Mn5 O27 2.096898 1_555
Mn5 O22 2.117642 1_555
Mn5 O29 2.178889 1_555
Mn5 O33 2.228762 1_555
Mn5 O31 2.253833 1_555
Mn5 O37 2.348348 1_555
Mn6 O44 2.096898 1_555
Mn6 O0 2.117642 1_556
Mn6 O42 2.178889 1_555
Mn6 O38 2.228762 1_555
Mn6 O40 2.253833 1_555
Mn6 O34 2.348348 1_555
Mn7 O45 2.096898 1_555
Mn7 O1 2.117642 1_556
Mn7 O43 2.178889 1_545
Mn7 O39 2.228762 1_555
Mn7 O41 2.253833 1_545
Mn7 O35 2.348348 1_555
O0 S2 1.463726 1_555
O1 S3 1.463726 1_555
O2 S0 1.467369 1_555
O3 S1 1.467369 1_555
O4 S0 1.500229 1_555
O5 S1 1.500229 1_555
O6 S3 1.497569 1_455
O7 S2 1.497569 1_655
O8 S2 1.499024 1_555
O9 S3 1.499024 1_555
O10 S3 1.497783 1_565
O11 S2 1.497783 1_555
O12 S4 1.497783 1_565
O13 S5 1.497783 1_555
O14 S5 1.499024 1_555
O15 S4 1.499024 1_555
O16 S5 1.497569 1_555
O17 S4 1.497569 1_555
O18 S6 1.500229 1_555
O19 S7 1.500229 1_555
O20 S7 1.467369 1_455
O21 S6 1.467369 1_655
O22 S5 1.463726 1_555
O23 S4 1.463726 1_555
O24 S8 1.463726 1_555
O25 S9 1.463726 1_555
O26 S7 1.467369 1_455
O27 S6 1.467369 1_655
O28 S6 1.500229 1_555
O29 S7 1.500229 1_555
O30 S9 1.497569 1_555
O31 S8 1.497569 1_555
O32 S8 1.499024 1_555
O33 S9 1.499024 1_555
O34 S8 1.497783 1_555
O35 S9 1.497783 1_545
O36 S10 1.497783 1_545
O37 S11 1.497783 1_555
O38 S10 1.499024 1_555
O39 S11 1.499024 1_555
O40 S11 1.497569 1_455
O41 S10 1.497569 1_655
O42 S0 1.500229 1_556
O43 S1 1.500229 1_556
O44 S1 1.467369 1_556
O45 S0 1.467369 1_556
O46 S10 1.463726 1_555
O47 S11 1.463726 1_555
