# generated using pymatgen
data_Li7V7(P4O17)2
_symmetry_space_group_name_H-M   'P 1'
_cell_length_a   20.04290000
_cell_length_b   8.07074600
_cell_length_c   10.19906230
_cell_angle_alpha   66.98582295
_cell_angle_beta   90.00000000
_cell_angle_gamma   90.00000000
_symmetry_Int_Tables_number   1
_chemical_formula_structural   Li7V7(P4O17)2
_chemical_formula_sum   'Li14 V14 P16 O68'
_cell_volume   1518.50049036
_cell_formula_units_Z   2
loop_
 _symmetry_equiv_pos_site_id
 _symmetry_equiv_pos_as_xyz
  1  'x, y, z'
loop_
 _atom_site_type_symbol
 _atom_site_label
 _atom_site_symmetry_multiplicity
 _atom_site_fract_x
 _atom_site_fract_y
 _atom_site_fract_z
 _atom_site_occupancy
  Li  Li0  1  0.00000000  0.50000000  0.50000000  1
  Li  Li1  1  0.36346500  0.38538100  0.84889000  1
  Li  Li2  1  0.50000000  0.00000000  0.00000000  1
  Li  Li3  1  0.13653500  0.88538100  0.34889000  1
  Li  Li4  1  0.94978400  0.64053100  0.81320200  1
  Li  Li5  1  0.24202800  0.63797100  0.69356300  1
  Li  Li6  1  0.74202800  0.86202900  0.80643700  1
  Li  Li7  1  0.55021600  0.14053100  0.31320200  1
  Li  Li8  1  0.44978400  0.85946900  0.68679800  1
  Li  Li9  1  0.25797200  0.13797100  0.19356300  1
  Li  Li10  1  0.75797200  0.36202900  0.30643700  1
  Li  Li11  1  0.05021600  0.35946900  0.18679800  1
  Li  Li12  1  0.86346500  0.11461900  0.65111000  1
  Li  Li13  1  0.63653500  0.61461900  0.15111000  1
  V  V0  1  0.66511300  0.07392200  0.95246200  1
  V  V1  1  0.07857400  0.21522000  0.88786200  1
  V  V2  1  0.83488700  0.57392200  0.45246200  1
  V  V3  1  0.42142600  0.71522000  0.38786200  1
  V  V4  1  0.64338400  0.48399400  0.79774700  1
  V  V5  1  0.85661600  0.98399400  0.29774700  1
  V  V6  1  0.00000000  0.00000000  0.50000000  1
  V  V7  1  0.14338400  0.01600600  0.70225300  1
  V  V8  1  0.50000000  0.50000000  0.00000000  1
  V  V9  1  0.35661600  0.51600600  0.20225300  1
  V  V10  1  0.57857400  0.28478000  0.61213800  1
  V  V11  1  0.16511300  0.42607800  0.54753800  1
  V  V12  1  0.92142600  0.78478000  0.11213800  1
  V  V13  1  0.33488700  0.92607800  0.04753800  1
  P  P0  1  0.72839900  0.30023700  0.64560600  1
  P  P1  1  0.49123400  0.50178300  0.68245500  1
  P  P2  1  0.77160100  0.80023700  0.14560600  1
  P  P3  1  0.08319800  0.64147500  0.69475000  1
  P  P4  1  0.85009300  0.79817600  0.59324700  1
  P  P5  1  0.00876600  0.00178300  0.18245500  1
  P  P6  1  0.41680200  0.14147500  0.19475000  1
  P  P7  1  0.35009300  0.70182400  0.90675300  1
  P  P8  1  0.64990700  0.29817600  0.09324700  1
  P  P9  1  0.58319800  0.85852500  0.80525000  1
  P  P10  1  0.99123400  0.99821700  0.81754500  1
  P  P11  1  0.14990700  0.20182400  0.40675300  1
  P  P12  1  0.91680200  0.35852500  0.30525000  1
  P  P13  1  0.22839900  0.19976300  0.85439400  1
  P  P14  1  0.50876600  0.49821700  0.31754500  1
  P  P15  1  0.27160100  0.69976300  0.35439400  1
  O  O0  1  0.29690600  0.18280200  0.93191400  1
  O  O1  1  0.17280000  0.20625800  0.95754500  1
  O  O2  1  0.60956100  0.25314100  0.80709900  1
  O  O3  1  0.23027900  0.38011900  0.71802200  1
  O  O4  1  0.48274700  0.34337500  0.63333100  1
  O  O5  1  0.20309400  0.68280200  0.43191400  1
  O  O6  1  0.32720000  0.70625800  0.45754500  1
  O  O7  1  0.70090600  0.30354600  0.97207300  1
  O  O8  1  0.89043900  0.75314100  0.30709900  1
  O  O9  1  0.88104800  0.60830400  0.64958200  1
  O  O10  1  0.26972100  0.88011900  0.21802200  1
  O  O11  1  0.01725300  0.84337500  0.13333100  1
  O  O12  1  0.71985800  0.47406800  0.67592300  1
  O  O13  1  0.08830500  0.58295400  0.56477400  1
  O  O14  1  0.06756900  0.48098900  0.83563100  1
  O  O15  1  0.46930200  0.42490700  0.84212300  1
  O  O16  1  0.56652500  0.55698400  0.65505400  1
  O  O17  1  0.44673400  0.66644600  0.60029400  1
  O  O18  1  0.59733400  0.44073500  0.99450900  1
  O  O19  1  0.79909400  0.80354600  0.47207300  1
  O  O20  1  0.01918700  0.75993800  0.66252300  1
  O  O21  1  0.61895200  0.10830400  0.14958200  1
  O  O22  1  0.78014200  0.97406800  0.17592300  1
  O  O23  1  0.41169500  0.08295400  0.06477400  1
  O  O24  1  0.43243100  0.98098900  0.33563100  1
  O  O25  1  0.03069800  0.92490700  0.34212300  1
  O  O26  1  0.93347500  0.05698400  0.15505400  1
  O  O27  1  0.05326600  0.16644600  0.10029400  1
  O  O28  1  0.90266600  0.94073500  0.49450900  1
  O  O29  1  0.32148000  0.63367300  0.80066100  1
  O  O30  1  0.64767000  0.75713300  0.79432100  1
  O  O31  1  0.14767000  0.74286700  0.70567900  1
  O  O32  1  0.82148000  0.86632700  0.69933900  1
  O  O33  1  0.51918700  0.74006200  0.83747700  1
  O  O34  1  0.48081300  0.25993800  0.16252300  1
  O  O35  1  0.17852000  0.13367300  0.30066100  1
  O  O36  1  0.85233000  0.25713300  0.29432100  1
  O  O37  1  0.35233000  0.24286700  0.20567900  1
  O  O38  1  0.67852000  0.36632700  0.19933900  1
  O  O39  1  0.09733400  0.05926500  0.50549100  1
  O  O40  1  0.94673400  0.83355400  0.89970600  1
  O  O41  1  0.06652500  0.94301600  0.84494600  1
  O  O42  1  0.96930200  0.07509300  0.65787700  1
  O  O43  1  0.56756900  0.01901100  0.66436900  1
  O  O44  1  0.58830500  0.91704600  0.93522600  1
  O  O45  1  0.21985800  0.02593200  0.82407700  1
  O  O46  1  0.38104800  0.89169600  0.85041800  1
  O  O47  1  0.98081300  0.24006200  0.33747700  1
  O  O48  1  0.20090600  0.19645400  0.52792700  1
  O  O49  1  0.40266600  0.55926500  0.00549100  1
  O  O50  1  0.55326600  0.33355400  0.39970600  1
  O  O51  1  0.43347500  0.44301600  0.34494600  1
  O  O52  1  0.53069800  0.57509300  0.15787700  1
  O  O53  1  0.93243100  0.51901100  0.16436900  1
  O  O54  1  0.91169500  0.41704600  0.43522600  1
  O  O55  1  0.28014200  0.52593200  0.32407700  1
  O  O56  1  0.98274700  0.15662500  0.86666900  1
  O  O57  1  0.73027900  0.11988100  0.78197800  1
  O  O58  1  0.11895200  0.39169600  0.35041800  1
  O  O59  1  0.10956100  0.24685900  0.69290100  1
  O  O60  1  0.29909400  0.69645400  0.02792700  1
  O  O61  1  0.67280000  0.29374200  0.54245500  1
  O  O62  1  0.79690600  0.31719800  0.56808600  1
  O  O63  1  0.51725300  0.65662500  0.36666900  1
  O  O64  1  0.76972100  0.61988100  0.28197800  1
  O  O65  1  0.39043900  0.74685900  0.19290100  1
  O  O66  1  0.82720000  0.79374200  0.04245500  1
  O  O67  1  0.70309400  0.81719800  0.06808600  1
loop_
_geom_bond_atom_site_label_1
_geom_bond_atom_site_label_2
_geom_bond_distance
_geom_bond_site_symmetry_2
Li0 O13 2.088782 1_555
Li0 O54 2.088782 1_455
Li1 O0 2.021697 1_555
Li1 O29 2.048162 1_555
Li1 O15 2.142228 1_555
Li2 O23 2.088782 1_555
Li2 O44 2.088782 1_544
Li3 O5 2.021697 1_555
Li3 O35 2.048162 1_565
Li3 O25 2.142228 1_555
Li4 O20 2.016778 1_655
Li4 O40 2.069702 1_555
Li4 O9 2.256059 1_555
Li5 O29 1.923691 1_555
Li5 O3 2.010612 1_555
Li5 O31 2.095340 1_555
Li6 O32 1.923691 1_555
Li6 O57 2.010612 1_565
Li6 O30 2.095340 1_555
Li7 O34 2.016778 1_555
Li7 O50 2.069702 1_555
Li7 O21 2.256059 1_555
Li8 O33 2.016778 1_555
Li8 O17 2.069702 1_555
Li8 O46 2.256059 1_555
Li9 O35 1.923691 1_555
Li9 O10 2.010612 1_545
Li9 O37 2.095340 1_555
Li10 O38 1.923691 1_555
Li10 O64 2.010612 1_555
Li10 O36 2.095340 1_555
Li11 O47 2.016778 1_455
Li11 O27 2.069702 1_555
Li11 O58 2.256059 1_555
Li12 O62 2.021697 1_555
Li12 O32 2.048162 1_545
Li12 O42 2.142228 1_555
Li13 O67 2.021697 1_555
Li13 O38 2.048162 1_555
Li13 O52 2.142228 1_555
O0 P13 1.563508 1_555
O0 V13 2.086296 1_546
O1 P13 1.547409 1_555
O1 V1 2.009179 1_555
O2 V4 1.949630 1_555
O2 V0 1.962934 1_555
O2 V10 2.001931 1_555
O3 P13 1.572160 1_555
O3 V11 2.088676 1_555
O4 P1 1.554120 1_555
O4 V10 2.009773 1_555
O5 P15 1.563508 1_555
O5 V11 2.086296 1_555
O6 P15 1.547409 1_555
O6 V3 2.009179 1_555
O7 P8 1.591282 1_556
O7 V0 2.068571 1_555
O7 V4 2.141647 1_555
O8 V5 1.949630 1_555
O8 V2 1.962934 1_555
O8 V12 2.001931 1_555
O9 P4 1.541064 1_555
O9 V2 2.326171 1_555
O10 P15 1.572160 1_555
O10 V13 2.088676 1_555
O11 P5 1.554120 1_565
O11 V12 2.009773 1_455
O12 P0 1.559604 1_555
O12 V4 1.994338 1_555
O13 P3 1.574935 1_555
O13 V11 2.043987 1_555
O14 P3 1.544383 1_555
O14 V1 2.009928 1_555
O15 P1 1.562066 1_555
O15 V8 2.025255 1_556
O16 P1 1.567310 1_555
O16 V4 2.041504 1_555
O16 V10 2.414147 1_555
O17 P1 1.546948 1_555
O17 V3 2.107028 1_555
O18 P8 1.594443 1_556
O18 V8 2.014622 1_556
O18 V4 2.110246 1_555
O19 P4 1.591282 1_555
O19 V2 2.068571 1_555
O19 V5 2.141647 1_555
O20 P3 1.556411 1_555
O20 V6 2.034242 1_565
O21 P8 1.541064 1_555
O21 V0 2.326171 1_554
O22 P2 1.559604 1_555
O22 V5 1.994338 1_555
O23 P6 1.574935 1_555
O23 V13 2.043987 1_545
O24 P6 1.544383 1_565
O24 V3 2.009928 1_555
O25 P5 1.562066 1_565
O25 V6 2.025255 1_565
O26 P5 1.567310 1_655
O26 V5 2.041504 1_545
O26 V12 2.414147 1_545
O27 P5 1.546948 1_555
O27 V1 2.107028 1_554
O28 P4 1.594443 1_555
O28 V6 2.014622 1_665
O28 V5 2.110246 1_555
O29 P7 1.505852 1_555
O30 P9 1.556654 1_555
O30 V4 2.192694 1_555
O31 P3 1.556654 1_555
O31 V7 2.192694 1_565
O32 P4 1.505852 1_555
O33 P9 1.556411 1_555
O33 V8 2.034242 1_556
O34 P6 1.556411 1_555
O34 V8 2.034242 1_555
O35 P11 1.505852 1_555
O36 P12 1.556654 1_555
O36 V5 2.192694 1_545
O37 P6 1.556654 1_555
O37 V9 2.192694 1_555
O38 P8 1.505852 1_555
O39 P11 1.594443 1_555
O39 V6 2.014622 1_555
O39 V7 2.110246 1_555
O40 P10 1.546948 1_555
O40 V12 2.107028 1_556
O41 P10 1.567310 1_455
O41 V7 2.041504 1_565
O41 V1 2.414147 1_565
O42 P10 1.562066 1_545
O42 V6 2.025255 1_655
O43 P9 1.544383 1_545
O43 V10 2.009928 1_555
O44 P9 1.574935 1_555
O44 V0 2.043987 1_565
O45 P13 1.559604 1_555
O45 V7 1.994338 1_555
O46 P7 1.541064 1_555
O46 V13 2.326171 1_556
O47 P12 1.556411 1_555
O47 V6 2.034242 1_655
O48 P11 1.591282 1_555
O48 V11 2.068571 1_555
O48 V7 2.141647 1_555
O49 P7 1.594443 1_554
O49 V8 2.014622 1_555
O49 V9 2.110246 1_555
O50 P14 1.546948 1_555
O50 V10 2.107028 1_555
O51 P14 1.567310 1_555
O51 V9 2.041504 1_555
O51 V3 2.414147 1_555
O52 P14 1.562066 1_555
O52 V8 2.025255 1_555
O53 P12 1.544383 1_555
O53 V12 2.009928 1_555
O54 P12 1.574935 1_555
O54 V2 2.043987 1_555
O55 P15 1.559604 1_555
O55 V9 1.994338 1_555
O56 P10 1.554120 1_545
O56 V1 2.009773 1_655
O57 P0 1.572160 1_555
O57 V0 2.088676 1_555
O58 P11 1.541064 1_555
O58 V11 2.326171 1_555
O59 V7 1.949630 1_555
O59 V11 1.962934 1_555
O59 V1 2.001931 1_555
O60 P7 1.591282 1_554
O60 V13 2.068571 1_555
O60 V9 2.141647 1_555
O61 P0 1.547409 1_555
O61 V10 2.009179 1_555
O62 P0 1.563508 1_555
O62 V2 2.086296 1_555
O63 P14 1.554120 1_555
O63 V3 2.009773 1_555
O64 P2 1.572160 1_555
O64 V2 2.088676 1_555
O65 V9 1.949630 1_555
O65 V13 1.962934 1_555
O65 V3 2.001931 1_555
O66 P2 1.547409 1_555
O66 V12 2.009179 1_555
O67 P2 1.563508 1_555
O67 V0 2.086296 1_564
