# generated using pymatgen
data_P5(WO6)4
_symmetry_space_group_name_H-M   'P 1'
_cell_length_a   9.59852175
_cell_length_b   9.59852175
_cell_length_c   15.42235003
_cell_angle_alpha   64.09022320
_cell_angle_beta   64.09022320
_cell_angle_gamma   52.68197413
_symmetry_Int_Tables_number   1
_chemical_formula_structural   P5(WO6)4
_chemical_formula_sum   'P10 W8 O48'
_cell_volume   986.58319658
_cell_formula_units_Z   2
loop_
 _symmetry_equiv_pos_site_id
 _symmetry_equiv_pos_as_xyz
  1  'x, y, z'
loop_
 _atom_site_type_symbol
 _atom_site_label
 _atom_site_symmetry_multiplicity
 _atom_site_fract_x
 _atom_site_fract_y
 _atom_site_fract_z
 _atom_site_occupancy
  P  P0  1  0.81672000  0.16342200  0.89546300  1
  P  P1  1  0.83945700  0.18065600  0.60265500  1
  P  P2  1  0.24695800  0.26415700  0.03987000  1
  P  P3  1  0.26415700  0.24695800  0.53987000  1
  P  P4  1  0.59859700  0.40221000  0.24963500  1
  P  P5  1  0.40221000  0.59859700  0.74963500  1
  P  P6  1  0.73913400  0.74995000  0.46014900  1
  P  P7  1  0.74995000  0.73913400  0.96014900  1
  P  P8  1  0.18065600  0.83945700  0.10265500  1
  P  P9  1  0.16342200  0.81672000  0.39546300  1
  W  W0  1  0.85407100  0.47292700  0.68115100  1
  W  W1  1  0.52197900  0.15077400  0.81803200  1
  W  W2  1  0.10049500  0.70851900  0.97928000  1
  W  W3  1  0.29306400  0.90184700  0.51775200  1
  W  W4  1  0.90184700  0.29306400  0.01775200  1
  W  W5  1  0.70851900  0.10049500  0.47928000  1
  W  W6  1  0.47292700  0.85407100  0.18115100  1
  W  W7  1  0.15077400  0.52197900  0.31803200  1
  O  O0  1  0.42236500  0.41250700  0.77279600  1
  O  O1  1  0.74566100  0.26291100  0.97425000  1
  O  O2  1  0.74206000  0.24663100  0.52007200  1
  O  O3  1  0.66895700  0.15563000  0.88896200  1
  O  O4  1  0.84502300  0.33372300  0.60422900  1
  O  O5  1  0.72786700  0.11969600  0.70404700  1
  O  O6  1  0.89380600  0.25871100  0.79132400  1
  O  O7  1  0.14332000  0.39922700  0.26710600  1
  O  O8  1  0.05156900  0.28778500  0.90161900  1
  O  O9  1  0.11850900  0.35331400  0.62067900  1
  O  O10  1  0.18693900  0.34671300  0.44656800  1
  O  O11  1  0.25115400  0.43734500  0.01372200  1
  O  O12  1  0.98224000  0.96892100  0.91712600  1
  O  O13  1  0.02312500  0.01171000  0.58485400  1
  O  O14  1  0.41250700  0.42236500  0.27279600  1
  O  O15  1  0.43734500  0.25115400  0.51372200  1
  O  O16  1  0.34671300  0.18693900  0.94656800  1
  O  O17  1  0.35331400  0.11850900  0.12067900  1
  O  O18  1  0.28778500  0.05156900  0.40161900  1
  O  O19  1  0.39922700  0.14332000  0.76710600  1
  O  O20  1  0.30689200  0.05296500  0.57603200  1
  O  O21  1  0.94697000  0.69953000  0.92634700  1
  O  O22  1  0.71731000  0.32614000  0.15883700  1
  O  O23  1  0.67782500  0.28351300  0.34087900  1
  O  O24  1  0.28351300  0.67782500  0.84087900  1
  O  O25  1  0.32614000  0.71731000  0.65883700  1
  O  O26  1  0.69953000  0.94697000  0.42634700  1
  O  O27  1  0.05296500  0.30689200  0.07603200  1
  O  O28  1  0.59655900  0.85671600  0.23375100  1
  O  O29  1  0.71370000  0.95153100  0.59468800  1
  O  O30  1  0.65036900  0.88770500  0.87701400  1
  O  O31  1  0.65315600  0.81628900  0.05358700  1
  O  O32  1  0.57440300  0.74195700  0.48104900  1
  O  O33  1  0.01171000  0.02312500  0.08485400  1
  O  O34  1  0.96892100  0.98224000  0.41712600  1
  O  O35  1  0.59269800  0.56658900  0.72992900  1
  O  O36  1  0.74195700  0.57440300  0.98104900  1
  O  O37  1  0.81628900  0.65315600  0.55358700  1
  O  O38  1  0.88770500  0.65036900  0.37701400  1
  O  O39  1  0.95153100  0.71370000  0.09468800  1
  O  O40  1  0.85671600  0.59655900  0.73375100  1
  O  O41  1  0.25871100  0.89380600  0.29132400  1
  O  O42  1  0.11969600  0.72786700  0.20404700  1
  O  O43  1  0.33372300  0.84502300  0.10422900  1
  O  O44  1  0.15563000  0.66895700  0.38896200  1
  O  O45  1  0.24663100  0.74206000  0.02007200  1
  O  O46  1  0.26291100  0.74566100  0.47425000  1
  O  O47  1  0.56658900  0.59269800  0.22992900  1
loop_
_geom_bond_atom_site_label_1
_geom_bond_atom_site_label_2
_geom_bond_distance
_geom_bond_site_symmetry_2
O0 P5 1.561835 1_555
O0 W1 1.962431 1_555
O1 P0 1.534144 1_555
O1 W4 2.087124 1_556
O2 P1 1.585877 1_555
O2 W5 1.990648 1_555
O3 P0 1.512177 1_555
O3 W1 2.159174 1_555
O4 P1 1.513114 1_555
O4 W0 2.194577 1_555
O5 P1 1.559293 1_555
O5 W1 1.947360 1_555
O6 P0 1.569002 1_555
O6 W0 1.955150 1_555
O7 W7 1.723438 1_555
O8 W4 1.737045 1_456
O9 P3 1.551961 1_555
O9 W0 1.991019 1_455
O10 P3 1.550547 1_555
O10 W7 1.964477 1_555
O11 P2 1.552028 1_555
O11 W2 2.011849 1_554
O12 P0 1.563211 1_565
O12 W2 1.967675 1_655
O13 P1 1.520801 1_455
O13 W3 2.047907 1_545
O14 P4 1.561835 1_555
O14 W7 1.962431 1_555
O15 P3 1.552028 1_555
O15 W5 2.011849 1_555
O16 P2 1.550547 1_556
O16 W1 1.964477 1_555
O17 P2 1.551961 1_555
O17 W6 1.991019 1_545
O18 W3 1.737045 1_545
O19 W1 1.723438 1_555
O20 P3 1.520793 1_555
O20 W3 2.099166 1_545
O21 P7 1.559661 1_555
O21 W2 2.027912 1_655
O22 P4 1.510876 1_555
O22 W4 2.127525 1_555
O23 P4 1.529758 1_555
O23 W5 2.091401 1_555
O24 P5 1.529758 1_555
O24 W2 2.091401 1_555
O25 P5 1.510876 1_555
O25 W3 2.127525 1_555
O26 P6 1.559661 1_555
O26 W5 2.027912 1_565
O27 P2 1.520793 1_555
O27 W4 2.099166 1_455
O28 W6 1.721261 1_555
O29 W5 1.726825 1_565
O30 P7 1.552921 1_555
O30 W1 1.980286 1_565
O31 P7 1.554534 1_554
O31 W6 1.970583 1_555
O32 P6 1.513266 1_555
O32 W3 2.089612 1_555
O33 P8 1.520801 1_545
O33 W4 2.047907 1_455
O34 P9 1.563211 1_655
O34 W5 1.967675 1_565
O35 P5 1.563554 1_555
O35 W0 1.968557 1_555
O36 P7 1.513266 1_555
O36 W4 2.089612 1_556
O37 P6 1.554534 1_555
O37 W0 1.970583 1_555
O38 P6 1.552921 1_555
O38 W7 1.980286 1_655
O39 W2 1.726825 1_654
O40 W0 1.721261 1_555
O41 P9 1.569002 1_555
O41 W6 1.955150 1_555
O42 P8 1.559293 1_555
O42 W7 1.947360 1_555
O43 P8 1.513114 1_555
O43 W6 2.194577 1_555
O44 P9 1.512177 1_555
O44 W7 2.159174 1_555
O45 P8 1.585877 1_555
O45 W2 1.990648 1_554
O46 P9 1.534144 1_555
O46 W3 2.087124 1_555
O47 P4 1.563554 1_555
O47 W6 1.968557 1_555
