# generated using pymatgen
data_Li10Sn(PO6)2
_symmetry_space_group_name_H-M   'P 1'
_cell_length_a   6.83684700
_cell_length_b   7.51186008
_cell_length_c   10.99537776
_cell_angle_alpha   90.08733316
_cell_angle_beta   90.27651732
_cell_angle_gamma   90.64911882
_symmetry_Int_Tables_number   1
_chemical_formula_structural   Li10Sn(PO6)2
_chemical_formula_sum   'Li20 Sn2 P4 O24'
_cell_volume   564.65091246
_cell_formula_units_Z   2
loop_
 _symmetry_equiv_pos_site_id
 _symmetry_equiv_pos_as_xyz
  1  'x, y, z'
loop_
 _atom_site_type_symbol
 _atom_site_label
 _atom_site_symmetry_multiplicity
 _atom_site_fract_x
 _atom_site_fract_y
 _atom_site_fract_z
 _atom_site_occupancy
  Li  Li0  1  0.45986200  0.93730000  0.90426600  1
  Li  Li1  1  0.44402300  0.92224400  0.43018300  1
  Li  Li2  1  0.04879800  0.57234200  0.54227600  1
  Li  Li3  1  0.01871200  0.45294000  0.06351400  1
  Li  Li4  1  0.69940300  0.35470100  0.19570500  1
  Li  Li5  1  0.34136100  0.60902400  0.25424900  1
  Li  Li6  1  0.04515900  0.08244200  0.76857500  1
  Li  Li7  1  0.23727800  0.21889600  0.30435600  1
  Li  Li8  1  0.77803300  0.76897400  0.34848100  1
  Li  Li9  1  0.50734200  0.48372100  0.75884200  1
  Li  Li10  1  0.69112300  0.21888700  0.39070900  1
  Li  Li11  1  0.76250400  0.80770300  0.89671700  1
  Li  Li12  1  0.26152700  0.21002300  0.97933200  1
  Li  Li13  1  0.87785100  0.75644800  0.09777500  1
  Li  Li14  1  0.26731200  0.77144700  0.65660800  1
  Li  Li15  1  0.75552500  0.17080700  0.93231600  1
  Li  Li16  1  0.23494900  0.74701100  0.99668900  1
  Li  Li17  1  0.25933100  0.29797200  0.56551800  1
  Li  Li18  1  0.75700200  0.75002300  0.63122300  1
  Li  Li19  1  0.76874600  0.31786000  0.60452700  1
  Sn  Sn0  1  0.51941600  0.98082000  0.16158600  1
  Sn  Sn1  1  0.01583800  0.49441200  0.80299600  1
  P  P0  1  0.01016600  0.01187100  0.50348100  1
  P  P1  1  0.51170700  0.51416100  0.99950700  1
  P  P2  1  0.51282900  0.02393000  0.68529400  1
  P  P3  1  0.99831700  0.48186300  0.32076600  1
  O  O0  1  0.82847900  0.00762500  0.41881500  1
  O  O1  1  0.20174400  0.04735500  0.43366300  1
  O  O2  1  0.51474500  0.33506900  0.92798900  1
  O  O3  1  0.50152900  0.66987100  0.90462300  1
  O  O4  1  0.32155200  0.52233700  0.07838800  1
  O  O5  1  0.69679500  0.53344400  0.08054500  1
  O  O6  1  0.99216800  0.16467900  0.60025400  1
  O  O7  1  0.01754200  0.82715500  0.57112100  1
  O  O8  1  0.73525800  0.96285900  0.04220000  1
  O  O9  1  0.29931900  0.98002700  0.04424700  1
  O  O10  1  0.52242800  0.20251400  0.61489000  1
  O  O11  1  0.51767900  0.86227400  0.59493800  1
  O  O12  1  0.19133800  0.45966900  0.39634800  1
  O  O13  1  0.82008000  0.47455500  0.40986300  1
  O  O14  1  0.01741900  0.27186600  0.90027800  1
  O  O15  1  0.99898900  0.68355600  0.92783300  1
  O  O16  1  0.31760700  0.00282100  0.75685300  1
  O  O17  1  0.68491600  0.00227900  0.77901200  1
  O  O18  1  0.51893500  0.79348500  0.28789700  1
  O  O19  1  0.51117500  0.20361100  0.26013200  1
  O  O20  1  0.78116000  0.52344300  0.69790200  1
  O  O21  1  0.23020500  0.51581200  0.68032300  1
  O  O22  1  0.00466400  0.66462700  0.25398100  1
  O  O23  1  0.98305800  0.32864200  0.22561400  1
loop_
_geom_bond_atom_site_label_1
_geom_bond_atom_site_label_2
_geom_bond_distance
_geom_bond_site_symmetry_2
Li0 O9 1.923410 1_556
Li0 O16 1.952794 1_565
Li0 O3 2.032187 1_555
Li0 O17 2.123190 1_565
Li0 O8 2.417746 1_556
Li1 O18 1.913058 1_555
Li1 O1 1.914219 1_565
Li1 O11 1.933142 1_555
Li2 O7 1.954017 1_555
Li2 O21 2.004553 1_555
Li2 O12 2.066454 1_555
Li2 O13 2.247942 1_455
Li2 O20 2.535369 1_455
Li3 O23 2.027835 1_455
Li3 O4 2.134799 1_555
Li3 O14 2.250293 1_554
Li3 O15 2.292624 1_454
Li3 O5 2.297501 1_455
Li4 O5 1.847155 1_555
Li4 O19 1.850463 1_555
Li4 O23 1.977376 1_555
Li5 O18 1.867294 1_555
Li5 O4 2.042804 1_555
Li5 O12 2.178691 1_555
Li5 O22 2.344173 1_555
Li6 O16 1.967552 1_555
Li6 O6 1.985005 1_455
Li6 O14 2.039666 1_555
Li6 O17 2.532019 1_455
Li7 O1 1.934624 1_555
Li7 O19 1.941577 1_555
Li7 O12 2.098414 1_555
Li7 O23 2.114289 1_455
Li8 O18 1.900507 1_555
Li8 O0 1.977379 1_565
Li8 O22 2.033569 1_655
Li8 O13 2.333787 1_555
Li9 O20 2.010634 1_555
Li9 O21 2.094928 1_555
Li9 O3 2.126335 1_555
Li9 O2 2.171443 1_555
Li10 O0 1.878381 1_555
Li10 O19 1.888745 1_555
Li10 O13 2.113946 1_555
Li11 O15 1.905421 1_555
Li11 O8 1.988485 1_556
Li11 O17 2.027173 1_565
Li11 O3 2.054995 1_555
Li12 O9 1.890305 1_546
Li12 O14 1.939456 1_555
Li12 O2 2.042630 1_555
Li13 O8 1.938902 1_555
Li13 O22 2.044550 1_655
Li13 O5 2.079463 1_555
Li13 O15 2.121180 1_554
Li14 O21 1.952181 1_555
Li14 O11 1.959960 1_555
Li14 O7 1.994135 1_555
Li14 O16 2.081088 1_565
Li15 O14 1.970403 1_655
Li15 O8 1.980286 1_546
Li15 O2 2.068852 1_555
Li15 O17 2.156120 1_555
Li16 O15 1.836459 1_455
Li16 O9 1.873098 1_556
Li16 O4 2.007003 1_556
Li16 O3 2.173069 1_555
Li17 O10 2.016281 1_555
Li17 O21 2.077108 1_555
Li17 O6 2.109784 1_455
Li17 O12 2.272162 1_555
Li17 O1 2.402181 1_555
Li18 O20 1.862992 1_555
Li18 O11 1.890336 1_555
Li18 O7 1.983557 1_655
Li18 O17 2.548273 1_565
Li19 O20 1.854064 1_555
Li19 O10 1.889132 1_555
Li19 O6 1.923506 1_555
Li19 O13 2.468921 1_555
O0 P0 1.548704 1_655
O1 P0 1.542187 1_555
O2 P1 1.557639 1_555
O3 P1 1.570440 1_555
O4 P1 1.568029 1_554
O5 P1 1.549450 1_554
O6 P0 1.570257 1_655
O7 P0 1.576505 1_565
O8 Sn0 1.985363 1_555
O9 Sn0 1.977368 1_555
O10 P2 1.550756 1_555
O11 P2 1.568536 1_565
O12 P3 1.566766 1_455
O13 P3 1.567751 1_555
O14 Sn1 1.986131 1_555
O15 Sn1 1.978740 1_655
O16 P2 1.559288 1_555
O17 P2 1.570249 1_555
O18 Sn0 1.978657 1_555
O19 Sn0 1.993817 1_545
O20 Sn1 1.986941 1_655
O21 Sn1 2.001892 1_555
O22 P3 1.558203 1_455
O23 P3 1.556529 1_555
