# generated using pymatgen
data_Li3V2(O2F)2
_symmetry_space_group_name_H-M   'P 1'
_cell_length_a   5.98912410
_cell_length_b   5.94444263
_cell_length_c   7.89376081
_cell_angle_alpha   98.91801981
_cell_angle_beta   67.72704241
_cell_angle_gamma   120.24153323
_symmetry_Int_Tables_number   1
_chemical_formula_structural   Li3V2(O2F)2
_chemical_formula_sum   'Li6 V4 O8 F4'
_cell_volume   224.44682946
_cell_formula_units_Z   2
loop_
 _symmetry_equiv_pos_site_id
 _symmetry_equiv_pos_as_xyz
  1  'x, y, z'
loop_
 _atom_site_type_symbol
 _atom_site_label
 _atom_site_symmetry_multiplicity
 _atom_site_fract_x
 _atom_site_fract_y
 _atom_site_fract_z
 _atom_site_occupancy
  Li  Li0  1  0.16993500  0.69077900  0.37545300  1
  Li  Li1  1  0.33009500  0.30925700  0.62456700  1
  Li  Li2  1  0.64506900  0.69073400  0.37557400  1
  Li  Li3  1  0.85751300  0.85442500  0.63958200  1
  Li  Li4  1  0.64250300  0.14559800  0.36042300  1
  Li  Li5  1  0.85495000  0.30929300  0.62443700  1
  V  V0  1  0.01093000  0.50349300  0.98160900  1
  V  V1  1  0.00389100  0.99997100  0.00001800  1
  V  V2  1  0.48903000  0.49646800  0.01837900  1
  V  V3  1  0.49611200  0.00000700  0.99997000  1
  O  O0  1  0.09391700  0.82663600  0.13898200  1
  O  O1  1  0.07215700  0.30880600  0.13636900  1
  O  O2  1  0.59045400  0.83666000  0.15590100  1
  O  O3  1  0.60035700  0.30876500  0.13641800  1
  O  O4  1  0.42782200  0.69117200  0.86363100  1
  O  O5  1  0.40608800  0.17334800  0.86100600  1
  O  O6  1  0.89959900  0.69119400  0.86357600  1
  O  O7  1  0.90952000  0.16331500  0.84408200  1
  F  F0  1  0.25001300  0.50002000  0.50001000  1
  F  F1  1  0.25001000  0.00001800  0.50000900  1
  F  F2  1  0.75002000  0.50002200  0.50000000  1
  F  F3  1  0.75001500  0.00001800  0.50000200  1
loop_
_geom_bond_atom_site_label_1
_geom_bond_atom_site_label_2
_geom_bond_distance
_geom_bond_site_symmetry_2
Li0 O2 2.248539 1_555
Li0 O0 2.413674 1_555
Li1 O7 2.248611 1_455
Li1 O5 2.413520 1_555
Li2 O2 2.246888 1_555
Li2 O0 2.416928 1_655
Li3 O7 2.227220 1_565
Li3 O6 2.290754 1_555
Li3 O4 2.293205 1_555
Li4 O2 2.227515 1_545
Li4 O3 2.290824 1_555
Li4 O1 2.293090 1_655
Li5 O7 2.246701 1_555
Li5 O5 2.416882 1_555
O0 V1 1.978402 1_555
O0 V3 1.978612 1_564
O0 V0 2.060735 1_554
O1 V1 1.913338 1_545
O1 V2 2.024685 1_555
O1 V0 2.042454 1_554
O2 V2 2.053975 1_555
O2 V1 2.056004 1_655
O2 V3 2.056109 1_564
O3 V3 1.913417 1_554
O3 V2 2.024944 1_555
O3 V0 2.042888 1_654
O4 V3 1.913283 1_565
O4 V0 2.024767 1_555
O4 V2 2.042379 1_556
O5 V3 1.978419 1_555
O5 V1 1.978620 1_546
O5 V2 2.060637 1_556
O6 V1 1.913487 1_656
O6 V0 2.024922 1_655
O6 V2 2.042860 1_556
O7 V0 2.053932 1_655
O7 V3 2.055884 1_555
O7 V1 2.056256 1_646
F0 Li2 1.931280 1_555
F0 Li5 1.931305 1_455
F0 Li0 1.932236 1_555
F0 Li1 1.932272 1_555
F1 Li0 1.866798 1_545
F1 Li1 1.866803 1_555
F1 Li3 1.942120 1_445
F1 Li4 1.942126 1_555
F2 Li2 2.043530 1_555
F2 Li0 2.043534 1_655
F2 Li5 2.043572 1_555
F2 Li1 2.043596 1_555
F2 Li3 2.125708 1_555
F2 Li4 2.125784 1_555
F3 Li5 1.866544 1_555
F3 Li2 1.866558 1_545
F3 Li3 1.942209 1_545
F3 Li4 1.942213 1_555
