# generated using pymatgen
data_BaRe2H12C3N6O11
_symmetry_space_group_name_H-M   'P 1'
_cell_length_a   7.99226400
_cell_length_b   13.94545200
_cell_length_c   15.10967033
_cell_angle_alpha   85.10239980
_cell_angle_beta   90.00000000
_cell_angle_gamma   90.00000000
_symmetry_Int_Tables_number   1
_chemical_formula_structural   BaRe2H12C3N6O11
_chemical_formula_sum   'Ba4 Re8 H48 C12 N24 O44'
_cell_volume   1677.91068162
_cell_formula_units_Z   4
loop_
 _symmetry_equiv_pos_site_id
 _symmetry_equiv_pos_as_xyz
  1  'x, y, z'
loop_
 _atom_site_type_symbol
 _atom_site_label
 _atom_site_symmetry_multiplicity
 _atom_site_fract_x
 _atom_site_fract_y
 _atom_site_fract_z
 _atom_site_occupancy
  Ba  Ba0  1  0.61484100  0.62430800  0.58361500  1
  Ba  Ba1  1  0.11484100  0.37569200  0.91638500  1
  Ba  Ba2  1  0.38515900  0.37569200  0.41638500  1
  Ba  Ba3  1  0.88515900  0.62430800  0.08361500  1
  Re  Re0  1  0.87139300  0.51452000  0.36827600  1
  Re  Re1  1  0.37139300  0.48548000  0.13172400  1
  Re  Re2  1  0.12860700  0.48548000  0.63172400  1
  Re  Re3  1  0.62860700  0.51452000  0.86827600  1
  Re  Re4  1  0.93391400  0.87003900  0.58914400  1
  Re  Re5  1  0.43391400  0.12996100  0.91085600  1
  Re  Re6  1  0.06608600  0.12996100  0.41085600  1
  Re  Re7  1  0.56608600  0.87003900  0.08914400  1
  H  H0  1  0.64700700  0.27472200  0.74622200  1
  H  H1  1  0.14700700  0.72527800  0.75377800  1
  H  H2  1  0.35299300  0.72527800  0.25377800  1
  H  H3  1  0.85299300  0.27472200  0.24622200  1
  H  H4  1  0.48361500  0.35765500  0.73885400  1
  H  H5  1  0.98361500  0.64234500  0.76114600  1
  H  H6  1  0.51638500  0.64234500  0.26114600  1
  H  H7  1  0.01638500  0.35765500  0.23885400  1
  H  H8  1  0.81649400  0.25542600  0.62097600  1
  H  H9  1  0.31649400  0.74457400  0.87902400  1
  H  H10  1  0.18350600  0.74457400  0.37902400  1
  H  H11  1  0.68350600  0.25542600  0.12097600  1
  H  H12  1  0.78863700  0.33347200  0.52563200  1
  H  H13  1  0.28863700  0.66652800  0.97436800  1
  H  H14  1  0.21136300  0.66652800  0.47436800  1
  H  H15  1  0.71136300  0.33347200  0.02563200  1
  H  H16  1  0.65659400  0.82379700  0.86352400  1
  H  H17  1  0.15659400  0.17620300  0.63647600  1
  H  H18  1  0.34340600  0.17620300  0.13647600  1
  H  H19  1  0.84340600  0.82379700  0.36352400  1
  H  H20  1  0.72063900  0.74206200  0.79132800  1
  H  H21  1  0.22063900  0.25793800  0.70867200  1
  H  H22  1  0.27936100  0.25793800  0.20867200  1
  H  H23  1  0.77936100  0.74206200  0.29132800  1
  H  H24  1  0.41936800  0.91658400  0.83214900  1
  H  H25  1  0.91936800  0.08341600  0.66785100  1
  H  H26  1  0.58063200  0.08341600  0.16785100  1
  H  H27  1  0.08063200  0.91658400  0.33214900  1
  H  H28  1  0.29685100  0.89596400  0.73852100  1
  H  H29  1  0.79685100  0.10403600  0.76147900  1
  H  H30  1  0.70314900  0.10403600  0.26147900  1
  H  H31  1  0.20314900  0.89596400  0.23852100  1
  H  H32  1  0.44025300  0.96926100  0.36030600  1
  H  H33  1  0.94025300  0.03073900  0.13969400  1
  H  H34  1  0.55974700  0.03073900  0.63969400  1
  H  H35  1  0.05974700  0.96926100  0.86030600  1
  H  H36  1  0.59687400  0.89251700  0.32482300  1
  H  H37  1  0.09687400  0.10748300  0.17517700  1
  H  H38  1  0.40312600  0.10748300  0.67517700  1
  H  H39  1  0.90312600  0.89251700  0.82482300  1
  H  H40  1  0.32405100  0.94154600  0.49797400  1
  H  H41  1  0.82405100  0.05845400  0.00202600  1
  H  H42  1  0.67594900  0.05845400  0.50202600  1
  H  H43  1  0.17594900  0.94154600  0.99797400  1
  H  H44  1  0.40137100  0.84979100  0.57417800  1
  H  H45  1  0.90137100  0.15020900  0.92582200  1
  H  H46  1  0.59862900  0.15020900  0.42582200  1
  H  H47  1  0.09862900  0.84979100  0.07417800  1
  C  C0  1  0.62494300  0.35645300  0.62552600  1
  C  C1  1  0.12494300  0.64354700  0.87447400  1
  C  C2  1  0.37505700  0.64354700  0.37447400  1
  C  C3  1  0.87505700  0.35645300  0.12552600  1
  C  C4  1  0.50916000  0.81415000  0.75172000  1
  C  C5  1  0.00916000  0.18585000  0.74828000  1
  C  C6  1  0.49084000  0.18585000  0.24828000  1
  C  C7  1  0.99084000  0.81415000  0.25172000  1
  C  C8  1  0.51445700  0.85884200  0.45187000  1
  C  C9  1  0.01445700  0.14115800  0.04813000  1
  C  C10  1  0.48554300  0.14115800  0.54813000  1
  C  C11  1  0.98554300  0.85884200  0.95187000  1
  N  N0  1  0.58234800  0.32675700  0.71003400  1
  N  N1  1  0.08234800  0.67324300  0.78996600  1
  N  N2  1  0.41765200  0.67324300  0.28996600  1
  N  N3  1  0.91765200  0.32675700  0.21003400  1
  N  N4  1  0.75595500  0.31249300  0.58922100  1
  N  N5  1  0.25595500  0.68750700  0.91077900  1
  N  N6  1  0.24404500  0.68750700  0.41077900  1
  N  N7  1  0.74404500  0.31249300  0.08922100  1
  N  N8  1  0.65225600  0.80147300  0.80085200  1
  N  N9  1  0.15225600  0.19852700  0.69914800  1
  N  N10  1  0.34774400  0.19852700  0.19914800  1
  N  N11  1  0.84774400  0.80147300  0.30085200  1
  N  N12  1  0.39695400  0.87876800  0.77870100  1
  N  N13  1  0.89695400  0.12123200  0.72129900  1
  N  N14  1  0.60304600  0.12123200  0.22129900  1
  N  N15  1  0.10304600  0.87876800  0.27870100  1
  N  N16  1  0.51664400  0.91158600  0.37217300  1
  N  N17  1  0.01664400  0.08841400  0.12782700  1
  N  N18  1  0.48335600  0.08841400  0.62782700  1
  N  N19  1  0.98335600  0.91158600  0.87217300  1
  N  N20  1  0.40189800  0.88476700  0.51225400  1
  N  N21  1  0.90189800  0.11523300  0.98774600  1
  N  N22  1  0.59810200  0.11523300  0.48774600  1
  N  N23  1  0.09810200  0.88476700  0.01225400  1
  O  O0  1  0.86010800  0.59088800  0.45420500  1
  O  O1  1  0.36010800  0.40911200  0.04579500  1
  O  O2  1  0.13989200  0.40911200  0.54579500  1
  O  O3  1  0.63989200  0.59088800  0.95420500  1
  O  O4  1  0.74253500  0.41323500  0.39258500  1
  O  O5  1  0.24253500  0.58676500  0.10741500  1
  O  O6  1  0.25746500  0.58676500  0.60741500  1
  O  O7  1  0.75746500  0.41323500  0.89258500  1
  O  O8  1  0.07850400  0.47677600  0.35865200  1
  O  O9  1  0.57850400  0.52322400  0.14134800  1
  O  O10  1  0.92149600  0.52322400  0.64134800  1
  O  O11  1  0.42149600  0.47677600  0.85865200  1
  O  O12  1  0.81225300  0.57920700  0.26805600  1
  O  O13  1  0.31225300  0.42079300  0.23194400  1
  O  O14  1  0.18774700  0.42079300  0.73194400  1
  O  O15  1  0.68774700  0.57920700  0.76805600  1
  O  O16  1  0.88162300  0.74946600  0.62148300  1
  O  O17  1  0.38162300  0.25053400  0.87851700  1
  O  O18  1  0.11837700  0.25053400  0.37851700  1
  O  O19  1  0.61837700  0.74946600  0.12148300  1
  O  O20  1  0.98728400  0.88312400  0.47625200  1
  O  O21  1  0.48728400  0.11687600  0.02374800  1
  O  O22  1  0.01271600  0.11687600  0.52374800  1
  O  O23  1  0.51271600  0.88312400  0.97625200  1
  O  O24  1  0.10522900  0.90247600  0.65321400  1
  O  O25  1  0.60522900  0.09752400  0.84678600  1
  O  O26  1  0.89477100  0.09752400  0.34678600  1
  O  O27  1  0.39477100  0.90247600  0.15321400  1
  O  O28  1  0.76579600  0.94606000  0.60936000  1
  O  O29  1  0.26579600  0.05394000  0.89064000  1
  O  O30  1  0.23420400  0.05394000  0.39064000  1
  O  O31  1  0.73420400  0.94606000  0.10936000  1
  O  O32  1  0.54461800  0.42382800  0.58207100  1
  O  O33  1  0.04461800  0.57617200  0.91792900  1
  O  O34  1  0.45538200  0.57617200  0.41792900  1
  O  O35  1  0.95538200  0.42382800  0.08207100  1
  O  O36  1  0.47947900  0.76869200  0.68476000  1
  O  O37  1  0.97947900  0.23130800  0.81524000  1
  O  O38  1  0.52052100  0.23130800  0.31524000  1
  O  O39  1  0.02052100  0.76869200  0.18476000  1
  O  O40  1  0.61300400  0.78833400  0.46781000  1
  O  O41  1  0.11300400  0.21166600  0.03219000  1
  O  O42  1  0.38699600  0.21166600  0.53219000  1
  O  O43  1  0.88699600  0.78833400  0.96781000  1
loop_
_geom_bond_atom_site_label_1
_geom_bond_atom_site_label_2
_geom_bond_distance
_geom_bond_site_symmetry_2
Ba0 O40 2.758765 1_555
Ba0 O0 2.835263 1_555
Ba0 O36 2.843521 1_555
Ba0 O16 2.844383 1_555
Ba0 O32 2.853609 1_555
Ba0 O15 2.863967 1_555
Ba0 O6 2.920515 1_555
Ba0 O10 2.923163 1_555
Ba0 O34 2.937528 1_555
Ba1 O41 2.758765 1_556
Ba1 O1 2.835263 1_556
Ba1 O37 2.843521 1_455
Ba1 O17 2.844383 1_555
Ba1 O33 2.853609 1_555
Ba1 O14 2.863967 1_555
Ba1 O7 2.920515 1_455
Ba1 O11 2.923163 1_555
Ba1 O35 2.937528 1_456
Ba2 O42 2.758765 1_555
Ba2 O2 2.835263 1_555
Ba2 O38 2.843521 1_555
Ba2 O18 2.844383 1_555
Ba2 O34 2.853609 1_555
Ba2 O13 2.863967 1_555
Ba2 O4 2.920515 1_555
Ba2 O8 2.923163 1_555
Ba2 O32 2.937528 1_555
Ba3 O43 2.758765 1_554
Ba3 O3 2.835263 1_554
Ba3 O39 2.843521 1_655
Ba3 O19 2.844383 1_555
Ba3 O35 2.853609 1_555
Ba3 O12 2.863967 1_555
Ba3 O5 2.920515 1_655
Ba3 O9 2.923163 1_555
Ba3 O33 2.937528 1_654
H0 N0 1.012349 1_555
H1 N1 1.012349 1_555
H2 N2 1.012349 1_555
H3 N3 1.012349 1_555
H4 N0 1.014893 1_555
H5 N1 1.014893 1_655
H6 N2 1.014893 1_555
H7 N3 1.014893 1_455
H8 N4 1.016099 1_555
H9 N5 1.016099 1_555
H10 N6 1.016099 1_555
H11 N7 1.016099 1_555
H12 N4 1.014384 1_555
H13 N5 1.014384 1_555
H14 N6 1.014384 1_555
H15 N7 1.014384 1_555
H16 N8 1.022340 1_555
H17 N9 1.022340 1_555
H18 N10 1.022340 1_555
H19 N11 1.022340 1_555
H20 N8 1.013016 1_555
H21 N9 1.013016 1_555
H22 N10 1.013016 1_555
H23 N11 1.013016 1_555
H24 N12 1.017403 1_555
H25 N13 1.017403 1_555
H26 N14 1.017403 1_555
H27 N15 1.017403 1_555
H28 N12 1.020444 1_555
H29 N13 1.020444 1_555
H30 N14 1.020444 1_555
H31 N15 1.020444 1_555
H32 N16 1.013502 1_555
H33 N17 1.013502 1_655
H34 N18 1.013502 1_555
H35 N19 1.013502 1_455
H36 N16 1.013027 1_555
H37 N17 1.013027 1_555
H38 N18 1.013027 1_555
H39 N19 1.013027 1_555
H40 N20 1.015601 1_555
H41 N21 1.015601 1_554
H42 N22 1.015601 1_555
H43 N23 1.015601 1_556
H44 N20 1.017567 1_555
H45 N21 1.017567 1_555
H46 N22 1.017567 1_555
H47 N23 1.017567 1_555
C0 O32 1.273071 1_555
C0 N0 1.351867 1_555
C0 N4 1.352974 1_555
C1 O33 1.273071 1_555
C1 N1 1.351867 1_555
C1 N5 1.352974 1_555
C2 O34 1.273071 1_555
C2 N2 1.351867 1_555
C2 N6 1.352974 1_555
C3 O35 1.273071 1_555
C3 N3 1.351867 1_555
C3 N7 1.352974 1_555
C4 O36 1.261461 1_555
C4 N12 1.358371 1_555
C4 N8 1.366717 1_555
C5 O37 1.261461 1_455
C5 N13 1.358371 1_455
C5 N9 1.366717 1_555
C6 O38 1.261461 1_555
C6 N14 1.358371 1_555
C6 N10 1.366717 1_555
C7 O39 1.261461 1_655
C7 N15 1.358371 1_655
C7 N11 1.366717 1_555
C8 O40 1.266775 1_555
C8 N20 1.352315 1_555
C8 N16 1.356529 1_555
C9 O41 1.266775 1_555
C9 N21 1.352315 1_454
C9 N17 1.356529 1_555
C10 O42 1.266775 1_555
C10 N22 1.352315 1_555
C10 N18 1.356529 1_555
C11 O43 1.266775 1_555
C11 N23 1.352315 1_656
C11 N19 1.356529 1_555
O0 Re0 1.750477 1_555
O1 Re1 1.750477 1_555
O2 Re2 1.750477 1_555
O3 Re3 1.750477 1_555
O4 Re0 1.761252 1_555
O5 Re1 1.761252 1_555
O6 Re2 1.761252 1_555
O7 Re3 1.761252 1_555
O8 Re0 1.746779 1_455
O9 Re1 1.746779 1_555
O10 Re2 1.746779 1_655
O11 Re3 1.746779 1_555
O12 Re0 1.759831 1_555
O13 Re1 1.759831 1_555
O14 Re2 1.759831 1_555
O15 Re3 1.759831 1_555
O16 Re4 1.760792 1_555
O17 Re5 1.760792 1_555
O18 Re6 1.760792 1_555
O19 Re7 1.760792 1_555
O20 Re4 1.752630 1_555
O21 Re5 1.752630 1_554
O22 Re6 1.752630 1_555
O23 Re7 1.752630 1_556
O24 Re4 1.758198 1_455
O25 Re5 1.758198 1_555
O26 Re6 1.758198 1_655
O27 Re7 1.758198 1_555
O28 Re4 1.754391 1_555
O29 Re5 1.754391 1_555
O30 Re6 1.754391 1_555
O31 Re7 1.754391 1_555
