# generated using pymatgen
data_CaAsO4
_symmetry_space_group_name_H-M   'P 1'
_cell_length_a   7.01510400
_cell_length_b   7.02985383
_cell_length_c   7.27812666
_cell_angle_alpha   76.12967366
_cell_angle_beta   81.35795251
_cell_angle_gamma   85.56074981
_symmetry_Int_Tables_number   1
_chemical_formula_structural   CaAsO4
_chemical_formula_sum   'Ca4 As4 O16'
_cell_volume   344.17950537
_cell_formula_units_Z   4
loop_
 _symmetry_equiv_pos_site_id
 _symmetry_equiv_pos_as_xyz
  1  'x, y, z'
loop_
 _atom_site_type_symbol
 _atom_site_label
 _atom_site_symmetry_multiplicity
 _atom_site_fract_x
 _atom_site_fract_y
 _atom_site_fract_z
 _atom_site_occupancy
  Ca  Ca0  1  0.56780200  0.68364300  0.26767100  1
  Ca  Ca1  1  0.43219800  0.31635700  0.73232900  1
  Ca  Ca2  1  0.15631500  0.81243400  0.65301000  1
  Ca  Ca3  1  0.84368500  0.18756600  0.34699000  1
  As  As0  1  0.62217900  0.79679400  0.71123300  1
  As  As1  1  0.37782100  0.20320600  0.28876700  1
  As  As2  1  0.06488900  0.71029800  0.19196400  1
  As  As3  1  0.93511100  0.28970200  0.80803600  1
  O  O0  1  0.66486100  0.68687200  0.94224400  1
  O  O1  1  0.33513900  0.31312800  0.05775600  1
  O  O2  1  0.50152200  0.64900500  0.61408100  1
  O  O3  1  0.49847800  0.35099500  0.38591900  1
  O  O4  1  0.83447800  0.87060200  0.57168200  1
  O  O5  1  0.16552200  0.12939800  0.42831800  1
  O  O6  1  0.45720600  0.98586200  0.73046200  1
  O  O7  1  0.54279400  0.01413800  0.26953800  1
  O  O8  1  0.19780500  0.66685600  0.98478900  1
  O  O9  1  0.80219500  0.33314400  0.01521100  1
  O  O10  1  0.89121300  0.54175700  0.28595200  1
  O  O11  1  0.10878700  0.45824300  0.71404800  1
  O  O12  1  0.93370400  0.93457900  0.14381500  1
  O  O13  1  0.06629600  0.06542100  0.85618500  1
  O  O14  1  0.22433800  0.71628000  0.34599300  1
  O  O15  1  0.77566200  0.28372000  0.65400700  1
loop_
_geom_bond_atom_site_label_1
_geom_bond_atom_site_label_2
_geom_bond_distance
_geom_bond_site_symmetry_2
Ca0 O7 2.319516 1_565
Ca0 O3 2.351799 1_555
Ca0 O0 2.359211 1_554
Ca0 O14 2.397360 1_555
Ca0 O10 2.415914 1_555
Ca0 O2 2.450082 1_555
Ca1 O6 2.319516 1_545
Ca1 O2 2.351799 1_555
Ca1 O1 2.359211 1_556
Ca1 O15 2.397360 1_555
Ca1 O11 2.415914 1_555
Ca1 O3 2.450082 1_555
Ca2 O4 2.399483 1_455
Ca2 O5 2.426293 1_565
Ca2 O8 2.437876 1_555
Ca2 O14 2.455899 1_555
Ca2 O11 2.462081 1_555
Ca2 O13 2.560228 1_565
Ca2 O2 2.604579 1_555
Ca2 O6 2.710167 1_555
Ca3 O5 2.399483 1_655
Ca3 O4 2.426293 1_545
Ca3 O9 2.437876 1_555
Ca3 O15 2.455899 1_555
Ca3 O10 2.462081 1_555
Ca3 O12 2.560228 1_545
Ca3 O3 2.604579 1_555
Ca3 O7 2.710167 1_555
As0 O6 1.711107 1_555
As0 O4 1.712072 1_555
As0 O2 1.721623 1_555
As0 O0 1.733838 1_555
As1 O7 1.711107 1_555
As1 O5 1.712072 1_555
As1 O3 1.721623 1_555
As1 O1 1.733838 1_555
As2 O14 1.707742 1_555
As2 O10 1.714798 1_455
As2 O8 1.729292 1_554
As2 O12 1.750136 1_455
As3 O15 1.707742 1_555
As3 O11 1.714798 1_655
As3 O9 1.729292 1_556
As3 O13 1.750136 1_655
