# generated using pymatgen
data_Ba2Ce2O5
_symmetry_space_group_name_H-M   'P 1'
_cell_length_a   4.47533974
_cell_length_b   6.21447605
_cell_length_c   12.66768668
_cell_angle_alpha   90.00000000
_cell_angle_beta   90.00000000
_cell_angle_gamma   90.00000000
_symmetry_Int_Tables_number   1
_chemical_formula_structural   Ba2Ce2O5
_chemical_formula_sum   'Ba4 Ce4 O10'
_cell_volume   352.31232914
_cell_formula_units_Z   2
loop_
 _symmetry_equiv_pos_site_id
 _symmetry_equiv_pos_as_xyz
  1  'x, y, z'
loop_
 _atom_site_type_symbol
 _atom_site_label
 _atom_site_symmetry_multiplicity
 _atom_site_fract_x
 _atom_site_fract_y
 _atom_site_fract_z
 _atom_site_occupancy
  Ba  Ba0  1  0.00000000  0.24449060  0.39274609  1
  Ba  Ba1  1  -0.00000000  0.25550940  0.89274609  1
  Ba  Ba2  1  0.00000000  0.74449060  0.10725391  1
  Ba  Ba3  1  -0.00000000  0.75550940  0.60725391  1
  Ce  Ce0  1  0.50000000  0.24158627  0.13571095  1
  Ce  Ce1  1  0.50000000  0.25841373  0.63571095  1
  Ce  Ce2  1  0.50000000  0.74158627  0.36428905  1
  Ce  Ce3  1  0.50000000  0.75841373  0.86428905  1
  O  O0  1  0.50000000  0.00000000  0.50000000  1
  O  O1  1  0.50000000  0.09899919  0.79180086  1
  O  O2  1  0.00000000  0.19166161  0.10307340  1
  O  O3  1  -0.00000000  0.30833839  0.60307340  1
  O  O4  1  0.50000000  0.40100081  0.29180086  1
  O  O5  1  0.50000000  0.50000000  0.00000000  1
  O  O6  1  0.50000000  0.59899919  0.70819914  1
  O  O7  1  -0.00000000  0.69166161  0.39692660  1
  O  O8  1  -0.00000000  0.80833839  0.89692660  1
  O  O9  1  0.50000000  0.90100081  0.20819914  1
loop_
_geom_bond_atom_site_label_1
_geom_bond_atom_site_label_2
_geom_bond_distance
_geom_bond_site_symmetry_2
Ba0 O3 2.693743 1_555
Ba0 O4 2.754697 1_455
Ba0 O4 2.754697 1_555
Ba0 O7 2.779438 1_555
Ba0 O0 3.026820 1_555
Ba0 O0 3.026820 1_455
Ba1 O2 2.693743 1_556
Ba1 O1 2.754697 1_455
Ba1 O1 2.754697 1_555
Ba1 O8 2.779438 1_545
Ba1 O5 3.026820 1_556
Ba1 O5 3.026820 1_456
Ba2 O8 2.693743 1_554
Ba2 O9 2.754697 1_555
Ba2 O9 2.754697 1_455
Ba2 O2 2.779438 1_565
Ba2 O5 3.026820 1_555
Ba2 O5 3.026820 1_455
Ba3 O7 2.693743 1_555
Ba3 O6 2.754697 1_455
Ba3 O6 2.754697 1_555
Ba3 O3 2.779438 1_555
Ba3 O0 3.026820 1_565
Ba3 O0 3.026820 1_465
Ce0 O4 2.211595 1_555
Ce0 O2 2.296597 1_655
Ce0 O2 2.296597 1_555
Ce0 O9 2.307168 1_545
Ce0 O5 2.352528 1_555
Ce1 O1 2.211595 1_555
Ce1 O3 2.296597 1_555
Ce1 O3 2.296597 1_655
Ce1 O6 2.307168 1_555
Ce1 O0 2.352528 1_555
Ce2 O9 2.211595 1_555
Ce2 O7 2.296597 1_555
Ce2 O7 2.296597 1_655
Ce2 O4 2.307168 1_555
Ce2 O0 2.352528 1_565
Ce3 O6 2.211595 1_555
Ce3 O8 2.296597 1_555
Ce3 O8 2.296597 1_655
Ce3 O1 2.307168 1_565
Ce3 O5 2.352528 1_556
