# generated using pymatgen
data_LiFe2(BO3)2
_symmetry_space_group_name_H-M   'P 1'
_cell_length_a   5.31321100
_cell_length_b   9.07500240
_cell_length_c   11.34313723
_cell_angle_alpha   113.53430493
_cell_angle_beta   102.38012411
_cell_angle_gamma   89.83331486
_symmetry_Int_Tables_number   1
_chemical_formula_structural   LiFe2(BO3)2
_chemical_formula_sum   'Li4 Fe8 B8 O24'
_cell_volume   487.68986526
_cell_formula_units_Z   4
loop_
 _symmetry_equiv_pos_site_id
 _symmetry_equiv_pos_as_xyz
  1  'x, y, z'
loop_
 _atom_site_type_symbol
 _atom_site_label
 _atom_site_symmetry_multiplicity
 _atom_site_fract_x
 _atom_site_fract_y
 _atom_site_fract_z
 _atom_site_occupancy
  Li  Li0  1  0.64690300  0.29056300  0.58311500  1
  Li  Li1  1  0.38705600  0.04942400  0.09754300  1
  Li  Li2  1  0.89222800  0.54667000  0.09719000  1
  Li  Li3  1  0.57632500  0.90827300  0.84186700  1
  Fe  Fe0  1  0.59636600  0.58894600  0.87162200  1
  Fe  Fe1  1  0.89731500  0.90260000  0.12192400  1
  Fe  Fe2  1  0.15492300  0.48457300  0.62366800  1
  Fe  Fe3  1  0.34152000  0.01326000  0.36835400  1
  Fe  Fe4  1  0.65201300  0.96294800  0.61661300  1
  Fe  Fe5  1  0.84696000  0.51436500  0.36707300  1
  Fe  Fe6  1  0.09183500  0.10664900  0.86651600  1
  Fe  Fe7  1  0.39433500  0.40590800  0.12400900  1
  B  B0  1  0.35944000  0.35514100  0.37607600  1
  B  B1  1  0.09400200  0.77553700  0.86745500  1
  B  B2  1  0.84731300  0.85136000  0.36801800  1
  B  B3  1  0.60660600  0.25980200  0.87844200  1
  B  B4  1  0.15354100  0.15380700  0.62396200  1
  B  B5  1  0.39756100  0.73194600  0.12323300  1
  B  B6  1  0.64805100  0.63241000  0.62358900  1
  B  B7  1  0.89249500  0.22772500  0.11951300  1
  O  O0  1  0.86168600  0.78257100  0.90533000  1
  O  O1  1  0.53704900  0.51179300  0.65135600  1
  O  O2  1  0.74696100  0.09964900  0.11302800  1
  O  O3  1  0.46008400  0.21808800  0.38063900  1
  O  O4  1  0.13639000  0.40400900  0.42197400  1
  O  O5  1  0.20592400  0.63171100  0.81499600  1
  O  O6  1  0.73365900  0.39529800  0.88810400  1
  O  O7  1  0.97767500  0.95579000  0.33374500  1
  O  O8  1  0.30778600  0.88924700  0.16538300  1
  O  O9  1  0.38192400  0.11971300  0.57907200  1
  O  O10  1  0.02739200  0.28557300  0.61998500  1
  O  O11  1  0.63146600  0.71260000  0.08414700  1
  O  O12  1  0.37435000  0.26611000  0.91699200  1
  O  O13  1  0.62517300  0.89873000  0.41492200  1
  O  O14  1  0.71327800  0.11002300  0.83714900  1
  O  O15  1  0.04828800  0.05470300  0.67218900  1
  O  O16  1  0.25304300  0.60579600  0.11922400  1
  O  O17  1  0.81026000  0.38412200  0.16572600  1
  O  O18  1  0.86293800  0.59238000  0.56765800  1
  O  O19  1  0.55606000  0.77783400  0.65185000  1
  O  O20  1  0.93321400  0.70631000  0.35523500  1
  O  O21  1  0.23282500  0.91682500  0.88577700  1
  O  O22  1  0.48007800  0.44884100  0.32994000  1
  O  O23  1  0.12525900  0.20754700  0.07770200  1
loop_
_geom_bond_atom_site_label_1
_geom_bond_atom_site_label_2
_geom_bond_distance
_geom_bond_site_symmetry_2
Li0 O10 1.978877 1_655
Li0 O1 1.978992 1_555
Li0 O9 2.077601 1_555
Li0 O3 2.124305 1_555
Li1 O2 1.921566 1_555
Li1 O8 1.979482 1_545
Li1 O23 2.038792 1_555
Li1 O21 2.177822 1_544
Li2 O16 1.928478 1_655
Li2 O17 2.008672 1_555
Li2 O11 2.070462 1_555
Li2 O6 2.184012 1_554
Li3 O19 1.980456 1_555
Li3 O21 1.985735 1_555
Li3 O14 1.996792 1_565
Li3 O0 2.072692 1_555
Fe0 O6 1.962605 1_555
Fe0 O0 2.113710 1_555
Fe0 O5 2.118907 1_555
Fe0 O11 2.180272 1_556
Fe0 O1 2.258029 1_555
Fe1 O2 1.986787 1_565
Fe1 O11 2.077603 1_555
Fe1 O8 2.144591 1_655
Fe1 O7 2.196234 1_555
Fe1 O0 2.218799 1_554
Fe2 O10 1.912324 1_555
Fe2 O18 1.957678 1_455
Fe2 O1 1.987305 1_555
Fe2 O5 2.000527 1_555
Fe2 O4 2.084820 1_555
Fe3 O3 1.906245 1_555
Fe3 O7 1.918401 1_445
Fe3 O13 1.928377 1_545
Fe3 O8 2.086721 1_545
Fe3 O9 2.151649 1_555
Fe4 O19 1.967321 1_555
Fe4 O13 2.095201 1_555
Fe4 O9 2.115295 1_565
Fe4 O15 2.132069 1_665
Fe4 O14 2.265439 1_565
Fe5 O20 1.865503 1_555
Fe5 O22 1.945640 1_555
Fe5 O4 1.958080 1_655
Fe5 O17 2.075056 1_555
Fe5 O18 2.077589 1_555
Fe6 O12 1.912477 1_555
Fe6 O21 1.949182 1_545
Fe6 O14 1.969248 1_455
Fe6 O15 2.021561 1_555
Fe6 O23 2.162239 1_556
Fe7 O16 1.977445 1_555
Fe7 O23 2.120883 1_555
Fe7 O22 2.152605 1_555
Fe7 O12 2.156316 1_554
Fe7 O17 2.184130 1_555
B0 O3 1.367929 1_555
B0 O22 1.382085 1_555
B0 O4 1.396187 1_555
B1 O0 1.384660 1_455
B1 O5 1.392222 1_555
B1 O21 1.399362 1_555
B2 O20 1.354442 1_555
B2 O7 1.393750 1_555
B2 O13 1.394481 1_555
B3 O6 1.358375 1_555
B3 O12 1.388628 1_555
B3 O14 1.410348 1_555
B4 O10 1.380801 1_555
B4 O15 1.395663 1_555
B4 O9 1.401572 1_555
B5 O16 1.360452 1_555
B5 O11 1.394540 1_555
B5 O8 1.429220 1_555
B6 O19 1.344955 1_555
B6 O18 1.400776 1_555
B6 O1 1.415599 1_555
B7 O2 1.366312 1_555
B7 O23 1.403132 1_655
B7 O17 1.407325 1_555
