# generated using pymatgen
data_Ti3Nb2V3O16
_symmetry_space_group_name_H-M   'P 1'
_cell_length_a   5.99261100
_cell_length_b   6.00734828
_cell_length_c   9.41926136
_cell_angle_alpha   90.18301998
_cell_angle_beta   90.16698613
_cell_angle_gamma   119.32779594
_symmetry_Int_Tables_number   1
_chemical_formula_structural   Ti3Nb2V3O16
_chemical_formula_sum   'Ti3 Nb2 V3 O16'
_cell_volume   295.62454031
_cell_formula_units_Z   1
loop_
 _symmetry_equiv_pos_site_id
 _symmetry_equiv_pos_as_xyz
  1  'x, y, z'
loop_
 _atom_site_type_symbol
 _atom_site_label
 _atom_site_symmetry_multiplicity
 _atom_site_fract_x
 _atom_site_fract_y
 _atom_site_fract_z
 _atom_site_occupancy
  Ti  Ti0  1  0.17556000  0.34379900  0.78069200  1
  Ti  Ti1  1  0.17487300  0.83135100  0.78093900  1
  Ti  Ti2  1  0.34456100  0.17464600  0.27760400  1
  Nb  Nb0  1  0.34100400  0.66977300  0.50063700  1
  Nb  Nb1  1  0.67304900  0.34030000  0.00086700  1
  V  V0  1  0.66228100  0.83218300  0.79107200  1
  V  V1  1  0.83073000  0.17384500  0.28554300  1
  V  V2  1  0.83779200  0.66492700  0.29070000  1
  O  O0  1  0.17373200  0.34583900  0.40118500  1
  O  O1  1  0.04161800  0.52229900  0.66577500  1
  O  O2  1  0.31788100  0.65883000  0.89462400  1
  O  O3  1  0.00569500  0.00394700  0.69710300  1
  O  O4  1  0.00063400  0.01531200  0.19760400  1
  O  O5  1  0.17474300  0.83100100  0.39918000  1
  O  O6  1  0.46748500  0.51430700  0.66357000  1
  O  O7  1  0.46570300  0.95064700  0.66299200  1
  O  O8  1  0.34318000  0.17109500  0.90125800  1
  O  O9  1  0.66161700  0.82844700  0.40205600  1
  O  O10  1  0.52096900  0.04323100  0.16563900  1
  O  O11  1  0.51479600  0.46959600  0.16527400  1
  O  O12  1  0.66307200  0.31328500  0.39414700  1
  O  O13  1  0.82919200  0.17367800  0.90043300  1
  O  O14  1  0.94903700  0.46898900  0.16378100  1
  O  O15  1  0.83079400  0.65847000  0.90160700  1
loop_
_geom_bond_atom_site_label_1
_geom_bond_atom_site_label_2
_geom_bond_distance
_geom_bond_site_symmetry_2
Nb0 O9 1.919439 1_555
Nb0 O0 1.934215 1_555
Nb0 O5 1.946726 1_555
Nb0 O7 2.117960 1_555
Nb0 O6 2.120822 1_555
Nb0 O1 2.211610 1_555
Nb1 O15 1.915104 1_554
Nb1 O13 1.920680 1_554
Nb1 O8 1.958542 1_554
Nb1 O14 2.100688 1_555
Nb1 O11 2.150179 1_555
Nb1 O10 2.203827 1_555
O0 V1 2.092445 1_455
O0 Ti2 2.119257 1_555
O1 Ti1 1.947056 1_555
O1 Ti0 1.952252 1_555
O2 Ti1 1.956280 1_555
O2 Ti0 1.964981 1_555
O2 V0 2.051373 1_555
O3 Ti1 1.938236 1_545
O3 Ti0 1.942545 1_555
O3 V0 2.004881 1_445
O4 V1 1.891970 1_455
O4 Ti2 1.945667 1_555
O4 V2 2.038719 1_445
O5 V2 2.030931 1_455
O5 Ti2 2.138368 1_565
O6 Ti0 1.894657 1_555
O6 V0 2.060351 1_555
O7 Ti1 1.891599 1_555
O7 V0 2.041585 1_555
O8 Ti0 2.096862 1_555
O8 Ti1 2.104571 1_545
O9 V2 2.048303 1_555
O9 V1 2.120826 1_565
O10 Ti2 1.916185 1_555
O10 V1 1.972889 1_555
O11 Ti2 1.883421 1_555
O11 V2 2.066891 1_555
O12 V1 1.892764 1_555
O12 Ti2 1.991623 1_555
O12 V2 2.088184 1_555
O13 V0 2.059251 1_545
O13 Ti0 2.137252 1_655
O14 V1 1.935979 1_555
O14 V2 2.005850 1_555
O15 V0 2.055704 1_555
O15 Ti1 2.132008 1_655
