# generated using pymatgen
data_Fe3O5F
_symmetry_space_group_name_H-M   'P 1'
_cell_length_a   10.55445180
_cell_length_b   10.55445180
_cell_length_c   3.01807300
_cell_angle_alpha   90.00000000
_cell_angle_beta   90.00000000
_cell_angle_gamma   144.54776847
_symmetry_Int_Tables_number   1
_chemical_formula_structural   Fe3O5F
_chemical_formula_sum   'Fe6 O10 F2'
_cell_volume   195.00559607
_cell_formula_units_Z   2
loop_
 _symmetry_equiv_pos_site_id
 _symmetry_equiv_pos_as_xyz
  1  'x, y, z'
loop_
 _atom_site_type_symbol
 _atom_site_label
 _atom_site_symmetry_multiplicity
 _atom_site_fract_x
 _atom_site_fract_y
 _atom_site_fract_z
 _atom_site_occupancy
  Fe  Fe0  1  0.67704200  0.32295800  0.00000000  1
  Fe  Fe1  1  0.16381100  0.83618900  0.50000000  1
  Fe  Fe2  1  0.32295800  0.67704200  0.00000000  1
  Fe  Fe3  1  0.50000000  0.50000000  0.50000000  1
  Fe  Fe4  1  0.83618900  0.16381100  0.50000000  1
  Fe  Fe5  1  0.00000000  0.00000000  0.00000000  1
  O  O0  1  0.97074900  0.64050600  0.00000000  1
  O  O1  1  0.02925100  0.35949400  0.00000000  1
  O  O2  1  0.35949400  0.02925100  0.00000000  1
  O  O3  1  0.26453400  0.73546600  0.50000000  1
  O  O4  1  0.73546600  0.26453400  0.50000000  1
  O  O5  1  0.64050600  0.97074900  0.00000000  1
  O  O6  1  0.68795200  0.68795200  0.00000000  1
  O  O7  1  0.93780700  0.06219300  0.50000000  1
  O  O8  1  0.06219300  0.93780700  0.50000000  1
  O  O9  1  0.31204800  0.31204800  0.00000000  1
  F  F0  1  0.39578800  0.60421200  0.50000000  1
  F  F1  1  0.60421200  0.39578800  0.50000000  1
loop_
_geom_bond_atom_site_label_1
_geom_bond_atom_site_label_2
_geom_bond_distance
_geom_bond_site_symmetry_2
Fe0 O4 1.912366 1_554
Fe0 O4 1.912366 1_555
Fe0 O2 1.978828 1_555
Fe0 O0 1.978828 1_555
Fe1 O0 1.959197 1_455
Fe1 O0 1.959197 1_456
Fe1 O2 1.959197 1_565
Fe1 O2 1.959197 1_566
Fe1 O3 2.025208 1_555
Fe1 O8 2.043204 1_555
Fe2 O3 1.912366 1_555
Fe2 O3 1.912366 1_554
Fe2 O1 1.978828 1_555
Fe2 O5 1.978828 1_555
Fe3 O9 1.932967 1_555
Fe3 O6 1.932967 1_555
Fe3 O9 1.932967 1_556
Fe3 O6 1.932967 1_556
Fe4 O5 1.959197 1_545
Fe4 O5 1.959197 1_546
Fe4 O1 1.959197 1_655
Fe4 O1 1.959197 1_656
Fe4 O4 2.025208 1_555
Fe4 O7 2.043204 1_555
Fe5 O7 1.959830 1_455
Fe5 O7 1.959830 1_454
Fe5 O8 1.959830 1_545
Fe5 O8 1.959830 1_544
Fe5 O9 2.005523 1_555
Fe5 O6 2.005523 1_445
F0 Fe3 2.095361 1_555
F0 Fe2 2.102754 1_555
F0 Fe2 2.102754 1_556
F1 Fe3 2.095361 1_555
F1 Fe0 2.102754 1_556
F1 Fe0 2.102754 1_555
