# generated using pymatgen
data_Li5WNO4
_symmetry_space_group_name_H-M   'P 1'
_cell_length_a   5.25898493
_cell_length_b   5.25898540
_cell_length_c   9.77979200
_cell_angle_alpha   90.00000000
_cell_angle_beta   90.00000000
_cell_angle_gamma   123.05006226
_symmetry_Int_Tables_number   1
_chemical_formula_structural   Li5WNO4
_chemical_formula_sum   'Li10 W2 N2 O8'
_cell_volume   226.71395248
_cell_formula_units_Z   2
loop_
 _symmetry_equiv_pos_site_id
 _symmetry_equiv_pos_as_xyz
  1  'x, y, z'
loop_
 _atom_site_type_symbol
 _atom_site_label
 _atom_site_symmetry_multiplicity
 _atom_site_fract_x
 _atom_site_fract_y
 _atom_site_fract_z
 _atom_site_occupancy
  Li  Li0  1  0.80704500  0.23285800  0.49272300  1
  Li  Li1  1  0.76714200  0.19295500  0.99272300  1
  Li  Li2  1  0.84767400  0.46311000  0.24490300  1
  Li  Li3  1  0.53689000  0.15232600  0.74490300  1
  Li  Li4  1  0.42558400  0.42558400  0.97332700  1
  Li  Li5  1  0.57441600  0.57441600  0.47332700  1
  Li  Li6  1  0.46311000  0.84767400  0.24490300  1
  Li  Li7  1  0.15232600  0.53689000  0.74490300  1
  Li  Li8  1  0.23285800  0.80704500  0.49272300  1
  Li  Li9  1  0.19295500  0.76714200  0.99272300  1
  W  W0  1  0.80407900  0.80407900  0.75061300  1
  W  W1  1  0.19592100  0.19592100  0.25061300  1
  N  N0  1  0.15839800  0.15839800  0.77418200  1
  N  N1  1  0.84160200  0.84160200  0.27418200  1
  O  O0  1  0.82296100  0.52630600  0.87760600  1
  O  O1  1  0.47369400  0.17703900  0.37760600  1
  O  O2  1  0.86922400  0.57536800  0.61094200  1
  O  O3  1  0.42463200  0.13077600  0.11094200  1
  O  O4  1  0.57536800  0.86922400  0.61094200  1
  O  O5  1  0.13077600  0.42463200  0.11094200  1
  O  O6  1  0.52630600  0.82296100  0.87760600  1
  O  O7  1  0.17703900  0.47369400  0.37760600  1
loop_
_geom_bond_atom_site_label_1
_geom_bond_atom_site_label_2
_geom_bond_distance
_geom_bond_site_symmetry_2
Li0 O1 1.966123 1_555
Li0 O4 1.984144 1_545
Li0 O7 1.992400 1_655
Li0 O2 2.011390 1_555
Li1 O0 1.966124 1_555
Li1 O5 1.984143 1_656
Li1 O6 1.992400 1_545
Li1 O3 2.011390 1_556
Li2 N1 2.028390 1_555
Li2 O5 2.074262 1_655
Li2 O7 2.140678 1_655
Li2 O1 2.142058 1_555
Li2 O3 2.340819 1_555
Li3 N0 2.028390 1_555
Li3 O4 2.074262 1_545
Li3 O6 2.140678 1_545
Li3 O0 2.142058 1_555
Li3 O2 2.340819 1_555
Li4 O5 2.050993 1_556
Li4 O3 2.050993 1_556
Li4 O0 2.077685 1_555
Li4 O6 2.077685 1_555
Li4 N0 2.363970 1_555
Li5 O2 2.050993 1_555
Li5 O4 2.050993 1_555
Li5 O7 2.077685 1_555
Li5 O1 2.077685 1_555
Li5 N1 2.363970 1_555
Li6 N1 2.028390 1_555
Li6 O3 2.074262 1_565
Li6 O1 2.140678 1_565
Li6 O7 2.142058 1_555
Li6 O5 2.340819 1_555
Li7 N0 2.028390 1_555
Li7 O2 2.074262 1_455
Li7 O0 2.140678 1_455
Li7 O6 2.142058 1_555
Li7 O4 2.340819 1_555
Li8 O7 1.966124 1_555
Li8 O2 1.984143 1_455
Li8 O1 1.992400 1_565
Li8 O4 2.011390 1_555
Li9 O6 1.966123 1_555
Li9 O3 1.984144 1_566
Li9 O0 1.992400 1_455
Li9 O5 2.011390 1_556
N0 W0 1.791693 1_445
N1 W1 1.791693 1_665
O0 W0 1.960742 1_555
O1 W1 1.960742 1_555
O2 W0 1.969610 1_555
O3 W1 1.969610 1_555
O4 W0 1.969610 1_555
O5 W1 1.969610 1_555
O6 W0 1.960742 1_555
O7 W1 1.960742 1_555
