# generated using pymatgen
data_H4NF
_symmetry_space_group_name_H-M   'P 1'
_cell_length_a   7.23542815
_cell_length_b   7.23540809
_cell_length_c   7.23540788
_cell_angle_alpha   71.25010042
_cell_angle_beta   71.25007474
_cell_angle_gamma   71.25008122
_symmetry_Int_Tables_number   1
_chemical_formula_structural   H4NF
_chemical_formula_sum   'H32 N8 F8'
_cell_volume   329.44444787
_cell_formula_units_Z   8
loop_
 _symmetry_equiv_pos_site_id
 _symmetry_equiv_pos_as_xyz
  1  'x, y, z'
loop_
 _atom_site_type_symbol
 _atom_site_label
 _atom_site_symmetry_multiplicity
 _atom_site_fract_x
 _atom_site_fract_y
 _atom_site_fract_z
 _atom_site_occupancy
  H  H0  1  0.80606401  0.80607682  0.80607733  1
  H  H1  1  0.30606401  0.30607733  0.30607682  1
  H  H2  1  0.84583806  0.62494027  0.68210530  1
  H  H3  1  0.62492812  0.68210485  0.84584943  1
  H  H4  1  0.68209338  0.84584981  0.62494012  1
  H  H5  1  0.34583806  0.18210530  0.12494027  1
  H  H6  1  0.18209338  0.12494012  0.34584981  1
  H  H7  1  0.12492812  0.34584943  0.18210485  1
  H  H8  1  0.24071518  0.65819382  0.14749097  1
  H  H9  1  0.65818019  0.14749092  0.24072682  1
  H  H10  1  0.14747850  0.24072739  0.65819398  1
  H  H11  1  0.74071518  0.64749097  0.15819382  1
  H  H12  1  0.64747850  0.15819398  0.74072739  1
  H  H13  1  0.15818019  0.74072682  0.64749092  1
  H  H14  1  0.04250684  0.60470474  0.33979992  1
  H  H15  1  0.60469191  0.33980023  0.04251806  1
  H  H16  1  0.33978578  0.04251802  0.60470582  1
  H  H17  1  0.54250684  0.83979992  0.10470474  1
  H  H18  1  0.83978578  0.10470582  0.54251802  1
  H  H19  1  0.10469191  0.54251806  0.83980023  1
  H  H20  1  0.01028149  0.78739316  0.12102033  1
  H  H21  1  0.78737971  0.12102008  0.01029294  1
  H  H22  1  0.12100701  0.01029374  0.78739437  1
  H  H23  1  0.51028149  0.62102033  0.28739316  1
  H  H24  1  0.62100701  0.28739437  0.51029374  1
  H  H25  1  0.28737971  0.51029294  0.62102008  1
  H  H26  1  0.09792353  0.82074617  0.29994626  1
  H  H27  1  0.82073257  0.29994533  0.09793608  1
  H  H28  1  0.29993341  0.09793581  0.82074614  1
  H  H29  1  0.59792353  0.79994626  0.32074617  1
  H  H30  1  0.79993341  0.32074614  0.59793581  1
  H  H31  1  0.32073257  0.59793608  0.79994533  1
  N  N0  1  0.74178050  0.74179254  0.74179245  1
  N  N1  1  0.24178050  0.24179245  0.24179254  1
  N  N2  1  0.09742405  0.71861055  0.22601291  1
  N  N3  1  0.71859673  0.22601212  0.09743600  1
  N  N4  1  0.22599955  0.09743614  0.71861078  1
  N  N5  1  0.59742405  0.72601291  0.21861055  1
  N  N6  1  0.72599955  0.21861078  0.59743614  1
  N  N7  1  0.21859673  0.59743600  0.72601212  1
  F  F0  1  0.91829611  0.91830806  0.91830878  1
  F  F1  1  0.41829611  0.41830878  0.41830806  1
  F  F2  1  0.96812249  0.44370790  0.56735567  1
  F  F3  1  0.44369553  0.56735677  0.96813293  1
  F  F4  1  0.56734336  0.96813457  0.44370879  1
  F  F5  1  0.46812249  0.06735567  0.94370790  1
  F  F6  1  0.06734336  0.94370879  0.46813457  1
  F  F7  1  0.94369553  0.46813293  0.06735677  1
loop_
_geom_bond_atom_site_label_1
_geom_bond_atom_site_label_2
_geom_bond_distance
_geom_bond_site_symmetry_2
H0 N0 1.032597 1_555
H1 N1 1.032597 1_555
H2 N0 1.041471 1_555
H3 N0 1.041473 1_555
H4 N0 1.041471 1_555
H5 N1 1.041471 1_555
H6 N1 1.041471 1_555
H7 N1 1.041474 1_555
H8 N2 1.038459 1_555
H9 N3 1.038454 1_555
H10 N4 1.038456 1_555
H11 N5 1.038459 1_555
H12 N6 1.038456 1_555
H13 N7 1.038454 1_555
H14 N2 1.038724 1_555
H15 N3 1.038725 1_555
H16 N4 1.038720 1_555
H17 N5 1.038724 1_555
H18 N6 1.038720 1_555
H19 N7 1.038725 1_555
H20 N2 1.041856 1_555
H21 N3 1.041854 1_555
H22 N4 1.041855 1_555
H23 N5 1.041856 1_555
H24 N6 1.041855 1_555
H25 N7 1.041854 1_555
H26 N2 1.043734 1_555
H27 N3 1.043738 1_555
H28 N4 1.043737 1_555
H29 N5 1.043734 1_555
H30 N6 1.043737 1_555
H31 N7 1.043738 1_555
