# generated using pymatgen
data_Li2Sn2(SO4)3
_symmetry_space_group_name_H-M   'P 1'
_cell_length_a   9.10033200
_cell_length_b   9.67083400
_cell_length_c   13.62643400
_cell_angle_alpha   90.00000000
_cell_angle_beta   90.00000000
_cell_angle_gamma   90.00000000
_symmetry_Int_Tables_number   1
_chemical_formula_structural   Li2Sn2(SO4)3
_chemical_formula_sum   'Li8 Sn8 S12 O48'
_cell_volume   1199.23247978
_cell_formula_units_Z   4
loop_
 _symmetry_equiv_pos_site_id
 _symmetry_equiv_pos_as_xyz
  1  'x, y, z'
loop_
 _atom_site_type_symbol
 _atom_site_label
 _atom_site_symmetry_multiplicity
 _atom_site_fract_x
 _atom_site_fract_y
 _atom_site_fract_z
 _atom_site_occupancy
  Li  Li0  1  0.21250700  0.27660900  0.18163000  1
  Li  Li1  1  0.78749300  0.77660900  0.18163000  1
  Li  Li2  1  0.28749300  0.77660900  0.31837000  1
  Li  Li3  1  0.71250700  0.27660900  0.31837000  1
  Li  Li4  1  0.28749300  0.72339100  0.68163000  1
  Li  Li5  1  0.71250700  0.22339100  0.68163000  1
  Li  Li6  1  0.21250700  0.22339100  0.81837000  1
  Li  Li7  1  0.78749300  0.72339100  0.81837000  1
  Sn  Sn0  1  0.24993100  0.95004800  0.09988200  1
  Sn  Sn1  1  0.75006900  0.45004800  0.09988200  1
  Sn  Sn2  1  0.74993100  0.95004800  0.40011800  1
  Sn  Sn3  1  0.25006900  0.45004800  0.40011800  1
  Sn  Sn4  1  0.25006900  0.04995200  0.59988200  1
  Sn  Sn5  1  0.74993100  0.54995200  0.59988200  1
  Sn  Sn6  1  0.24993100  0.54995200  0.90011800  1
  Sn  Sn7  1  0.75006900  0.04995200  0.90011800  1
  S  S0  1  0.43828600  0.25000000  0.00000000  1
  S  S1  1  0.56171400  0.75000000  0.00000000  1
  S  S2  1  0.10256900  0.60374600  0.15086000  1
  S  S3  1  0.89743100  0.10374600  0.15086000  1
  S  S4  1  0.39743100  0.10374600  0.34914000  1
  S  S5  1  0.60256900  0.60374600  0.34914000  1
  S  S6  1  0.06171400  0.75000000  0.50000000  1
  S  S7  1  0.93828600  0.25000000  0.50000000  1
  S  S8  1  0.39743100  0.39625400  0.65086000  1
  S  S9  1  0.60256900  0.89625400  0.65086000  1
  S  S10  1  0.10256900  0.89625400  0.84914000  1
  S  S11  1  0.89743100  0.39625400  0.84914000  1
  O  O0  1  0.12919900  0.59701100  0.04239100  1
  O  O1  1  0.87080100  0.09701100  0.04239100  1
  O  O2  1  0.52948700  0.36333600  0.04063500  1
  O  O3  1  0.47051300  0.86333600  0.04063500  1
  O  O4  1  0.34265200  0.19320500  0.07975500  1
  O  O5  1  0.65734800  0.69320500  0.07975500  1
  O  O6  1  0.05701400  0.13019300  0.16663200  1
  O  O7  1  0.94298600  0.63019300  0.16663200  1
  O  O8  1  0.18934200  0.72102400  0.19286200  1
  O  O9  1  0.81065800  0.22102400  0.19286200  1
  O  O10  1  0.85347100  0.97128300  0.19758200  1
  O  O11  1  0.14652900  0.47128300  0.19758200  1
  O  O12  1  0.35347100  0.97128300  0.30241800  1
  O  O13  1  0.64652900  0.47128300  0.30241800  1
  O  O14  1  0.68934200  0.72102400  0.30713800  1
  O  O15  1  0.31065800  0.22102400  0.30713800  1
  O  O16  1  0.44298600  0.63019300  0.33336800  1
  O  O17  1  0.55701400  0.13019300  0.33336800  1
  O  O18  1  0.15734800  0.69320500  0.42024500  1
  O  O19  1  0.84265200  0.19320500  0.42024500  1
  O  O20  1  0.02948700  0.36333600  0.45936500  1
  O  O21  1  0.97051300  0.86333600  0.45936500  1
  O  O22  1  0.62919900  0.59701100  0.45760900  1
  O  O23  1  0.37080100  0.09701100  0.45760900  1
  O  O24  1  0.37080100  0.40298900  0.54239100  1
  O  O25  1  0.62919900  0.90298900  0.54239100  1
  O  O26  1  0.02948700  0.13666400  0.54063500  1
  O  O27  1  0.97051300  0.63666400  0.54063500  1
  O  O28  1  0.15734800  0.80679500  0.57975500  1
  O  O29  1  0.84265200  0.30679500  0.57975500  1
  O  O30  1  0.44298600  0.86980700  0.66663200  1
  O  O31  1  0.55701400  0.36980700  0.66663200  1
  O  O32  1  0.31065800  0.27897600  0.69286200  1
  O  O33  1  0.68934200  0.77897600  0.69286200  1
  O  O34  1  0.35347100  0.52871700  0.69758200  1
  O  O35  1  0.64652900  0.02871700  0.69758200  1
  O  O36  1  0.14652900  0.02871700  0.80241800  1
  O  O37  1  0.85347100  0.52871700  0.80241800  1
  O  O38  1  0.18934200  0.77897600  0.80713800  1
  O  O39  1  0.81065800  0.27897600  0.80713800  1
  O  O40  1  0.05701400  0.36980700  0.83336800  1
  O  O41  1  0.94298600  0.86980700  0.83336800  1
  O  O42  1  0.34265200  0.30679500  0.92024500  1
  O  O43  1  0.65734800  0.80679500  0.92024500  1
  O  O44  1  0.47051300  0.63666400  0.95936500  1
  O  O45  1  0.52948700  0.13666400  0.95936500  1
  O  O46  1  0.12919900  0.90298900  0.95760900  1
  O  O47  1  0.87080100  0.40298900  0.95760900  1
loop_
_geom_bond_atom_site_label_1
_geom_bond_atom_site_label_2
_geom_bond_distance
_geom_bond_site_symmetry_2
Li0 O11 1.988005 1_555
Li0 O4 1.995088 1_555
Li0 O15 2.002912 1_555
Li0 O6 2.012227 1_555
Li1 O10 1.988005 1_555
Li1 O5 1.995088 1_555
Li1 O14 2.002912 1_555
Li1 O7 2.012227 1_555
Li2 O12 1.988005 1_555
Li2 O18 1.995088 1_555
Li2 O8 2.002912 1_555
Li2 O16 2.012227 1_555
Li3 O13 1.988005 1_555
Li3 O19 1.995088 1_555
Li3 O9 2.002912 1_555
Li3 O17 2.012227 1_555
Li4 O34 1.988005 1_555
Li4 O28 1.995088 1_555
Li4 O38 2.002912 1_555
Li4 O30 2.012227 1_555
Li5 O35 1.988005 1_555
Li5 O29 1.995088 1_555
Li5 O39 2.002912 1_555
Li5 O31 2.012227 1_555
Li6 O36 1.988005 1_555
Li6 O42 1.995088 1_555
Li6 O32 2.002912 1_555
Li6 O40 2.012227 1_555
Li7 O37 1.988005 1_555
Li7 O43 1.995088 1_555
Li7 O33 2.002912 1_555
Li7 O41 2.012227 1_555
O0 S2 1.499197 1_555
O0 Sn6 2.274361 1_554
O1 S3 1.499197 1_555
O1 Sn7 2.274361 1_554
O2 S0 1.482147 1_555
O2 Sn1 2.320456 1_555
O3 S1 1.482147 1_555
O3 Sn0 2.320456 1_555
O4 S0 1.496726 1_555
O4 Sn0 2.513345 1_545
O5 S1 1.496726 1_555
O5 Sn1 2.513345 1_555
O6 S3 1.490187 1_455
O6 Sn0 2.635254 1_545
O7 S2 1.490187 1_655
O7 Sn1 2.635254 1_555
O8 S2 1.495825 1_555
O8 Sn0 2.610526 1_555
O9 S3 1.495825 1_555
O9 Sn1 2.610526 1_555
O10 S3 1.485396 1_565
O11 S2 1.485396 1_555
O12 S4 1.485396 1_565
O13 S5 1.485396 1_555
O14 S5 1.495825 1_555
O14 Sn2 2.610526 1_555
O15 S4 1.495825 1_555
O15 Sn3 2.610526 1_555
O16 S5 1.490187 1_555
O16 Sn3 2.635254 1_555
O17 S4 1.490187 1_555
O17 Sn2 2.635254 1_545
O18 S6 1.496726 1_555
O18 Sn3 2.513345 1_555
O19 S7 1.496726 1_555
O19 Sn2 2.513345 1_545
O20 S7 1.482147 1_455
O20 Sn3 2.320456 1_555
O21 S6 1.482147 1_655
O21 Sn2 2.320456 1_555
O22 S5 1.499197 1_555
O22 Sn5 2.274361 1_555
O23 S4 1.499197 1_555
O23 Sn4 2.274361 1_555
O24 S8 1.499197 1_555
O24 Sn3 2.274361 1_555
O25 S9 1.499197 1_555
O25 Sn2 2.274361 1_555
O26 S7 1.482147 1_455
O26 Sn4 2.320456 1_555
O27 S6 1.482147 1_655
O27 Sn5 2.320456 1_555
O28 S6 1.496726 1_555
O28 Sn4 2.513345 1_565
O29 S7 1.496726 1_555
O29 Sn5 2.513345 1_555
O30 S9 1.490187 1_555
O30 Sn4 2.635254 1_565
O31 S8 1.490187 1_555
O31 Sn5 2.635254 1_555
O32 S8 1.495825 1_555
O32 Sn4 2.610526 1_555
O33 S9 1.495825 1_555
O33 Sn5 2.610526 1_555
O34 S8 1.485396 1_555
O35 S9 1.485396 1_545
O36 S10 1.485396 1_545
O37 S11 1.485396 1_555
O38 S10 1.495825 1_555
O38 Sn6 2.610526 1_555
O39 S11 1.495825 1_555
O39 Sn7 2.610526 1_555
O40 S11 1.490187 1_455
O40 Sn6 2.635254 1_555
O41 S10 1.490187 1_655
O41 Sn7 2.635254 1_565
O42 S0 1.496726 1_556
O42 Sn6 2.513345 1_555
O43 S1 1.496726 1_556
O43 Sn7 2.513345 1_565
O44 S1 1.482147 1_556
O44 Sn6 2.320456 1_555
O45 S0 1.482147 1_556
O45 Sn7 2.320456 1_555
O46 S10 1.499197 1_555
O46 Sn0 2.274361 1_556
O47 S11 1.499197 1_555
O47 Sn1 2.274361 1_556
