# generated using pymatgen
data_Li4Mn3Nb2V3O16
_symmetry_space_group_name_H-M   'P 1'
_cell_length_a   6.02032818
_cell_length_b   5.88983834
_cell_length_c   9.77654550
_cell_angle_alpha   89.94605273
_cell_angle_beta   91.48793109
_cell_angle_gamma   119.23711330
_symmetry_Int_Tables_number   1
_chemical_formula_structural   Li4Mn3Nb2V3O16
_chemical_formula_sum   'Li4 Mn3 Nb2 V3 O16'
_cell_volume   302.37180974
_cell_formula_units_Z   1
loop_
 _symmetry_equiv_pos_site_id
 _symmetry_equiv_pos_as_xyz
  1  'x, y, z'
loop_
 _atom_site_type_symbol
 _atom_site_label
 _atom_site_symmetry_multiplicity
 _atom_site_fract_x
 _atom_site_fract_y
 _atom_site_fract_z
 _atom_site_occupancy
  Li  Li0  1  0.31512400  0.65748300  0.89944000  1
  Li  Li1  1  0.00336600  0.00339200  0.99168500  1
  Li  Li2  1  0.00776800  0.00449900  0.48973400  1
  Li  Li3  1  0.66168800  0.32946700  0.40094100  1
  Mn  Mn0  1  0.66806100  0.83386600  0.21195800  1
  Mn  Mn1  1  0.83013000  0.66063300  0.71459700  1
  Mn  Mn2  1  0.82980000  0.17001600  0.71475000  1
  Nb  Nb0  1  0.33972400  0.67015900  0.49530500  1
  Nb  Nb1  1  0.65119600  0.32611800  0.99414600  1
  V  V0  1  0.17391700  0.82131800  0.21771400  1
  V  V1  1  0.17436100  0.35174900  0.21856000  1
  V  V2  1  0.34251300  0.17107400  0.72109000  1
  O  O0  1  0.18863500  0.84641600  0.59079500  1
  O  O1  1  0.03428700  0.51721000  0.34482900  1
  O  O2  1  0.31975300  0.65913900  0.10609800  1
  O  O3  1  0.01666700  0.00767500  0.30059700  1
  O  O4  1  0.01501200  0.00799400  0.80179000  1
  O  O5  1  0.18897400  0.34304700  0.59120100  1
  O  O6  1  0.47520300  0.95977600  0.33875900  1
  O  O7  1  0.47516500  0.51429100  0.33921100  1
  O  O8  1  0.33437500  0.16667000  0.10174200  1
  O  O9  1  0.67974500  0.84079900  0.59013300  1
  O  O10  1  0.49962000  0.47007200  0.84757800  1
  O  O11  1  0.49889500  0.02952900  0.84787600  1
  O  O12  1  0.64759700  0.32372600  0.61417900  1
  O  O13  1  0.83912400  0.66660600  0.09055000  1
  O  O14  1  0.95021100  0.47447100  0.84101500  1
  O  O15  1  0.83909200  0.17310300  0.09157100  1
loop_
_geom_bond_atom_site_label_1
_geom_bond_atom_site_label_2
_geom_bond_distance
_geom_bond_site_symmetry_2
Li0 O10 1.984231 1_555
Li0 O14 1.984253 1_455
Li0 O11 1.984584 1_565
Li0 O2 2.019837 1_556
Li1 O4 1.859332 1_555
Li1 O15 1.987090 1_456
Li1 O13 1.994171 1_446
Li1 O8 2.017989 1_556
Li2 O3 1.851085 1_555
Li2 O0 1.990360 1_545
Li2 O5 1.993180 1_555
Li2 O9 2.007946 1_445
Li3 O6 1.987520 1_545
Li3 O7 1.991953 1_555
Li3 O1 2.048226 1_655
Li3 O12 2.088227 1_555
Mn0 O3 2.003012 1_665
Mn0 O2 2.075711 1_555
Mn0 O6 2.086244 1_555
Mn0 O7 2.091556 1_555
Mn0 O15 2.118133 1_565
Mn0 O13 2.120539 1_555
Mn1 O4 1.969972 1_665
Mn1 O12 1.981540 1_555
Mn1 O14 1.994428 1_555
Mn1 O9 2.074907 1_555
Mn1 O10 2.204362 1_555
Mn1 O0 2.268653 1_655
Mn2 O4 1.966394 1_655
Mn2 O12 1.975349 1_555
Mn2 O14 1.988151 1_555
Mn2 O9 2.072781 1_545
Mn2 O11 2.206733 1_555
Mn2 O5 2.270236 1_655
Nb0 O0 1.935193 1_555
Nb0 O5 1.935791 1_555
Nb0 O9 1.988325 1_555
Nb0 O1 2.144975 1_555
Nb0 O6 2.148996 1_555
Nb0 O7 2.152911 1_555
Nb1 O13 1.980366 1_556
Nb1 O15 1.984274 1_556
Nb1 O8 1.994763 1_556
Nb1 O10 2.071349 1_555
Nb1 O11 2.075853 1_555
Nb1 O14 2.201441 1_555
O0 V2 2.085709 1_565
O1 V0 2.009604 1_555
O1 V1 2.010949 1_555
O2 V0 1.935197 1_555
O2 V1 1.936766 1_555
O3 V1 1.951543 1_555
O3 V0 1.952986 1_545
O4 V2 1.913610 1_555
O5 V2 2.084265 1_555
O6 V0 1.949589 1_555
O7 V1 1.945503 1_555
O8 V0 2.118777 1_545
O8 V1 2.122718 1_555
O10 V2 1.959943 1_555
O11 V2 1.954988 1_555
O12 V2 1.938848 1_555
O13 V0 2.125164 1_655
O15 V1 2.126084 1_655
