# generated using pymatgen
data_Li2V3CuO8
_symmetry_space_group_name_H-M   'P 1'
_cell_length_a   5.88713949
_cell_length_b   5.88713949
_cell_length_c   9.82098179
_cell_angle_alpha   88.85350538
_cell_angle_beta   88.85350538
_cell_angle_gamma   120.25046551
_symmetry_Int_Tables_number   1
_chemical_formula_structural   Li2V3CuO8
_chemical_formula_sum   'Li4 V6 Cu2 O16'
_cell_volume   293.79329335
_cell_formula_units_Z   2
loop_
 _symmetry_equiv_pos_site_id
 _symmetry_equiv_pos_as_xyz
  1  'x, y, z'
loop_
 _atom_site_type_symbol
 _atom_site_label
 _atom_site_symmetry_multiplicity
 _atom_site_fract_x
 _atom_site_fract_y
 _atom_site_fract_z
 _atom_site_occupancy
  Li  Li0  1  0.31878700  0.65970300  0.89894000  1
  Li  Li1  1  0.02032400  0.00855900  0.99482600  1
  Li  Li2  1  0.00855900  0.02032400  0.49482600  1
  Li  Li3  1  0.65970300  0.31878700  0.39894000  1
  V  V0  1  0.66771200  0.80079500  0.21546400  1
  V  V1  1  0.14982000  0.33467200  0.21510400  1
  V  V2  1  0.19684400  0.84649400  0.21143700  1
  V  V3  1  0.84649400  0.19684400  0.71143700  1
  V  V4  1  0.80079500  0.66771200  0.71546400  1
  V  V5  1  0.33467200  0.14982000  0.71510400  1
  Cu  Cu0  1  0.33250100  0.67815900  0.49916600  1
  Cu  Cu1  1  0.67815900  0.33250100  0.99916600  1
  O  O0  1  0.68771900  0.87293200  0.60741400  1
  O  O1  1  0.49243300  0.51105900  0.32483800  1
  O  O2  1  0.34498700  0.66667100  0.10150700  1
  O  O3  1  0.00125600  0.98807800  0.31181800  1
  O  O4  1  0.98807800  0.00125600  0.81181800  1
  O  O5  1  0.17260200  0.33577500  0.60709100  1
  O  O6  1  0.46684300  0.94857900  0.33337200  1
  O  O7  1  0.02682400  0.48842400  0.32548900  1
  O  O8  1  0.83988500  0.14186100  0.10745400  1
  O  O9  1  0.14186100  0.83988500  0.60745400  1
  O  O10  1  0.94857900  0.46684300  0.83337200  1
  O  O11  1  0.48842400  0.02682400  0.82548900  1
  O  O12  1  0.66667100  0.34498700  0.60150700  1
  O  O13  1  0.87293200  0.68771900  0.10741400  1
  O  O14  1  0.51105900  0.49243300  0.82483800  1
  O  O15  1  0.33577500  0.17260200  0.10709100  1
loop_
_geom_bond_atom_site_label_1
_geom_bond_atom_site_label_2
_geom_bond_distance
_geom_bond_site_symmetry_2
Li0 O14 1.974694 1_555
Li0 O11 1.980638 1_565
Li0 O2 1.998095 1_556
Li0 O10 2.011469 1_455
Li1 O4 1.810183 1_455
Li1 O13 1.941623 1_446
Li1 O8 1.948186 1_456
Li1 O15 1.978539 1_556
Li2 O3 1.810183 1_545
Li2 O0 1.941623 1_445
Li2 O9 1.948186 1_545
Li2 O5 1.978539 1_555
Li3 O1 1.974694 1_555
Li3 O7 1.980638 1_655
Li3 O12 1.998095 1_555
Li3 O6 2.011469 1_545
Cu0 O5 2.008798 1_555
Cu0 O9 2.089626 1_555
Cu0 O6 2.094592 1_555
Cu0 O0 2.130705 1_555
Cu0 O7 2.359919 1_555
Cu0 O1 2.391980 1_555
Cu1 O15 2.008798 1_556
Cu1 O8 2.089626 1_556
Cu1 O10 2.094592 1_555
Cu1 O13 2.130705 1_556
Cu1 O11 2.359919 1_555
Cu1 O14 2.391980 1_555
O0 V4 1.953500 1_555
O0 V3 1.968241 1_565
O1 V0 1.799163 1_555
O1 V1 2.080746 1_555
O2 V1 1.995924 1_555
O2 V2 1.996310 1_555
O2 V0 2.023526 1_555
O3 V0 1.975257 1_455
O3 V1 1.980314 1_565
O3 V2 1.986698 1_555
O4 V4 1.975257 1_545
O4 V5 1.980314 1_655
O4 V3 1.986698 1_555
O5 V3 1.926277 1_455
O5 V5 2.068952 1_555
O6 V2 1.861260 1_555
O6 V0 2.125651 1_555
O7 V1 1.785247 1_555
O7 V2 2.105923 1_555
O8 V1 1.942648 1_655
O8 V0 2.001354 1_545
O9 V5 1.942648 1_565
O9 V4 2.001354 1_455
O10 V3 1.861260 1_555
O10 V4 2.125651 1_555
O11 V5 1.785247 1_555
O11 V3 2.105923 1_555
O12 V5 1.995924 1_555
O12 V3 1.996310 1_555
O12 V4 2.023526 1_555
O13 V0 1.953500 1_555
O13 V2 1.968241 1_655
O14 V4 1.799163 1_555
O14 V5 2.080746 1_555
O15 V2 1.926277 1_545
O15 V1 2.068952 1_555
