# generated using pymatgen
data_Co2HgO4
_symmetry_space_group_name_H-M   'P 1'
_cell_length_a   6.19952476
_cell_length_b   6.19952476
_cell_length_c   6.19952476
_cell_angle_alpha   60.00000000
_cell_angle_beta   60.00000000
_cell_angle_gamma   60.00000000
_symmetry_Int_Tables_number   1
_chemical_formula_structural   Co2HgO4
_chemical_formula_sum   'Co4 Hg2 O8'
_cell_volume   168.48459540
_cell_formula_units_Z   2
loop_
 _symmetry_equiv_pos_site_id
 _symmetry_equiv_pos_as_xyz
  1  'x, y, z'
loop_
 _atom_site_type_symbol
 _atom_site_label
 _atom_site_symmetry_multiplicity
 _atom_site_fract_x
 _atom_site_fract_y
 _atom_site_fract_z
 _atom_site_occupancy
  Co  Co0  1  0.62500000  0.62500000  0.12500000  1
  Co  Co1  1  0.62500000  0.62500000  0.62500000  1
  Co  Co2  1  0.62500000  0.12500000  0.62500000  1
  Co  Co3  1  0.12500000  0.62500000  0.62500000  1
  Hg  Hg0  1  0.00000000  0.00000000  0.00000000  1
  Hg  Hg1  1  0.25000000  0.25000000  0.25000000  1
  O  O0  1  0.80961500  0.39679500  0.39679500  1
  O  O1  1  0.85320500  0.44038500  0.85320500  1
  O  O2  1  0.85320500  0.85320500  0.44038500  1
  O  O3  1  0.39679500  0.80961500  0.39679500  1
  O  O4  1  0.39679500  0.39679500  0.39679500  1
  O  O5  1  0.44038500  0.85320500  0.85320500  1
  O  O6  1  0.85320500  0.85320500  0.85320500  1
  O  O7  1  0.39679500  0.39679500  0.80961500  1
loop_
_geom_bond_atom_site_label_1
_geom_bond_atom_site_label_2
_geom_bond_distance
_geom_bond_site_symmetry_2
Co0 O6 2.018944 1_554
Co0 O3 2.018944 1_555
Co0 O4 2.018944 1_555
Co0 O0 2.018944 1_555
Co0 O1 2.018944 1_554
Co0 O5 2.018944 1_554
Co1 O3 2.018944 1_555
Co1 O1 2.018944 1_555
Co1 O0 2.018944 1_555
Co1 O7 2.018944 1_555
Co1 O5 2.018944 1_555
Co1 O2 2.018944 1_555
Co2 O5 2.018944 1_545
Co2 O4 2.018944 1_555
Co2 O0 2.018944 1_555
Co2 O6 2.018944 1_545
Co2 O2 2.018944 1_545
Co2 O7 2.018944 1_555
Co3 O4 2.018944 1_555
Co3 O6 2.018944 1_455
Co3 O2 2.018944 1_455
Co3 O3 2.018944 1_555
Co3 O1 2.018944 1_455
Co3 O7 2.018944 1_555
Hg0 O2 2.229181 1_445
Hg0 O1 2.229181 1_454
Hg0 O5 2.229181 1_544
Hg0 O6 2.229181 1_444
Hg1 O7 2.229181 1_554
Hg1 O0 2.229181 1_455
Hg1 O3 2.229181 1_545
Hg1 O4 2.229181 1_555
