# generated using pymatgen
data_SrTaNO2
_symmetry_space_group_name_H-M   'P 1'
_cell_length_a   8.06741800
_cell_length_b   5.77452400
_cell_length_c   5.79524320
_cell_angle_alpha   89.61593872
_cell_angle_beta   90.00000000
_cell_angle_gamma   90.00000000
_symmetry_Int_Tables_number   1
_chemical_formula_structural   SrTaNO2
_chemical_formula_sum   'Sr4 Ta4 N4 O8'
_cell_volume   269.96823005
_cell_formula_units_Z   4
loop_
 _symmetry_equiv_pos_site_id
 _symmetry_equiv_pos_as_xyz
  1  'x, y, z'
loop_
 _atom_site_type_symbol
 _atom_site_label
 _atom_site_symmetry_multiplicity
 _atom_site_fract_x
 _atom_site_fract_y
 _atom_site_fract_z
 _atom_site_occupancy
  Sr  Sr0  1  0.75300500  0.99567000  0.99514300  1
  Sr  Sr1  1  0.75112300  0.49455400  0.49428300  1
  Sr  Sr2  1  0.25112300  0.50544600  0.50571700  1
  Sr  Sr3  1  0.25300500  0.00433000  0.00485700  1
  Ta  Ta0  1  0.50150500  0.99583300  0.51642100  1
  Ta  Ta1  1  0.00150500  0.00416700  0.48357900  1
  Ta  Ta2  1  0.00202900  0.50463500  0.01643300  1
  Ta  Ta3  1  0.50202900  0.49536500  0.98356700  1
  N  N0  1  0.99998200  0.76360700  0.23377300  1
  N  N1  1  0.52543700  0.73657300  0.73371100  1
  N  N2  1  0.02543700  0.26342700  0.26628900  1
  N  N3  1  0.49998200  0.23639300  0.76622700  1
  O  O0  1  0.49838900  0.77726700  0.22855600  1
  O  O1  1  0.74909800  0.47436700  0.03073600  1
  O  O2  1  0.24927400  0.97054300  0.52675900  1
  O  O3  1  0.97015700  0.72330400  0.72949100  1
  O  O4  1  0.47015700  0.27669600  0.27050900  1
  O  O5  1  0.24909800  0.52563300  0.96926400  1
  O  O6  1  0.74927400  0.02945700  0.47324100  1
  O  O7  1  0.99838900  0.22273300  0.77144400  1
loop_
_geom_bond_atom_site_label_1
_geom_bond_atom_site_label_2
_geom_bond_distance
_geom_bond_site_symmetry_2
N0 Ta2 1.961709 1_655
N0 Ta1 2.013097 1_665
N0 Sr0 2.766457 1_554
N0 Sr3 2.798955 1_665
N0 Sr1 2.948271 1_555
N0 Sr2 2.963021 1_655
N1 Ta0 1.959343 1_555
N1 Ta3 2.011298 1_555
N1 Sr1 2.686888 1_555
N1 Sr0 2.816874 1_555
N1 Sr2 2.906562 1_555
N1 Sr3 3.118140 1_566
N2 Ta1 1.959343 1_555
N2 Ta2 2.011298 1_555
N2 Sr2 2.686888 1_555
N2 Sr3 2.816874 1_555
N2 Sr1 2.906562 1_455
N2 Sr0 3.118140 1_444
N3 Ta3 1.961709 1_555
N3 Ta0 2.013097 1_545
N3 Sr3 2.766457 1_556
N3 Sr0 2.798955 1_545
N3 Sr2 2.948271 1_555
N3 Sr1 2.963021 1_555
O0 Ta0 2.098772 1_555
O0 Ta3 2.167370 1_554
O0 Sr3 2.701094 1_565
O0 Sr0 2.759845 1_554
O0 Sr2 2.998184 1_555
O0 Sr1 3.026561 1_555
O1 Ta3 2.015406 1_554
O1 Ta2 2.049601 1_655
O1 Sr1 2.689726 1_555
O1 Sr0 2.773490 1_544
O1 Sr0 3.016120 1_554
O1 Sr1 3.110322 1_554
O2 Ta1 2.023634 1_565
O2 Ta0 2.040937 1_555
O2 Sr2 2.689339 1_555
O2 Sr3 2.779022 1_566
O2 Sr3 3.029679 1_565
O2 Sr2 3.090436 1_565
O3 Ta2 2.097053 1_656
O3 Ta1 2.166642 1_665
O3 Sr1 2.597962 1_555
O3 Sr0 2.818728 1_555
O3 Sr2 2.902421 1_655
O3 Sr3 3.228257 1_666
O4 Ta3 2.097053 1_554
O4 Ta0 2.166642 1_545
O4 Sr2 2.597962 1_555
O4 Sr3 2.818728 1_555
O4 Sr1 2.902421 1_555
O4 Sr0 3.228257 1_544
O5 Ta2 2.015406 1_556
O5 Ta3 2.049601 1_555
O5 Sr2 2.689726 1_555
O5 Sr3 2.773490 1_566
O5 Sr3 3.016120 1_556
O5 Sr2 3.110322 1_556
O6 Ta0 2.023634 1_545
O6 Ta1 2.040937 1_655
O6 Sr1 2.689339 1_555
O6 Sr0 2.779022 1_544
O6 Sr0 3.029679 1_545
O6 Sr1 3.090436 1_545
O7 Ta1 2.098772 1_655
O7 Ta2 2.167370 1_656
O7 Sr0 2.701094 1_545
O7 Sr3 2.759845 1_656
O7 Sr1 2.998184 1_555
O7 Sr2 3.026561 1_655
