# generated using pymatgen
data_Li5Mn3(NiO5)2
_symmetry_space_group_name_H-M   'P 1'
_cell_length_a   5.04879229
_cell_length_b   5.15040182
_cell_length_c   7.87258211
_cell_angle_alpha   107.37075584
_cell_angle_beta   102.90080174
_cell_angle_gamma   99.42651766
_symmetry_Int_Tables_number   1
_chemical_formula_structural   Li5Mn3(NiO5)2
_chemical_formula_sum   'Li5 Mn3 Ni2 O10'
_cell_volume   184.51007405
_cell_formula_units_Z   1
loop_
 _symmetry_equiv_pos_site_id
 _symmetry_equiv_pos_as_xyz
  1  'x, y, z'
loop_
 _atom_site_type_symbol
 _atom_site_label
 _atom_site_symmetry_multiplicity
 _atom_site_fract_x
 _atom_site_fract_y
 _atom_site_fract_z
 _atom_site_occupancy
  Li  Li0  1  0.19754300  0.93456000  0.42497700  1
  Li  Li1  1  0.39203200  0.28042900  0.76468000  1
  Li  Li2  1  0.49999900  0.49999600  0.50000000  1
  Li  Li3  1  0.60796600  0.71956200  0.23532000  1
  Li  Li4  1  0.80245500  0.06543200  0.57502300  1
  Mn  Mn0  1  0.00001700  0.50005400  0.00000300  1
  Mn  Mn1  1  0.69086300  0.89816800  0.89450700  1
  Mn  Mn2  1  0.30913600  0.10182800  0.10549500  1
  Ni  Ni0  1  0.09849000  0.68773500  0.68244200  1
  Ni  Ni1  1  0.90151200  0.31226500  0.31755400  1
  O  O0  1  0.03834100  0.11065300  0.87154600  1
  O  O1  1  0.36275300  0.73900300  0.95591900  1
  O  O2  1  0.14331000  0.30604800  0.55269300  1
  O  O3  1  0.23594000  0.45947200  0.21785800  1
  O  O4  1  0.47514900  0.90656800  0.67390500  1
  O  O5  1  0.52484900  0.09342500  0.32609500  1
  O  O6  1  0.76405600  0.54052300  0.78214000  1
  O  O7  1  0.85668800  0.69394500  0.44730700  1
  O  O8  1  0.63724600  0.26099000  0.04408100  1
  O  O9  1  0.96165700  0.88934400  0.12845500  1
loop_
_geom_bond_atom_site_label_1
_geom_bond_atom_site_label_2
_geom_bond_distance
_geom_bond_site_symmetry_2
Li0 O2 1.972949 1_565
Li0 O7 2.023557 1_455
Li0 O5 2.125575 1_565
Li0 O4 2.198652 1_555
Li0 O9 2.294582 1_455
Li0 O3 2.568615 1_555
Li1 O2 1.905115 1_555
Li1 O4 1.992843 1_545
Li1 O6 2.071684 1_555
Li1 O0 2.293425 1_555
Li1 O8 2.310226 1_556
Li1 O1 2.440762 1_555
Li2 O2 2.098741 1_555
Li2 O7 2.098743 1_555
Li2 O5 2.173916 1_555
Li2 O4 2.173920 1_555
Li2 O6 2.250392 1_555
Li2 O3 2.250413 1_555
Li3 O7 1.905110 1_555
Li3 O5 1.992852 1_565
Li3 O3 2.071677 1_555
Li3 O9 2.293431 1_555
Li3 O1 2.310229 1_554
Li3 O8 2.440756 1_555
Li4 O7 1.972945 1_545
Li4 O2 2.023559 1_655
Li4 O4 2.125573 1_545
Li4 O5 2.198654 1_555
Li4 O0 2.294581 1_655
Li4 O6 2.568625 1_555
Mn0 O6 1.945975 1_454
Mn0 O3 1.946117 1_555
Mn0 O9 2.020926 1_455
Mn0 O0 2.021358 1_554
Mn0 O1 2.188501 1_554
Mn0 O8 2.188895 1_455
Mn1 O4 1.849289 1_555
Mn1 O6 1.925641 1_555
Mn1 O1 1.949203 1_555
Mn1 O0 1.984665 1_665
Mn1 O8 1.986446 1_566
Mn1 O9 2.051669 1_556
Mn2 O5 1.849281 1_555
Mn2 O3 1.925636 1_555
Mn2 O8 1.949206 1_555
Mn2 O9 1.984664 1_445
Mn2 O1 1.986463 1_544
Mn2 O0 2.051679 1_554
Ni0 O7 1.989244 1_455
Ni0 O2 2.002258 1_555
Ni0 O4 2.071570 1_555
Ni0 O6 2.137673 1_455
Ni0 O1 2.178901 1_555
Ni0 O0 2.352738 1_565
Ni1 O2 1.989275 1_655
Ni1 O7 2.002243 1_555
Ni1 O5 2.071614 1_555
Ni1 O3 2.137630 1_655
Ni1 O8 2.178871 1_555
Ni1 O9 2.352726 1_545
