# generated using pymatgen
data_Fe7(PO5)4
_symmetry_space_group_name_H-M   'P 1'
_cell_length_a   15.21372100
_cell_length_b   7.36920600
_cell_length_c   7.40731140
_cell_angle_alpha   61.93719596
_cell_angle_beta   90.00000000
_cell_angle_gamma   90.00000000
_symmetry_Int_Tables_number   1
_chemical_formula_structural   Fe7(PO5)4
_chemical_formula_sum   'Fe14 P8 O40'
_cell_volume   732.82153117
_cell_formula_units_Z   2
loop_
 _symmetry_equiv_pos_site_id
 _symmetry_equiv_pos_as_xyz
  1  'x, y, z'
loop_
 _atom_site_type_symbol
 _atom_site_label
 _atom_site_symmetry_multiplicity
 _atom_site_fract_x
 _atom_site_fract_y
 _atom_site_fract_z
 _atom_site_occupancy
  Fe  Fe0  1  0.50000000  0.50000000  0.50000000  1
  Fe  Fe1  1  0.38703000  0.71925100  0.77096400  1
  Fe  Fe2  1  0.37322300  0.23938500  0.75278000  1
  Fe  Fe3  1  0.25122700  0.98838200  0.51450600  1
  Fe  Fe4  1  0.11297000  0.71925100  0.27096400  1
  Fe  Fe5  1  0.24877300  0.98838200  0.01450600  1
  Fe  Fe6  1  0.87322300  0.76061500  0.74722000  1
  Fe  Fe7  1  0.12677700  0.23938500  0.25278000  1
  Fe  Fe8  1  0.00000000  0.50000000  0.00000000  1
  Fe  Fe9  1  0.88703000  0.28074900  0.72903600  1
  Fe  Fe10  1  0.74877300  0.01161800  0.48549400  1
  Fe  Fe11  1  0.62677700  0.76061500  0.24722000  1
  Fe  Fe12  1  0.75122700  0.01161800  0.98549400  1
  Fe  Fe13  1  0.61297000  0.28074900  0.22903600  1
  P  P0  1  0.43739600  0.99830800  0.25750200  1
  P  P1  1  0.18941600  0.49421500  0.74715800  1
  P  P2  1  0.31058400  0.49421500  0.24715800  1
  P  P3  1  0.06260400  0.99830800  0.75750200  1
  P  P4  1  0.68941600  0.50578500  0.75284200  1
  P  P5  1  0.93739600  0.00169200  0.24249800  1
  P  P6  1  0.81058400  0.50578500  0.25284200  1
  P  P7  1  0.56260400  0.00169200  0.74249800  1
  O  O0  1  0.49644900  0.80845600  0.30025600  1
  O  O1  1  0.42801800  0.49655800  0.72181500  1
  O  O2  1  0.37611600  0.93286500  0.44607000  1
  O  O3  1  0.36529900  0.54564700  0.05852800  1
  O  O4  1  0.25023300  0.67854400  0.71047100  1
  O  O5  1  0.49595900  0.17997400  0.21576000  1
  O  O6  1  0.12388400  0.93286500  0.94607000  1
  O  O7  1  0.13470100  0.54564700  0.55852800  1
  O  O8  1  0.37687500  0.05105300  0.06877000  1
  O  O9  1  0.31521300  0.99029700  0.75872300  1
  O  O10  1  0.25013600  0.30299500  0.80810000  1
  O  O11  1  0.24976700  0.67854400  0.21047100  1
  O  O12  1  0.37307100  0.43128300  0.43282700  1
  O  O13  1  0.12692900  0.43128300  0.93282700  1
  O  O14  1  0.24986400  0.30299500  0.30810000  1
  O  O15  1  0.00355100  0.80845600  0.80025600  1
  O  O16  1  0.12312500  0.05105300  0.56877000  1
  O  O17  1  0.18478700  0.99029700  0.25872300  1
  O  O18  1  0.92801800  0.50344200  0.77818500  1
  O  O19  1  0.07198200  0.49655800  0.22181500  1
  O  O20  1  0.00404100  0.17997400  0.71576000  1
  O  O21  1  0.99595900  0.82002600  0.28424000  1
  O  O22  1  0.87687500  0.94894700  0.43123000  1
  O  O23  1  0.99644900  0.19154400  0.19974400  1
  O  O24  1  0.75013600  0.69700500  0.69190000  1
  O  O25  1  0.87307100  0.56871700  0.06717300  1
  O  O26  1  0.87611600  0.06713500  0.05393000  1
  O  O27  1  0.62692900  0.56871700  0.56717300  1
  O  O28  1  0.75023300  0.32145600  0.78952900  1
  O  O29  1  0.86529900  0.45435300  0.44147200  1
  O  O30  1  0.81521300  0.00970300  0.74127700  1
  O  O31  1  0.62312500  0.94894700  0.93123000  1
  O  O32  1  0.74986400  0.69700500  0.19190000  1
  O  O33  1  0.63470100  0.45435300  0.94147200  1
  O  O34  1  0.50404100  0.82002600  0.78424000  1
  O  O35  1  0.74976700  0.32145600  0.28952900  1
  O  O36  1  0.62388400  0.06713500  0.55393000  1
  O  O37  1  0.50355100  0.19154400  0.69974400  1
  O  O38  1  0.57198200  0.50344200  0.27818500  1
  O  O39  1  0.68478700  0.00970300  0.24127700  1
loop_
_geom_bond_atom_site_label_1
_geom_bond_atom_site_label_2
_geom_bond_distance
_geom_bond_site_symmetry_2
Fe0 O1 1.964772 1_555
Fe0 O38 1.964772 1_555
Fe0 O0 2.048067 1_555
Fe0 O37 2.048067 1_555
Fe0 O27 2.114256 1_555
Fe0 O12 2.114256 1_555
Fe1 O3 1.928536 1_556
Fe1 O1 1.943357 1_555
Fe1 O34 1.949077 1_555
Fe1 O2 2.175512 1_555
Fe1 O4 2.179128 1_555
Fe1 O9 2.240800 1_555
Fe2 O1 1.982474 1_555
Fe2 O9 2.018454 1_545
Fe2 O10 2.018674 1_555
Fe2 O37 2.083346 1_555
Fe2 O8 2.086001 1_556
Fe2 O12 2.112653 1_555
Fe3 O4 2.049927 1_555
Fe3 O2 2.056595 1_555
Fe3 O9 2.060171 1_555
Fe3 O16 2.085128 1_565
Fe3 O14 2.092384 1_565
Fe3 O17 2.141614 1_555
Fe4 O7 1.928536 1_555
Fe4 O19 1.943357 1_555
Fe4 O21 1.949077 1_455
Fe4 O6 2.175512 1_554
Fe4 O11 2.179128 1_555
Fe4 O17 2.240800 1_555
Fe5 O11 2.049927 1_555
Fe5 O6 2.056595 1_554
Fe5 O17 2.060171 1_555
Fe5 O8 2.085128 1_565
Fe5 O10 2.092384 1_564
Fe5 O9 2.141614 1_554
Fe6 O18 1.982474 1_555
Fe6 O30 2.018454 1_565
Fe6 O24 2.018674 1_555
Fe6 O15 2.083346 1_655
Fe6 O22 2.086001 1_555
Fe6 O25 2.112653 1_556
Fe7 O19 1.982474 1_555
Fe7 O17 2.018454 1_545
Fe7 O14 2.018674 1_555
Fe7 O23 2.083346 1_455
Fe7 O16 2.086001 1_555
Fe7 O13 2.112653 1_554
Fe8 O19 1.964772 1_555
Fe8 O18 1.964772 1_454
Fe8 O15 2.048067 1_554
Fe8 O23 2.048067 1_455
Fe8 O25 2.114256 1_455
Fe8 O13 2.114256 1_554
Fe9 O29 1.928536 1_555
Fe9 O18 1.943357 1_555
Fe9 O20 1.949077 1_655
Fe9 O26 2.175512 1_556
Fe9 O28 2.179128 1_555
Fe9 O30 2.240800 1_555
Fe10 O35 2.049927 1_555
Fe10 O36 2.056595 1_555
Fe10 O39 2.060171 1_555
Fe10 O22 2.085128 1_545
Fe10 O24 2.092384 1_545
Fe10 O30 2.141614 1_555
Fe11 O38 1.982474 1_555
Fe11 O39 2.018454 1_565
Fe11 O32 2.018674 1_555
Fe11 O0 2.083346 1_555
Fe11 O31 2.086001 1_554
Fe11 O27 2.112653 1_555
Fe12 O28 2.049927 1_555
Fe12 O26 2.056595 1_556
Fe12 O30 2.060171 1_555
Fe12 O31 2.085128 1_545
Fe12 O32 2.092384 1_546
Fe12 O39 2.141614 1_556
Fe13 O33 1.928536 1_554
Fe13 O38 1.943357 1_555
Fe13 O5 1.949077 1_555
Fe13 O36 2.175512 1_555
Fe13 O35 2.179128 1_555
Fe13 O39 2.240800 1_555
O0 P0 1.564587 1_555
O2 P0 1.555302 1_555
O3 P2 1.513470 1_555
O4 P1 1.558129 1_555
O5 P0 1.513990 1_545
O6 P3 1.555302 1_555
O7 P1 1.513470 1_555
O8 P0 1.562688 1_545
O10 P1 1.563430 1_555
O11 P2 1.558129 1_555
O12 P2 1.552481 1_555
O13 P1 1.552481 1_555
O14 P2 1.563430 1_555
O15 P3 1.564587 1_555
O16 P3 1.562688 1_545
O20 P3 1.513990 1_545
O21 P5 1.513990 1_565
O22 P5 1.562688 1_565
O23 P5 1.564587 1_555
O24 P4 1.563430 1_555
O25 P6 1.552481 1_555
O26 P5 1.555302 1_555
O27 P4 1.552481 1_555
O28 P4 1.558129 1_555
O29 P6 1.513470 1_555
O31 P7 1.562688 1_565
O32 P6 1.563430 1_555
O33 P4 1.513470 1_555
O34 P7 1.513990 1_565
O35 P6 1.558129 1_555
O36 P7 1.555302 1_555
O37 P7 1.564587 1_555
