# generated using pymatgen
data_B2TeO5
_symmetry_space_group_name_H-M   'P 1'
_cell_length_a   7.22592049
_cell_length_b   7.22592049
_cell_length_c   9.71870794
_cell_angle_alpha   74.66780706
_cell_angle_beta   74.66780706
_cell_angle_gamma   89.34929463
_symmetry_Int_Tables_number   1
_chemical_formula_structural   B2TeO5
_chemical_formula_sum   'B8 Te4 O20'
_cell_volume   471.03688188
_cell_formula_units_Z   4
loop_
 _symmetry_equiv_pos_site_id
 _symmetry_equiv_pos_as_xyz
  1  'x, y, z'
loop_
 _atom_site_type_symbol
 _atom_site_label
 _atom_site_symmetry_multiplicity
 _atom_site_fract_x
 _atom_site_fract_y
 _atom_site_fract_z
 _atom_site_occupancy
  B  B0  1  0.37138800  0.86027000  0.86904700  1
  B  B1  1  0.25440900  0.10247400  0.00436600  1
  B  B2  1  0.86027000  0.37138800  0.36904700  1
  B  B3  1  0.10247400  0.25440900  0.50436600  1
  B  B4  1  0.89752600  0.74559100  0.49563400  1
  B  B5  1  0.13973000  0.62861200  0.63095300  1
  B  B6  1  0.74559100  0.89752600  0.99563400  1
  B  B7  1  0.62861200  0.13973000  0.13095300  1
  Te  Te0  1  0.38100900  0.27035000  0.67350000  1
  Te  Te1  1  0.27035000  0.38100900  0.17350000  1
  Te  Te2  1  0.72965000  0.61899100  0.82650000  1
  Te  Te3  1  0.61899100  0.72965000  0.32650000  1
  O  O0  1  0.44424200  0.68093800  0.88974900  1
  O  O1  1  0.39531600  0.98126800  0.73146800  1
  O  O2  1  0.68093800  0.44424200  0.38974900  1
  O  O3  1  0.27250200  0.26369600  0.88363900  1
  O  O4  1  0.78525200  0.86724700  0.85616700  1
  O  O5  1  0.98126800  0.39531600  0.23146800  1
  O  O6  1  0.91620800  0.27930900  0.49766700  1
  O  O7  1  0.72069100  0.08379200  0.00233300  1
  O  O8  1  0.26369600  0.27250200  0.38363900  1
  O  O9  1  0.86724700  0.78525200  0.35616700  1
  O  O10  1  0.13275300  0.21474800  0.64383300  1
  O  O11  1  0.73630400  0.72749800  0.61636100  1
  O  O12  1  0.27930900  0.91620800  0.99766700  1
  O  O13  1  0.08379200  0.72069100  0.50233300  1
  O  O14  1  0.01873200  0.60468400  0.76853200  1
  O  O15  1  0.21474800  0.13275300  0.14383300  1
  O  O16  1  0.72749800  0.73630400  0.11636100  1
  O  O17  1  0.31906200  0.55575800  0.61025100  1
  O  O18  1  0.60468400  0.01873200  0.26853200  1
  O  O19  1  0.55575800  0.31906200  0.11025100  1
loop_
_geom_bond_atom_site_label_1
_geom_bond_atom_site_label_2
_geom_bond_distance
_geom_bond_site_symmetry_2
B0 O1 1.358342 1_555
B0 O0 1.378208 1_555
B0 O12 1.410633 1_555
B1 O12 1.372159 1_544
B1 O15 1.384630 1_555
B1 O3 1.396572 1_554
B2 O5 1.358342 1_555
B2 O2 1.378208 1_555
B2 O6 1.410633 1_555
B3 O6 1.372159 1_455
B3 O10 1.384630 1_555
B3 O8 1.396572 1_555
B4 O13 1.372159 1_655
B4 O9 1.384630 1_555
B4 O11 1.396572 1_555
B5 O14 1.358342 1_555
B5 O17 1.378208 1_555
B5 O13 1.410633 1_555
B6 O7 1.372159 1_566
B6 O4 1.384630 1_555
B6 O16 1.396572 1_556
B7 O18 1.358342 1_555
B7 O19 1.378208 1_555
B7 O7 1.410633 1_555
O0 Te2 2.070166 1_555
O1 Te0 2.023628 1_565
O2 Te3 2.070166 1_555
O3 Te0 1.972333 1_555
O4 Te2 1.952871 1_555
O5 Te1 2.023628 1_655
O8 Te1 1.972333 1_555
O9 Te3 1.952871 1_555
O10 Te0 1.952871 1_555
O11 Te2 1.972333 1_555
O14 Te2 2.023628 1_455
O15 Te1 1.952871 1_555
O16 Te3 1.972333 1_555
O17 Te0 2.070166 1_555
O18 Te3 2.023628 1_545
O19 Te1 2.070166 1_555
