# generated using pymatgen
data_Fe5(P2O7)4
_symmetry_space_group_name_H-M   'P 1'
_cell_length_a   9.48734700
_cell_length_b   10.76542098
_cell_length_c   12.70515740
_cell_angle_alpha   80.15371102
_cell_angle_beta   73.86739141
_cell_angle_gamma   63.91135098
_symmetry_Int_Tables_number   1
_chemical_formula_structural   Fe5(P2O7)4
_chemical_formula_sum   'Fe10 P16 O56'
_cell_volume   1117.74720204
_cell_formula_units_Z   2
loop_
 _symmetry_equiv_pos_site_id
 _symmetry_equiv_pos_as_xyz
  1  'x, y, z'
loop_
 _atom_site_type_symbol
 _atom_site_label
 _atom_site_symmetry_multiplicity
 _atom_site_fract_x
 _atom_site_fract_y
 _atom_site_fract_z
 _atom_site_occupancy
  Fe  Fe0  1  0.62043700  0.28778600  0.12181900  1
  Fe  Fe1  1  0.79988500  0.00773400  0.75970900  1
  Fe  Fe2  1  0.74708900  0.74287400  0.94053800  1
  Fe  Fe3  1  0.25291100  0.25712600  0.05946200  1
  Fe  Fe4  1  0.77122000  0.74794700  0.43165300  1
  Fe  Fe5  1  0.20011500  0.99226600  0.24029100  1
  Fe  Fe6  1  0.22878000  0.25205300  0.56834700  1
  Fe  Fe7  1  0.39739700  0.70386000  0.39350300  1
  Fe  Fe8  1  0.37956300  0.71221400  0.87818100  1
  Fe  Fe9  1  0.60260300  0.29614000  0.60649700  1
  P  P0  1  0.13481800  0.71209500  0.28918900  1
  P  P1  1  0.64299900  0.81058000  0.69198700  1
  P  P2  1  0.72828600  0.45622100  0.90152200  1
  P  P3  1  0.34097200  0.96345300  0.45418800  1
  P  P4  1  0.34832500  0.94822300  0.96196500  1
  P  P5  1  0.63048100  0.80778400  0.19377800  1
  P  P6  1  0.65902800  0.03654700  0.54581200  1
  P  P7  1  0.24610200  0.54224800  0.59940800  1
  P  P8  1  0.36951900  0.19221600  0.80622200  1
  P  P9  1  0.91131000  0.28649200  0.21078200  1
  P  P10  1  0.27171400  0.54377900  0.09847800  1
  P  P11  1  0.86518200  0.28790500  0.71081100  1
  P  P12  1  0.65167500  0.05177700  0.03803500  1
  P  P13  1  0.08869000  0.71350800  0.78921800  1
  P  P14  1  0.75389800  0.45775200  0.40059200  1
  P  P15  1  0.35700100  0.18942000  0.30801300  1
  O  O0  1  0.88978100  0.39916300  0.29012200  1
  O  O1  1  0.72182800  0.95047800  0.44743700  1
  O  O2  1  0.80437300  0.55068600  0.44480700  1
  O  O3  1  0.41105300  0.03762100  0.86192500  1
  O  O4  1  0.43844300  0.47031200  0.12311900  1
  O  O5  1  0.72167200  0.78059700  0.28230200  1
  O  O6  1  0.02103100  0.30638800  0.10261200  1
  O  O7  1  0.54272800  0.18684200  0.75907000  1
  O  O8  1  0.53511900  0.18706200  0.52890600  1
  O  O9  1  0.24414200  0.27608600  0.40469500  1
  O  O10  1  0.78790600  0.55501500  0.92770700  1
  O  O11  1  0.13613400  0.61725700  0.20467100  1
  O  O12  1  0.25975300  0.66480500  0.01589500  1
  O  O13  1  0.74986200  0.32921600  0.47218100  1
  O  O14  1  0.25013800  0.67078400  0.52781900  1
  O  O15  1  0.11920100  0.85613400  0.23460700  1
  O  O16  1  0.55962300  0.96770300  0.64238500  1
  O  O17  1  0.27832800  0.21940300  0.71769800  1
  O  O18  1  0.74024700  0.33519500  0.98410500  1
  O  O19  1  0.27682500  0.03412300  0.06579700  1
  O  O20  1  0.23433100  0.90871100  0.92618900  1
  O  O21  1  0.25887400  0.68002300  0.79629500  1
  O  O22  1  0.19562700  0.44931400  0.55519300  1
  O  O23  1  0.26806300  0.28697900  0.90067600  1
  O  O24  1  0.74112600  0.31997700  0.20370500  1
  O  O25  1  0.11021900  0.60083700  0.70987800  1
  O  O26  1  0.73193700  0.71302100  0.09932400  1
  O  O27  1  0.49534700  0.22822000  0.25246400  1
  O  O28  1  0.21578300  0.95111600  0.40224800  1
  O  O29  1  0.44037700  0.03229700  0.35761500  1
  O  O30  1  0.50063300  0.81309700  0.97108000  1
  O  O31  1  0.45727200  0.81315800  0.24093000  1
  O  O32  1  0.00469000  0.28410000  0.61581400  1
  O  O33  1  0.46488100  0.81293800  0.47109400  1
  O  O34  1  0.97896900  0.69361200  0.89738800  1
  O  O35  1  0.86386600  0.38274300  0.79532900  1
  O  O36  1  0.56155700  0.52968800  0.87688100  1
  O  O37  1  0.40973000  0.45868100  0.63024800  1
  O  O38  1  0.58894700  0.96237900  0.13807500  1
  O  O39  1  0.70095800  0.36491200  0.68148800  1
  O  O40  1  0.29904200  0.63508800  0.31851200  1
  O  O41  1  0.21209400  0.44498500  0.07229300  1
  O  O42  1  0.72317500  0.96587700  0.93420300  1
  O  O43  1  0.59027000  0.54131900  0.36975200  1
  O  O44  1  0.26867500  0.17555000  0.22594700  1
  O  O45  1  0.75585800  0.72391400  0.59530500  1
  O  O46  1  0.49936700  0.18690300  0.02892000  1
  O  O47  1  0.99531000  0.71590000  0.38418600  1
  O  O48  1  0.98835300  0.13990000  0.26459600  1
  O  O49  1  0.01164700  0.86010000  0.73540400  1
  O  O50  1  0.27817200  0.04952200  0.55256300  1
  O  O51  1  0.76566900  0.09128900  0.07381100  1
  O  O52  1  0.73132500  0.82445000  0.77405300  1
  O  O53  1  0.50465300  0.77178000  0.74753600  1
  O  O54  1  0.88079900  0.14386600  0.76539300  1
  O  O55  1  0.78421700  0.04888400  0.59775200  1
loop_
_geom_bond_atom_site_label_1
_geom_bond_atom_site_label_2
_geom_bond_distance
_geom_bond_site_symmetry_2
Fe0 O24 1.909936 1_555
Fe0 O18 1.927042 1_554
Fe0 O27 1.945605 1_555
Fe0 O4 1.963129 1_555
Fe0 O51 2.038640 1_555
Fe0 O46 2.486153 1_555
Fe1 O49 1.916347 1_645
Fe1 O54 1.949036 1_555
Fe1 O55 2.062215 1_555
Fe1 O42 2.167443 1_545
Fe1 O52 2.299888 1_545
Fe1 O7 2.353382 1_555
Fe2 O10 1.911918 1_555
Fe2 O34 1.955647 1_555
Fe2 O26 1.962545 1_556
Fe2 O30 2.056879 1_555
Fe2 O52 2.166269 1_555
Fe2 O42 2.299222 1_555
Fe3 O41 1.911918 1_555
Fe3 O6 1.955647 1_555
Fe3 O23 1.962545 1_554
Fe3 O46 2.056879 1_555
Fe3 O44 2.166269 1_555
Fe3 O19 2.299222 1_555
Fe4 O47 1.927749 1_555
Fe4 O2 1.989193 1_555
Fe4 O5 2.016779 1_555
Fe4 O45 2.022902 1_555
Fe4 O1 2.052402 1_555
Fe4 O33 2.590284 1_555
Fe5 O48 1.916347 1_465
Fe5 O15 1.949036 1_555
Fe5 O28 2.062215 1_555
Fe5 O19 2.167443 1_565
Fe5 O44 2.299888 1_565
Fe5 O31 2.353382 1_555
Fe6 O32 1.927749 1_555
Fe6 O22 1.989193 1_555
Fe6 O17 2.016779 1_555
Fe6 O9 2.022902 1_555
Fe6 O50 2.052402 1_555
Fe6 O8 2.590284 1_555
Fe7 O43 1.886498 1_555
Fe7 O40 1.915614 1_555
Fe7 O14 1.973733 1_555
Fe7 O33 2.041700 1_555
Fe7 O31 2.158856 1_555
Fe7 O28 2.455070 1_555
Fe8 O21 1.909936 1_555
Fe8 O12 1.927042 1_556
Fe8 O53 1.945605 1_555
Fe8 O36 1.963129 1_555
Fe8 O20 2.038640 1_555
Fe8 O30 2.486153 1_555
Fe9 O37 1.886498 1_555
Fe9 O39 1.915614 1_555
Fe9 O13 1.973733 1_555
Fe9 O8 2.041700 1_555
Fe9 O7 2.158856 1_555
Fe9 O55 2.455070 1_555
O0 P14 1.616103 1_555
O0 P9 1.617078 1_555
O1 P6 1.507444 1_565
O2 P14 1.519518 1_555
O3 P4 1.600290 1_545
O3 P8 1.612858 1_555
O4 P10 1.521795 1_555
O5 P5 1.518090 1_555
O6 P9 1.522703 1_455
O7 P8 1.563267 1_555
O8 P6 1.549062 1_555
O9 P15 1.519288 1_555
O10 P2 1.521998 1_555
O11 P0 1.597470 1_555
O11 P10 1.614396 1_555
O12 P10 1.509929 1_555
O13 P14 1.529801 1_555
O14 P7 1.529801 1_555
O15 P0 1.547449 1_555
O16 P6 1.613955 1_565
O16 P1 1.618538 1_555
O17 P8 1.518090 1_555
O18 P2 1.509929 1_555
O19 P4 1.556860 1_544
O20 P4 1.516938 1_555
O21 P13 1.517442 1_555
O22 P7 1.519518 1_555
O23 P8 1.523317 1_555
O24 P9 1.517442 1_555
O25 P7 1.616103 1_555
O25 P13 1.617078 1_555
O26 P5 1.523317 1_555
O27 P15 1.503963 1_555
O28 P3 1.571003 1_555
O29 P3 1.613955 1_545
O29 P15 1.618538 1_555
O30 P4 1.550533 1_555
O31 P5 1.563267 1_555
O32 P11 1.513835 1_455
O33 P3 1.549062 1_555
O34 P13 1.522703 1_655
O35 P11 1.597470 1_555
O35 P2 1.614396 1_555
O36 P2 1.521795 1_555
O37 P7 1.536861 1_555
O38 P12 1.600290 1_565
O38 P5 1.612858 1_555
O39 P11 1.527904 1_555
O40 P0 1.527904 1_555
O41 P10 1.521998 1_555
O42 P12 1.556860 1_566
O43 P14 1.536861 1_555
O44 P15 1.568596 1_555
O45 P1 1.519288 1_555
O46 P12 1.550533 1_555
O47 P0 1.513835 1_655
O48 P9 1.544789 1_555
O49 P13 1.544789 1_555
O50 P3 1.507444 1_545
O51 P12 1.516938 1_555
O52 P1 1.568596 1_555
O53 P1 1.503963 1_555
O54 P11 1.547449 1_555
O55 P6 1.571003 1_555
