# generated using pymatgen
data_VCu3(PO4)4
_symmetry_space_group_name_H-M   'P 1'
_cell_length_a   5.91198400
_cell_length_b   4.85388500
_cell_length_c   9.78967238
_cell_angle_alpha   89.39078934
_cell_angle_beta   90.00000000
_cell_angle_gamma   90.00000000
_symmetry_Int_Tables_number   1
_chemical_formula_structural   VCu3(PO4)4
_chemical_formula_sum   'V1 Cu3 P4 O16'
_cell_volume   280.90944433
_cell_formula_units_Z   1
loop_
 _symmetry_equiv_pos_site_id
 _symmetry_equiv_pos_as_xyz
  1  'x, y, z'
loop_
 _atom_site_type_symbol
 _atom_site_label
 _atom_site_symmetry_multiplicity
 _atom_site_fract_x
 _atom_site_fract_y
 _atom_site_fract_z
 _atom_site_occupancy
  V  V0  1  0.00000000  0.02755500  0.72232100  1
  Cu  Cu0  1  0.50000000  0.96139900  0.27610100  1
  Cu  Cu1  1  0.50000000  0.57875700  0.78433700  1
  Cu  Cu2  1  0.00000000  0.43263500  0.22212800  1
  P  P0  1  0.00000000  0.91737100  0.39764700  1
  P  P1  1  0.00000000  0.59483500  0.90399500  1
  P  P2  1  0.50000000  0.41824100  0.09670300  1
  P  P3  1  0.50000000  0.06779700  0.59421400  1
  O  O0  1  0.00000000  0.85397500  0.56111400  1
  O  O1  1  0.20767400  0.77078200  0.33755900  1
  O  O2  1  0.79232600  0.77078200  0.33755900  1
  O  O3  1  0.50000000  0.75496700  0.61077400  1
  O  O4  1  0.50000000  0.73062500  0.11335300  1
  O  O5  1  0.19454200  0.75734800  0.82574900  1
  O  O6  1  0.80545800  0.75734800  0.82574900  1
  O  O7  1  0.00000000  0.64704200  0.05543800  1
  O  O8  1  0.50000000  0.35360900  0.94248300  1
  O  O9  1  0.70115200  0.26202800  0.17005300  1
  O  O10  1  0.29884800  0.26202800  0.17005300  1
  O  O11  1  0.00000000  0.28845500  0.86672700  1
  O  O12  1  0.00000000  0.23201000  0.39158900  1
  O  O13  1  0.71393400  0.19408100  0.67319600  1
  O  O14  1  0.28606600  0.19408100  0.67319600  1
  O  O15  1  0.50000000  0.17225100  0.44796000  1
loop_
_geom_bond_atom_site_label_1
_geom_bond_atom_site_label_2
_geom_bond_distance
_geom_bond_site_symmetry_2
Cu0 O4 1.957328 1_555
Cu0 O15 1.978556 1_565
Cu0 O2 2.047675 1_555
Cu0 O1 2.047675 1_555
Cu0 O10 2.142225 1_565
Cu0 O9 2.142225 1_565
Cu1 O8 1.885535 1_555
Cu1 O3 1.894113 1_555
Cu1 O6 2.045585 1_555
Cu1 O5 2.045585 1_555
Cu1 O13 2.512570 1_555
Cu1 O14 2.512570 1_555
Cu2 O12 1.914713 1_555
Cu2 O7 1.926100 1_555
Cu2 O9 2.018950 1_455
Cu2 O10 2.018950 1_555
Cu2 O1 2.348994 1_555
Cu2 O2 2.348994 1_455
O0 P0 1.626389 1_555
O0 V0 1.796871 1_565
O1 P0 1.539028 1_555
O2 P0 1.539028 1_655
O3 P3 1.525356 1_565
O4 P2 1.526734 1_555
O5 P1 1.587118 1_555
O5 V0 2.009960 1_565
O6 P1 1.587118 1_655
O6 V0 2.009960 1_665
O7 P1 1.506731 1_554
O8 P2 1.545275 1_556
O9 P2 1.578984 1_555
O10 P2 1.578984 1_555
O11 P1 1.534996 1_555
O11 V0 1.907956 1_555
O12 P0 1.527742 1_545
O13 P3 1.607269 1_555
O13 V0 1.933023 1_655
O14 P3 1.607269 1_555
O14 V0 1.933023 1_555
O15 P3 1.513807 1_555
