# generated using pymatgen
data_Li3V3P8O29
_symmetry_space_group_name_H-M   'P 1'
_cell_length_a   9.73175700
_cell_length_b   9.77061483
_cell_length_c   14.21053000
_cell_angle_alpha   89.49774415
_cell_angle_beta   89.65793355
_cell_angle_gamma   60.32229468
_symmetry_Int_Tables_number   1
_chemical_formula_structural   Li3V3P8O29
_chemical_formula_sum   'Li6 V6 P16 O58'
_cell_volume   1173.91838192
_cell_formula_units_Z   2
loop_
 _symmetry_equiv_pos_site_id
 _symmetry_equiv_pos_as_xyz
  1  'x, y, z'
loop_
 _atom_site_type_symbol
 _atom_site_label
 _atom_site_symmetry_multiplicity
 _atom_site_fract_x
 _atom_site_fract_y
 _atom_site_fract_z
 _atom_site_occupancy
  Li  Li0  1  0.30646100  0.91636900  0.44438200  1
  Li  Li1  1  0.90277500  0.33195300  0.94048500  1
  Li  Li2  1  0.91625200  0.77720500  0.44432900  1
  Li  Li3  1  0.09507000  0.67208200  0.05335000  1
  Li  Li4  1  0.68347500  0.09224300  0.55829800  1
  Li  Li5  1  0.99873100  0.99907500  0.99351100  1
  V  V0  1  0.00196400  0.43151200  0.74323700  1
  V  V1  1  0.00123500  0.56080400  0.25239000  1
  V  V2  1  0.43395500  0.00183900  0.24012600  1
  V  V3  1  0.56493800  0.99594500  0.76153300  1
  V  V4  1  0.43680800  0.56679000  0.75002100  1
  V  V5  1  0.56389900  0.43405200  0.25143200  1
  P  P0  1  0.30697100  0.77307000  0.15841700  1
  P  P1  1  0.31853100  0.91323800  0.65965400  1
  P  P2  1  0.77060300  0.31385800  0.65588700  1
  P  P3  1  0.67127800  0.65855900  0.86960600  1
  P  P4  1  0.66222000  0.67199500  0.36677100  1
  P  P5  1  0.91120700  0.31382000  0.15955200  1
  P  P6  1  0.08847100  0.22242000  0.34096100  1
  P  P7  1  0.78346500  0.91265400  0.15772700  1
  P  P8  1  0.21528800  0.08616100  0.84129600  1
  P  P9  1  0.90735700  0.77484400  0.66021300  1
  P  P10  1  0.08874200  0.68339300  0.83915300  1
  P  P11  1  0.34188100  0.32918900  0.63255700  1
  P  P12  1  0.33168600  0.33867200  0.13164200  1
  P  P13  1  0.22908500  0.68512900  0.34412600  1
  P  P14  1  0.68093800  0.08642000  0.33950600  1
  P  P15  1  0.69365100  0.22517600  0.84132200  1
  O  O0  1  0.23665400  0.76785500  0.42890700  1
  O  O1  1  0.34472800  0.74377600  0.66998000  1
  O  O2  1  0.19289200  0.00779800  0.92479800  1
  O  O3  1  0.34546600  0.90998800  0.16508200  1
  O  O4  1  0.46306800  0.61490700  0.16999400  1
  O  O5  1  0.52231800  0.66549600  0.82308200  1
  O  O6  1  0.61877600  0.47362400  0.67483000  1
  O  O7  1  0.79702000  0.20699700  0.92307500  1
  O  O8  1  0.73992600  0.34587300  0.17214900  1
  O  O9  1  0.51748000  0.82115400  0.32216600  1
  O  O10  1  0.47729800  0.90648500  0.68498300  1
  O  O11  1  0.65715200  0.52834000  0.32157400  1
  O  O12  1  0.67176300  0.65647900  0.97397300  1
  O  O13  1  0.66260700  0.67586200  0.47101700  1
  O  O14  1  0.81868000  0.50790300  0.82887700  1
  O  O15  1  0.62006400  0.91756800  0.16857400  1
  O  O16  1  0.67369900  0.81021100  0.82793500  1
  O  O17  1  0.91294800  0.34461100  0.66400200  1
  O  O18  1  0.00793600  0.20139100  0.24567000  1
  O  O19  1  0.99997000  0.23462100  0.42754600  1
  O  O20  1  0.98015600  0.24223700  0.06710900  1
  O  O21  1  0.91023600  0.47232000  0.17730400  1
  O  O22  1  0.81680900  0.66877600  0.32561400  1
  O  O23  1  0.08073000  0.26156400  0.83479000  1
  O  O24  1  0.89902200  0.62108000  0.67930700  1
  O  O25  1  0.73909500  0.92021700  0.66601300  1
  O  O26  1  0.19969700  0.01057000  0.74399400  1
  O  O27  1  0.25474100  0.98925900  0.56769300  1
  O  O28  1  0.75150400  0.00186300  0.43019500  1
  O  O29  1  0.25947400  0.07966300  0.33468700  1
  O  O30  1  0.09638900  0.37814700  0.31986400  1
  O  O31  1  0.91923100  0.73765700  0.16473900  1
  O  O32  1  0.18552900  0.33764500  0.67631300  1
  O  O33  1  0.08555300  0.52852200  0.82421800  1
  O  O34  1  0.01665400  0.76607800  0.92912100  1
  O  O35  1  0.98738400  0.76567300  0.56942200  1
  O  O36  1  0.99815600  0.79366600  0.74932600  1
  O  O37  1  0.08339800  0.65885900  0.34166600  1
  O  O38  1  0.32751200  0.18917600  0.17297400  1
  O  O39  1  0.37866300  0.08231000  0.83257600  1
  O  O40  1  0.18314800  0.49054200  0.17422100  1
  O  O41  1  0.32447500  0.34786300  0.02751900  1
  O  O42  1  0.34036200  0.33178500  0.52835700  1
  O  O43  1  0.34521900  0.47252100  0.67918200  1
  O  O44  1  0.52190400  0.09363900  0.31745100  1
  O  O45  1  0.48507500  0.17811200  0.67548500  1
  O  O46  1  0.26096300  0.65052500  0.82948800  1
  O  O47  1  0.20479000  0.79281700  0.25213400  1
  O  O48  1  0.20730500  0.78762800  0.07575900  1
  O  O49  1  0.38104600  0.52523500  0.32499800  1
  O  O50  1  0.47975700  0.33321500  0.17759400  1
  O  O51  1  0.53910300  0.38408700  0.83189300  1
  O  O52  1  0.65278400  0.08976500  0.83541200  1
  O  O53  1  0.80376900  0.99195700  0.07416500  1
  O  O54  1  0.79956700  0.98978500  0.25506600  1
  O  O55  1  0.65571900  0.25516100  0.33349500  1
  O  O56  1  0.76434100  0.23219400  0.57049300  1
  O  O57  1  0.79443900  0.20381800  0.74677000  1
loop_
_geom_bond_atom_site_label_1
_geom_bond_atom_site_label_2
_geom_bond_distance
_geom_bond_site_symmetry_2
Li0 O27 1.867493 1_555
Li0 O0 1.897108 1_555
Li0 O29 2.104057 1_565
Li0 O9 2.488558 1_555
Li1 O7 1.965608 1_555
Li1 O20 1.976906 1_556
Li1 O23 2.129731 1_655
Li1 O14 2.171434 1_555
Li2 O35 1.893629 1_555
Li2 O28 1.985012 1_565
Li2 O37 2.061565 1_655
Li2 O22 2.443558 1_555
Li3 O48 1.949477 1_555
Li3 O34 1.958561 1_554
Li3 O31 2.178094 1_455
Li3 O40 2.299965 1_555
Li4 O56 1.894872 1_555
Li4 O28 1.991702 1_555
Li4 O25 2.127195 1_545
Li4 O45 2.363686 1_555
Li5 O2 2.160327 1_665
Li5 O7 2.240799 1_565
Li5 O53 2.240893 1_556
Li5 O48 2.363847 1_656
Li5 O34 2.385718 1_655
Li5 O20 2.527284 1_566
O0 P13 1.478966 1_555
O1 P1 1.551198 1_555
O1 V4 1.878908 1_555
O2 P8 1.479189 1_555
O3 P0 1.561367 1_555
O3 V2 1.864742 1_565
O4 P0 1.548137 1_555
O4 V5 1.919729 1_555
O5 P3 1.567327 1_555
O5 V4 1.876998 1_555
O6 P2 1.552746 1_555
O6 V4 1.872028 1_555
O7 P15 1.492173 1_555
O8 P5 1.545656 1_555
O8 V5 1.865116 1_555
O9 P4 1.572094 1_555
O9 V2 1.921137 1_565
O10 P1 1.557710 1_555
O10 V3 1.854926 1_555
O11 P4 1.571549 1_555
O11 V5 1.876326 1_555
O12 P3 1.483075 1_555
O13 P4 1.482279 1_555
O14 P3 1.572762 1_555
O14 V0 1.972648 1_655
O15 P7 1.573637 1_555
O15 V2 1.872995 1_565
O16 P3 1.601802 1_555
O16 V3 1.839514 1_555
O17 P2 1.561166 1_555
O17 V0 1.869748 1_655
O18 P5 1.598964 1_455
O18 P6 1.633148 1_555
O19 P6 1.469073 1_655
O20 P5 1.485256 1_555
O21 P5 1.566637 1_555
O21 V1 1.858980 1_655
O22 P4 1.596654 1_555
O22 V1 1.881209 1_655
O23 P8 1.561016 1_555
O23 V0 1.936774 1_555
O24 P9 1.565433 1_555
O24 V0 1.844861 1_655
O25 P9 1.550136 1_555
O25 V3 2.002708 1_555
O26 P1 1.610159 1_545
O26 P8 1.616100 1_555
O27 P1 1.476793 1_555
O28 P14 1.498362 1_555
O29 P6 1.557164 1_555
O29 V2 1.994803 1_555
O30 P6 1.587058 1_555
O30 V1 1.818249 1_555
O31 P7 1.562260 1_555
O31 V1 1.944934 1_655
O32 P11 1.604300 1_555
O32 V0 1.819193 1_555
O33 P10 1.545298 1_555
O33 V0 1.917880 1_555
O34 P10 1.491827 1_555
O35 P9 1.483265 1_555
O36 P9 1.611401 1_555
O36 P10 1.617470 1_655
O37 P13 1.561519 1_555
O37 V1 1.989652 1_555
O38 P12 1.588587 1_555
O38 V2 1.854086 1_555
O39 P8 1.575793 1_555
O39 V3 1.869698 1_545
O40 P12 1.593357 1_555
O40 V1 1.904128 1_555
O41 P12 1.481554 1_555
O42 P11 1.480769 1_555
O43 P11 1.569350 1_555
O43 V4 1.869787 1_555
O44 P14 1.547844 1_555
O44 V2 1.879681 1_555
O45 P11 1.565376 1_555
O45 V3 1.967384 1_545
O46 P10 1.547920 1_555
O46 V4 1.865422 1_555
O47 P0 1.611946 1_555
O47 P13 1.614041 1_555
O48 P0 1.488208 1_555
O49 P13 1.554472 1_555
O49 V5 1.864776 1_555
O50 P12 1.562131 1_555
O50 V5 1.889303 1_555
O51 P15 1.541785 1_555
O51 V4 1.936222 1_555
O52 P15 1.561756 1_555
O52 V3 1.864661 1_545
O53 P7 1.477213 1_555
O54 P14 1.608744 1_565
O54 P7 1.625930 1_555
O55 P14 1.543648 1_555
O55 V5 1.908811 1_555
O56 P2 1.476125 1_555
O57 P15 1.611660 1_555
O57 P2 1.615550 1_555
