# generated using pymatgen
data_BaCa2I6
_symmetry_space_group_name_H-M   'P 1'
_cell_length_a   10.37662500
_cell_length_b   9.39660500
_cell_length_c   17.50973433
_cell_angle_alpha   65.65442746
_cell_angle_beta   90.00000000
_cell_angle_gamma   90.00000000
_symmetry_Int_Tables_number   1
_chemical_formula_structural   BaCa2I6
_chemical_formula_sum   'Ba4 Ca8 I24'
_cell_volume   1555.46807050
_cell_formula_units_Z   4
loop_
 _symmetry_equiv_pos_site_id
 _symmetry_equiv_pos_as_xyz
  1  'x, y, z'
loop_
 _atom_site_type_symbol
 _atom_site_label
 _atom_site_symmetry_multiplicity
 _atom_site_fract_x
 _atom_site_fract_y
 _atom_site_fract_z
 _atom_site_occupancy
  Ba  Ba0  1  0.68025000  0.90385900  0.41276500  1
  Ba  Ba1  1  0.18025000  0.09614100  0.08723500  1
  Ba  Ba2  1  0.81975000  0.90385900  0.91276500  1
  Ba  Ba3  1  0.31975000  0.09614100  0.58723500  1
  Ca  Ca0  1  0.65205600  0.32403800  0.07512800  1
  Ca  Ca1  1  0.04015700  0.59658600  0.72684200  1
  Ca  Ca2  1  0.54015700  0.40341400  0.77315800  1
  Ca  Ca3  1  0.15205600  0.67596200  0.42487200  1
  Ca  Ca4  1  0.84794400  0.32403800  0.57512800  1
  Ca  Ca5  1  0.45984300  0.59658600  0.22684200  1
  Ca  Ca6  1  0.95984300  0.40341400  0.27315800  1
  Ca  Ca7  1  0.34794400  0.67596200  0.92487200  1
  I  I0  1  0.34580300  0.91841400  0.44425800  1
  I  I1  1  0.33723100  0.68966200  0.72482800  1
  I  I2  1  0.64970100  0.60691900  0.87568100  1
  I  I3  1  0.96390800  0.77682800  0.53795300  1
  I  I4  1  0.10903400  0.46252600  0.91705100  1
  I  I5  1  0.02355300  0.07450400  0.27442900  1
  I  I6  1  0.52355300  0.92549600  0.22557100  1
  I  I7  1  0.46390800  0.22317200  0.96204700  1
  I  I8  1  0.60903400  0.53747400  0.58294900  1
  I  I9  1  0.14970100  0.39308100  0.62431900  1
  I  I10  1  0.83723100  0.31033800  0.77517200  1
  I  I11  1  0.84580300  0.08158600  0.05574200  1
  I  I12  1  0.15419700  0.91841400  0.94425800  1
  I  I13  1  0.16276900  0.68966200  0.22482800  1
  I  I14  1  0.85029900  0.60691900  0.37568100  1
  I  I15  1  0.39096600  0.46252600  0.41705100  1
  I  I16  1  0.53609200  0.77682800  0.03795300  1
  I  I17  1  0.47644700  0.07450400  0.77442900  1
  I  I18  1  0.97644700  0.92549600  0.72557100  1
  I  I19  1  0.89096600  0.53747400  0.08294900  1
  I  I20  1  0.03609200  0.22317200  0.46204700  1
  I  I21  1  0.35029900  0.39308100  0.12431900  1
  I  I22  1  0.66276900  0.31033800  0.27517200  1
  I  I23  1  0.65419700  0.08158600  0.55574200  1
loop_
_geom_bond_atom_site_label_1
_geom_bond_atom_site_label_2
_geom_bond_distance
_geom_bond_site_symmetry_2
Ba0 I0 3.525459 1_555
Ba0 I23 3.546352 1_565
Ba0 I3 3.568774 1_555
Ba0 I14 3.579715 1_555
Ba0 I8 3.580517 1_555
Ba0 I22 3.583167 1_565
Ba0 I6 3.588755 1_555
Ba1 I11 3.525459 1_455
Ba1 I12 3.546352 1_544
Ba1 I7 3.568774 1_554
Ba1 I21 3.579715 1_555
Ba1 I4 3.580517 1_554
Ba1 I13 3.583167 1_545
Ba1 I5 3.588755 1_555
Ba2 I12 3.525459 1_655
Ba2 I11 3.546352 1_566
Ba2 I16 3.568774 1_556
Ba2 I2 3.579715 1_555
Ba2 I19 3.580517 1_556
Ba2 I10 3.583167 1_565
Ba2 I18 3.588755 1_555
Ba3 I23 3.525459 1_555
Ba3 I0 3.546352 1_545
Ba3 I20 3.568774 1_555
Ba3 I9 3.579715 1_555
Ba3 I15 3.580517 1_555
Ba3 I1 3.583167 1_545
Ba3 I17 3.588755 1_555
Ca0 I11 3.159904 1_555
Ca0 I7 3.190250 1_554
Ca0 I19 3.226974 1_555
Ca0 I21 3.380537 1_555
Ca0 I2 3.407139 1_554
Ca0 I22 3.453431 1_555
Ca0 I6 3.822074 1_545
Ca1 I4 3.119438 1_555
Ca1 I3 3.132884 1_455
Ca1 I18 3.151646 1_455
Ca1 I1 3.200518 1_555
Ca1 I10 3.241632 1_455
Ca1 I9 3.316870 1_555
Ca2 I8 3.119438 1_555
Ca2 I7 3.132884 1_555
Ca2 I17 3.151646 1_555
Ca2 I10 3.200518 1_555
Ca2 I1 3.241632 1_555
Ca2 I2 3.316870 1_555
Ca3 I0 3.159904 1_555
Ca3 I3 3.190250 1_455
Ca3 I15 3.226974 1_555
Ca3 I14 3.380537 1_455
Ca3 I9 3.407139 1_555
Ca3 I13 3.453431 1_555
Ca3 I5 3.822074 1_565
Ca4 I23 3.159904 1_555
Ca4 I20 3.190250 1_655
Ca4 I8 3.226974 1_555
Ca4 I9 3.380537 1_655
Ca4 I14 3.407139 1_555
Ca4 I10 3.453431 1_555
Ca4 I18 3.822074 1_545
Ca5 I15 3.119438 1_555
Ca5 I16 3.132884 1_555
Ca5 I6 3.151646 1_555
Ca5 I13 3.200518 1_555
Ca5 I22 3.241632 1_555
Ca5 I21 3.316870 1_555
Ca6 I19 3.119438 1_555
Ca6 I20 3.132884 1_655
Ca6 I5 3.151646 1_655
Ca6 I22 3.200518 1_555
Ca6 I13 3.241632 1_655
Ca6 I14 3.316870 1_555
Ca7 I12 3.159904 1_555
Ca7 I16 3.190250 1_556
Ca7 I4 3.226974 1_555
Ca7 I2 3.380537 1_555
Ca7 I21 3.407139 1_556
Ca7 I1 3.453431 1_555
Ca7 I17 3.822074 1_565
