# generated using pymatgen
data_Li6Mn5Fe(BO3)6
_symmetry_space_group_name_H-M   'P 1'
_cell_length_a   8.85269720
_cell_length_b   8.85269720
_cell_length_c   8.27335546
_cell_angle_alpha   62.25567999
_cell_angle_beta   62.25567999
_cell_angle_gamma   42.18803021
_symmetry_Int_Tables_number   1
_chemical_formula_structural   Li6Mn5Fe(BO3)6
_chemical_formula_sum   'Li6 Mn5 Fe1 B6 O18'
_cell_volume   377.35684380
_cell_formula_units_Z   1
loop_
 _symmetry_equiv_pos_site_id
 _symmetry_equiv_pos_as_xyz
  1  'x, y, z'
loop_
 _atom_site_type_symbol
 _atom_site_label
 _atom_site_symmetry_multiplicity
 _atom_site_fract_x
 _atom_site_fract_y
 _atom_site_fract_z
 _atom_site_occupancy
  Li  Li0  1  0.24041500  0.74137300  0.30159900  1
  Li  Li1  1  0.74137300  0.24041500  0.30159900  1
  Li  Li2  1  0.40085100  0.90029600  0.71641800  1
  Li  Li3  1  0.90029600  0.40085100  0.71641800  1
  Li  Li4  1  0.10745300  0.60840400  0.98311300  1
  Li  Li5  1  0.60840400  0.10745300  0.98311300  1
  Mn  Mn0  1  0.17999800  0.17999800  0.01199300  1
  Mn  Mn1  1  0.67964400  0.67964400  0.01220900  1
  Mn  Mn2  1  0.50589600  0.50589600  0.62902600  1
  Mn  Mn3  1  0.00626100  0.00626100  0.62778300  1
  Mn  Mn4  1  0.31446400  0.31446400  0.35877100  1
  Fe  Fe0  1  0.81580400  0.81580400  0.36027500  1
  B  B0  1  0.58522600  0.08153400  0.66577200  1
  B  B1  1  0.08153400  0.58522600  0.66577200  1
  B  B2  1  0.41838900  0.91621300  0.33349500  1
  B  B3  1  0.91621300  0.41838900  0.33349500  1
  B  B4  1  0.99891700  0.99891700  0.00020800  1
  B  B5  1  0.49998800  0.49998800  0.00003100  1
  O  O0  1  0.46130600  0.46130600  0.19338100  1
  O  O1  1  0.95812800  0.95812800  0.19457100  1
  O  O2  1  0.03634500  0.54440300  0.55787800  1
  O  O3  1  0.54440300  0.03634500  0.55787800  1
  O  O4  1  0.09582600  0.09582600  0.88710100  1
  O  O5  1  0.59679600  0.59679600  0.88426000  1
  O  O6  1  0.68004000  0.18029300  0.58012000  1
  O  O7  1  0.18029300  0.68004000  0.58012000  1
  O  O8  1  0.02959300  0.52961100  0.85918900  1
  O  O9  1  0.52961100  0.02959300  0.85918900  1
  O  O10  1  0.37525000  0.87623900  0.22235800  1
  O  O11  1  0.87623900  0.37525000  0.22235800  1
  O  O12  1  0.44195500  0.44195500  0.92237700  1
  O  O13  1  0.94202200  0.94202200  0.92054600  1
  O  O14  1  0.51652200  0.01175100  0.25168700  1
  O  O15  1  0.01175100  0.51652200  0.25168700  1
  O  O16  1  0.36164800  0.86116300  0.52710300  1
  O  O17  1  0.86116300  0.36164800  0.52710300  1
loop_
_geom_bond_atom_site_label_1
_geom_bond_atom_site_label_2
_geom_bond_distance
_geom_bond_site_symmetry_2
Li0 O10 1.983586 1_555
Li0 O7 2.002342 1_555
Li0 O0 2.006166 1_555
Li0 O1 2.020738 1_455
Li1 O11 1.983586 1_555
Li1 O6 2.002342 1_555
Li1 O0 2.006166 1_555
Li1 O1 2.020738 1_545
Li2 O16 1.970565 1_555
Li2 O5 2.004632 1_555
Li2 O3 2.007826 1_565
Li2 O4 2.020138 1_565
Li3 O17 1.970565 1_555
Li3 O5 2.004632 1_555
Li3 O2 2.007826 1_655
Li3 O4 2.020138 1_655
Li4 O15 1.975458 1_556
Li4 O13 2.002051 1_455
Li4 O12 2.007621 1_555
Li4 O8 2.012238 1_555
Li5 O14 1.975458 1_556
Li5 O13 2.002051 1_545
Li5 O12 2.007621 1_555
Li5 O9 2.012238 1_555
Mn0 O4 2.105870 1_554
Mn0 O9 2.183488 1_554
Mn0 O8 2.183488 1_554
Mn0 O11 2.191682 1_455
Mn0 O10 2.191682 1_545
Mn1 O5 2.106951 1_554
Mn1 O9 2.186488 1_564
Mn1 O8 2.186488 1_654
Mn1 O10 2.195137 1_555
Mn1 O11 2.195137 1_555
Mn2 O12 2.108978 1_555
Mn2 O6 2.183798 1_555
Mn2 O7 2.183798 1_555
Mn2 O16 2.194311 1_555
Mn2 O17 2.194311 1_555
Mn3 O13 2.104246 1_445
Mn3 O7 2.184159 1_545
Mn3 O6 2.184159 1_455
Mn3 O16 2.193064 1_545
Mn3 O17 2.193064 1_455
Mn4 O0 2.108082 1_555
Mn4 O14 2.190320 1_555
Mn4 O15 2.190320 1_555
Mn4 O2 2.199539 1_555
Mn4 O3 2.199539 1_555
Fe0 O1 2.047057 1_555
Fe0 O3 2.149528 1_565
Fe0 O2 2.149528 1_655
Fe0 O14 2.188676 1_565
Fe0 O15 2.188676 1_655
B0 O6 1.388490 1_555
B0 O9 1.389740 1_555
B0 O3 1.390874 1_555
B1 O7 1.388490 1_555
B1 O8 1.389740 1_555
B1 O2 1.390874 1_555
B2 O14 1.391596 1_565
B2 O16 1.393695 1_555
B2 O10 1.395228 1_555
B3 O15 1.391596 1_655
B3 O17 1.393695 1_555
B3 O11 1.395228 1_555
B4 O13 1.391341 1_554
B4 O4 1.394074 1_664
B4 O1 1.399478 1_555
B5 O5 1.395071 1_554
B5 O12 1.395123 1_554
B5 O0 1.395407 1_555
