# generated using pymatgen
data_Sr3W2O9
_symmetry_space_group_name_H-M   'P 1'
_cell_length_a   8.11717600
_cell_length_b   9.06940900
_cell_length_c   9.66953929
_cell_angle_alpha   62.84990380
_cell_angle_beta   90.00000000
_cell_angle_gamma   90.00000000
_symmetry_Int_Tables_number   1
_chemical_formula_structural   Sr3W2O9
_chemical_formula_sum   'Sr6 W4 O18'
_cell_volume   633.41602442
_cell_formula_units_Z   2
loop_
 _symmetry_equiv_pos_site_id
 _symmetry_equiv_pos_as_xyz
  1  'x, y, z'
loop_
 _atom_site_type_symbol
 _atom_site_label
 _atom_site_symmetry_multiplicity
 _atom_site_fract_x
 _atom_site_fract_y
 _atom_site_fract_z
 _atom_site_occupancy
  Sr  Sr0  1  0.25000000  0.37220900  0.74525800  1
  Sr  Sr1  1  0.00000000  0.00000000  0.00000000  1
  Sr  Sr2  1  0.50000000  0.00000000  0.00000000  1
  Sr  Sr3  1  0.25000000  0.16587800  0.22214000  1
  Sr  Sr4  1  0.75000000  0.83412200  0.77786000  1
  Sr  Sr5  1  0.75000000  0.62779100  0.25474200  1
  W  W0  1  0.75000000  0.42922300  0.73040900  1
  W  W1  1  0.25000000  0.85073500  0.71036500  1
  W  W2  1  0.75000000  0.14926500  0.28963500  1
  W  W3  1  0.25000000  0.57077700  0.26959100  1
  O  O0  1  0.25000000  0.13958500  0.99145200  1
  O  O1  1  0.56484600  0.30013300  0.77550800  1
  O  O2  1  0.93515400  0.30013300  0.77550800  1
  O  O3  1  0.75000000  0.58042700  0.52732400  1
  O  O4  1  0.25000000  0.63756200  0.74606100  1
  O  O5  1  0.75000000  0.54251100  0.84229100  1
  O  O6  1  0.93517900  0.10533400  0.20609700  1
  O  O7  1  0.56482100  0.10533400  0.20609700  1
  O  O8  1  0.25000000  0.97928000  0.50284800  1
  O  O9  1  0.75000000  0.02072000  0.49715200  1
  O  O10  1  0.06482100  0.89466600  0.79390300  1
  O  O11  1  0.43517900  0.89466600  0.79390300  1
  O  O12  1  0.25000000  0.45748900  0.15770900  1
  O  O13  1  0.75000000  0.36243800  0.25393900  1
  O  O14  1  0.25000000  0.41957300  0.47267600  1
  O  O15  1  0.06484600  0.69986700  0.22449200  1
  O  O16  1  0.43515400  0.69986700  0.22449200  1
  O  O17  1  0.75000000  0.86041500  0.00854800  1
loop_
_geom_bond_atom_site_label_1
_geom_bond_atom_site_label_2
_geom_bond_distance
_geom_bond_site_symmetry_2
O0 Sr3 2.349065 1_556
O0 Sr0 2.352560 1_555
O0 Sr2 2.373185 1_556
O0 Sr1 2.373185 1_556
O1 W0 1.831313 1_555
O1 Sr0 2.621023 1_555
O1 Sr2 2.646875 1_556
O2 W0 1.831313 1_555
O2 Sr0 2.621023 1_655
O2 Sr1 2.646875 1_656
O3 W0 1.810834 1_555
O3 Sr5 2.469483 1_555
O4 W1 1.802210 1_555
O4 Sr0 2.410148 1_555
O5 W0 1.800142 1_555
O5 Sr4 2.424667 1_555
O6 W2 1.834222 1_555
O6 Sr1 2.626498 1_655
O6 Sr3 2.633188 1_655
O7 W2 1.834222 1_555
O7 Sr2 2.626498 1_555
O7 Sr3 2.633188 1_555
O8 W1 1.802937 1_555
O8 Sr3 2.457487 1_565
O9 W2 1.802937 1_555
O9 Sr4 2.457487 1_545
O10 W1 1.834222 1_555
O10 Sr1 2.626498 1_566
O10 Sr4 2.633188 1_455
O11 W1 1.834222 1_555
O11 Sr2 2.626498 1_566
O11 Sr4 2.633188 1_555
O12 W3 1.800142 1_555
O12 Sr3 2.424667 1_555
O13 W2 1.802210 1_555
O13 Sr5 2.410148 1_555
O14 W3 1.810834 1_555
O14 Sr0 2.469483 1_555
O15 W3 1.831313 1_555
O15 Sr5 2.621023 1_455
O15 Sr1 2.646875 1_565
O16 W3 1.831313 1_555
O16 Sr5 2.621023 1_555
O16 Sr2 2.646875 1_565
O17 Sr4 2.349065 1_554
O17 Sr5 2.352560 1_555
O17 Sr1 2.373185 1_665
O17 Sr2 2.373185 1_565
