# generated using pymatgen
data_Li2MnF4
_symmetry_space_group_name_H-M   'P 1'
_cell_length_a   5.11512100
_cell_length_b   10.24213400
_cell_length_c   12.62980100
_cell_angle_alpha   90.00000000
_cell_angle_beta   90.00000000
_cell_angle_gamma   90.00000000
_symmetry_Int_Tables_number   1
_chemical_formula_structural   Li2MnF4
_chemical_formula_sum   'Li16 Mn8 F32'
_cell_volume   661.67217640
_cell_formula_units_Z   8
loop_
 _symmetry_equiv_pos_site_id
 _symmetry_equiv_pos_as_xyz
  1  'x, y, z'
loop_
 _atom_site_type_symbol
 _atom_site_label
 _atom_site_symmetry_multiplicity
 _atom_site_fract_x
 _atom_site_fract_y
 _atom_site_fract_z
 _atom_site_occupancy
  Li  Li0  1  0.00000000  0.00000000  0.32764300  1
  Li  Li1  1  0.00000000  0.00000000  0.68842200  1
  Li  Li2  1  0.50000000  0.00000000  0.55519700  1
  Li  Li3  1  0.00000000  0.00000000  0.96816000  1
  Li  Li4  1  0.96879300  0.29682100  0.84555900  1
  Li  Li5  1  0.00682100  0.24864300  0.19172300  1
  Li  Li6  1  0.50682100  0.25135700  0.69172300  1
  Li  Li7  1  0.46879300  0.20317900  0.34555900  1
  Li  Li8  1  0.50000000  0.50000000  0.46816000  1
  Li  Li9  1  0.00000000  0.50000000  0.05519700  1
  Li  Li10  1  0.50000000  0.50000000  0.18842200  1
  Li  Li11  1  0.50000000  0.50000000  0.82764300  1
  Li  Li12  1  0.53120700  0.79682100  0.34555900  1
  Li  Li13  1  0.49317900  0.74864300  0.69172300  1
  Li  Li14  1  0.99317900  0.75135700  0.19172300  1
  Li  Li15  1  0.03120700  0.70317900  0.84555900  1
  Mn  Mn0  1  0.50000000  0.00000000  0.13785300  1
  Mn  Mn1  1  0.50000000  0.00000000  0.84562200  1
  Mn  Mn2  1  0.00887400  0.22562400  0.50111800  1
  Mn  Mn3  1  0.50887400  0.27437600  0.00111800  1
  Mn  Mn4  1  0.00000000  0.50000000  0.34562200  1
  Mn  Mn5  1  0.00000000  0.50000000  0.63785300  1
  Mn  Mn6  1  0.49112600  0.72562400  0.00111800  1
  Mn  Mn7  1  0.99112600  0.77437600  0.50111800  1
  F  F0  1  0.28814100  0.10472100  0.73403000  1
  F  F1  1  0.26193300  0.11284000  0.23643000  1
  F  F2  1  0.30643800  0.09398700  0.99449700  1
  F  F3  1  0.75726500  0.15619800  0.10626700  1
  F  F4  1  0.80140000  0.13193100  0.87727600  1
  F  F5  1  0.30657900  0.10505300  0.46229200  1
  F  F6  1  0.77163500  0.12798300  0.61201300  1
  F  F7  1  0.82434400  0.16176400  0.36006400  1
  F  F8  1  0.32434400  0.33823600  0.86006400  1
  F  F9  1  0.27163500  0.37201700  0.11201300  1
  F  F10  1  0.80657900  0.39494700  0.96229200  1
  F  F11  1  0.30140000  0.36806900  0.37727600  1
  F  F12  1  0.25726500  0.34380200  0.60626700  1
  F  F13  1  0.80643800  0.40601300  0.49449700  1
  F  F14  1  0.76193300  0.38716000  0.73643000  1
  F  F15  1  0.78814100  0.39527900  0.23403000  1
  F  F16  1  0.21185900  0.60472100  0.23403000  1
  F  F17  1  0.23806700  0.61284000  0.73643000  1
  F  F18  1  0.19356200  0.59398700  0.49449700  1
  F  F19  1  0.69860000  0.63193100  0.37727600  1
  F  F20  1  0.74273500  0.65619800  0.60626700  1
  F  F21  1  0.19342100  0.60505300  0.96229200  1
  F  F22  1  0.72836500  0.62798300  0.11201300  1
  F  F23  1  0.67565600  0.66176400  0.86006400  1
  F  F24  1  0.17565600  0.83823600  0.36006400  1
  F  F25  1  0.22836500  0.87201700  0.61201300  1
  F  F26  1  0.69342100  0.89494700  0.46229200  1
  F  F27  1  0.24273500  0.84380200  0.10626700  1
  F  F28  1  0.19860000  0.86806900  0.87727600  1
  F  F29  1  0.69356200  0.90601300  0.99449700  1
  F  F30  1  0.73806700  0.88716000  0.23643000  1
  F  F31  1  0.71185900  0.89527900  0.73403000  1
loop_
_geom_bond_atom_site_label_1
_geom_bond_atom_site_label_2
_geom_bond_distance
_geom_bond_site_symmetry_2
F0 Li1 1.911677 1_555
F0 Li6 1.947387 1_555
F0 Mn1 2.076328 1_555
F1 Li7 1.968595 1_555
F1 Li5 1.989044 1_555
F1 Mn0 2.090128 1_555
F1 Li0 2.111378 1_555
F2 Li3 1.869291 1_555
F2 Mn3 2.119606 1_556
F2 Mn0 2.277072 1_556
F2 Mn1 2.332878 1_555
F3 Li5 1.921156 1_655
F3 Mn0 2.109551 1_555
F3 Mn3 2.200674 1_555
F4 Li4 1.935390 1_555
F4 Li3 2.043384 1_655
F4 Mn1 2.088671 1_555
F4 Mn3 2.610335 1_556
F5 Li2 1.874397 1_555
F5 Li7 1.967776 1_555
F5 Mn2 2.020979 1_555
F6 Li1 2.003502 1_655
F6 Li2 2.040520 1_555
F6 Mn2 2.105785 1_655
F6 Li6 2.108323 1_555
F7 Li7 1.876461 1_555
F7 Li0 1.928727 1_655
F7 Mn2 2.119532 1_655
F7 Li5 2.486638 1_655
F8 Li4 1.876461 1_455
F8 Li11 1.928727 1_555
F8 Mn3 2.119532 1_556
F8 Li6 2.486638 1_555
F9 Li10 2.003502 1_555
F9 Li9 2.040520 1_555
F9 Mn3 2.105785 1_555
F9 Li5 2.108323 1_555
F10 Li9 1.874397 1_656
F10 Li4 1.967776 1_555
F10 Mn3 2.020979 1_556
F11 Li7 1.935390 1_555
F11 Li8 2.043384 1_555
F11 Mn4 2.088671 1_555
F11 Mn2 2.610335 1_555
F12 Li6 1.921156 1_555
F12 Mn5 2.109551 1_555
F12 Mn2 2.200674 1_555
F13 Li8 1.869291 1_555
F13 Mn2 2.119606 1_655
F13 Mn5 2.277072 1_655
F13 Mn4 2.332878 1_655
F14 Li4 1.968595 1_555
F14 Li6 1.989044 1_555
F14 Mn5 2.090128 1_655
F14 Li11 2.111378 1_555
F15 Li10 1.911677 1_555
F15 Li5 1.947387 1_655
F15 Mn4 2.076328 1_655
F16 Li10 1.911677 1_555
F16 Li14 1.947387 1_455
F16 Mn4 2.076328 1_555
F17 Li15 1.968595 1_555
F17 Li13 1.989044 1_555
F17 Mn5 2.090128 1_555
F17 Li11 2.111378 1_555
F18 Li8 1.869291 1_555
F18 Mn7 2.119606 1_455
F18 Mn5 2.277072 1_555
F18 Mn4 2.332878 1_555
F19 Li12 1.935390 1_555
F19 Li8 2.043384 1_555
F19 Mn4 2.088671 1_655
F19 Mn7 2.610335 1_555
F20 Li13 1.921156 1_555
F20 Mn5 2.109551 1_655
F20 Mn7 2.200674 1_555
F21 Li9 1.874397 1_556
F21 Li15 1.967776 1_555
F21 Mn6 2.020979 1_556
F22 Li10 2.003502 1_555
F22 Li9 2.040520 1_655
F22 Mn6 2.105785 1_555
F22 Li14 2.108323 1_555
F23 Li15 1.876461 1_655
F23 Li11 1.928727 1_555
F23 Mn6 2.119532 1_556
F23 Li13 2.486638 1_555
F24 Li12 1.876461 1_555
F24 Li0 1.928727 1_565
F24 Mn7 2.119532 1_455
F24 Li14 2.486638 1_455
F25 Li1 2.003502 1_565
F25 Li2 2.040520 1_565
F25 Mn7 2.105785 1_455
F25 Li13 2.108323 1_555
F26 Li2 1.874397 1_565
F26 Li12 1.967776 1_555
F26 Mn7 2.020979 1_555
F27 Li14 1.921156 1_455
F27 Mn0 2.109551 1_565
F27 Mn6 2.200674 1_555
F28 Li15 1.935390 1_555
F28 Li3 2.043384 1_565
F28 Mn1 2.088671 1_565
F28 Mn6 2.610335 1_556
F29 Li3 1.869291 1_665
F29 Mn6 2.119606 1_556
F29 Mn0 2.277072 1_566
F29 Mn1 2.332878 1_565
F30 Li12 1.968595 1_555
F30 Li14 1.989044 1_555
F30 Mn0 2.090128 1_565
F30 Li0 2.111378 1_665
F31 Li1 1.911677 1_665
F31 Li13 1.947387 1_555
F31 Mn1 2.076328 1_565
