# generated using pymatgen
data_Ca2CrH2I2O11
_symmetry_space_group_name_H-M   'P 1'
_cell_length_a   7.34115400
_cell_length_b   10.24708600
_cell_length_c   14.16053521
_cell_angle_alpha   73.42665322
_cell_angle_beta   90.00000000
_cell_angle_gamma   90.00000000
_symmetry_Int_Tables_number   1
_chemical_formula_structural   Ca2CrH2I2O11
_chemical_formula_sum   'Ca8 Cr4 H8 I8 O44'
_cell_volume   1020.97775184
_cell_formula_units_Z   4
loop_
 _symmetry_equiv_pos_site_id
 _symmetry_equiv_pos_as_xyz
  1  'x, y, z'
loop_
 _atom_site_type_symbol
 _atom_site_label
 _atom_site_symmetry_multiplicity
 _atom_site_fract_x
 _atom_site_fract_y
 _atom_site_fract_z
 _atom_site_occupancy
  Ca  Ca0  1  0.58541300  0.30015100  0.20376100  1
  Ca  Ca1  1  0.08541300  0.69984900  0.29623900  1
  Ca  Ca2  1  0.41458700  0.69984900  0.79623900  1
  Ca  Ca3  1  0.91458700  0.30015100  0.70376100  1
  Ca  Ca4  1  0.75719800  0.10071400  0.98848100  1
  Ca  Ca5  1  0.25719800  0.89928600  0.51151900  1
  Ca  Ca6  1  0.24280200  0.89928600  0.01151900  1
  Ca  Ca7  1  0.74280200  0.10071400  0.48848100  1
  Cr  Cr0  1  0.29604500  0.56944300  0.07835800  1
  Cr  Cr1  1  0.79604500  0.43055700  0.42164200  1
  Cr  Cr2  1  0.70395500  0.43055700  0.92164200  1
  Cr  Cr3  1  0.20395500  0.56944300  0.57835800  1
  H  H0  1  0.92530000  0.41663400  0.24292900  1
  H  H1  1  0.42530000  0.58336600  0.25707100  1
  H  H2  1  0.07470000  0.58336600  0.75707100  1
  H  H3  1  0.57470000  0.41663400  0.74292900  1
  H  H4  1  0.99413500  0.40047300  0.14148500  1
  H  H5  1  0.49413500  0.59952700  0.35851500  1
  H  H6  1  0.00586500  0.59952700  0.85851500  1
  H  H7  1  0.50586500  0.40047300  0.64148500  1
  I  I0  1  0.70346700  0.95012700  0.27312300  1
  I  I1  1  0.20346700  0.04987300  0.22687700  1
  I  I2  1  0.29653300  0.04987300  0.72687700  1
  I  I3  1  0.79653300  0.95012700  0.77312300  1
  I  I4  1  0.73917300  0.74357500  0.07502200  1
  I  I5  1  0.23917300  0.25642500  0.42497800  1
  I  I6  1  0.26082700  0.25642500  0.92497800  1
  I  I7  1  0.76082700  0.74357500  0.57502200  1
  O  O0  1  0.90787300  0.87380700  0.34052000  1
  O  O1  1  0.40787300  0.12619300  0.15948000  1
  O  O2  1  0.09212700  0.12619300  0.65948000  1
  O  O3  1  0.59212700  0.87380700  0.84052000  1
  O  O4  1  0.80631800  0.05023100  0.15823100  1
  O  O5  1  0.30631800  0.94976900  0.34176900  1
  O  O6  1  0.19368200  0.94976900  0.84176900  1
  O  O7  1  0.69368200  0.05023100  0.65823100  1
  O  O8  1  0.79920200  0.72603800  0.20333300  1
  O  O9  1  0.29920200  0.27396200  0.29666700  1
  O  O10  1  0.20079800  0.27396200  0.79666700  1
  O  O11  1  0.70079800  0.72603800  0.70333300  1
  O  O12  1  0.48995700  0.53442600  0.14589800  1
  O  O13  1  0.98995700  0.46557400  0.35410200  1
  O  O14  1  0.51004300  0.46557400  0.85410200  1
  O  O15  1  0.01004300  0.53442600  0.64589800  1
  O  O16  1  0.15435700  0.64807200  0.13553600  1
  O  O17  1  0.65435700  0.35192800  0.36446400  1
  O  O18  1  0.84564300  0.35192800  0.86446400  1
  O  O19  1  0.34564300  0.64807200  0.63553600  1
  O  O20  1  0.55901400  0.87060700  0.06404100  1
  O  O21  1  0.05901400  0.12939300  0.43595900  1
  O  O22  1  0.44098600  0.12939300  0.93595900  1
  O  O23  1  0.94098600  0.87060700  0.56404100  1
  O  O24  1  0.65402000  0.31898300  0.02997000  1
  O  O25  1  0.15402000  0.68101700  0.47003000  1
  O  O26  1  0.34598000  0.68101700  0.97003000  1
  O  O27  1  0.84598000  0.31898300  0.52997000  1
  O  O28  1  0.09076300  0.13398100  0.99495300  1
  O  O29  1  0.59076300  0.86601900  0.50504700  1
  O  O30  1  0.90923700  0.86601900  0.00504700  1
  O  O31  1  0.40923700  0.13398100  0.49495300  1
  O  O32  1  0.68394400  0.09450700  0.32508300  1
  O  O33  1  0.18394400  0.90549300  0.17491700  1
  O  O34  1  0.31605600  0.90549300  0.67491700  1
  O  O35  1  0.81605600  0.09450700  0.82508300  1
  O  O36  1  0.20530100  0.42873800  0.06627300  1
  O  O37  1  0.70530100  0.57126200  0.43372700  1
  O  O38  1  0.79469900  0.57126200  0.93372700  1
  O  O39  1  0.29469900  0.42873800  0.56627300  1
  O  O40  1  0.88585600  0.38972500  0.18460100  1
  O  O41  1  0.38585600  0.61027500  0.31539900  1
  O  O42  1  0.11414400  0.61027500  0.81539900  1
  O  O43  1  0.61414400  0.38972500  0.68460100  1
loop_
_geom_bond_atom_site_label_1
_geom_bond_atom_site_label_2
_geom_bond_distance
_geom_bond_site_symmetry_2
Ca0 O40 2.374594 1_555
Ca0 O12 2.409011 1_555
Ca0 O32 2.418657 1_555
Ca0 O1 2.430449 1_555
Ca0 O9 2.452775 1_555
Ca0 O24 2.465030 1_555
Ca0 O17 2.530808 1_555
Ca1 O41 2.374594 1_555
Ca1 O13 2.409011 1_455
Ca1 O33 2.418657 1_555
Ca1 O0 2.430449 1_455
Ca1 O8 2.452775 1_455
Ca1 O25 2.465030 1_555
Ca1 O16 2.530808 1_555
Ca2 O42 2.374594 1_555
Ca2 O14 2.409011 1_555
Ca2 O34 2.418657 1_555
Ca2 O3 2.430449 1_555
Ca2 O11 2.452775 1_555
Ca2 O26 2.465030 1_555
Ca2 O19 2.530808 1_555
Ca3 O43 2.374594 1_555
Ca3 O15 2.409011 1_655
Ca3 O35 2.418657 1_555
Ca3 O2 2.430449 1_655
Ca3 O10 2.452775 1_655
Ca3 O27 2.465030 1_555
Ca3 O18 2.530808 1_555
Ca4 O4 2.338006 1_556
Ca4 O35 2.372422 1_555
Ca4 O22 2.429720 1_555
Ca4 O28 2.477663 1_655
Ca4 O24 2.582827 1_556
Ca4 O30 2.600518 1_546
Ca4 O20 2.717002 1_546
Ca4 O18 2.748309 1_555
Ca5 O5 2.338006 1_555
Ca5 O34 2.372422 1_555
Ca5 O23 2.429720 1_455
Ca5 O29 2.477663 1_555
Ca5 O25 2.582827 1_555
Ca5 O31 2.600518 1_565
Ca5 O21 2.717002 1_565
Ca5 O19 2.748309 1_555
Ca6 O6 2.338006 1_554
Ca6 O33 2.372422 1_555
Ca6 O20 2.429720 1_555
Ca6 O30 2.477663 1_455
Ca6 O26 2.582827 1_554
Ca6 O28 2.600518 1_564
Ca6 O22 2.717002 1_564
Ca6 O16 2.748309 1_555
Ca7 O7 2.338006 1_555
Ca7 O32 2.372422 1_555
Ca7 O21 2.429720 1_655
Ca7 O31 2.477663 1_555
Ca7 O27 2.582827 1_555
Ca7 O29 2.600518 1_545
Ca7 O23 2.717002 1_545
Ca7 O17 2.748309 1_555
Cr0 O36 1.640932 1_555
Cr0 O16 1.660974 1_555
Cr0 O26 1.671560 1_554
Cr0 O12 1.695329 1_555
Cr1 O37 1.640932 1_555
Cr1 O17 1.660974 1_555
Cr1 O27 1.671560 1_555
Cr1 O13 1.695329 1_555
Cr2 O38 1.640932 1_555
Cr2 O18 1.660974 1_555
Cr2 O24 1.671560 1_556
Cr2 O14 1.695329 1_555
Cr3 O39 1.640932 1_555
Cr3 O19 1.660974 1_555
Cr3 O25 1.671560 1_555
Cr3 O15 1.695329 1_555
H0 O40 0.985905 1_555
H1 O41 0.985905 1_555
H2 O42 0.985905 1_555
H3 O43 0.985905 1_555
H4 O40 0.989136 1_555
H5 O41 0.989136 1_555
H6 O42 0.989136 1_555
H7 O43 0.989136 1_555
I0 O4 1.821305 1_565
I0 O0 1.829858 1_555
I0 O32 1.836239 1_565
I1 O5 1.821305 1_545
I1 O1 1.829858 1_555
I1 O33 1.836239 1_545
I2 O6 1.821305 1_545
I2 O2 1.829858 1_555
I2 O34 1.836239 1_545
I3 O7 1.821305 1_565
I3 O3 1.829858 1_555
I3 O35 1.836239 1_565
I4 O8 1.827988 1_555
I4 O20 1.830944 1_555
I4 O30 1.845404 1_555
I5 O9 1.827988 1_555
I5 O21 1.830944 1_555
I5 O31 1.845404 1_555
I6 O10 1.827988 1_555
I6 O22 1.830944 1_555
I6 O28 1.845404 1_555
I7 O11 1.827988 1_555
I7 O23 1.830944 1_555
I7 O29 1.845404 1_555
