# generated using pymatgen
data_Li2Cr3Si3O10
_symmetry_space_group_name_H-M   'P 1'
_cell_length_a   8.56814678
_cell_length_b   8.56814678
_cell_length_c   10.36357738
_cell_angle_alpha   86.88047993
_cell_angle_beta   86.88047993
_cell_angle_gamma   33.11509036
_symmetry_Int_Tables_number   1
_chemical_formula_structural   Li2Cr3Si3O10
_chemical_formula_sum   'Li4 Cr6 Si6 O20'
_cell_volume   414.98423707
_cell_formula_units_Z   2
loop_
 _symmetry_equiv_pos_site_id
 _symmetry_equiv_pos_as_xyz
  1  'x, y, z'
loop_
 _atom_site_type_symbol
 _atom_site_label
 _atom_site_symmetry_multiplicity
 _atom_site_fract_x
 _atom_site_fract_y
 _atom_site_fract_z
 _atom_site_occupancy
  Li  Li0  1  0.27052800  0.83470300  0.52731100  1
  Li  Li1  1  0.83470300  0.27052800  0.02731100  1
  Li  Li2  1  0.16529700  0.72947200  0.97268900  1
  Li  Li3  1  0.72947200  0.16529700  0.47268900  1
  Cr  Cr0  1  0.37947100  0.92377100  0.78794600  1
  Cr  Cr1  1  0.92377100  0.37947100  0.28794600  1
  Cr  Cr2  1  0.50000000  0.00000000  0.50000000  1
  Cr  Cr3  1  0.00000000  0.50000000  0.00000000  1
  Cr  Cr4  1  0.07622900  0.62052900  0.71205400  1
  Cr  Cr5  1  0.62052900  0.07622900  0.21205400  1
  Si  Si0  1  0.85060000  0.45123600  0.60081500  1
  Si  Si1  1  0.45123600  0.85060000  0.10081500  1
  Si  Si2  1  0.54876400  0.14940000  0.89918500  1
  Si  Si3  1  0.14940000  0.54876400  0.39918500  1
  Si  Si4  1  0.82167500  0.17832500  0.75000000  1
  Si  Si5  1  0.17832500  0.82167500  0.25000000  1
  O  O0  1  0.04510300  0.04919400  0.85530500  1
  O  O1  1  0.66410600  0.45036200  0.65957300  1
  O  O2  1  0.04919400  0.04510300  0.35530500  1
  O  O3  1  0.45036200  0.66410600  0.15957300  1
  O  O4  1  0.18851200  0.11545600  0.60216500  1
  O  O5  1  0.60719900  0.70883100  0.95694700  1
  O  O6  1  0.11545600  0.18851200  0.10216500  1
  O  O7  1  0.70883100  0.60719900  0.45694700  1
  O  O8  1  0.76291700  0.67052400  0.68685200  1
  O  O9  1  0.67052400  0.76291700  0.18685200  1
  O  O10  1  0.32947600  0.23708300  0.81314800  1
  O  O11  1  0.23708300  0.32947600  0.31314800  1
  O  O12  1  0.29116900  0.39280100  0.54305300  1
  O  O13  1  0.88454400  0.81148800  0.89783500  1
  O  O14  1  0.39280100  0.29116900  0.04305300  1
  O  O15  1  0.81148800  0.88454400  0.39783500  1
  O  O16  1  0.54963800  0.33589400  0.84042700  1
  O  O17  1  0.95080600  0.95489700  0.64469500  1
  O  O18  1  0.33589400  0.54963800  0.34042700  1
  O  O19  1  0.95489700  0.95080600  0.14469500  1
loop_
_geom_bond_atom_site_label_1
_geom_bond_atom_site_label_2
_geom_bond_distance
_geom_bond_site_symmetry_2
Li0 O4 2.047989 1_565
Li0 O2 2.077303 1_565
Li0 O17 2.256701 1_455
Li0 O1 2.346145 1_555
Li0 O7 2.455334 1_555
Li1 O6 2.047989 1_655
Li1 O0 2.077303 1_654
Li1 O19 2.256701 1_545
Li1 O3 2.346145 1_555
Li1 O5 2.455334 1_554
Li2 O13 2.047989 1_455
Li2 O19 2.077303 1_456
Li2 O0 2.256701 1_565
Li2 O16 2.346145 1_555
Li2 O14 2.455334 1_556
Li3 O15 2.047989 1_545
Li3 O17 2.077303 1_545
Li3 O2 2.256701 1_655
Li3 O18 2.346145 1_555
Li3 O12 2.455334 1_555
Cr0 O5 2.065868 1_555
Cr0 O8 2.128560 1_555
Cr0 O0 2.134597 1_565
Cr0 O4 2.139783 1_565
Cr0 O10 2.365602 1_565
Cr1 O7 2.065868 1_555
Cr1 O9 2.128560 1_555
Cr1 O2 2.134597 1_655
Cr1 O6 2.139783 1_655
Cr1 O11 2.365602 1_655
Cr2 O4 2.146232 1_555
Cr2 O15 2.146232 1_545
Cr2 O7 2.171760 1_545
Cr2 O12 2.171760 1_555
Cr2 O8 2.453721 1_545
Cr2 O11 2.453721 1_555
Cr3 O6 2.146232 1_555
Cr3 O13 2.146232 1_454
Cr3 O14 2.171760 1_555
Cr3 O5 2.171760 1_454
Cr3 O9 2.453721 1_455
Cr3 O10 2.453721 1_554
Cr4 O12 2.065868 1_555
Cr4 O10 2.128560 1_555
Cr4 O17 2.134597 1_455
Cr4 O13 2.139783 1_455
Cr4 O8 2.365602 1_455
Cr5 O14 2.065868 1_555
Cr5 O11 2.128560 1_555
Cr5 O19 2.134597 1_545
Cr5 O15 2.139783 1_545
Cr5 O9 2.365602 1_545
O0 Si4 1.621057 1_455
O1 Si4 1.662041 1_555
O1 Si0 1.684584 1_555
O2 Si5 1.621057 1_545
O3 Si5 1.662041 1_555
O3 Si1 1.684584 1_555
O4 Si0 1.645138 1_455
O5 Si1 1.656925 1_556
O6 Si1 1.645138 1_545
O7 Si0 1.656925 1_555
O8 Si0 1.623123 1_555
O9 Si1 1.623123 1_555
O10 Si2 1.623123 1_555
O11 Si3 1.623123 1_555
O12 Si3 1.656925 1_555
O13 Si2 1.645138 1_565
O14 Si2 1.656925 1_554
O15 Si3 1.645138 1_655
O16 Si4 1.662041 1_555
O16 Si2 1.684584 1_555
O17 Si4 1.621057 1_565
O18 Si5 1.662041 1_555
O18 Si3 1.684584 1_555
O19 Si5 1.621057 1_655
