# generated using pymatgen
data_P6H24N6O19
_symmetry_space_group_name_H-M   'P 1'
_cell_length_a   9.36808974
_cell_length_b   9.36808974
_cell_length_c   9.36809005
_cell_angle_alpha   112.97901280
_cell_angle_beta   112.97901280
_cell_angle_gamma   112.97901068
_symmetry_Int_Tables_number   1
_chemical_formula_structural   P6H24N6O19
_chemical_formula_sum   'P6 H24 N6 O19'
_cell_volume   535.20890620
_cell_formula_units_Z   1
loop_
 _symmetry_equiv_pos_site_id
 _symmetry_equiv_pos_as_xyz
  1  'x, y, z'
loop_
 _atom_site_type_symbol
 _atom_site_label
 _atom_site_symmetry_multiplicity
 _atom_site_fract_x
 _atom_site_fract_y
 _atom_site_fract_z
 _atom_site_occupancy
  P  P0  1  0.12191900  0.21553300  0.86882300  1
  P  P1  1  0.86882300  0.12191900  0.21553300  1
  P  P2  1  0.21553300  0.86882300  0.12191900  1
  P  P3  1  0.87808100  0.78446700  0.13117700  1
  P  P4  1  0.13117700  0.87808100  0.78446700  1
  P  P5  1  0.78446700  0.13117700  0.87808100  1
  H  H0  1  0.87275500  0.28332800  0.64309300  1
  H  H1  1  0.64309300  0.87275500  0.28332800  1
  H  H2  1  0.28332800  0.64309300  0.87275500  1
  H  H3  1  0.12724500  0.71667200  0.35690700  1
  H  H4  1  0.35690700  0.12724500  0.71667200  1
  H  H5  1  0.71667200  0.35690700  0.12724500  1
  H  H6  1  0.22927000  0.19239000  0.61997100  1
  H  H7  1  0.61997100  0.22927000  0.19239000  1
  H  H8  1  0.19239000  0.61997100  0.22927000  1
  H  H9  1  0.77073000  0.80761000  0.38002900  1
  H  H10  1  0.38002900  0.77073000  0.80761000  1
  H  H11  1  0.80761000  0.38002900  0.77073000  1
  H  H12  1  0.21780400  0.51733600  0.63756300  1
  H  H13  1  0.63756300  0.21780400  0.51733600  1
  H  H14  1  0.51733600  0.63756300  0.21780400  1
  H  H15  1  0.78219600  0.48266400  0.36243700  1
  H  H16  1  0.36243700  0.78219600  0.48266400  1
  H  H17  1  0.48266400  0.36243700  0.78219600  1
  H  H18  1  0.14868400  0.54274200  0.35427600  1
  H  H19  1  0.35427600  0.14868400  0.54274200  1
  H  H20  1  0.54274200  0.35427600  0.14868400  1
  H  H21  1  0.85131600  0.45725800  0.64572400  1
  H  H22  1  0.64572400  0.85131600  0.45725800  1
  H  H23  1  0.45725800  0.64572400  0.85131600  1
  N  N0  1  0.33398600  0.64199600  0.79121400  1
  N  N1  1  0.79121400  0.33398600  0.64199600  1
  N  N2  1  0.64199600  0.79121400  0.33398600  1
  N  N3  1  0.66601400  0.35800400  0.20878600  1
  N  N4  1  0.20878600  0.66601400  0.35800400  1
  N  N5  1  0.35800400  0.20878600  0.66601400  1
  O  O0  1  0.34567500  0.36182100  0.04138000  1
  O  O1  1  0.04138000  0.34567500  0.36182100  1
  O  O2  1  0.36182100  0.04138000  0.34567500  1
  O  O3  1  0.65432500  0.63817900  0.95862000  1
  O  O4  1  0.95862000  0.65432500  0.63817900  1
  O  O5  1  0.63817900  0.95862000  0.65432500  1
  O  O6  1  0.04332400  0.22423900  0.70105200  1
  O  O7  1  0.70105200  0.04332400  0.22423900  1
  O  O8  1  0.22423900  0.70105200  0.04332400  1
  O  O9  1  0.95667600  0.77576100  0.29894800  1
  O  O10  1  0.29894800  0.95667600  0.77576100  1
  O  O11  1  0.77576100  0.29894800  0.95667600  1
  O  O12  1  0.03184900  0.98329300  0.76261000  1
  O  O13  1  0.76261000  0.03184900  0.98329300  1
  O  O14  1  0.98329300  0.76261000  0.03184900  1
  O  O15  1  0.96815100  0.01670700  0.23739000  1
  O  O16  1  0.23739000  0.96815100  0.01670700  1
  O  O17  1  0.01670700  0.23739000  0.96815100  1
  O  O18  1  0.50000000  0.50000000  0.50000000  1
loop_
_geom_bond_atom_site_label_1
_geom_bond_atom_site_label_2
_geom_bond_distance
_geom_bond_site_symmetry_2
H0 N1 1.043822 1_555
H1 N2 1.043822 1_555
H2 N0 1.043822 1_555
H3 N4 1.043822 1_555
H4 N5 1.043822 1_555
H5 N3 1.043822 1_555
H6 N5 1.030311 1_555
H7 N3 1.030311 1_555
H8 N4 1.030311 1_555
H9 N2 1.030311 1_555
H10 N0 1.030311 1_555
H11 N1 1.030311 1_555
H12 N0 1.045083 1_555
H13 N1 1.045083 1_555
H14 N2 1.045083 1_555
H15 N3 1.045083 1_555
H16 N4 1.045083 1_555
H17 N5 1.045083 1_555
H18 N4 1.047535 1_555
H19 N5 1.047535 1_555
H20 N3 1.047535 1_555
H21 N1 1.047535 1_555
H22 N2 1.047535 1_555
H23 N0 1.047535 1_555
O0 P0 1.505592 1_554
O1 P1 1.505592 1_455
O2 P2 1.505592 1_545
O3 P3 1.505592 1_556
O4 P4 1.505592 1_655
O5 P5 1.505592 1_565
O6 P0 1.504135 1_555
O7 P1 1.504135 1_555
O8 P2 1.504135 1_555
O9 P3 1.504135 1_555
O10 P4 1.504135 1_555
O11 P5 1.504135 1_555
O12 P4 1.613744 1_555
O12 P0 1.629824 1_565
O13 P5 1.613744 1_555
O13 P1 1.629824 1_556
O14 P3 1.613744 1_555
O14 P2 1.629824 1_655
O15 P1 1.613744 1_555
O15 P3 1.629824 1_545
O16 P2 1.613744 1_555
O16 P4 1.629824 1_554
O17 P0 1.613744 1_555
O17 P5 1.629824 1_455
