# generated using pymatgen
data_NaMn(HO)3
_symmetry_space_group_name_H-M   'P 1'
_cell_length_a   11.51348200
_cell_length_b   11.51348200
_cell_length_c   6.05686400
_cell_angle_alpha   90.00000000
_cell_angle_beta   90.00000000
_cell_angle_gamma   90.00000000
_symmetry_Int_Tables_number   1
_chemical_formula_structural   NaMn(HO)3
_chemical_formula_sum   'Na8 Mn8 H24 O24'
_cell_volume   802.89951365
_cell_formula_units_Z   8
loop_
 _symmetry_equiv_pos_site_id
 _symmetry_equiv_pos_as_xyz
  1  'x, y, z'
loop_
 _atom_site_type_symbol
 _atom_site_label
 _atom_site_symmetry_multiplicity
 _atom_site_fract_x
 _atom_site_fract_y
 _atom_site_fract_z
 _atom_site_occupancy
  Na  Na0  1  0.06382900  0.11759000  0.55510900  1
  Na  Na1  1  0.11759000  0.93617100  0.05510900  1
  Na  Na2  1  0.38241000  0.43617100  0.05510900  1
  Na  Na3  1  0.43617100  0.61759000  0.55510900  1
  Na  Na4  1  0.56382900  0.38241000  0.55510900  1
  Na  Na5  1  0.61759000  0.56382900  0.05510900  1
  Na  Na6  1  0.88241000  0.06382900  0.05510900  1
  Na  Na7  1  0.93617100  0.88241000  0.55510900  1
  Mn  Mn0  1  0.07112100  0.28963000  0.02570500  1
  Mn  Mn1  1  0.21037000  0.42887900  0.52570500  1
  Mn  Mn2  1  0.28963000  0.92887900  0.52570500  1
  Mn  Mn3  1  0.42887900  0.78963000  0.02570500  1
  Mn  Mn4  1  0.57112100  0.21037000  0.02570500  1
  Mn  Mn5  1  0.71037000  0.07112100  0.52570500  1
  Mn  Mn6  1  0.78963000  0.57112100  0.52570500  1
  Mn  Mn7  1  0.92887900  0.71037000  0.02570500  1
  H  H0  1  0.78537400  0.75810600  0.70062800  1
  H  H1  1  0.15224900  0.62335700  0.34640700  1
  H  H2  1  0.12313000  0.83868100  0.73607200  1
  H  H3  1  0.74189400  0.71462600  0.20062800  1
  H  H4  1  0.12335700  0.65224900  0.84640700  1
  H  H5  1  0.16131900  0.12313000  0.23607200  1
  H  H6  1  0.33868100  0.62313000  0.23607200  1
  H  H7  1  0.37664300  0.15224900  0.84640700  1
  H  H8  1  0.75810600  0.21462600  0.20062800  1
  H  H9  1  0.37687000  0.33868100  0.73607200  1
  H  H10  1  0.34775100  0.12335700  0.34640700  1
  H  H11  1  0.71462600  0.25810600  0.70062800  1
  H  H12  1  0.28537400  0.74189400  0.70062800  1
  H  H13  1  0.65224900  0.87664300  0.34640700  1
  H  H14  1  0.62313000  0.66131900  0.73607200  1
  H  H15  1  0.24189400  0.78537400  0.20062800  1
  H  H16  1  0.62335700  0.84775100  0.84640700  1
  H  H17  1  0.66131900  0.37687000  0.23607200  1
  H  H18  1  0.83868100  0.87687000  0.23607200  1
  H  H19  1  0.87664300  0.34775100  0.84640700  1
  H  H20  1  0.25810600  0.28537400  0.20062800  1
  H  H21  1  0.87687000  0.16131900  0.73607200  1
  H  H22  1  0.84775100  0.37664300  0.34640700  1
  H  H23  1  0.21462600  0.24189400  0.70062800  1
  O  O0  1  0.28767500  0.85772000  0.20350000  1
  O  O1  1  0.08359800  0.12444700  0.16769800  1
  O  O2  1  0.10174700  0.70863700  0.95903800  1
  O  O3  1  0.12444700  0.91640200  0.66769800  1
  O  O4  1  0.64228000  0.21232500  0.70350000  1
  O  O5  1  0.20863700  0.60174700  0.45903800  1
  O  O6  1  0.29136300  0.10174700  0.45903800  1
  O  O7  1  0.85772000  0.71232500  0.70350000  1
  O  O8  1  0.37555300  0.41640200  0.66769800  1
  O  O9  1  0.39825300  0.20863700  0.95903800  1
  O  O10  1  0.41640200  0.62444700  0.16769800  1
  O  O11  1  0.21232500  0.35772000  0.20350000  1
  O  O12  1  0.78767500  0.64228000  0.20350000  1
  O  O13  1  0.58359800  0.37555300  0.16769800  1
  O  O14  1  0.60174700  0.79136300  0.95903800  1
  O  O15  1  0.62444700  0.58359800  0.66769800  1
  O  O16  1  0.14228000  0.28767500  0.70350000  1
  O  O17  1  0.70863700  0.89825300  0.45903800  1
  O  O18  1  0.79136300  0.39825300  0.45903800  1
  O  O19  1  0.35772000  0.78767500  0.70350000  1
  O  O20  1  0.87555300  0.08359800  0.66769800  1
  O  O21  1  0.89825300  0.29136300  0.95903800  1
  O  O22  1  0.91640200  0.87555300  0.16769800  1
  O  O23  1  0.71232500  0.14228000  0.20350000  1
loop_
_geom_bond_atom_site_label_1
_geom_bond_atom_site_label_2
_geom_bond_distance
_geom_bond_site_symmetry_2
Na0 O20 2.305901 1_455
Na0 O16 2.336340 1_555
Na0 O1 2.358831 1_555
Na0 O3 2.513509 1_545
Na0 O6 2.689747 1_555
Na1 O1 2.305901 1_565
Na1 O0 2.336340 1_555
Na1 O3 2.358831 1_554
Na1 O22 2.513509 1_455
Na1 O2 2.689747 1_554
Na2 O10 2.305901 1_555
Na2 O11 2.336340 1_555
Na2 O8 2.358831 1_554
Na2 O13 2.513509 1_555
Na2 O9 2.689747 1_554
Na3 O15 2.305901 1_555
Na3 O19 2.336340 1_555
Na3 O10 2.358831 1_555
Na3 O8 2.513509 1_555
Na3 O5 2.689747 1_555
Na4 O8 2.305901 1_555
Na4 O4 2.336340 1_555
Na4 O13 2.358831 1_555
Na4 O15 2.513509 1_555
Na4 O18 2.689747 1_555
Na5 O13 2.305901 1_555
Na5 O12 2.336340 1_555
Na5 O15 2.358831 1_554
Na5 O10 2.513509 1_555
Na5 O14 2.689747 1_554
Na6 O22 2.305901 1_545
Na6 O23 2.336340 1_555
Na6 O20 2.358831 1_554
Na6 O1 2.513509 1_655
Na6 O21 2.689747 1_554
Na7 O3 2.305901 1_655
Na7 O7 2.336340 1_555
Na7 O22 2.358831 1_555
Na7 O20 2.513509 1_565
Na7 O17 2.689747 1_555
Mn0 O21 2.030958 1_454
Mn0 O1 2.092189 1_555
Mn0 O11 2.101741 1_555
Mn0 O16 2.116670 1_554
Mn1 O5 2.030958 1_555
Mn1 O8 2.092189 1_555
Mn1 O16 2.101741 1_555
Mn1 O11 2.116670 1_555
Mn2 O6 2.030958 1_565
Mn2 O3 2.092189 1_555
Mn2 O19 2.101741 1_555
Mn2 O0 2.116670 1_555
Mn3 O14 2.030958 1_554
Mn3 O10 2.092189 1_555
Mn3 O0 2.101741 1_555
Mn3 O19 2.116670 1_554
Mn4 O9 2.030958 1_554
Mn4 O13 2.092189 1_555
Mn4 O23 2.101741 1_555
Mn4 O4 2.116670 1_554
Mn5 O17 2.030958 1_545
Mn5 O20 2.092189 1_555
Mn5 O4 2.101741 1_555
Mn5 O23 2.116670 1_555
Mn6 O18 2.030958 1_555
Mn6 O15 2.092189 1_555
Mn6 O7 2.101741 1_555
Mn6 O12 2.116670 1_555
Mn7 O2 2.030958 1_654
Mn7 O22 2.092189 1_555
Mn7 O12 2.101741 1_555
Mn7 O7 2.116670 1_554
H0 O7 0.985875 1_555
H0 Na7 2.416503 1_555
H1 O5 0.974052 1_555
H2 O3 0.986140 1_555
H2 Na1 2.235619 1_556
H2 Na7 2.467452 1_455
H3 O12 0.985875 1_555
H3 Na5 2.416503 1_555
H4 O2 0.974052 1_555
H5 O1 0.986140 1_555
H5 Na0 2.235619 1_555
H5 Na1 2.467452 1_545
H6 O10 0.986140 1_555
H6 Na3 2.235619 1_555
H6 Na2 2.467452 1_555
H7 O9 0.974052 1_555
H8 O23 0.985875 1_555
H8 Na6 2.416503 1_555
H9 O8 0.986140 1_555
H9 Na2 2.235619 1_556
H9 Na4 2.467452 1_555
H10 O6 0.974052 1_555
H11 O4 0.985875 1_555
H11 Na4 2.416503 1_555
H12 O19 0.985875 1_555
H12 Na3 2.416503 1_555
H13 O17 0.974052 1_555
H14 O15 0.986140 1_555
H14 Na5 2.235619 1_556
H14 Na3 2.467452 1_555
H15 O0 0.985875 1_555
H15 Na1 2.416503 1_555
H16 O14 0.974052 1_555
H17 O13 0.986140 1_555
H17 Na4 2.235619 1_555
H17 Na5 2.467452 1_555
H18 O22 0.986140 1_555
H18 Na7 2.235619 1_555
H18 Na6 2.467452 1_565
H19 O21 0.974052 1_555
H20 O11 0.985875 1_555
H20 Na2 2.416503 1_555
H21 O20 0.986140 1_555
H21 Na6 2.235619 1_556
H21 Na0 2.467452 1_655
H22 O18 0.974052 1_555
H23 O16 0.985875 1_555
H23 Na0 2.416503 1_555
