# generated using pymatgen
data_Li6V3P8O29
_symmetry_space_group_name_H-M   'P 1'
_cell_length_a   9.83129805
_cell_length_b   9.80819493
_cell_length_c   13.88228040
_cell_angle_alpha   89.98696178
_cell_angle_beta   89.70691390
_cell_angle_gamma   60.07079617
_symmetry_Int_Tables_number   1
_chemical_formula_structural   Li6V3P8O29
_chemical_formula_sum   'Li12 V6 P16 O58'
_cell_volume   1160.09493245
_cell_formula_units_Z   2
loop_
 _symmetry_equiv_pos_site_id
 _symmetry_equiv_pos_as_xyz
  1  'x, y, z'
loop_
 _atom_site_type_symbol
 _atom_site_label
 _atom_site_symmetry_multiplicity
 _atom_site_fract_x
 _atom_site_fract_y
 _atom_site_fract_z
 _atom_site_occupancy
  Li  Li0  1  0.91095500  0.77708600  0.05715200  1
  Li  Li1  1  0.77069500  0.90442800  0.56374500  1
  Li  Li2  1  0.90456800  0.32338000  0.56276500  1
  Li  Li3  1  0.66413900  0.67088800  0.88097700  1
  Li  Li4  1  0.77385200  0.31391900  0.05882200  1
  Li  Li5  1  0.31417800  0.90847200  0.05627900  1
  Li  Li6  1  0.67779700  0.22766000  0.44236100  1
  Li  Li7  1  0.32493900  0.77015400  0.56351900  1
  Li  Li8  1  0.33593000  0.33370700  0.11380600  1
  Li  Li9  1  0.09379800  0.67812500  0.44170200  1
  Li  Li10  1  0.22833200  0.09227500  0.44200400  1
  Li  Li11  1  0.09213100  0.22611400  0.93622100  1
  V  V0  1  0.56780600  0.43213300  0.25096100  1
  V  V1  1  0.43049800  0.56511900  0.75455500  1
  V  V2  1  0.56838700  0.00260900  0.75338000  1
  V  V3  1  0.43581000  0.99813000  0.24880900  1
  V  V4  1  0.00009400  0.57050000  0.25075100  1
  V  V5  1  0.99889100  0.43418900  0.74811000  1
  P  P0  1  0.90950500  0.77121200  0.84424100  1
  P  P1  1  0.76651900  0.91448300  0.34365400  1
  P  P2  1  0.91335600  0.31904100  0.34136700  1
  P  P3  1  0.66897200  0.66655100  0.12554300  1
  P  P4  1  0.66468100  0.66759700  0.62648700  1
  P  P5  1  0.76986000  0.31974700  0.84262700  1
  P  P6  1  0.68109700  0.23259400  0.65799300  1
  P  P7  1  0.31890600  0.90981000  0.84203100  1
  P  P8  1  0.68401900  0.08727000  0.15785700  1
  P  P9  1  0.31702200  0.76831000  0.34358800  1
  P  P10  1  0.23103000  0.68174200  0.15736400  1
  P  P11  1  0.33305700  0.33244400  0.37360200  1
  P  P12  1  0.33181600  0.33162500  0.87330000  1
  P  P13  1  0.08718800  0.68269900  0.65913400  1
  P  P14  1  0.23420700  0.08681500  0.65787400  1
  P  P15  1  0.09046100  0.22993000  0.15607500  1
  O  O0  1  0.99702200  0.75770200  0.56855200  1
  O  O1  1  0.91749300  0.75028100  0.34147800  1
  O  O2  1  0.76877300  0.99359400  0.07216900  1
  O  O3  1  0.74317700  0.91621700  0.83798100  1
  O  O4  1  0.88868900  0.62536700  0.82511800  1
  O  O5  1  0.81392700  0.67388200  0.16440500  1
  O  O6  1  0.90485200  0.47850400  0.32122100  1
  O  O7  1  0.99772100  0.24505200  0.06708000  1
  O  O8  1  0.92000900  0.33654100  0.83848400  1
  O  O9  1  0.67009900  0.81488400  0.66760800  1
  O  O10  1  0.62001000  0.90048200  0.32530500  1
  O  O11  1  0.81390400  0.51294000  0.66637900  1
  O  O12  1  0.66367200  0.67112300  0.01729200  1
  O  O13  1  0.66703800  0.66571400  0.51889100  1
  O  O14  1  0.67180300  0.51601000  0.16475900  1
  O  O15  1  0.48514300  0.88915300  0.82594700  1
  O  O16  1  0.51549000  0.81784800  0.16681300  1
  O  O17  1  0.74859400  0.33599000  0.34181500  1
  O  O18  1  0.79002400  0.21195500  0.75029800  1
  O  O19  1  0.76148000  0.24219800  0.56755200  1
  O  O20  1  0.76061700  0.24651500  0.93389000  1
  O  O21  1  0.62644100  0.48733900  0.82552000  1
  O  O22  1  0.51324900  0.67036400  0.66849000  1
  O  O23  1  0.66422000  0.25590100  0.15980300  1
  O  O24  1  0.47650700  0.61728600  0.32164400  1
  O  O25  1  0.33467500  0.91508600  0.34239300  1
  O  O26  1  0.78616100  0.00770400  0.25413700  1
  O  O27  1  0.75541000  0.00145100  0.43519600  1
  O  O28  1  0.24311000  0.99674700  0.56781700  1
  O  O29  1  0.66686900  0.08300900  0.65851500  1
  O  O30  1  0.52294300  0.38208300  0.67416800  1
  O  O31  1  0.33644300  0.74644600  0.84102100  1
  O  O32  1  0.48758700  0.32570700  0.33385900  1
  O  O33  1  0.37367200  0.51462500  0.17331300  1
  O  O34  1  0.23899000  0.76855800  0.07252200  1
  O  O35  1  0.24441900  0.75286600  0.43540100  1
  O  O36  1  0.20681900  0.78548900  0.25422500  1
  O  O37  1  0.25163700  0.66390100  0.65797600  1
  O  O38  1  0.47965700  0.18563400  0.83010200  1
  O  O39  1  0.51598300  0.11118700  0.17313600  1
  O  O40  1  0.33484100  0.47917000  0.83019600  1
  O  O41  1  0.33197000  0.33088600  0.98101400  1
  O  O42  1  0.33073500  0.32988400  0.48091600  1
  O  O43  1  0.18645000  0.48640300  0.33341000  1
  O  O44  1  0.38392000  0.09458000  0.67487200  1
  O  O45  1  0.33013100  0.18305400  0.32995800  1
  O  O46  1  0.08213100  0.66240200  0.15938700  1
  O  O47  1  0.99978600  0.78998000  0.75121700  1
  O  O48  1  0.99562600  0.75890600  0.93376000  1
  O  O49  1  0.09544900  0.52251600  0.67683400  1
  O  O50  1  0.18256300  0.33038800  0.83546100  1
  O  O51  1  0.11357300  0.37281600  0.17405900  1
  O  O52  1  0.25281500  0.07968200  0.15563700  1
  O  O53  1  0.24191400  0.00452800  0.93118000  1
  O  O54  1  0.21061200  0.00075000  0.75039500  1
  O  O55  1  0.08464100  0.25109400  0.65764900  1
  O  O56  1  0.00217300  0.24350900  0.43189800  1
  O  O57  1  0.00069100  0.21003100  0.24901900  1
loop_
_geom_bond_atom_site_label_1
_geom_bond_atom_site_label_2
_geom_bond_distance
_geom_bond_site_symmetry_2
Li0 O48 1.869868 1_554
Li0 O2 1.882041 1_555
Li0 O46 2.060687 1_655
Li0 O5 2.258266 1_555
Li1 O0 1.957728 1_555
Li1 O27 1.993005 1_565
Li1 O29 2.010966 1_565
Li1 O9 2.163323 1_555
Li2 O19 1.932378 1_555
Li2 O56 2.016857 1_655
Li2 O55 2.035387 1_655
Li2 O11 2.157473 1_555
Li3 O12 1.892344 1_556
Li3 O15 2.125355 1_555
Li3 O21 2.154165 1_555
Li3 O4 2.161792 1_555
Li4 O20 1.884305 1_554
Li4 O7 1.957688 1_555
Li4 O23 2.011692 1_555
Li4 O14 2.258345 1_555
Li5 O34 1.868383 1_555
Li5 O53 1.937089 1_564
Li5 O52 2.016934 1_565
Li5 O16 2.310139 1_555
Li6 O27 1.955698 1_555
Li6 O19 1.961992 1_555
Li6 O17 2.070997 1_555
Li6 O32 2.219060 1_555
Li7 O28 1.950789 1_555
Li7 O35 1.991784 1_555
Li7 O37 2.015937 1_555
Li7 O22 2.174341 1_555
Li8 O41 1.844571 1_554
Li8 O33 2.151675 1_555
Li8 O39 2.175819 1_555
Li8 O51 2.184107 1_555
Li9 O35 1.954399 1_555
Li9 O0 1.964153 1_455
Li9 O1 2.059416 1_455
Li9 O43 2.214474 1_555
Li10 O28 1.953337 1_545
Li10 O56 1.968677 1_555
Li10 O25 2.049099 1_545
Li10 O45 2.255324 1_555
Li11 O53 1.924132 1_555
Li11 O7 2.001746 1_456
Li11 O8 2.017787 1_455
Li11 O50 2.164942 1_555
O0 P13 1.506154 1_655
O1 P1 1.553058 1_555
O1 V4 1.979086 1_655
O2 P8 1.476451 1_565
O3 P0 1.544332 1_555
O3 V2 1.901973 1_565
O4 P0 1.565715 1_555
O4 V5 1.947969 1_555
O5 P3 1.561171 1_555
O5 V4 1.996213 1_655
O6 P2 1.549516 1_555
O6 V4 1.865816 1_655
O7 P15 1.502045 1_655
O8 P5 1.565645 1_555
O8 V5 1.955346 1_555
O9 P4 1.578958 1_555
O9 V2 1.989844 1_565
O10 P1 1.536087 1_555
O10 V3 1.900779 1_555
O11 P4 1.596011 1_555
O11 V5 1.952041 1_555
O12 P3 1.503823 1_555
O13 P4 1.493714 1_555
O14 P3 1.560799 1_555
O14 V0 1.995136 1_555
O15 P7 1.558138 1_555
O15 V2 1.955187 1_565
O16 P3 1.601366 1_555
O16 V3 1.909352 1_555
O17 P2 1.543600 1_555
O17 V0 1.997253 1_555
O18 P5 1.608973 1_555
O18 P6 1.620923 1_555
O19 P6 1.507921 1_555
O20 P5 1.480826 1_555
O21 P5 1.561082 1_555
O21 V1 1.953474 1_555
O22 P4 1.583664 1_555
O22 V1 1.995600 1_555
O23 P8 1.566184 1_555
O23 V0 1.959973 1_555
O24 P9 1.556650 1_555
O24 V0 1.852477 1_555
O25 P9 1.533668 1_555
O25 V3 2.033293 1_555
O26 P1 1.609598 1_545
O26 P8 1.623313 1_555
O27 P1 1.503532 1_545
O28 P14 1.507741 1_565
O29 P6 1.541734 1_555
O29 V2 2.010466 1_555
O30 P6 1.529542 1_555
O30 V1 1.912252 1_555
O31 P7 1.523689 1_555
O31 V1 1.951280 1_555
O32 P11 1.583697 1_555
O32 V0 1.961533 1_555
O33 P10 1.552944 1_555
O33 V0 1.984694 1_555
O34 P10 1.477667 1_555
O35 P9 1.501820 1_555
O36 P9 1.603969 1_555
O36 P10 1.629679 1_555
O37 P13 1.533105 1_555
O37 V1 2.037612 1_555
O38 P12 1.561170 1_555
O38 V2 1.883255 1_555
O39 P8 1.561697 1_555
O39 V3 1.953875 1_545
O40 P12 1.579734 1_555
O40 V1 1.865021 1_555
O41 P12 1.495337 1_555
O42 P11 1.490219 1_555
O43 P11 1.582734 1_555
O43 V4 1.966439 1_555
O44 P14 1.530789 1_555
O44 V2 1.917769 1_555
O45 P11 1.599220 1_555
O45 V3 1.935674 1_545
O46 P10 1.567276 1_555
O46 V4 1.945802 1_555
O47 P13 1.602126 1_655
O47 P0 1.624980 1_555
O48 P0 1.478016 1_555
O49 P13 1.551789 1_555
O49 V5 1.855094 1_455
O50 P12 1.566796 1_555
O50 V5 1.988727 1_455
O51 P15 1.548073 1_555
O51 V4 1.991948 1_555
O52 P15 1.540184 1_555
O52 V3 2.033924 1_545
O53 P7 1.502294 1_545
O54 P14 1.614909 1_555
O54 P7 1.616516 1_545
O55 P14 1.547333 1_555
O55 V5 1.998062 1_455
O56 P2 1.502025 1_455
O57 P2 1.611590 1_455
O57 P15 1.625400 1_555
