# generated using pymatgen
data_Mn12O5F19
_symmetry_space_group_name_H-M   'P 1'
_cell_length_a   4.85144900
_cell_length_b   5.86391710
_cell_length_c   15.99572058
_cell_angle_alpha   90.22939042
_cell_angle_beta   90.10279111
_cell_angle_gamma   91.74394597
_symmetry_Int_Tables_number   1
_chemical_formula_structural   Mn12O5F19
_chemical_formula_sum   'Mn12 O5 F19'
_cell_volume   454.83891618
_cell_formula_units_Z   1
loop_
 _symmetry_equiv_pos_site_id
 _symmetry_equiv_pos_as_xyz
  1  'x, y, z'
loop_
 _atom_site_type_symbol
 _atom_site_label
 _atom_site_symmetry_multiplicity
 _atom_site_fract_x
 _atom_site_fract_y
 _atom_site_fract_z
 _atom_site_occupancy
  Mn  Mn0  1  0.99376100  0.83111500  0.59102800  1
  Mn  Mn1  1  0.01016500  0.14880600  0.75073100  1
  Mn  Mn2  1  0.99270700  0.82306200  0.92013900  1
  Mn  Mn3  1  0.01619300  0.85412400  0.24921400  1
  Mn  Mn4  1  0.02385000  0.17131000  0.41606200  1
  Mn  Mn5  1  0.01056300  0.16554500  0.08945000  1
  Mn  Mn6  1  0.50204600  0.64784500  0.41386500  1
  Mn  Mn7  1  0.50961600  0.65350100  0.07692900  1
  Mn  Mn8  1  0.48960800  0.67988800  0.73871300  1
  Mn  Mn9  1  0.52377200  0.34831800  0.91477100  1
  Mn  Mn10  1  0.50986700  0.35008100  0.58540100  1
  Mn  Mn11  1  0.47488000  0.33291300  0.25324400  1
  O  O0  1  0.20853300  0.87919900  0.69343600  1
  O  O1  1  0.21868300  0.12761100  0.19940800  1
  O  O2  1  0.28657700  0.38873300  0.35466300  1
  O  O3  1  0.71322500  0.60848900  0.97798800  1
  O  O4  1  0.70990600  0.63163300  0.63856100  1
  F  F0  1  0.23417900  0.88481300  0.36295100  1
  F  F1  1  0.23744100  0.88943700  0.02935300  1
  F  F2  1  0.23715300  0.11614000  0.86610000  1
  F  F3  1  0.23015900  0.09932700  0.53262500  1
  F  F4  1  0.27877700  0.61872900  0.85051700  1
  F  F5  1  0.26372500  0.38344900  0.69254600  1
  F  F6  1  0.25794400  0.60061800  0.52384300  1
  F  F7  1  0.27544800  0.62829200  0.18234500  1
  F  F8  1  0.26496300  0.39311100  0.02475000  1
  F  F9  1  0.73481200  0.39346600  0.80188800  1
  F  F10  1  0.73829400  0.38778000  0.47283400  1
  F  F11  1  0.70128100  0.37502800  0.14549500  1
  F  F12  1  0.73451600  0.60551700  0.29721100  1
  F  F13  1  0.75803200  0.89492400  0.81109600  1
  F  F14  1  0.78231200  0.87809100  0.47653000  1
  F  F15  1  0.76568600  0.11852300  0.64121300  1
  F  F16  1  0.77799100  0.11538800  0.97787400  1
  F  F17  1  0.77064300  0.87621200  0.13716200  1
  F  F18  1  0.76269000  0.09898400  0.31006300  1
loop_
_geom_bond_atom_site_label_1
_geom_bond_atom_site_label_2
_geom_bond_distance
_geom_bond_site_symmetry_2
Mn0 O4 1.937952 1_555
Mn0 O0 1.954688 1_655
Mn1 O0 2.085586 1_545
Mn2 O3 2.046422 1_555
Mn3 O1 2.022071 1_565
Mn4 O2 2.032312 1_555
Mn5 O1 2.042780 1_555
Mn6 O2 2.046060 1_555
Mn7 O3 1.888987 1_554
Mn8 O4 1.951835 1_555
Mn8 O0 1.962188 1_555
Mn9 O3 2.023313 1_555
Mn10 O4 2.068565 1_555
Mn11 O2 1.895449 1_555
Mn11 O1 1.905921 1_555
F0 Mn6 2.097170 1_555
F0 Mn3 2.107025 1_555
F0 Mn4 2.163644 1_565
F1 Mn7 2.086342 1_555
F1 Mn2 2.138235 1_454
F1 Mn5 2.203816 1_565
F2 Mn9 2.065345 1_555
F2 Mn1 2.159467 1_555
F2 Mn2 2.235762 1_445
F3 Mn0 2.137166 1_445
F3 Mn10 2.140247 1_555
F3 Mn4 2.163719 1_555
F4 Mn8 2.088661 1_555
F4 Mn2 2.167511 1_455
F4 Mn9 2.259822 1_555
F5 Mn1 2.045475 1_555
F5 Mn10 2.102491 1_555
F5 Mn8 2.153785 1_555
F6 Mn6 2.136646 1_555
F6 Mn0 2.173296 1_455
F6 Mn10 2.176742 1_555
F7 Mn7 2.038236 1_555
F7 Mn3 2.138826 1_555
F7 Mn11 2.310011 1_555
F8 Mn5 2.071336 1_555
F8 Mn7 2.076724 1_555
F8 Mn9 2.182792 1_554
F9 Mn9 2.091094 1_555
F9 Mn1 2.150248 1_655
F9 Mn8 2.321227 1_555
F10 Mn4 2.111275 1_655
F10 Mn10 2.124745 1_555
F10 Mn6 2.154767 1_555
F11 Mn11 2.057093 1_555
F11 Mn5 2.161530 1_655
F11 Mn7 2.199344 1_555
F12 Mn3 2.115078 1_655
F12 Mn11 2.121740 1_555
F12 Mn6 2.199155 1_555
F13 Mn8 2.123521 1_555
F13 Mn2 2.131679 1_555
F13 Mn1 2.133039 1_665
F14 Mn0 2.120619 1_555
F14 Mn6 2.132826 1_555
F14 Mn4 2.271518 1_665
F15 Mn10 2.071073 1_555
F15 Mn1 2.117645 1_655
F15 Mn0 2.194299 1_545
F16 Mn5 2.124442 1_656
F16 Mn9 2.124780 1_555
F16 Mn2 2.230659 1_545
F17 Mn7 2.030358 1_555
F17 Mn3 2.156855 1_655
F17 Mn5 2.170058 1_665
F18 Mn4 2.147981 1_655
F18 Mn3 2.149913 1_645
F18 Mn11 2.186172 1_555
