# generated using pymatgen
data_Fe10O11F9
_symmetry_space_group_name_H-M   'P 1'
_cell_length_a   4.70563600
_cell_length_b   4.70765193
_cell_length_c   15.49676817
_cell_angle_alpha   89.84044381
_cell_angle_beta   89.71922428
_cell_angle_gamma   89.45376728
_symmetry_Int_Tables_number   1
_chemical_formula_structural   Fe10O11F9
_chemical_formula_sum   'Fe10 O11 F9'
_cell_volume   343.27109209
_cell_formula_units_Z   1
loop_
 _symmetry_equiv_pos_site_id
 _symmetry_equiv_pos_as_xyz
  1  'x, y, z'
loop_
 _atom_site_type_symbol
 _atom_site_label
 _atom_site_symmetry_multiplicity
 _atom_site_fract_x
 _atom_site_fract_y
 _atom_site_fract_z
 _atom_site_occupancy
  Fe  Fe0  1  0.99253100  0.96883100  0.99356400  1
  Fe  Fe1  1  0.01658000  0.99288200  0.80556500  1
  Fe  Fe2  1  0.02611900  0.98436500  0.60237000  1
  Fe  Fe3  1  0.99861700  0.96031600  0.40119600  1
  Fe  Fe4  1  0.00566100  0.96015800  0.19798700  1
  Fe  Fe5  1  0.52027800  0.49879000  0.90344800  1
  Fe  Fe6  1  0.49640600  0.52588300  0.50488800  1
  Fe  Fe7  1  0.48268700  0.52035500  0.68977200  1
  Fe  Fe8  1  0.50628900  0.54019000  0.30227300  1
  Fe  Fe9  1  0.50069100  0.54022300  0.10095100  1
  O  O0  1  0.20870300  0.79214200  0.89737500  1
  O  O1  1  0.19477400  0.81650100  0.70483400  1
  O  O2  1  0.19185600  0.80827800  0.50106800  1
  O  O3  1  0.18556700  0.80302200  0.30025600  1
  O  O4  1  0.18555700  0.80523300  0.09638000  1
  O  O5  1  0.69211300  0.68553100  0.99884800  1
  O  O6  1  0.70330900  0.70615600  0.60094100  1
  O  O7  1  0.68658000  0.69365800  0.40334600  1
  O  O8  1  0.68754900  0.69786700  0.20018600  1
  O  O9  1  0.30394200  0.30553000  0.59908000  1
  O  O10  1  0.80878500  0.19156100  0.89708700  1
  F  F0  1  0.69681400  0.69087300  0.79722300  1
  F  F1  1  0.30285600  0.29760300  0.00079900  1
  F  F2  1  0.31616200  0.31267600  0.79886900  1
  F  F3  1  0.29721700  0.30081600  0.39955900  1
  F  F4  1  0.29598200  0.30226700  0.19850200  1
  F  F5  1  0.80352200  0.19854100  0.49919000  1
  F  F6  1  0.80306600  0.20467200  0.70471500  1
  F  F7  1  0.79446400  0.19715100  0.09905100  1
  F  F8  1  0.79532400  0.19793300  0.30068000  1
loop_
_geom_bond_atom_site_label_1
_geom_bond_atom_site_label_2
_geom_bond_distance
_geom_bond_site_symmetry_2
Fe0 O5 1.953979 1_555
Fe0 O0 1.981030 1_655
Fe0 O4 1.987673 1_656
Fe0 O10 2.017165 1_565
Fe1 O0 1.929624 1_555
Fe1 O1 1.952031 1_555
Fe1 O10 1.954184 1_465
Fe2 O2 1.934624 1_555
Fe2 O1 1.941402 1_555
Fe2 O9 2.008549 1_565
Fe2 O6 2.015366 1_455
Fe3 O2 1.931244 1_655
Fe3 O3 1.936395 1_655
Fe3 O7 1.940980 1_555
Fe4 O4 1.925979 1_555
Fe4 O3 1.941725 1_555
Fe4 O8 1.949642 1_455
Fe5 O5 1.909139 1_555
Fe5 O10 1.976544 1_555
Fe5 O0 2.006903 1_555
Fe6 O2 1.946459 1_555
Fe6 O7 1.973205 1_555
Fe6 O6 1.980102 1_555
Fe6 O9 2.005861 1_555
Fe7 O6 1.932480 1_555
Fe7 O9 1.934218 1_555
Fe7 O1 1.948425 1_555
Fe8 O7 1.930297 1_555
Fe8 O8 1.942574 1_555
Fe8 O3 1.942748 1_555
Fe9 O8 1.928951 1_555
Fe9 O4 1.930216 1_555
Fe9 O5 1.942840 1_554
F0 Fe5 2.051875 1_555
F0 Fe1 2.084693 1_655
F0 Fe7 2.114632 1_555
F1 Fe5 2.053077 1_554
F1 Fe0 2.141531 1_444
F1 Fe9 2.150422 1_555
F2 Fe1 2.074299 1_545
F2 Fe5 2.087075 1_555
F2 Fe7 2.102526 1_555
F3 Fe8 2.123165 1_555
F3 Fe3 2.141680 1_445
F3 Fe6 2.170024 1_555
F4 Fe9 2.113051 1_555
F4 Fe4 2.121875 1_545
F4 Fe8 2.206058 1_555
F5 Fe3 2.093522 1_545
F5 Fe6 2.104304 1_555
F5 Fe2 2.158179 1_645
F6 Fe1 2.105622 1_645
F6 Fe7 2.119858 1_555
F6 Fe2 2.159826 1_645
F7 Fe9 2.116032 1_555
F7 Fe4 2.137135 1_645
F7 Fe0 2.161483 1_544
F8 Fe8 2.098720 1_555
F8 Fe3 2.139457 1_545
F8 Fe4 2.176823 1_645
