# generated using pymatgen
data_CoAg(N3O4)2
_symmetry_space_group_name_H-M   'P 1'
_cell_length_a   6.91534000
_cell_length_b   6.91534000
_cell_length_c   9.79263000
_cell_angle_alpha   90.00000000
_cell_angle_beta   90.00000000
_cell_angle_gamma   90.00000000
_symmetry_Int_Tables_number   1
_chemical_formula_structural   CoAg(N3O4)2
_chemical_formula_sum   'Co2 Ag2 N12 O16'
_cell_volume   468.30244009
_cell_formula_units_Z   2
loop_
 _symmetry_equiv_pos_site_id
 _symmetry_equiv_pos_as_xyz
  1  'x, y, z'
loop_
 _atom_site_type_symbol
 _atom_site_label
 _atom_site_symmetry_multiplicity
 _atom_site_fract_x
 _atom_site_fract_y
 _atom_site_fract_z
 _atom_site_occupancy
  Co  Co0  1  0.50000000  0.50000000  0.50000000  1
  Co  Co1  1  0.00000000  0.00000000  0.00000000  1
  Ag  Ag0  1  0.50000000  0.50000000  0.00000000  1
  Ag  Ag1  1  0.00000000  0.00000000  0.50000000  1
  N  N0  1  0.70311000  0.70311000  0.50000000  1
  N  N1  1  0.29689000  0.29689000  0.50000000  1
  N  N2  1  0.20311000  0.20311000  0.00000000  1
  N  N3  1  0.79689000  0.79689000  0.00000000  1
  N  N4  1  0.70311000  0.29689000  0.50000000  1
  N  N5  1  0.29689000  0.70311000  0.50000000  1
  N  N6  1  0.20311000  0.79689000  0.00000000  1
  N  N7  1  0.79689000  0.20311000  0.00000000  1
  N  N8  1  0.50000000  0.50000000  0.69227200  1
  N  N9  1  0.00000000  0.00000000  0.80772800  1
  N  N10  1  0.50000000  0.50000000  0.30772800  1
  N  N11  1  0.00000000  0.00000000  0.19227200  1
  O  O0  1  0.72021800  0.81091900  0.60077000  1
  O  O1  1  0.27978200  0.18908100  0.60077000  1
  O  O2  1  0.22021800  0.31091900  0.89923000  1
  O  O3  1  0.77978200  0.68908100  0.89923000  1
  O  O4  1  0.72021800  0.18908100  0.39923000  1
  O  O5  1  0.27978200  0.81091900  0.39923000  1
  O  O6  1  0.22021800  0.68908100  0.10077000  1
  O  O7  1  0.77978200  0.31091900  0.10077000  1
  O  O8  1  0.81091900  0.27978200  0.60077000  1
  O  O9  1  0.18908100  0.72021800  0.60077000  1
  O  O10  1  0.31091900  0.77978200  0.89923000  1
  O  O11  1  0.68908100  0.22021800  0.89923000  1
  O  O12  1  0.18908100  0.27978200  0.39923000  1
  O  O13  1  0.81091900  0.72021800  0.39923000  1
  O  O14  1  0.68908100  0.77978200  0.10077000  1
  O  O15  1  0.31091900  0.22021800  0.10077000  1
loop_
_geom_bond_atom_site_label_1
_geom_bond_atom_site_label_2
_geom_bond_distance
_geom_bond_site_symmetry_2
Co0 N10 1.882849 1_555
Co0 N8 1.882849 1_555
Co0 N0 1.986369 1_555
Co0 N4 1.986369 1_555
Co0 N1 1.986369 1_555
Co0 N5 1.986369 1_555
Co1 N9 1.882849 1_554
Co1 N11 1.882849 1_555
Co1 N6 1.986369 1_545
Co1 N2 1.986369 1_555
Co1 N3 1.986369 1_445
Co1 N7 1.986369 1_455
Ag0 O15 2.535132 1_555
Ag0 O3 2.535132 1_554
Ag0 O14 2.535132 1_555
Ag0 O6 2.535132 1_555
Ag0 O2 2.535132 1_554
Ag0 O7 2.535132 1_555
Ag0 O10 2.535132 1_554
Ag0 O11 2.535132 1_554
Ag1 O4 2.535132 1_455
Ag1 O12 2.535132 1_555
Ag1 O5 2.535132 1_545
Ag1 O9 2.535132 1_545
Ag1 O8 2.535132 1_455
Ag1 O0 2.535132 1_445
Ag1 O1 2.535132 1_555
Ag1 O13 2.535132 1_445
N0 O0 1.242418 1_555
N0 O13 1.242418 1_555
N1 O12 1.242418 1_555
N1 O1 1.242418 1_555
N2 O15 1.242418 1_555
N2 O2 1.242418 1_554
N3 O14 1.242418 1_555
N3 O3 1.242418 1_554
N4 O8 1.242418 1_555
N4 O4 1.242418 1_555
N5 O5 1.242418 1_555
N5 O9 1.242418 1_555
N6 O6 1.242418 1_555
N6 O10 1.242418 1_554
N7 O7 1.242418 1_555
N7 O11 1.242418 1_554
