# generated using pymatgen
data_Li2Ti3VO8
_symmetry_space_group_name_H-M   'P 1'
_cell_length_a   5.94801604
_cell_length_b   5.94801604
_cell_length_c   9.81211000
_cell_angle_alpha   90.00000000
_cell_angle_beta   90.00000000
_cell_angle_gamma   120.00000040
_symmetry_Int_Tables_number   1
_chemical_formula_structural   Li2Ti3VO8
_chemical_formula_sum   'Li4 Ti6 V2 O16'
_cell_volume   300.63344927
_cell_formula_units_Z   2
loop_
 _symmetry_equiv_pos_site_id
 _symmetry_equiv_pos_as_xyz
  1  'x, y, z'
loop_
 _atom_site_type_symbol
 _atom_site_label
 _atom_site_symmetry_multiplicity
 _atom_site_fract_x
 _atom_site_fract_y
 _atom_site_fract_z
 _atom_site_occupancy
  Li  Li0  1  0.33333300  0.66666700  0.89223300  1
  Li  Li1  1  0.00000000  0.00000000  0.99876600  1
  Li  Li2  1  0.00000000  0.00000000  0.49876600  1
  Li  Li3  1  0.66666700  0.33333300  0.39223300  1
  Ti  Ti0  1  0.16815600  0.83184400  0.21526500  1
  Ti  Ti1  1  0.16815600  0.33631200  0.21526500  1
  Ti  Ti2  1  0.66368800  0.83184400  0.21526500  1
  Ti  Ti3  1  0.33631200  0.16815600  0.71526500  1
  Ti  Ti4  1  0.83184400  0.66368800  0.71526500  1
  Ti  Ti5  1  0.83184400  0.16815600  0.71526500  1
  V  V0  1  0.33333300  0.66666700  0.48559300  1
  V  V1  1  0.66666700  0.33333300  0.98559300  1
  O  O0  1  0.15797800  0.84202200  0.60724200  1
  O  O1  1  0.03510200  0.51755100  0.32931000  1
  O  O2  1  0.33333300  0.66666700  0.10607900  1
  O  O3  1  0.00000000  0.00000000  0.31523800  1
  O  O4  1  0.00000000  0.00000000  0.81523800  1
  O  O5  1  0.15797800  0.31595600  0.60724200  1
  O  O6  1  0.48244900  0.96489800  0.32931000  1
  O  O7  1  0.48244900  0.51755100  0.32931000  1
  O  O8  1  0.31595600  0.15797800  0.10724200  1
  O  O9  1  0.68404400  0.84202200  0.60724200  1
  O  O10  1  0.51755100  0.48244900  0.82931000  1
  O  O11  1  0.51755100  0.03510200  0.82931000  1
  O  O12  1  0.66666700  0.33333300  0.60607900  1
  O  O13  1  0.84202200  0.68404400  0.10724200  1
  O  O14  1  0.96489800  0.48244900  0.82931000  1
  O  O15  1  0.84202200  0.15797800  0.10724200  1
loop_
_geom_bond_atom_site_label_1
_geom_bond_atom_site_label_2
_geom_bond_distance
_geom_bond_site_symmetry_2
Li0 O11 1.995759 1_565
Li0 O14 1.995759 1_455
Li0 O10 1.995764 1_555
Li0 O2 2.098280 1_556
Li1 O4 1.800797 1_555
Li1 O13 1.944675 1_446
Li1 O8 1.944675 1_556
Li1 O15 1.944675 1_456
Li2 O3 1.800797 1_555
Li2 O9 1.944675 1_445
Li2 O5 1.944675 1_555
Li2 O0 1.944675 1_545
Li3 O1 1.995759 1_655
Li3 O6 1.995759 1_545
Li3 O7 1.995764 1_555
Li3 O12 2.098280 1_555
O0 Ti3 1.988459 1_565
O0 Ti4 1.988459 1_455
O0 V0 2.165271 1_555
O1 Ti0 1.973270 1_555
O1 Ti1 1.973270 1_555
O1 V0 2.170602 1_555
O2 Ti0 2.010859 1_555
O2 Ti2 2.010863 1_555
O2 Ti1 2.010863 1_555
O3 Ti1 1.990835 1_555
O3 Ti2 1.990835 1_445
O3 Ti0 1.990835 1_545
O4 Ti3 1.990835 1_555
O4 Ti4 1.990835 1_445
O4 Ti5 1.990835 1_455
O5 Ti5 1.988459 1_455
O5 Ti3 1.988459 1_555
O5 V0 2.165275 1_555
O6 Ti0 1.973270 1_555
O6 Ti2 1.973270 1_555
O6 V0 2.170602 1_555
O7 Ti1 1.973270 1_555
O7 Ti2 1.973270 1_555
O7 V0 2.170606 1_555
O8 Ti0 1.988459 1_545
O8 Ti1 1.988459 1_555
O8 V1 2.165275 1_554
O9 Ti5 1.988459 1_565
O9 Ti4 1.988459 1_555
O9 V0 2.165275 1_555
O10 Ti3 1.973270 1_555
O10 Ti4 1.973270 1_555
O10 V1 2.170606 1_555
O11 Ti5 1.973270 1_555
O11 Ti3 1.973270 1_555
O11 V1 2.170602 1_555
O12 Ti5 2.010859 1_555
O12 Ti4 2.010863 1_555
O12 Ti3 2.010863 1_555
O13 Ti0 1.988459 1_655
O13 Ti2 1.988459 1_555
O13 V1 2.165275 1_554
O14 Ti5 1.973270 1_555
O14 Ti4 1.973270 1_555
O14 V1 2.170602 1_555
O15 Ti1 1.988459 1_655
O15 Ti2 1.988459 1_545
O15 V1 2.165271 1_554
