# generated using pymatgen
data_Li3NiPCO7
_symmetry_space_group_name_H-M   'P 1'
_cell_length_a   6.30364000
_cell_length_b   9.41734200
_cell_length_c   9.69346089
_cell_angle_alpha   65.26640581
_cell_angle_beta   90.00000000
_cell_angle_gamma   90.00000000
_symmetry_Int_Tables_number   1
_chemical_formula_structural   Li3NiPCO7
_chemical_formula_sum   'Li12 Ni4 P4 C4 O28'
_cell_volume   522.64913598
_cell_formula_units_Z   4
loop_
 _symmetry_equiv_pos_site_id
 _symmetry_equiv_pos_as_xyz
  1  'x, y, z'
loop_
 _atom_site_type_symbol
 _atom_site_label
 _atom_site_symmetry_multiplicity
 _atom_site_fract_x
 _atom_site_fract_y
 _atom_site_fract_z
 _atom_site_occupancy
  Li  Li0  1  0.24280400  0.10873900  0.55595600  1
  Li  Li1  1  0.25719600  0.10873900  0.05595600  1
  Li  Li2  1  0.50129400  0.28189700  0.73687900  1
  Li  Li3  1  0.99870600  0.28189700  0.23687900  1
  Li  Li4  1  0.75003100  0.35712900  0.93384700  1
  Li  Li5  1  0.74996900  0.35712900  0.43384700  1
  Li  Li6  1  0.25003100  0.64287100  0.56615300  1
  Li  Li7  1  0.24996900  0.64287100  0.06615300  1
  Li  Li8  1  0.00129400  0.71810300  0.76312100  1
  Li  Li9  1  0.49870600  0.71810300  0.26312100  1
  Li  Li10  1  0.74280400  0.89126100  0.94404400  1
  Li  Li11  1  0.75719600  0.89126100  0.44404400  1
  Ni  Ni0  1  0.00505200  0.26747100  0.73931700  1
  Ni  Ni1  1  0.49494800  0.26747100  0.23931700  1
  Ni  Ni2  1  0.50505200  0.73252900  0.76068300  1
  Ni  Ni3  1  0.99494800  0.73252900  0.26068300  1
  P  P0  1  0.26114600  0.40730700  0.93463500  1
  P  P1  1  0.23885400  0.40730700  0.43463500  1
  P  P2  1  0.76114600  0.59269300  0.56536500  1
  P  P3  1  0.73885400  0.59269300  0.06536500  1
  C  C0  1  0.74462100  0.04029600  0.63084800  1
  C  C1  1  0.75537900  0.04029600  0.13084800  1
  C  C2  1  0.24462100  0.95970400  0.86915200  1
  C  C3  1  0.25537900  0.95970400  0.36915200  1
  O  O0  1  0.76733800  0.06485400  0.99189600  1
  O  O1  1  0.73266200  0.06485400  0.49189600  1
  O  O2  1  0.23409700  0.10371900  0.76114300  1
  O  O3  1  0.76586100  0.15400300  0.67203000  1
  O  O4  1  0.26590300  0.10371900  0.26114300  1
  O  O5  1  0.73413900  0.15400300  0.17203000  1
  O  O6  1  0.05894400  0.31742300  0.92406500  1
  O  O7  1  0.44727000  0.30706700  0.92396900  1
  O  O8  1  0.05273000  0.30706700  0.42396900  1
  O  O9  1  0.44105600  0.31742300  0.42406500  1
  O  O10  1  0.75982000  0.42330700  0.68954000  1
  O  O11  1  0.23484500  0.41354500  0.59341400  1
  O  O12  1  0.74018000  0.42330700  0.18954000  1
  O  O13  1  0.26515500  0.41354500  0.09341400  1
  O  O14  1  0.73484500  0.58645500  0.90658600  1
  O  O15  1  0.25982000  0.57669300  0.81046000  1
  O  O16  1  0.76515500  0.58645500  0.40658600  1
  O  O17  1  0.24018000  0.57669300  0.31046000  1
  O  O18  1  0.94727000  0.69293300  0.57603100  1
  O  O19  1  0.55894400  0.68257700  0.57593500  1
  O  O20  1  0.94105600  0.68257700  0.07593500  1
  O  O21  1  0.55273000  0.69293300  0.07603100  1
  O  O22  1  0.26586100  0.84599700  0.82797000  1
  O  O23  1  0.73409700  0.89628100  0.73885700  1
  O  O24  1  0.23413900  0.84599700  0.32797000  1
  O  O25  1  0.76590300  0.89628100  0.23885700  1
  O  O26  1  0.26733800  0.93514600  0.50810400  1
  O  O27  1  0.23266200  0.93514600  0.00810400  1
loop_
_geom_bond_atom_site_label_1
_geom_bond_atom_site_label_2
_geom_bond_distance
_geom_bond_site_symmetry_2
Li0 O26 1.883120 1_545
Li0 O2 1.970425 1_555
Li0 O8 2.135711 1_555
Li0 O9 2.226208 1_555
Li1 O27 1.883120 1_545
Li1 O4 1.970425 1_555
Li1 O7 2.135711 1_554
Li1 O6 2.226208 1_554
Li2 O7 1.954697 1_555
Li2 O10 2.031853 1_555
Li2 O11 2.202117 1_555
Li2 O3 2.293616 1_555
Li2 O2 2.318953 1_555
Li3 O8 1.954697 1_655
Li3 O12 2.031853 1_555
Li3 O13 2.202117 1_655
Li3 O5 2.293616 1_555
Li3 O4 2.318953 1_655
Li4 O7 1.977768 1_555
Li4 O6 1.992578 1_655
Li4 O14 2.065306 1_555
Li4 O10 2.182993 1_555
Li4 O5 2.303067 1_556
Li5 O8 1.977768 1_655
Li5 O9 1.992578 1_555
Li5 O16 2.065306 1_555
Li5 O12 2.182993 1_555
Li5 O3 2.303067 1_555
Li6 O18 1.977768 1_455
Li6 O19 1.992578 1_555
Li6 O11 2.065306 1_555
Li6 O15 2.182993 1_555
Li6 O24 2.303067 1_555
Li7 O21 1.977768 1_555
Li7 O20 1.992578 1_455
Li7 O13 2.065306 1_555
Li7 O17 2.182993 1_555
Li7 O22 2.303067 1_554
Li8 O18 1.954697 1_455
Li8 O15 2.031853 1_555
Li8 O14 2.202117 1_455
Li8 O22 2.293616 1_555
Li8 O23 2.318953 1_455
Li9 O21 1.954697 1_555
Li9 O17 2.031853 1_555
Li9 O16 2.202117 1_555
Li9 O24 2.293616 1_555
Li9 O25 2.318953 1_555
Li10 O0 1.883120 1_565
Li10 O23 1.970425 1_555
Li10 O21 2.135711 1_556
Li10 O20 2.226208 1_556
Li11 O1 1.883120 1_565
Li11 O25 1.970425 1_555
Li11 O18 2.135711 1_555
Li11 O19 2.226208 1_555
Ni0 O10 2.045402 1_455
Ni0 O2 2.057778 1_555
Ni0 O6 2.061258 1_555
Ni0 O11 2.088736 1_555
Ni0 O3 2.103298 1_455
Ni1 O12 2.045402 1_555
Ni1 O4 2.057778 1_555
Ni1 O9 2.061258 1_555
Ni1 O13 2.088736 1_555
Ni1 O5 2.103298 1_555
Ni2 O15 2.045402 1_555
Ni2 O23 2.057778 1_555
Ni2 O19 2.061258 1_555
Ni2 O14 2.088736 1_555
Ni2 O22 2.103298 1_555
Ni3 O17 2.045402 1_655
Ni3 O25 2.057778 1_555
Ni3 O20 2.061258 1_555
Ni3 O16 2.088736 1_555
Ni3 O24 2.103298 1_655
C0 O1 1.269926 1_555
C0 O3 1.296780 1_555
C0 O23 1.323531 1_545
C1 O0 1.269926 1_554
C1 O5 1.296780 1_555
C1 O25 1.323531 1_545
C2 O27 1.269926 1_556
C2 O22 1.296780 1_555
C2 O2 1.323531 1_565
C3 O26 1.269926 1_555
C3 O24 1.296780 1_555
C3 O4 1.323531 1_565
O6 P0 1.556987 1_555
O7 P0 1.536236 1_555
O8 P1 1.536236 1_555
O9 P1 1.556987 1_555
O10 P2 1.544915 1_555
O11 P1 1.564811 1_555
O12 P3 1.544915 1_555
O13 P0 1.564811 1_554
O14 P3 1.564811 1_556
O15 P0 1.544915 1_555
O16 P2 1.564811 1_555
O17 P1 1.544915 1_555
O18 P2 1.536236 1_555
O19 P2 1.556987 1_555
O20 P3 1.556987 1_555
O21 P3 1.536236 1_555
