# generated using pymatgen
data_Y2Bi2O7
_symmetry_space_group_name_H-M   'P 1'
_cell_length_a   5.76184400
_cell_length_b   8.23469300
_cell_length_c   14.02065145
_cell_angle_alpha   80.69714210
_cell_angle_beta   90.00000000
_cell_angle_gamma   90.00000000
_symmetry_Int_Tables_number   1
_chemical_formula_structural   Y2Bi2O7
_chemical_formula_sum   'Y8 Bi8 O28'
_cell_volume   656.48863907
_cell_formula_units_Z   4
loop_
 _symmetry_equiv_pos_site_id
 _symmetry_equiv_pos_as_xyz
  1  'x, y, z'
loop_
 _atom_site_type_symbol
 _atom_site_label
 _atom_site_symmetry_multiplicity
 _atom_site_fract_x
 _atom_site_fract_y
 _atom_site_fract_z
 _atom_site_occupancy
  Y  Y0  1  0.30987100  0.86641500  0.55742800  1
  Y  Y1  1  0.77654100  0.75219800  0.93212000  1
  Y  Y2  1  0.23952300  0.70608000  0.13161800  1
  Y  Y3  1  0.78573600  0.63620600  0.38820000  1
  Y  Y4  1  0.28573600  0.36379400  0.61180000  1
  Y  Y5  1  0.73952300  0.29392000  0.86838200  1
  Y  Y6  1  0.27654100  0.24780200  0.06788000  1
  Y  Y7  1  0.80987100  0.13358500  0.44257200  1
  Bi  Bi0  1  0.26161300  0.92158400  0.31771600  1
  Bi  Bi1  1  0.76078200  0.97663800  0.11758100  1
  Bi  Bi2  1  0.77921400  0.59286100  0.66923900  1
  Bi  Bi3  1  0.26281100  0.54115900  0.86882800  1
  Bi  Bi4  1  0.76281100  0.45884100  0.13117200  1
  Bi  Bi5  1  0.27921400  0.40713900  0.33076100  1
  Bi  Bi6  1  0.26078200  0.02336200  0.88241900  1
  Bi  Bi7  1  0.76161300  0.07841600  0.68228400  1
  O  O0  1  0.54795400  0.93245900  0.41697000  1
  O  O1  1  0.38513600  0.01091100  0.17572800  1
  O  O2  1  0.63556500  0.83960800  0.65289700  1
  O  O3  1  0.42365500  0.78342200  0.87080700  1
  O  O4  1  0.04741500  0.83242000  0.43997800  1
  O  O5  1  0.04937100  0.90199700  0.02206100  1
  O  O6  1  0.96732200  0.83887100  0.24495900  1
  O  O7  1  0.12713700  0.63626700  0.62742400  1
  O  O8  1  0.86985700  0.58594600  0.82201200  1
  O  O9  1  0.60021800  0.72965200  0.07790000  1
  O  O10  1  0.42956700  0.67614000  0.30167800  1
  O  O11  1  0.58607800  0.57891200  0.53899000  1
  O  O12  1  0.55753900  0.43341700  0.97766400  1
  O  O13  1  0.48958800  0.46729800  0.74115400  1
  O  O14  1  0.98958800  0.53270200  0.25884600  1
  O  O15  1  0.05753900  0.56658300  0.02233600  1
  O  O16  1  0.08607800  0.42108800  0.46101000  1
  O  O17  1  0.92956700  0.32386000  0.69832200  1
  O  O18  1  0.10021800  0.27034800  0.92210000  1
  O  O19  1  0.36985700  0.41405400  0.17798800  1
  O  O20  1  0.62713700  0.36373300  0.37257600  1
  O  O21  1  0.46732200  0.16112900  0.75504100  1
  O  O22  1  0.54937100  0.09800300  0.97793900  1
  O  O23  1  0.54741500  0.16758000  0.56002200  1
  O  O24  1  0.92365500  0.21657800  0.12919300  1
  O  O25  1  0.13556500  0.16039200  0.34710300  1
  O  O26  1  0.88513600  0.98908900  0.82427200  1
  O  O27  1  0.04795400  0.06754100  0.58303000  1
loop_
_geom_bond_atom_site_label_1
_geom_bond_atom_site_label_2
_geom_bond_distance
_geom_bond_site_symmetry_2
Bi0 O1 2.130100 1_565
Bi0 O4 2.143322 1_555
Bi0 O6 2.145791 1_455
Bi0 O0 2.169537 1_555
Bi0 O25 2.196896 1_565
Bi0 O10 2.284527 1_555
Bi1 O24 2.217004 1_565
Bi1 O5 2.280886 1_655
Bi1 O6 2.288606 1_555
Bi1 O1 2.345927 1_565
Bi1 O9 2.380718 1_555
Bi1 O22 2.383960 1_564
Bi2 O7 2.102965 1_655
Bi2 O13 2.129207 1_555
Bi2 O11 2.157382 1_555
Bi2 O2 2.171543 1_555
Bi2 O8 2.196507 1_555
Bi2 O17 2.351932 1_555
Bi3 O3 2.203955 1_555
Bi3 O12 2.358344 1_555
Bi3 O8 2.369584 1_455
Bi3 O13 2.373530 1_555
Bi3 O18 2.422834 1_555
Bi3 O15 2.494137 1_556
Bi4 O24 2.203955 1_555
Bi4 O15 2.358344 1_655
Bi4 O19 2.369584 1_555
Bi4 O14 2.373530 1_555
Bi4 O9 2.422834 1_555
Bi4 O12 2.494137 1_554
Bi5 O20 2.102965 1_555
Bi5 O14 2.129207 1_455
Bi5 O16 2.157382 1_555
Bi5 O25 2.171543 1_555
Bi5 O19 2.196507 1_555
Bi5 O10 2.351932 1_555
Bi6 O3 2.217004 1_545
Bi6 O22 2.280886 1_555
Bi6 O21 2.288606 1_555
Bi6 O26 2.345927 1_445
Bi6 O18 2.380718 1_555
Bi6 O5 2.383960 1_546
Bi7 O26 2.130100 1_545
Bi7 O23 2.143322 1_555
Bi7 O21 2.145791 1_555
Bi7 O27 2.169537 1_655
Bi7 O2 2.196896 1_545
Bi7 O17 2.284527 1_555
O0 Y7 2.311179 1_565
O0 Y0 2.389462 1_555
O0 Y3 2.882594 1_555
O1 Y6 2.351516 1_555
O1 Y2 2.808801 1_545
O2 Y0 2.294886 1_555
O3 Y1 2.206320 1_555
O4 Y0 2.286034 1_555
O4 Y3 2.406296 1_455
O4 Y7 2.837993 1_465
O5 Y2 2.315484 1_555
O5 Y1 2.466973 1_454
O6 Y2 2.596658 1_655
O6 Y3 2.613357 1_555
O7 Y0 2.249920 1_555
O7 Y4 2.465015 1_555
O8 Y1 2.286903 1_555
O8 Y5 2.502791 1_555
O9 Y2 2.208362 1_555
O9 Y1 2.263091 1_554
O10 Y3 2.379548 1_555
O10 Y2 2.599018 1_555
O11 Y3 2.386054 1_555
O11 Y4 2.567129 1_555
O11 Y0 2.898707 1_555
O12 Y5 2.309918 1_555
O12 Y6 2.435674 1_556
O12 Y1 2.889472 1_555
O13 Y4 2.427975 1_555
O13 Y5 2.543784 1_555
O14 Y3 2.427975 1_555
O14 Y2 2.543784 1_655
O15 Y2 2.309918 1_555
O15 Y1 2.435674 1_454
O15 Y6 2.889472 1_555
O16 Y4 2.386054 1_555
O16 Y3 2.567129 1_455
O16 Y7 2.898707 1_455
O17 Y4 2.379548 1_655
O17 Y5 2.599018 1_555
O18 Y5 2.208362 1_455
O18 Y6 2.263091 1_556
O19 Y6 2.286903 1_555
O19 Y2 2.502791 1_555
O20 Y7 2.249920 1_555
O20 Y3 2.465015 1_555
O21 Y5 2.596658 1_555
O21 Y4 2.613357 1_555
O22 Y5 2.315484 1_555
O22 Y6 2.466973 1_556
O23 Y7 2.286034 1_555
O23 Y4 2.406296 1_555
O23 Y0 2.837993 1_545
O24 Y6 2.206320 1_655
O25 Y7 2.294886 1_455
O26 Y1 2.351516 1_555
O26 Y5 2.808801 1_565
O27 Y0 2.311179 1_545
O27 Y7 2.389462 1_455
O27 Y4 2.882594 1_555
