# generated using pymatgen
data_Li3Ti(NiO2)4
_symmetry_space_group_name_H-M   'P 1'
_cell_length_a   5.90156848
_cell_length_b   8.40379048
_cell_length_c   5.91948926
_cell_angle_alpha   89.69520618
_cell_angle_beta   90.00846867
_cell_angle_gamma   90.00011817
_symmetry_Int_Tables_number   1
_chemical_formula_structural   Li3Ti(NiO2)4
_chemical_formula_sum   'Li6 Ti2 Ni8 O16'
_cell_volume   293.57613837
_cell_formula_units_Z   2
loop_
 _symmetry_equiv_pos_site_id
 _symmetry_equiv_pos_as_xyz
  1  'x, y, z'
loop_
 _atom_site_type_symbol
 _atom_site_label
 _atom_site_symmetry_multiplicity
 _atom_site_fract_x
 _atom_site_fract_y
 _atom_site_fract_z
 _atom_site_occupancy
  Li  Li0  1  0.50000000  0.49999500  0.00000100  1
  Li  Li1  1  0.00000000  0.00000400  0.50000000  1
  Li  Li2  1  0.25004800  0.25031200  0.24992400  1
  Li  Li3  1  0.74995200  0.74968600  0.75007800  1
  Li  Li4  1  0.25004900  0.74969000  0.75008100  1
  Li  Li5  1  0.74995100  0.25030900  0.24992100  1
  Ti  Ti0  1  0.00000000  0.49999400  0.49999800  1
  Ti  Ti1  1  0.50000000  0.00000300  0.00000300  1
  Ni  Ni0  1  0.49999900  0.50000000  0.49999900  1
  Ni  Ni1  1  0.00000000  0.49999700  0.00000000  1
  Ni  Ni2  1  0.50000000  0.00000000  0.49999900  1
  Ni  Ni3  1  0.00000000  0.99999900  0.00000000  1
  Ni  Ni4  1  0.24991600  0.25071600  0.74977200  1
  Ni  Ni5  1  0.75008200  0.74930500  0.25022700  1
  Ni  Ni6  1  0.75008700  0.25071800  0.74976600  1
  Ni  Ni7  1  0.24991600  0.74930300  0.25022900  1
  O  O0  1  0.49998600  0.76226000  0.01048700  1
  O  O1  1  0.99999400  0.26156100  0.51039700  1
  O  O2  1  0.00000600  0.73842800  0.48959100  1
  O  O3  1  0.50001300  0.23774000  0.98952500  1
  O  O4  1  0.50008500  0.24977900  0.51838600  1
  O  O5  1  0.00008800  0.75069500  0.01849800  1
  O  O6  1  0.99991200  0.24929500  0.98151600  1
  O  O7  1  0.49991500  0.75021700  0.48160100  1
  O  O8  1  0.73822900  0.99851300  0.76200800  1
  O  O9  1  0.23804300  0.49866400  0.26203800  1
  O  O10  1  0.26180700  0.99852000  0.76203900  1
  O  O11  1  0.76196100  0.49865500  0.26204800  1
  O  O12  1  0.23804000  0.50134100  0.73795400  1
  O  O13  1  0.73819100  0.00148100  0.23796000  1
  O  O14  1  0.76195600  0.50133200  0.73796400  1
  O  O15  1  0.26177300  0.00148800  0.23799100  1
loop_
_geom_bond_atom_site_label_1
_geom_bond_atom_site_label_2
_geom_bond_distance
_geom_bond_site_symmetry_2
Li0 O12 2.189850 1_554
Li0 O11 2.189854 1_555
Li0 O14 2.190115 1_554
Li0 O9 2.190119 1_555
Li0 O3 2.205138 1_554
Li0 O0 2.205224 1_555
Li1 O10 2.189181 1_545
Li1 O13 2.189194 1_455
Li1 O8 2.189225 1_445
Li1 O15 2.189237 1_555
Li1 O1 2.199259 1_455
Li1 O2 2.199421 1_545
Li2 O9 2.089913 1_555
Li2 O15 2.093777 1_555
Li2 O3 2.136760 1_554
Li2 O1 2.136876 1_455
Li2 O4 2.168433 1_555
Li2 O6 2.168659 1_454
Li3 O14 2.089929 1_555
Li3 O8 2.093801 1_555
Li3 O0 2.136808 1_556
Li3 O2 2.136939 1_655
Li3 O7 2.168498 1_555
Li3 O5 2.168711 1_656
Li4 O12 2.089890 1_555
Li4 O10 2.093839 1_555
Li4 O0 2.136360 1_556
Li4 O2 2.136594 1_555
Li4 O7 2.168144 1_555
Li4 O5 2.168314 1_556
Li5 O11 2.089865 1_555
Li5 O13 2.093823 1_555
Li5 O3 2.136321 1_554
Li5 O1 2.136530 1_555
Li5 O4 2.168079 1_555
Li5 O6 2.168263 1_554
Ni0 O9 2.091361 1_555
Ni0 O14 2.091381 1_555
Ni0 O11 2.091656 1_555
Ni0 O12 2.091658 1_555
Ni0 O7 2.105011 1_555
Ni0 O4 2.105042 1_555
Ni1 O14 2.092564 1_454
Ni1 O9 2.092569 1_555
Ni1 O12 2.092900 1_554
Ni1 O11 2.092905 1_455
Ni1 O5 2.110239 1_555
Ni1 O6 2.110268 1_454
Ni2 O15 2.093168 1_555
Ni2 O8 2.093181 1_545
Ni2 O13 2.093469 1_555
Ni2 O10 2.093482 1_545
Ni2 O4 2.102489 1_555
Ni2 O7 2.102526 1_545
Ni3 O8 2.090690 1_454
Ni3 O15 2.090695 1_565
Ni3 O10 2.091030 1_554
Ni3 O13 2.091035 1_465
Ni3 O6 2.097305 1_464
Ni3 O5 2.097376 1_555
Ni4 O4 2.014086 1_555
Ni4 O6 2.014763 1_455
Ni4 O1 2.046843 1_455
Ni4 O3 2.049944 1_555
Ni4 O12 2.108155 1_555
Ni4 O10 2.121421 1_545
Ni5 O7 2.014028 1_555
Ni5 O5 2.014711 1_655
Ni5 O2 2.046817 1_655
Ni5 O0 2.049878 1_555
Ni5 O11 2.108366 1_555
Ni5 O13 2.121253 1_565
Ni6 O4 2.013043 1_555
Ni6 O6 2.013717 1_555
Ni6 O1 2.047055 1_555
Ni6 O3 2.050173 1_555
Ni6 O14 2.108059 1_555
Ni6 O8 2.121486 1_545
Ni7 O7 2.012996 1_555
Ni7 O5 2.013653 1_555
Ni7 O2 2.047050 1_555
Ni7 O0 2.050078 1_555
Ni7 O9 2.108271 1_555
Ni7 O15 2.121317 1_565
O0 Ti1 1.998576 1_565
O1 Ti0 2.004359 1_655
O2 Ti0 2.004369 1_555
O3 Ti1 1.998525 1_556
O8 Ti1 1.990552 1_566
O9 Ti0 1.989617 1_555
O10 Ti1 1.989977 1_566
O11 Ti0 1.989265 1_655
O12 Ti0 1.989295 1_555
O13 Ti1 1.989939 1_555
O14 Ti0 1.989647 1_655
O15 Ti1 1.990514 1_555
