# generated using pymatgen
data_Li4Mn3Cu3(SbO8)2
_symmetry_space_group_name_H-M   'P 1'
_cell_length_a   6.04051687
_cell_length_b   5.87450184
_cell_length_c   9.74318962
_cell_angle_alpha   91.06318479
_cell_angle_beta   86.88994027
_cell_angle_gamma   120.06716443
_symmetry_Int_Tables_number   1
_chemical_formula_structural   Li4Mn3Cu3(SbO8)2
_chemical_formula_sum   'Li4 Mn3 Cu3 Sb2 O16'
_cell_volume   298.75889570
_cell_formula_units_Z   1
loop_
 _symmetry_equiv_pos_site_id
 _symmetry_equiv_pos_as_xyz
  1  'x, y, z'
loop_
 _atom_site_type_symbol
 _atom_site_label
 _atom_site_symmetry_multiplicity
 _atom_site_fract_x
 _atom_site_fract_y
 _atom_site_fract_z
 _atom_site_occupancy
  Li  Li0  1  0.33231400  0.65906900  0.90980100  1
  Li  Li1  1  0.98672300  0.99351800  0.99028800  1
  Li  Li2  1  0.00078800  0.00239300  0.48273400  1
  Li  Li3  1  0.69478100  0.35005200  0.40355400  1
  Mn  Mn0  1  0.65704500  0.82990900  0.21643400  1
  Mn  Mn1  1  0.83025800  0.66416000  0.71172200  1
  Mn  Mn2  1  0.82689700  0.16837100  0.71510400  1
  Cu  Cu0  1  0.16895000  0.83143300  0.21113600  1
  Cu  Cu1  1  0.16770700  0.33681200  0.21019500  1
  Cu  Cu2  1  0.33786200  0.16943500  0.71243400  1
  Sb  Sb0  1  0.34138900  0.67627400  0.48576900  1
  Sb  Sb1  1  0.64933100  0.32094200  0.98756600  1
  O  O0  1  0.16563500  0.84436100  0.58904000  1
  O  O1  1  0.05813900  0.53411200  0.34541900  1
  O  O2  1  0.34486000  0.67218400  0.12012500  1
  O  O3  1  0.98995800  0.99527400  0.29388300  1
  O  O4  1  0.98580800  0.99790000  0.80006300  1
  O  O5  1  0.15140800  0.33205400  0.59109700  1
  O  O6  1  0.52766300  0.98331100  0.35163300  1
  O  O7  1  0.52072300  0.54250700  0.35300500  1
  O  O8  1  0.30436000  0.14568400  0.08767100  1
  O  O9  1  0.66525500  0.84644500  0.59956400  1
  O  O10  1  0.51474500  0.47517800  0.84778500  1
  O  O11  1  0.53164000  0.02465700  0.84409000  1
  O  O12  1  0.68323600  0.33788800  0.61582600  1
  O  O13  1  0.80039500  0.65618100  0.09165100  1
  O  O14  1  0.96178400  0.46554200  0.84646700  1
  O  O15  1  0.80034800  0.14465300  0.09378700  1
loop_
_geom_bond_atom_site_label_1
_geom_bond_atom_site_label_2
_geom_bond_distance
_geom_bond_site_symmetry_2
Li0 O10 1.960308 1_555
Li0 O11 1.961703 1_565
Li0 O2 2.053327 1_556
Li0 O14 2.063224 1_455
Li1 O4 1.854401 1_555
Li1 O8 1.956569 1_666
Li1 O13 1.971367 1_556
Li1 O15 1.979327 1_566
Li2 O3 1.843674 1_445
Li2 O5 1.988897 1_555
Li2 O0 2.000021 1_545
Li2 O9 2.042227 1_445
Li3 O6 1.937059 1_545
Li3 O1 1.953765 1_655
Li3 O7 1.973364 1_555
Li3 O12 2.066951 1_555
Mn0 O2 1.924588 1_555
Mn0 O6 1.925627 1_555
Mn0 O3 1.933148 1_555
Mn0 O7 1.967373 1_555
Mn0 O15 1.990460 1_565
Mn0 O13 1.998678 1_555
Mn1 O4 1.909641 1_555
Mn1 O12 1.911361 1_555
Mn1 O10 2.069438 1_555
Mn1 O0 2.070933 1_655
Mn1 O9 2.136666 1_555
Mn1 O14 2.194321 1_555
Mn2 O12 1.916537 1_555
Mn2 O4 1.920859 1_545
Mn2 O11 1.939179 1_555
Mn2 O14 1.988603 1_555
Mn2 O9 1.996767 1_545
Mn2 O5 2.030832 1_655
Cu0 O2 1.911445 1_555
Cu0 O3 1.914351 1_455
Cu0 O8 1.996665 1_565
Cu0 O1 2.007177 1_555
Cu0 O13 2.304680 1_455
Cu0 O6 2.388372 1_555
Cu1 O2 1.909565 1_555
Cu1 O3 1.910575 1_445
Cu1 O1 2.033379 1_555
Cu1 O8 2.034486 1_555
Cu1 O15 2.280426 1_455
Cu1 O7 2.370853 1_555
Cu2 O4 1.988565 1_445
Cu2 O12 1.992597 1_555
Cu2 O0 2.057734 1_545
Cu2 O10 2.061236 1_555
Cu2 O5 2.200737 1_555
Cu2 O11 2.222581 1_555
O0 Sb0 2.003039 1_555
O1 Sb0 2.067493 1_555
O5 Sb0 2.020651 1_555
O6 Sb0 2.030190 1_555
O7 Sb0 2.031611 1_555
O8 Sb1 2.005118 1_554
O9 Sb0 2.071323 1_555
O10 Sb1 2.059295 1_555
O11 Sb1 2.065590 1_555
O13 Sb1 1.991253 1_554
O14 Sb1 2.080628 1_555
O15 Sb1 2.016074 1_554
