# generated using pymatgen
data_Li4MnCr(WO6)2
_symmetry_space_group_name_H-M   'P 1'
_cell_length_a   5.08776200
_cell_length_b   5.35385394
_cell_length_c   7.38786394
_cell_angle_alpha   86.16051557
_cell_angle_beta   89.91811855
_cell_angle_gamma   89.89527230
_symmetry_Int_Tables_number   1
_chemical_formula_structural   Li4MnCr(WO6)2
_chemical_formula_sum   'Li4 Mn1 Cr1 W2 O12'
_cell_volume   200.78684408
_cell_formula_units_Z   1
loop_
 _symmetry_equiv_pos_site_id
 _symmetry_equiv_pos_as_xyz
  1  'x, y, z'
loop_
 _atom_site_type_symbol
 _atom_site_label
 _atom_site_symmetry_multiplicity
 _atom_site_fract_x
 _atom_site_fract_y
 _atom_site_fract_z
 _atom_site_occupancy
  Li  Li0  1  0.99800400  0.58134000  0.29095300  1
  Li  Li1  1  0.50018600  0.08113300  0.78815900  1
  Li  Li2  1  0.99979000  0.53458400  0.76713500  1
  Li  Li3  1  0.49987900  0.03843100  0.27042200  1
  Mn  Mn0  1  0.50074700  0.50236200  0.50082100  1
  Cr  Cr0  1  0.99621700  0.00428800  0.00311000  1
  W  W0  1  0.00079400  0.00471500  0.50324400  1
  W  W1  1  0.49714500  0.50815400  0.00135400  1
  O  O0  1  0.69845200  0.79693300  0.43456100  1
  O  O1  1  0.88227800  0.98900200  0.74810500  1
  O  O2  1  0.69003700  0.18127900  0.05175200  1
  O  O3  1  0.80487200  0.30147100  0.43460100  1
  O  O4  1  0.19847700  0.30085900  0.93789500  1
  O  O5  1  0.61662900  0.48424500  0.74756900  1
  O  O6  1  0.38216100  0.48993300  0.24894600  1
  O  O7  1  0.81197900  0.68125600  0.05286700  1
  O  O8  1  0.18952100  0.68384300  0.55180000  1
  O  O9  1  0.30448600  0.80477700  0.93596800  1
  O  O10  1  0.11497800  0.98833700  0.24801100  1
  O  O11  1  0.31336600  0.18546000  0.55393100  1
loop_
_geom_bond_atom_site_label_1
_geom_bond_atom_site_label_2
_geom_bond_distance
_geom_bond_site_symmetry_2
Li0 O3 2.031344 1_555
Li0 O7 2.037821 1_555
Li0 O6 2.042298 1_655
Li0 O0 2.221172 1_555
Li0 O8 2.261257 1_655
Li0 O10 2.261528 1_655
Li1 O11 2.020688 1_555
Li1 O1 2.030855 1_545
Li1 O9 2.039325 1_545
Li1 O5 2.239695 1_555
Li1 O4 2.264230 1_555
Li1 O2 2.271541 1_556
Li2 O5 1.975287 1_555
Li2 O8 1.982278 1_655
Li2 O4 1.991685 1_655
Li2 O7 2.489836 1_556
Li2 O1 2.499055 1_555
Li2 O9 2.511359 1_655
Li3 O10 1.985703 1_545
Li3 O0 1.987872 1_545
Li3 O2 1.990865 1_555
Li3 O3 2.470719 1_555
Li3 O11 2.473772 1_555
Li3 O6 2.484093 1_555
Mn0 O8 1.906534 1_555
Mn0 O0 1.907782 1_555
Mn0 O5 1.912932 1_555
Mn0 O6 1.962403 1_555
Mn0 O3 1.962788 1_555
Mn0 O11 1.963958 1_555
Cr0 O2 1.868773 1_555
Cr0 O10 1.904777 1_645
Cr0 O4 1.927248 1_654
Cr0 O9 1.977243 1_644
Cr0 O1 1.978870 1_544
Cr0 O7 1.981066 1_545
O0 W0 1.986269 1_665
O1 W0 1.902585 1_665
O2 W1 2.017895 1_555
O3 W0 1.913843 1_655
O4 W1 1.959193 1_556
O5 W1 1.982396 1_556
O6 W1 1.915957 1_555
O7 W1 1.903652 1_555
O8 W0 1.978453 1_565
O9 W1 1.899752 1_556
O10 W0 1.979797 1_565
O11 W0 1.913510 1_555
