# generated using pymatgen
data_MgMnO3
_symmetry_space_group_name_H-M   'P 1'
_cell_length_a   5.00810100
_cell_length_b   5.22758900
_cell_length_c   7.30440500
_cell_angle_alpha   90.00000000
_cell_angle_beta   90.00000000
_cell_angle_gamma   90.00000000
_symmetry_Int_Tables_number   1
_chemical_formula_structural   MgMnO3
_chemical_formula_sum   'Mg4 Mn4 O12'
_cell_volume   191.23146819
_cell_formula_units_Z   4
loop_
 _symmetry_equiv_pos_site_id
 _symmetry_equiv_pos_as_xyz
  1  'x, y, z'
loop_
 _atom_site_type_symbol
 _atom_site_label
 _atom_site_symmetry_multiplicity
 _atom_site_fract_x
 _atom_site_fract_y
 _atom_site_fract_z
 _atom_site_occupancy
  Mg  Mg0  1  0.01751100  0.93514400  0.75000000  1
  Mg  Mg1  1  0.48248900  0.43514400  0.75000000  1
  Mg  Mg2  1  0.51751100  0.56485600  0.25000000  1
  Mg  Mg3  1  0.98248900  0.06485600  0.25000000  1
  Mn  Mn0  1  0.00000000  0.50000000  0.00000000  1
  Mn  Mn1  1  0.00000000  0.50000000  0.50000000  1
  Mn  Mn2  1  0.50000000  0.00000000  0.50000000  1
  Mn  Mn3  1  0.50000000  0.00000000  0.00000000  1
  O  O0  1  0.12682200  0.44321500  0.25000000  1
  O  O1  1  0.18706600  0.19299300  0.56640400  1
  O  O2  1  0.18706600  0.19299300  0.93359600  1
  O  O3  1  0.31293400  0.69299300  0.56640400  1
  O  O4  1  0.31293400  0.69299300  0.93359600  1
  O  O5  1  0.37317800  0.94321500  0.25000000  1
  O  O6  1  0.62682200  0.05678500  0.75000000  1
  O  O7  1  0.68706600  0.30700700  0.06640400  1
  O  O8  1  0.68706600  0.30700700  0.43359600  1
  O  O9  1  0.81293400  0.80700700  0.06640400  1
  O  O10  1  0.81293400  0.80700700  0.43359600  1
  O  O11  1  0.87317800  0.55678500  0.75000000  1
loop_
_geom_bond_atom_site_label_1
_geom_bond_atom_site_label_2
_geom_bond_distance
_geom_bond_site_symmetry_2
Mg0 O6 2.057347 1_465
Mg0 O1 2.082404 1_565
Mg0 O2 2.082404 1_565
Mg0 O11 2.105849 1_455
Mg0 O3 2.364276 1_555
Mg0 O4 2.364276 1_555
Mg0 O9 2.615294 1_456
Mg0 O10 2.615294 1_455
Mg1 O11 2.057347 1_555
Mg1 O4 2.082404 1_555
Mg1 O3 2.082404 1_555
Mg1 O6 2.105849 1_555
Mg1 O1 2.364276 1_555
Mg1 O2 2.364276 1_555
Mg1 O7 2.615294 1_556
Mg1 O8 2.615294 1_555
Mg2 O0 2.057347 1_555
Mg2 O7 2.082404 1_555
Mg2 O8 2.082404 1_555
Mg2 O5 2.105849 1_555
Mg2 O9 2.364276 1_555
Mg2 O10 2.364276 1_555
Mg2 O3 2.615294 1_555
Mg2 O4 2.615294 1_554
Mg3 O5 2.057347 1_645
Mg3 O9 2.082404 1_545
Mg3 O10 2.082404 1_545
Mg3 O0 2.105849 1_655
Mg3 O7 2.364276 1_555
Mg3 O8 2.364276 1_555
Mg3 O2 2.615294 1_654
Mg3 O1 2.615294 1_655
Mn0 O9 1.920591 1_455
Mn0 O2 1.920591 1_554
Mn0 O4 1.925942 1_554
Mn0 O7 1.925942 1_455
Mn0 O11 1.956058 1_454
Mn0 O0 1.956058 1_555
Mn1 O10 1.920591 1_455
Mn1 O1 1.920591 1_555
Mn1 O3 1.925942 1_555
Mn1 O8 1.925942 1_455
Mn1 O11 1.956058 1_455
Mn1 O0 1.956058 1_555
Mn2 O8 1.920591 1_555
Mn2 O3 1.920591 1_545
Mn2 O10 1.925942 1_545
Mn2 O1 1.925942 1_555
Mn2 O5 1.956058 1_545
Mn2 O6 1.956058 1_555
Mn3 O7 1.920591 1_555
Mn3 O4 1.920591 1_544
Mn3 O2 1.925942 1_554
Mn3 O9 1.925942 1_545
Mn3 O5 1.956058 1_545
Mn3 O6 1.956058 1_554
