# generated using pymatgen
data_Li3B2SbO6
_symmetry_space_group_name_H-M   'P 1'
_cell_length_a   9.05334900
_cell_length_b   5.35283800
_cell_length_c   11.82582110
_cell_angle_alpha   64.39509904
_cell_angle_beta   90.00000000
_cell_angle_gamma   90.00000000
_symmetry_Int_Tables_number   1
_chemical_formula_structural   Li3B2SbO6
_chemical_formula_sum   'Li12 B8 Sb4 O24'
_cell_volume   516.81220506
_cell_formula_units_Z   4
loop_
 _symmetry_equiv_pos_site_id
 _symmetry_equiv_pos_as_xyz
  1  'x, y, z'
loop_
 _atom_site_type_symbol
 _atom_site_label
 _atom_site_symmetry_multiplicity
 _atom_site_fract_x
 _atom_site_fract_y
 _atom_site_fract_z
 _atom_site_occupancy
  Li  Li0  1  0.97412400  0.51815900  0.32494800  1
  Li  Li1  1  0.65318100  0.44385200  0.38371600  1
  Li  Li2  1  0.98627600  0.92429100  0.90542100  1
  Li  Li3  1  0.15318100  0.55614800  0.11628400  1
  Li  Li4  1  0.48627600  0.07570900  0.59457900  1
  Li  Li5  1  0.47412400  0.48184100  0.17505200  1
  Li  Li6  1  0.52587600  0.51815900  0.82494800  1
  Li  Li7  1  0.51372400  0.92429100  0.40542100  1
  Li  Li8  1  0.84681900  0.44385200  0.88371600  1
  Li  Li9  1  0.01372400  0.07570900  0.09457900  1
  Li  Li10  1  0.34681900  0.55614800  0.61628400  1
  Li  Li11  1  0.02587600  0.48184100  0.67505200  1
  B  B0  1  0.32858100  0.45976100  0.37920700  1
  B  B1  1  0.67205000  0.96874700  0.86701100  1
  B  B2  1  0.82858100  0.54023900  0.12079300  1
  B  B3  1  0.17205000  0.03125300  0.63298900  1
  B  B4  1  0.82795000  0.96874700  0.36701100  1
  B  B5  1  0.17141900  0.45976100  0.87920700  1
  B  B6  1  0.32795000  0.03125300  0.13298900  1
  B  B7  1  0.67141900  0.54023900  0.62079300  1
  Sb  Sb0  1  0.32694100  0.97440400  0.87408300  1
  Sb  Sb1  1  0.82694100  0.02559600  0.62591700  1
  Sb  Sb2  1  0.17305900  0.97440400  0.37408300  1
  Sb  Sb3  1  0.67305900  0.02559600  0.12591700  1
  O  O0  1  0.33178900  0.81211700  0.10004200  1
  O  O1  1  0.64165800  0.33164400  0.58240300  1
  O  O2  1  0.94213700  0.71229100  0.12247200  1
  O  O3  1  0.04433200  0.16829100  0.63984800  1
  O  O4  1  0.30414400  0.12594300  0.66371900  1
  O  O5  1  0.68406700  0.56600100  0.15601700  1
  O  O6  1  0.18406700  0.43399900  0.34398300  1
  O  O7  1  0.80414400  0.87405700  0.83628100  1
  O  O8  1  0.54433200  0.83170900  0.86015200  1
  O  O9  1  0.44213700  0.28770900  0.37752800  1
  O  O10  1  0.83178900  0.18788300  0.39995800  1
  O  O11  1  0.14165800  0.66835600  0.91759700  1
  O  O12  1  0.85834200  0.33164400  0.08240300  1
  O  O13  1  0.16821100  0.81211700  0.60004200  1
  O  O14  1  0.55786300  0.71229100  0.62247200  1
  O  O15  1  0.45566800  0.16829100  0.13984800  1
  O  O16  1  0.19585600  0.12594300  0.16371900  1
  O  O17  1  0.81593300  0.56600100  0.65601700  1
  O  O18  1  0.31593300  0.43399900  0.84398300  1
  O  O19  1  0.69585600  0.87405700  0.33628100  1
  O  O20  1  0.95566800  0.83170900  0.36015200  1
  O  O21  1  0.05786300  0.28770900  0.87752800  1
  O  O22  1  0.35834200  0.66835600  0.41759700  1
  O  O23  1  0.66821100  0.18788300  0.89995800  1
loop_
_geom_bond_atom_site_label_1
_geom_bond_atom_site_label_2
_geom_bond_distance
_geom_bond_site_symmetry_2
Li0 O20 1.903193 1_555
Li0 O6 1.943857 1_655
Li0 O10 2.053638 1_555
Li0 O2 2.178636 1_555
Li1 O10 2.073995 1_555
Li1 O9 2.099380 1_555
Li1 O19 2.156476 1_555
Li1 O1 2.161629 1_555
Li1 O5 2.496944 1_555
Li2 O7 1.910432 1_555
Li2 O11 1.925086 1_655
Li2 O21 1.938681 1_665
Li2 O2 2.349113 1_556
Li3 O0 2.073995 1_555
Li3 O2 2.099380 1_455
Li3 O16 2.156476 1_555
Li3 O11 2.161629 1_554
Li3 O6 2.496944 1_555
Li4 O4 1.910432 1_555
Li4 O1 1.925086 1_555
Li4 O14 1.938681 1_545
Li4 O9 2.349113 1_555
Li5 O15 1.903193 1_555
Li5 O5 1.943857 1_555
Li5 O0 2.053638 1_555
Li5 O9 2.178636 1_555
Li6 O8 1.903193 1_555
Li6 O18 1.943857 1_555
Li6 O23 2.053638 1_555
Li6 O14 2.178636 1_555
Li7 O19 1.910432 1_555
Li7 O22 1.925086 1_555
Li7 O9 1.938681 1_565
Li7 O14 2.349113 1_555
Li8 O23 2.073995 1_555
Li8 O21 2.099380 1_655
Li8 O7 2.156476 1_555
Li8 O12 2.161629 1_556
Li8 O17 2.496944 1_555
Li9 O16 1.910432 1_555
Li9 O12 1.925086 1_455
Li9 O2 1.938681 1_445
Li9 O21 2.349113 1_554
Li10 O13 2.073995 1_555
Li10 O14 2.099380 1_555
Li10 O4 2.156476 1_555
Li10 O22 2.161629 1_555
Li10 O18 2.496944 1_555
Li11 O3 1.903193 1_555
Li11 O17 1.943857 1_455
Li11 O13 2.053638 1_555
Li11 O21 2.178636 1_555
B0 O9 1.386106 1_555
B0 O6 1.397828 1_555
B0 O22 1.401281 1_555
B1 O23 1.387071 1_565
B1 O8 1.390347 1_555
B1 O7 1.406534 1_555
B2 O2 1.386106 1_555
B2 O5 1.397828 1_555
B2 O12 1.401281 1_555
B3 O13 1.387071 1_545
B3 O3 1.390347 1_555
B3 O4 1.406534 1_555
B4 O10 1.387071 1_565
B4 O20 1.390347 1_555
B4 O19 1.406534 1_555
B5 O21 1.386106 1_555
B5 O18 1.397828 1_555
B5 O11 1.401281 1_555
B6 O0 1.387071 1_545
B6 O15 1.390347 1_555
B6 O16 1.406534 1_555
B7 O14 1.386106 1_555
B7 O17 1.397828 1_555
B7 O1 1.401281 1_555
O0 Sb0 2.427056 1_554
O1 Sb1 2.243596 1_555
O3 Sb1 2.143085 1_455
O4 Sb0 2.268303 1_545
O5 Sb3 2.330670 1_565
O6 Sb2 2.330670 1_545
O7 Sb1 2.268303 1_565
O8 Sb0 2.143085 1_555
O10 Sb1 2.427056 1_555
O11 Sb0 2.243596 1_555
O12 Sb3 2.243596 1_555
O13 Sb2 2.427056 1_555
O15 Sb3 2.143085 1_555
O16 Sb2 2.268303 1_545
O17 Sb1 2.330670 1_565
O18 Sb0 2.330670 1_545
O19 Sb3 2.268303 1_565
O20 Sb2 2.143085 1_655
O22 Sb2 2.243596 1_555
O23 Sb3 2.427056 1_556
