# generated using pymatgen
data_NaTl3(SO3)2
_symmetry_space_group_name_H-M   'P 1'
_cell_length_a   5.99686661
_cell_length_b   5.99686661
_cell_length_c   7.22867500
_cell_angle_alpha   90.00000000
_cell_angle_beta   90.00000000
_cell_angle_gamma   120.00000670
_symmetry_Int_Tables_number   1
_chemical_formula_structural   NaTl3(SO3)2
_chemical_formula_sum   'Na1 Tl3 S2 O6'
_cell_volume   225.13244035
_cell_formula_units_Z   1
loop_
 _symmetry_equiv_pos_site_id
 _symmetry_equiv_pos_as_xyz
  1  'x, y, z'
loop_
 _atom_site_type_symbol
 _atom_site_label
 _atom_site_symmetry_multiplicity
 _atom_site_fract_x
 _atom_site_fract_y
 _atom_site_fract_z
 _atom_site_occupancy
  Na  Na0  1  0.00000000  0.00000000  0.50000000  1
  Tl  Tl0  1  0.66666700  0.33333300  0.31978500  1
  Tl  Tl1  1  0.33333300  0.66666700  0.68021500  1
  Tl  Tl2  1  0.00000000  0.00000000  0.00000000  1
  S  S0  1  0.33333300  0.66666700  0.21270300  1
  S  S1  1  0.66666700  0.33333300  0.78729700  1
  O  O0  1  0.39309000  0.19654500  0.70189700  1
  O  O1  1  0.80345500  0.19654500  0.70189700  1
  O  O2  1  0.80345500  0.60691000  0.70189700  1
  O  O3  1  0.19654500  0.80345500  0.29810300  1
  O  O4  1  0.60691000  0.80345500  0.29810300  1
  O  O5  1  0.19654500  0.39309000  0.29810300  1
loop_
_geom_bond_atom_site_label_1
_geom_bond_atom_site_label_2
_geom_bond_distance
_geom_bond_site_symmetry_2
Na0 O0 2.509515 1_555
Na0 O5 2.509515 1_555
Na0 O2 2.509515 1_445
Na0 O4 2.509515 1_445
Na0 O1 2.509515 1_455
Na0 O3 2.509515 1_545
O0 S1 1.549123 1_555
O1 S1 1.549119 1_555
O2 S1 1.549123 1_555
O3 S0 1.549119 1_555
O4 S0 1.549123 1_555
O5 S0 1.549123 1_555
