# generated using pymatgen
data_Li2AlVO4
_symmetry_space_group_name_H-M   'P 1'
_cell_length_a   5.08771100
_cell_length_b   6.49137200
_cell_length_c   11.07009000
_cell_angle_alpha   90.00000000
_cell_angle_beta   90.00000000
_cell_angle_gamma   90.00000000
_symmetry_Int_Tables_number   1
_chemical_formula_structural   Li2AlVO4
_chemical_formula_sum   'Li8 Al4 V4 O16'
_cell_volume   365.60328012
_cell_formula_units_Z   4
loop_
 _symmetry_equiv_pos_site_id
 _symmetry_equiv_pos_as_xyz
  1  'x, y, z'
loop_
 _atom_site_type_symbol
 _atom_site_label
 _atom_site_symmetry_multiplicity
 _atom_site_fract_x
 _atom_site_fract_y
 _atom_site_fract_z
 _atom_site_occupancy
  Li  Li0  1  0.24443600  0.86900300  0.08082300  1
  Li  Li1  1  0.69060700  0.11730200  0.16363000  1
  Li  Li2  1  0.19060700  0.61730200  0.33637000  1
  Li  Li3  1  0.74443600  0.36900300  0.41917700  1
  Li  Li4  1  0.25556400  0.86900300  0.58082300  1
  Li  Li5  1  0.80939300  0.11730200  0.66363000  1
  Li  Li6  1  0.30939300  0.61730200  0.83637000  1
  Li  Li7  1  0.75556400  0.36900300  0.91917700  1
  Al  Al0  1  0.18426400  0.36649300  0.08530500  1
  Al  Al1  1  0.68426400  0.86649300  0.41469500  1
  Al  Al2  1  0.31573600  0.36649300  0.58530500  1
  Al  Al3  1  0.81573600  0.86649300  0.91469500  1
  V  V0  1  0.68849700  0.61959500  0.16823400  1
  V  V1  1  0.18849700  0.11959500  0.33176600  1
  V  V2  1  0.81150300  0.61959500  0.66823400  1
  V  V3  1  0.31150300  0.11959500  0.83176600  1
  O  O0  1  0.74685800  0.86068500  0.07148700  1
  O  O1  1  0.83308400  0.37500100  0.09468900  1
  O  O2  1  0.30372200  0.59255900  0.15859800  1
  O  O3  1  0.29365800  0.14145600  0.16337200  1
  O  O4  1  0.79365800  0.64145600  0.33662800  1
  O  O5  1  0.80372200  0.09255900  0.34140200  1
  O  O6  1  0.33308400  0.87500100  0.40531100  1
  O  O7  1  0.24685800  0.36068500  0.42851300  1
  O  O8  1  0.75314200  0.86068500  0.57148700  1
  O  O9  1  0.66691600  0.37500100  0.59468900  1
  O  O10  1  0.19627800  0.59255900  0.65859800  1
  O  O11  1  0.20634200  0.14145600  0.66337200  1
  O  O12  1  0.70634200  0.64145600  0.83662800  1
  O  O13  1  0.69627800  0.09255900  0.84140200  1
  O  O14  1  0.16691600  0.87500100  0.90531100  1
  O  O15  1  0.25314200  0.36068500  0.92851300  1
loop_
_geom_bond_atom_site_label_1
_geom_bond_atom_site_label_2
_geom_bond_distance
_geom_bond_site_symmetry_2
Li0 O14 1.982942 1_554
Li0 O3 2.006418 1_565
Li0 O2 2.013081 1_555
Li0 O0 2.534217 1_455
Li0 O0 2.558836 1_555
Li1 O0 1.974144 1_545
Li1 O1 1.976418 1_555
Li1 O3 2.025641 1_555
Li1 O5 2.056655 1_555
Li2 O7 1.974144 1_555
Li2 O6 1.976418 1_555
Li2 O4 2.025641 1_455
Li2 O2 2.056655 1_555
Li3 O9 1.982942 1_555
Li3 O4 2.006418 1_555
Li3 O5 2.013081 1_555
Li3 O7 2.534217 1_555
Li3 O7 2.558836 1_655
Li4 O6 1.982942 1_555
Li4 O11 2.006418 1_565
Li4 O10 2.013081 1_555
Li4 O8 2.534217 1_555
Li4 O8 2.558836 1_455
Li5 O8 1.974144 1_545
Li5 O9 1.976418 1_555
Li5 O11 2.025641 1_655
Li5 O13 2.056655 1_555
Li6 O15 1.974144 1_555
Li6 O14 1.976418 1_555
Li6 O12 2.025641 1_555
Li6 O10 2.056655 1_555
Li7 O1 1.982942 1_556
Li7 O12 2.006418 1_555
Li7 O13 2.013081 1_555
Li7 O15 2.534217 1_655
Li7 O15 2.558836 1_555
Al0 O15 1.771125 1_554
Al0 O2 1.783586 1_555
Al0 O3 1.786212 1_555
Al0 O1 1.790572 1_455
Al1 O8 1.771125 1_555
Al1 O5 1.783586 1_565
Al1 O4 1.786212 1_555
Al1 O6 1.790572 1_555
Al2 O7 1.771125 1_555
Al2 O10 1.783586 1_555
Al2 O11 1.786212 1_555
Al2 O9 1.790572 1_555
Al3 O0 1.771125 1_556
Al3 O13 1.783586 1_565
Al3 O12 1.786212 1_555
Al3 O14 1.790572 1_655
O0 V0 1.919490 1_555
O1 V0 1.930006 1_555
O2 V0 1.968368 1_555
O3 V1 1.944582 1_555
O4 V0 1.944582 1_555
O5 V1 1.968368 1_655
O6 V1 1.930006 1_565
O7 V1 1.919490 1_555
O8 V2 1.919490 1_555
O9 V2 1.930006 1_555
O10 V2 1.968368 1_455
O11 V3 1.944582 1_555
O12 V2 1.944582 1_555
O13 V3 1.968368 1_555
O14 V3 1.930006 1_565
O15 V3 1.919490 1_555
