# generated using pymatgen
data_Li2MnO2F
_symmetry_space_group_name_H-M   'P 1'
_cell_length_a   5.12180600
_cell_length_b   5.19465365
_cell_length_c   9.84387695
_cell_angle_alpha   95.91383341
_cell_angle_beta   93.56152070
_cell_angle_gamma   119.40736883
_symmetry_Int_Tables_number   1
_chemical_formula_structural   Li2MnO2F
_chemical_formula_sum   'Li8 Mn4 O8 F4'
_cell_volume   225.01748847
_cell_formula_units_Z   4
loop_
 _symmetry_equiv_pos_site_id
 _symmetry_equiv_pos_as_xyz
  1  'x, y, z'
loop_
 _atom_site_type_symbol
 _atom_site_label
 _atom_site_symmetry_multiplicity
 _atom_site_fract_x
 _atom_site_fract_y
 _atom_site_fract_z
 _atom_site_occupancy
  Li  Li0  1  0.13669000  0.33034700  0.00283100  1
  Li  Li1  1  0.31912200  0.15175000  0.50336100  1
  Li  Li2  1  0.49415600  0.00451900  0.00381200  1
  Li  Li3  1  0.76047000  0.23561500  0.74818700  1
  Li  Li4  1  0.21917200  0.72895500  0.24681200  1
  Li  Li5  1  0.03620800  0.50996600  0.50126700  1
  Li  Li6  1  0.63911300  0.81346800  0.49313100  1
  Li  Li7  1  0.85701500  0.68357200  0.99253800  1
  Mn  Mn0  1  0.41424800  0.59537000  0.75179200  1
  Mn  Mn1  1  0.09338500  0.92227800  0.74907300  1
  Mn  Mn2  1  0.93116600  0.08924100  0.25102200  1
  Mn  Mn3  1  0.57715900  0.41832100  0.25012900  1
  O  O0  1  0.08659200  0.22726100  0.64762500  1
  O  O1  1  0.22134700  0.07122900  0.13656300  1
  O  O2  1  0.13698300  0.65349200  0.86481100  1
  O  O3  1  0.30815200  0.45492700  0.36979800  1
  O  O4  1  0.35805700  0.87470100  0.62902500  1
  O  O5  1  0.85404800  0.34594800  0.14205000  1
  O  O6  1  0.78476100  0.92799600  0.85760200  1
  O  O7  1  0.92382000  0.78756500  0.35405200  1
  F  F0  1  0.48400800  0.30933400  0.88633900  1
  F  F1  1  0.64501800  0.12412600  0.38491500  1
  F  F2  1  0.69611600  0.53097100  0.61914200  1
  F  F3  1  0.52319100  0.70904700  0.11412400  1
loop_
_geom_bond_atom_site_label_1
_geom_bond_atom_site_label_2
_geom_bond_distance
_geom_bond_site_symmetry_2
Li0 O5 2.078263 1_455
Li0 O1 2.144805 1_555
Li0 O6 2.241806 1_444
Li0 O2 2.265275 1_554
Li1 O0 2.035467 1_555
Li1 O4 2.063797 1_545
Li1 O3 2.171754 1_555
Li1 O7 2.265903 1_445
Li2 O5 2.091811 1_555
Li2 O1 2.095040 1_555
Li2 O2 2.107818 1_544
Li2 O6 2.274690 1_544
Li3 O0 2.009876 1_655
Li3 O6 2.064541 1_545
Li3 O4 2.142592 1_545
Li3 O2 2.202137 1_655
Li4 O7 2.019886 1_455
Li4 O5 2.050110 1_455
Li4 O3 2.150196 1_555
Li4 O1 2.172302 1_565
Li5 O4 2.018186 1_555
Li5 O3 2.058008 1_555
Li5 O0 2.249647 1_555
Li5 O7 2.377610 1_455
Li6 O3 1.998557 1_555
Li6 O7 2.102766 1_555
Li6 O4 2.136377 1_555
Li6 O0 2.498294 1_665
Li7 O2 2.016192 1_655
Li7 O6 2.064303 1_555
Li7 O1 2.222635 1_666
Li7 O5 2.398089 1_556
Mn0 O0 1.937800 1_555
Mn0 O6 1.958366 1_555
Mn0 O2 1.973251 1_555
Mn0 O4 2.092135 1_555
Mn1 O4 1.939868 1_555
Mn1 O0 1.970857 1_565
Mn1 O6 1.972379 1_455
Mn1 O2 1.974786 1_555
Mn2 O7 1.939126 1_545
Mn2 O1 1.951944 1_655
Mn2 O5 1.960694 1_555
Mn2 O3 2.088934 1_655
Mn3 O3 1.932609 1_555
Mn3 O7 1.975773 1_555
Mn3 O5 1.978153 1_555
Mn3 O1 1.981550 1_555
F0 Li7 2.051302 1_555
F0 Li2 2.073111 1_556
F0 Li3 2.159990 1_555
F0 Li0 2.215787 1_556
F0 Mn0 2.226596 1_555
F0 Mn1 2.241680 1_545
F1 Li6 2.012522 1_545
F1 Mn2 2.090357 1_555
F1 Li1 2.146802 1_555
F1 Li5 2.154451 1_655
F1 Mn3 2.258079 1_555
F1 Li4 2.340712 1_545
F2 Li1 2.106299 1_555
F2 Mn0 2.125949 1_555
F2 Li6 2.127970 1_555
F2 Li5 2.191837 1_655
F2 Li3 2.218676 1_555
F2 Mn1 2.233196 1_655
F3 Li2 2.025999 1_565
F3 Li0 2.109758 1_555
F3 Li4 2.127062 1_555
F3 Li7 2.194809 1_554
F3 Mn3 2.220409 1_555
F3 Mn2 2.265367 1_565
