# generated using pymatgen
data_Na(NiO2)2
_symmetry_space_group_name_H-M   'P 1'
_cell_length_a   2.85829900
_cell_length_b   8.81078300
_cell_length_c   10.86090700
_cell_angle_alpha   90.00000000
_cell_angle_beta   90.00000000
_cell_angle_gamma   90.00000000
_symmetry_Int_Tables_number   1
_chemical_formula_structural   Na(NiO2)2
_chemical_formula_sum   'Na4 Ni8 O16'
_cell_volume   273.51947706
_cell_formula_units_Z   4
loop_
 _symmetry_equiv_pos_site_id
 _symmetry_equiv_pos_as_xyz
  1  'x, y, z'
loop_
 _atom_site_type_symbol
 _atom_site_label
 _atom_site_symmetry_multiplicity
 _atom_site_fract_x
 _atom_site_fract_y
 _atom_site_fract_z
 _atom_site_occupancy
  Na  Na0  1  0.75000000  0.74081600  0.66579700  1
  Na  Na1  1  0.25000000  0.75918400  0.16579700  1
  Na  Na2  1  0.75000000  0.24081600  0.83420300  1
  Na  Na3  1  0.25000000  0.25918400  0.33420300  1
  Ni  Ni0  1  0.75000000  0.56183900  0.88793900  1
  Ni  Ni1  1  0.75000000  0.58632300  0.40517100  1
  Ni  Ni2  1  0.25000000  0.91367700  0.90517100  1
  Ni  Ni3  1  0.25000000  0.93816100  0.38793900  1
  Ni  Ni4  1  0.75000000  0.06183900  0.61206100  1
  Ni  Ni5  1  0.75000000  0.08632300  0.09482900  1
  Ni  Ni6  1  0.25000000  0.41367700  0.59482900  1
  Ni  Ni7  1  0.25000000  0.43816100  0.11206100  1
  O  O0  1  0.25000000  0.53641400  0.29819100  1
  O  O1  1  0.75000000  0.57301500  0.07684600  1
  O  O2  1  0.25000000  0.61924300  0.51853500  1
  O  O3  1  0.25000000  0.69910900  0.84723500  1
  O  O4  1  0.75000000  0.80089100  0.34723500  1
  O  O5  1  0.75000000  0.88075700  0.01853500  1
  O  O6  1  0.25000000  0.92698500  0.57684600  1
  O  O7  1  0.75000000  0.96358600  0.79819100  1
  O  O8  1  0.25000000  0.03641400  0.20180900  1
  O  O9  1  0.75000000  0.07301500  0.42315400  1
  O  O10  1  0.25000000  0.11924300  0.98146500  1
  O  O11  1  0.25000000  0.19910900  0.65276500  1
  O  O12  1  0.75000000  0.30089100  0.15276500  1
  O  O13  1  0.75000000  0.38075700  0.48146500  1
  O  O14  1  0.25000000  0.42698500  0.92315400  1
  O  O15  1  0.75000000  0.46358600  0.70180900  1
loop_
_geom_bond_atom_site_label_1
_geom_bond_atom_site_label_2
_geom_bond_distance
_geom_bond_site_symmetry_2
Na0 O6 2.380412 1_655
Na0 O6 2.380412 1_555
Na0 O2 2.397481 1_655
Na0 O2 2.397481 1_555
Na0 O7 2.433127 1_555
Na0 O3 2.461848 1_555
Na0 O3 2.461848 1_655
Na0 O15 2.473729 1_555
Na1 O1 2.380412 1_455
Na1 O1 2.380412 1_555
Na1 O5 2.397481 1_555
Na1 O5 2.397481 1_455
Na1 O0 2.433127 1_555
Na1 O4 2.461848 1_455
Na1 O4 2.461848 1_555
Na1 O8 2.473729 1_565
Na2 O14 2.380412 1_555
Na2 O14 2.380412 1_655
Na2 O10 2.397481 1_555
Na2 O10 2.397481 1_655
Na2 O15 2.433127 1_555
Na2 O11 2.461848 1_655
Na2 O11 2.461848 1_555
Na2 O7 2.473729 1_545
Na3 O9 2.380412 1_555
Na3 O9 2.380412 1_455
Na3 O13 2.397481 1_455
Na3 O13 2.397481 1_555
Na3 O8 2.433127 1_555
Na3 O12 2.461848 1_455
Na3 O12 2.461848 1_555
Na3 O0 2.473729 1_555
Ni0 O14 1.897497 1_655
Ni0 O14 1.897497 1_555
Ni0 O3 1.923718 1_555
Ni0 O3 1.923718 1_655
Ni0 O1 2.054063 1_556
Ni0 O15 2.199099 1_555
Ni1 O0 1.893634 1_555
Ni1 O0 1.893634 1_655
Ni1 O2 1.908544 1_655
Ni1 O2 1.908544 1_555
Ni1 O13 1.991746 1_555
Ni1 O4 1.992480 1_555
Ni2 O7 1.893634 1_555
Ni2 O7 1.893634 1_455
Ni2 O5 1.908544 1_456
Ni2 O5 1.908544 1_556
Ni2 O10 1.991746 1_565
Ni2 O3 1.992480 1_555
Ni3 O9 1.897497 1_565
Ni3 O9 1.897497 1_465
Ni3 O4 1.923718 1_455
Ni3 O4 1.923718 1_555
Ni3 O6 2.054063 1_555
Ni3 O8 2.199099 1_565
Ni4 O6 1.897497 1_545
Ni4 O6 1.897497 1_645
Ni4 O11 1.923718 1_655
Ni4 O11 1.923718 1_555
Ni4 O9 2.054063 1_555
Ni4 O7 2.199099 1_545
Ni5 O8 1.893634 1_655
Ni5 O8 1.893634 1_555
Ni5 O10 1.908544 1_654
Ni5 O10 1.908544 1_554
Ni5 O5 1.991746 1_545
Ni5 O12 1.992480 1_555
Ni6 O15 1.893634 1_455
Ni6 O15 1.893634 1_555
Ni6 O13 1.908544 1_555
Ni6 O13 1.908544 1_455
Ni6 O2 1.991746 1_555
Ni6 O11 1.992480 1_555
Ni7 O1 1.897497 1_455
Ni7 O1 1.897497 1_555
Ni7 O12 1.923718 1_455
Ni7 O12 1.923718 1_555
Ni7 O14 2.054063 1_554
Ni7 O0 2.199099 1_555
