# generated using pymatgen
data_Li2MnO2F
_symmetry_space_group_name_H-M   'P 1'
_cell_length_a   5.22452060
_cell_length_b   5.15088865
_cell_length_c   9.83168386
_cell_angle_alpha   85.93428998
_cell_angle_beta   98.03587587
_cell_angle_gamma   120.47423526
_symmetry_Int_Tables_number   1
_chemical_formula_structural   Li2MnO2F
_chemical_formula_sum   'Li8 Mn4 O8 F4'
_cell_volume   225.79085544
_cell_formula_units_Z   4
loop_
 _symmetry_equiv_pos_site_id
 _symmetry_equiv_pos_as_xyz
  1  'x, y, z'
loop_
 _atom_site_type_symbol
 _atom_site_label
 _atom_site_symmetry_multiplicity
 _atom_site_fract_x
 _atom_site_fract_y
 _atom_site_fract_z
 _atom_site_occupancy
  Li  Li0  1  0.19584500  0.87236700  0.50623300  1
  Li  Li1  1  0.00000100  0.50000300  0.00000000  1
  Li  Li2  1  0.06837200  0.13674300  0.25000000  1
  Li  Li3  1  0.67652100  0.87236600  0.99376800  1
  Li  Li4  1  0.50000200  0.50000300  0.50000000  1
  Li  Li5  1  0.32348300  0.12764000  0.00623300  1
  Li  Li6  1  0.93163000  0.86326100  0.75000000  1
  Li  Li7  1  0.80415700  0.12763800  0.49376600  1
  Mn  Mn0  1  0.25552000  0.51103700  0.75000200  1
  Mn  Mn1  1  0.42024200  0.84049100  0.24999900  1
  Mn  Mn2  1  0.57974800  0.15949100  0.75000000  1
  Mn  Mn3  1  0.74447800  0.48895000  0.25000000  1
  O  O0  1  0.05903800  0.80404900  0.14584200  1
  O  O1  1  0.29798100  0.82400700  0.86798300  1
  O  O2  1  0.52602700  0.82400600  0.63201700  1
  O  O3  1  0.25499200  0.19595100  0.64584200  1
  O  O4  1  0.74500800  0.80404800  0.35415700  1
  O  O5  1  0.47397400  0.17599500  0.36798400  1
  O  O6  1  0.70202000  0.17599600  0.13201600  1
  O  O7  1  0.94096000  0.19595100  0.85415800  1
  F  F0  1  0.12879100  0.48511100  0.38336800  1
  F  F1  1  0.64367600  0.51488700  0.88336700  1
  F  F2  1  0.35632500  0.48511900  0.11663200  1
  F  F3  1  0.87121000  0.51489000  0.61663200  1
loop_
_geom_bond_atom_site_label_1
_geom_bond_atom_site_label_2
_geom_bond_distance
_geom_bond_site_symmetry_2
Li0 O5 2.085810 1_565
Li0 O2 2.088757 1_555
Li0 O3 2.107354 1_565
Li0 O4 2.481239 1_455
Li1 O0 2.075725 1_555
Li1 O7 2.075741 1_454
Li1 O1 2.125094 1_554
Li1 O6 2.125096 1_455
Li2 O4 2.034161 1_445
Li2 O0 2.034167 1_545
Li2 O5 2.188232 1_555
Li2 O6 2.188243 1_455
Li3 O6 2.085824 1_566
Li3 O1 2.088752 1_555
Li3 O7 2.107354 1_565
Li3 O0 2.481220 1_656
Li4 O4 2.075712 1_555
Li4 O3 2.075726 1_555
Li4 O2 2.125102 1_555
Li4 O5 2.125109 1_555
Li5 O1 2.085843 1_544
Li5 O6 2.088735 1_555
Li5 O0 2.107370 1_545
Li5 O7 2.481234 1_454
Li6 O3 2.034151 1_665
Li6 O7 2.034159 1_565
Li6 O2 2.188227 1_555
Li6 O1 2.188238 1_655
Li7 O2 2.085833 1_545
Li7 O5 2.088742 1_555
Li7 O4 2.107374 1_545
Li7 O3 2.481240 1_655
Mn0 O1 1.955495 1_555
Mn0 O2 1.955502 1_555
Mn0 O7 1.978129 1_455
Mn0 O3 1.978159 1_555
Mn1 O0 1.942362 1_555
Mn1 O4 1.942387 1_555
Mn1 O6 2.027799 1_565
Mn1 O5 2.027810 1_565
Mn2 O7 1.942368 1_555
Mn2 O3 1.942386 1_555
Mn2 O1 2.027729 1_545
Mn2 O2 2.027739 1_545
Mn3 O6 1.955453 1_555
Mn3 O5 1.955459 1_555
Mn3 O0 1.978164 1_655
Mn3 O4 1.978190 1_555
F0 Li4 2.078909 1_555
F0 Li7 2.123387 1_455
F0 Li2 2.163852 1_555
F0 Mn1 2.186193 1_555
F0 Mn3 2.247598 1_455
F0 Li0 2.252857 1_555
F1 Li1 2.078920 1_656
F1 Li3 2.123430 1_555
F1 Li6 2.163855 1_555
F1 Mn2 2.186263 1_555
F1 Mn0 2.247579 1_555
F1 Li5 2.252810 1_556
F2 Li1 2.078912 1_555
F2 Li5 2.123426 1_555
F2 Li2 2.163864 1_555
F2 Mn1 2.186184 1_555
F2 Mn3 2.247619 1_555
F2 Li3 2.252804 1_554
F3 Li4 2.078906 1_555
F3 Li0 2.123403 1_655
F3 Li6 2.163862 1_555
F3 Mn2 2.186251 1_555
F3 Mn0 2.247625 1_655
F3 Li7 2.252848 1_555
