# generated using pymatgen
data_Li5V4(PO4)6
_symmetry_space_group_name_H-M   'P 1'
_cell_length_a   8.80156800
_cell_length_b   8.69277500
_cell_length_c   14.95384301
_cell_angle_alpha   54.57652561
_cell_angle_beta   90.00000000
_cell_angle_gamma   90.00000000
_symmetry_Int_Tables_number   1
_chemical_formula_structural   Li5V4(PO4)6
_chemical_formula_sum   'Li10 V8 P12 O48'
_cell_volume   932.33180952
_cell_formula_units_Z   2
loop_
 _symmetry_equiv_pos_site_id
 _symmetry_equiv_pos_as_xyz
  1  'x, y, z'
loop_
 _atom_site_type_symbol
 _atom_site_label
 _atom_site_symmetry_multiplicity
 _atom_site_fract_x
 _atom_site_fract_y
 _atom_site_fract_z
 _atom_site_occupancy
  Li  Li0  1  0.95411300  0.67865100  0.23299700  1
  Li  Li1  1  0.02236500  0.96392500  0.81870100  1
  Li  Li2  1  0.52370900  0.02436800  0.68252100  1
  Li  Li3  1  0.45850300  0.33378900  0.27710700  1
  Li  Li4  1  0.84236300  0.37663400  0.19880700  1
  Li  Li5  1  0.04588700  0.67865100  0.73299700  1
  Li  Li6  1  0.97763500  0.96392500  0.31870100  1
  Li  Li7  1  0.47629100  0.02436800  0.18252100  1
  Li  Li8  1  0.54149700  0.33378900  0.77710700  1
  Li  Li9  1  0.15763700  0.37663400  0.69880700  1
  V  V0  1  0.28094900  0.63050600  0.11396700  1
  V  V1  1  0.21149900  0.13448900  0.61049300  1
  V  V2  1  0.70917400  0.86319600  0.88594200  1
  V  V3  1  0.77949400  0.36734300  0.38850600  1
  V  V4  1  0.71905100  0.63050600  0.61396700  1
  V  V5  1  0.78850100  0.13448900  0.11049300  1
  V  V6  1  0.29082600  0.86319600  0.38594200  1
  V  V7  1  0.22050600  0.36734300  0.88850600  1
  P  P0  1  0.49909200  0.45896400  0.50487800  1
  P  P1  1  0.63635700  0.74967600  0.14313600  1
  P  P2  1  0.34916200  0.03701600  0.85364200  1
  P  P3  1  0.84911200  0.95858900  0.64675200  1
  P  P4  1  0.13522700  0.25280600  0.35043000  1
  P  P5  1  0.99999400  0.54465800  0.99356200  1
  P  P6  1  0.50090800  0.45896400  0.00487800  1
  P  P7  1  0.36364300  0.74967600  0.64313600  1
  P  P8  1  0.65083800  0.03701600  0.35364200  1
  P  P9  1  0.15088800  0.95858900  0.14675200  1
  P  P10  1  0.86477300  0.25280600  0.85043000  1
  P  P11  1  0.00000600  0.54465800  0.49356200  1
  O  O0  1  0.10848900  0.37709700  0.56948400  1
  O  O1  1  0.91775700  0.53067200  0.40760500  1
  O  O2  1  0.15158100  0.77463900  0.14933200  1
  O  O3  1  0.85040400  0.09082600  0.83633200  1
  O  O4  1  0.60325100  0.45749500  0.42377800  1
  O  O5  1  0.67183000  0.83404100  0.02403000  1
  O  O6  1  0.47169100  0.66843900  0.17493600  1
  O  O7  1  0.22557100  0.07621600  0.76769400  1
  O  O8  1  0.41729400  0.26539500  0.57661700  1
  O  O9  1  0.50853200  0.02225100  0.81618800  1
  O  O10  1  0.30322300  0.85960300  0.96561700  1
  O  O11  1  0.75484300  0.58738000  0.21706500  1
  O  O12  1  0.25345200  0.40937800  0.27110700  1
  O  O13  1  0.81001000  0.13230400  0.53499400  1
  O  O14  1  0.01457200  0.96286000  0.68349100  1
  O  O15  1  0.91644700  0.73416300  0.92935500  1
  O  O16  1  0.73186200  0.93442800  0.73048700  1
  O  O17  1  0.97095500  0.33264100  0.31799600  1
  O  O18  1  0.17333200  0.18690600  0.46678400  1
  O  O19  1  0.10837600  0.54621900  0.07567000  1
  O  O20  1  0.34651000  0.90343500  0.66476300  1
  O  O21  1  0.64623500  0.21705300  0.35212400  1
  O  O22  1  0.40850500  0.47503200  0.09014500  1
  O  O23  1  0.61259200  0.62142200  0.94056300  1
  O  O24  1  0.89151100  0.37709700  0.06948400  1
  O  O25  1  0.08224300  0.53067200  0.90760500  1
  O  O26  1  0.84841900  0.77463900  0.64933200  1
  O  O27  1  0.14959600  0.09082600  0.33633200  1
  O  O28  1  0.39674900  0.45749500  0.92377800  1
  O  O29  1  0.32817000  0.83404100  0.52403000  1
  O  O30  1  0.52830900  0.66843900  0.67493600  1
  O  O31  1  0.77442900  0.07621600  0.26769400  1
  O  O32  1  0.58270600  0.26539500  0.07661700  1
  O  O33  1  0.49146800  0.02225100  0.31618800  1
  O  O34  1  0.69677700  0.85960300  0.46561700  1
  O  O35  1  0.24515700  0.58738000  0.71706500  1
  O  O36  1  0.74654800  0.40937800  0.77110700  1
  O  O37  1  0.18999000  0.13230400  0.03499400  1
  O  O38  1  0.98542800  0.96286000  0.18349100  1
  O  O39  1  0.08355300  0.73416300  0.42935500  1
  O  O40  1  0.26813800  0.93442800  0.23048700  1
  O  O41  1  0.02904500  0.33264100  0.81799600  1
  O  O42  1  0.82666800  0.18690600  0.96678400  1
  O  O43  1  0.89162400  0.54621900  0.57567000  1
  O  O44  1  0.65349000  0.90343500  0.16476300  1
  O  O45  1  0.35376500  0.21705300  0.85212400  1
  O  O46  1  0.59149500  0.47503200  0.59014500  1
  O  O47  1  0.38740800  0.62142200  0.44056300  1
loop_
_geom_bond_atom_site_label_1
_geom_bond_atom_site_label_2
_geom_bond_distance
_geom_bond_site_symmetry_2
Li0 O11 1.995366 1_555
Li0 O2 2.017943 1_655
Li0 O38 2.146511 1_555
Li0 O1 2.163603 1_555
Li0 O17 2.500504 1_555
Li1 O15 1.940382 1_455
Li1 O7 1.967322 1_565
Li1 O3 1.978459 1_465
Li1 O14 2.028449 1_555
Li2 O16 1.957588 1_545
Li2 O8 1.982086 1_555
Li2 O20 1.982847 1_545
Li2 O9 1.992708 1_555
Li3 O12 1.904903 1_555
Li3 O21 1.923216 1_555
Li3 O22 2.353376 1_555
Li3 O6 2.378658 1_555
Li3 O33 2.434136 1_555
Li4 O17 1.952901 1_555
Li4 O24 1.979392 1_555
Li4 O11 2.145659 1_555
Li4 O31 2.262728 1_555
Li4 O21 2.544359 1_555
Li5 O35 1.995366 1_555
Li5 O26 2.017943 1_455
Li5 O14 2.146511 1_555
Li5 O25 2.163603 1_555
Li5 O41 2.500504 1_555
Li6 O39 1.940382 1_655
Li6 O31 1.967322 1_565
Li6 O27 1.978459 1_665
Li6 O38 2.028449 1_555
Li7 O40 1.957588 1_545
Li7 O32 1.982086 1_555
Li7 O44 1.982847 1_545
Li7 O33 1.992708 1_555
Li8 O36 1.904903 1_555
Li8 O45 1.923216 1_555
Li8 O46 2.353376 1_555
Li8 O30 2.378658 1_555
Li8 O9 2.434136 1_555
Li9 O41 1.952901 1_555
Li9 O0 1.979392 1_555
Li9 O35 2.145659 1_555
Li9 O7 2.262728 1_555
Li9 O45 2.544359 1_555
O0 P11 1.550885 1_555
O0 V1 2.036289 1_555
O1 P11 1.540201 1_655
O1 V3 2.012047 1_555
O2 P9 1.576999 1_555
O2 V0 1.978403 1_555
O3 P10 1.545048 1_555
O3 V2 2.075868 1_545
O4 P0 1.526220 1_555
O4 V3 1.943651 1_555
O5 P1 1.514404 1_555
O5 V2 1.956937 1_554
O6 P1 1.560788 1_555
O6 V0 2.026557 1_555
O7 P2 1.563199 1_555
O7 V1 2.101811 1_555
O8 P0 1.551760 1_555
O8 V1 2.040626 1_555
O9 P2 1.543075 1_555
O9 V2 2.108668 1_545
O10 P2 1.533672 1_565
O10 V0 1.950482 1_556
O11 P1 1.578634 1_555
O11 V3 2.143291 1_555
O12 P4 1.571857 1_555
O12 V0 2.009757 1_555
O13 P3 1.505395 1_545
O13 V3 1.963883 1_555
O14 P3 1.564507 1_455
O14 V1 2.129261 1_565
O15 P5 1.530610 1_555
O15 V2 2.040494 1_555
O16 P3 1.540177 1_555
O16 V2 2.039277 1_555
O17 P4 1.554720 1_655
O17 V3 2.100288 1_555
O18 P4 1.520721 1_555
O18 V1 1.950273 1_555
O19 P5 1.561105 1_454
O19 V0 1.912672 1_555
O20 P7 1.553996 1_555
O20 V1 2.053101 1_565
O21 P8 1.552503 1_555
O21 V3 2.049971 1_555
O22 P6 1.585310 1_555
O22 V0 1.942164 1_555
O23 P6 1.520238 1_556
O23 V2 1.953683 1_555
O24 P5 1.550885 1_554
O24 V5 2.036289 1_555
O25 P5 1.540201 1_455
O25 V7 2.012047 1_555
O26 P3 1.576999 1_555
O26 V4 1.978403 1_555
O27 P4 1.545048 1_555
O27 V6 2.075868 1_545
O28 P6 1.526220 1_556
O28 V7 1.943651 1_555
O29 P7 1.514404 1_555
O29 V6 1.956937 1_555
O30 P7 1.560788 1_555
O30 V4 2.026557 1_555
O31 P8 1.563199 1_555
O31 V5 2.101811 1_555
O32 P6 1.551760 1_555
O32 V5 2.040626 1_555
O33 P8 1.543075 1_555
O33 V6 2.108668 1_545
O34 P8 1.533672 1_565
O34 V4 1.950482 1_555
O35 P7 1.578634 1_555
O35 V7 2.143291 1_555
O36 P10 1.571857 1_555
O36 V4 2.009757 1_555
O37 P9 1.505395 1_545
O37 V7 1.963883 1_554
O38 P9 1.564507 1_655
O38 V5 2.129261 1_565
O39 P11 1.530610 1_555
O39 V6 2.040494 1_555
O40 P9 1.540177 1_555
O40 V6 2.039277 1_555
O41 P10 1.554720 1_455
O41 V7 2.100288 1_555
O42 P10 1.520721 1_555
O42 V5 1.950273 1_556
O43 P11 1.561105 1_655
O43 V4 1.912672 1_555
O44 P1 1.553996 1_555
O44 V5 2.053101 1_565
O45 P2 1.552503 1_555
O45 V7 2.049971 1_555
O46 P0 1.585310 1_555
O46 V4 1.942164 1_555
O47 P0 1.520238 1_555
O47 V6 1.953683 1_555
