# generated using pymatgen
data_Li2Sn(SO4)2
_symmetry_space_group_name_H-M   'P 1'
_cell_length_a   10.01087888
_cell_length_b   10.04275703
_cell_length_c   14.68668564
_cell_angle_alpha   90.00000000
_cell_angle_beta   90.00000000
_cell_angle_gamma   90.00000000
_symmetry_Int_Tables_number   1
_chemical_formula_structural   Li2Sn(SO4)2
_chemical_formula_sum   'Li16 Sn8 S16 O64'
_cell_volume   1476.55273298
_cell_formula_units_Z   8
loop_
 _symmetry_equiv_pos_site_id
 _symmetry_equiv_pos_as_xyz
  1  'x, y, z'
loop_
 _atom_site_type_symbol
 _atom_site_label
 _atom_site_symmetry_multiplicity
 _atom_site_fract_x
 _atom_site_fract_y
 _atom_site_fract_z
 _atom_site_occupancy
  Li  Li0  1  0.01609747  0.23596492  0.37242612  1
  Li  Li1  1  0.01609747  0.26403508  0.87242612  1
  Li  Li2  1  0.21338770  0.95022481  0.36603773  1
  Li  Li3  1  0.21338770  0.54977519  0.86603773  1
  Li  Li4  1  0.28661230  0.04977519  0.86603773  1
  Li  Li5  1  0.28661230  0.45022481  0.36603773  1
  Li  Li6  1  0.48390253  0.73596492  0.37242612  1
  Li  Li7  1  0.48390253  0.76403508  0.87242612  1
  Li  Li8  1  0.51609747  0.23596492  0.12757388  1
  Li  Li9  1  0.51609747  0.26403508  0.62757388  1
  Li  Li10  1  0.71338770  0.54977519  0.63396227  1
  Li  Li11  1  0.71338770  0.95022481  0.13396227  1
  Li  Li12  1  0.78661230  0.45022481  0.13396227  1
  Li  Li13  1  0.78661230  0.04977519  0.63396227  1
  Li  Li14  1  0.98390253  0.76403508  0.62757388  1
  Li  Li15  1  0.98390253  0.73596492  0.12757388  1
  Sn  Sn0  1  0.14525608  0.10192992  0.12327886  1
  Sn  Sn1  1  0.14525608  0.39807008  0.62327886  1
  Sn  Sn2  1  0.35474392  0.60192992  0.12327886  1
  Sn  Sn3  1  0.35474392  0.89807008  0.62327886  1
  Sn  Sn4  1  0.64525608  0.10192992  0.37672114  1
  Sn  Sn5  1  0.64525608  0.39807008  0.87672114  1
  Sn  Sn6  1  0.85474392  0.60192992  0.37672114  1
  Sn  Sn7  1  0.85474392  0.89807008  0.87672114  1
  S  S0  1  0.06665848  0.08024260  0.74024957  1
  S  S1  1  0.06665848  0.41975740  0.24024957  1
  S  S2  1  0.43334152  0.91975740  0.24024957  1
  S  S3  1  0.43334152  0.58024260  0.74024957  1
  S  S4  1  0.56665848  0.41975740  0.25975043  1
  S  S5  1  0.56665848  0.08024260  0.75975043  1
  S  S6  1  0.93334152  0.58024260  0.75975043  1
  S  S7  1  0.93334152  0.91975740  0.25975043  1
  S  S8  1  0.16317941  0.69017473  0.48384707  1
  S  S9  1  0.16317941  0.80982527  0.98384707  1
  S  S10  1  0.33682059  0.19017473  0.48384707  1
  S  S11  1  0.33682059  0.30982527  0.98384707  1
  S  S12  1  0.66317941  0.69017473  0.01615293  1
  S  S13  1  0.66317941  0.80982527  0.51615293  1
  S  S14  1  0.83682059  0.19017473  0.01615293  1
  S  S15  1  0.83682059  0.30982527  0.51615293  1
  O  O0  1  0.01492160  0.70409392  0.47011437  1
  O  O1  1  0.01492160  0.79590608  0.97011437  1
  O  O2  1  0.01501357  0.99882690  0.32452138  1
  O  O3  1  0.01501357  0.50117310  0.82452138  1
  O  O4  1  0.02534016  0.44363409  0.33769248  1
  O  O5  1  0.02534016  0.05636591  0.83769248  1
  O  O6  1  0.04762301  0.22729686  0.72721701  1
  O  O7  1  0.04762301  0.27270314  0.22721701  1
  O  O8  1  0.18250963  0.76130620  0.07989375  1
  O  O9  1  0.18250963  0.73869380  0.57989375  1
  O  O10  1  0.20769792  0.95112944  0.97703633  1
  O  O11  1  0.20769792  0.54887056  0.47703633  1
  O  O12  1  0.21058926  0.04397426  0.73487516  1
  O  O13  1  0.21058926  0.45602574  0.23487516  1
  O  O14  1  0.24016098  0.77006585  0.41768525  1
  O  O15  1  0.24016098  0.72993415  0.91768525  1
  O  O16  1  0.25983902  0.27006585  0.41768525  1
  O  O17  1  0.25983902  0.22993415  0.91768525  1
  O  O18  1  0.28941074  0.95602574  0.23487516  1
  O  O19  1  0.28941074  0.54397426  0.73487516  1
  O  O20  1  0.29230208  0.04887056  0.47703633  1
  O  O21  1  0.29230208  0.45112944  0.97703633  1
  O  O22  1  0.31749037  0.26130620  0.07989375  1
  O  O23  1  0.31749037  0.23869380  0.57989375  1
  O  O24  1  0.45237699  0.77270314  0.22721701  1
  O  O25  1  0.45237699  0.72729686  0.72721701  1
  O  O26  1  0.47465984  0.55636591  0.83769248  1
  O  O27  1  0.47465984  0.94363409  0.33769248  1
  O  O28  1  0.48498643  0.49882690  0.32452138  1
  O  O29  1  0.48498643  0.00117310  0.82452138  1
  O  O30  1  0.48507840  0.20409392  0.47011437  1
  O  O31  1  0.48507840  0.29590608  0.97011437  1
  O  O32  1  0.51492160  0.70409392  0.02988563  1
  O  O33  1  0.51492160  0.79590608  0.52988563  1
  O  O34  1  0.51501357  0.50117310  0.67547862  1
  O  O35  1  0.51501357  0.99882690  0.17547862  1
  O  O36  1  0.52534016  0.44363409  0.16230752  1
  O  O37  1  0.52534016  0.05636591  0.66230752  1
  O  O38  1  0.54762301  0.27270314  0.27278299  1
  O  O39  1  0.54762301  0.22729686  0.77278299  1
  O  O40  1  0.68250963  0.76130620  0.42010625  1
  O  O41  1  0.68250963  0.73869380  0.92010625  1
  O  O42  1  0.70769792  0.54887056  0.02296367  1
  O  O43  1  0.70769792  0.95112944  0.52296367  1
  O  O44  1  0.71058926  0.45602574  0.26512484  1
  O  O45  1  0.71058926  0.04397426  0.76512484  1
  O  O46  1  0.74016098  0.77006585  0.08231475  1
  O  O47  1  0.74016098  0.72993415  0.58231475  1
  O  O48  1  0.75983902  0.27006585  0.08231475  1
  O  O49  1  0.75983902  0.22993415  0.58231475  1
  O  O50  1  0.78941074  0.54397426  0.76512484  1
  O  O51  1  0.78941074  0.95602574  0.26512484  1
  O  O52  1  0.79230208  0.45112944  0.52296367  1
  O  O53  1  0.79230208  0.04887056  0.02296367  1
  O  O54  1  0.81749037  0.26130620  0.42010625  1
  O  O55  1  0.81749037  0.23869380  0.92010625  1
  O  O56  1  0.95237699  0.72729686  0.77278299  1
  O  O57  1  0.95237699  0.77270314  0.27278299  1
  O  O58  1  0.97465984  0.55636591  0.66230752  1
  O  O59  1  0.97465984  0.94363409  0.16230752  1
  O  O60  1  0.98498643  0.00117310  0.67547862  1
  O  O61  1  0.98498643  0.49882690  0.17547862  1
  O  O62  1  0.98507840  0.20409392  0.02988563  1
  O  O63  1  0.98507840  0.29590608  0.52988563  1
loop_
_geom_bond_atom_site_label_1
_geom_bond_atom_site_label_2
_geom_bond_distance
_geom_bond_site_symmetry_2
Li0 O54 2.123253 1_455
Li0 O4 2.149045 1_555
Li0 O7 2.187209 1_555
Li0 O63 2.409715 1_455
Li0 O2 2.483295 1_545
Li0 O16 2.552067 1_555
Li1 O55 2.123253 1_455
Li1 O5 2.149045 1_555
Li1 O6 2.187209 1_555
Li1 O62 2.409715 1_456
Li1 O3 2.483295 1_555
Li1 O17 2.552067 1_555
Li2 O14 1.980087 1_555
Li2 O20 2.064727 1_565
Li2 O18 2.072052 1_555
Li2 O2 2.133967 1_555
Li3 O15 1.980087 1_555
Li3 O21 2.064727 1_555
Li3 O19 2.072052 1_555
Li3 O3 2.133967 1_555
Li4 O17 1.980087 1_555
Li4 O10 2.064727 1_545
Li4 O12 2.072052 1_555
Li4 O29 2.133967 1_555
Li5 O16 1.980087 1_555
Li5 O11 2.064727 1_555
Li5 O13 2.072052 1_555
Li5 O28 2.133967 1_555
Li6 O40 2.123253 1_555
Li6 O27 2.149045 1_555
Li6 O24 2.187209 1_555
Li6 O33 2.409715 1_555
Li6 O28 2.483295 1_555
Li6 O14 2.552067 1_555
Li7 O41 2.123253 1_555
Li7 O26 2.149045 1_555
Li7 O25 2.187209 1_555
Li7 O32 2.409715 1_556
Li7 O29 2.483295 1_565
Li7 O15 2.552067 1_555
Li8 O22 2.123253 1_555
Li8 O36 2.149045 1_555
Li8 O38 2.187209 1_555
Li8 O31 2.409715 1_554
Li8 O35 2.483295 1_545
Li8 O48 2.552067 1_555
Li9 O23 2.123253 1_555
Li9 O37 2.149045 1_555
Li9 O39 2.187209 1_555
Li9 O30 2.409715 1_555
Li9 O34 2.483295 1_555
Li9 O49 2.552067 1_555
Li10 O47 1.980087 1_555
Li10 O52 2.064727 1_555
Li10 O50 2.072052 1_555
Li10 O34 2.133967 1_555
Li11 O46 1.980087 1_555
Li11 O53 2.064727 1_565
Li11 O51 2.072052 1_555
Li11 O35 2.133967 1_555
Li12 O48 1.980087 1_555
Li12 O42 2.064727 1_555
Li12 O44 2.072052 1_555
Li12 O61 2.133967 1_555
Li13 O49 1.980087 1_555
Li13 O43 2.064727 1_545
Li13 O45 2.072052 1_555
Li13 O60 2.133967 1_555
Li14 O9 2.123253 1_655
Li14 O58 2.149045 1_555
Li14 O56 2.187209 1_555
Li14 O0 2.409715 1_655
Li14 O60 2.483295 1_565
Li14 O47 2.552067 1_555
Li15 O8 2.123253 1_655
Li15 O59 2.149045 1_555
Li15 O57 2.187209 1_555
Li15 O1 2.409715 1_654
Li15 O61 2.483295 1_555
Li15 O46 2.552067 1_555
O0 S8 1.504341 1_555
O0 Sn6 2.346349 1_455
O1 S9 1.504341 1_555
O1 Sn7 2.346349 1_455
O2 S7 1.484573 1_455
O3 S6 1.484573 1_455
O4 S1 1.508866 1_555
O4 Sn6 2.402589 1_455
O5 S0 1.508866 1_555
O5 Sn7 2.402589 1_445
O6 S0 1.501325 1_555
O6 Sn1 2.495368 1_555
O7 S1 1.501325 1_555
O7 Sn0 2.495368 1_555
O8 S9 1.504888 1_554
O8 Sn2 2.437370 1_555
O9 S8 1.504888 1_555
O9 Sn3 2.437370 1_555
O10 S9 1.490780 1_555
O10 Sn0 2.701377 1_566
O11 S8 1.490780 1_555
O11 Sn1 2.701377 1_555
O12 S0 1.488292 1_555
O12 Sn3 2.629806 1_545
O13 S1 1.488292 1_555
O13 Sn2 2.629806 1_555
O14 S8 1.477103 1_555
O15 S9 1.477103 1_555
O16 S10 1.477103 1_555
O17 S11 1.477103 1_555
O18 S2 1.488292 1_555
O18 Sn0 2.629806 1_565
O19 S3 1.488292 1_555
O19 Sn1 2.629806 1_555
O20 S10 1.490780 1_555
O20 Sn3 2.701377 1_545
O21 S11 1.490780 1_555
O21 Sn2 2.701377 1_556
O22 S11 1.504888 1_554
O22 Sn0 2.437370 1_555
O23 S10 1.504888 1_555
O23 Sn1 2.437370 1_555
O24 S2 1.501325 1_555
O24 Sn2 2.495368 1_555
O25 S3 1.501325 1_555
O25 Sn3 2.495368 1_555
O26 S3 1.508866 1_555
O26 Sn5 2.402589 1_555
O27 S2 1.508866 1_555
O27 Sn4 2.402589 1_565
O28 S4 1.484573 1_555
O29 S5 1.484573 1_555
O30 S10 1.504341 1_555
O30 Sn4 2.346349 1_555
O31 S11 1.504341 1_555
O31 Sn5 2.346349 1_555
O32 S12 1.504341 1_555
O32 Sn2 2.346349 1_555
O33 S13 1.504341 1_555
O33 Sn3 2.346349 1_555
O34 S3 1.484573 1_555
O35 S2 1.484573 1_555
O36 S4 1.508866 1_555
O36 Sn2 2.402589 1_555
O37 S5 1.508866 1_555
O37 Sn3 2.402589 1_545
O38 S4 1.501325 1_555
O38 Sn4 2.495368 1_555
O39 S5 1.501325 1_555
O39 Sn5 2.495368 1_555
O40 S13 1.504888 1_555
O40 Sn6 2.437370 1_555
O41 S12 1.504888 1_556
O41 Sn7 2.437370 1_555
O42 S12 1.490780 1_555
O42 Sn5 2.701377 1_554
O43 S13 1.490780 1_555
O43 Sn4 2.701377 1_565
O44 S4 1.488292 1_555
O44 Sn6 2.629806 1_555
O45 S5 1.488292 1_555
O45 Sn7 2.629806 1_545
O46 S12 1.477103 1_555
O47 S13 1.477103 1_555
O48 S14 1.477103 1_555
O49 S15 1.477103 1_555
O50 S6 1.488292 1_555
O50 Sn5 2.629806 1_555
O51 S7 1.488292 1_555
O51 Sn4 2.629806 1_565
O52 S15 1.490780 1_555
O52 Sn6 2.701377 1_555
O53 S14 1.490780 1_555
O53 Sn7 2.701377 1_544
O54 S15 1.504888 1_555
O54 Sn4 2.437370 1_555
O55 S14 1.504888 1_556
O55 Sn5 2.437370 1_555
O56 S6 1.501325 1_555
O56 Sn7 2.495368 1_555
O57 S7 1.501325 1_555
O57 Sn6 2.495368 1_555
O58 S6 1.508866 1_555
O58 Sn1 2.402589 1_655
O59 S7 1.508866 1_555
O59 Sn0 2.402589 1_665
O60 S0 1.484573 1_655
O61 S1 1.484573 1_655
O62 S14 1.504341 1_555
O62 Sn0 2.346349 1_655
O63 S15 1.504341 1_555
O63 Sn1 2.346349 1_655
