# generated using pymatgen
data_Li3P3(WO6)2
_symmetry_space_group_name_H-M   'P 1'
_cell_length_a   9.26827599
_cell_length_b   9.26827599
_cell_length_c   9.26827570
_cell_angle_alpha   55.93929557
_cell_angle_beta   55.93929557
_cell_angle_gamma   55.93929169
_symmetry_Int_Tables_number   1
_chemical_formula_structural   Li3P3(WO6)2
_chemical_formula_sum   'Li6 P6 W4 O24'
_cell_volume   509.99034202
_cell_formula_units_Z   2
loop_
 _symmetry_equiv_pos_site_id
 _symmetry_equiv_pos_as_xyz
  1  'x, y, z'
loop_
 _atom_site_type_symbol
 _atom_site_label
 _atom_site_symmetry_multiplicity
 _atom_site_fract_x
 _atom_site_fract_y
 _atom_site_fract_z
 _atom_site_occupancy
  Li  Li0  1  0.07573100  0.73590300  0.33905100  1
  Li  Li1  1  0.33905100  0.07573100  0.73590300  1
  Li  Li2  1  0.73590300  0.33905100  0.07573100  1
  Li  Li3  1  0.26409700  0.66094900  0.92426900  1
  Li  Li4  1  0.66094900  0.92426900  0.26409700  1
  Li  Li5  1  0.92426900  0.26409700  0.66094900  1
  P  P0  1  0.04241900  0.45567100  0.74971900  1
  P  P1  1  0.45567100  0.74971900  0.04241900  1
  P  P2  1  0.74971900  0.04241900  0.45567100  1
  P  P3  1  0.25028100  0.95758100  0.54432900  1
  P  P4  1  0.54432900  0.25028100  0.95758100  1
  P  P5  1  0.95758100  0.54432900  0.25028100  1
  W  W0  1  0.34667800  0.34667800  0.34667800  1
  W  W1  1  0.65332200  0.65332200  0.65332200  1
  W  W2  1  0.14426700  0.14426700  0.14426700  1
  W  W3  1  0.85573300  0.85573300  0.85573300  1
  O  O0  1  0.14747800  0.55110700  0.20391000  1
  O  O1  1  0.20391000  0.14747800  0.55110700  1
  O  O2  1  0.55110700  0.20391000  0.14747800  1
  O  O3  1  0.15592000  0.49824700  0.53664400  1
  O  O4  1  0.14575300  0.25471100  0.86236600  1
  O  O5  1  0.00578000  0.60002200  0.80707200  1
  O  O6  1  0.25471100  0.86236600  0.14575300  1
  O  O7  1  0.49824700  0.53664400  0.15592000  1
  O  O8  1  0.53664400  0.15592000  0.49824700  1
  O  O9  1  0.19292800  0.99422000  0.39997800  1
  O  O10  1  0.13763400  0.85424700  0.74528900  1
  O  O11  1  0.39997800  0.19292800  0.99422000  1
  O  O12  1  0.60002200  0.80707200  0.00578000  1
  O  O13  1  0.86236600  0.14575300  0.25471100  1
  O  O14  1  0.80707200  0.00578000  0.60002200  1
  O  O15  1  0.46335600  0.84408000  0.50175300  1
  O  O16  1  0.50175300  0.46335600  0.84408000  1
  O  O17  1  0.74528900  0.13763400  0.85424700  1
  O  O18  1  0.99422000  0.39997800  0.19292800  1
  O  O19  1  0.85424700  0.74528900  0.13763400  1
  O  O20  1  0.84408000  0.50175300  0.46335600  1
  O  O21  1  0.44889300  0.79609000  0.85252200  1
  O  O22  1  0.79609000  0.85252200  0.44889300  1
  O  O23  1  0.85252200  0.44889300  0.79609000  1
loop_
_geom_bond_atom_site_label_1
_geom_bond_atom_site_label_2
_geom_bond_distance
_geom_bond_site_symmetry_2
Li0 O6 1.957552 1_555
Li0 O3 1.982504 1_555
Li0 O22 2.015224 1_455
Li0 O0 2.266882 1_555
Li1 O4 1.957552 1_555
Li1 O8 1.982504 1_555
Li1 O21 2.015224 1_545
Li1 O1 2.266882 1_555
Li2 O13 1.957552 1_555
Li2 O7 1.982504 1_555
Li2 O23 2.015224 1_554
Li2 O2 2.266882 1_555
Li3 O10 1.957552 1_555
Li3 O16 1.982504 1_555
Li3 O0 2.015224 1_556
Li3 O21 2.266882 1_555
Li4 O19 1.957552 1_555
Li4 O15 1.982504 1_555
Li4 O2 2.015224 1_565
Li4 O22 2.266882 1_555
Li5 O17 1.957552 1_555
Li5 O20 1.982504 1_555
Li5 O1 2.015224 1_655
Li5 O23 2.266882 1_555
O0 P5 1.591423 1_455
O0 W0 2.181564 1_555
O1 P3 1.591423 1_545
O1 W0 2.181565 1_555
O2 P4 1.591423 1_554
O2 W0 2.181564 1_555
O3 P0 1.557996 1_555
O3 W0 2.168127 1_555
O4 P0 1.555658 1_555
O4 W2 2.203201 1_556
O5 P0 1.507755 1_555
O5 W3 2.134748 1_455
O6 P1 1.555658 1_555
O6 W2 2.203201 1_565
O7 P1 1.557996 1_555
O7 W0 2.168127 1_555
O8 P2 1.557996 1_555
O8 W0 2.168127 1_555
O9 P3 1.507755 1_555
O9 W2 2.134748 1_565
O10 P3 1.555658 1_555
O10 W3 2.203201 1_455
O11 P4 1.507755 1_555
O11 W2 2.134748 1_556
O12 P1 1.507755 1_555
O12 W3 2.134748 1_554
O13 P2 1.555658 1_555
O13 W2 2.203201 1_655
O14 P2 1.507755 1_555
O14 W3 2.134748 1_545
O15 P3 1.557996 1_555
O15 W1 2.168127 1_555
O16 P4 1.557996 1_555
O16 W1 2.168127 1_555
O17 P4 1.555658 1_555
O17 W3 2.203201 1_545
O18 P5 1.507755 1_555
O18 W2 2.134748 1_655
O19 P5 1.555658 1_555
O19 W3 2.203201 1_554
O20 P5 1.557996 1_555
O20 W1 2.168127 1_555
O21 P1 1.591423 1_556
O21 W1 2.181564 1_555
O22 P2 1.591423 1_565
O22 W1 2.181565 1_555
O23 P0 1.591423 1_655
O23 W1 2.181564 1_555
