# generated using pymatgen
data_Mn2OF3
_symmetry_space_group_name_H-M   'P 1'
_cell_length_a   4.88659567
_cell_length_b   4.88659567
_cell_length_c   15.87682700
_cell_angle_alpha   90.00000000
_cell_angle_beta   90.00000000
_cell_angle_gamma   93.59887164
_symmetry_Int_Tables_number   1
_chemical_formula_structural   Mn2OF3
_chemical_formula_sum   'Mn10 O5 F15'
_cell_volume   378.37221272
_cell_formula_units_Z   5
loop_
 _symmetry_equiv_pos_site_id
 _symmetry_equiv_pos_as_xyz
  1  'x, y, z'
loop_
 _atom_site_type_symbol
 _atom_site_label
 _atom_site_symmetry_multiplicity
 _atom_site_fract_x
 _atom_site_fract_y
 _atom_site_fract_z
 _atom_site_occupancy
  Mn  Mn0  1  0.02761300  0.02761300  0.29942500  1
  Mn  Mn1  1  0.96695600  0.96695600  0.09963700  1
  Mn  Mn2  1  0.96695600  0.96695600  0.90036300  1
  Mn  Mn3  1  0.02430000  0.02430000  0.50000000  1
  Mn  Mn4  1  0.02761300  0.02761300  0.70057500  1
  Mn  Mn5  1  0.49324200  0.49324200  0.39968700  1
  Mn  Mn6  1  0.49711000  0.49711000  0.00000000  1
  Mn  Mn7  1  0.49763000  0.49763000  0.19954900  1
  Mn  Mn8  1  0.49763000  0.49763000  0.80045100  1
  Mn  Mn9  1  0.49324200  0.49324200  0.60031300  1
  O  O0  1  0.32329900  0.32329900  0.29781700  1
  O  O1  1  0.31522600  0.31522600  0.50000000  1
  O  O2  1  0.32329900  0.32329900  0.70218300  1
  O  O3  1  0.67046600  0.67046600  0.90000600  1
  O  O4  1  0.67046600  0.67046600  0.09999400  1
  F  F0  1  0.79711200  0.19884900  0.80042300  1
  F  F1  1  0.78383000  0.17334800  0.00000000  1
  F  F2  1  0.79711200  0.19884900  0.19957700  1
  F  F3  1  0.82005400  0.20760000  0.40091400  1
  F  F4  1  0.82005400  0.20760000  0.59908600  1
  F  F5  1  0.28489900  0.28489900  0.90479800  1
  F  F6  1  0.28489900  0.28489900  0.09520200  1
  F  F7  1  0.71130100  0.71130100  0.30403300  1
  F  F8  1  0.70814600  0.70814600  0.50000000  1
  F  F9  1  0.71130100  0.71130100  0.69596700  1
  F  F10  1  0.17334800  0.78383000  0.00000000  1
  F  F11  1  0.19884900  0.79711200  0.19957700  1
  F  F12  1  0.20760000  0.82005400  0.40091400  1
  F  F13  1  0.19884900  0.79711200  0.80042300  1
  F  F14  1  0.20760000  0.82005400  0.59908600  1
loop_
_geom_bond_atom_site_label_1
_geom_bond_atom_site_label_2
_geom_bond_distance
_geom_bond_site_symmetry_2
Mn0 O0 1.978387 1_555
Mn1 O4 1.983609 1_555
Mn2 O3 1.983609 1_555
Mn3 O1 1.946376 1_555
Mn4 O2 1.978387 1_555
Mn5 O0 1.977014 1_555
Mn5 O1 1.988710 1_555
Mn6 O4 1.966105 1_555
Mn6 O3 1.966105 1_554
Mn7 O0 1.947944 1_555
Mn7 O4 1.958426 1_555
Mn8 O2 1.947944 1_555
Mn8 O3 1.958426 1_555
Mn9 O2 1.977014 1_555
Mn9 O1 1.988710 1_555
F0 Mn8 2.131099 1_555
F0 Mn4 2.144824 1_655
F0 Mn2 2.146784 1_545
F1 Mn1 2.105643 1_545
F1 Mn2 2.105643 1_544
F1 Mn6 2.178151 1_555
F2 Mn7 2.131099 1_555
F2 Mn0 2.144824 1_655
F2 Mn1 2.146784 1_545
F3 Mn3 2.094168 1_655
F3 Mn0 2.123825 1_655
F3 Mn5 2.186077 1_555
F4 Mn3 2.094168 1_655
F4 Mn4 2.123825 1_655
F4 Mn9 2.186077 1_555
F5 Mn6 2.073727 1_556
F5 Mn2 2.128293 1_445
F5 Mn8 2.184087 1_555
F6 Mn6 2.073727 1_555
F6 Mn1 2.128293 1_445
F6 Mn7 2.184087 1_555
F7 Mn5 2.105876 1_555
F7 Mn0 2.117480 1_665
F7 Mn7 2.189838 1_555
F8 Mn3 2.115159 1_665
F8 Mn9 2.145628 1_555
F8 Mn5 2.145628 1_555
F9 Mn9 2.105876 1_555
F9 Mn4 2.117480 1_665
F9 Mn8 2.189838 1_555
F10 Mn1 2.105643 1_455
F10 Mn2 2.105643 1_454
F10 Mn6 2.178151 1_555
F11 Mn7 2.131099 1_555
F11 Mn0 2.144824 1_565
F11 Mn1 2.146784 1_455
F12 Mn3 2.094168 1_565
F12 Mn0 2.123825 1_565
F12 Mn5 2.186077 1_555
F13 Mn8 2.131099 1_555
F13 Mn4 2.144824 1_565
F13 Mn2 2.146784 1_455
F14 Mn3 2.094168 1_565
F14 Mn4 2.123825 1_565
F14 Mn9 2.186077 1_555
