# generated using pymatgen
data_Sm2TeO6
_symmetry_space_group_name_H-M   'P 1'
_cell_length_a   5.08932000
_cell_length_b   5.08932000
_cell_length_c   10.32090800
_cell_angle_alpha   90.00000000
_cell_angle_beta   90.00000000
_cell_angle_gamma   90.00000000
_symmetry_Int_Tables_number   1
_chemical_formula_structural   Sm2TeO6
_chemical_formula_sum   'Sm4 Te2 O12'
_cell_volume   267.32367587
_cell_formula_units_Z   2
loop_
 _symmetry_equiv_pos_site_id
 _symmetry_equiv_pos_as_xyz
  1  'x, y, z'
loop_
 _atom_site_type_symbol
 _atom_site_label
 _atom_site_symmetry_multiplicity
 _atom_site_fract_x
 _atom_site_fract_y
 _atom_site_fract_z
 _atom_site_occupancy
  Sm  Sm0  1  0.50000000  0.50000000  0.33457300  1
  Sm  Sm1  1  0.50000000  0.50000000  0.66542700  1
  Sm  Sm2  1  0.00000000  0.00000000  0.16542700  1
  Sm  Sm3  1  0.00000000  0.00000000  0.83457300  1
  Te  Te0  1  0.50000000  0.50000000  0.00000000  1
  Te  Te1  1  0.00000000  0.00000000  0.50000000  1
  O  O0  1  0.68079600  0.68079600  0.14231500  1
  O  O1  1  0.68079600  0.68079600  0.85768500  1
  O  O2  1  0.72741800  0.72741800  0.50000000  1
  O  O3  1  0.77258200  0.22741800  0.00000000  1
  O  O4  1  0.81920400  0.18079600  0.35768500  1
  O  O5  1  0.81920400  0.18079600  0.64231500  1
  O  O6  1  0.18079600  0.81920400  0.35768500  1
  O  O7  1  0.18079600  0.81920400  0.64231500  1
  O  O8  1  0.22741800  0.77258200  0.00000000  1
  O  O9  1  0.27258200  0.27258200  0.50000000  1
  O  O10  1  0.31920400  0.31920400  0.14231500  1
  O  O11  1  0.31920400  0.31920400  0.85768500  1
loop_
_geom_bond_atom_site_label_1
_geom_bond_atom_site_label_2
_geom_bond_distance
_geom_bond_site_symmetry_2
O0 Te0 1.962322 1_555
O0 Sm2 2.309784 1_665
O0 Sm0 2.372895 1_555
O1 Te0 1.962322 1_556
O1 Sm3 2.309784 1_665
O1 Sm1 2.372895 1_555
O2 Te1 1.961878 1_665
O2 Sm0 2.365213 1_555
O2 Sm1 2.365213 1_555
O3 Te0 1.961878 1_555
O3 Sm2 2.365213 1_655
O3 Sm3 2.365213 1_654
O4 Te1 1.962322 1_655
O4 Sm0 2.309784 1_555
O4 Sm2 2.372895 1_655
O5 Te1 1.962322 1_655
O5 Sm1 2.309784 1_555
O5 Sm3 2.372895 1_655
O6 Te1 1.962322 1_565
O6 Sm0 2.309784 1_555
O6 Sm2 2.372895 1_565
O7 Te1 1.962322 1_565
O7 Sm1 2.309784 1_555
O7 Sm3 2.372895 1_565
O8 Te0 1.961878 1_555
O8 Sm2 2.365213 1_565
O8 Sm3 2.365213 1_564
O9 Te1 1.961878 1_555
O9 Sm0 2.365213 1_555
O9 Sm1 2.365213 1_555
O10 Te0 1.962322 1_555
O10 Sm2 2.309784 1_555
O10 Sm0 2.372895 1_555
O11 Te0 1.962322 1_556
O11 Sm3 2.309784 1_555
O11 Sm1 2.372895 1_555
