# generated using pymatgen
data_Sr24Fe16O55
_symmetry_space_group_name_H-M   'P 1'
_cell_length_a   11.92926253
_cell_length_b   11.92926253
_cell_length_c   11.06873282
_cell_angle_alpha   76.58739133
_cell_angle_beta   76.58739133
_cell_angle_gamma   117.50833022
_symmetry_Int_Tables_number   1
_chemical_formula_structural   Sr24Fe16O55
_chemical_formula_sum   'Sr24 Fe16 O55'
_cell_volume   1249.60305650
_cell_formula_units_Z   1
loop_
 _symmetry_equiv_pos_site_id
 _symmetry_equiv_pos_as_xyz
  1  'x, y, z'
loop_
 _atom_site_type_symbol
 _atom_site_label
 _atom_site_symmetry_multiplicity
 _atom_site_fract_x
 _atom_site_fract_y
 _atom_site_fract_z
 _atom_site_occupancy
  Sr  Sr0  1  0.25908700  0.25908700  0.87047500  1
  Sr  Sr1  1  0.06840100  0.43494100  0.87447100  1
  Sr  Sr2  1  0.00012400  0.00012400  0.74076800  1
  Sr  Sr3  1  0.43494100  0.06840100  0.87447100  1
  Sr  Sr4  1  0.81708900  0.18328900  0.74876500  1
  Sr  Sr5  1  0.18328900  0.81708900  0.74876500  1
  Sr  Sr6  1  0.99987600  0.99987600  0.25923200  1
  Sr  Sr7  1  0.43297700  0.06729500  0.37462000  1
  Sr  Sr8  1  0.06729500  0.43297700  0.37462000  1
  Sr  Sr9  1  0.25147700  0.25147700  0.37423500  1
  Sr  Sr10  1  0.68254500  0.31745500  0.50000000  1
  Sr  Sr11  1  0.31745500  0.68254500  0.50000000  1
  Sr  Sr12  1  0.93270500  0.56702300  0.62538000  1
  Sr  Sr13  1  0.50000000  0.50000000  0.50000000  1
  Sr  Sr14  1  0.56702300  0.93270500  0.62538000  1
  Sr  Sr15  1  0.74852300  0.74852300  0.62576500  1
  Sr  Sr16  1  0.81671100  0.18291100  0.25123500  1
  Sr  Sr17  1  0.18291100  0.81671100  0.25123500  1
  Sr  Sr18  1  0.68105900  0.31894100  0.00000000  1
  Sr  Sr19  1  0.93159900  0.56505900  0.12552900  1
  Sr  Sr20  1  0.74091300  0.74091300  0.12952500  1
  Sr  Sr21  1  0.31894100  0.68105900  0.00000000  1
  Sr  Sr22  1  0.50000000  0.50000000  0.00000000  1
  Sr  Sr23  1  0.56505900  0.93159900  0.12552900  1
  Fe  Fe0  1  0.59780800  0.40323300  0.74941200  1
  Fe  Fe1  1  0.40323300  0.59780800  0.74941200  1
  Fe  Fe2  1  0.84739200  0.65438600  0.87517000  1
  Fe  Fe3  1  0.34606900  0.15278500  0.62589000  1
  Fe  Fe4  1  0.65438600  0.84739200  0.87517000  1
  Fe  Fe5  1  0.15278500  0.34606900  0.62589000  1
  Fe  Fe6  1  0.90233600  0.09766400  0.50000000  1
  Fe  Fe7  1  0.09766400  0.90233600  0.50000000  1
  Fe  Fe8  1  0.34561400  0.15260800  0.12483000  1
  Fe  Fe9  1  0.59676700  0.40219200  0.25058800  1
  Fe  Fe10  1  0.15260800  0.34561400  0.12483000  1
  Fe  Fe11  1  0.65393100  0.84721500  0.37411000  1
  Fe  Fe12  1  0.84721500  0.65393100  0.37411000  1
  Fe  Fe13  1  0.40219200  0.59676700  0.25058800  1
  Fe  Fe14  1  0.89462900  0.10537100  0.00000000  1
  Fe  Fe15  1  0.10537100  0.89462900  0.00000000  1
  O  O0  1  0.03059500  0.21069100  0.81908900  1
  O  O1  1  0.21069100  0.03059500  0.81908900  1
  O  O2  1  0.27923600  0.46999600  0.93696100  1
  O  O3  1  0.46999600  0.27923600  0.93696100  1
  O  O4  1  0.94682500  0.56182000  0.87620900  1
  O  O5  1  0.22056600  0.02918400  0.56255900  1
  O  O6  1  0.69350500  0.30623300  0.74907400  1
  O  O7  1  0.02918400  0.22056600  0.56255900  1
  O  O8  1  0.50007200  0.50007200  0.74976700  1
  O  O9  1  0.00000000  0.00000000  0.50000000  1
  O  O10  1  0.05370100  0.43950500  0.63001200  1
  O  O11  1  0.96946000  0.78975200  0.93964700  1
  O  O12  1  0.27917900  0.47026500  0.68799500  1
  O  O13  1  0.52905800  0.72060900  0.81182100  1
  O  O14  1  0.74889100  0.74889100  0.87425200  1
  O  O15  1  0.30623200  0.69350500  0.74907400  1
  O  O16  1  0.78975200  0.96946000  0.93964700  1
  O  O17  1  0.72060900  0.52905800  0.81182100  1
  O  O18  1  0.43950500  0.05370100  0.63001200  1
  O  O19  1  0.47026500  0.27917900  0.68799500  1
  O  O20  1  0.56182000  0.94682500  0.87620900  1
  O  O21  1  0.25116200  0.25116200  0.62316400  1
  O  O22  1  0.22013600  0.02897300  0.31266000  1
  O  O23  1  0.47142300  0.27953600  0.43705900  1
  O  O24  1  0.52857700  0.72046400  0.56294100  1
  O  O25  1  0.02897300  0.22013600  0.31266000  1
  O  O26  1  0.19416500  0.80583500  0.50000000  1
  O  O27  1  0.27953600  0.47142300  0.43705900  1
  O  O28  1  0.80583500  0.19416500  0.50000000  1
  O  O29  1  0.77986400  0.97102700  0.68734000  1
  O  O30  1  0.72046400  0.52857700  0.56294100  1
  O  O31  1  0.97102700  0.77986400  0.68734000  1
  O  O32  1  0.03054000  0.21024800  0.06035300  1
  O  O33  1  0.47094200  0.27939100  0.18817900  1
  O  O34  1  0.05317500  0.43818000  0.12379100  1
  O  O35  1  0.21024800  0.03054000  0.06035300  1
  O  O36  1  0.43818000  0.05317500  0.12379100  1
  O  O37  1  0.25110900  0.25110900  0.12574800  1
  O  O38  1  0.27939100  0.47094200  0.18817900  1
  O  O39  1  0.74883800  0.74883800  0.37683600  1
  O  O40  1  0.94629900  0.56049500  0.36998800  1
  O  O41  1  0.77943400  0.97081600  0.43744100  1
  O  O42  1  0.30649500  0.69376700  0.25092600  1
  O  O43  1  0.49992800  0.49992800  0.25023300  1
  O  O44  1  0.52973500  0.72082100  0.31200500  1
  O  O45  1  0.69376700  0.30649500  0.25092600  1
  O  O46  1  0.97081600  0.77943400  0.43744100  1
  O  O47  1  0.56049500  0.94629900  0.36998800  1
  O  O48  1  0.72082100  0.52973500  0.31200500  1
  O  O49  1  0.80141200  0.19858800  0.00000000  1
  O  O50  1  0.19858800  0.80141200  0.00000000  1
  O  O51  1  0.53000400  0.72076400  0.06303900  1
  O  O52  1  0.78930900  0.96940500  0.18091100  1
  O  O53  1  0.72076400  0.53000400  0.06303900  1
  O  O54  1  0.96940500  0.78931000  0.18091100  1
loop_
_geom_bond_atom_site_label_1
_geom_bond_atom_site_label_2
_geom_bond_distance
_geom_bond_site_symmetry_2
Fe0 O30 1.944981 1_555
Fe0 O17 1.948203 1_555
Fe0 O19 1.957992 1_555
Fe0 O3 1.961089 1_555
Fe0 O6 1.965328 1_555
Fe0 O8 1.984461 1_555
Fe1 O24 1.944981 1_555
Fe1 O13 1.948203 1_555
Fe1 O12 1.957992 1_555
Fe1 O2 1.961089 1_555
Fe1 O15 1.965338 1_555
Fe1 O8 1.984461 1_555
Fe2 O31 1.957705 1_555
Fe2 O4 1.958788 1_555
Fe2 O53 1.961753 1_556
Fe2 O14 1.968691 1_555
Fe2 O17 1.975830 1_555
Fe2 O11 2.020406 1_555
Fe3 O19 1.957240 1_555
Fe3 O5 1.958093 1_555
Fe3 O18 1.963974 1_555
Fe3 O23 1.971342 1_555
Fe3 O21 1.971489 1_555
Fe3 O1 2.020649 1_555
Fe4 O29 1.957705 1_555
Fe4 O20 1.958788 1_555
Fe4 O51 1.961753 1_556
Fe4 O14 1.968691 1_555
Fe4 O13 1.975830 1_555
Fe4 O16 2.020406 1_555
Fe5 O12 1.957240 1_555
Fe5 O7 1.958093 1_555
Fe5 O10 1.963974 1_555
Fe5 O27 1.971342 1_555
Fe5 O21 1.971489 1_555
Fe5 O0 2.020649 1_555
Fe6 O29 1.954222 1_545
Fe6 O25 1.954222 1_655
Fe6 O41 1.956144 1_545
Fe6 O7 1.956144 1_655
Fe6 O28 1.968412 1_555
Fe6 O9 1.992134 1_655
Fe7 O22 1.954222 1_565
Fe7 O31 1.954222 1_455
Fe7 O46 1.956144 1_455
Fe7 O5 1.956144 1_565
Fe7 O26 1.968412 1_555
Fe7 O9 1.992134 1_565
Fe8 O22 1.957705 1_555
Fe8 O36 1.958788 1_555
Fe8 O3 1.961753 1_554
Fe8 O37 1.968691 1_555
Fe8 O33 1.975830 1_555
Fe8 O35 2.020406 1_555
Fe9 O23 1.944981 1_555
Fe9 O33 1.948203 1_555
Fe9 O48 1.957992 1_555
Fe9 O53 1.961089 1_555
Fe9 O45 1.965328 1_555
Fe9 O43 1.984461 1_555
Fe10 O25 1.957705 1_555
Fe10 O34 1.958788 1_555
Fe10 O2 1.961753 1_554
Fe10 O37 1.968691 1_555
Fe10 O38 1.975830 1_555
Fe10 O32 2.020406 1_555
Fe11 O44 1.957240 1_555
Fe11 O41 1.958093 1_555
Fe11 O47 1.963974 1_555
Fe11 O24 1.971342 1_555
Fe11 O39 1.971489 1_555
Fe11 O52 2.020649 1_555
Fe12 O48 1.957240 1_555
Fe12 O46 1.958093 1_555
Fe12 O40 1.963974 1_555
Fe12 O30 1.971342 1_555
Fe12 O39 1.971489 1_555
Fe12 O54 2.020651 1_555
Fe13 O27 1.944981 1_555
Fe13 O38 1.948203 1_555
Fe13 O44 1.957992 1_555
Fe13 O51 1.961089 1_555
Fe13 O42 1.965328 1_555
Fe13 O43 1.984461 1_555
Fe14 O49 1.901425 1_555
Fe14 O32 1.912232 1_655
Fe14 O16 1.912232 1_544
Fe14 O52 1.913824 1_545
Fe14 O0 1.913824 1_654
Fe15 O50 1.901425 1_555
Fe15 O35 1.912232 1_565
Fe15 O11 1.912232 1_454
Fe15 O54 1.913824 1_455
Fe15 O1 1.913824 1_564
O0 Sr4 2.732859 1_455
O0 Sr0 2.739415 1_555
O0 Sr2 2.739770 1_555
O0 Sr1 2.740453 1_555
O1 Sr5 2.732859 1_545
O1 Sr0 2.739415 1_555
O1 Sr2 2.739770 1_555
O1 Sr3 2.740453 1_555
O2 Sr21 2.630093 1_556
O2 Sr1 2.636047 1_555
O2 Sr0 2.704061 1_555
O2 Sr22 2.765537 1_556
O3 Sr18 2.630093 1_556
O3 Sr3 2.636047 1_555
O3 Sr0 2.704061 1_555
O3 Sr22 2.765537 1_556
O4 Sr1 2.534369 1_655
O4 Sr5 2.728776 1_655
O4 Sr19 2.733788 1_556
O4 Sr12 2.808392 1_555
O4 Sr18 2.825078 1_556
O5 Sr5 2.638851 1_545
O5 Sr7 2.646972 1_555
O5 Sr2 2.713054 1_555
O5 Sr9 2.772877 1_555
O6 Sr4 2.514322 1_555
O6 Sr3 2.755540 1_555
O6 Sr10 2.765478 1_555
O6 Sr12 2.776053 1_555
O6 Sr18 2.789978 1_556
O7 Sr4 2.638851 1_455
O7 Sr8 2.646972 1_555
O7 Sr2 2.713054 1_555
O7 Sr9 2.772877 1_555
O8 Sr0 2.667536 1_555
O8 Sr15 2.750179 1_555
O8 Sr13 2.765003 1_555
O8 Sr22 2.769364 1_556
O9 Sr2 2.665683 1_555
O9 Sr6 2.665683 1_445
O9 Sr15 2.783674 1_445
O9 Sr9 2.783674 1_555
O10 Sr12 2.535049 1_455
O10 Sr4 2.735392 1_455
O10 Sr1 2.741524 1_555
O10 Sr11 2.813111 1_555
O10 Sr8 2.815076 1_555
O11 Sr5 2.736548 1_655
O11 Sr2 2.737371 1_665
O11 Sr20 2.737908 1_556
O11 Sr19 2.741157 1_556
O12 Sr1 2.640118 1_555
O12 Sr11 2.645320 1_555
O12 Sr0 2.709340 1_555
O12 Sr13 2.765216 1_555
O13 Sr21 2.621718 1_556
O13 Sr14 2.636483 1_555
O13 Sr15 2.753446 1_555
O13 Sr22 2.768358 1_556
O14 Sr15 2.752476 1_555
O14 Sr22 2.755086 1_556
O14 Sr2 2.782337 1_665
O14 Sr20 2.782798 1_556
O15 Sr5 2.514312 1_555
O15 Sr1 2.755535 1_555
O15 Sr11 2.765476 1_555
O15 Sr14 2.776060 1_555
O15 Sr21 2.789982 1_556
O16 Sr4 2.736548 1_565
O16 Sr2 2.737371 1_665
O16 Sr20 2.737908 1_556
O16 Sr23 2.741157 1_556
O17 Sr18 2.621718 1_556
O17 Sr12 2.636483 1_555
O17 Sr15 2.753446 1_555
O17 Sr22 2.768358 1_556
O18 Sr14 2.535049 1_545
O18 Sr5 2.735392 1_545
O18 Sr3 2.741524 1_555
O18 Sr10 2.813111 1_555
O18 Sr7 2.815076 1_555
O19 Sr3 2.640118 1_555
O19 Sr10 2.645320 1_555
O19 Sr0 2.709340 1_555
O19 Sr13 2.765216 1_555
O20 Sr3 2.534369 1_565
O20 Sr4 2.728776 1_565
O20 Sr23 2.733788 1_556
O20 Sr14 2.808392 1_555
O20 Sr21 2.825078 1_556
O21 Sr9 2.753588 1_555
O21 Sr13 2.754497 1_555
O21 Sr2 2.780194 1_555
O21 Sr0 2.782662 1_555
O22 Sr17 2.640300 1_545
O22 Sr7 2.647093 1_555
O22 Sr6 2.710681 1_445
O22 Sr9 2.773162 1_555
O23 Sr10 2.634537 1_555
O23 Sr7 2.642835 1_555
O23 Sr9 2.760985 1_555
O23 Sr13 2.765923 1_555
O24 Sr11 2.634537 1_555
O24 Sr14 2.642835 1_555
O24 Sr15 2.760985 1_555
O24 Sr13 2.765923 1_555
O25 Sr16 2.640300 1_455
O25 Sr8 2.647093 1_555
O25 Sr6 2.710681 1_445
O25 Sr9 2.773162 1_555
O26 Sr11 2.514849 1_555
O26 Sr5 2.763791 1_555
O26 Sr17 2.763791 1_555
O26 Sr12 2.778450 1_455
O26 Sr7 2.778450 1_565
O27 Sr11 2.634537 1_555
O27 Sr8 2.642835 1_555
O27 Sr9 2.760985 1_555
O27 Sr13 2.765923 1_555
O28 Sr10 2.514849 1_555
O28 Sr4 2.763791 1_555
O28 Sr16 2.763791 1_555
O28 Sr14 2.778450 1_545
O28 Sr8 2.778450 1_655
O29 Sr4 2.640300 1_565
O29 Sr14 2.647093 1_555
O29 Sr2 2.710681 1_665
O29 Sr15 2.773162 1_555
O30 Sr10 2.634537 1_555
O30 Sr12 2.642835 1_555
O30 Sr15 2.760985 1_555
O30 Sr13 2.765923 1_555
O31 Sr5 2.640300 1_655
O31 Sr12 2.647093 1_555
O31 Sr2 2.710681 1_665
O31 Sr15 2.773162 1_555
O32 Sr16 2.736548 1_455
O32 Sr6 2.737371 1_445
O32 Sr0 2.737908 1_554
O32 Sr1 2.741157 1_554
O33 Sr18 2.621718 1_555
O33 Sr7 2.636483 1_555
O33 Sr9 2.753446 1_555
O33 Sr22 2.768358 1_555
O34 Sr19 2.534369 1_455
O34 Sr16 2.728776 1_455
O34 Sr1 2.733788 1_554
O34 Sr8 2.808392 1_555
O34 Sr21 2.825078 1_555
O35 Sr17 2.736548 1_545
O35 Sr6 2.737371 1_445
O35 Sr0 2.737908 1_554
O35 Sr3 2.741157 1_554
O36 Sr23 2.534369 1_545
O36 Sr17 2.728776 1_545
O36 Sr3 2.733788 1_554
O36 Sr7 2.808392 1_555
O36 Sr18 2.825078 1_555
O37 Sr9 2.752476 1_555
O37 Sr22 2.755086 1_555
O37 Sr6 2.782337 1_445
O37 Sr0 2.782798 1_554
O38 Sr21 2.621718 1_555
O38 Sr8 2.636483 1_555
O38 Sr9 2.753446 1_555
O38 Sr22 2.768358 1_555
O39 Sr15 2.753588 1_555
O39 Sr13 2.754497 1_555
O39 Sr6 2.780194 1_555
O39 Sr20 2.782662 1_555
O40 Sr8 2.535049 1_655
O40 Sr17 2.735392 1_655
O40 Sr19 2.741524 1_555
O40 Sr10 2.813111 1_555
O40 Sr12 2.815076 1_555
O41 Sr16 2.638851 1_565
O41 Sr14 2.646972 1_555
O41 Sr6 2.713054 1_555
O41 Sr15 2.772877 1_555
O42 Sr17 2.514322 1_555
O42 Sr23 2.755540 1_555
O42 Sr11 2.765478 1_555
O42 Sr8 2.776053 1_555
O42 Sr21 2.789978 1_555
O43 Sr20 2.667536 1_555
O43 Sr9 2.750179 1_555
O43 Sr13 2.765003 1_555
O43 Sr22 2.769364 1_555
O44 Sr23 2.640118 1_555
O44 Sr11 2.645320 1_555
O44 Sr20 2.709340 1_555
O44 Sr13 2.765216 1_555
O45 Sr16 2.514322 1_555
O45 Sr19 2.755540 1_555
O45 Sr10 2.765478 1_555
O45 Sr7 2.776053 1_555
O45 Sr18 2.789978 1_555
O46 Sr17 2.638851 1_655
O46 Sr12 2.646972 1_555
O46 Sr6 2.713054 1_555
O46 Sr15 2.772877 1_555
O47 Sr7 2.535049 1_565
O47 Sr16 2.735392 1_565
O47 Sr23 2.741524 1_555
O47 Sr11 2.813111 1_555
O47 Sr14 2.815076 1_555
O48 Sr19 2.640118 1_555
O48 Sr10 2.645320 1_555
O48 Sr20 2.709340 1_555
O48 Sr13 2.765216 1_555
O49 Sr18 2.454941 1_555
O49 Sr16 2.797702 1_555
O49 Sr4 2.797702 1_554
O49 Sr1 2.803291 1_654
O49 Sr23 2.803291 1_545
O50 Sr21 2.454941 1_555
O50 Sr17 2.797702 1_555
O50 Sr5 2.797702 1_554
O50 Sr3 2.803291 1_564
O50 Sr19 2.803291 1_455
O51 Sr21 2.630093 1_555
O51 Sr23 2.636047 1_555
O51 Sr20 2.704061 1_555
O51 Sr22 2.765537 1_555
O52 Sr16 2.732859 1_565
O52 Sr20 2.739415 1_555
O52 Sr6 2.739770 1_555
O52 Sr23 2.740453 1_555
O53 Sr18 2.630093 1_555
O53 Sr19 2.636047 1_555
O53 Sr20 2.704061 1_555
O53 Sr22 2.765537 1_555
O54 Sr17 2.732862 1_655
O54 Sr20 2.739413 1_555
O54 Sr6 2.739759 1_555
O54 Sr19 2.740465 1_555
