# generated using pymatgen
data_Li2Mn3NbO8
_symmetry_space_group_name_H-M   'P 1'
_cell_length_a   8.63445200
_cell_length_b   8.63445200
_cell_length_c   8.63445200
_cell_angle_alpha   90.00000000
_cell_angle_beta   90.00000000
_cell_angle_gamma   90.00000000
_symmetry_Int_Tables_number   1
_chemical_formula_structural   Li2Mn3NbO8
_chemical_formula_sum   'Li8 Mn12 Nb4 O32'
_cell_volume   643.73087371
_cell_formula_units_Z   4
loop_
 _symmetry_equiv_pos_site_id
 _symmetry_equiv_pos_as_xyz
  1  'x, y, z'
loop_
 _atom_site_type_symbol
 _atom_site_label
 _atom_site_symmetry_multiplicity
 _atom_site_fract_x
 _atom_site_fract_y
 _atom_site_fract_z
 _atom_site_occupancy
  Li  Li0  1  0.50717600  0.50717600  0.50717600  1
  Li  Li1  1  0.74282400  0.74282400  0.74282400  1
  Li  Li2  1  0.75717600  0.25717600  0.24282400  1
  Li  Li3  1  0.99282400  0.49282400  0.00717600  1
  Li  Li4  1  0.00717600  0.99282400  0.49282400  1
  Li  Li5  1  0.24282400  0.75717600  0.25717600  1
  Li  Li6  1  0.25717600  0.24282400  0.75717600  1
  Li  Li7  1  0.49282400  0.00717600  0.99282400  1
  Mn  Mn0  1  0.62313100  0.62686900  0.12500000  1
  Mn  Mn1  1  0.62500000  0.87686900  0.37313100  1
  Mn  Mn2  1  0.62686900  0.12500000  0.62313100  1
  Mn  Mn3  1  0.87313100  0.87500000  0.12313100  1
  Mn  Mn4  1  0.87500000  0.12313100  0.87313100  1
  Mn  Mn5  1  0.87686900  0.37313100  0.62500000  1
  Mn  Mn6  1  0.12313100  0.87313100  0.87500000  1
  Mn  Mn7  1  0.12500000  0.62313100  0.62686900  1
  Mn  Mn8  1  0.12686900  0.37500000  0.37686900  1
  Mn  Mn9  1  0.37313100  0.62500000  0.87686900  1
  Mn  Mn10  1  0.37500000  0.37686900  0.12686900  1
  Mn  Mn11  1  0.37686900  0.12686900  0.37500000  1
  Nb  Nb0  1  0.62500000  0.37500000  0.87500000  1
  Nb  Nb1  1  0.87500000  0.62500000  0.37500000  1
  Nb  Nb2  1  0.12500000  0.12500000  0.12500000  1
  Nb  Nb3  1  0.37500000  0.87500000  0.62500000  1
  O  O0  1  0.60342700  0.60842600  0.87211100  1
  O  O1  1  0.62788900  0.39657300  0.10842600  1
  O  O2  1  0.60911400  0.10911400  0.39088600  1
  O  O3  1  0.64157400  0.64657300  0.37788900  1
  O  O4  1  0.60842600  0.87211100  0.60342700  1
  O  O5  1  0.64088600  0.85911400  0.14088600  1
  O  O6  1  0.62211100  0.14157400  0.85342700  1
  O  O7  1  0.64657300  0.37788900  0.64157400  1
  O  O8  1  0.85342700  0.62211100  0.14157400  1
  O  O9  1  0.87788900  0.85842600  0.35342700  1
  O  O10  1  0.85911400  0.14088600  0.64088600  1
  O  O11  1  0.89157400  0.12788900  0.10342700  1
  O  O12  1  0.85842600  0.35342700  0.87788900  1
  O  O13  1  0.89088600  0.89088600  0.89088600  1
  O  O14  1  0.87211100  0.60342700  0.60842600  1
  O  O15  1  0.89657300  0.39157400  0.37211100  1
  O  O16  1  0.10342700  0.89157400  0.12788900  1
  O  O17  1  0.12788900  0.10342700  0.89157400  1
  O  O18  1  0.10911400  0.39088600  0.60911400  1
  O  O19  1  0.14157400  0.85342700  0.62211100  1
  O  O20  1  0.10842600  0.62788900  0.39657300  1
  O  O21  1  0.14088600  0.64088600  0.85911400  1
  O  O22  1  0.12211100  0.35842600  0.14657300  1
  O  O23  1  0.14657300  0.12211100  0.35842600  1
  O  O24  1  0.35342700  0.87788900  0.85842600  1
  O  O25  1  0.37788900  0.64157400  0.64657300  1
  O  O26  1  0.35911400  0.35911400  0.35911400  1
  O  O27  1  0.39157400  0.37211100  0.89657300  1
  O  O28  1  0.35842600  0.14657300  0.12211100  1
  O  O29  1  0.39088600  0.60911400  0.10911400  1
  O  O30  1  0.37211100  0.89657300  0.39157400  1
  O  O31  1  0.39657300  0.10842600  0.62788900  1
loop_
_geom_bond_atom_site_label_1
_geom_bond_atom_site_label_2
_geom_bond_distance
_geom_bond_site_symmetry_2
Li0 O25 2.010353 1_555
Li0 O3 2.010353 1_555
Li0 O7 2.010353 1_555
Li0 O26 2.214313 1_555
Li1 O4 2.010353 1_555
Li1 O14 2.010353 1_555
Li1 O0 2.010353 1_555
Li1 O13 2.214313 1_555
Li2 O15 2.010353 1_555
Li2 O11 2.010353 1_555
Li2 O1 2.010353 1_555
Li2 O2 2.214313 1_555
Li3 O8 2.010353 1_555
Li3 O12 2.010353 1_554
Li3 O22 2.010353 1_655
Li3 O21 2.214313 1_654
Li4 O23 2.010353 1_565
Li4 O9 2.010353 1_455
Li4 O19 2.010353 1_555
Li4 O10 2.214313 1_465
Li5 O20 2.010353 1_555
Li5 O16 2.010353 1_555
Li5 O30 2.010353 1_555
Li5 O29 2.214313 1_555
Li6 O27 2.010353 1_555
Li6 O31 2.010353 1_555
Li6 O17 2.010353 1_555
Li6 O18 2.214313 1_555
Li7 O28 2.010353 1_556
Li7 O6 2.010353 1_555
Li7 O24 2.010353 1_545
Li7 O5 2.214313 1_546
Mn0 O1 1.994046 1_555
Mn0 O8 1.994046 1_555
Mn0 O29 2.015832 1_555
Mn0 O5 2.015832 1_555
Mn0 O3 2.195958 1_555
Mn0 O0 2.195958 1_554
Mn1 O4 1.994046 1_555
Mn1 O3 1.994046 1_555
Mn1 O2 2.015832 1_565
Mn1 O5 2.015832 1_555
Mn1 O30 2.195958 1_555
Mn1 O9 2.195958 1_555
Mn2 O31 1.994046 1_555
Mn2 O6 1.994046 1_555
Mn2 O2 2.015832 1_555
Mn2 O10 2.015832 1_555
Mn2 O7 2.195958 1_555
Mn2 O4 2.195958 1_545
Mn3 O16 1.994046 1_655
Mn3 O9 1.994046 1_555
Mn3 O13 2.015832 1_554
Mn3 O5 2.015832 1_555
Mn3 O11 2.195958 1_565
Mn3 O8 2.195958 1_555
Mn4 O11 1.994046 1_556
Mn4 O12 1.994046 1_555
Mn4 O13 2.015832 1_545
Mn4 O10 2.015832 1_555
Mn4 O17 2.195958 1_655
Mn4 O6 2.195958 1_555
Mn5 O14 1.994046 1_555
Mn5 O7 1.994046 1_555
Mn5 O18 2.015832 1_655
Mn5 O10 2.015832 1_555
Mn5 O15 2.195958 1_555
Mn5 O12 2.195958 1_555
Mn6 O17 1.994046 1_565
Mn6 O24 1.994046 1_555
Mn6 O21 2.015832 1_555
Mn6 O13 2.015832 1_455
Mn6 O16 2.195958 1_556
Mn6 O19 2.195958 1_555
Mn7 O20 1.994046 1_555
Mn7 O19 1.994046 1_555
Mn7 O18 2.015832 1_555
Mn7 O21 2.015832 1_555
Mn7 O25 2.195958 1_555
Mn7 O14 2.195958 1_455
Mn8 O22 1.994046 1_555
Mn8 O15 1.994046 1_455
Mn8 O26 2.015832 1_555
Mn8 O18 2.015832 1_555
Mn8 O20 2.195958 1_555
Mn8 O23 2.195958 1_555
Mn9 O25 1.994046 1_555
Mn9 O0 1.994046 1_555
Mn9 O29 2.015832 1_556
Mn9 O21 2.015832 1_555
Mn9 O27 2.195958 1_555
Mn9 O24 2.195958 1_555
Mn10 O28 1.994046 1_555
Mn10 O27 1.994046 1_554
Mn10 O26 2.015832 1_555
Mn10 O29 2.015832 1_555
Mn10 O1 2.195958 1_555
Mn10 O22 2.195958 1_555
Mn11 O23 1.994046 1_555
Mn11 O30 1.994046 1_545
Mn11 O26 2.015832 1_555
Mn11 O2 2.015832 1_555
Mn11 O28 2.195958 1_555
Mn11 O31 2.195958 1_555
Nb0 O1 2.024248 1_556
Nb0 O6 2.024248 1_555
Nb0 O27 2.024248 1_555
Nb0 O12 2.024248 1_555
Nb0 O0 2.024248 1_555
Nb0 O7 2.024248 1_555
Nb1 O20 2.024248 1_655
Nb1 O3 2.024248 1_555
Nb1 O8 2.024248 1_555
Nb1 O9 2.024248 1_555
Nb1 O15 2.024248 1_555
Nb1 O14 2.024248 1_555
Nb2 O23 2.024248 1_555
Nb2 O22 2.024248 1_555
Nb2 O16 2.024248 1_545
Nb2 O11 2.024248 1_455
Nb2 O28 2.024248 1_555
Nb2 O17 2.024248 1_554
Nb3 O31 2.024248 1_565
Nb3 O25 2.024248 1_555
Nb3 O19 2.024248 1_555
Nb3 O4 2.024248 1_555
Nb3 O30 2.024248 1_555
Nb3 O24 2.024248 1_555
