# generated using pymatgen
data_Li4Sb2C4SO16
_symmetry_space_group_name_H-M   'P 1'
_cell_length_a   9.58041900
_cell_length_b   9.70195436
_cell_length_c   9.81322716
_cell_angle_alpha   115.58217280
_cell_angle_beta   116.77210025
_cell_angle_gamma   94.16677138
_symmetry_Int_Tables_number   1
_chemical_formula_structural   Li4Sb2C4SO16
_chemical_formula_sum   'Li8 Sb4 C8 S2 O32'
_cell_volume   692.91741732
_cell_formula_units_Z   2
loop_
 _symmetry_equiv_pos_site_id
 _symmetry_equiv_pos_as_xyz
  1  'x, y, z'
loop_
 _atom_site_type_symbol
 _atom_site_label
 _atom_site_symmetry_multiplicity
 _atom_site_fract_x
 _atom_site_fract_y
 _atom_site_fract_z
 _atom_site_occupancy
  Li  Li0  1  0.82500300  0.07047700  0.75001600  1
  Li  Li1  1  0.85278000  0.08017300  0.14107100  1
  Li  Li2  1  0.43183700  0.06433500  0.77791900  1
  Li  Li3  1  0.54531200  0.26876800  0.19426100  1
  Li  Li4  1  0.83185300  0.70116100  0.77239700  1
  Li  Li5  1  0.40422700  0.62599500  0.66428300  1
  Li  Li6  1  0.55861400  0.93904500  0.26708300  1
  Li  Li7  1  0.19911400  0.90913800  0.23524800  1
  Sb  Sb0  1  0.99094700  0.51107800  0.49822100  1
  Sb  Sb1  1  0.98684700  0.48960600  0.98780500  1
  Sb  Sb2  1  0.50793700  0.50759100  0.01881800  1
  Sb  Sb3  1  0.02441500  0.99119300  0.50657600  1
  C  C0  1  0.83839400  0.27366300  0.57581300  1
  C  C1  1  0.75798700  0.31029800  0.05270200  1
  C  C2  1  0.79838200  0.74419100  0.06664600  1
  C  C3  1  0.74247300  0.69821900  0.43683900  1
  C  C4  1  0.22446100  0.30396100  0.56875600  1
  C  C5  1  0.20976600  0.24628900  0.90919900  1
  C  C6  1  0.21528100  0.67744100  0.91896300  1
  C  C7  1  0.20040700  0.76227100  0.45673500  1
  S  S0  1  0.38614400  0.12804500  0.26599300  1
  S  S1  1  0.63171300  0.88426700  0.77149900  1
  O  O0  1  0.81578300  0.13670400  0.45386400  1
  O  O1  1  0.88665300  0.30598700  0.03953700  1
  O  O2  1  0.84153300  0.28801700  0.71742500  1
  O  O3  1  0.73565300  0.26195400  0.14606400  1
  O  O4  1  0.85593900  0.40609800  0.56973600  1
  O  O5  1  0.44109300  0.06097900  0.38770900  1
  O  O6  1  0.45107200  0.05624500  0.14491300  1
  O  O7  1  0.65100800  0.36277200  0.96184600  1
  O  O8  1  0.80176600  0.62944900  0.93601400  1
  O  O9  1  0.85748700  0.68975400  0.57012300  1
  O  O10  1  0.20194300  0.06996200  0.16474500  1
  O  O11  1  0.45931400  0.30587300  0.35885500  1
  O  O12  1  0.22201900  0.17526000  0.58842200  1
  O  O13  1  0.35327800  0.23280400  0.95027900  1
  O  O14  1  0.65815500  0.55548800  0.28063400  1
  O  O15  1  0.89879800  0.88877500  0.16349300  1
  O  O16  1  0.36115300  0.41606900  0.66217500  1
  O  O17  1  0.07284600  0.12237300  0.76997800  1
  O  O18  1  0.68761200  0.71254500  0.10350000  1
  O  O19  1  0.71982000  0.82812200  0.45322400  1
  O  O20  1  0.59314100  0.70862100  0.64977500  1
  O  O21  1  0.81810100  0.95813900  0.88835800  1
  O  O22  1  0.19612400  0.38342800  0.99777100  1
  O  O23  1  0.08342600  0.30380000  0.45628300  1
  O  O24  1  0.35874000  0.71999000  0.05159000  1
  O  O25  1  0.55696700  0.90226000  0.87978200  1
  O  O26  1  0.57054500  0.97386200  0.67755400  1
  O  O27  1  0.22878400  0.64125300  0.46812600  1
  O  O28  1  0.19594000  0.63377000  0.76096600  1
  O  O29  1  0.14636100  0.76880600  0.31433800  1
  O  O30  1  0.08418700  0.67205200  0.92998300  1
  O  O31  1  0.21441500  0.89158200  0.59963700  1
loop_
_geom_bond_atom_site_label_1
_geom_bond_atom_site_label_2
_geom_bond_distance
_geom_bond_site_symmetry_2
Li0 O21 2.093680 1_545
Li0 O26 2.204049 1_545
Li0 O2 2.271969 1_555
Li0 O17 2.291703 1_655
Li0 O19 2.474719 1_545
Li0 O1 2.515454 1_556
Li1 O15 2.018768 1_545
Li1 O21 2.080166 1_544
Li1 O3 2.152778 1_555
Li1 O25 2.550700 1_544
Li1 O23 2.551072 1_655
Li2 O31 1.971315 1_545
Li2 O26 2.026927 1_545
Li2 O13 2.244307 1_555
Li2 O25 2.336820 1_545
Li3 O6 1.942762 1_555
Li3 O11 2.038890 1_555
Li3 O3 2.078678 1_555
Li3 O13 2.110899 1_554
Li3 O14 2.515258 1_555
Li4 O9 2.065435 1_555
Li4 O20 2.074484 1_555
Li4 O8 2.120771 1_555
Li4 O21 2.293667 1_555
Li4 O30 2.328908 1_655
Li5 O27 1.979872 1_555
Li5 O20 2.014545 1_555
Li5 O16 2.037799 1_555
Li5 O25 2.354701 1_555
Li5 O28 2.559972 1_555
Li6 O6 2.006616 1_565
Li6 O5 2.062334 1_565
Li6 O24 2.129480 1_555
Li6 O0 2.305830 1_565
Li6 O19 2.505535 1_555
Li7 O10 1.963923 1_565
Li7 O29 1.969117 1_555
Li7 O5 2.063627 1_565
Li7 O30 2.487333 1_554
Li7 O15 2.604800 1_455
C0 O0 1.263341 1_555
C0 O4 1.313979 1_555
C0 O2 1.321398 1_555
C1 O3 1.279958 1_555
C1 O1 1.297774 1_555
C1 O7 1.322553 1_554
C2 O15 1.274882 1_555
C2 O8 1.301498 1_554
C2 O18 1.321196 1_555
C3 O19 1.248006 1_555
C3 O9 1.318776 1_555
C3 O14 1.344835 1_555
C4 O16 1.260457 1_555
C4 O23 1.303293 1_555
C4 O12 1.343447 1_555
C5 O13 1.281544 1_555
C5 O22 1.292945 1_555
C5 O17 1.330571 1_555
C6 O24 1.263073 1_556
C6 O30 1.307479 1_555
C6 O28 1.334252 1_555
C7 O27 1.263841 1_555
C7 O29 1.286170 1_555
C7 O31 1.358347 1_555
O0 Sb3 2.522893 1_645
O1 Sb1 2.307437 1_554
O2 Sb1 2.144374 1_555
O4 Sb0 2.108662 1_555
O5 S0 1.510514 1_555
O6 S0 1.515907 1_555
O7 Sb2 2.111227 1_556
O8 Sb1 2.318704 1_555
O9 Sb0 2.283912 1_555
O10 S0 1.487059 1_555
O11 S0 1.479661 1_555
O12 Sb3 2.078065 1_545
O13 Sb2 2.595155 1_556
O14 Sb2 2.104484 1_555
O15 Sb3 2.656619 1_655
O16 Sb2 2.777706 1_556
O17 Sb3 2.123457 1_545
O18 Sb2 2.096301 1_555
O20 S1 1.490059 1_555
O21 S1 1.508910 1_555
O22 Sb1 2.302414 1_455
O23 Sb0 2.207065 1_455
O24 Sb2 2.581236 1_555
O25 S1 1.488584 1_555
O26 S1 1.492748 1_555
O28 Sb0 2.090410 1_455
O29 Sb1 2.726097 1_454
O30 Sb1 2.330031 1_455
O31 Sb3 2.145142 1_555
