# generated using pymatgen
data_Li2Cu4S3
_symmetry_space_group_name_H-M   'P 1'
_cell_length_a   6.36249200
_cell_length_b   8.45304200
_cell_length_c   10.77249400
_cell_angle_alpha   90.00000000
_cell_angle_beta   90.00000000
_cell_angle_gamma   90.00000000
_symmetry_Int_Tables_number   1
_chemical_formula_structural   Li2Cu4S3
_chemical_formula_sum   'Li8 Cu16 S12'
_cell_volume   579.37071166
_cell_formula_units_Z   4
loop_
 _symmetry_equiv_pos_site_id
 _symmetry_equiv_pos_as_xyz
  1  'x, y, z'
loop_
 _atom_site_type_symbol
 _atom_site_label
 _atom_site_symmetry_multiplicity
 _atom_site_fract_x
 _atom_site_fract_y
 _atom_site_fract_z
 _atom_site_occupancy
  Li  Li0  1  0.00000000  0.00000000  0.00000000  1
  Li  Li1  1  0.00000000  0.00000000  0.50000000  1
  Li  Li2  1  0.61033900  0.02510700  0.75000000  1
  Li  Li3  1  0.11033900  0.47489300  0.25000000  1
  Li  Li4  1  0.50000000  0.50000000  0.00000000  1
  Li  Li5  1  0.50000000  0.50000000  0.50000000  1
  Li  Li6  1  0.88966100  0.52510700  0.75000000  1
  Li  Li7  1  0.38966100  0.97489300  0.25000000  1
  Cu  Cu0  1  0.62756300  0.16986700  0.08516700  1
  Cu  Cu1  1  0.62756300  0.16986700  0.41483300  1
  Cu  Cu2  1  0.98609100  0.14074200  0.75000000  1
  Cu  Cu3  1  0.06021900  0.16283300  0.25000000  1
  Cu  Cu4  1  0.56021900  0.33716700  0.75000000  1
  Cu  Cu5  1  0.48609100  0.35925800  0.25000000  1
  Cu  Cu6  1  0.12756300  0.33013300  0.58516700  1
  Cu  Cu7  1  0.12756300  0.33013300  0.91483300  1
  Cu  Cu8  1  0.87243700  0.66986700  0.08516700  1
  Cu  Cu9  1  0.87243700  0.66986700  0.41483300  1
  Cu  Cu10  1  0.51390900  0.64074200  0.75000000  1
  Cu  Cu11  1  0.43978100  0.66283300  0.25000000  1
  Cu  Cu12  1  0.93978100  0.83716700  0.75000000  1
  Cu  Cu13  1  0.01390900  0.85925800  0.25000000  1
  Cu  Cu14  1  0.37243700  0.83013300  0.58516700  1
  Cu  Cu15  1  0.37243700  0.83013300  0.91483300  1
  S  S0  1  0.75473100  0.03732500  0.25000000  1
  S  S1  1  0.77744300  0.25115700  0.59126400  1
  S  S2  1  0.77744300  0.25115700  0.90873600  1
  S  S3  1  0.27744300  0.24884300  0.09126400  1
  S  S4  1  0.27744300  0.24884300  0.40873600  1
  S  S5  1  0.25473100  0.46267500  0.75000000  1
  S  S6  1  0.74526900  0.53732500  0.25000000  1
  S  S7  1  0.72255700  0.75115700  0.59126400  1
  S  S8  1  0.72255700  0.75115700  0.90873600  1
  S  S9  1  0.22255700  0.74884300  0.09126400  1
  S  S10  1  0.22255700  0.74884300  0.40873600  1
  S  S11  1  0.24526900  0.96267500  0.75000000  1
loop_
_geom_bond_atom_site_label_1
_geom_bond_atom_site_label_2
_geom_bond_distance
_geom_bond_site_symmetry_2
Li0 S9 2.734771 1_545
Li0 S2 2.734771 1_454
Li0 S3 2.916715 1_555
Li0 S8 2.916715 1_444
Li1 S1 2.734771 1_455
Li1 S10 2.734771 1_545
Li1 S4 2.916715 1_555
Li1 S7 2.916715 1_445
Li2 S11 2.381953 1_545
Li2 S1 2.775901 1_555
Li2 S2 2.775901 1_555
Li2 S7 2.965861 1_545
Li2 S8 2.965861 1_545
Li3 S6 2.381953 1_455
Li3 S4 2.775901 1_555
Li3 S3 2.775901 1_555
Li3 S9 2.965861 1_555
Li3 S10 2.965861 1_555
Li4 S8 2.734771 1_554
Li4 S3 2.734771 1_555
Li4 S2 2.916715 1_554
Li4 S9 2.916715 1_555
Li5 S4 2.734771 1_555
Li5 S7 2.734771 1_555
Li5 S1 2.916715 1_555
Li5 S10 2.916715 1_555
Li6 S5 2.381953 1_655
Li6 S8 2.775901 1_555
Li6 S7 2.775901 1_555
Li6 S1 2.965861 1_555
Li6 S2 2.965861 1_555
Li7 S0 2.381953 1_565
Li7 S9 2.775901 1_555
Li7 S10 2.775901 1_555
Li7 S3 2.965861 1_565
Li7 S4 2.965861 1_565
Cu0 S2 2.234688 1_554
Cu0 S0 2.250086 1_555
Cu0 S3 2.326445 1_555
Cu0 Li7 2.856645 1_545
Cu0 Li0 2.918674 1_655
Cu0 Li4 3.047633 1_555
Cu1 S1 2.234688 1_555
Cu1 S0 2.250086 1_555
Cu1 S4 2.326445 1_555
Cu1 Li7 2.856645 1_545
Cu1 Li1 2.918674 1_655
Cu1 Li5 3.047633 1_555
Cu2 S11 2.232691 1_645
Cu2 S1 2.357431 1_555
Cu2 S2 2.357431 1_555
Cu2 Li2 2.582824 1_555
Cu2 Li0 2.945527 1_656
Cu2 Li1 2.945527 1_655
Cu3 S0 2.214361 1_455
Cu3 S3 2.315772 1_555
Cu3 S4 2.315772 1_555
Cu3 Li7 2.630090 1_545
Cu3 Li3 2.657061 1_555
Cu3 Li0 3.048653 1_555
Cu3 Li1 3.048653 1_555
Cu4 S5 2.214361 1_555
Cu4 S2 2.315772 1_555
Cu4 S1 2.315772 1_555
Cu4 Li6 2.630090 1_555
Cu4 Li2 2.657061 1_555
Cu4 Li4 3.048653 1_556
Cu4 Li5 3.048653 1_555
Cu5 S6 2.232691 1_555
Cu5 S4 2.357431 1_555
Cu5 S3 2.357431 1_555
Cu5 Li3 2.582824 1_555
Cu5 Li4 2.945527 1_555
Cu5 Li5 2.945527 1_555
Cu6 S4 2.234688 1_555
Cu6 S5 2.250086 1_555
Cu6 S1 2.326445 1_455
Cu6 Li6 2.856645 1_455
Cu6 Li5 2.918674 1_555
Cu6 Li1 3.047633 1_555
Cu7 S3 2.234688 1_556
Cu7 S5 2.250086 1_555
Cu7 S2 2.326445 1_455
Cu7 Li6 2.856645 1_455
Cu7 Li4 2.918674 1_556
Cu7 Li0 3.047633 1_556
Cu8 S8 2.234688 1_554
Cu8 S6 2.250086 1_555
Cu8 S9 2.326445 1_655
Cu8 Li3 2.856645 1_655
Cu8 Li4 2.918674 1_555
Cu8 Li0 3.047633 1_665
Cu9 S7 2.234688 1_555
Cu9 S6 2.250086 1_555
Cu9 S10 2.326445 1_655
Cu9 Li3 2.856645 1_655
Cu9 Li5 2.918674 1_555
Cu9 Li1 3.047633 1_665
Cu10 S5 2.232691 1_555
Cu10 S7 2.357431 1_555
Cu10 S8 2.357431 1_555
Cu10 Li6 2.582824 1_555
Cu10 Li4 2.945527 1_556
Cu10 Li5 2.945527 1_555
Cu11 S6 2.214361 1_555
Cu11 S10 2.315772 1_555
Cu11 S9 2.315772 1_555
Cu11 Li3 2.630090 1_555
Cu11 Li7 2.657061 1_555
Cu11 Li5 3.048653 1_555
Cu11 Li4 3.048653 1_555
Cu12 S11 2.214361 1_655
Cu12 S7 2.315772 1_555
Cu12 S8 2.315772 1_555
Cu12 Li2 2.630090 1_565
Cu12 Li6 2.657061 1_555
Cu12 Li1 3.048653 1_665
Cu12 Li0 3.048653 1_666
Cu13 S0 2.232691 1_465
Cu13 S9 2.357431 1_555
Cu13 S10 2.357431 1_555
Cu13 Li7 2.582824 1_555
Cu13 Li0 2.945527 1_565
Cu13 Li1 2.945527 1_565
Cu14 S10 2.234688 1_555
Cu14 S11 2.250086 1_555
Cu14 S7 2.326445 1_555
Cu14 Li2 2.856645 1_565
Cu14 Li1 2.918674 1_565
Cu14 Li5 3.047633 1_555
Cu15 S9 2.234688 1_556
Cu15 S11 2.250086 1_555
Cu15 S8 2.326445 1_555
Cu15 Li2 2.856645 1_565
Cu15 Li0 2.918674 1_566
Cu15 Li4 3.047633 1_556
