# generated using pymatgen
data_Mn5(SeO3)8
_symmetry_space_group_name_H-M   'P 1'
_cell_length_a   8.13868900
_cell_length_b   10.46814158
_cell_length_c   14.28839376
_cell_angle_alpha   81.38886345
_cell_angle_beta   83.11142459
_cell_angle_gamma   72.03600345
_symmetry_Int_Tables_number   1
_chemical_formula_structural   Mn5(SeO3)8
_chemical_formula_sum   'Mn10 Se16 O48'
_cell_volume   1141.40356279
_cell_formula_units_Z   2
loop_
 _symmetry_equiv_pos_site_id
 _symmetry_equiv_pos_as_xyz
  1  'x, y, z'
loop_
 _atom_site_type_symbol
 _atom_site_label
 _atom_site_symmetry_multiplicity
 _atom_site_fract_x
 _atom_site_fract_y
 _atom_site_fract_z
 _atom_site_occupancy
  Mn  Mn0  1  0.74833900  0.00400100  0.74836600  1
  Mn  Mn1  1  0.75138500  0.49492000  0.74515100  1
  Mn  Mn2  1  0.44219300  0.77576100  0.78060900  1
  Mn  Mn3  1  0.09945400  0.64590300  0.78413100  1
  Mn  Mn4  1  0.55780700  0.22423900  0.21939100  1
  Mn  Mn5  1  0.25166100  0.99599900  0.25163400  1
  Mn  Mn6  1  0.24861500  0.50508000  0.25484900  1
  Mn  Mn7  1  0.90054600  0.35409700  0.21586900  1
  Mn  Mn8  1  0.93752000  0.77360700  0.27944700  1
  Mn  Mn9  1  0.06248000  0.22639300  0.72055300  1
  Se  Se0  1  0.41597300  0.47474600  0.89439700  1
  Se  Se1  1  0.36203200  0.05583500  0.88135200  1
  Se  Se2  1  0.63796800  0.94416500  0.11864800  1
  Se  Se3  1  0.58402700  0.52525400  0.10560300  1
  Se  Se4  1  0.86694200  0.20951900  0.90026300  1
  Se  Se5  1  0.77251700  0.73856100  0.90963800  1
  Se  Se6  1  0.22748300  0.26143900  0.09036200  1
  Se  Se7  1  0.13305800  0.79048100  0.09973700  1
  Se  Se8  1  0.36553700  0.20880500  0.40048200  1
  Se  Se9  1  0.27923000  0.73427600  0.40873400  1
  Se  Se10  1  0.72077000  0.26572400  0.59126600  1
  Se  Se11  1  0.63446300  0.79119500  0.59951800  1
  Se  Se12  1  0.89171100  0.48694700  0.39253100  1
  Se  Se13  1  0.86200300  0.05547800  0.38271200  1
  Se  Se14  1  0.13799700  0.94452200  0.61728800  1
  Se  Se15  1  0.10828900  0.51305300  0.60746900  1
  O  O0  1  0.58055900  0.41620600  0.80742200  1
  O  O1  1  0.64369000  0.66837200  0.84866200  1
  O  O2  1  0.28367900  0.13982300  0.77700300  1
  O  O3  1  0.58319500  0.03831000  0.86115000  1
  O  O4  1  0.32151400  0.64921100  0.84743000  1
  O  O5  1  0.36196700  0.88889300  0.88113000  1
  O  O6  1  0.25884800  0.41930400  0.86900600  1
  O  O7  1  0.86495300  0.82477000  0.81204400  1
  O  O8  1  0.93987000  0.10958400  0.80211400  1
  O  O9  1  0.94186200  0.34291300  0.82150400  1
  O  O10  1  0.74115200  0.58069600  0.13099400  1
  O  O11  1  0.63803300  0.11110700  0.11887000  1
  O  O12  1  0.67848600  0.35078900  0.15257000  1
  O  O13  1  0.94601100  0.60242700  0.91404600  1
  O  O14  1  0.41680500  0.96169000  0.13885000  1
  O  O15  1  0.98173300  0.84876800  0.02459000  1
  O  O16  1  0.71632100  0.86017700  0.22299700  1
  O  O17  1  0.01826700  0.15123200  0.97541000  1
  O  O18  1  0.35631000  0.33162800  0.15133800  1
  O  O19  1  0.41944100  0.58379400  0.19257800  1
  O  O20  1  0.05398900  0.39757300  0.08595400  1
  O  O21  1  0.05813800  0.65708700  0.17849600  1
  O  O22  1  0.06013000  0.89041600  0.19788600  1
  O  O23  1  0.13504700  0.17523000  0.18795600  1
  O  O24  1  0.36616200  0.82363800  0.31344300  1
  O  O25  1  0.43816800  0.10832700  0.30234200  1
  O  O26  1  0.43425800  0.34374000  0.31968500  1
  O  O27  1  0.43114400  0.59020100  0.42488600  1
  O  O28  1  0.06951700  0.42445500  0.30537000  1
  O  O29  1  0.13855300  0.66633300  0.34518400  1
  O  O30  1  0.47939600  0.84909200  0.52711100  1
  O  O31  1  0.78357600  0.15241700  0.27743700  1
  O  O32  1  0.52060400  0.15090800  0.47288900  1
  O  O33  1  0.08034200  0.04477300  0.36096100  1
  O  O34  1  0.56885600  0.40979900  0.57511400  1
  O  O35  1  0.81098300  0.65429800  0.34895300  1
  O  O36  1  0.85999900  0.89234500  0.37889900  1
  O  O37  1  0.77262900  0.40499700  0.35088700  1
  O  O38  1  0.56574200  0.65626000  0.68031500  1
  O  O39  1  0.56183200  0.89167300  0.69765800  1
  O  O40  1  0.63383800  0.17636200  0.68655700  1
  O  O41  1  0.22737100  0.59500300  0.64911300  1
  O  O42  1  0.14000100  0.10765500  0.62110100  1
  O  O43  1  0.18901700  0.34570200  0.65104700  1
  O  O44  1  0.91965800  0.95522700  0.63903900  1
  O  O45  1  0.21642400  0.84758300  0.72256300  1
  O  O46  1  0.86144700  0.33366700  0.65481600  1
  O  O47  1  0.93048300  0.57554500  0.69463000  1
loop_
_geom_bond_atom_site_label_1
_geom_bond_atom_site_label_2
_geom_bond_distance
_geom_bond_site_symmetry_2
Mn0 O40 1.893927 1_555
Mn0 O7 1.961207 1_545
Mn0 O3 1.971905 1_555
Mn0 O44 1.980457 1_545
Mn0 O39 2.414874 1_545
Mn0 O8 2.417717 1_555
Mn1 O0 1.895763 1_555
Mn1 O47 1.918876 1_555
Mn1 O38 2.070428 1_555
Mn1 O9 2.118886 1_555
Mn1 O46 2.181793 1_555
Mn1 O1 2.400848 1_555
Mn2 O5 1.923327 1_555
Mn2 O1 1.953611 1_555
Mn2 O4 1.957054 1_555
Mn2 O39 1.961242 1_555
Mn2 O45 1.988995 1_555
Mn2 O38 2.011179 1_555
Mn3 O4 2.127333 1_555
Mn3 O41 2.138549 1_555
Mn3 O13 2.180362 1_455
Mn3 O7 2.268081 1_455
Mn3 O47 2.323298 1_455
Mn3 O6 2.529451 1_555
Mn3 O45 2.572951 1_555
Mn4 O11 1.923327 1_555
Mn4 O18 1.953611 1_555
Mn4 O12 1.957054 1_555
Mn4 O25 1.961242 1_555
Mn4 O31 1.988995 1_555
Mn4 O26 2.011179 1_555
Mn5 O24 1.893927 1_555
Mn5 O23 1.961207 1_565
Mn5 O14 1.971905 1_555
Mn5 O33 1.980457 1_565
Mn5 O25 2.414874 1_565
Mn5 O22 2.417717 1_555
Mn6 O19 1.895763 1_555
Mn6 O28 1.918876 1_555
Mn6 O26 2.070428 1_555
Mn6 O21 2.118886 1_555
Mn6 O29 2.181793 1_555
Mn6 O18 2.400848 1_555
Mn7 O12 2.127333 1_555
Mn7 O37 2.138549 1_555
Mn7 O20 2.180362 1_655
Mn7 O23 2.268081 1_655
Mn7 O28 2.323298 1_655
Mn7 O10 2.529451 1_555
Mn7 O31 2.572951 1_555
Mn8 O29 1.933831 1_655
Mn8 O35 1.945087 1_555
Mn8 O36 1.947413 1_555
Mn8 O16 1.958540 1_555
Mn8 O22 1.973836 1_655
Mn8 O21 1.995159 1_655
Mn9 O46 1.933831 1_455
Mn9 O43 1.945087 1_555
Mn9 O42 1.947413 1_555
Mn9 O2 1.958540 1_555
Mn9 O8 1.973836 1_455
Mn9 O9 1.995159 1_455
O0 Se0 1.742588 1_555
O1 Se5 1.812254 1_555
O2 Se1 1.700691 1_555
O3 Se1 1.744829 1_555
O4 Se0 1.807624 1_555
O5 Se1 1.748214 1_565
O6 Se0 1.654059 1_555
O7 Se5 1.764992 1_555
O8 Se4 1.808324 1_555
O9 Se4 1.864973 1_555
O10 Se3 1.654059 1_555
O11 Se2 1.748214 1_545
O12 Se3 1.807624 1_555
O13 Se5 1.667878 1_555
O14 Se2 1.744829 1_555
O15 Se7 1.643013 1_655
O16 Se2 1.700691 1_555
O17 Se4 1.643013 1_455
O18 Se6 1.812254 1_555
O19 Se3 1.742588 1_555
O20 Se6 1.667878 1_555
O21 Se7 1.864973 1_555
O22 Se7 1.808324 1_555
O23 Se6 1.764992 1_555
O24 Se9 1.739324 1_555
O25 Se8 1.811464 1_555
O26 Se8 1.866791 1_555
O27 Se9 1.634182 1_555
O28 Se12 1.816805 1_455
O29 Se9 1.893754 1_555
O30 Se11 1.638308 1_555
O31 Se13 1.753141 1_555
O32 Se8 1.638308 1_555
O33 Se13 1.738382 1_455
O34 Se10 1.634182 1_555
O35 Se12 1.717520 1_555
O36 Se13 1.721838 1_565
O37 Se12 1.683247 1_555
O38 Se11 1.866791 1_555
O39 Se11 1.811464 1_555
O40 Se10 1.739324 1_555
O41 Se15 1.683247 1_555
O42 Se14 1.721838 1_545
O43 Se15 1.717520 1_555
O44 Se14 1.738382 1_655
O45 Se14 1.753141 1_555
O46 Se10 1.893754 1_555
O47 Se15 1.816805 1_655
