# generated using pymatgen
data_Li4V3P8O29
_symmetry_space_group_name_H-M   'P 1'
_cell_length_a   9.74754800
_cell_length_b   9.77003954
_cell_length_c   14.13719374
_cell_angle_alpha   90.13756138
_cell_angle_beta   90.49781656
_cell_angle_gamma   119.69406046
_symmetry_Int_Tables_number   1
_chemical_formula_structural   Li4V3P8O29
_chemical_formula_sum   'Li8 V6 P16 O58'
_cell_volume   1169.46395633
_cell_formula_units_Z   2
loop_
 _symmetry_equiv_pos_site_id
 _symmetry_equiv_pos_as_xyz
  1  'x, y, z'
loop_
 _atom_site_type_symbol
 _atom_site_label
 _atom_site_symmetry_multiplicity
 _atom_site_fract_x
 _atom_site_fract_y
 _atom_site_fract_z
 _atom_site_occupancy
  Li  Li0  1  0.90700300  0.67926000  0.05522900  1
  Li  Li1  1  0.77832400  0.08225700  0.05510800  1
  Li  Li2  1  0.30923900  0.22676200  0.06274300  1
  Li  Li3  1  0.68103500  0.91296000  0.44116800  1
  Li  Li4  1  0.33125600  0.09917300  0.55856700  1
  Li  Li5  1  0.22792100  0.91120000  0.94049800  1
  Li  Li6  1  0.32294300  0.65539400  0.60895000  1
  Li  Li7  1  0.00407200  0.99818800  0.50847800  1
  V  V0  1  0.56936900  0.00152800  0.24798700  1
  V  V1  1  0.43056800  0.00034200  0.75114900  1
  V  V2  1  0.57432800  0.56763600  0.75287800  1
  V  V3  1  0.43433400  0.43908600  0.25381500  1
  V  V4  1  0.00030800  0.56202400  0.25865000  1
  V  V5  1  0.99545400  0.42589900  0.74575700  1
  P  P0  1  0.91839400  0.68449600  0.83966900  1
  P  P1  1  0.77700800  0.69422900  0.34084200  1
  P  P2  1  0.91946900  0.22218000  0.34541400  1
  P  P3  1  0.66715100  0.33567400  0.13238000  1
  P  P4  1  0.66223100  0.33360300  0.62769400  1
  P  P5  1  0.77203600  0.08805300  0.83780300  1
  P  P6  1  0.68148300  0.90399100  0.65827700  1
  P  P7  1  0.31817000  0.23438500  0.84643700  1
  P  P8  1  0.68319700  0.76752600  0.15498600  1
  P  P9  1  0.31705300  0.09072400  0.34178900  1
  P  P10  1  0.22654700  0.90663200  0.16207100  1
  P  P11  1  0.33811400  0.67010800  0.37138500  1
  P  P12  1  0.33019000  0.66403800  0.86806000  1
  P  P13  1  0.08595800  0.77880000  0.65527500  1
  P  P14  1  0.22229800  0.30813400  0.66203200  1
  P  P15  1  0.08472500  0.31481000  0.15976900  1
  O  O0  1  0.00355500  0.80312200  0.57419300  1
  O  O1  1  0.91392300  0.65663400  0.33511200  1
  O  O2  1  0.76322200  0.75357500  0.07004000  1
  O  O3  1  0.74916300  0.66175700  0.83566100  1
  O  O4  1  0.90844900  0.52522700  0.81860500  1
  O  O5  1  0.81693500  0.48215200  0.17841500  1
  O  O6  1  0.91757600  0.38176600  0.33126500  1
  O  O7  1  0.99320200  0.23170900  0.07366500  1
  O  O8  1  0.91668000  0.25701600  0.82868900  1
  O  O9  1  0.66333700  0.47993800  0.67775200  1
  O  O10  1  0.61809300  0.53609000  0.32911700  1
  O  O11  1  0.81258400  0.33571000  0.67322100  1
  O  O12  1  0.66814600  0.34325800  0.02721400  1
  O  O13  1  0.66694500  0.34479100  0.52322800  1
  O  O14  1  0.66905100  0.18448000  0.16875900  1
  O  O15  1  0.47760000  0.38140000  0.82153000  1
  O  O16  1  0.51778100  0.33565300  0.17479100  1
  O  O17  1  0.74542600  0.08460300  0.33516900  1
  O  O18  1  0.79080600  0.99567600  0.74908500  1
  O  O19  1  0.76731500  0.97841600  0.56936900  1
  O  O20  1  0.76505200  0.01170900  0.92905600  1
  O  O21  1  0.62012300  0.09722700  0.81618300  1
  O  O22  1  0.51216600  0.18513500  0.66414700  1
  O  O23  1  0.66205800  0.91477700  0.15659200  1
  O  O24  1  0.47239400  0.09064300  0.32834000  1
  O  O25  1  0.34508600  0.26109100  0.32727900  1
  O  O26  1  0.79396700  0.79332200  0.24724100  1
  O  O27  1  0.78810200  0.79224500  0.42448400  1
  O  O28  1  0.20710700  0.19873900  0.58357200  1
  O  O29  1  0.65614700  0.73453400  0.66863400  1
  O  O30  1  0.51775600  0.89045600  0.66960800  1
  O  O31  1  0.33420800  0.08370800  0.83911100  1
  O  O32  1  0.49095500  0.81550000  0.33652200  1
  O  O33  1  0.37919900  0.89780700  0.18042500  1
  O  O34  1  0.23904300  0.99553200  0.07286500  1
  O  O35  1  0.23353900  0.02484000  0.43222000  1
  O  O36  1  0.20446200  0.99531600  0.25196400  1
  O  O37  1  0.26145500  0.91838900  0.66158500  1
  O  O38  1  0.47391400  0.65866400  0.82105900  1
  O  O39  1  0.52265000  0.61845800  0.17729000  1
  O  O40  1  0.32987300  0.81725400  0.83297400  1
  O  O41  1  0.32615400  0.65505500  0.97264300  1
  O  O42  1  0.33304200  0.66140400  0.47671500  1
  O  O43  1  0.18866800  0.67140200  0.32794200  1
  O  O44  1  0.37510500  0.47027400  0.66734200  1
  O  O45  1  0.33158100  0.51898500  0.32570200  1
  O  O46  1  0.07992400  0.74009600  0.16252600  1
  O  O47  1  0.01238800  0.79857100  0.75449400  1
  O  O48  1  0.00207200  0.75751600  0.93130900  1
  O  O49  1  0.09459500  0.62464600  0.66288200  1
  O  O50  1  0.18120400  0.52363900  0.81659800  1
  O  O51  1  0.09086600  0.47439100  0.18088400  1
  O  O52  1  0.25561900  0.34165100  0.16142600  1
  O  O53  1  0.25366000  0.24602800  0.93873300  1
  O  O54  1  0.20098600  0.21778600  0.76110800  1
  O  O55  1  0.08158600  0.34234600  0.66111500  1
  O  O56  1  0.99712700  0.20834000  0.43193500  1
  O  O57  1  0.00403200  0.20779300  0.25171300  1
loop_
_geom_bond_atom_site_label_1
_geom_bond_atom_site_label_2
_geom_bond_distance
_geom_bond_site_symmetry_2
Li0 O2 1.883552 1_555
Li0 O48 1.960890 1_654
Li0 O46 2.110444 1_655
Li0 O5 2.424825 1_555
Li1 O7 1.883227 1_555
Li1 O20 1.889223 1_554
Li1 O23 2.054865 1_545
Li1 O14 2.406127 1_555
Li2 O53 1.867777 1_554
Li2 O34 2.015962 1_545
Li2 O52 2.016386 1_555
Li2 O16 2.359356 1_555
Li3 O27 1.938603 1_555
Li3 O19 1.958616 1_555
Li3 O17 2.106499 1_565
Li3 O32 2.173920 1_555
Li4 O28 1.925554 1_555
Li4 O35 1.975863 1_555
Li4 O22 2.126933 1_555
Li4 O37 2.131347 1_545
Li5 O48 1.958842 1_555
Li5 O34 2.023101 1_556
Li5 O31 2.067810 1_565
Li5 O40 2.250329 1_555
Li6 O42 1.872408 1_555
Li6 O49 2.234732 1_555
Li6 O44 2.263199 1_555
Li6 O30 2.292851 1_555
Li7 O0 2.119968 1_555
Li7 O28 2.234874 1_565
Li7 O56 2.353346 1_465
Li7 O27 2.374610 1_455
Li7 O19 2.387033 1_455
Li7 O35 2.387315 1_565
O0 P13 1.479861 1_555
O1 P1 1.552414 1_555
O1 V4 1.874583 1_655
O2 P8 1.479878 1_555
O3 P0 1.552076 1_555
O3 V2 1.878069 1_555
O4 P0 1.538583 1_555
O4 V5 1.883453 1_555
O5 P3 1.584990 1_555
O5 V4 1.915495 1_655
O6 P2 1.581541 1_555
O6 V4 1.849796 1_655
O7 P15 1.481752 1_655
O8 P5 1.558145 1_555
O8 V5 1.859133 1_555
O9 P4 1.588932 1_555
O9 V2 1.833857 1_555
O10 P1 1.561173 1_555
O10 V3 1.876178 1_555
O11 P4 1.586265 1_555
O11 V5 1.847479 1_555
O12 P3 1.488652 1_555
O13 P4 1.480588 1_555
O14 P3 1.573997 1_555
O14 V0 1.923916 1_555
O15 P7 1.550033 1_555
O15 V2 1.861815 1_555
O16 P3 1.579326 1_555
O16 V3 1.937949 1_555
O17 P2 1.562486 1_555
O17 V0 1.923899 1_555
O18 P5 1.607251 1_565
O18 P6 1.615867 1_555
O19 P6 1.492807 1_555
O20 P5 1.476846 1_555
O21 P5 1.554966 1_555
O21 V1 1.840869 1_555
O22 P4 1.556878 1_555
O22 V1 2.002497 1_555
O23 P8 1.551225 1_555
O23 V0 1.994440 1_565
O24 P9 1.528111 1_555
O24 V0 1.941980 1_555
O25 P9 1.561819 1_555
O25 V3 1.839881 1_555
O26 P1 1.602194 1_555
O26 P8 1.623177 1_555
O27 P1 1.488856 1_555
O28 P14 1.493063 1_555
O29 P6 1.555684 1_555
O29 V2 1.857620 1_555
O30 P6 1.544544 1_555
O30 V1 2.029476 1_565
O31 P7 1.558801 1_555
O31 V1 1.966058 1_555
O32 P11 1.549104 1_555
O32 V0 2.026165 1_565
O33 P10 1.552211 1_555
O33 V0 1.865177 1_565
O34 P10 1.504251 1_555
O35 P9 1.488061 1_555
O36 P10 1.611321 1_555
O36 P9 1.625578 1_565
O37 P13 1.574688 1_555
O37 V1 1.900756 1_565
O38 P12 1.579819 1_555
O38 V2 1.884873 1_555
O39 P8 1.556366 1_555
O39 V3 1.874370 1_555
O40 P12 1.579542 1_555
O40 V1 1.947163 1_565
O41 P12 1.481032 1_555
O42 P11 1.491553 1_555
O43 P11 1.581822 1_555
O43 V4 1.868819 1_555
O44 P14 1.547080 1_555
O44 V2 2.064405 1_555
O45 P11 1.581990 1_555
O45 V3 1.853069 1_555
O46 P10 1.544784 1_555
O46 V4 2.041510 1_555
O47 P0 1.595454 1_455
O47 P13 1.634781 1_555
O48 P0 1.501114 1_455
O49 P13 1.553449 1_555
O49 V5 2.061198 1_455
O50 P12 1.588439 1_555
O50 V5 1.855825 1_455
O51 P15 1.558369 1_555
O51 V4 1.866013 1_555
O52 P15 1.552644 1_555
O52 V3 1.989564 1_555
O53 P7 1.481647 1_555
O54 P7 1.605562 1_555
O54 P14 1.616626 1_555
O55 P14 1.564320 1_555
O55 V5 1.869462 1_455
O56 P2 1.474293 1_555
O57 P2 1.608358 1_455
O57 P15 1.615842 1_555
