# generated using pymatgen
data_Sr5Nb5O16
_symmetry_space_group_name_H-M   'P 1'
_cell_length_a   4.02943138
_cell_length_b   5.71357164
_cell_length_c   32.94806817
_cell_angle_alpha   90.00000000
_cell_angle_beta   90.00000000
_cell_angle_gamma   90.00000000
_symmetry_Int_Tables_number   1
_chemical_formula_structural   Sr5Nb5O16
_chemical_formula_sum   'Sr10 Nb10 O32'
_cell_volume   758.54508262
_cell_formula_units_Z   2
loop_
 _symmetry_equiv_pos_site_id
 _symmetry_equiv_pos_as_xyz
  1  'x, y, z'
loop_
 _atom_site_type_symbol
 _atom_site_label
 _atom_site_symmetry_multiplicity
 _atom_site_fract_x
 _atom_site_fract_y
 _atom_site_fract_z
 _atom_site_occupancy
  Sr  Sr0  1  0.00000000  0.04733639  0.52961573  1
  Sr  Sr1  1  0.00000000  0.06774212  0.75080790  1
  Sr  Sr2  1  0.00000000  0.57497748  0.66325245  1
  Sr  Sr3  1  0.00000000  0.56034847  0.84073863  1
  Sr  Sr4  1  0.00000000  0.13003770  0.96670895  1
  Sr  Sr5  1  0.50000000  0.63003770  0.03329105  1
  Sr  Sr6  1  0.50000000  0.06034847  0.15926137  1
  Sr  Sr7  1  0.50000000  0.56774212  0.24919210  1
  Sr  Sr8  1  0.50000000  0.07497748  0.33674755  1
  Sr  Sr9  1  0.50000000  0.54733639  0.47038427  1
  Nb  Nb0  1  0.00000000  0.09922650  0.07282873  1
  Nb  Nb1  1  -0.00000000  0.57070302  0.15964707  1
  Nb  Nb2  1  -0.00000000  0.06900256  0.24901092  1
  Nb  Nb3  1  -0.00000000  0.05871091  0.42463985  1
  Nb  Nb4  1  -0.00000000  0.56730108  0.33884565  1
  Nb  Nb5  1  0.50000000  0.55871091  0.57536015  1
  Nb  Nb6  1  0.50000000  0.06730108  0.66115435  1
  Nb  Nb7  1  0.50000000  0.56900256  0.75098908  1
  Nb  Nb8  1  0.50000000  0.07070302  0.84035293  1
  Nb  Nb9  1  0.50000000  0.59922650  0.92717127  1
  O  O0  1  0.00000000  0.36324375  0.04037204  1
  O  O1  1  -0.00000000  0.27267071  0.12940879  1
  O  O2  1  -0.00000000  0.88059546  0.02974014  1
  O  O3  1  0.00000000  0.79566438  0.11786178  1
  O  O4  1  0.00000000  0.35304302  0.21294408  1
  O  O5  1  0.00000000  0.29518529  0.29681708  1
  O  O6  1  0.00000000  0.84390409  0.20173268  1
  O  O7  1  0.00000000  0.32198933  0.37983267  1
  O  O8  1  -0.00000000  0.78942313  0.28740494  1
  O  O9  1  -0.00000000  0.28741400  0.46567154  1
  O  O10  1  0.00000000  0.85830006  0.37170120  1
  O  O11  1  0.00000000  0.80641193  0.46092040  1
  O  O12  1  0.00000000  0.06986109  0.66543527  1
  O  O13  1  0.00000000  0.05955822  0.83385666  1
  O  O14  1  0.00000000  0.56839815  0.75056927  1
  O  O15  1  -0.00000000  0.56958018  0.91928401  1
  O  O16  1  0.50000000  0.06958018  0.08071599  1
  O  O17  1  0.50000000  0.55955822  0.16614334  1
  O  O18  1  0.50000000  0.06839815  0.24943073  1
  O  O19  1  0.50000000  0.56986109  0.33456473  1
  O  O20  1  0.50000000  0.30641193  0.53907960  1
  O  O21  1  0.50000000  0.78741400  0.53432846  1
  O  O22  1  0.50000000  0.28942313  0.71259506  1
  O  O23  1  0.50000000  0.82198933  0.62016733  1
  O  O24  1  0.50000000  0.35830006  0.62829880  1
  O  O25  1  0.50000000  0.79518529  0.70318292  1
  O  O26  1  0.50000000  0.85304302  0.78705592  1
  O  O27  1  0.50000000  0.34390409  0.79826732  1
  O  O28  1  0.50000000  0.29566438  0.88213822  1
  O  O29  1  0.50000000  0.77267071  0.87059121  1
  O  O30  1  0.50000000  0.38059546  0.97025986  1
  O  O31  1  0.50000000  0.86324375  0.95962796  1
loop_
_geom_bond_atom_site_label_1
_geom_bond_atom_site_label_2
_geom_bond_distance
_geom_bond_site_symmetry_2
Nb0 O0 1.849081 1_555
Nb0 O2 1.891010 1_545
Nb0 O16 2.038456 1_455
Nb0 O16 2.038456 1_555
Nb0 O1 2.111234 1_555
Nb0 O3 2.282487 1_545
Nb1 O3 1.883482 1_555
Nb1 O1 1.972873 1_555
Nb1 O17 2.027054 1_555
Nb1 O17 2.027054 1_455
Nb1 O6 2.087905 1_555
Nb1 O4 2.151798 1_555
Nb2 O4 2.011440 1_555
Nb2 O18 2.014766 1_555
Nb2 O18 2.014766 1_455
Nb2 O6 2.020051 1_545
Nb2 O5 2.037418 1_555
Nb2 O8 2.037627 1_545
Nb3 O11 1.872678 1_545
Nb3 O9 1.880204 1_555
Nb3 O10 2.086502 1_545
Nb3 O7 2.107674 1_555
Nb4 O7 1.946329 1_555
Nb4 O10 1.983998 1_555
Nb4 O19 2.019700 1_555
Nb4 O19 2.019700 1_455
Nb4 O5 2.082023 1_555
Nb4 O8 2.117364 1_555
Nb5 O20 1.872678 1_555
Nb5 O21 1.880204 1_555
Nb5 O24 2.086502 1_555
Nb5 O23 2.107674 1_555
Nb6 O23 1.946329 1_545
Nb6 O24 1.983998 1_555
Nb6 O12 2.019700 1_655
Nb6 O12 2.019700 1_555
Nb6 O25 2.082023 1_545
Nb6 O22 2.117364 1_555
Nb7 O26 2.011440 1_555
Nb7 O14 2.014766 1_655
Nb7 O14 2.014766 1_555
Nb7 O27 2.020051 1_555
Nb7 O25 2.037418 1_555
Nb7 O22 2.037627 1_555
Nb8 O28 1.883482 1_555
Nb8 O29 1.972873 1_545
Nb8 O13 2.027054 1_555
Nb8 O13 2.027054 1_655
Nb8 O27 2.087905 1_555
Nb8 O26 2.151798 1_545
Nb9 O31 1.849081 1_555
Nb9 O30 1.891010 1_555
Nb9 O15 2.038456 1_555
Nb9 O15 2.038456 1_655
Nb9 O29 2.111234 1_555
Nb9 O28 2.282487 1_555
O0 Sr5 2.537152 1_455
O0 Sr5 2.537152 1_555
O0 Sr4 2.768754 1_554
O1 Sr6 2.549152 1_455
O1 Sr6 2.549152 1_555
O2 Sr5 2.474306 1_555
O2 Sr5 2.474306 1_455
O2 Sr4 2.518755 1_564
O3 Sr6 2.864734 1_465
O3 Sr6 2.864734 1_565
O4 Sr7 2.643904 1_455
O4 Sr7 2.643904 1_555
O4 Sr6 3.159781 1_455
O4 Sr6 3.159781 1_555
O5 Sr8 2.715321 1_555
O5 Sr8 2.715321 1_455
O5 Sr7 2.991056 1_455
O5 Sr7 2.991056 1_555
O6 Sr6 2.747109 1_565
O6 Sr6 2.747109 1_465
O6 Sr7 2.998984 1_455
O6 Sr7 2.998984 1_555
O7 Sr8 2.840086 1_555
O7 Sr8 2.840086 1_455
O8 Sr7 2.692306 1_455
O8 Sr7 2.692306 1_555
O8 Sr8 3.060070 1_565
O8 Sr8 3.060070 1_465
O9 Sr9 2.507722 1_555
O9 Sr9 2.507722 1_455
O9 Sr0 2.514026 1_555
O10 Sr8 2.630216 1_465
O10 Sr8 2.630216 1_565
O11 Sr9 2.519412 1_555
O11 Sr9 2.519412 1_455
O11 Sr0 2.649102 1_565
O12 Sr1 2.812889 1_555
O12 Sr2 2.828467 1_545
O12 Sr2 2.886915 1_555
O13 Sr1 2.736696 1_555
O13 Sr3 2.861269 1_545
O13 Sr3 2.870271 1_555
O14 Sr1 2.853048 1_565
O14 Sr1 2.860545 1_555
O14 Sr2 2.877166 1_555
O14 Sr3 2.971262 1_555
O15 Sr3 2.588456 1_555
O15 Sr4 2.957788 1_555
O16 Sr6 2.588456 1_555
O16 Sr5 2.957788 1_545
O17 Sr7 2.736696 1_555
O17 Sr6 2.861269 1_555
O17 Sr6 2.870271 1_565
O18 Sr7 2.853048 1_555
O18 Sr7 2.860545 1_545
O18 Sr8 2.877166 1_555
O18 Sr6 2.971262 1_555
O19 Sr7 2.812889 1_555
O19 Sr8 2.828467 1_555
O19 Sr8 2.886915 1_565
O20 Sr0 2.519412 1_655
O20 Sr0 2.519412 1_555
O20 Sr9 2.649102 1_555
O21 Sr0 2.507722 1_565
O21 Sr0 2.507722 1_665
O21 Sr9 2.514026 1_555
O22 Sr1 2.692306 1_655
O22 Sr1 2.692306 1_555
O22 Sr2 3.060070 1_555
O22 Sr2 3.060070 1_655
O23 Sr2 2.840086 1_555
O23 Sr2 2.840086 1_655
O24 Sr2 2.630216 1_555
O24 Sr2 2.630216 1_655
O25 Sr2 2.715321 1_555
O25 Sr2 2.715321 1_655
O25 Sr1 2.991056 1_565
O25 Sr1 2.991056 1_665
O26 Sr1 2.643904 1_665
O26 Sr1 2.643904 1_565
O26 Sr3 3.159781 1_555
O26 Sr3 3.159781 1_655
O27 Sr3 2.747109 1_555
O27 Sr3 2.747109 1_655
O27 Sr1 2.998984 1_655
O27 Sr1 2.998984 1_555
O28 Sr3 2.864734 1_555
O28 Sr3 2.864734 1_655
O29 Sr3 2.549152 1_555
O29 Sr3 2.549152 1_655
O30 Sr4 2.474306 1_555
O30 Sr4 2.474306 1_655
O30 Sr5 2.518755 1_556
O31 Sr4 2.537152 1_665
O31 Sr4 2.537152 1_565
O31 Sr5 2.768754 1_556
