# generated using pymatgen
data_NbAs2
_symmetry_space_group_name_H-M   'P 1'
_cell_length_a   3.42486658
_cell_length_b   4.99814641
_cell_length_c   7.09975190
_cell_angle_alpha   78.90553486
_cell_angle_beta   76.04284473
_cell_angle_gamma   69.96379473
_symmetry_Int_Tables_number   1
_chemical_formula_structural   NbAs2
_chemical_formula_sum   'Nb2 As4'
_cell_volume   110.00053430
_cell_formula_units_Z   2
loop_
 _symmetry_equiv_pos_site_id
 _symmetry_equiv_pos_as_xyz
  1  'x, y, z'
loop_
 _atom_site_type_symbol
 _atom_site_label
 _atom_site_symmetry_multiplicity
 _atom_site_fract_x
 _atom_site_fract_y
 _atom_site_fract_z
 _atom_site_occupancy
  Nb  Nb0  1  0.15727781  0.88213074  0.80331464  1
  Nb  Nb1  1  0.84272219  0.11786926  0.19668536  1
  As  As0  1  0.85938203  0.75257323  0.52866371  1
  As  As1  1  0.14061797  0.24742677  0.47133629  1
  As  As2  1  0.59492058  0.70483393  0.10532691  1
  As  As3  1  0.40507942  0.29516607  0.89467309  1
loop_
_geom_bond_atom_site_label_1
_geom_bond_atom_site_label_2
_geom_bond_distance
_geom_bond_site_symmetry_2
As0 As1 2.451119 1_655
As0 Nb0 2.675986 1_555
As0 Nb0 2.675986 1_655
As0 Nb1 2.688757 1_565
As0 As1 2.875197 1_665
As0 As1 2.875201 1_565
As1 Nb1 2.675986 1_555
As1 Nb1 2.675986 1_455
As1 Nb0 2.688757 1_545
As2 Nb1 2.717388 1_565
As2 Nb1 2.717394 1_465
As2 Nb0 2.745627 1_654
As2 Nb0 2.745629 1_554
As2 Nb1 2.752254 1_555
As3 Nb0 2.717388 1_545
As3 Nb0 2.717394 1_645
As3 Nb1 2.745627 1_456
As3 Nb1 2.745629 1_556
As3 Nb0 2.752254 1_555
