# generated using pymatgen
data_KBaFe2(PO4)3
_symmetry_space_group_name_H-M   'P 1'
_cell_length_a   10.02330100
_cell_length_b   10.02330100
_cell_length_c   10.02330100
_cell_angle_alpha   90.00000000
_cell_angle_beta   90.00000000
_cell_angle_gamma   90.00000000
_symmetry_Int_Tables_number   1
_chemical_formula_structural   KBaFe2(PO4)3
_chemical_formula_sum   'K4 Ba4 Fe8 P12 O48'
_cell_volume   1007.00660075
_cell_formula_units_Z   4
loop_
 _symmetry_equiv_pos_site_id
 _symmetry_equiv_pos_as_xyz
  1  'x, y, z'
loop_
 _atom_site_type_symbol
 _atom_site_label
 _atom_site_symmetry_multiplicity
 _atom_site_fract_x
 _atom_site_fract_y
 _atom_site_fract_z
 _atom_site_occupancy
  K  K0  1  0.20247900  0.70247900  0.79752100  1
  K  K1  1  0.29752100  0.29752100  0.29752100  1
  K  K2  1  0.70247900  0.79752100  0.20247900  1
  K  K3  1  0.79752100  0.20247900  0.70247900  1
  Ba  Ba0  1  0.06752000  0.06752000  0.06752000  1
  Ba  Ba1  1  0.43248000  0.93248000  0.56752000  1
  Ba  Ba2  1  0.56752000  0.43248000  0.93248000  1
  Ba  Ba3  1  0.93248000  0.56752000  0.43248000  1
  Fe  Fe0  1  0.08576800  0.91423200  0.41423200  1
  Fe  Fe1  1  0.14866700  0.35133300  0.64866700  1
  Fe  Fe2  1  0.35133300  0.64866700  0.14866700  1
  Fe  Fe3  1  0.41423200  0.08576800  0.91423200  1
  Fe  Fe4  1  0.58576800  0.58576800  0.58576800  1
  Fe  Fe5  1  0.64866700  0.14866700  0.35133300  1
  Fe  Fe6  1  0.85133300  0.85133300  0.85133300  1
  Fe  Fe7  1  0.91423200  0.41423200  0.08576800  1
  P  P0  1  0.03863700  0.72718900  0.12686500  1
  P  P1  1  0.12686500  0.03863700  0.72718900  1
  P  P2  1  0.22718900  0.37313500  0.96136300  1
  P  P3  1  0.27281100  0.62686500  0.46136300  1
  P  P4  1  0.37313500  0.96136300  0.22718900  1
  P  P5  1  0.46136300  0.27281100  0.62686500  1
  P  P6  1  0.53863700  0.77281100  0.87313500  1
  P  P7  1  0.62686500  0.46136300  0.27281100  1
  P  P8  1  0.72718900  0.12686500  0.03863700  1
  P  P9  1  0.77281100  0.87313500  0.53863700  1
  P  P10  1  0.87313500  0.53863700  0.77281100  1
  P  P11  1  0.96136300  0.22718900  0.37313500  1
  O  O0  1  0.99956500  0.08019000  0.34690000  1
  O  O1  1  0.01542900  0.80136300  0.26144000  1
  O  O2  1  0.02446300  0.94759600  0.79857200  1
  O  O3  1  0.05240400  0.29857200  0.47553700  1
  O  O4  1  0.07906600  0.18506500  0.73970600  1
  O  O5  1  0.08019000  0.34690000  0.99956500  1
  O  O6  1  0.15310000  0.00043500  0.58019000  1
  O  O7  1  0.18506500  0.73970600  0.07906600  1
  O  O8  1  0.19863700  0.76144000  0.48457100  1
  O  O9  1  0.20142800  0.52446300  0.55240400  1
  O  O10  1  0.23856000  0.98457100  0.30136300  1
  O  O11  1  0.23970600  0.42093400  0.81493500  1
  O  O12  1  0.26029400  0.57906600  0.31493500  1
  O  O13  1  0.26144000  0.01542900  0.80136300  1
  O  O14  1  0.29857200  0.47553700  0.05240400  1
  O  O15  1  0.30136300  0.23856000  0.98457100  1
  O  O16  1  0.31493500  0.26029400  0.57906600  1
  O  O17  1  0.34690000  0.99956500  0.08019000  1
  O  O18  1  0.41981000  0.65310000  0.49956500  1
  O  O19  1  0.42093400  0.81493500  0.23970600  1
  O  O20  1  0.44759600  0.70142800  0.97553700  1
  O  O21  1  0.47553700  0.05240400  0.29857200  1
  O  O22  1  0.48457100  0.19863700  0.76144000  1
  O  O23  1  0.50043500  0.91981000  0.84690000  1
  O  O24  1  0.49956500  0.41981000  0.65310000  1
  O  O25  1  0.51542900  0.69863700  0.73856000  1
  O  O26  1  0.52446300  0.55240400  0.20142800  1
  O  O27  1  0.55240400  0.20142800  0.52446300  1
  O  O28  1  0.57906600  0.31493500  0.26029400  1
  O  O29  1  0.58019000  0.15310000  0.00043500  1
  O  O30  1  0.65310000  0.49956500  0.41981000  1
  O  O31  1  0.68506500  0.76029400  0.92093400  1
  O  O32  1  0.69863700  0.73856000  0.51542900  1
  O  O33  1  0.70142800  0.97553700  0.44759600  1
  O  O34  1  0.73856000  0.51542900  0.69863700  1
  O  O35  1  0.73970600  0.07906600  0.18506500  1
  O  O36  1  0.76029400  0.92093400  0.68506500  1
  O  O37  1  0.76144000  0.48457100  0.19863700  1
  O  O38  1  0.79857200  0.02446300  0.94759600  1
  O  O39  1  0.80136300  0.26144000  0.01542900  1
  O  O40  1  0.81493500  0.23970600  0.42093400  1
  O  O41  1  0.84690000  0.50043500  0.91981000  1
  O  O42  1  0.91981000  0.84690000  0.50043500  1
  O  O43  1  0.92093400  0.68506500  0.76029400  1
  O  O44  1  0.94759600  0.79857200  0.02446300  1
  O  O45  1  0.97553700  0.44759600  0.70142800  1
  O  O46  1  0.98457100  0.30136300  0.23856000  1
  O  O47  1  0.00043500  0.58019000  0.15310000  1
loop_
_geom_bond_atom_site_label_1
_geom_bond_atom_site_label_2
_geom_bond_distance
_geom_bond_site_symmetry_2
K0 O43 2.851919 1_455
K0 O11 2.851919 1_555
K0 O7 2.851919 1_556
K0 O9 3.036467 1_555
K0 O2 3.036467 1_555
K0 O20 3.036467 1_555
K0 O13 3.192211 1_565
K0 O25 3.192211 1_555
K0 O8 3.192211 1_555
K1 O12 2.851919 1_555
K1 O28 2.851919 1_555
K1 O16 2.851919 1_555
K1 O14 3.036467 1_555
K1 O21 3.036467 1_555
K1 O3 3.036467 1_555
K1 O15 3.192211 1_554
K1 O46 3.192211 1_455
K1 O10 3.192211 1_545
K2 O31 2.851919 1_554
K2 O19 2.851919 1_555
K2 O35 2.851919 1_565
K2 O33 3.036467 1_555
K2 O44 3.036467 1_555
K2 O26 3.036467 1_555
K2 O1 3.192211 1_655
K2 O37 3.192211 1_555
K2 O32 3.192211 1_555
K3 O36 2.851919 1_545
K3 O40 2.851919 1_555
K3 O4 2.851919 1_655
K3 O27 3.036467 1_555
K3 O38 3.036467 1_555
K3 O45 3.036467 1_555
K3 O39 3.192211 1_556
K3 O34 3.192211 1_555
K3 O22 3.192211 1_555
Ba0 O5 2.884754 1_554
Ba0 O0 2.884754 1_455
Ba0 O17 2.884754 1_545
Ba0 O38 2.982984 1_454
Ba0 O44 2.982984 1_445
Ba0 O2 2.982984 1_544
Ba0 O46 3.020621 1_455
Ba0 O15 3.020621 1_554
Ba0 O10 3.020621 1_545
Ba1 O6 2.884754 1_565
Ba1 O23 2.884754 1_555
Ba1 O18 2.884754 1_555
Ba1 O27 2.982984 1_565
Ba1 O21 2.982984 1_565
Ba1 O33 2.982984 1_555
Ba1 O8 3.020621 1_555
Ba1 O13 3.020621 1_565
Ba1 O25 3.020621 1_555
Ba2 O29 2.884754 1_556
Ba2 O41 2.884754 1_555
Ba2 O24 2.884754 1_555
Ba2 O26 2.982984 1_556
Ba2 O14 2.982984 1_556
Ba2 O20 2.982984 1_555
Ba2 O22 3.020621 1_555
Ba2 O39 3.020621 1_556
Ba2 O34 3.020621 1_555
Ba3 O30 2.884754 1_555
Ba3 O42 2.884754 1_555
Ba3 O47 2.884754 1_655
Ba3 O3 2.982984 1_655
Ba3 O9 2.982984 1_655
Ba3 O45 2.982984 1_555
Ba3 O1 3.020621 1_655
Ba3 O37 3.020621 1_555
Ba3 O32 3.020621 1_555
Fe0 O0 1.992258 1_465
Fe0 O6 1.992258 1_565
Fe0 O42 1.992258 1_455
Fe0 O10 2.030365 1_555
Fe0 O1 2.030365 1_555
Fe0 O8 2.030365 1_555
Fe1 O4 2.024048 1_555
Fe1 O11 2.024048 1_555
Fe1 O16 2.024048 1_555
Fe1 O9 2.054759 1_555
Fe1 O3 2.054759 1_555
Fe1 O45 2.054759 1_455
Fe2 O19 2.024048 1_555
Fe2 O7 2.024048 1_555
Fe2 O12 2.024048 1_555
Fe2 O20 2.054759 1_554
Fe2 O14 2.054759 1_555
Fe2 O26 2.054759 1_555
Fe3 O17 1.992258 1_546
Fe3 O29 1.992258 1_556
Fe3 O23 1.992258 1_545
Fe3 O15 2.030365 1_555
Fe3 O13 2.030365 1_555
Fe3 O22 2.030365 1_555
Fe4 O24 1.992258 1_555
Fe4 O18 1.992258 1_555
Fe4 O30 1.992258 1_555
Fe4 O25 2.030365 1_555
Fe4 O34 2.030365 1_555
Fe4 O32 2.030365 1_555
Fe5 O40 2.024048 1_555
Fe5 O35 2.024048 1_555
Fe5 O28 2.024048 1_555
Fe5 O33 2.054759 1_545
Fe5 O27 2.054759 1_555
Fe5 O21 2.054759 1_555
Fe6 O36 2.024048 1_555
Fe6 O31 2.024048 1_555
Fe6 O43 2.024048 1_555
Fe6 O44 2.054759 1_556
Fe6 O38 2.054759 1_565
Fe6 O2 2.054759 1_655
Fe7 O5 1.992258 1_654
Fe7 O47 1.992258 1_655
Fe7 O41 1.992258 1_554
Fe7 O46 2.030365 1_555
Fe7 O37 2.030365 1_555
Fe7 O39 2.030365 1_555
O0 P11 1.544902 1_555
O1 P0 1.557675 1_555
O2 P1 1.548597 1_565
O3 P11 1.548597 1_455
O4 P1 1.549000 1_555
O5 P2 1.544902 1_555
O6 P1 1.544902 1_555
O7 P0 1.549000 1_555
O8 P3 1.557675 1_555
O9 P3 1.548597 1_555
O10 P4 1.557675 1_555
O11 P2 1.549000 1_555
O12 P3 1.549000 1_555
O13 P1 1.557675 1_555
O14 P2 1.548597 1_554
O15 P2 1.557675 1_555
O16 P5 1.549000 1_555
O17 P4 1.544902 1_555
O18 P3 1.544902 1_555
O19 P4 1.549000 1_555
O20 P6 1.548597 1_555
O21 P4 1.548597 1_545
O22 P5 1.557675 1_555
O23 P6 1.544902 1_555
O24 P5 1.544902 1_555
O25 P6 1.557675 1_555
O26 P7 1.548597 1_555
O27 P5 1.548597 1_555
O28 P7 1.549000 1_555
O29 P8 1.544902 1_555
O30 P7 1.544902 1_555
O31 P6 1.549000 1_555
O32 P9 1.557675 1_555
O33 P9 1.548597 1_555
O34 P10 1.557675 1_555
O35 P8 1.549000 1_555
O36 P9 1.549000 1_555
O37 P7 1.557675 1_555
O38 P8 1.548597 1_556
O39 P8 1.557675 1_555
O40 P11 1.549000 1_555
O41 P10 1.544902 1_555
O42 P9 1.544902 1_555
O43 P10 1.549000 1_555
O44 P0 1.548597 1_655
O45 P10 1.548597 1_555
O46 P11 1.557675 1_555
O47 P0 1.544902 1_555
