# generated using pymatgen
data_Li4Mn3Co5O16
_symmetry_space_group_name_H-M   'P 1'
_cell_length_a   5.69420937
_cell_length_b   5.69420937
_cell_length_c   9.23104555
_cell_angle_alpha   89.84100357
_cell_angle_beta   89.84100357
_cell_angle_gamma   60.34031004
_symmetry_Int_Tables_number   1
_chemical_formula_structural   Li4Mn3Co5O16
_chemical_formula_sum   'Li4 Mn3 Co5 O16'
_cell_volume   260.09094870
_cell_formula_units_Z   1
loop_
 _symmetry_equiv_pos_site_id
 _symmetry_equiv_pos_as_xyz
  1  'x, y, z'
loop_
 _atom_site_type_symbol
 _atom_site_label
 _atom_site_symmetry_multiplicity
 _atom_site_fract_x
 _atom_site_fract_y
 _atom_site_fract_z
 _atom_site_occupancy
  Li  Li0  1  0.66966700  0.66966700  0.89774200  1
  Li  Li1  1  0.00617800  0.00617800  0.99922000  1
  Li  Li2  1  0.00872700  0.00872700  0.49520300  1
  Li  Li3  1  0.33232000  0.33232000  0.39462700  1
  Mn  Mn0  1  0.83028800  0.83028800  0.21328700  1
  Mn  Mn1  1  0.66306900  0.17343600  0.71356400  1
  Mn  Mn2  1  0.17343600  0.66306900  0.71356400  1
  Co  Co0  1  0.83122000  0.33874900  0.20957500  1
  Co  Co1  1  0.66541200  0.66541200  0.48104600  1
  Co  Co2  1  0.33874900  0.83122000  0.20957500  1
  Co  Co3  1  0.17355800  0.17355800  0.71417500  1
  Co  Co4  1  0.33451500  0.33451500  0.98370200  1
  O  O0  1  0.83428100  0.33396400  0.59998000  1
  O  O1  1  0.52096300  0.52096300  0.33638500  1
  O  O2  1  0.66637300  0.66637300  0.10654900  1
  O  O3  1  0.00089200  0.00089200  0.30744000  1
  O  O4  1  0.00350500  0.00350500  0.81076300  1
  O  O5  1  0.33396400  0.83428100  0.59998000  1
  O  O6  1  0.95632100  0.51859300  0.33964700  1
  O  O7  1  0.51859300  0.95632100  0.33964700  1
  O  O8  1  0.16738600  0.16738600  0.10562500  1
  O  O9  1  0.83804400  0.83804400  0.59921800  1
  O  O10  1  0.47913100  0.04500700  0.84270300  1
  O  O11  1  0.04500700  0.47913100  0.84270300  1
  O  O12  1  0.33752000  0.33752000  0.60608000  1
  O  O13  1  0.66908400  0.17167300  0.10127600  1
  O  O14  1  0.48241300  0.48241300  0.84251400  1
  O  O15  1  0.17167300  0.66908400  0.10127600  1
loop_
_geom_bond_atom_site_label_1
_geom_bond_atom_site_label_2
_geom_bond_distance
_geom_bond_site_symmetry_2
Li0 O14 1.914414 1_555
Li0 O11 1.924903 1_655
Li0 O10 1.924903 1_565
Li0 O2 1.927676 1_556
Li1 O4 1.739939 1_555
Li1 O8 1.869226 1_556
Li1 O13 1.914332 1_456
Li1 O15 1.914332 1_546
Li2 O3 1.735212 1_555
Li2 O0 1.880404 1_455
Li2 O5 1.880404 1_545
Li2 O9 1.932776 1_445
Li3 O6 1.929271 1_455
Li3 O7 1.929271 1_545
Li3 O1 1.931914 1_555
Li3 O12 1.952768 1_555
Mn0 O2 1.893560 1_555
Mn0 O3 1.893729 1_665
Mn0 O7 1.938624 1_555
Mn0 O6 1.938624 1_555
Mn0 O15 1.979556 1_655
Mn0 O13 1.979556 1_565
Mn1 O12 1.893326 1_555
Mn1 O4 1.909869 1_655
Mn1 O0 1.938126 1_555
Mn1 O14 1.945292 1_555
Mn1 O10 1.949147 1_555
Mn1 O9 1.968834 1_545
Mn2 O12 1.893326 1_555
Mn2 O4 1.909869 1_565
Mn2 O5 1.938126 1_555
Mn2 O14 1.945292 1_555
Mn2 O11 1.949147 1_555
Mn2 O9 1.968834 1_455
Co0 O2 1.878269 1_555
Co0 O3 1.899035 1_655
Co0 O13 1.906980 1_555
Co0 O8 1.919242 1_655
Co0 O6 1.931682 1_555
Co0 O1 1.936248 1_555
Co1 O6 1.941669 1_555
Co1 O7 1.941669 1_555
Co1 O1 1.953988 1_555
Co1 O5 1.972373 1_555
Co1 O0 1.972373 1_555
Co1 O9 2.022569 1_555
Co2 O2 1.878269 1_555
Co2 O3 1.899035 1_565
Co2 O15 1.906980 1_555
Co2 O8 1.919242 1_565
Co2 O7 1.931682 1_555
Co2 O1 1.936248 1_555
Co3 O4 1.894369 1_555
Co3 O12 1.895088 1_555
Co3 O10 1.927993 1_555
Co3 O11 1.927993 1_555
Co3 O5 1.984272 1_545
Co3 O0 1.984272 1_455
Co4 O11 1.937070 1_555
Co4 O10 1.937070 1_555
Co4 O14 1.951113 1_555
Co4 O15 1.981098 1_556
Co4 O13 1.981098 1_556
Co4 O8 1.990600 1_556
