# generated using pymatgen
data_Sr2Li2Nb4O13
_symmetry_space_group_name_H-M   'P 1'
_cell_length_a   17.48993073
_cell_length_b   17.48993073
_cell_length_c   17.48993073
_cell_angle_alpha   166.85181212
_cell_angle_beta   166.85181212
_cell_angle_gamma   18.63560797
_symmetry_Int_Tables_number   1
_chemical_formula_structural   Sr2Li2Nb4O13
_chemical_formula_sum   'Sr2 Li2 Nb4 O13'
_cell_volume   276.80609916
_cell_formula_units_Z   1
loop_
 _symmetry_equiv_pos_site_id
 _symmetry_equiv_pos_as_xyz
  1  'x, y, z'
loop_
 _atom_site_type_symbol
 _atom_site_label
 _atom_site_symmetry_multiplicity
 _atom_site_fract_x
 _atom_site_fract_y
 _atom_site_fract_z
 _atom_site_occupancy
  Sr  Sr0  1  0.61648800  0.61648800  0.00000000  1
  Sr  Sr1  1  0.38351200  0.38351200  0.00000000  1
  Li  Li0  1  0.25000000  0.75000000  0.50000000  1
  Li  Li1  1  0.75000000  0.25000000  0.50000000  1
  Nb  Nb0  1  0.94381300  0.94381300  0.00000000  1
  Nb  Nb1  1  0.82122000  0.82122000  0.00000000  1
  Nb  Nb2  1  0.05618700  0.05618700  0.00000000  1
  Nb  Nb3  1  0.17878000  0.17878000  0.00000000  1
  O  O0  1  0.00000000  0.00000000  0.00000000  1
  O  O1  1  0.06238000  0.56238000  0.50000000  1
  O  O2  1  0.17323000  0.67323000  0.50000000  1
  O  O3  1  0.32677000  0.82677000  0.50000000  1
  O  O4  1  0.43762000  0.93762000  0.50000000  1
  O  O5  1  0.76618400  0.76618400  0.00000000  1
  O  O6  1  0.88307600  0.88307600  0.00000000  1
  O  O7  1  0.11692400  0.11692400  0.00000000  1
  O  O8  1  0.23381600  0.23381600  0.00000000  1
  O  O9  1  0.67323000  0.17323000  0.50000000  1
  O  O10  1  0.56238000  0.06238000  0.50000000  1
  O  O11  1  0.93762000  0.43762000  0.50000000  1
  O  O12  1  0.82677000  0.32677000  0.50000000  1
loop_
_geom_bond_atom_site_label_1
_geom_bond_atom_site_label_2
_geom_bond_distance
_geom_bond_site_symmetry_2
Li0 O8 2.078855 1_566
Li0 O5 2.078855 1_455
Li0 O8 2.078855 1_555
Li0 O5 2.078855 1_556
Li1 O8 2.078855 1_555
Li1 O5 2.078855 1_556
Li1 O5 2.078855 1_545
Li1 O8 2.078855 1_656
Nb0 O0 1.939481 1_665
Nb0 O4 2.013766 1_655
Nb0 O11 2.013766 1_565
Nb0 O11 2.013766 1_554
Nb0 O4 2.013766 1_554
Nb0 O6 2.096539 1_555
Nb1 O5 1.899750 1_555
Nb1 O12 2.011531 1_565
Nb1 O3 2.011531 1_655
Nb1 O12 2.011531 1_554
Nb1 O3 2.011531 1_554
Nb1 O6 2.135165 1_555
Nb2 O0 1.939481 1_555
Nb2 O1 2.013766 1_555
Nb2 O10 2.013766 1_454
Nb2 O1 2.013766 1_544
Nb2 O10 2.013766 1_555
Nb2 O7 2.096539 1_555
Nb3 O8 1.899750 1_555
Nb3 O9 2.011531 1_454
Nb3 O2 2.011531 1_555
Nb3 O2 2.011531 1_544
Nb3 O9 2.011531 1_555
Nb3 O7 2.135165 1_555
O1 Sr0 2.738233 1_556
O1 Sr0 2.738233 1_455
O2 Sr0 2.801039 1_455
O2 Sr0 2.801039 1_556
O3 Sr1 2.801039 1_566
O3 Sr1 2.801039 1_555
O4 Sr1 2.738233 1_566
O4 Sr1 2.738233 1_555
O6 Sr1 2.831843 1_565
O6 Sr1 2.831843 1_666
O6 Sr1 2.831843 1_554
O6 Sr1 2.831843 1_655
O7 Sr0 2.831843 1_444
O7 Sr0 2.831843 1_545
O7 Sr0 2.831843 1_455
O7 Sr0 2.831843 1_556
O9 Sr0 2.801039 1_545
O9 Sr0 2.801039 1_556
O10 Sr0 2.738233 1_556
O10 Sr0 2.738233 1_545
O11 Sr1 2.738233 1_656
O11 Sr1 2.738233 1_555
O12 Sr1 2.801039 1_656
O12 Sr1 2.801039 1_555
