# generated using pymatgen
data_Li3V3CoO8
_symmetry_space_group_name_H-M   'P 1'
_cell_length_a   5.81243700
_cell_length_b   5.85363764
_cell_length_c   5.92873217
_cell_angle_alpha   60.49740519
_cell_angle_beta   60.89927239
_cell_angle_gamma   60.72742250
_symmetry_Int_Tables_number   1
_chemical_formula_structural   Li3V3CoO8
_chemical_formula_sum   'Li3 V3 Co1 O8'
_cell_volume   144.91234471
_cell_formula_units_Z   1
loop_
 _symmetry_equiv_pos_site_id
 _symmetry_equiv_pos_as_xyz
  1  'x, y, z'
loop_
 _atom_site_type_symbol
 _atom_site_label
 _atom_site_symmetry_multiplicity
 _atom_site_fract_x
 _atom_site_fract_y
 _atom_site_fract_z
 _atom_site_occupancy
  Li  Li0  1  0.00000000  0.00000000  0.50000000  1
  Li  Li1  1  0.00000000  0.50000000  0.50000000  1
  Li  Li2  1  0.50000000  0.00000000  0.50000000  1
  V  V0  1  0.50000000  0.50000000  0.00000000  1
  V  V1  1  0.50000000  0.00000000  0.00000000  1
  V  V2  1  0.00000000  0.50000000  0.00000000  1
  Co  Co0  1  0.00000000  0.00000000  0.00000000  1
  O  O0  1  0.73900700  0.75053500  0.76958600  1
  O  O1  1  0.23522700  0.23556900  0.78326000  1
  O  O2  1  0.23557600  0.75419400  0.78521700  1
  O  O3  1  0.26099300  0.24946500  0.23041400  1
  O  O4  1  0.74841200  0.21998000  0.78259700  1
  O  O5  1  0.76477300  0.76443100  0.21674000  1
  O  O6  1  0.76442400  0.24580600  0.21478300  1
  O  O7  1  0.25158800  0.78002000  0.21740300  1
loop_
_geom_bond_atom_site_label_1
_geom_bond_atom_site_label_2
_geom_bond_distance
_geom_bond_site_symmetry_2
Li0 O3 2.120717 1_555
Li0 O0 2.120717 1_445
Li0 O7 2.122252 1_545
Li0 O4 2.122252 1_455
Li0 O6 2.175704 1_455
Li0 O2 2.175704 1_545
Li1 O1 2.165429 1_555
Li1 O5 2.165429 1_455
Li1 O0 2.186593 1_455
Li1 O3 2.186593 1_555
Li1 O4 2.210959 1_455
Li1 O7 2.210959 1_555
Li2 O0 2.119906 1_545
Li2 O3 2.119906 1_555
Li2 O6 2.128426 1_555
Li2 O2 2.128426 1_545
Li2 O1 2.186731 1_555
Li2 O5 2.186731 1_545
Co0 O2 1.936142 1_544
Co0 O6 1.936142 1_455
Co0 O1 1.952336 1_554
Co0 O5 1.952336 1_445
Co0 O7 1.953225 1_545
Co0 O4 1.953225 1_454
O0 V1 2.015792 1_566
O0 V0 2.029788 1_556
O0 V2 2.045745 1_656
O1 V1 2.006032 1_556
O1 V2 2.024103 1_556
O2 V0 1.999703 1_556
O2 V2 2.034873 1_556
O3 V1 2.015792 1_555
O3 V0 2.029788 1_555
O3 V2 2.045745 1_555
O4 V1 1.943586 1_556
O4 V0 2.095004 1_556
O5 V1 2.006032 1_565
O5 V2 2.024103 1_655
O6 V0 1.999703 1_555
O6 V2 2.034873 1_655
O7 V1 1.943586 1_565
O7 V0 2.095004 1_555
