# generated using pymatgen
data_MnCo(PO4)2
_symmetry_space_group_name_H-M   'P 1'
_cell_length_a   8.45358973
_cell_length_b   8.45358973
_cell_length_c   8.45358984
_cell_angle_alpha   61.15500619
_cell_angle_beta   61.15500619
_cell_angle_gamma   61.15500733
_symmetry_Int_Tables_number   1
_chemical_formula_structural   MnCo(PO4)2
_chemical_formula_sum   'Mn3 Co3 P6 O24'
_cell_volume   438.27953450
_cell_formula_units_Z   3
loop_
 _symmetry_equiv_pos_site_id
 _symmetry_equiv_pos_as_xyz
  1  'x, y, z'
loop_
 _atom_site_type_symbol
 _atom_site_label
 _atom_site_symmetry_multiplicity
 _atom_site_fract_x
 _atom_site_fract_y
 _atom_site_fract_z
 _atom_site_occupancy
  Mn  Mn0  1  0.35808900  0.35808900  0.35808900  1
  Mn  Mn1  1  0.14177700  0.14177700  0.14177700  1
  Mn  Mn2  1  0.64262300  0.64262300  0.64262300  1
  Co  Co0  1  0.99743900  0.99743900  0.99743900  1
  Co  Co1  1  0.85676000  0.85676000  0.85676000  1
  Co  Co2  1  0.50071500  0.50071500  0.50071500  1
  P  P0  1  0.45509400  0.75025100  0.04279100  1
  P  P1  1  0.75025100  0.04279100  0.45509400  1
  P  P2  1  0.04279100  0.45509400  0.75025100  1
  P  P3  1  0.95986600  0.54176000  0.25116900  1
  P  P4  1  0.25116900  0.95986600  0.54176000  1
  P  P5  1  0.54176000  0.25116900  0.95986600  1
  O  O0  1  0.68881500  0.88351900  0.48899900  1
  O  O1  1  0.88351900  0.48899900  0.68881500  1
  O  O2  1  0.48899900  0.68881500  0.88351900  1
  O  O3  1  0.25273300  0.90835300  0.06142700  1
  O  O4  1  0.61181200  0.81344400  0.01229300  1
  O  O5  1  0.43945100  0.58599800  0.24376200  1
  O  O6  1  0.90835300  0.06142700  0.25273300  1
  O  O7  1  0.58599800  0.24376200  0.43945100  1
  O  O8  1  0.99262900  0.38492600  0.18629300  1
  O  O9  1  0.24376200  0.43945100  0.58599800  1
  O  O10  1  0.94295100  0.74223900  0.09332700  1
  O  O11  1  0.18629300  0.99262900  0.38492600  1
  O  O12  1  0.81344400  0.01229300  0.61181200  1
  O  O13  1  0.06142700  0.25273300  0.90835300  1
  O  O14  1  0.76077700  0.55437400  0.41383400  1
  O  O15  1  0.01229300  0.61181200  0.81344400  1
  O  O16  1  0.41383400  0.76077700  0.55437400  1
  O  O17  1  0.09332700  0.94295100  0.74223900  1
  O  O18  1  0.55437400  0.41383400  0.76077700  1
  O  O19  1  0.38492600  0.18629300  0.99262900  1
  O  O20  1  0.74223900  0.09332700  0.94295100  1
  O  O21  1  0.50243300  0.31777200  0.11948100  1
  O  O22  1  0.11948100  0.50243300  0.31777200  1
  O  O23  1  0.31777200  0.11948100  0.50243300  1
loop_
_geom_bond_atom_site_label_1
_geom_bond_atom_site_label_2
_geom_bond_distance
_geom_bond_site_symmetry_2
Mn0 O23 1.887050 1_555
Mn0 O22 1.887050 1_555
Mn0 O21 1.887050 1_555
Mn0 O5 1.989892 1_555
Mn0 O7 1.989892 1_555
Mn0 O9 1.989892 1_555
Mn1 O19 1.935007 1_554
Mn1 O8 1.935007 1_455
Mn1 O11 1.935007 1_545
Mn1 O6 2.031653 1_455
Mn1 O3 2.031653 1_545
Mn1 O13 2.031653 1_554
Mn2 O0 1.926728 1_555
Mn2 O1 1.926729 1_555
Mn2 O2 1.926729 1_555
Mn2 O18 2.025868 1_555
Mn2 O16 2.025869 1_555
Mn2 O14 2.025869 1_555
Co0 O10 2.105860 1_556
Co0 O20 2.105860 1_565
Co0 O17 2.105860 1_655
Co0 O13 2.163907 1_665
Co0 O3 2.163907 1_656
Co0 O6 2.163907 1_566
Co1 O4 1.946966 1_556
Co1 O15 1.946966 1_655
Co1 O12 1.946966 1_565
Co1 O17 2.079604 1_655
Co1 O20 2.079604 1_565
Co1 O10 2.079605 1_556
Co2 O14 2.158982 1_555
Co2 O16 2.158982 1_555
Co2 O18 2.158982 1_555
Co2 O9 2.172671 1_555
Co2 O7 2.172671 1_555
Co2 O5 2.172671 1_555
O0 P1 1.524288 1_565
O1 P2 1.524288 1_655
O2 P0 1.524288 1_556
O3 P0 1.573083 1_555
O4 P0 1.525595 1_555
O5 P0 1.586214 1_555
O6 P1 1.573083 1_555
O7 P1 1.586214 1_555
O8 P3 1.528391 1_555
O9 P2 1.586214 1_555
O10 P3 1.562506 1_555
O11 P4 1.528391 1_555
O12 P1 1.525595 1_555
O13 P2 1.573083 1_555
O14 P3 1.571653 1_555
O15 P2 1.525595 1_555
O16 P4 1.571653 1_555
O17 P4 1.562506 1_555
O18 P5 1.571653 1_555
O19 P5 1.528391 1_555
O20 P5 1.562506 1_555
O21 P5 1.538762 1_554
O22 P3 1.538762 1_455
O23 P4 1.538762 1_545
