# generated using pymatgen
data_Li3MnFe2(BO3)3
_symmetry_space_group_name_H-M   'P 1'
_cell_length_a   3.15172700
_cell_length_b   8.25420900
_cell_length_c   14.30723992
_cell_angle_alpha   89.93600535
_cell_angle_beta   90.00000000
_cell_angle_gamma   90.00000000
_symmetry_Int_Tables_number   1
_chemical_formula_structural   Li3MnFe2(BO3)3
_chemical_formula_sum   'Li6 Mn2 Fe4 B6 O18'
_cell_volume   372.20280574
_cell_formula_units_Z   2
loop_
 _symmetry_equiv_pos_site_id
 _symmetry_equiv_pos_as_xyz
  1  'x, y, z'
loop_
 _atom_site_type_symbol
 _atom_site_label
 _atom_site_symmetry_multiplicity
 _atom_site_fract_x
 _atom_site_fract_y
 _atom_site_fract_z
 _atom_site_occupancy
  Li  Li0  1  0.50000000  0.70718700  0.00904900  1
  Li  Li1  1  0.50000000  0.66098500  0.64111700  1
  Li  Li2  1  0.50000000  0.63422500  0.34947000  1
  Li  Li3  1  0.50000000  0.20655100  0.50731100  1
  Li  Li4  1  0.50000000  0.15786700  0.14308300  1
  Li  Li5  1  0.50000000  0.13228700  0.84885300  1
  Mn  Mn0  1  0.00000000  0.36679900  0.99435100  1
  Mn  Mn1  1  0.00000000  0.32562700  0.68568600  1
  Fe  Fe0  1  0.00000000  0.86336700  0.49550300  1
  Fe  Fe1  1  0.00000000  0.82414100  0.18447000  1
  Fe  Fe2  1  0.00000000  0.81309700  0.82070700  1
  Fe  Fe3  1  0.00000000  0.31240500  0.32030100  1
  B  B0  1  0.50000000  0.99998900  0.33330300  1
  B  B1  1  0.00000000  0.99859600  0.00104600  1
  B  B2  1  0.50000000  0.99775200  0.66667500  1
  B  B3  1  0.50000000  0.50237800  0.83264500  1
  B  B4  1  0.00000000  0.49960500  0.49877200  1
  B  B5  1  0.50000000  0.50101700  0.16771600  1
  O  O0  1  0.50000000  0.98647700  0.56964100  1
  O  O1  1  0.50000000  0.98148400  0.23657600  1
  O  O2  1  0.50000000  0.86379900  0.39118400  1
  O  O3  1  0.50000000  0.85822000  0.72147400  1
  O  O4  1  0.00000000  0.84605300  0.04253600  1
  O  O5  1  0.50000000  0.65513800  0.87376100  1
  O  O6  1  0.50000000  0.65234100  0.21042200  1
  O  O7  1  0.00000000  0.63853000  0.55415200  1
  O  O8  1  0.00000000  0.51392900  0.40187300  1
  O  O9  1  0.50000000  0.49014000  0.07080700  1
  O  O10  1  0.50000000  0.48735400  0.73575700  1
  O  O11  1  0.50000000  0.36314000  0.88801300  1
  O  O12  1  0.50000000  0.36050300  0.22156300  1
  O  O13  1  0.00000000  0.34668100  0.53981700  1
  O  O14  1  0.50000000  0.15458200  0.37244200  1
  O  O15  1  0.50000000  0.14858100  0.70943900  1
  O  O16  1  0.00000000  0.13671500  0.05667000  1
  O  O17  1  0.00000000  0.01246200  0.90381200  1
loop_
_geom_bond_atom_site_label_1
_geom_bond_atom_site_label_2
_geom_bond_distance
_geom_bond_site_symmetry_2
Li0 O5 1.983172 1_554
Li0 O9 1.996709 1_555
Li0 O4 2.006977 1_555
Li0 O4 2.006977 1_655
Li1 O10 1.970560 1_555
Li1 O3 1.994093 1_555
Li1 O7 2.016512 1_555
Li1 O7 2.016512 1_655
Li2 O2 1.987348 1_555
Li2 O6 1.994838 1_555
Li2 O8 2.007422 1_655
Li2 O8 2.007422 1_555
Li3 O14 1.977176 1_555
Li3 O13 2.009653 1_555
Li3 O13 2.009653 1_655
Li3 O0 2.022731 1_545
Li4 O1 1.975992 1_545
Li4 O16 2.010678 1_655
Li4 O16 2.010678 1_555
Li4 O12 2.015574 1_555
Li5 O11 1.986770 1_555
Li5 O15 1.999009 1_555
Li5 O17 2.019439 1_555
Li5 O17 2.019439 1_655
Mn0 O16 2.097142 1_556
Mn0 O9 2.172300 1_456
Mn0 O9 2.172300 1_556
Mn0 O11 2.190669 1_455
Mn0 O11 2.190669 1_555
Mn1 O13 2.094012 1_555
Mn1 O15 2.175625 1_455
Mn1 O15 2.175625 1_555
Mn1 O10 2.186484 1_555
Mn1 O10 2.186484 1_455
Fe0 O7 2.035879 1_555
Fe0 O0 2.154872 1_555
Fe0 O0 2.154872 1_455
Fe0 O2 2.170473 1_455
Fe0 O2 2.170473 1_555
Fe1 O4 2.038521 1_555
Fe1 O6 2.151968 1_555
Fe1 O6 2.151968 1_455
Fe1 O1 2.174396 1_455
Fe1 O1 2.174396 1_555
Fe2 O17 2.031280 1_565
Fe2 O3 2.153271 1_555
Fe2 O3 2.153271 1_455
Fe2 O5 2.181116 1_555
Fe2 O5 2.181116 1_455
Fe3 O8 2.033067 1_555
Fe3 O12 2.152984 1_555
Fe3 O12 2.152984 1_455
Fe3 O14 2.175941 1_455
Fe3 O14 2.175941 1_555
B0 O1 1.392470 1_555
B0 O14 1.394077 1_565
B0 O2 1.395490 1_555
B1 O16 1.391082 1_565
B1 O4 1.391434 1_555
B1 O17 1.395723 1_564
B2 O15 1.387805 1_565
B2 O0 1.391508 1_555
B2 O3 1.392533 1_555
B3 O10 1.391874 1_555
B3 O5 1.391978 1_555
B3 O11 1.395127 1_555
B4 O8 1.391258 1_555
B4 O13 1.391586 1_555
B4 O7 1.394554 1_555
B5 O9 1.389504 1_555
B5 O6 1.391108 1_555
B5 O12 1.391666 1_555
