# generated using pymatgen
data_Mn3Fe(PO4)4
_symmetry_space_group_name_H-M   'P 1'
_cell_length_a   11.53339526
_cell_length_b   11.53339526
_cell_length_c   4.92890101
_cell_angle_alpha   89.99746045
_cell_angle_beta   89.99746045
_cell_angle_gamma   62.83675195
_symmetry_Int_Tables_number   1
_chemical_formula_structural   Mn3Fe(PO4)4
_chemical_formula_sum   'Mn6 Fe2 P8 O32'
_cell_volume   583.32773061
_cell_formula_units_Z   2
loop_
 _symmetry_equiv_pos_site_id
 _symmetry_equiv_pos_as_xyz
  1  'x, y, z'
loop_
 _atom_site_type_symbol
 _atom_site_label
 _atom_site_symmetry_multiplicity
 _atom_site_fract_x
 _atom_site_fract_y
 _atom_site_fract_z
 _atom_site_occupancy
  Mn  Mn0  1  0.51706600  0.01647000  0.93076600  1
  Mn  Mn1  1  0.01647000  0.51706600  0.93076600  1
  Mn  Mn2  1  0.26545300  0.76794100  0.56880000  1
  Mn  Mn3  1  0.76794100  0.26545300  0.56880000  1
  Mn  Mn4  1  0.73230600  0.73230600  0.42889400  1
  Mn  Mn5  1  0.98168600  0.98168600  0.07379400  1
  Fe  Fe0  1  0.23694600  0.23694600  0.45782700  1
  Fe  Fe1  1  0.48753400  0.48753400  0.04028000  1
  P  P0  1  0.82508900  0.82508900  0.91558500  1
  P  P1  1  0.32647900  0.32647900  0.91186500  1
  P  P2  1  0.57697900  0.57697900  0.58596000  1
  P  P3  1  0.07463300  0.07463300  0.58699100  1
  P  P4  1  0.92647200  0.42294900  0.41684500  1
  P  P5  1  0.42294900  0.92647200  0.41684500  1
  P  P6  1  0.67233900  0.17705100  0.08294900  1
  P  P7  1  0.17705100  0.67233900  0.08294900  1
  O  O0  1  0.90175700  0.90175700  0.85570000  1
  O  O1  1  0.40207900  0.40207900  0.84331500  1
  O  O2  1  0.38777100  0.18990700  0.76407000  1
  O  O3  1  0.88974900  0.68926100  0.77259900  1
  O  O4  1  0.68926100  0.88974900  0.77259900  1
  O  O5  1  0.18990700  0.38777100  0.76407000  1
  O  O6  1  0.68338200  0.18508600  0.77210200  1
  O  O7  1  0.18508600  0.68338200  0.77210200  1
  O  O8  1  0.43403900  0.93454300  0.72774000  1
  O  O9  1  0.93454300  0.43403900  0.72774000  1
  O  O10  1  0.63912000  0.44124800  0.73516600  1
  O  O11  1  0.44124800  0.63912000  0.73516600  1
  O  O12  1  0.13844100  0.93797400  0.72847200  1
  O  O13  1  0.93797400  0.13844100  0.72847200  1
  O  O14  1  0.15062900  0.15062900  0.64814600  1
  O  O15  1  0.65322500  0.65322500  0.65303700  1
  O  O16  1  0.84730700  0.34839000  0.35752600  1
  O  O17  1  0.34839000  0.84730700  0.35752600  1
  O  O18  1  0.55928700  0.86243500  0.27456400  1
  O  O19  1  0.06276000  0.35662200  0.27766800  1
  O  O20  1  0.35662200  0.06276000  0.27766800  1
  O  O21  1  0.86243500  0.55928700  0.27456400  1
  O  O22  1  0.06421500  0.06421500  0.27684000  1
  O  O23  1  0.56617300  0.56617300  0.28052400  1
  O  O24  1  0.81502400  0.81502400  0.22549300  1
  O  O25  1  0.31508200  0.31508200  0.21721100  1
  O  O26  1  0.31379500  0.60683100  0.22153700  1
  O  O27  1  0.80835700  0.11230600  0.22594600  1
  O  O28  1  0.60683100  0.31379500  0.22153700  1
  O  O29  1  0.11230600  0.80835700  0.22594600  1
  O  O30  1  0.59526300  0.10044300  0.14250400  1
  O  O31  1  0.10044300  0.59526300  0.14250400  1
loop_
_geom_bond_atom_site_label_1
_geom_bond_atom_site_label_2
_geom_bond_distance
_geom_bond_site_symmetry_2
Mn0 O8 1.907224 1_545
Mn0 O30 1.907414 1_556
Mn0 O4 2.009411 1_545
Mn0 O2 2.043641 1_555
Mn0 O18 2.339798 1_546
Mn0 O20 2.393864 1_556
Mn1 O9 1.907224 1_455
Mn1 O31 1.907414 1_556
Mn1 O3 2.009411 1_455
Mn1 O5 2.043641 1_555
Mn1 O21 2.339798 1_456
Mn1 O19 2.393864 1_556
Mn2 O17 1.906974 1_555
Mn2 O7 1.907770 1_555
Mn2 O12 1.997020 1_555
Mn2 O11 2.059182 1_555
Mn2 O29 2.332659 1_555
Mn2 O26 2.397393 1_555
Mn3 O16 1.906974 1_555
Mn3 O6 1.907770 1_555
Mn3 O13 1.997020 1_555
Mn3 O10 2.059182 1_555
Mn3 O27 2.332659 1_555
Mn3 O28 2.397393 1_555
Mn4 O15 1.908837 1_555
Mn4 O24 1.912132 1_555
Mn4 O18 2.019567 1_555
Mn4 O21 2.019567 1_555
Mn4 O3 2.364490 1_555
Mn4 O4 2.364490 1_555
Mn5 O0 1.905590 1_554
Mn5 O22 1.908135 1_665
Mn5 O29 2.019516 1_655
Mn5 O27 2.019516 1_565
Mn5 O12 2.363752 1_654
Mn5 O13 2.363752 1_564
Fe0 O14 1.940839 1_555
Fe0 O25 1.942182 1_555
Fe0 O19 2.048855 1_555
Fe0 O20 2.048855 1_555
Fe0 O5 2.176505 1_555
Fe0 O2 2.176505 1_555
Fe1 O1 1.942253 1_554
Fe1 O23 1.949016 1_555
Fe1 O26 2.046731 1_555
Fe1 O28 2.046731 1_555
Fe1 O10 2.179647 1_554
Fe1 O11 2.179647 1_554
O0 P0 1.537774 1_555
O1 P1 1.526029 1_555
O2 P1 1.579505 1_555
O3 P0 1.562147 1_555
O4 P0 1.562147 1_555
O5 P1 1.579505 1_555
O6 P6 1.543694 1_556
O7 P7 1.543694 1_556
O8 P5 1.544048 1_555
O9 P4 1.544048 1_555
O10 P2 1.575007 1_555
O11 P2 1.575007 1_555
O12 P3 1.566198 1_565
O13 P3 1.566198 1_655
O14 P3 1.526049 1_555
O15 P2 1.536888 1_555
O16 P4 1.541269 1_555
O17 P5 1.541269 1_555
O18 P5 1.565064 1_555
O19 P4 1.558391 1_455
O20 P5 1.558391 1_545
O21 P4 1.565064 1_555
O22 P3 1.542408 1_555
O23 P2 1.520428 1_555
O24 P0 1.540291 1_554
O25 P1 1.521638 1_554
O26 P7 1.561037 1_555
O27 P6 1.563911 1_555
O28 P6 1.561037 1_555
O29 P7 1.563911 1_555
O30 P6 1.540828 1_555
O31 P7 1.540828 1_555
