# generated using pymatgen
data_Na3FeBPO7
_symmetry_space_group_name_H-M   'P 1'
_cell_length_a   6.69572400
_cell_length_b   5.24472100
_cell_length_c   8.94305675
_cell_angle_alpha   89.05796275
_cell_angle_beta   90.00000000
_cell_angle_gamma   90.00000000
_symmetry_Int_Tables_number   1
_chemical_formula_structural   Na3FeBPO7
_chemical_formula_sum   'Na6 Fe2 B2 P2 O14'
_cell_volume   314.01270279
_cell_formula_units_Z   2
loop_
 _symmetry_equiv_pos_site_id
 _symmetry_equiv_pos_as_xyz
  1  'x, y, z'
loop_
 _atom_site_type_symbol
 _atom_site_label
 _atom_site_symmetry_multiplicity
 _atom_site_fract_x
 _atom_site_fract_y
 _atom_site_fract_z
 _atom_site_occupancy
  Na  Na0  1  0.75000000  0.24318400  0.92453100  1
  Na  Na1  1  0.99811900  0.74991700  0.74781200  1
  Na  Na2  1  0.50188100  0.74991700  0.74781200  1
  Na  Na3  1  0.49811900  0.25008300  0.25218800  1
  Na  Na4  1  0.00188100  0.25008300  0.25218800  1
  Na  Na5  1  0.25000000  0.75681600  0.07546900  1
  Fe  Fe0  1  0.25000000  0.22173300  0.66160200  1
  Fe  Fe1  1  0.75000000  0.77826700  0.33839800  1
  B  B0  1  0.25000000  0.26340400  0.93473500  1
  B  B1  1  0.75000000  0.73659600  0.06526500  1
  P  P0  1  0.75000000  0.28907000  0.57709000  1
  P  P1  1  0.25000000  0.71093000  0.42291000  1
  O  O0  1  0.75000000  0.70607700  0.91642700  1
  O  O1  1  0.25000000  0.02702800  0.86262100  1
  O  O2  1  0.25000000  0.46748000  0.82905200  1
  O  O3  1  0.93575000  0.22267500  0.67448400  1
  O  O4  1  0.56425000  0.22267500  0.67448400  1
  O  O5  1  0.75000000  0.58249300  0.53851300  1
  O  O6  1  0.25000000  0.86150700  0.57033200  1
  O  O7  1  0.75000000  0.13849300  0.42966800  1
  O  O8  1  0.25000000  0.41750700  0.46148700  1
  O  O9  1  0.43575000  0.77732500  0.32551600  1
  O  O10  1  0.06425000  0.77732500  0.32551600  1
  O  O11  1  0.75000000  0.53252000  0.17094800  1
  O  O12  1  0.75000000  0.97297200  0.13737900  1
  O  O13  1  0.25000000  0.29392300  0.08357300  1
loop_
_geom_bond_atom_site_label_1
_geom_bond_atom_site_label_2
_geom_bond_distance
_geom_bond_site_symmetry_2
Na0 O12 2.354373 1_546
Na0 O0 2.427635 1_555
Na0 O3 2.562590 1_555
Na0 O4 2.562590 1_555
Na0 O11 2.696129 1_556
Na0 O0 2.819099 1_545
Na1 O0 2.252858 1_555
Na1 O2 2.351827 1_655
Na1 O6 2.382351 1_655
Na1 O1 2.461691 1_665
Na1 O3 2.588206 1_565
Na1 O5 2.662454 1_555
Na1 O3 2.882811 1_555
Na2 O0 2.252858 1_555
Na2 O2 2.351827 1_555
Na2 O6 2.382351 1_555
Na2 O1 2.461691 1_565
Na2 O4 2.588206 1_565
Na2 O5 2.662454 1_555
Na2 O4 2.882811 1_555
Na3 O13 2.252858 1_555
Na3 O11 2.351827 1_555
Na3 O7 2.382351 1_555
Na3 O12 2.461691 1_545
Na3 O9 2.588206 1_545
Na3 O8 2.662454 1_555
Na3 O9 2.882811 1_555
Na4 O13 2.252858 1_555
Na4 O11 2.351827 1_455
Na4 O7 2.382351 1_455
Na4 O12 2.461691 1_445
Na4 O10 2.588206 1_545
Na4 O8 2.662454 1_555
Na4 O10 2.882811 1_555
Na5 O1 2.354373 1_564
Na5 O13 2.427635 1_555
Na5 O10 2.562590 1_555
Na5 O9 2.562590 1_555
Na5 O2 2.696129 1_554
Na5 O13 2.819099 1_565
Fe0 O2 1.991787 1_555
Fe0 O8 2.048576 1_555
Fe0 O1 2.052862 1_555
Fe0 O6 2.070348 1_545
Fe0 O3 2.107293 1_455
Fe0 O4 2.107293 1_555
Fe1 O11 1.991787 1_555
Fe1 O5 2.048576 1_555
Fe1 O12 2.052862 1_555
Fe1 O7 2.070348 1_565
Fe1 O10 2.107293 1_655
Fe1 O9 2.107293 1_555
B0 O13 1.343266 1_556
B0 O1 1.406816 1_555
B0 O2 1.416190 1_555
B1 O0 1.343266 1_554
B1 O12 1.406816 1_555
B1 O11 1.416190 1_555
O3 P0 1.554604 1_555
O4 P0 1.554604 1_555
O5 P0 1.571574 1_555
O6 P1 1.547935 1_555
O7 P0 1.547935 1_555
O8 P1 1.571574 1_555
O9 P1 1.554604 1_555
O10 P1 1.554604 1_555
