# generated using pymatgen
data_Li5V3P8O29
_symmetry_space_group_name_H-M   'P 1'
_cell_length_a   9.80948500
_cell_length_b   9.82624820
_cell_length_c   13.94375407
_cell_angle_alpha   90.02906157
_cell_angle_beta   89.99543894
_cell_angle_gamma   119.91437987
_symmetry_Int_Tables_number   1
_chemical_formula_structural   Li5V3P8O29
_chemical_formula_sum   'Li10 V6 P16 O58'
_cell_volume   1164.97945545
_cell_formula_units_Z   2
loop_
 _symmetry_equiv_pos_site_id
 _symmetry_equiv_pos_as_xyz
  1  'x, y, z'
loop_
 _atom_site_type_symbol
 _atom_site_label
 _atom_site_symmetry_multiplicity
 _atom_site_fract_x
 _atom_site_fract_y
 _atom_site_fract_z
 _atom_site_occupancy
  Li  Li0  1  0.68875000  0.91403400  0.94209600  1
  Li  Li1  1  0.22731400  0.90529100  0.43828500  1
  Li  Li2  1  0.33393700  0.66468500  0.11856800  1
  Li  Li3  1  0.08505000  0.77359400  0.93987000  1
  Li  Li4  1  0.22429800  0.31537300  0.94246900  1
  Li  Li5  1  0.90471800  0.67768300  0.55748100  1
  Li  Li6  1  0.09238600  0.32306100  0.43638900  1
  Li  Li7  1  0.77372800  0.08851700  0.55887000  1
  Li  Li8  1  0.32180400  0.22834100  0.55889500  1
  Li  Li9  1  0.32420500  0.09626500  0.06214600  1
  V  V0  1  0.99894800  0.56572000  0.75241000  1
  V  V1  1  0.99634500  0.42994700  0.24505700  1
  V  V2  1  0.57654800  0.57330400  0.25128800  1
  V  V3  1  0.43680100  0.43644000  0.74973500  1
  V  V4  1  0.56951700  0.00111700  0.74929600  1
  V  V5  1  0.43322200  0.00000800  0.25322200  1
  P  P0  1  0.68085600  0.91055700  0.15795700  1
  P  P1  1  0.68536800  0.76990800  0.65611000  1
  P  P2  1  0.23155800  0.91142900  0.65886200  1
  P  P3  1  0.33459400  0.66778300  0.87337400  1
  P  P4  1  0.33207100  0.66303900  0.37344400  1
  P  P5  1  0.09072200  0.77127500  0.15662300  1
  P  P6  1  0.91518200  0.68117700  0.34047000  1
  P  P7  1  0.23136200  0.32092400  0.15787600  1
  P  P8  1  0.76915400  0.68520300  0.84366800  1
  P  P9  1  0.08806200  0.32071900  0.65715300  1
  P  P10  1  0.91461700  0.23072000  0.84213800  1
  P  P11  1  0.66752400  0.33362900  0.62704400  1
  P  P12  1  0.66228100  0.33191800  0.12657500  1
  P  P13  1  0.77038100  0.08648400  0.34255700  1
  P  P14  1  0.31893300  0.23351800  0.34194400  1
  P  P15  1  0.32104100  0.08947900  0.84178600  1
  O  O0  1  0.75868000  0.00440900  0.43381900  1
  O  O1  1  0.66348500  0.91522400  0.65864200  1
  O  O2  1  0.75535500  0.76287800  0.93078900  1
  O  O3  1  0.66055100  0.74225800  0.16614900  1
  O  O4  1  0.51331800  0.88664500  0.17493000  1
  O  O5  1  0.48666500  0.81270000  0.83478800  1
  O  O6  1  0.38171000  0.90150000  0.67701900  1
  O  O7  1  0.24153400  0.00223900  0.93184200  1
  O  O8  1  0.25783600  0.92082500  0.16170200  1
  O  O9  1  0.47889200  0.66277800  0.32528900  1
  O  O10  1  0.52289000  0.61772600  0.67717700  1
  O  O11  1  0.32741000  0.81296700  0.33549700  1
  O  O12  1  0.33271800  0.66224200  0.98121400  1
  O  O13  1  0.33415000  0.66187200  0.48008500  1
  O  O14  1  0.18644700  0.67285000  0.83522400  1
  O  O15  1  0.37878400  0.48540300  0.17295700  1
  O  O16  1  0.33041700  0.51362900  0.83203400  1
  O  O17  1  0.08369700  0.74580400  0.66054800  1
  O  O18  1  0.00304500  0.79109800  0.24900100  1
  O  O19  1  0.00079200  0.76096600  0.43088100  1
  O  O20  1  0.00866800  0.76364200  0.06611400  1
  O  O21  1  0.11526500  0.62814700  0.17421000  1
  O  O22  1  0.18239800  0.51193600  0.33231000  1
  O  O23  1  0.91485300  0.66362000  0.84120800  1
  O  O24  1  0.10100100  0.47997900  0.67590800  1
  O  O25  1  0.25484300  0.33719000  0.66150700  1
  O  O26  1  0.79035100  0.79060600  0.75004500  1
  O  O27  1  0.76479600  0.75759100  0.56921600  1
  O  O28  1  0.24080700  0.24360200  0.43229800  1
  O  O29  1  0.74766500  0.66052800  0.33678400  1
  O  O30  1  0.90645100  0.52290100  0.32547700  1
  O  O31  1  0.08652500  0.34094000  0.15891800  1
  O  O32  1  0.81174700  0.48593500  0.66714400  1
  O  O33  1  0.90302800  0.38124400  0.82426900  1
  O  O34  1  0.00693200  0.23838500  0.92775800  1
  O  O35  1  0.00392200  0.24286500  0.56590800  1
  O  O36  1  0.99434900  0.20694900  0.74575600  1
  O  O37  1  0.91626800  0.25218100  0.33856300  1
  O  O38  1  0.65976800  0.47903600  0.17540000  1
  O  O39  1  0.61771500  0.52256800  0.82207700  1
  O  O40  1  0.81226700  0.33566900  0.17091500  1
  O  O41  1  0.66107600  0.33849000  0.02050500  1
  O  O42  1  0.65846900  0.33129200  0.52030300  1
  O  O43  1  0.67361500  0.18660500  0.66687700  1
  O  O44  1  0.47722000  0.38299200  0.32334600  1
  O  O45  1  0.51190000  0.32897000  0.67069500  1
  O  O46  1  0.74625100  0.08452100  0.83956400  1
  O  O47  1  0.78899900  0.99908300  0.24968200  1
  O  O48  1  0.75532500  0.99134800  0.06746700  1
  O  O49  1  0.61824300  0.09546100  0.32136700  1
  O  O50  1  0.51246700  0.18393300  0.16636500  1
  O  O51  1  0.48033100  0.10225500  0.82346100  1
  O  O52  1  0.33684000  0.25532100  0.83900300  1
  O  O53  1  0.24404700  0.24146300  0.06912500  1
  O  O54  1  0.21062800  0.21167600  0.24994700  1
  O  O55  1  0.33452800  0.08438000  0.34278500  1
  O  O56  1  0.24219100  0.99973300  0.56858800  1
  O  O57  1  0.20931700  0.00001300  0.75016200  1
loop_
_geom_bond_atom_site_label_1
_geom_bond_atom_site_label_2
_geom_bond_distance
_geom_bond_site_symmetry_2
Li0 O48 1.887758 1_556
Li0 O2 1.904077 1_555
Li0 O46 2.056311 1_565
Li0 O5 2.278205 1_555
Li1 O19 1.953515 1_555
Li1 O56 2.011697 1_555
Li1 O55 2.032808 1_565
Li1 O11 2.174453 1_555
Li2 O12 1.915332 1_554
Li2 O21 2.136354 1_555
Li2 O4 2.154404 1_555
Li2 O15 2.155591 1_555
Li3 O20 1.896459 1_556
Li3 O7 1.994237 1_565
Li3 O23 2.011744 1_455
Li3 O14 2.253629 1_555
Li4 O34 1.884647 1_555
Li4 O53 1.955924 1_556
Li4 O52 2.072922 1_555
Li4 O16 2.286941 1_555
Li5 O27 1.897896 1_555
Li5 O19 1.976374 1_655
Li5 O17 2.103127 1_655
Li5 O32 2.238035 1_555
Li6 O28 1.966313 1_555
Li6 O35 1.988651 1_555
Li6 O37 2.032169 1_455
Li6 O22 2.167555 1_555
Li7 O0 1.903196 1_555
Li7 O35 1.998210 1_655
Li7 O1 2.042049 1_545
Li7 O43 2.259183 1_555
Li8 O28 1.972099 1_555
Li8 O56 1.981113 1_545
Li8 O25 2.078861 1_555
Li8 O45 2.246111 1_555
Li9 O53 1.944783 1_555
Li9 O7 2.015867 1_554
Li9 O8 2.050768 1_545
Li9 O50 2.162588 1_555
O0 P13 1.480416 1_555
O1 P1 1.546585 1_555
O1 V4 1.983574 1_565
O2 P8 1.476036 1_555
O3 P0 1.568199 1_555
O3 V2 1.865991 1_555
O4 P0 1.557891 1_555
O4 V5 1.980285 1_565
O5 P3 1.557062 1_555
O5 V4 2.002661 1_565
O6 P2 1.544833 1_555
O6 V4 1.889049 1_565
O7 P15 1.501352 1_555
O8 P5 1.564920 1_555
O8 V5 1.964185 1_565
O9 P4 1.590183 1_555
O9 V2 1.895876 1_555
O10 P1 1.576673 1_555
O10 V3 1.846959 1_555
O11 P4 1.587592 1_555
O11 V5 1.967386 1_565
O12 P3 1.504486 1_555
O13 P4 1.487246 1_555
O14 P3 1.571527 1_555
O14 V0 1.972922 1_455
O15 P7 1.554400 1_555
O15 V2 2.007626 1_555
O16 P3 1.601766 1_555
O16 V3 1.941552 1_555
O17 P2 1.548738 1_555
O17 V0 1.999496 1_455
O18 P5 1.613540 1_555
O18 P6 1.615206 1_455
O19 P6 1.500561 1_455
O20 P5 1.478542 1_555
O21 P5 1.560184 1_555
O21 V1 1.966075 1_455
O22 P4 1.585602 1_555
O22 V1 1.998247 1_455
O23 P8 1.546341 1_555
O23 V0 1.982211 1_555
O24 P9 1.528063 1_555
O24 V0 1.920955 1_455
O25 P9 1.562817 1_555
O25 V3 1.978231 1_555
O26 P8 1.614524 1_555
O26 P1 1.615098 1_555
O27 P1 1.477674 1_555
O28 P14 1.503294 1_555
O29 P6 1.552915 1_555
O29 V2 1.880879 1_555
O30 P6 1.528623 1_555
O30 V1 1.916109 1_555
O31 P7 1.528467 1_555
O31 V1 1.939222 1_455
O32 P11 1.562503 1_555
O32 V0 1.990932 1_555
O33 P10 1.559099 1_555
O33 V0 1.864325 1_555
O34 P10 1.477525 1_455
O35 P9 1.501539 1_555
O36 P9 1.611643 1_655
O36 P10 1.629158 1_555
O37 P13 1.542113 1_555
O37 V1 2.000448 1_555
O38 P12 1.608868 1_555
O38 V2 1.843164 1_555
O39 P8 1.575774 1_555
O39 V3 1.839729 1_555
O40 P12 1.579343 1_555
O40 V1 1.875749 1_555
O41 P12 1.480761 1_555
O42 P11 1.490508 1_555
O43 P11 1.576744 1_555
O43 V4 1.957317 1_555
O44 P14 1.536588 1_555
O44 V2 1.907978 1_555
O45 P11 1.622719 1_555
O45 V3 1.909760 1_555
O46 P10 1.557645 1_555
O46 V4 1.960532 1_555
O47 P0 1.611380 1_555
O47 P13 1.613476 1_565
O48 P0 1.475933 1_555
O49 P13 1.566438 1_555
O49 V5 1.837973 1_555
O50 P12 1.565658 1_555
O50 V5 1.984485 1_555
O51 P15 1.525430 1_555
O51 V4 1.920548 1_555
O52 P15 1.558620 1_555
O52 V3 1.984870 1_555
O53 P7 1.500833 1_555
O54 P14 1.610228 1_555
O54 P7 1.620349 1_555
O55 P14 1.547500 1_555
O55 V5 1.995887 1_555
O56 P2 1.503019 1_555
O57 P2 1.616855 1_545
O57 P15 1.626126 1_555
