# generated using pymatgen
data_LiFePO4
_symmetry_space_group_name_H-M   'P 1'
_cell_length_a   5.25597735
_cell_length_b   7.88495173
_cell_length_c   9.21298058
_cell_angle_alpha   111.62959592
_cell_angle_beta   76.19025340
_cell_angle_gamma   97.64969700
_symmetry_Int_Tables_number   1
_chemical_formula_structural   LiFePO4
_chemical_formula_sum   'Li4 Fe4 P4 O16'
_cell_volume   344.23899036
_cell_formula_units_Z   4
loop_
 _symmetry_equiv_pos_site_id
 _symmetry_equiv_pos_as_xyz
  1  'x, y, z'
loop_
 _atom_site_type_symbol
 _atom_site_label
 _atom_site_symmetry_multiplicity
 _atom_site_fract_x
 _atom_site_fract_y
 _atom_site_fract_z
 _atom_site_occupancy
  Li  Li0  1  0.28490000  0.01410800  0.37009200  1
  Li  Li1  1  0.28493000  0.01401500  0.87001200  1
  Li  Li2  1  0.71497500  0.98593000  0.63000900  1
  Li  Li3  1  0.71520200  0.98591000  0.12991600  1
  Fe  Fe0  1  0.23501300  0.39565600  0.17498400  1
  Fe  Fe1  1  0.76497200  0.60436200  0.32500800  1
  Fe  Fe2  1  0.23508500  0.39587000  0.67511600  1
  Fe  Fe3  1  0.76490400  0.60411600  0.82488700  1
  P  P0  1  0.19259500  0.73974900  0.54682600  1
  P  P1  1  0.19264900  0.73949100  0.04684400  1
  P  P2  1  0.80739800  0.26051200  0.45314600  1
  P  P3  1  0.80735300  0.26026900  0.95318700  1
  O  O0  1  0.37652600  0.61882400  0.39238700  1
  O  O1  1  0.37661200  0.61867800  0.89228400  1
  O  O2  1  0.62337300  0.38126300  0.60770300  1
  O  O3  1  0.62344500  0.38122100  0.10763300  1
  O  O4  1  0.91181400  0.37760000  0.34493800  1
  O  O5  1  0.91211500  0.37727400  0.84489200  1
  O  O6  1  0.08791800  0.62273700  0.65511600  1
  O  O7  1  0.08813600  0.62240100  0.15503700  1
  O  O8  1  0.65686500  0.08761400  0.36442700  1
  O  O9  1  0.65682000  0.08735600  0.86446000  1
  O  O10  1  0.34313400  0.91267000  0.63555300  1
  O  O11  1  0.34323900  0.91235500  0.13557400  1
  O  O12  1  0.95825300  0.79394700  0.49855200  1
  O  O13  1  0.95818600  0.79364500  0.99867300  1
  O  O14  1  0.04190900  0.20638900  0.50129800  1
  O  O15  1  0.04167800  0.20603800  0.00144400  1
loop_
_geom_bond_atom_site_label_1
_geom_bond_atom_site_label_2
_geom_bond_distance
_geom_bond_site_symmetry_2
Li0 O14 1.954067 1_555
Li0 O8 1.957740 1_555
Li0 O11 1.969071 1_545
Li1 O15 1.953982 1_556
Li1 O9 1.957247 1_555
Li1 O10 1.968539 1_545
Li2 O12 1.953906 1_555
Li2 O10 1.956899 1_555
Li2 O9 1.968500 1_565
Li3 O13 1.954024 1_554
Li3 O11 1.957803 1_555
Li3 O8 1.969003 1_565
Fe0 O3 1.992760 1_555
Fe0 O4 2.046404 1_455
Fe0 O15 2.105492 1_555
Fe0 O7 2.122173 1_555
Fe0 O0 2.329345 1_555
Fe1 O0 1.992860 1_555
Fe1 O7 2.046347 1_655
Fe1 O12 2.105257 1_555
Fe1 O4 2.122130 1_555
Fe1 O3 2.329123 1_555
Fe2 O2 1.992169 1_555
Fe2 O5 2.045695 1_455
Fe2 O14 2.106192 1_555
Fe2 O6 2.124055 1_555
Fe2 O1 2.326829 1_555
Fe3 O1 1.992154 1_555
Fe3 O6 2.045863 1_655
Fe3 O13 2.106466 1_555
Fe3 O5 2.124010 1_555
Fe3 O2 2.327075 1_555
O0 P0 1.567417 1_555
O1 P1 1.567782 1_556
O2 P2 1.567751 1_555
O3 P3 1.567469 1_554
O4 P2 1.558791 1_555
O5 P3 1.559120 1_555
O6 P0 1.559073 1_555
O7 P1 1.558758 1_555
O8 P2 1.533862 1_555
O9 P3 1.533960 1_555
O10 P0 1.534016 1_555
O11 P1 1.533886 1_555
O12 P0 1.561816 1_655
O13 P1 1.561672 1_656
O14 P2 1.561679 1_455
O15 P3 1.561772 1_454
