# generated using pymatgen
data_Cr3Co(PO4)6
_symmetry_space_group_name_H-M   'P 1'
_cell_length_a   8.72989485
_cell_length_b   8.51317699
_cell_length_c   8.51317640
_cell_angle_alpha   59.99999840
_cell_angle_beta   60.81784445
_cell_angle_gamma   60.81785184
_symmetry_Int_Tables_number   1
_chemical_formula_structural   Cr3Co(PO4)6
_chemical_formula_sum   'Cr3 Co1 P6 O24'
_cell_volume   452.83164761
_cell_formula_units_Z   1
loop_
 _symmetry_equiv_pos_site_id
 _symmetry_equiv_pos_as_xyz
  1  'x, y, z'
loop_
 _atom_site_type_symbol
 _atom_site_label
 _atom_site_symmetry_multiplicity
 _atom_site_fract_x
 _atom_site_fract_y
 _atom_site_fract_z
 _atom_site_occupancy
  Cr  Cr0  1  0.07210400  0.64263200  0.64263200  1
  Cr  Cr1  1  0.42578200  0.85807200  0.85807200  1
  Cr  Cr2  1  0.92460200  0.35846600  0.35846600  1
  Co  Co0  1  0.56779700  0.14406800  0.14406800  1
  P  P0  1  0.25285100  0.25028800  0.52854200  1
  P  P1  1  0.25285100  0.96832100  0.25028800  1
  P  P2  1  0.25285100  0.52854200  0.96832100  1
  P  P3  1  0.74701600  0.46276800  0.03499500  1
  P  P4  1  0.74701600  0.03499500  0.75522100  1
  P  P5  1  0.74701600  0.75522100  0.46276800  1
  O  O0  1  0.07626400  0.13854200  0.28003900  1
  O  O1  1  0.07626400  0.50515400  0.13854200  1
  O  O2  1  0.07626400  0.28003900  0.50515400  1
  O  O3  1  0.27000400  0.07469500  0.71200100  1
  O  O4  1  0.23333000  0.42063900  0.56369100  1
  O  O5  1  0.42923600  0.23012700  0.35384900  1
  O  O6  1  0.27000400  0.94330000  0.07469500  1
  O  O7  1  0.23333000  0.78233900  0.42063900  1
  O  O8  1  0.23333000  0.56369100  0.78233900  1
  O  O9  1  0.57279300  0.63586600  0.00932200  1
  O  O10  1  0.73452400  0.27846800  0.05483100  1
  O  O11  1  0.57279300  0.00932200  0.78201800  1
  O  O12  1  0.42923600  0.98678900  0.23012700  1
  O  O13  1  0.27000400  0.71200100  0.94330000  1
  O  O14  1  0.42923600  0.35384900  0.98678900  1
  O  O15  1  0.76385600  0.43386700  0.22020600  1
  O  O16  1  0.76385600  0.22020600  0.58207000  1
  O  O17  1  0.73452400  0.05483100  0.93217900  1
  O  O18  1  0.57279300  0.78201800  0.63586600  1
  O  O19  1  0.76385600  0.58207000  0.43386700  1
  O  O20  1  0.73452400  0.93217900  0.27846800  1
  O  O21  1  0.92336500  0.71963600  0.49140300  1
  O  O22  1  0.92336500  0.49140300  0.86559400  1
  O  O23  1  0.92336500  0.86559400  0.71963600  1
loop_
_geom_bond_atom_site_label_1
_geom_bond_atom_site_label_2
_geom_bond_distance
_geom_bond_site_symmetry_2
Cr0 O23 1.931159 1_455
Cr0 O22 1.931168 1_455
Cr0 O21 1.931173 1_455
Cr0 O8 1.938544 1_555
Cr0 O7 1.938546 1_555
Cr0 O4 1.938550 1_555
Cr1 O18 1.921386 1_555
Cr1 O9 1.921390 1_556
Cr1 O11 1.921393 1_565
Cr1 O13 1.925319 1_555
Cr1 O3 1.925324 1_565
Cr1 O6 1.925332 1_556
Cr2 O2 1.916955 1_655
Cr2 O1 1.916958 1_655
Cr2 O0 1.916962 1_655
Cr2 O19 1.934792 1_555
Cr2 O16 1.934795 1_555
Cr2 O15 1.934799 1_555
Co0 O5 1.878018 1_555
Co0 O12 1.878018 1_545
Co0 O14 1.878019 1_554
Co0 O17 1.918657 1_554
Co0 O20 1.918661 1_545
Co0 O10 1.918664 1_555
O0 P1 1.532441 1_545
O1 P2 1.532444 1_554
O2 P0 1.532454 1_555
O3 P0 1.539928 1_555
O4 P0 1.537842 1_555
O5 P0 1.541628 1_555
O6 P1 1.539938 1_555
O7 P1 1.537858 1_555
O8 P2 1.537867 1_555
O9 P3 1.532655 1_555
O10 P3 1.544685 1_555
O11 P4 1.532659 1_555
O12 P1 1.541624 1_555
O13 P2 1.539921 1_555
O14 P2 1.541627 1_555
O15 P3 1.539828 1_555
O16 P4 1.539831 1_555
O17 P4 1.544701 1_555
O18 P5 1.532654 1_555
O19 P5 1.539836 1_555
O20 P5 1.544692 1_555
O21 P5 1.535777 1_555
O22 P3 1.535783 1_556
O23 P4 1.535786 1_565
