# generated using pymatgen
data_Li2CrO3
_symmetry_space_group_name_H-M   'P 1'
_cell_length_a   4.93987700
_cell_length_b   4.99909700
_cell_length_c   8.37457500
_cell_angle_alpha   90.00000000
_cell_angle_beta   90.00000000
_cell_angle_gamma   90.00000000
_symmetry_Int_Tables_number   1
_chemical_formula_structural   Li2CrO3
_chemical_formula_sum   'Li8 Cr4 O12'
_cell_volume   206.80949559
_cell_formula_units_Z   4
loop_
 _symmetry_equiv_pos_site_id
 _symmetry_equiv_pos_as_xyz
  1  'x, y, z'
loop_
 _atom_site_type_symbol
 _atom_site_label
 _atom_site_symmetry_multiplicity
 _atom_site_fract_x
 _atom_site_fract_y
 _atom_site_fract_z
 _atom_site_occupancy
  Li  Li0  1  0.00000000  0.75000000  0.07262800  1
  Li  Li1  1  0.50000000  0.75000000  0.42737200  1
  Li  Li2  1  0.50000000  0.75000000  0.73677600  1
  Li  Li3  1  0.00000000  0.75000000  0.76322400  1
  Li  Li4  1  0.50000000  0.25000000  0.26322400  1
  Li  Li5  1  0.00000000  0.25000000  0.23677600  1
  Li  Li6  1  0.00000000  0.25000000  0.92737200  1
  Li  Li7  1  0.50000000  0.25000000  0.57262800  1
  Cr  Cr0  1  0.50000000  0.75000000  0.08712300  1
  Cr  Cr1  1  0.00000000  0.75000000  0.41287700  1
  Cr  Cr2  1  0.50000000  0.25000000  0.91287700  1
  Cr  Cr3  1  0.00000000  0.25000000  0.58712300  1
  O  O0  1  0.75000000  0.89326700  0.25000000  1
  O  O1  1  0.78107600  0.91703300  0.57218600  1
  O  O2  1  0.71892400  0.91703300  0.92781400  1
  O  O3  1  0.21892400  0.08296700  0.42781400  1
  O  O4  1  0.28107600  0.08296700  0.07218600  1
  O  O5  1  0.25000000  0.10673300  0.75000000  1
  O  O6  1  0.75000000  0.39326700  0.75000000  1
  O  O7  1  0.71892400  0.41703300  0.07218600  1
  O  O8  1  0.78107600  0.41703300  0.42781400  1
  O  O9  1  0.28107600  0.58296700  0.92781400  1
  O  O10  1  0.21892400  0.58296700  0.57218600  1
  O  O11  1  0.25000000  0.60673300  0.25000000  1
loop_
_geom_bond_atom_site_label_1
_geom_bond_atom_site_label_2
_geom_bond_distance
_geom_bond_site_symmetry_2
Li0 O2 2.023834 1_454
Li0 O9 2.023834 1_554
Li0 O0 2.060232 1_455
Li0 O11 2.060232 1_555
Li0 O7 2.167618 1_455
Li0 O4 2.167618 1_565
Li1 O1 2.023834 1_555
Li1 O10 2.023834 1_555
Li1 O0 2.060232 1_555
Li1 O11 2.060232 1_555
Li1 O8 2.167618 1_555
Li1 O3 2.167618 1_565
Li2 O9 2.103891 1_555
Li2 O2 2.103891 1_555
Li2 O1 2.127213 1_555
Li2 O10 2.127213 1_555
Li2 O6 2.172033 1_555
Li2 O5 2.172033 1_565
Li3 O1 2.103891 1_455
Li3 O10 2.103891 1_555
Li3 O2 2.127213 1_455
Li3 O9 2.127213 1_555
Li3 O6 2.172033 1_455
Li3 O5 2.172033 1_565
Li4 O4 2.103891 1_555
Li4 O7 2.103891 1_555
Li4 O8 2.127213 1_555
Li4 O3 2.127213 1_555
Li4 O0 2.172033 1_545
Li4 O11 2.172033 1_555
Li5 O3 2.103891 1_555
Li5 O8 2.103891 1_455
Li5 O7 2.127213 1_455
Li5 O4 2.127213 1_555
Li5 O11 2.172033 1_555
Li5 O0 2.172033 1_445
Li6 O4 2.023834 1_556
Li6 O7 2.023834 1_456
Li6 O6 2.060232 1_455
Li6 O5 2.060232 1_555
Li6 O9 2.167618 1_555
Li6 O2 2.167618 1_445
Li7 O8 2.023834 1_555
Li7 O3 2.023834 1_555
Li7 O6 2.060232 1_555
Li7 O5 2.060232 1_555
Li7 O1 2.167618 1_545
Li7 O10 2.167618 1_555
Cr0 O9 1.909645 1_554
Cr0 O2 1.909645 1_554
Cr0 O0 1.974504 1_555
Cr0 O11 1.974504 1_555
Cr0 O4 1.988938 1_565
Cr0 O7 1.988938 1_555
Cr1 O1 1.909645 1_455
Cr1 O10 1.909645 1_555
Cr1 O0 1.974504 1_455
Cr1 O11 1.974504 1_555
Cr1 O8 1.988938 1_455
Cr1 O3 1.988938 1_565
Cr2 O7 1.909645 1_556
Cr2 O4 1.909645 1_556
Cr2 O6 1.974504 1_555
Cr2 O5 1.974504 1_555
Cr2 O9 1.988938 1_555
Cr2 O2 1.988938 1_545
Cr3 O3 1.909645 1_555
Cr3 O8 1.909645 1_455
Cr3 O6 1.974504 1_455
Cr3 O5 1.974504 1_555
Cr3 O1 1.988938 1_445
Cr3 O10 1.988938 1_555
