# generated using pymatgen
data_Na2FeSn(PO4)3
_symmetry_space_group_name_H-M   'P 1'
_cell_length_a   8.84551500
_cell_length_b   8.98070514
_cell_length_c   15.31400278
_cell_angle_alpha   106.48486153
_cell_angle_beta   89.96611790
_cell_angle_gamma   119.46053607
_symmetry_Int_Tables_number   1
_chemical_formula_structural   Na2FeSn(PO4)3
_chemical_formula_sum   'Na8 Fe4 Sn4 P12 O48'
_cell_volume   1001.51628515
_cell_formula_units_Z   4
loop_
 _symmetry_equiv_pos_site_id
 _symmetry_equiv_pos_as_xyz
  1  'x, y, z'
loop_
 _atom_site_type_symbol
 _atom_site_label
 _atom_site_symmetry_multiplicity
 _atom_site_fract_x
 _atom_site_fract_y
 _atom_site_fract_z
 _atom_site_occupancy
  Na  Na0  1  0.23899300  0.99689700  0.74969300  1
  Na  Na1  1  0.31140700  0.12684100  0.56173800  1
  Na  Na2  1  0.24560300  0.48673900  0.87551000  1
  Na  Na3  1  0.50790300  0.99200400  0.50627700  1
  Na  Na4  1  0.75014900  0.00162700  0.24914600  1
  Na  Na5  1  0.30096500  0.87186600  0.18339900  1
  Na  Na6  1  0.81145800  0.12564200  0.05656900  1
  Na  Na7  1  0.75460600  0.50017700  0.37542300  1
  Fe  Fe0  1  0.01914500  0.69910800  0.67623400  1
  Fe  Fe1  1  0.73016700  0.28993800  0.58010400  1
  Fe  Fe2  1  0.52111500  0.69778100  0.17250800  1
  Fe  Fe3  1  0.22110800  0.30116700  0.07210400  1
  Sn  Sn0  1  0.79043900  0.72147900  0.92813300  1
  Sn  Sn1  1  0.46816800  0.29114000  0.82111700  1
  Sn  Sn2  1  0.28414000  0.71184500  0.42923500  1
  Sn  Sn3  1  0.96458600  0.28641400  0.32207600  1
  P  P0  1  0.02317800  0.21362000  0.77031600  1
  P  P1  1  0.58412500  0.49658500  0.62463900  1
  P  P2  1  0.51909600  0.79026300  0.97885700  1
  P  P3  1  0.97750200  0.20446900  0.52269100  1
  P  P4  1  0.91817500  0.50624700  0.87372900  1
  P  P5  1  0.51851400  0.20923100  0.26956300  1
  P  P6  1  0.48125800  0.79386000  0.72884000  1
  P  P7  1  0.08367000  0.49851900  0.12476900  1
  P  P8  1  0.01885100  0.78805300  0.48101600  1
  P  P9  1  0.48215100  0.21125900  0.02113500  1
  P  P10  1  0.41799700  0.50036000  0.37487900  1
  P  P11  1  0.97927000  0.79382500  0.22909100  1
  O  O0  1  0.45941700  0.59357100  0.74241700  1
  O  O1  1  0.42425300  0.20897700  0.93675100  1
  O  O2  1  0.94411100  0.02565300  0.85913600  1
  O  O3  1  0.73506200  0.35897400  0.86196900  1
  O  O4  1  0.90366000  0.20975400  0.68731800  1
  O  O5  1  0.20007600  0.19696000  0.77969900  1
  O  O6  1  0.48113200  0.66280300  0.54116100  1
  O  O7  1  0.48509800  0.33594600  0.70838000  1
  O  O8  1  0.44764400  0.97910200  0.88804300  1
  O  O9  1  0.13453300  0.40410500  0.50751600  1
  O  O10  1  0.81003400  0.20340200  0.52951200  1
  O  O11  1  0.90365900  0.64309400  0.88981300  1
  O  O12  1  0.58779000  0.36442800  0.60275000  1
  O  O13  1  0.96593600  0.59468500  0.24393300  1
  O  O14  1  0.68817400  0.80159500  0.96959200  1
  O  O15  1  0.36973700  0.58848100  0.99410700  1
  O  O16  1  0.04979600  0.01714600  0.60976200  1
  O  O17  1  0.92145500  0.20786900  0.43630100  1
  O  O18  1  0.01552300  0.65603100  0.79092900  1
  O  O19  1  0.44425100  0.02208400  0.36200500  1
  O  O20  1  0.23281600  0.36011100  0.36028900  1
  O  O21  1  0.02625000  0.35130200  0.95973400  1
  O  O22  1  0.39759300  0.19687700  0.18944000  1
  O  O23  1  0.30040800  0.80383000  0.71828400  1
  O  O24  1  0.69697900  0.19310600  0.28017900  1
  O  O25  1  0.59294700  0.79054000  0.81447200  1
  O  O26  1  0.98142100  0.65811400  0.04204100  1
  O  O27  1  0.76692300  0.62784900  0.64415700  1
  O  O28  1  0.55599800  0.98729400  0.63795800  1
  O  O29  1  0.98543800  0.33485000  0.20979500  1
  O  O30  1  0.07154500  0.80380500  0.56046800  1
  O  O31  1  0.94794100  0.97706000  0.38816100  1
  O  O32  1  0.64000200  0.40747600  0.00652800  1
  O  O33  1  0.31830400  0.20430200  0.03347900  1
  O  O34  1  0.05153400  0.41648600  0.75602000  1
  O  O35  1  0.40212800  0.64183000  0.38878900  1
  O  O36  1  0.09433400  0.36228200  0.10706600  1
  O  O37  1  0.19356000  0.80675500  0.47025000  1
  O  O38  1  0.87227300  0.58728600  0.49374500  1
  O  O39  1  0.54825600  0.01646500  0.11095300  1
  O  O40  1  0.51169400  0.65936800  0.28962200  1
  O  O41  1  0.52297600  0.34268900  0.45873100  1
  O  O42  1  0.79771000  0.80141200  0.21831200  1
  O  O43  1  0.08890100  0.78757300  0.31605900  1
  O  O44  1  0.26641400  0.62929400  0.14705200  1
  O  O45  1  0.06171700  0.98603700  0.14191200  1
  O  O46  1  0.57081600  0.80308500  0.05996300  1
  O  O47  1  0.54823800  0.41170500  0.25645400  1
loop_
_geom_bond_atom_site_label_1
_geom_bond_atom_site_label_2
_geom_bond_distance
_geom_bond_site_symmetry_2
Na0 O5 1.922877 1_565
Na0 O23 1.996425 1_555
Na0 Sn1 2.319851 1_565
Na0 O8 2.899594 1_555
Na1 O16 2.243458 1_555
Na1 O12 2.243692 1_555
Na1 O7 2.388055 1_555
Na1 O37 2.466050 1_545
Na2 O15 1.847373 1_555
Na2 O34 2.230805 1_555
Na2 O21 2.339598 1_555
Na2 P0 2.344499 1_555
Na2 O5 2.427008 1_555
Na2 O0 2.823481 1_555
Na3 O28 2.077601 1_555
Na3 Sn2 2.249343 1_555
Na3 O10 2.345241 1_565
Na3 O37 2.394614 1_555
Na3 O19 2.400241 1_565
Na4 O24 1.932772 1_555
Na4 O42 1.973580 1_545
Na4 Sn3 2.235166 1_555
Na4 O31 2.879662 1_545
Na5 O44 1.950919 1_555
Na5 O39 2.392206 1_565
Na5 O19 2.671260 1_565
Na5 P11 2.718871 1_455
Na5 O45 2.905042 1_555
Na6 O36 2.283487 1_655
Na6 O39 2.300223 1_555
Na6 O29 2.462222 1_555
Na6 O14 2.472371 1_544
Na7 O38 1.837234 1_555
Na7 O47 2.244666 1_555
Na7 O41 2.448761 1_555
Na7 O24 2.515478 1_555
Na7 O13 2.770258 1_555
Fe0 O18 1.899774 1_555
Fe0 O27 2.011673 1_455
Fe0 O30 2.181338 1_555
Fe0 O23 2.201255 1_555
Fe0 Na0 2.319249 1_555
Fe1 O10 1.378774 1_555
Fe1 O12 1.688319 1_555
Fe1 Na3 2.326819 1_545
Fe2 O40 1.914475 1_555
Fe2 O44 2.026825 1_555
Fe2 O46 2.138528 1_555
Fe2 O42 2.176215 1_555
Fe2 Na4 2.382291 1_565
Fe3 O36 1.511069 1_555
Fe3 O33 1.512895 1_555
O0 O25 1.606356 1_555
O0 P6 1.785044 1_555
O0 P1 2.297787 1_555
O1 P9 1.381326 1_556
O1 Sn1 2.071223 1_555
O2 P0 2.308574 1_655
O3 P4 1.470776 1_555
O3 Sn1 2.169498 1_555
O4 P0 1.635492 1_655
O5 P0 1.653555 1_555
O5 Sn1 2.113209 1_555
O7 Sn1 1.870741 1_555
O8 P9 2.357402 1_566
O9 P3 1.727493 1_455
O10 P3 1.480471 1_555
O11 P4 1.253373 1_555
O11 Sn0 1.516982 1_555
O12 P1 1.155035 1_555
O13 O43 1.570355 1_655
O13 P11 1.813059 1_555
O13 P7 2.269057 1_655
O14 Sn0 1.455792 1_555
O14 P2 1.457903 1_555
O15 P2 1.722992 1_555
O17 P3 1.426735 1_555
O17 Sn3 2.034143 1_555
O19 P5 2.350236 1_555
O20 P10 1.459718 1_555
O20 Sn3 2.155706 1_455
O22 P5 1.571456 1_555
O22 O47 1.702992 1_555
O23 P6 1.656091 1_555
O24 P5 1.666721 1_555
O24 Sn3 2.112498 1_555
O25 P6 1.658105 1_555
O27 P1 1.420973 1_555
O28 P6 2.373438 1_555
O29 Sn3 1.877499 1_555
O30 P8 1.247326 1_555
O31 P3 2.360341 1_565
O32 P9 1.705273 1_555
O33 P9 1.434381 1_555
O34 O4 1.664062 1_455
O34 P0 1.790779 1_555
O34 P4 2.323550 1_455
O35 P10 1.304241 1_555
O35 Sn2 1.513923 1_555
O36 P7 1.226624 1_555
O37 Sn2 1.459565 1_555
O37 P8 1.484495 1_555
O38 P8 1.694001 1_655
O42 P11 1.650889 1_555
O43 P11 1.677750 1_455
O44 P7 1.419341 1_555
O45 P11 2.315697 1_455
O46 P2 1.277868 1_554
O47 P5 1.775583 1_555
O47 P10 2.308774 1_555
