# generated using pymatgen
data_Sm2TiO5
_symmetry_space_group_name_H-M   'P 1'
_cell_length_a   3.78285275
_cell_length_b   10.59855912
_cell_length_c   11.40109648
_cell_angle_alpha   90.00000000
_cell_angle_beta   90.00000000
_cell_angle_gamma   90.00000000
_symmetry_Int_Tables_number   1
_chemical_formula_structural   Sm2TiO5
_chemical_formula_sum   'Sm8 Ti4 O20'
_cell_volume   457.10174999
_cell_formula_units_Z   4
loop_
 _symmetry_equiv_pos_site_id
 _symmetry_equiv_pos_as_xyz
  1  'x, y, z'
loop_
 _atom_site_type_symbol
 _atom_site_label
 _atom_site_symmetry_multiplicity
 _atom_site_fract_x
 _atom_site_fract_y
 _atom_site_fract_z
 _atom_site_occupancy
  Sm  Sm0  1  0.25000000  0.10922947  0.27834560  1
  Sm  Sm1  1  0.25000000  0.13709445  0.94341637  1
  Sm  Sm2  1  0.75000000  0.36290555  0.44341637  1
  Sm  Sm3  1  0.75000000  0.39077053  0.77834560  1
  Sm  Sm4  1  0.25000000  0.60922947  0.22165440  1
  Sm  Sm5  1  0.25000000  0.63709445  0.55658363  1
  Sm  Sm6  1  0.75000000  0.86290555  0.05658363  1
  Sm  Sm7  1  0.75000000  0.89077053  0.72165440  1
  Ti  Ti0  1  0.25000000  0.17949989  0.62177583  1
  Ti  Ti1  1  0.75000000  0.32050011  0.12177583  1
  Ti  Ti2  1  0.25000000  0.67949989  0.87822417  1
  Ti  Ti3  1  0.75000000  0.82050011  0.37822417  1
  O  O0  1  0.75000000  0.00758255  0.89581217  1
  O  O1  1  0.25000000  0.01588902  0.65724336  1
  O  O2  1  0.25000000  0.22340470  0.46074954  1
  O  O3  1  0.75000000  0.23562892  0.61890431  1
  O  O4  1  0.75000000  0.23713319  0.26988956  1
  O  O5  1  0.25000000  0.26286681  0.76988956  1
  O  O6  1  0.25000000  0.26437108  0.11890431  1
  O  O7  1  0.75000000  0.27659530  0.96074954  1
  O  O8  1  0.75000000  0.48411098  0.15724336  1
  O  O9  1  0.25000000  0.49241745  0.39581217  1
  O  O10  1  0.75000000  0.50758255  0.60418783  1
  O  O11  1  0.25000000  0.51588902  0.84275664  1
  O  O12  1  0.25000000  0.72340470  0.03925046  1
  O  O13  1  0.75000000  0.73562892  0.88109569  1
  O  O14  1  0.75000000  0.73713319  0.23011044  1
  O  O15  1  0.25000000  0.76286681  0.73011044  1
  O  O16  1  0.25000000  0.76437108  0.38109569  1
  O  O17  1  0.75000000  0.77659530  0.53925046  1
  O  O18  1  0.75000000  0.98411098  0.34275664  1
  O  O19  1  0.25000000  0.99241745  0.10418783  1
loop_
_geom_bond_atom_site_label_1
_geom_bond_atom_site_label_2
_geom_bond_distance
_geom_bond_site_symmetry_2
O0 Sm7 2.339937 1_545
O0 Sm6 2.389770 1_546
O0 Sm1 2.399208 1_555
O0 Sm1 2.399208 1_655
O1 Ti0 1.780564 1_555
O1 Sm7 2.423891 1_445
O1 Sm7 2.423891 1_545
O2 Ti0 1.893930 1_555
O2 Sm0 2.406051 1_555
O2 Sm2 2.408845 1_555
O2 Sm2 2.408845 1_455
O3 Ti0 1.983042 1_555
O3 Ti0 1.983042 1_655
O3 Sm2 2.413024 1_555
O3 Sm3 2.451136 1_555
O4 Ti1 1.905850 1_555
O4 Sm0 2.329040 1_555
O4 Sm0 2.329040 1_655
O4 Sm2 2.385572 1_555
O5 Ti0 1.905850 1_555
O5 Sm3 2.329040 1_455
O5 Sm3 2.329040 1_555
O5 Sm1 2.385572 1_555
O6 Ti1 1.983042 1_555
O6 Ti1 1.983042 1_455
O6 Sm1 2.413024 1_554
O6 Sm0 2.451136 1_555
O7 Ti1 1.893930 1_556
O7 Sm3 2.406051 1_555
O7 Sm1 2.408845 1_655
O7 Sm1 2.408845 1_555
O8 Ti1 1.780564 1_555
O8 Sm4 2.423891 1_555
O8 Sm4 2.423891 1_655
O9 Sm4 2.339937 1_555
O9 Sm5 2.389770 1_555
O9 Sm2 2.399208 1_555
O9 Sm2 2.399208 1_455
O10 Sm3 2.339937 1_555
O10 Sm2 2.389770 1_555
O10 Sm5 2.399208 1_655
O10 Sm5 2.399208 1_555
O11 Ti2 1.780564 1_555
O11 Sm3 2.423891 1_555
O11 Sm3 2.423891 1_455
O12 Ti2 1.893930 1_554
O12 Sm4 2.406051 1_555
O12 Sm6 2.408845 1_555
O12 Sm6 2.408845 1_455
O13 Ti2 1.983042 1_655
O13 Ti2 1.983042 1_555
O13 Sm6 2.413024 1_556
O13 Sm7 2.451136 1_555
O14 Ti3 1.905850 1_555
O14 Sm4 2.329040 1_555
O14 Sm4 2.329040 1_655
O14 Sm6 2.385572 1_555
O15 Ti2 1.905850 1_555
O15 Sm7 2.329040 1_555
O15 Sm7 2.329040 1_455
O15 Sm5 2.385572 1_555
O16 Ti3 1.983042 1_555
O16 Ti3 1.983042 1_455
O16 Sm5 2.413024 1_555
O16 Sm4 2.451136 1_555
O17 Ti3 1.893930 1_555
O17 Sm7 2.406051 1_555
O17 Sm5 2.408845 1_655
O17 Sm5 2.408845 1_555
O18 Ti3 1.780564 1_555
O18 Sm0 2.423891 1_665
O18 Sm0 2.423891 1_565
O19 Sm0 2.339937 1_565
O19 Sm1 2.389770 1_564
O19 Sm6 2.399208 1_555
O19 Sm6 2.399208 1_455
