# generated using pymatgen
data_Na3CoPCO7
_symmetry_space_group_name_H-M   'P 1'
_cell_length_a   8.99746995
_cell_length_b   5.29755548
_cell_length_c   6.62277902
_cell_angle_alpha   89.99385723
_cell_angle_beta   90.00236298
_cell_angle_gamma   90.17234123
_symmetry_Int_Tables_number   1
_chemical_formula_structural   Na3CoPCO7
_chemical_formula_sum   'Na6 Co2 P2 C2 O14'
_cell_volume   315.67065771
_cell_formula_units_Z   2
loop_
 _symmetry_equiv_pos_site_id
 _symmetry_equiv_pos_as_xyz
  1  'x, y, z'
loop_
 _atom_site_type_symbol
 _atom_site_label
 _atom_site_symmetry_multiplicity
 _atom_site_fract_x
 _atom_site_fract_y
 _atom_site_fract_z
 _atom_site_occupancy
  Na  Na0  1  0.00577600  0.00598700  0.48602700  1
  Na  Na1  1  0.16837400  0.43859500  0.21871000  1
  Na  Na2  1  0.48918200  0.48892500  0.49114800  1
  Na  Na3  1  0.51078400  0.51095600  0.99119600  1
  Na  Na4  1  0.83165700  0.56144400  0.71875500  1
  Na  Na5  1  0.99421900  0.99401000  0.98602700  1
  Co  Co0  1  0.29322600  0.03044800  0.74873400  1
  Co  Co1  1  0.70668300  0.96931800  0.24884400  1
  P  P0  1  0.34769200  0.98158800  0.23789800  1
  P  P1  1  0.65230500  0.01845300  0.73787200  1
  C  C0  1  0.15453000  0.49979900  0.73716300  1
  C  C1  1  0.84550100  0.50021300  0.23709600  1
  O  O0  1  0.04852000  0.33240000  0.74298600  1
  O  O1  1  0.12035400  0.74046500  0.73177100  1
  O  O2  1  0.25145500  0.06698000  0.05122900  1
  O  O3  1  0.25869900  0.07964000  0.42458400  1
  O  O4  1  0.29196000  0.42983900  0.73796800  1
  O  O5  1  0.36644300  0.69358700  0.23864800  1
  O  O6  1  0.50120300  0.11899900  0.22782700  1
  O  O7  1  0.49877700  0.88109700  0.72759800  1
  O  O8  1  0.63358700  0.30645300  0.73868000  1
  O  O9  1  0.70807500  0.57023500  0.23787200  1
  O  O10  1  0.74121800  0.92029900  0.92460500  1
  O  O11  1  0.74861100  0.93311000  0.55126200  1
  O  O12  1  0.87965100  0.25955200  0.23175100  1
  O  O13  1  0.95151400  0.66760700  0.24294800  1
loop_
_geom_bond_atom_site_label_1
_geom_bond_atom_site_label_2
_geom_bond_distance
_geom_bond_site_symmetry_2
Na0 O3 2.343329 1_555
Na0 O11 2.384158 1_445
Na0 O1 2.387097 1_545
Na0 O12 2.436514 1_455
Na0 O0 2.455738 1_555
Na0 O13 2.457369 1_445
Na1 O5 2.236890 1_555
Na1 O13 2.306315 1_455
Na1 O2 2.382029 1_555
Na1 O3 2.478743 1_555
Na1 O12 2.764184 1_455
Na2 O5 2.279948 1_555
Na2 O8 2.305875 1_555
Na2 O4 2.432209 1_555
Na2 O7 2.602980 1_555
Na2 O9 2.621652 1_555
Na2 O6 2.625910 1_555
Na3 O8 2.280141 1_555
Na3 O5 2.305751 1_556
Na3 O9 2.432097 1_556
Na3 O6 2.602525 1_556
Na3 O4 2.620772 1_555
Na3 O7 2.627688 1_555
Na4 O8 2.236880 1_555
Na4 O0 2.306395 1_655
Na4 O11 2.381965 1_555
Na4 O10 2.478848 1_555
Na4 O1 2.763919 1_655
Na5 O10 2.344018 1_555
Na5 O2 2.384797 1_666
Na5 O12 2.387293 1_566
Na5 O1 2.436670 1_655
Na5 O13 2.455237 1_556
Na5 O0 2.457086 1_665
Co0 O7 2.018627 1_545
Co0 O2 2.047615 1_556
Co0 O4 2.117054 1_555
Co0 O3 2.184804 1_555
Co0 O1 2.185746 1_545
Co1 O6 2.018655 1_565
Co1 O11 2.047143 1_555
Co1 O9 2.115495 1_555
Co1 O10 2.185364 1_554
Co1 O12 2.187324 1_565
C0 O4 1.291948 1_555
C0 O0 1.300997 1_555
C0 O1 1.312880 1_555
C1 O9 1.292008 1_555
C1 O13 1.301008 1_555
C1 O12 1.312798 1_555
O2 P0 1.576359 1_545
O3 P0 1.562789 1_545
O5 P0 1.535513 1_555
O6 P0 1.560782 1_545
O7 P1 1.560842 1_565
O8 P1 1.535476 1_555
O10 P1 1.562706 1_565
O11 P1 1.576451 1_565
