# generated using pymatgen
data_Rb8SnO6
_symmetry_space_group_name_H-M   'P 1'
_cell_length_a   7.54939315
_cell_length_b   7.54939315
_cell_length_c   15.72966600
_cell_angle_alpha   90.00000000
_cell_angle_beta   90.00000000
_cell_angle_gamma   119.99999251
_symmetry_Int_Tables_number   1
_chemical_formula_structural   Rb8SnO6
_chemical_formula_sum   'Rb16 Sn2 O12'
_cell_volume   776.37984127
_cell_formula_units_Z   2
loop_
 _symmetry_equiv_pos_site_id
 _symmetry_equiv_pos_as_xyz
  1  'x, y, z'
loop_
 _atom_site_type_symbol
 _atom_site_label
 _atom_site_symmetry_multiplicity
 _atom_site_fract_x
 _atom_site_fract_y
 _atom_site_fract_z
 _atom_site_occupancy
  Rb  Rb0  1  0.00000000  0.71740900  0.77238000  1
  Rb  Rb1  1  0.00000000  0.60447900  0.12041500  1
  Rb  Rb2  1  0.00000000  0.39552100  0.62041500  1
  Rb  Rb3  1  0.00000000  0.28259100  0.27238000  1
  Rb  Rb4  1  0.33333300  0.66666700  0.41677700  1
  Rb  Rb5  1  0.33333300  0.66666700  0.91677700  1
  Rb  Rb6  1  0.28259100  0.28259100  0.77238000  1
  Rb  Rb7  1  0.39552100  0.39552100  0.12041500  1
  Rb  Rb8  1  0.60447900  0.60447900  0.62041500  1
  Rb  Rb9  1  0.28259100  0.00000000  0.27238000  1
  Rb  Rb10  1  0.71740900  0.71740900  0.27238000  1
  Rb  Rb11  1  0.39552100  0.00000000  0.62041500  1
  Rb  Rb12  1  0.66666700  0.33333300  0.91677700  1
  Rb  Rb13  1  0.66666700  0.33333300  0.41677700  1
  Rb  Rb14  1  0.60447900  0.00000000  0.12041500  1
  Rb  Rb15  1  0.71740900  0.00000000  0.77238000  1
  Sn  Sn0  1  0.00000000  0.00000000  0.99346800  1
  Sn  Sn1  1  0.00000000  0.00000000  0.49346800  1
  O  O0  1  0.00000000  0.74717800  0.95280600  1
  O  O1  1  0.00000000  0.25282200  0.45280600  1
  O  O2  1  0.33333300  0.66666700  0.22918300  1
  O  O3  1  0.00000000  0.00000000  0.12340600  1
  O  O4  1  0.00000000  0.00000000  0.62340600  1
  O  O5  1  0.33333300  0.66666700  0.72918300  1
  O  O6  1  0.25282200  0.25282200  0.95280600  1
  O  O7  1  0.25282200  0.00000000  0.45280600  1
  O  O8  1  0.74717800  0.74717800  0.45280600  1
  O  O9  1  0.66666700  0.33333300  0.72918300  1
  O  O10  1  0.66666700  0.33333300  0.22918300  1
  O  O11  1  0.74717800  0.00000000  0.95280600  1
loop_
_geom_bond_atom_site_label_1
_geom_bond_atom_site_label_2
_geom_bond_distance
_geom_bond_site_symmetry_2
O0 Sn0 2.012969 1_565
O0 Rb0 2.846925 1_555
O0 Rb1 2.848041 1_556
O0 Rb5 2.924503 1_555
O0 Rb12 2.924508 1_455
O1 Sn1 2.012969 1_555
O1 Rb3 2.846925 1_555
O1 Rb2 2.848041 1_555
O1 Rb13 2.924503 1_455
O1 Rb4 2.924508 1_555
O2 Rb9 2.811582 1_565
O2 Rb3 2.811587 1_555
O2 Rb10 2.811589 1_555
O2 Rb1 2.880744 1_555
O2 Rb14 2.880746 1_565
O2 Rb7 2.880750 1_555
O2 Rb4 2.950791 1_555
O3 Sn0 2.043881 1_554
O3 Rb14 2.986314 1_455
O3 Rb1 2.986314 1_545
O3 Rb7 2.986314 1_555
O3 Rb3 3.168985 1_555
O3 Rb9 3.168985 1_555
O3 Rb10 3.168985 1_445
O4 Sn1 2.043881 1_555
O4 Rb11 2.986314 1_555
O4 Rb2 2.986314 1_555
O4 Rb8 2.986314 1_445
O4 Rb0 3.168985 1_545
O4 Rb15 3.168985 1_455
O4 Rb6 3.168985 1_555
O5 Rb0 2.811582 1_555
O5 Rb15 2.811587 1_565
O5 Rb6 2.811589 1_555
O5 Rb11 2.880744 1_565
O5 Rb2 2.880746 1_555
O5 Rb8 2.880750 1_555
O5 Rb5 2.950791 1_555
O6 Sn0 2.012969 1_555
O6 Rb6 2.846925 1_555
O6 Rb7 2.848041 1_556
O6 Rb5 2.924510 1_555
O6 Rb12 2.924510 1_555
O7 Sn1 2.012969 1_555
O7 Rb9 2.846925 1_555
O7 Rb11 2.848041 1_555
O7 Rb4 2.924503 1_545
O7 Rb13 2.924508 1_555
O8 Sn1 2.012969 1_665
O8 Rb10 2.846925 1_555
O8 Rb8 2.848041 1_555
O8 Rb4 2.924510 1_555
O8 Rb13 2.924510 1_555
O9 Rb15 2.811582 1_555
O9 Rb0 2.811587 1_655
O9 Rb6 2.811589 1_555
O9 Rb2 2.880744 1_655
O9 Rb11 2.880746 1_555
O9 Rb8 2.880750 1_555
O9 Rb12 2.950791 1_555
O10 Rb3 2.811582 1_655
O10 Rb9 2.811587 1_555
O10 Rb10 2.811589 1_555
O10 Rb14 2.880744 1_555
O10 Rb1 2.880746 1_655
O10 Rb7 2.880750 1_555
O10 Rb13 2.950791 1_555
O11 Sn0 2.012969 1_655
O11 Rb15 2.846925 1_555
O11 Rb14 2.848041 1_556
O11 Rb12 2.924503 1_555
O11 Rb5 2.924508 1_545
