# generated using pymatgen
data_LiFe4(BO3)4
_symmetry_space_group_name_H-M   'P 1'
_cell_length_a   5.25212600
_cell_length_b   9.14993445
_cell_length_c   11.41173944
_cell_angle_alpha   113.35232760
_cell_angle_beta   103.11320385
_cell_angle_gamma   89.01086834
_symmetry_Int_Tables_number   1
_chemical_formula_structural   LiFe4(BO3)4
_chemical_formula_sum   'Li2 Fe8 B8 O24'
_cell_volume   488.73529273
_cell_formula_units_Z   2
loop_
 _symmetry_equiv_pos_site_id
 _symmetry_equiv_pos_as_xyz
  1  'x, y, z'
loop_
 _atom_site_type_symbol
 _atom_site_label
 _atom_site_symmetry_multiplicity
 _atom_site_fract_x
 _atom_site_fract_y
 _atom_site_fract_z
 _atom_site_occupancy
  Li  Li0  1  0.27688000  0.27311500  0.89220400  1
  Li  Li1  1  0.26056700  0.24733100  0.15539600  1
  Fe  Fe0  1  0.00975400  0.35000200  0.37971800  1
  Fe  Fe1  1  0.26339900  0.92944800  0.87501500  1
  Fe  Fe2  1  0.48853900  0.15068500  0.62897700  1
  Fe  Fe3  1  0.23762000  0.57421900  0.13113500  1
  Fe  Fe4  1  0.77343000  0.44252600  0.88090000  1
  Fe  Fe5  1  0.51956700  0.85256100  0.37790800  1
  Fe  Fe6  1  0.98363700  0.64878700  0.62943700  1
  Fe  Fe7  1  0.73123400  0.05857700  0.12210500  1
  B  B0  1  0.02923300  0.68629500  0.37997100  1
  B  B1  1  0.26869900  0.59675100  0.87128200  1
  B  B2  1  0.47296600  0.81301300  0.62543400  1
  B  B3  1  0.23635900  0.90611400  0.13518300  1
  B  B4  1  0.52100000  0.18276900  0.37289400  1
  B  B5  1  0.77033400  0.11820500  0.88458600  1
  B  B6  1  0.97937900  0.31564000  0.63259100  1
  B  B7  1  0.73321000  0.38317900  0.11927200  1
  O  O0  1  0.02799900  0.11932800  0.89027000  1
  O  O1  1  0.11699700  0.69677300  0.82534500  1
  O  O2  1  0.14945300  0.49643300  0.91433200  1
  O  O3  1  0.15188500  0.21013900  0.64930500  1
  O  O4  1  0.02557800  0.41479200  0.57203800  1
  O  O5  1  0.23968200  0.82459100  0.66591900  1
  O  O6  1  0.26284900  0.67472100  0.33936000  1
  O  O7  1  0.52844400  0.58883800  0.87518200  1
  O  O8  1  0.60838500  0.21789100  0.83341700  1
  O  O9  1  0.47712500  0.08649300  0.43525800  1
  O  O10  1  0.34379800  0.28514900  0.35125500  1
  O  O11  1  0.64054600  0.02840500  0.93157000  1
  O  O12  1  0.35593300  0.00745200  0.09312400  1
  O  O13  1  0.63979300  0.70126100  0.63116300  1
  O  O14  1  0.53314300  0.92523800  0.57764800  1
  O  O15  1  0.38689600  0.80643900  0.18196100  1
  O  O16  1  0.47030900  0.37847100  0.10793000  1
  O  O17  1  0.75149400  0.33083400  0.67858000  1
  O  O18  1  0.74851800  0.16984900  0.32705300  1
  O  O19  1  0.96916000  0.57465500  0.42830300  1
  O  O20  1  0.86147600  0.79733700  0.37327100  1
  O  O21  1  0.86208300  0.47361000  0.07341900  1
  O  O22  1  0.89172000  0.28647800  0.17411000  1
  O  O23  1  0.97600700  0.91312600  0.13011000  1
loop_
_geom_bond_atom_site_label_1
_geom_bond_atom_site_label_2
_geom_bond_distance
_geom_bond_site_symmetry_2
Li0 O0 1.927428 1_555
Li0 O8 1.991914 1_555
Li0 O2 2.075416 1_555
Li0 O16 2.244879 1_556
Li0 O3 2.523403 1_555
Li1 O16 1.943806 1_555
Li1 O22 2.007460 1_455
Li1 O10 2.062817 1_555
Li1 O12 2.111963 1_555
Fe0 O10 1.898821 1_555
Fe0 O19 1.926964 1_455
Fe0 O18 1.969627 1_455
Fe0 O4 2.015581 1_555
Fe0 O22 2.121025 1_455
Fe1 O11 2.044164 1_565
Fe1 O1 2.084968 1_555
Fe1 O0 2.088328 1_565
Fe1 O5 2.164271 1_555
Fe1 O12 2.235062 1_566
Fe2 O3 1.878554 1_555
Fe2 O14 1.934143 1_545
Fe2 O17 1.982174 1_555
Fe2 O9 2.036507 1_555
Fe2 O8 2.104042 1_555
Fe3 O21 2.040597 1_455
Fe3 O15 2.083272 1_555
Fe3 O16 2.113509 1_555
Fe3 O6 2.153742 1_555
Fe3 O2 2.222095 1_554
Fe4 O7 1.850343 1_555
Fe4 O2 1.957477 1_655
Fe4 O21 2.041920 1_556
Fe4 O8 2.057940 1_555
Fe4 O17 2.097893 1_555
Fe5 O20 1.863714 1_555
Fe5 O6 1.974454 1_555
Fe5 O9 1.999690 1_565
Fe5 O15 2.053973 1_555
Fe5 O14 2.090242 1_555
Fe6 O13 1.863046 1_555
Fe6 O5 1.964452 1_655
Fe6 O4 1.999753 1_655
Fe6 O1 2.050222 1_655
Fe6 O19 2.102987 1_555
Fe7 O23 1.848320 1_545
Fe7 O12 1.956256 1_555
Fe7 O11 2.022265 1_554
Fe7 O22 2.064868 1_555
Fe7 O18 2.129314 1_555
B0 O20 1.347060 1_455
B0 O6 1.395027 1_555
B0 O19 1.408531 1_455
B1 O7 1.356428 1_555
B1 O1 1.383061 1_555
B1 O2 1.411771 1_555
B2 O13 1.346707 1_555
B2 O5 1.392640 1_555
B2 O14 1.408909 1_555
B3 O23 1.356927 1_455
B3 O15 1.382537 1_555
B3 O12 1.412173 1_565
B4 O10 1.361506 1_555
B4 O9 1.383491 1_555
B4 O18 1.394736 1_555
B5 O0 1.340084 1_655
B5 O11 1.400609 1_555
B5 O8 1.437533 1_555
B6 O3 1.351470 1_655
B6 O4 1.392885 1_655
B6 O17 1.395964 1_555
B7 O16 1.357102 1_555
B7 O21 1.392795 1_555
B7 O22 1.429937 1_555
