# generated using pymatgen
data_Li3Fe4(Si3O10)2
_symmetry_space_group_name_H-M   'P 1'
_cell_length_a   5.49530700
_cell_length_b   5.51151718
_cell_length_c   16.64361879
_cell_angle_alpha   86.14323983
_cell_angle_beta   86.76361332
_cell_angle_gamma   60.62101636
_symmetry_Int_Tables_number   1
_chemical_formula_structural   Li3Fe4(Si3O10)2
_chemical_formula_sum   'Li3 Fe4 Si6 O20'
_cell_volume   438.10940318
_cell_formula_units_Z   1
loop_
 _symmetry_equiv_pos_site_id
 _symmetry_equiv_pos_as_xyz
  1  'x, y, z'
loop_
 _atom_site_type_symbol
 _atom_site_label
 _atom_site_symmetry_multiplicity
 _atom_site_fract_x
 _atom_site_fract_y
 _atom_site_fract_z
 _atom_site_occupancy
  Li  Li0  1  0.35412900  0.15324700  0.55195600  1
  Li  Li1  1  0.81703100  0.56790900  0.26747200  1
  Li  Li2  1  0.85013600  0.64007600  0.94932600  1
  Fe  Fe0  1  0.99352300  0.19390000  0.41628300  1
  Fe  Fe1  1  0.18801800  0.99376500  0.92315800  1
  Fe  Fe2  1  0.80749900  0.00382600  0.08158700  1
  Fe  Fe3  1  0.00308300  0.81723300  0.57882500  1
  Si  Si0  1  0.13292900  0.87025800  0.24905500  1
  Si  Si1  1  0.31436500  0.53553700  0.40271600  1
  Si  Si2  1  0.47238200  0.67664900  0.09904500  1
  Si  Si3  1  0.51953000  0.32354100  0.90129100  1
  Si  Si4  1  0.67523100  0.48237000  0.59914800  1
  Si  Si5  1  0.85490900  0.14431900  0.75058900  1
  O  O0  1  0.05736100  0.14342900  0.29858800  1
  O  O1  1  0.11424400  0.04580700  0.81128300  1
  O  O2  1  0.17369000  0.61004500  0.31293600  1
  O  O3  1  0.51776500  0.36576100  0.09400700  1
  O  O4  1  0.10674100  0.81244000  0.45547200  1
  O  O5  1  0.19221600  0.90401000  0.04827800  1
  O  O6  1  0.29036500  0.26657300  0.43932700  1
  O  O7  1  0.23383600  0.31778700  0.93327200  1
  O  O8  1  0.37449300  0.49335500  0.58916600  1
  O  O9  1  0.43049300  0.76264300  0.19534100  1
  O  O10  1  0.57548900  0.22445900  0.80815400  1
  O  O11  1  0.62903500  0.49383100  0.39448400  1
  O  O12  1  0.73498200  0.70827500  0.06090600  1
  O  O13  1  0.67862200  0.76973400  0.56689600  1
  O  O14  1  0.79750700  0.07394700  0.95106500  1
  O  O15  1  0.91735100  0.21047700  0.54864900  1
  O  O16  1  0.50794000  0.62238400  0.91293600  1
  O  O17  1  0.78039000  0.42318400  0.69241400  1
  O  O18  1  0.89167300  0.89365400  0.19209000  1
  O  O19  1  0.95077200  0.88641700  0.69146500  1
loop_
_geom_bond_atom_site_label_1
_geom_bond_atom_site_label_2
_geom_bond_distance
_geom_bond_site_symmetry_2
Li0 O6 1.931004 1_555
Li0 O13 1.997655 1_545
Li0 O8 2.068737 1_555
Li0 O15 2.265694 1_455
Li1 O0 2.090083 1_655
Li1 O9 2.232241 1_555
Li1 O2 2.259558 1_655
Li1 O18 2.308040 1_555
Li1 O11 2.398724 1_555
Li2 O12 1.928306 1_556
Li2 O7 1.999492 1_655
Li2 O16 2.056444 1_555
Li2 O14 2.265510 1_565
Fe0 O11 1.904955 1_555
Fe0 O6 1.923758 1_655
Fe0 O4 1.952081 1_645
Fe0 O0 1.984335 1_655
Fe0 O15 2.218653 1_555
Fe1 O1 1.900785 1_565
Fe1 O7 1.940982 1_565
Fe1 O16 1.947238 1_555
Fe1 O14 2.000205 1_465
Fe1 O5 2.106535 1_556
Fe2 O3 1.859854 1_555
Fe2 O18 1.906688 1_545
Fe2 O12 1.912730 1_545
Fe2 O5 1.961402 1_645
Fe2 O14 2.179730 1_554
Fe3 O19 1.915839 1_455
Fe3 O13 1.947316 1_455
Fe3 O8 1.950745 1_555
Fe3 O15 2.012488 1_465
Fe3 O4 2.097770 1_555
O0 Si0 1.622886 1_545
O1 Si5 1.635782 1_455
O2 Si1 1.653927 1_555
O2 Si0 1.656502 1_555
O3 Si2 1.613343 1_555
O4 Si1 1.661497 1_555
O5 Si2 1.663151 1_555
O6 Si1 1.627095 1_555
O7 Si3 1.643587 1_555
O8 Si4 1.641337 1_555
O9 Si0 1.667206 1_555
O9 Si2 1.673260 1_555
O10 Si3 1.640424 1_555
O10 Si5 1.641998 1_555
O11 Si1 1.627655 1_555
O12 Si2 1.626115 1_555
O13 Si4 1.646332 1_555
O14 Si3 1.685201 1_555
O15 Si4 1.676070 1_555
O16 Si3 1.641070 1_555
O17 Si5 1.641491 1_555
O17 Si4 1.642605 1_555
O18 Si0 1.622021 1_655
O19 Si5 1.631331 1_565
