# generated using pymatgen
data_Fe5(O4F)2
_symmetry_space_group_name_H-M   'P 1'
_cell_length_a   4.63453055
_cell_length_b   7.58441590
_cell_length_c   9.71754686
_cell_angle_alpha   109.55183263
_cell_angle_beta   91.54359128
_cell_angle_gamma   88.97360345
_symmetry_Int_Tables_number   1
_chemical_formula_structural   Fe5(O4F)2
_chemical_formula_sum   'Fe10 O16 F4'
_cell_volume   321.74718389
_cell_formula_units_Z   2
loop_
 _symmetry_equiv_pos_site_id
 _symmetry_equiv_pos_as_xyz
  1  'x, y, z'
loop_
 _atom_site_type_symbol
 _atom_site_label
 _atom_site_symmetry_multiplicity
 _atom_site_fract_x
 _atom_site_fract_y
 _atom_site_fract_z
 _atom_site_occupancy
  Fe  Fe0  1  0.48755800  0.31444700  0.90305200  1
  Fe  Fe1  1  0.47555800  0.09301100  0.31281700  1
  Fe  Fe2  1  0.48017400  0.89049700  0.69287500  1
  Fe  Fe3  1  0.53696600  0.70992600  0.09294800  1
  Fe  Fe4  1  0.51309000  0.49864200  0.48957800  1
  Fe  Fe5  1  0.98974700  0.60378500  0.80474200  1
  Fe  Fe6  1  0.98136300  0.18964600  0.60812000  1
  Fe  Fe7  1  0.98428100  0.80065500  0.40740400  1
  Fe  Fe8  1  0.00492700  0.40484200  0.19334300  1
  Fe  Fe9  1  0.03897800  0.99551000  0.00035400  1
  O  O0  1  0.79766700  0.76636300  0.98535500  1
  O  O1  1  0.78578800  0.95835400  0.58119900  1
  O  O2  1  0.81954900  0.56201200  0.36899100  1
  O  O3  1  0.80817000  0.36042000  0.77810900  1
  O  O4  1  0.69163600  0.65015100  0.66840100  1
  O  O5  1  0.70510900  0.47395100  0.07884700  1
  O  O6  1  0.69326500  0.85954200  0.27672700  1
  O  O7  1  0.68505400  0.26156000  0.47870500  1
  O  O8  1  0.29742800  0.13981200  0.72379900  1
  O  O9  1  0.30030700  0.72700000  0.51098600  1
  O  O10  1  0.30875400  0.33675300  0.31958300  1
  O  O11  1  0.32386400  0.93419800  0.12778800  1
  O  O12  1  0.31555100  0.55598100  0.92791200  1
  O  O13  1  0.17371400  0.03567200  0.42920800  1
  O  O14  1  0.18695100  0.83634900  0.81951700  1
  O  O15  1  0.19690900  0.24033000  0.02391100  1
  F  F0  1  0.80766000  0.15888800  0.17829700  1
  F  F1  1  0.69832800  0.06013800  0.88309200  1
  F  F2  1  0.19356100  0.43502800  0.61979300  1
  F  F3  1  0.21809100  0.64653700  0.21454500  1
loop_
_geom_bond_atom_site_label_1
_geom_bond_atom_site_label_2
_geom_bond_distance
_geom_bond_site_symmetry_2
Fe0 O12 1.926534 1_555
Fe0 O5 1.991484 1_556
Fe0 O8 1.994962 1_555
Fe0 O15 2.015948 1_556
Fe0 O3 2.050043 1_555
Fe1 O11 1.921108 1_545
Fe1 O7 1.938125 1_555
Fe1 O6 1.953431 1_545
Fe1 O13 1.965083 1_555
Fe1 O10 1.972207 1_555
Fe2 O9 1.961461 1_555
Fe2 O1 1.982786 1_555
Fe2 O8 1.989764 1_565
Fe2 O14 1.994562 1_555
Fe2 O4 1.999576 1_555
Fe3 O0 1.767007 1_554
Fe3 O11 1.885661 1_555
Fe3 O6 1.898711 1_555
Fe3 O5 1.902843 1_555
Fe3 O12 1.920729 1_554
Fe4 O4 1.909168 1_555
Fe4 O7 1.925001 1_555
Fe4 O9 1.929809 1_555
Fe4 O10 1.932115 1_555
Fe4 O2 2.027919 1_555
Fe5 O14 1.961710 1_655
Fe5 O3 1.976419 1_555
Fe5 O4 1.995915 1_555
Fe5 O0 1.997413 1_555
Fe5 O12 2.004363 1_655
Fe6 O3 1.911209 1_555
Fe6 O1 1.924654 1_545
Fe6 O8 1.930802 1_655
Fe6 O13 1.966826 1_655
Fe6 O7 2.025855 1_555
Fe7 O2 1.892123 1_555
Fe7 O9 1.933391 1_655
Fe7 O13 1.945792 1_665
Fe7 O1 1.954823 1_555
Fe7 O6 1.974037 1_555
Fe8 O15 1.929626 1_555
Fe8 O5 1.929861 1_455
Fe8 O2 1.937256 1_455
Fe8 O10 2.014751 1_555
Fe9 O14 1.905521 1_554
Fe9 O11 1.941214 1_555
Fe9 O15 1.947066 1_565
Fe9 O0 2.045420 1_454
F0 Fe8 2.051424 1_655
F0 Fe9 2.071934 1_645
F0 Fe1 2.213699 1_555
F1 Fe9 2.068908 1_646
F1 Fe0 2.098647 1_555
F1 Fe2 2.109138 1_545
F2 Fe5 2.066164 1_455
F2 Fe6 2.088515 1_455
F2 Fe4 2.135904 1_555
F3 Fe8 2.044471 1_555
F3 Fe3 2.076328 1_555
F3 Fe7 2.156526 1_455
