# generated using pymatgen
data_Li3V3P8O29
_symmetry_space_group_name_H-M   'P 1'
_cell_length_a   9.75880400
_cell_length_b   9.76783988
_cell_length_c   14.19072194
_cell_angle_alpha   89.73675695
_cell_angle_beta   89.71816157
_cell_angle_gamma   60.06083133
_symmetry_Int_Tables_number   1
_chemical_formula_structural   Li3V3P8O29
_chemical_formula_sum   'Li6 V6 P16 O58'
_cell_volume   1172.16718081
_cell_formula_units_Z   2
loop_
 _symmetry_equiv_pos_site_id
 _symmetry_equiv_pos_as_xyz
  1  'x, y, z'
loop_
 _atom_site_type_symbol
 _atom_site_label
 _atom_site_symmetry_multiplicity
 _atom_site_fract_x
 _atom_site_fract_y
 _atom_site_fract_z
 _atom_site_occupancy
  Li  Li0  1  0.09405300  0.67367200  0.94974800  1
  Li  Li1  1  0.23373200  0.09407800  0.94579000  1
  Li  Li2  1  0.91624400  0.77920500  0.55069200  1
  Li  Li3  1  0.09580800  0.22571000  0.43617000  1
  Li  Li4  1  0.77239900  0.31229300  0.55709600  1
  Li  Li5  1  0.95566300  0.02804800  0.01407600  1
  V  V0  1  0.00135100  0.56573500  0.75065600  1
  V  V1  1  0.99367200  0.43713400  0.24373000  1
  V  V2  1  0.56739500  0.00042000  0.24996200  1
  V  V3  1  0.43951000  0.99551000  0.74780400  1
  V  V4  1  0.55856000  0.43502300  0.75554200  1
  V  V5  1  0.43559200  0.56675900  0.25128900  1
  P  P0  1  0.69268200  0.22380300  0.16079400  1
  P  P1  1  0.68742200  0.08624400  0.65963500  1
  P  P2  1  0.23009300  0.68719000  0.65363200  1
  P  P3  1  0.32896300  0.33293700  0.87005100  1
  P  P4  1  0.33010000  0.33256000  0.36819500  1
  P  P5  1  0.09072700  0.68716600  0.16032000  1
  P  P6  1  0.91062500  0.77062500  0.33958900  1
  P  P7  1  0.22714800  0.08502700  0.15730500  1
  P  P8  1  0.77611000  0.91645500  0.84472200  1
  P  P9  1  0.09018700  0.22950200  0.65811800  1
  P  P10  1  0.91296400  0.31031000  0.83891300  1
  P  P11  1  0.67077100  0.66192400  0.63154400  1
  P  P12  1  0.66280800  0.67099200  0.12996600  1
  P  P13  1  0.77201300  0.31548000  0.34303200  1
  P  P14  1  0.31370400  0.91230900  0.33933200  1
  P  P15  1  0.30613200  0.77700100  0.83948300  1
  O  O0  1  0.76595300  0.24515400  0.43483800  1
  O  O1  1  0.65981700  0.25677500  0.66233800  1
  O  O2  1  0.79230800  0.99134500  0.93042800  1
  O  O3  1  0.65343200  0.08783500  0.16884400  1
  O  O4  1  0.53809000  0.38417300  0.17113900  1
  O  O5  1  0.48041200  0.32950100  0.82506300  1
  O  O6  1  0.38247900  0.52620200  0.67980000  1
  O  O7  1  0.21416700  0.77811900  0.92320300  1
  O  O8  1  0.26227400  0.65370300  0.16838400  1
  O  O9  1  0.47401800  0.18201600  0.32204000  1
  O  O10  1  0.52443500  0.09428600  0.67926300  1
  O  O11  1  0.34184400  0.47371000  0.32224300  1
  O  O12  1  0.32120600  0.34381100  0.97414200  1
  O  O13  1  0.33193200  0.32937900  0.47295800  1
  O  O14  1  0.18423700  0.48862100  0.82667700  1
  O  O15  1  0.38385700  0.08497900  0.16960700  1
  O  O16  1  0.32562900  0.18506800  0.83078600  1
  O  O17  1  0.08429900  0.66014500  0.66370400  1
  O  O18  1  0.00132600  0.79361500  0.25047500  1
  O  O19  1  0.99220000  0.76049000  0.42912700  1
  O  O20  1  0.01499400  0.77094900  0.07084100  1
  O  O21  1  0.09005400  0.52877400  0.17275300  1
  O  O22  1  0.17783400  0.33732600  0.32850100  1
  O  O23  1  0.91542600  0.74099500  0.83567500  1
  O  O24  1  0.09856800  0.38155400  0.67953900  1
  O  O25  1  0.25860100  0.08562800  0.66824700  1
  O  O26  1  0.79363300  0.00197500  0.75129800  1
  O  O27  1  0.76586400  0.99490600  0.57391600  1
  O  O28  1  0.22628000  0.00492900  0.42312600  1
  O  O29  1  0.74129600  0.91427500  0.33240300  1
  O  O30  1  0.90359400  0.61841900  0.31838800  1
  O  O31  1  0.08742300  0.25784300  0.17016400  1
  O  O32  1  0.81961400  0.66350800  0.67643400  1
  O  O33  1  0.91496100  0.46797100  0.82604700  1
  O  O34  1  0.00304400  0.21323200  0.92109100  1
  O  O35  1  0.00722400  0.24405000  0.56750300  1
  O  O36  1  0.99090900  0.21110000  0.74272500  1
  O  O37  1  0.91806600  0.34012800  0.33669100  1
  O  O38  1  0.66644000  0.81508100  0.17494700  1
  O  O39  1  0.61661100  0.91791500  0.82804000  1
  O  O40  1  0.81417100  0.51842900  0.17362500  1
  O  O41  1  0.66864300  0.66634600  0.02572600  1
  O  O42  1  0.67764800  0.66787800  0.52768500  1
  O  O43  1  0.66765500  0.51469300  0.67186800  1
  O  O44  1  0.47293500  0.90792900  0.32229400  1
  O  O45  1  0.52525400  0.81303900  0.67905300  1
  O  O46  1  0.73954800  0.34713900  0.83276600  1
  O  O47  1  0.79320000  0.20240100  0.25643900  1
  O  O48  1  0.79216600  0.20470600  0.07764300  1
  O  O49  1  0.62034800  0.47554500  0.32286800  1
  O  O50  1  0.51791500  0.66786500  0.17558400  1
  O  O51  1  0.46714900  0.61797900  0.82650400  1
  O  O52  1  0.34141000  0.91561400  0.83813500  1
  O  O53  1  0.21009100  0.01915200  0.06634200  1
  O  O54  1  0.20874200  0.99109800  0.24456300  1
  O  O55  1  0.34495600  0.74037400  0.33488800  1
  O  O56  1  0.23782200  0.75906900  0.56486700  1
  O  O57  1  0.20848800  0.79728800  0.74468100  1
loop_
_geom_bond_atom_site_label_1
_geom_bond_atom_site_label_2
_geom_bond_distance
_geom_bond_site_symmetry_2
Li0 O20 1.929043 1_556
Li0 O7 1.934561 1_555
Li0 O23 2.228306 1_455
Li0 O14 2.349030 1_555
Li1 O53 1.915350 1_556
Li1 O34 1.983483 1_555
Li1 O52 2.158035 1_545
Li1 O16 2.241749 1_555
Li2 O19 1.847667 1_555
Li2 O27 1.901774 1_555
Li2 O17 2.172331 1_655
Li2 O32 2.525669 1_555
Li3 O28 1.888576 1_555
Li3 O35 2.021252 1_555
Li3 O37 2.079702 1_455
Li3 O22 2.237779 1_555
Li4 O0 1.869952 1_555
Li4 O35 2.048245 1_655
Li4 O1 2.074291 1_555
Li4 O43 2.366885 1_555
Li5 O48 1.894475 1_555
Li5 O2 2.161449 1_544
Li5 O20 2.413586 1_645
Li5 O34 2.456375 1_654
Li5 O53 2.554346 1_655
O0 P13 1.484659 1_555
O1 P1 1.549595 1_555
O1 V4 2.012019 1_555
O2 P8 1.471326 1_555
O3 P0 1.558718 1_555
O3 V2 1.859077 1_555
O4 P0 1.546740 1_555
O4 V5 1.923988 1_555
O5 P3 1.592001 1_555
O5 V4 1.839878 1_555
O6 P2 1.577351 1_555
O6 V4 1.839284 1_555
O7 P15 1.482185 1_555
O8 P5 1.542036 1_555
O8 V5 1.882213 1_555
O9 P4 1.581835 1_555
O9 V2 1.848525 1_555
O10 P1 1.576311 1_555
O10 V3 1.829038 1_545
O11 P4 1.577334 1_555
O11 V5 1.867993 1_555
O12 P3 1.480281 1_555
O13 P4 1.486853 1_555
O14 P3 1.594444 1_555
O14 V0 1.893699 1_555
O15 P7 1.539845 1_555
O15 V2 1.930113 1_555
O16 P3 1.565946 1_555
O16 V3 2.000824 1_545
O17 P2 1.577124 1_555
O17 V0 1.937274 1_555
O18 P5 1.604629 1_555
O18 P6 1.617981 1_455
O19 P6 1.479227 1_555
O20 P5 1.491389 1_555
O21 P5 1.559635 1_555
O21 V1 1.877015 1_455
O22 P4 1.570479 1_555
O22 V1 1.972081 1_455
O23 P8 1.573755 1_555
O23 V0 1.914562 1_655
O24 P9 1.559043 1_555
O24 V0 1.859771 1_555
O25 P9 1.546547 1_555
O25 V3 1.904086 1_545
O26 P1 1.611109 1_555
O26 P8 1.617049 1_545
O27 P1 1.476732 1_565
O28 P14 1.479790 1_545
O29 P6 1.547834 1_555
O29 V2 1.881980 1_565
O30 P6 1.552967 1_555
O30 V1 1.866847 1_555
O31 P7 1.563628 1_555
O31 V1 1.844447 1_455
O32 P11 1.596090 1_555
O32 V0 1.866908 1_655
O33 P10 1.559704 1_555
O33 V0 1.884832 1_655
O34 P10 1.483158 1_455
O35 P9 1.490947 1_555
O36 P9 1.604017 1_655
O36 P10 1.626966 1_555
O37 P13 1.561605 1_555
O37 V1 1.964492 1_555
O38 P12 1.564562 1_555
O38 V2 1.898901 1_565
O39 P8 1.568577 1_555
O39 V3 1.887272 1_555
O40 P12 1.609288 1_555
O40 V1 1.819401 1_555
O41 P12 1.480089 1_555
O42 P11 1.477230 1_555
O43 P11 1.559648 1_555
O43 V4 1.988721 1_555
O44 P14 1.550789 1_555
O44 V2 1.879620 1_565
O45 P11 1.599177 1_555
O45 V3 1.829773 1_555
O46 P10 1.547416 1_555
O46 V4 1.885307 1_555
O47 P13 1.598363 1_555
O47 P0 1.629087 1_555
O48 P0 1.476367 1_555
O49 P13 1.551522 1_555
O49 V5 1.866181 1_555
O50 P12 1.566291 1_555
O50 V5 1.883767 1_555
O51 P15 1.574571 1_555
O51 V4 1.849308 1_555
O52 P15 1.554681 1_555
O52 V3 1.973116 1_555
O53 P7 1.491524 1_555
O54 P7 1.599744 1_565
O54 P14 1.633176 1_555
O55 P14 1.551456 1_555
O55 V5 1.891178 1_555
O56 P2 1.459153 1_555
O57 P15 1.605866 1_555
O57 P2 1.629153 1_555
