# generated using pymatgen
data_Li5V3P8O29
_symmetry_space_group_name_H-M   'P 1'
_cell_length_a   9.80184369
_cell_length_b   9.80184369
_cell_length_c   13.92665984
_cell_angle_alpha   89.93528302
_cell_angle_beta   89.93528302
_cell_angle_gamma   59.97798580
_symmetry_Int_Tables_number   1
_chemical_formula_structural   Li5V3P8O29
_chemical_formula_sum   'Li10 V6 P16 O58'
_cell_volume   1158.50094793
_cell_formula_units_Z   2
loop_
 _symmetry_equiv_pos_site_id
 _symmetry_equiv_pos_as_xyz
  1  'x, y, z'
loop_
 _atom_site_type_symbol
 _atom_site_label
 _atom_site_symmetry_multiplicity
 _atom_site_fract_x
 _atom_site_fract_y
 _atom_site_fract_z
 _atom_site_occupancy
  Li  Li0  1  0.90701700  0.32183400  0.93903700  1
  Li  Li1  1  0.90507800  0.77205600  0.43977400  1
  Li  Li2  1  0.77205600  0.90507800  0.93977400  1
  Li  Li3  1  0.67996300  0.09472600  0.55828300  1
  Li  Li4  1  0.67450400  0.23004800  0.06092300  1
  Li  Li5  1  0.32183400  0.90701700  0.43903700  1
  Li  Li6  1  0.22819500  0.09029700  0.05928200  1
  Li  Li7  1  0.09029700  0.22819500  0.55928200  1
  Li  Li8  1  0.23004800  0.67450400  0.56092300  1
  Li  Li9  1  0.09472600  0.67996300  0.05828300  1
  V  V0  1  0.00103700  0.56591300  0.25076300  1
  V  V1  1  0.57010700  0.43316700  0.25397100  1
  V  V2  1  0.56591300  0.00103700  0.75076300  1
  V  V3  1  0.43046900  0.00034600  0.24822400  1
  V  V4  1  0.43316700  0.57010700  0.75397100  1
  V  V5  1  0.00034600  0.43046900  0.74822400  1
  P  P0  1  0.91155000  0.31952300  0.15880300  1
  P  P1  1  0.76662400  0.31797500  0.65650400  1
  P  P2  1  0.91197900  0.76960200  0.65719200  1
  P  P3  1  0.66560000  0.66842300  0.37328700  1
  P  P4  1  0.66842300  0.66560000  0.87328700  1
  P  P5  1  0.76960200  0.91197900  0.15719200  1
  P  P6  1  0.67895900  0.08797800  0.34116600  1
  P  P7  1  0.31797500  0.76662400  0.15650400  1
  P  P8  1  0.68358300  0.22964700  0.84297500  1
  P  P9  1  0.31952300  0.91155000  0.65880300  1
  P  P10  1  0.23062900  0.08733100  0.84307500  1
  P  P11  1  0.33427700  0.33484800  0.12717000  1
  P  P12  1  0.33484800  0.33427700  0.62717000  1
  P  P13  1  0.08733100  0.23062900  0.34307500  1
  P  P14  1  0.22964700  0.68358300  0.34297500  1
  P  P15  1  0.08797800  0.67895900  0.84116600  1
  O  O0  1  0.00572400  0.23881000  0.43430400  1
  O  O1  1  0.91384600  0.33764100  0.65769400  1
  O  O2  1  0.79220400  0.21141200  0.75284400  1
  O  O3  1  0.75644100  0.24622200  0.93382700  1
  O  O4  1  0.89870000  0.47998100  0.17555000  1
  O  O5  1  0.74555100  0.33520600  0.16073200  1
  O  O6  1  0.81268900  0.51296800  0.83290900  1
  O  O7  1  0.90198000  0.61866000  0.67628800  1
  O  O8  1  0.00203400  0.75852900  0.93076000  1
  O  O9  1  0.91763500  0.74581400  0.15931500  1
  O  O10  1  0.66760200  0.51724300  0.32589300  1
  O  O11  1  0.81359000  0.67240400  0.33321700  1
  O  O12  1  0.61596800  0.47851500  0.67786600  1
  O  O13  1  0.66500600  0.66386400  0.47981500  1
  O  O14  1  0.66386400  0.66500600  0.97981500  1
  O  O15  1  0.47851500  0.61596800  0.17786600  1
  O  O16  1  0.67240400  0.81359000  0.83321700  1
  O  O17  1  0.51724300  0.66760200  0.82589300  1
  O  O18  1  0.74581400  0.91763500  0.65931500  1
  O  O19  1  0.79056900  0.99864800  0.24998200  1
  O  O20  1  0.75798000  0.00081700  0.06807500  1
  O  O21  1  0.75852900  0.00203400  0.43076000  1
  O  O22  1  0.61866000  0.90198000  0.17628800  1
  O  O23  1  0.51296800  0.81268900  0.33290900  1
  O  O24  1  0.33520600  0.74555100  0.66073200  1
  O  O25  1  0.66579700  0.08257500  0.84327200  1
  O  O26  1  0.47998100  0.89870000  0.67555000  1
  O  O27  1  0.75558000  0.23552100  0.57094100  1
  O  O28  1  0.24622200  0.75644100  0.43382700  1
  O  O29  1  0.52017400  0.09780300  0.32437200  1
  O  O30  1  0.33764100  0.91384600  0.15769400  1
  O  O31  1  0.21141200  0.79220400  0.25284400  1
  O  O32  1  0.65963200  0.25491700  0.33562200  1
  O  O33  1  0.48718400  0.18449500  0.66979900  1
  O  O34  1  0.37735200  0.10195000  0.82348700  1
  O  O35  1  0.23881000  0.00572400  0.93430400  1
  O  O36  1  0.23937300  0.99828200  0.56825900  1
  O  O37  1  0.20865000  0.99943100  0.75042200  1
  O  O38  1  0.25476600  0.08146300  0.33883000  1
  O  O39  1  0.48836000  0.32875800  0.16974700  1
  O  O40  1  0.52145400  0.38115900  0.82382400  1
  O  O41  1  0.32623500  0.18756200  0.16733800  1
  O  O42  1  0.33686800  0.33269800  0.52082700  1
  O  O43  1  0.33269800  0.33686800  0.02082700  1
  O  O44  1  0.38115900  0.52145400  0.32382400  1
  O  O45  1  0.18756200  0.32623500  0.66733800  1
  O  O46  1  0.32875800  0.48836000  0.66974700  1
  O  O47  1  0.08146300  0.25476600  0.83883000  1
  O  O48  1  0.99943100  0.20865000  0.25042200  1
  O  O49  1  0.99828200  0.23937300  0.06825900  1
  O  O50  1  0.10195000  0.37735200  0.32348700  1
  O  O51  1  0.18449500  0.48718400  0.16979900  1
  O  O52  1  0.25491700  0.65963200  0.83562200  1
  O  O53  1  0.09780300  0.52017400  0.82437200  1
  O  O54  1  0.23552100  0.75558000  0.07094100  1
  O  O55  1  0.08257500  0.66579700  0.34327200  1
  O  O56  1  0.00081700  0.75798000  0.56807500  1
  O  O57  1  0.99864800  0.79056900  0.74998200  1
loop_
_geom_bond_atom_site_label_1
_geom_bond_atom_site_label_2
_geom_bond_distance
_geom_bond_site_symmetry_2
Li0 O3 1.956489 1_555
Li0 O49 1.992244 1_556
Li0 O47 2.043359 1_655
Li0 O6 2.193796 1_555
Li1 O21 1.979939 1_565
Li1 O56 1.991483 1_655
Li1 O55 2.025465 1_655
Li1 O11 2.200736 1_555
Li2 O8 1.979939 1_655
Li2 O20 1.991483 1_566
Li2 O25 2.025465 1_565
Li2 O16 2.200736 1_555
Li3 O27 1.873332 1_555
Li3 O21 1.967993 1_555
Li3 O18 2.069982 1_545
Li3 O33 2.255975 1_555
Li4 O20 1.971779 1_555
Li4 O3 1.981591 1_554
Li4 O5 2.050173 1_555
Li4 O39 2.189201 1_555
Li5 O28 1.956489 1_555
Li5 O36 1.992244 1_555
Li5 O38 2.043359 1_565
Li5 O23 2.193796 1_555
Li6 O35 1.908924 1_554
Li6 O49 1.983431 1_455
Li6 O30 2.040073 1_545
Li6 O41 2.240599 1_555
Li7 O0 1.908924 1_555
Li7 O36 1.983431 1_545
Li7 O1 2.040073 1_455
Li7 O45 2.240599 1_555
Li8 O56 1.971779 1_555
Li8 O28 1.981591 1_555
Li8 O24 2.050173 1_555
Li8 O46 2.189201 1_555
Li9 O54 1.873332 1_555
Li9 O8 1.967993 1_554
Li9 O9 2.069982 1_455
Li9 O51 2.255975 1_555
O0 P13 1.481292 1_555
O1 P1 1.548622 1_555
O1 V5 1.978206 1_655
O2 P8 1.596293 1_555
O2 P1 1.639984 1_555
O3 P8 1.501964 1_555
O4 P0 1.531810 1_555
O4 V0 1.913807 1_655
O5 P0 1.556090 1_555
O5 V1 1.977582 1_555
O6 P4 1.561152 1_555
O6 V5 1.984196 1_655
O7 P2 1.553523 1_555
O7 V5 1.885259 1_655
O8 P15 1.489020 1_555
O9 P5 1.547304 1_555
O9 V0 1.988590 1_655
O10 P3 1.613994 1_555
O10 V1 1.840578 1_555
O11 P3 1.572216 1_555
O11 V0 1.965392 1_655
O12 P1 1.555680 1_555
O12 V4 1.878305 1_555
O13 P3 1.484294 1_555
O14 P4 1.484294 1_555
O15 P7 1.555680 1_555
O15 V1 1.878305 1_555
O16 P4 1.572216 1_555
O16 V2 1.965392 1_565
O17 P4 1.613994 1_555
O17 V4 1.840578 1_555
O18 P2 1.547304 1_555
O18 V2 1.988590 1_565
O19 P5 1.616051 1_555
O19 P6 1.617695 1_565
O20 P5 1.486667 1_545
O21 P6 1.489020 1_555
O22 P5 1.553523 1_555
O22 V3 1.885259 1_565
O23 P3 1.561152 1_555
O23 V3 1.984196 1_565
O24 P9 1.556090 1_555
O24 V4 1.977582 1_555
O25 P8 1.536237 1_555
O25 V2 2.011290 1_555
O26 P9 1.531810 1_555
O26 V2 1.913807 1_565
O27 P1 1.474737 1_555
O28 P14 1.501964 1_555
O29 P6 1.528758 1_555
O29 V3 1.911848 1_555
O30 P7 1.548622 1_555
O30 V3 1.978206 1_565
O31 P14 1.596293 1_555
O31 P7 1.639984 1_555
O32 P6 1.552069 1_555
O32 V1 1.891901 1_555
O33 P12 1.594943 1_555
O33 V2 1.925954 1_555
O34 P10 1.538988 1_555
O34 V2 1.894418 1_555
O35 P10 1.481292 1_555
O36 P9 1.503820 1_555
O37 P9 1.616690 1_555
O37 P10 1.625610 1_565
O38 P13 1.559968 1_555
O38 V3 1.953856 1_555
O39 P11 1.596210 1_555
O39 V1 1.972465 1_555
O40 P8 1.562216 1_555
O40 V4 1.875994 1_555
O41 P11 1.585968 1_555
O41 V3 1.949887 1_555
O42 P12 1.481108 1_555
O43 P11 1.481108 1_555
O44 P14 1.562216 1_555
O44 V1 1.875994 1_555
O45 P12 1.585968 1_555
O45 V5 1.949887 1_555
O46 P12 1.596210 1_555
O46 V4 1.972465 1_555
O47 P10 1.559968 1_555
O47 V5 1.953856 1_555
O48 P0 1.616690 1_555
O48 P13 1.625610 1_655
O49 P0 1.503820 1_555
O50 P13 1.538988 1_555
O50 V0 1.894418 1_555
O51 P11 1.594943 1_555
O51 V0 1.925954 1_555
O52 P15 1.552069 1_555
O52 V4 1.891901 1_555
O53 P15 1.528758 1_555
O53 V5 1.911848 1_555
O54 P7 1.474737 1_555
O55 P14 1.536237 1_555
O55 V0 2.011290 1_555
O56 P2 1.486667 1_455
O57 P2 1.616051 1_555
O57 P15 1.617695 1_655
