# generated using pymatgen
data_Na3CuB8H17O23
_symmetry_space_group_name_H-M   'P 1'
_cell_length_a   9.20692500
_cell_length_b   10.82686431
_cell_length_c   11.86295407
_cell_angle_alpha   103.25713036
_cell_angle_beta   110.02430144
_cell_angle_gamma   109.72916088
_symmetry_Int_Tables_number   1
_chemical_formula_structural   Na3CuB8H17O23
_chemical_formula_sum   'Na6 Cu2 B16 H34 O46'
_cell_volume   963.00577658
_cell_formula_units_Z   2
loop_
 _symmetry_equiv_pos_site_id
 _symmetry_equiv_pos_as_xyz
  1  'x, y, z'
loop_
 _atom_site_type_symbol
 _atom_site_label
 _atom_site_symmetry_multiplicity
 _atom_site_fract_x
 _atom_site_fract_y
 _atom_site_fract_z
 _atom_site_occupancy
  Na  Na0  1  0.14756600  0.91529100  0.12353900  1
  Na  Na1  1  0.85243400  0.08470900  0.87646100  1
  Na  Na2  1  0.15034300  0.95422700  0.63282500  1
  Na  Na3  1  0.84965700  0.04577300  0.36717500  1
  Na  Na4  1  0.42621300  0.77713000  0.13053700  1
  Na  Na5  1  0.57378700  0.22287000  0.86946300  1
  Cu  Cu0  1  0.46096000  0.51300600  0.61725300  1
  Cu  Cu1  1  0.53904000  0.48699400  0.38274700  1
  B  B0  1  0.76549000  0.77922900  0.41576000  1
  B  B1  1  0.23451000  0.22077100  0.58424000  1
  B  B2  1  0.77866400  0.55346700  0.27769200  1
  B  B3  1  0.22133600  0.44653300  0.72230800  1
  B  B4  1  0.46879600  0.68998700  0.85317700  1
  B  B5  1  0.53120400  0.31001300  0.14682300  1
  B  B6  1  0.76448700  0.75288500  0.83612100  1
  B  B7  1  0.23551300  0.24711500  0.16387900  1
  B  B8  1  0.74138900  0.75752700  0.62070800  1
  B  B9  1  0.25861100  0.24247300  0.37929200  1
  B  B10  1  0.74972100  0.87586700  0.03745900  1
  B  B11  1  0.25027900  0.12413300  0.96254100  1
  B  B12  1  0.20068000  0.65824300  0.67555100  1
  B  B13  1  0.79932000  0.34175700  0.32444900  1
  B  B14  1  0.98287900  0.79986100  0.32822400  1
  B  B15  1  0.01712100  0.20013900  0.67177600  1
  H  H0  1  0.08133600  0.73070900  0.90930500  1
  H  H1  1  0.91866400  0.26929100  0.09069500  1
  H  H2  1  0.34035900  0.52091200  0.98526200  1
  H  H3  1  0.65964100  0.47908800  0.01473800  1
  H  H4  1  0.65101500  0.25777100  0.55456000  1
  H  H5  1  0.34898500  0.74222900  0.44544000  1
  H  H6  1  0.99540200  0.36155900  0.47566100  1
  H  H7  1  0.00459800  0.63844100  0.52433900  1
  H  H8  1  0.45585600  0.51660200  0.11499700  1
  H  H9  1  0.54414400  0.48339800  0.88500300  1
  H  H10  1  0.89968500  0.45213100  0.62044700  1
  H  H11  1  0.10031500  0.54786900  0.37955300  1
  H  H12  1  0.56309500  0.82879400  0.39407200  1
  H  H13  1  0.43690500  0.17120600  0.60592800  1
  H  H14  1  0.15260300  0.99256900  0.37020500  1
  H  H15  1  0.84739700  0.00743100  0.62979500  1
  H  H16  1  0.50040200  0.05348200  0.34637600  1
  H  H17  1  0.49959800  0.94651800  0.65362400  1
  H  H18  1  0.79820900  0.51223800  0.68097600  1
  H  H19  1  0.20179100  0.48776200  0.31902400  1
  H  H20  1  0.95701500  0.04820800  0.18581200  1
  H  H21  1  0.04298500  0.95179200  0.81418800  1
  H  H22  1  0.51980600  0.08616300  0.22953300  1
  H  H23  1  0.48019400  0.91383700  0.77046700  1
  H  H24  1  0.02465900  0.63876300  0.16601400  1
  H  H25  1  0.97534100  0.36123700  0.83398600  1
  H  H26  1  0.65586900  0.12186300  0.57603800  1
  H  H27  1  0.34413100  0.87813700  0.42396200  1
  H  H28  1  0.25571600  0.80472300  0.90047300  1
  H  H29  1  0.74428400  0.19527700  0.09952700  1
  H  H30  1  0.80173200  0.59662500  0.88589400  1
  H  H31  1  0.19826800  0.40337500  0.11410600  1
  H  H32  1  0.15714000  0.59323000  0.14236600  1
  H  H33  1  0.84286000  0.40677000  0.85763400  1
  O  O0  1  0.53593800  0.99339600  0.74748300  1
  O  O1  1  0.46406200  0.00660400  0.25251700  1
  O  O2  1  0.21757600  0.56728600  0.39046300  1
  O  O3  1  0.78242400  0.43271400  0.60953700  1
  O  O4  1  0.10479000  0.65611900  0.12661400  1
  O  O5  1  0.89521000  0.34388100  0.87338600  1
  O  O6  1  0.42339700  0.84691500  0.47477700  1
  O  O7  1  0.57660300  0.15308500  0.52522300  1
  O  O8  1  0.20771800  0.79490800  0.96210600  1
  O  O9  1  0.79228200  0.20509200  0.03789400  1
  O  O10  1  0.35402100  0.53204100  0.07452400  1
  O  O11  1  0.64597900  0.46795900  0.92547600  1
  O  O12  1  0.84293900  0.65320000  0.83834800  1
  O  O13  1  0.15706100  0.34680000  0.16165200  1
  O  O14  1  0.11030600  0.71523200  0.60259100  1
  O  O15  1  0.88969400  0.28476800  0.39740900  1
  O  O16  1  0.12747800  0.89286300  0.32396000  1
  O  O17  1  0.87252200  0.10713700  0.67604000  1
  O  O18  1  0.83688600  0.98030700  0.16254300  1
  O  O19  1  0.16311400  0.01969300  0.83745700  1
  O  O20  1  0.63599600  0.82237800  0.35010900  1
  O  O21  1  0.36400400  0.17762200  0.64989100  1
  O  O22  1  0.81040700  0.82869700  0.75411600  1
  O  O23  1  0.18959300  0.17130300  0.24588400  1
  O  O24  1  0.12973900  0.51290200  0.64232700  1
  O  O25  1  0.87026100  0.48709800  0.35767300  1
  O  O26  1  0.81693100  0.83024900  0.55840700  1
  O  O27  1  0.18306900  0.16975100  0.44159300  1
  O  O28  1  0.60617100  0.62249900  0.55395200  1
  O  O29  1  0.39382900  0.37750100  0.44604800  1
  O  O30  1  0.71200200  0.62444600  0.35811500  1
  O  O31  1  0.28799800  0.37555400  0.64188500  1
  O  O32  1  0.90932300  0.65744700  0.25752700  1
  O  O33  1  0.09067700  0.34255300  0.74247300  1
  O  O34  1  0.57440000  0.67337900  0.78438300  1
  O  O35  1  0.42560000  0.32662100  0.21561700  1
  O  O36  1  0.57630300  0.79017700  0.98964400  1
  O  O37  1  0.42369700  0.20982300  0.01035600  1
  O  O38  1  0.84111200  0.86263800  0.96856100  1
  O  O39  1  0.15888800  0.13736200  0.03143900  1
  O  O40  1  0.35711800  0.75124800  0.78314800  1
  O  O41  1  0.64288200  0.24875200  0.21685200  1
  O  O42  1  0.92429000  0.85820600  0.40674200  1
  O  O43  1  0.07571000  0.14179400  0.59325800  1
  O  O44  1  0.36193300  0.55190900  0.84672700  1
  O  O45  1  0.63806700  0.44809100  0.15327300  1
loop_
_geom_bond_atom_site_label_1
_geom_bond_atom_site_label_2
_geom_bond_distance
_geom_bond_site_symmetry_2
Na0 O8 2.396219 1_554
Na0 O1 2.473354 1_565
Na0 O16 2.506331 1_555
Na0 O38 2.558673 1_454
Na0 O23 2.642976 1_565
Na0 O4 2.709402 1_555
Na0 O39 2.845876 1_565
Na1 O9 2.396219 1_556
Na1 O0 2.473354 1_545
Na1 O17 2.506331 1_555
Na1 O39 2.558673 1_656
Na1 O22 2.642976 1_545
Na1 O5 2.709402 1_555
Na1 O38 2.845876 1_545
Na2 O19 2.316952 1_565
Na2 O14 2.408288 1_555
Na2 O43 2.444359 1_565
Na2 O42 2.458301 1_455
Na2 O21 2.459886 1_565
Na2 O26 2.612063 1_455
Na3 O18 2.316952 1_545
Na3 O15 2.408288 1_555
Na3 O42 2.444359 1_545
Na3 O43 2.458301 1_655
Na3 O20 2.459886 1_545
Na3 O27 2.612063 1_655
Na4 O10 2.371221 1_555
Na4 O8 2.400277 1_554
Na4 O1 2.410244 1_565
Na4 O20 2.466952 1_555
Na4 O36 2.506263 1_554
Na5 O11 2.371221 1_555
Na5 O9 2.400277 1_556
Na5 O0 2.410244 1_545
Na5 O21 2.466952 1_555
Na5 O37 2.506263 1_556
Cu0 O31 1.937540 1_555
Cu0 O28 1.944854 1_555
Cu0 O34 1.953259 1_555
Cu0 O29 1.954698 1_555
Cu1 O30 1.937540 1_555
Cu1 O29 1.944854 1_555
Cu1 O35 1.953259 1_555
Cu1 O28 1.954698 1_555
B0 O20 1.467398 1_555
B0 O42 1.478254 1_555
B0 O30 1.484958 1_555
B0 O26 1.496267 1_555
B1 O21 1.467398 1_555
B1 O43 1.478254 1_555
B1 O31 1.484958 1_555
B1 O27 1.496267 1_555
B2 O45 1.441499 1_555
B2 O32 1.475799 1_555
B2 O30 1.503548 1_555
B2 O25 1.517113 1_555
B3 O44 1.441499 1_555
B3 O33 1.475799 1_555
B3 O31 1.503548 1_555
B3 O24 1.517113 1_555
B4 O44 1.453166 1_555
B4 O36 1.466127 1_555
B4 O34 1.495940 1_555
B4 O40 1.521662 1_555
B5 O45 1.453166 1_555
B5 O37 1.466127 1_555
B5 O35 1.495940 1_555
B5 O41 1.521662 1_555
B6 O34 1.478358 1_555
B6 O38 1.482175 1_555
B6 O22 1.487431 1_555
B6 O12 1.487812 1_555
B7 O35 1.478358 1_555
B7 O39 1.482175 1_555
B7 O23 1.487431 1_555
B7 O13 1.487812 1_555
B8 O28 1.370880 1_555
B8 O26 1.378073 1_555
B8 O22 1.386938 1_555
B9 O29 1.370880 1_555
B9 O27 1.378073 1_555
B9 O23 1.386938 1_555
B10 O36 1.367505 1_554
B10 O38 1.376667 1_554
B10 O18 1.388078 1_555
B11 O37 1.367505 1_556
B11 O39 1.376667 1_556
B11 O19 1.388078 1_555
B12 O40 1.374768 1_555
B12 O24 1.379661 1_555
B12 O14 1.385827 1_555
B13 O41 1.374768 1_555
B13 O25 1.379661 1_555
B13 O15 1.385827 1_555
B14 O32 1.361027 1_555
B14 O42 1.364520 1_555
B14 O16 1.397592 1_655
B15 O33 1.361027 1_555
B15 O43 1.364520 1_555
B15 O17 1.397592 1_455
H0 O8 0.992242 1_555
H0 Na0 2.571207 1_556
H1 O9 0.992242 1_555
H1 Na1 2.571207 1_554
H2 O10 0.995824 1_556
H3 O11 0.995824 1_554
H4 O7 1.003329 1_555
H5 O6 1.003329 1_555
H6 O15 0.990543 1_555
H7 O14 0.990543 1_555
H8 O10 0.985833 1_555
H9 O11 0.985833 1_555
H10 O3 0.982398 1_555
H11 O2 0.982398 1_555
H12 O20 0.990914 1_555
H13 O21 0.990914 1_555
H14 O16 0.996334 1_555
H15 O17 0.996334 1_555
H16 O1 0.990120 1_555
H17 O0 0.990120 1_555
H18 O3 0.988516 1_555
H19 O2 0.988516 1_555
H20 O18 0.994390 1_545
H21 O19 0.994390 1_565
H22 O1 0.992367 1_555
H23 O0 0.992367 1_555
H24 O4 0.990404 1_555
H25 O5 0.990404 1_555
H26 O7 0.984374 1_555
H27 O6 0.984374 1_555
H28 O8 0.983038 1_555
H29 O9 0.983038 1_555
H30 O12 0.992660 1_555
H31 O13 0.992660 1_555
H32 O4 0.974208 1_555
H33 O5 0.974208 1_555
