# generated using pymatgen
data_U(Al2Cu)4
_symmetry_space_group_name_H-M   'P 1'
_cell_length_a   6.68889199
_cell_length_b   6.68889199
_cell_length_c   6.68889199
_cell_angle_alpha   98.41677936
_cell_angle_beta   98.41677936
_cell_angle_gamma   135.01197299
_symmetry_Int_Tables_number   1
_chemical_formula_structural   U(Al2Cu)4
_chemical_formula_sum   'U1 Al8 Cu4'
_cell_volume   195.47486356
_cell_formula_units_Z   1
loop_
 _symmetry_equiv_pos_site_id
 _symmetry_equiv_pos_as_xyz
  1  'x, y, z'
loop_
 _atom_site_type_symbol
 _atom_site_label
 _atom_site_symmetry_multiplicity
 _atom_site_fract_x
 _atom_site_fract_y
 _atom_site_fract_z
 _atom_site_occupancy
  U  U0  1  -0.00000000  -0.00000000  -0.00000000  1
  Al  Al0  1  -0.00000000  0.34729657  0.34729657  1
  Al  Al1  1  0.34729657  -0.00000000  0.34729657  1
  Al  Al2  1  0.65270343  -0.00000000  0.65270343  1
  Al  Al3  1  -0.00000000  0.65270343  0.65270343  1
  Al  Al4  1  0.50000000  0.28112959  0.78112959  1
  Al  Al5  1  0.28112959  0.50000000  0.78112959  1
  Al  Al6  1  0.71887041  0.50000000  0.21887041  1
  Al  Al7  1  0.50000000  0.71887041  0.21887041  1
  Cu  Cu0  1  -0.00000000  -0.00000000  0.50000000  1
  Cu  Cu1  1  -0.00000000  0.50000000  -0.00000000  1
  Cu  Cu2  1  0.50000000  -0.00000000  -0.00000000  1
  Cu  Cu3  1  0.50000000  0.50000000  0.50000000  1
loop_
_geom_bond_atom_site_label_1
_geom_bond_atom_site_label_2
_geom_bond_distance
_geom_bond_site_symmetry_2
Al0 Al3 2.669206 1_555
Al0 Cu2 2.671026 1_455
Al0 Cu0 2.671026 1_555
Al0 Cu1 2.671026 1_555
Al0 Cu3 2.671026 1_555
Al0 Al7 2.794412 1_445
Al0 Al7 2.794412 1_555
Al0 Al6 2.796095 1_455
Al0 Al5 2.796095 1_555
Al0 U0 3.035315 1_555
Al1 Al2 2.669206 1_555
Al1 Cu0 2.671026 1_555
Al1 Cu2 2.671026 1_555
Al1 Cu1 2.671026 1_545
Al1 Cu3 2.671026 1_555
Al1 Al6 2.794412 1_445
Al1 Al6 2.794412 1_555
Al1 Al7 2.796095 1_545
Al1 Al4 2.796095 1_555
Al1 U0 3.035315 1_555
Al2 Cu1 2.671026 1_656
Al2 Cu2 2.671026 1_556
Al2 Cu0 2.671026 1_655
Al2 Cu3 2.671026 1_545
Al2 Al5 2.794412 1_655
Al2 Al5 2.794412 1_545
Al2 Al4 2.796095 1_555
Al2 Al7 2.796095 1_545
Al2 U0 3.035315 1_656
Al3 Cu2 2.671026 1_566
Al3 Cu3 2.671026 1_455
Al3 Cu0 2.671026 1_565
Al3 Cu1 2.671026 1_556
Al3 Al4 2.794412 1_565
Al3 Al4 2.794412 1_455
Al3 Al6 2.796095 1_455
Al3 Al5 2.796095 1_555
Al3 U0 3.035315 1_566
Al4 Cu2 2.546624 1_556
Al4 Cu1 2.546624 1_656
Al4 Cu0 2.546624 1_555
Al4 Cu3 2.546624 1_555
Al4 Al6 2.705237 1_556
Al4 Al5 2.705237 1_555
Al4 U0 3.195005 1_556
Al4 U0 3.195005 1_666
Al5 Cu1 2.546624 1_556
Al5 Cu2 2.546624 1_566
Al5 Cu0 2.546624 1_555
Al5 Cu3 2.546624 1_555
Al5 Al7 2.705237 1_556
Al5 U0 3.195005 1_556
Al5 U0 3.195005 1_666
Al6 Cu0 2.546624 1_665
Al6 Cu3 2.546624 1_555
Al6 Cu2 2.546624 1_555
Al6 Cu1 2.546624 1_655
Al6 Al7 2.705237 1_555
Al6 U0 3.195005 1_555
Al6 U0 3.195005 1_665
Al7 Cu0 2.546624 1_665
Al7 Cu3 2.546624 1_555
Al7 Cu1 2.546624 1_555
Al7 Cu2 2.546624 1_565
Al7 U0 3.195005 1_555
Al7 U0 3.195005 1_665
Cu0 Cu3 2.559082 1_445
Cu0 Cu3 2.559082 1_555
Cu0 U0 3.344446 1_556
Cu0 U0 3.344446 1_555
Cu1 Cu2 2.559082 1_455
Cu1 Cu2 2.559082 1_565
Cu1 U0 3.344446 1_555
Cu1 U0 3.344446 1_565
Cu2 U0 3.344446 1_655
Cu2 U0 3.344446 1_555
Cu3 U0 3.344446 1_666
Cu3 U0 3.344446 1_555
