# generated using pymatgen
data_Na6Mn2C4SO16
_symmetry_space_group_name_H-M   'P 1'
_cell_length_a   9.84997475
_cell_length_b   9.84997475
_cell_length_c   9.84997475
_cell_angle_alpha   60.00000000
_cell_angle_beta   60.00000000
_cell_angle_gamma   60.00000000
_symmetry_Int_Tables_number   1
_chemical_formula_structural   Na6Mn2C4SO16
_chemical_formula_sum   'Na12 Mn4 C8 S2 O32'
_cell_volume   675.75668972
_cell_formula_units_Z   2
loop_
 _symmetry_equiv_pos_site_id
 _symmetry_equiv_pos_as_xyz
  1  'x, y, z'
loop_
 _atom_site_type_symbol
 _atom_site_label
 _atom_site_symmetry_multiplicity
 _atom_site_fract_x
 _atom_site_fract_y
 _atom_site_fract_z
 _atom_site_occupancy
  Na  Na0  1  0.78524504  0.78524504  0.21475496  1
  Na  Na1  1  0.46475496  0.03524504  0.03524504  1
  Na  Na2  1  0.21475496  0.78524504  0.21475496  1
  Na  Na3  1  0.78524504  0.21475496  0.78524504  1
  Na  Na4  1  0.03524504  0.46475496  0.46475496  1
  Na  Na5  1  0.03524504  0.03524504  0.46475496  1
  Na  Na6  1  0.21475496  0.78524504  0.78524504  1
  Na  Na7  1  0.21475496  0.21475496  0.78524504  1
  Na  Na8  1  0.46475496  0.03524504  0.46475496  1
  Na  Na9  1  0.03524504  0.46475496  0.03524504  1
  Na  Na10  1  0.78524504  0.21475496  0.21475496  1
  Na  Na11  1  0.46475496  0.46475496  0.03524504  1
  Mn  Mn0  1  0.12500000  0.62500000  0.62500000  1
  Mn  Mn1  1  0.62500000  0.62500000  0.62500000  1
  Mn  Mn2  1  0.62500000  0.62500000  0.12500000  1
  Mn  Mn3  1  0.62500000  0.12500000  0.62500000  1
  C  C0  1  0.78853698  0.40382134  0.40382134  1
  C  C1  1  0.40382134  0.78853698  0.40382134  1
  C  C2  1  0.40382134  0.40382134  0.40382134  1
  C  C3  1  0.40382134  0.40382134  0.78853698  1
  C  C4  1  0.84617866  0.84617866  0.46146302  1
  C  C5  1  0.84617866  0.46146302  0.84617866  1
  C  C6  1  0.84617866  0.84617866  0.84617866  1
  C  C7  1  0.46146302  0.84617866  0.84617866  1
  S  S0  1  -0.00000000  -0.00000000  0.00000000  1
  S  S1  1  0.25000000  0.25000000  0.25000000  1
  O  O0  1  0.72665451  0.98660049  0.82637456  1
  O  O1  1  0.46036945  0.82637456  0.98660049  1
  O  O2  1  0.78963055  0.52334549  0.42362544  1
  O  O3  1  0.52334549  0.78963055  0.26339951  1
  O  O4  1  0.78963055  0.26339951  0.52334549  1
  O  O5  1  0.06143667  0.06143667  0.81569098  1
  O  O6  1  0.42362544  0.52334549  0.26339951  1
  O  O7  1  0.06143667  0.06143667  0.06143667  1
  O  O8  1  0.06143667  0.81569098  0.06143667  1
  O  O9  1  0.42362544  0.78963055  0.52334549  1
  O  O10  1  0.26339951  0.78963055  0.42362544  1
  O  O11  1  0.81569098  0.06143667  0.06143667  1
  O  O12  1  0.52334549  0.42362544  0.78963055  1
  O  O13  1  0.26339951  0.42362544  0.52334549  1
  O  O14  1  0.42362544  0.26339951  0.78963055  1
  O  O15  1  0.98660049  0.72665451  0.46036945  1
  O  O16  1  0.26339951  0.52334549  0.78963055  1
  O  O17  1  0.82637456  0.98660049  0.46036945  1
  O  O18  1  0.98660049  0.82637456  0.72665451  1
  O  O19  1  0.72665451  0.82637456  0.46036945  1
  O  O20  1  0.43430902  0.18856333  0.18856333  1
  O  O21  1  0.98660049  0.46036945  0.82637456  1
  O  O22  1  0.82637456  0.46036945  0.72665451  1
  O  O23  1  0.18856333  0.43430902  0.18856333  1
  O  O24  1  0.18856333  0.18856333  0.18856333  1
  O  O25  1  0.82637456  0.72665451  0.98660049  1
  O  O26  1  0.18856333  0.18856333  0.43430902  1
  O  O27  1  0.46036945  0.98660049  0.72665451  1
  O  O28  1  0.72665451  0.46036945  0.98660049  1
  O  O29  1  0.46036945  0.72665451  0.82637456  1
  O  O30  1  0.78963055  0.42362544  0.26339951  1
  O  O31  1  0.52334549  0.26339951  0.42362544  1
loop_
_geom_bond_atom_site_label_1
_geom_bond_atom_site_label_2
_geom_bond_distance
_geom_bond_site_symmetry_2
Na0 O3 2.357864 1_555
Na0 O2 2.357868 1_555
Na0 O19 2.387527 1_555
Na0 O25 2.387536 1_554
Na0 O8 2.454819 1_655
Na0 O11 2.454819 1_565
Na1 O0 2.357868 1_544
Na1 O1 2.357874 1_544
Na1 O14 2.387530 1_554
Na1 O3 2.387532 1_545
Na1 O20 2.454811 1_555
Na1 O24 2.454816 1_555
Na2 O6 2.357868 1_555
Na2 O10 2.357874 1_555
Na2 O1 2.387530 1_554
Na2 O15 2.387532 1_455
Na2 O8 2.454811 1_555
Na2 O7 2.454816 1_565
Na3 O4 2.357864 1_555
Na3 O12 2.357868 1_555
Na3 O22 2.387527 1_555
Na3 O0 2.387536 1_545
Na3 O5 2.454819 1_655
Na3 O11 2.454819 1_556
Na4 O15 2.357864 1_455
Na4 O22 2.357868 1_455
Na4 O2 2.387527 1_455
Na4 O13 2.387536 1_555
Na4 O23 2.454819 1_555
Na4 O26 2.454819 1_555
Na5 O18 2.357868 1_445
Na5 O17 2.357874 1_445
Na5 O10 2.387530 1_545
Na5 O4 2.387532 1_455
Na5 O26 2.454811 1_555
Na5 O24 2.454816 1_555
Na6 O16 2.357864 1_555
Na6 O9 2.357868 1_555
Na6 O29 2.387527 1_555
Na6 O18 2.387536 1_455
Na6 O5 2.454819 1_565
Na6 O8 2.454819 1_556
Na7 O13 2.357868 1_555
Na7 O14 2.357874 1_555
Na7 O21 2.387530 1_455
Na7 O27 2.387532 1_545
Na7 O5 2.454811 1_555
Na7 O7 2.454816 1_556
Na8 O27 2.357864 1_545
Na8 O19 2.357868 1_545
Na8 O9 2.387527 1_545
Na8 O31 2.387536 1_555
Na8 O26 2.454819 1_555
Na8 O20 2.454819 1_555
Na9 O25 2.357868 1_454
Na9 O21 2.357874 1_454
Na9 O30 2.387530 1_455
Na9 O16 2.387532 1_554
Na9 O23 2.454811 1_555
Na9 O24 2.454816 1_555
Na10 O31 2.357868 1_555
Na10 O30 2.357874 1_555
Na10 O17 2.387530 1_545
Na10 O28 2.387532 1_554
Na10 O11 2.454811 1_555
Na10 O7 2.454816 1_655
Na11 O28 2.357864 1_554
Na11 O29 2.357868 1_554
Na11 O12 2.387527 1_554
Na11 O6 2.387536 1_555
Na11 O20 2.454819 1_555
Na11 O23 2.454819 1_555
Mn0 O18 2.170827 1_455
Mn0 O13 2.170827 1_555
Mn0 O21 2.170832 1_455
Mn0 O10 2.170832 1_555
Mn0 O15 2.170835 1_455
Mn0 O16 2.170835 1_555
Mn1 O9 2.170827 1_555
Mn1 O22 2.170827 1_555
Mn1 O12 2.170827 1_555
Mn1 O2 2.170827 1_555
Mn1 O29 2.170827 1_555
Mn1 O19 2.170827 1_555
Mn2 O25 2.170827 1_554
Mn2 O6 2.170827 1_555
Mn2 O1 2.170832 1_554
Mn2 O30 2.170832 1_555
Mn2 O28 2.170835 1_554
Mn2 O3 2.170835 1_555
Mn3 O0 2.170827 1_545
Mn3 O31 2.170827 1_555
Mn3 O17 2.170832 1_545
Mn3 O14 2.170832 1_555
Mn3 O27 2.170835 1_545
Mn3 O4 2.170835 1_555
C0 O2 1.291769 1_555
C0 O4 1.291769 1_555
C0 O30 1.291769 1_555
C1 O9 1.291769 1_555
C1 O3 1.291769 1_555
C1 O10 1.291769 1_555
C2 O6 1.291769 1_555
C2 O31 1.291769 1_555
C2 O13 1.291769 1_555
C3 O12 1.291769 1_555
C3 O16 1.291769 1_555
C3 O14 1.291769 1_555
C4 O19 1.291769 1_555
C4 O15 1.291769 1_555
C4 O17 1.291769 1_555
C5 O22 1.291769 1_555
C5 O28 1.291769 1_555
C5 O21 1.291769 1_555
C6 O18 1.291769 1_555
C6 O25 1.291769 1_555
C6 O0 1.291769 1_555
C7 O29 1.291769 1_555
C7 O27 1.291769 1_555
C7 O1 1.291769 1_555
O5 S0 1.482300 1_556
O7 S0 1.482308 1_555
O8 S0 1.482300 1_565
O11 S0 1.482300 1_655
O20 S1 1.482300 1_555
O23 S1 1.482300 1_555
O24 S1 1.482308 1_555
O26 S1 1.482300 1_555
