# generated using pymatgen
data_Ta2CrNO5
_symmetry_space_group_name_H-M   'P 1'
_cell_length_a   4.76593098
_cell_length_b   4.76584396
_cell_length_c   9.23881867
_cell_angle_alpha   89.78836654
_cell_angle_beta   90.21191233
_cell_angle_gamma   90.12607736
_symmetry_Int_Tables_number   1
_chemical_formula_structural   Ta2CrNO5
_chemical_formula_sum   'Ta4 Cr2 N2 O10'
_cell_volume   209.84423316
_cell_formula_units_Z   2
loop_
 _symmetry_equiv_pos_site_id
 _symmetry_equiv_pos_as_xyz
  1  'x, y, z'
loop_
 _atom_site_type_symbol
 _atom_site_label
 _atom_site_symmetry_multiplicity
 _atom_site_fract_x
 _atom_site_fract_y
 _atom_site_fract_z
 _atom_site_occupancy
  Ta  Ta0  1  0.98826600  0.01173900  0.34359700  1
  Ta  Ta1  1  0.99247200  0.00753800  0.67295800  1
  Ta  Ta2  1  0.49566800  0.50433100  0.16685900  1
  Ta  Ta3  1  0.47953400  0.52046300  0.83003100  1
  Cr  Cr0  1  0.50265800  0.49737000  0.49921700  1
  Cr  Cr1  1  0.00323000  0.99677900  0.99999800  1
  N  N0  1  0.19804300  0.80195600  0.83301600  1
  N  N1  1  0.80333900  0.19666100  0.49753000  1
  O  O0  1  0.19628000  0.80372100  0.49785200  1
  O  O1  1  0.20468600  0.79526500  0.16511900  1
  O  O2  1  0.80581300  0.19418600  0.16889400  1
  O  O3  1  0.80553900  0.19446400  0.83184100  1
  O  O4  1  0.30710400  0.30012100  0.32752700  1
  O  O5  1  0.69987700  0.69289700  0.32752700  1
  O  O6  1  0.30690900  0.30125300  0.66824200  1
  O  O7  1  0.69874800  0.69309300  0.66824400  1
  O  O8  1  0.31320900  0.30137200  0.00077500  1
  O  O9  1  0.69862300  0.68679300  0.00077500  1
loop_
_geom_bond_atom_site_label_1
_geom_bond_atom_site_label_2
_geom_bond_distance
_geom_bond_site_symmetry_2
Cr0 N1 2.029049 1_555
Cr0 O7 2.044072 1_555
Cr0 O6 2.044180 1_555
Cr0 O5 2.064981 1_555
Cr0 O4 2.065096 1_555
Cr0 O0 2.067135 1_555
Cr1 N0 2.032018 1_555
Cr1 O1 2.038087 1_556
Cr1 O3 2.042346 1_465
Cr1 O2 2.056896 1_466
Cr1 O8 2.068915 1_566
Cr1 O9 2.068984 1_456
N0 Ta3 1.899682 1_555
N0 Ta1 2.022210 1_465
N1 Ta0 1.896831 1_555
N1 Ta1 2.057598 1_555
O0 Ta0 1.995023 1_465
O0 Ta1 2.128757 1_465
O1 Ta2 1.963190 1_555
O1 Ta0 2.208399 1_465
O2 Ta0 2.024826 1_555
O2 Ta2 2.092657 1_555
O3 Ta1 1.940331 1_555
O3 Ta3 2.199640 1_555
O4 Ta2 1.988354 1_555
O4 Ta0 2.052073 1_455
O5 Ta2 1.988350 1_555
O5 Ta0 2.052105 1_565
O6 Ta3 2.000302 1_555
O6 Ta1 2.048877 1_455
O7 Ta3 2.000319 1_555
O7 Ta1 2.048930 1_565
O8 Ta2 2.010878 1_555
O8 Ta3 2.049507 1_554
O9 Ta2 2.010884 1_555
O9 Ta3 2.049509 1_554
