# generated using pymatgen
data_Ba7Pb17O24
_symmetry_space_group_name_H-M   'P 1'
_cell_length_a   19.08901100
_cell_length_b   7.93426000
_cell_length_c   8.02466601
_cell_angle_alpha   61.09674352
_cell_angle_beta   90.00000000
_cell_angle_gamma   90.00000000
_symmetry_Int_Tables_number   1
_chemical_formula_structural   Ba7Pb17O24
_chemical_formula_sum   'Ba7 Pb17 O24'
_cell_volume   1064.00029547
_cell_formula_units_Z   1
loop_
 _symmetry_equiv_pos_site_id
 _symmetry_equiv_pos_as_xyz
  1  'x, y, z'
loop_
 _atom_site_type_symbol
 _atom_site_label
 _atom_site_symmetry_multiplicity
 _atom_site_fract_x
 _atom_site_fract_y
 _atom_site_fract_z
 _atom_site_occupancy
  Ba  Ba0  1  0.00000000  0.33279600  0.36530400  1
  Ba  Ba1  1  0.33380000  0.33563400  0.33204800  1
  Ba  Ba2  1  0.66620000  0.33563400  0.33204800  1
  Ba  Ba3  1  0.50000000  0.66641900  0.66697000  1
  Ba  Ba4  1  0.83092800  0.66687500  0.65843200  1
  Ba  Ba5  1  0.16907200  0.66687500  0.65843200  1
  Ba  Ba6  1  0.00000000  0.33393100  0.87266600  1
  Pb  Pb0  1  0.50000000  0.65473600  0.16145400  1
  Pb  Pb1  1  0.16554700  0.65124000  0.15703500  1
  Pb  Pb2  1  0.83445300  0.65124000  0.15703500  1
  Pb  Pb3  1  0.50000000  0.16019700  0.18343400  1
  Pb  Pb4  1  0.82976000  0.16320900  0.17868400  1
  Pb  Pb5  1  0.17024000  0.16320900  0.17868400  1
  Pb  Pb6  1  0.50000000  0.18282000  0.64811900  1
  Pb  Pb7  1  0.83039500  0.18572500  0.64732700  1
  Pb  Pb8  1  0.16960500  0.18572500  0.64732700  1
  Pb  Pb9  1  0.33491100  0.83102400  0.34924000  1
  Pb  Pb10  1  0.66508900  0.83102400  0.34924000  1
  Pb  Pb11  1  0.00000000  0.83104100  0.35560700  1
  Pb  Pb12  1  0.33347600  0.81801000  0.83903000  1
  Pb  Pb13  1  0.00000000  0.81069400  0.85364300  1
  Pb  Pb14  1  0.66652400  0.81801000  0.83903000  1
  Pb  Pb15  1  0.66562500  0.34879100  0.81554200  1
  Pb  Pb16  1  0.33437500  0.34879100  0.81554200  1
  O  O0  1  0.41643600  0.60248700  0.99930100  1
  O  O1  1  0.75043400  0.60472300  0.99337200  1
  O  O2  1  0.08105600  0.58432400  0.00340400  1
  O  O3  1  0.24956600  0.60472300  0.99337200  1
  O  O4  1  0.58356400  0.60248700  0.99930100  1
  O  O5  1  0.91894400  0.58432400  0.00340400  1
  O  O6  1  0.17323400  0.33470800  0.32899200  1
  O  O7  1  0.82676600  0.33470800  0.32899200  1
  O  O8  1  0.50000000  0.33568000  0.33089100  1
  O  O9  1  0.91849700  0.02007300  0.37303100  1
  O  O10  1  0.24978700  0.99390700  0.39617100  1
  O  O11  1  0.41691700  0.00124400  0.39651000  1
  O  O12  1  0.75021300  0.99390700  0.39617100  1
  O  O13  1  0.58308300  0.00124400  0.39651000  1
  O  O14  1  0.08150300  0.02007300  0.37303100  1
  O  O15  1  0.33421800  0.66944600  0.66562300  1
  O  O16  1  0.00000000  0.68985200  0.66178500  1
  O  O17  1  0.66578200  0.66944600  0.66562300  1
  O  O18  1  0.58243000  0.39760200  0.60351400  1
  O  O19  1  0.25304700  0.40062900  0.59873400  1
  O  O20  1  0.41757000  0.39760200  0.60351400  1
  O  O21  1  0.91210500  0.39126500  0.61407200  1
  O  O22  1  0.08789500  0.39126500  0.61407200  1
  O  O23  1  0.74695300  0.40062900  0.59873400  1
loop_
_geom_bond_atom_site_label_1
_geom_bond_atom_site_label_2
_geom_bond_distance
_geom_bond_site_symmetry_2
Ba0 O22 2.812592 1_555
Ba0 O21 2.812592 1_455
Ba0 O14 2.903817 1_555
Ba0 O9 2.903817 1_455
Ba0 O5 3.034513 1_455
Ba0 O2 3.034513 1_555
Ba1 O19 2.879034 1_555
Ba1 O11 2.915032 1_555
Ba1 O20 2.929114 1_555
Ba1 O0 2.938709 1_554
Ba1 O10 2.973126 1_545
Ba1 O3 2.986801 1_554
Ba1 O6 3.065181 1_555
Ba1 O8 3.172607 1_555
Ba2 O23 2.879034 1_555
Ba2 O13 2.915032 1_555
Ba2 O18 2.929114 1_555
Ba2 O4 2.938709 1_554
Ba2 O12 2.973126 1_545
Ba2 O1 2.986801 1_554
Ba2 O7 3.065181 1_555
Ba2 O8 3.172607 1_555
Ba3 O20 2.886903 1_555
Ba3 O18 2.886903 1_555
Ba3 O4 2.933635 1_555
Ba3 O0 2.933635 1_555
Ba3 O11 2.951215 1_565
Ba3 O13 2.951215 1_565
Ba3 O17 3.164684 1_555
Ba3 O15 3.164684 1_555
Ba4 O21 2.839428 1_555
Ba4 O23 2.870517 1_555
Ba4 O12 2.873521 1_555
Ba4 O1 2.923541 1_555
Ba4 O5 3.026968 1_556
Ba4 O9 3.112650 1_565
Ba4 O17 3.153248 1_555
Ba4 O16 3.233407 1_655
Ba5 O22 2.839428 1_555
Ba5 O19 2.870517 1_555
Ba5 O10 2.873521 1_555
Ba5 O3 2.923541 1_555
Ba5 O2 3.026968 1_556
Ba5 O14 3.112650 1_565
Ba5 O15 3.153248 1_555
Ba5 O16 3.233407 1_555
Ba6 O16 2.493784 1_555
Ba6 O22 2.532923 1_555
Ba6 O21 2.532923 1_455
Ba6 O5 3.075136 1_456
Ba6 O2 3.075136 1_556
O0 Pb0 2.220587 1_556
O0 Pb12 2.227140 1_555
O1 Pb2 2.214035 1_556
O1 Pb14 2.222010 1_555
O2 Pb13 2.231078 1_554
O2 Pb1 2.244056 1_555
O3 Pb1 2.214035 1_556
O3 Pb12 2.222010 1_555
O4 Pb0 2.220587 1_556
O4 Pb14 2.227140 1_555
O5 Pb13 2.231078 1_654
O5 Pb2 2.244056 1_555
O6 Pb1 2.209752 1_555
O6 Pb5 2.212739 1_555
O6 Pb8 2.238023 1_555
O7 Pb2 2.209752 1_555
O7 Pb4 2.212739 1_555
O7 Pb7 2.238023 1_555
O8 Pb0 2.220323 1_555
O8 Pb3 2.220669 1_555
O8 Pb6 2.228624 1_555
O9 Pb4 2.208891 1_555
O9 Pb11 2.211856 1_645
O10 Pb5 2.211308 1_565
O10 Pb9 2.218762 1_555
O11 Pb9 2.216681 1_545
O11 Pb3 2.223725 1_555
O12 Pb4 2.211308 1_565
O12 Pb10 2.218762 1_555
O13 Pb10 2.216681 1_545
O13 Pb3 2.223725 1_555
O14 Pb5 2.208891 1_555
O14 Pb11 2.211856 1_545
O15 Pb12 2.216211 1_555
O15 Pb9 2.223336 1_555
O15 Pb16 2.227413 1_555
O16 Pb11 2.151981 1_555
O16 Pb13 2.171769 1_555
O17 Pb14 2.216211 1_555
O17 Pb10 2.223336 1_555
O17 Pb15 2.227413 1_555
O18 Pb6 2.217765 1_555
O18 Pb15 2.220372 1_555
O19 Pb16 2.216879 1_555
O19 Pb8 2.225713 1_555
O20 Pb6 2.217765 1_555
O20 Pb16 2.220372 1_555
O21 Pb7 2.177824 1_555
O22 Pb8 2.177824 1_555
O23 Pb15 2.216879 1_555
O23 Pb7 2.225713 1_555
