# generated using pymatgen
data_Cs3GaO3
_symmetry_space_group_name_H-M   'P 1'
_cell_length_a   7.10521285
_cell_length_b   8.12899354
_cell_length_c   11.39791660
_cell_angle_alpha   83.45628620
_cell_angle_beta   90.00000000
_cell_angle_gamma   90.00000000
_symmetry_Int_Tables_number   1
_chemical_formula_structural   Cs3GaO3
_chemical_formula_sum   'Cs12 Ga4 O12'
_cell_volume   654.03463445
_cell_formula_units_Z   4
loop_
 _symmetry_equiv_pos_site_id
 _symmetry_equiv_pos_as_xyz
  1  'x, y, z'
loop_
 _atom_site_type_symbol
 _atom_site_label
 _atom_site_symmetry_multiplicity
 _atom_site_fract_x
 _atom_site_fract_y
 _atom_site_fract_z
 _atom_site_occupancy
  Cs  Cs0  1  0.33063728  0.34294149  0.06856549  1
  Cs  Cs1  1  0.62073444  0.95997084  0.15538211  1
  Cs  Cs2  1  0.82502355  0.37235365  0.19809240  1
  Cs  Cs3  1  0.32502355  0.62764635  0.30190760  1
  Cs  Cs4  1  0.12073444  0.04002916  0.34461789  1
  Cs  Cs5  1  0.83063728  0.65705851  0.43143451  1
  Cs  Cs6  1  0.16936272  0.34294149  0.56856549  1
  Cs  Cs7  1  0.87926556  0.95997084  0.65538211  1
  Cs  Cs8  1  0.67497645  0.37235365  0.69809240  1
  Cs  Cs9  1  0.17497645  0.62764635  0.80190760  1
  Cs  Cs10  1  0.37926556  0.04002916  0.84461789  1
  Cs  Cs11  1  0.66936272  0.65705851  0.93143451  1
  Ga  Ga0  1  0.07392997  0.85206288  0.06243020  1
  Ga  Ga1  1  0.57392997  0.14793712  0.43756980  1
  Ga  Ga2  1  0.42607003  0.85206288  0.56243020  1
  Ga  Ga3  1  0.92607003  0.14793712  0.93756980  1
  O  O0  1  0.30846351  0.76325255  0.03751620  1
  O  O1  1  0.06103105  0.08676635  0.08410533  1
  O  O2  1  0.94163557  0.72368890  0.17846887  1
  O  O3  1  0.44163557  0.27631110  0.32153113  1
  O  O4  1  0.56103105  0.91323365  0.41589467  1
  O  O5  1  0.80846351  0.23674745  0.46248380  1
  O  O6  1  0.19153649  0.76325255  0.53751620  1
  O  O7  1  0.43896895  0.08676635  0.58410533  1
  O  O8  1  0.55836443  0.72368890  0.67846887  1
  O  O9  1  0.05836443  0.27631110  0.82153113  1
  O  O10  1  0.93896895  0.91323365  0.91589467  1
  O  O11  1  0.69153649  0.23674745  0.96248380  1
loop_
_geom_bond_atom_site_label_1
_geom_bond_atom_site_label_2
_geom_bond_distance
_geom_bond_site_symmetry_2
Cs0 O1 2.820185 1_555
Cs0 O3 2.978713 1_555
Cs0 O11 3.003416 1_554
Cs0 O0 3.398286 1_555
Cs0 O9 3.508777 1_554
Cs1 O2 2.973548 1_555
Cs1 O4 2.980590 1_555
Cs1 O11 3.003619 1_564
Cs1 O0 3.126418 1_555
Cs2 O2 2.957648 1_555
Cs2 O5 3.090811 1_555
Cs2 O3 3.123962 1_555
Cs2 O11 3.162446 1_554
Cs2 O1 3.252213 1_655
Cs3 O3 2.957648 1_555
Cs3 O0 3.090811 1_555
Cs3 O2 3.123962 1_455
Cs3 O6 3.162446 1_555
Cs3 O4 3.252213 1_555
Cs4 O3 2.973548 1_555
Cs4 O1 2.980590 1_555
Cs4 O6 3.003619 1_545
Cs4 O5 3.126418 1_455
Cs5 O4 2.820185 1_555
Cs5 O2 2.978713 1_555
Cs5 O6 3.003416 1_655
Cs5 O5 3.398286 1_555
Cs5 O8 3.508777 1_555
Cs6 O7 2.820185 1_555
Cs6 O9 2.978713 1_555
Cs6 O5 3.003416 1_455
Cs6 O6 3.398286 1_555
Cs6 O3 3.508777 1_555
Cs7 O8 2.973548 1_555
Cs7 O10 2.980590 1_555
Cs7 O5 3.003619 1_565
Cs7 O6 3.126418 1_655
Cs8 O8 2.957648 1_555
Cs8 O11 3.090811 1_555
Cs8 O9 3.123962 1_655
Cs8 O5 3.162446 1_555
Cs8 O7 3.252213 1_555
Cs9 O9 2.957648 1_555
Cs9 O6 3.090811 1_555
Cs9 O8 3.123962 1_555
Cs9 O0 3.162446 1_556
Cs9 O10 3.252213 1_455
Cs10 O9 2.973548 1_555
Cs10 O7 2.980590 1_555
Cs10 O0 3.003619 1_546
Cs10 O11 3.126418 1_555
Cs11 O10 2.820185 1_555
Cs11 O8 2.978713 1_555
Cs11 O0 3.003416 1_556
Cs11 O11 3.398286 1_555
Cs11 O2 3.508777 1_556
Ga0 O2 1.845874 1_455
Ga0 O0 1.850806 1_555
Ga0 O10 1.940896 1_454
Ga0 O1 1.953704 1_565
Ga1 O3 1.845874 1_555
Ga1 O5 1.850806 1_555
Ga1 O7 1.940896 1_555
Ga1 O4 1.953704 1_545
Ga2 O8 1.845874 1_555
Ga2 O6 1.850806 1_555
Ga2 O4 1.940896 1_555
Ga2 O7 1.953704 1_565
Ga3 O9 1.845874 1_655
Ga3 O11 1.850806 1_555
Ga3 O1 1.940896 1_656
Ga3 O10 1.953704 1_545
