# generated using pymatgen
data_Li2CrPCO7
_symmetry_space_group_name_H-M   'P 1'
_cell_length_a   5.06973220
_cell_length_b   6.41000301
_cell_length_c   16.67391120
_cell_angle_alpha   89.99644487
_cell_angle_beta   83.93660984
_cell_angle_gamma   89.99357577
_symmetry_Int_Tables_number   1
_chemical_formula_structural   Li2CrPCO7
_chemical_formula_sum   'Li8 Cr4 P4 C4 O28'
_cell_volume   538.82075053
_cell_formula_units_Z   4
loop_
 _symmetry_equiv_pos_site_id
 _symmetry_equiv_pos_as_xyz
  1  'x, y, z'
loop_
 _atom_site_type_symbol
 _atom_site_label
 _atom_site_symmetry_multiplicity
 _atom_site_fract_x
 _atom_site_fract_y
 _atom_site_fract_z
 _atom_site_occupancy
  Li  Li0  1  0.78147700  0.24565300  0.04965400  1
  Li  Li1  1  0.78159200  0.24549200  0.54968600  1
  Li  Li2  1  0.21862300  0.74557000  0.45034900  1
  Li  Li3  1  0.21859800  0.74549600  0.95034200  1
  Li  Li4  1  0.26071100  0.46039300  0.14067400  1
  Li  Li5  1  0.26085300  0.46027200  0.64063800  1
  Li  Li6  1  0.73919000  0.96035200  0.35935600  1
  Li  Li7  1  0.73927700  0.96029500  0.85934900  1
  Cr  Cr0  1  0.79583600  0.75305900  0.66218000  1
  Cr  Cr1  1  0.20398300  0.25318600  0.83792200  1
  Cr  Cr2  1  0.79605000  0.75355300  0.16205100  1
  Cr  Cr3  1  0.20362900  0.25347900  0.33792000  1
  P  P0  1  0.72869200  0.24967100  0.20918400  1
  P  P1  1  0.72878400  0.24940700  0.70920800  1
  P  P2  1  0.27116100  0.74966200  0.29076700  1
  P  P3  1  0.27122500  0.74929500  0.79081400  1
  C  C0  1  0.68245000  0.75256600  0.02265000  1
  C  C1  1  0.68255800  0.75243200  0.52270700  1
  C  C2  1  0.31764300  0.25256000  0.47728200  1
  C  C3  1  0.31754300  0.25247300  0.97734100  1
  O  O0  1  0.93175000  0.75576200  0.03897100  1
  O  O1  1  0.93184200  0.75553100  0.53902200  1
  O  O2  1  0.06826000  0.25578000  0.46101500  1
  O  O3  1  0.06822900  0.25555100  0.96101400  1
  O  O4  1  0.38911800  0.27990600  0.04678400  1
  O  O5  1  0.38932600  0.27979600  0.54672500  1
  O  O6  1  0.61089300  0.77983900  0.45326500  1
  O  O7  1  0.61088200  0.77974600  0.95318100  1
  O  O8  1  0.51212100  0.72429100  0.08666500  1
  O  O9  1  0.51228700  0.72402700  0.58674000  1
  O  O10  1  0.48775800  0.22420800  0.41322300  1
  O  O11  1  0.48786100  0.22403100  0.91332200  1
  O  O12  1  0.78907600  0.06320600  0.15078900  1
  O  O13  1  0.78912200  0.06278300  0.65087800  1
  O  O14  1  0.21087800  0.56318300  0.34916600  1
  O  O15  1  0.21096300  0.56278900  0.84919300  1
  O  O16  1  0.83604400  0.43689700  0.15477300  1
  O  O17  1  0.83622300  0.43657200  0.65481900  1
  O  O18  1  0.16383200  0.93687500  0.34518400  1
  O  O19  1  0.16394700  0.93653500  0.84521700  1
  O  O20  1  0.13697400  0.72936100  0.21306300  1
  O  O21  1  0.13706400  0.72909100  0.71310500  1
  O  O22  1  0.86289600  0.22934000  0.28688200  1
  O  O23  1  0.86294200  0.22911900  0.78694300  1
  O  O24  1  0.42387000  0.27838400  0.23044000  1
  O  O25  1  0.42394800  0.27814600  0.73046400  1
  O  O26  1  0.57599100  0.77835700  0.26951400  1
  O  O27  1  0.57602700  0.77808500  0.76956900  1
loop_
_geom_bond_atom_site_label_1
_geom_bond_atom_site_label_2
_geom_bond_distance
_geom_bond_site_symmetry_2
Li0 O3 1.961617 1_654
Li0 O4 2.006800 1_555
Li0 O12 2.055800 1_555
Li0 O16 2.180411 1_555
Li1 O2 1.961767 1_655
Li1 O5 2.006563 1_555
Li1 O13 2.057500 1_555
Li1 O17 2.180079 1_555
Li2 O1 1.962094 1_455
Li2 O6 2.006511 1_555
Li2 O14 2.056441 1_555
Li2 O18 2.181341 1_555
Li3 O0 1.961888 1_456
Li3 O7 2.006403 1_555
Li3 O15 2.057083 1_555
Li3 O19 2.179687 1_555
Li4 O4 1.999461 1_555
Li4 O24 2.132307 1_555
Li4 O16 2.146224 1_455
Li4 O20 2.159379 1_555
Li4 O8 2.248290 1_555
Li5 O5 1.999789 1_555
Li5 O25 2.133311 1_555
Li5 O17 2.146136 1_455
Li5 O21 2.159365 1_555
Li5 O9 2.247035 1_555
Li6 O6 1.999631 1_555
Li6 O26 2.133496 1_555
Li6 O18 2.146063 1_655
Li6 O22 2.160187 1_565
Li6 O10 2.247210 1_565
Li7 O7 1.998925 1_555
Li7 O27 2.133602 1_555
Li7 O19 2.146329 1_655
Li7 O23 2.158700 1_565
Li7 O11 2.247190 1_565
Cr0 O13 1.994870 1_565
Cr0 O21 2.011846 1_655
Cr0 O27 2.013019 1_555
Cr0 O9 2.016294 1_555
Cr0 O17 2.041365 1_555
Cr0 O1 2.096072 1_555
Cr1 O15 1.994117 1_555
Cr1 O23 2.011537 1_455
Cr1 O25 2.014307 1_555
Cr1 O11 2.017155 1_555
Cr1 O19 2.042219 1_545
Cr1 O3 2.094740 1_555
Cr2 O12 1.994389 1_565
Cr2 O20 2.011307 1_655
Cr2 O26 2.014514 1_555
Cr2 O8 2.017302 1_555
Cr2 O16 2.042187 1_555
Cr2 O0 2.094482 1_555
Cr3 O14 1.994759 1_555
Cr3 O22 2.010666 1_455
Cr3 O24 2.015227 1_555
Cr3 O10 2.017087 1_555
Cr3 O18 2.041782 1_545
Cr3 O2 2.094346 1_555
C0 O7 1.261924 1_554
C0 O8 1.312675 1_555
C0 O0 1.320814 1_555
C1 O6 1.261888 1_555
C1 O9 1.312845 1_555
C1 O1 1.320694 1_555
C2 O5 1.261818 1_555
C2 O10 1.312660 1_555
C2 O2 1.320947 1_555
C3 O4 1.261783 1_556
C3 O11 1.312832 1_555
C3 O3 1.320897 1_555
O12 P0 1.551596 1_555
O13 P1 1.551693 1_555
O14 P2 1.551598 1_555
O15 P3 1.551515 1_555
O16 P0 1.566934 1_555
O17 P1 1.566562 1_555
O18 P2 1.566884 1_555
O19 P3 1.566816 1_555
O20 P2 1.531219 1_555
O21 P3 1.531170 1_555
O22 P0 1.531165 1_555
O23 P1 1.531569 1_555
O24 P0 1.559449 1_555
O25 P1 1.559537 1_555
O26 P2 1.559504 1_555
O27 P3 1.559422 1_555
