# generated using pymatgen
data_BaLaI5
_symmetry_space_group_name_H-M   'P 1'
_cell_length_a   14.55763600
_cell_length_b   8.20681800
_cell_length_c   11.22876721
_cell_angle_alpha   84.61120564
_cell_angle_beta   90.00000000
_cell_angle_gamma   90.00000000
_symmetry_Int_Tables_number   1
_chemical_formula_structural   BaLaI5
_chemical_formula_sum   'Ba4 La4 I20'
_cell_volume   1335.59275143
_cell_formula_units_Z   4
loop_
 _symmetry_equiv_pos_site_id
 _symmetry_equiv_pos_as_xyz
  1  'x, y, z'
loop_
 _atom_site_type_symbol
 _atom_site_label
 _atom_site_symmetry_multiplicity
 _atom_site_fract_x
 _atom_site_fract_y
 _atom_site_fract_z
 _atom_site_occupancy
  Ba  Ba0  1  0.04239000  0.05002700  0.81543000  1
  Ba  Ba1  1  0.37760500  0.41439100  0.62217500  1
  Ba  Ba2  1  0.87760600  0.58560900  0.37782500  1
  Ba  Ba3  1  0.54239000  0.94997300  0.18457000  1
  La  La0  1  0.61482000  0.96923300  0.61762900  1
  La  La1  1  0.23081700  0.51459900  0.11713500  1
  La  La2  1  0.73081700  0.48540100  0.88286500  1
  La  La3  1  0.11482000  0.03076700  0.38237100  1
  I  I0  1  0.75724700  0.94953400  0.40634300  1
  I  I1  1  0.50361200  0.13584900  0.82063200  1
  I  I2  1  0.29056100  0.13950100  0.21640400  1
  I  I3  1  0.51648600  0.22023500  0.42215800  1
  I  I4  1  0.22478200  0.33062500  0.87289600  1
  I  I5  1  0.00884400  0.27468300  0.54479200  1
  I  I6  1  0.72212200  0.18937100  0.07399900  1
  I  I7  1  0.73159700  0.34610100  0.62301000  1
  I  I8  1  0.03746800  0.34983400  0.20642100  1
  I  I9  1  0.94014700  0.42548200  0.87620400  1
  I  I10  1  0.44014700  0.57451800  0.12379600  1
  I  I11  1  0.53746800  0.65016600  0.79357900  1
  I  I12  1  0.23159700  0.65389900  0.37699000  1
  I  I13  1  0.22212200  0.81062900  0.92600100  1
  I  I14  1  0.50884400  0.72531700  0.45520800  1
  I  I15  1  0.72478200  0.66937500  0.12710400  1
  I  I16  1  0.01648600  0.77976500  0.57784200  1
  I  I17  1  0.79056100  0.86049900  0.78359600  1
  I  I18  1  0.00361200  0.86415100  0.17936800  1
  I  I19  1  0.25724700  0.05046600  0.59365700  1
loop_
_geom_bond_atom_site_label_1
_geom_bond_atom_site_label_2
_geom_bond_distance
_geom_bond_site_symmetry_2
Ba0 I13 3.433555 1_545
Ba0 I5 3.438092 1_555
Ba0 I9 3.545473 1_455
Ba0 I4 3.612272 1_555
Ba0 I16 3.645595 1_545
Ba0 I19 3.997850 1_555
Ba0 I17 4.011403 1_445
Ba0 I18 4.263201 1_546
Ba1 I19 3.503185 1_555
Ba1 I3 3.513256 1_555
Ba1 I1 3.549580 1_555
Ba1 I14 3.574604 1_555
Ba1 I4 3.603387 1_555
Ba1 I11 3.682915 1_555
Ba1 I12 3.865841 1_555
Ba2 I0 3.503193 1_555
Ba2 I16 3.513247 1_655
Ba2 I18 3.549572 1_655
Ba2 I5 3.574596 1_655
Ba2 I15 3.603396 1_555
Ba2 I8 3.682905 1_655
Ba2 I7 3.865849 1_555
Ba3 I6 3.433555 1_565
Ba3 I14 3.438092 1_555
Ba3 I10 3.545473 1_555
Ba3 I15 3.612272 1_555
Ba3 I3 3.645595 1_565
Ba3 I0 3.997850 1_555
Ba3 I2 4.011403 1_565
Ba3 I1 4.263201 1_564
I0 La0 3.166360 1_555
I1 La0 3.205013 1_545
I2 La3 3.240717 1_555
I2 La1 3.291007 1_555
I3 La0 3.203260 1_545
I4 La1 3.253676 1_556
I5 La3 3.224768 1_555
I6 La2 3.089521 1_554
I7 La2 3.232252 1_555
I7 La0 3.534783 1_545
I8 La1 3.240604 1_555
I8 La3 3.325113 1_555
I9 La2 3.088795 1_555
I10 La1 3.088795 1_555
I11 La2 3.240604 1_555
I11 La0 3.325113 1_555
I12 La1 3.232252 1_555
I12 La3 3.534783 1_565
I13 La1 3.089521 1_556
I14 La0 3.224768 1_555
I15 La2 3.253676 1_554
I16 La3 3.203260 1_565
I17 La0 3.240717 1_555
I17 La2 3.291007 1_555
I18 La3 3.205013 1_565
I19 La3 3.166360 1_555
