# generated using pymatgen
data_BaSiP4(HO7)2
_symmetry_space_group_name_H-M   'P 1'
_cell_length_a   4.67151700
_cell_length_b   6.69579627
_cell_length_c   9.18007337
_cell_angle_alpha   75.21694209
_cell_angle_beta   85.56508411
_cell_angle_gamma   75.34742559
_symmetry_Int_Tables_number   1
_chemical_formula_structural   BaSiP4(HO7)2
_chemical_formula_sum   'Ba1 Si1 P4 H2 O14'
_cell_volume   268.58866803
_cell_formula_units_Z   1
loop_
 _symmetry_equiv_pos_site_id
 _symmetry_equiv_pos_as_xyz
  1  'x, y, z'
loop_
 _atom_site_type_symbol
 _atom_site_label
 _atom_site_symmetry_multiplicity
 _atom_site_fract_x
 _atom_site_fract_y
 _atom_site_fract_z
 _atom_site_occupancy
  Ba  Ba0  1  0.00000000  0.00000000  0.00000000  1
  Si  Si0  1  0.00000000  0.00000000  0.50000000  1
  P  P0  1  0.41386500  0.16732300  0.66577900  1
  P  P1  1  0.58613500  0.83267700  0.33422100  1
  P  P2  1  0.09565600  0.56192500  0.73839400  1
  P  P3  1  0.90434400  0.43807500  0.26160600  1
  H  H0  1  0.54563600  0.54199200  0.83035800  1
  H  H1  1  0.45436400  0.45800800  0.16964200  1
  O  O0  1  0.51023700  0.08791500  0.82794400  1
  O  O1  1  0.48976300  0.91208500  0.17205600  1
  O  O2  1  0.15164400  0.07452300  0.64654000  1
  O  O3  1  0.84835600  0.92547700  0.35346000  1
  O  O4  1  0.35316600  0.85230300  0.45912400  1
  O  O5  1  0.64683400  0.14769700  0.54087600  1
  O  O6  1  0.28716800  0.42409100  0.62905100  1
  O  O7  1  0.71283200  0.57590900  0.37094900  1
  O  O8  1  0.06851000  0.22790000  0.36418300  1
  O  O9  1  0.93149000  0.77210000  0.63581700  1
  O  O10  1  0.11848500  0.55526400  0.16689300  1
  O  O11  1  0.88151500  0.44473600  0.83310700  1
  O  O12  1  0.32004700  0.60729200  0.83680000  1
  O  O13  1  0.67995300  0.39270800  0.16320000  1
loop_
_geom_bond_atom_site_label_1
_geom_bond_atom_site_label_2
_geom_bond_distance
_geom_bond_site_symmetry_2
Ba0 O1 2.734771 1_545
Ba0 O0 2.734771 1_454
Ba0 O0 2.859351 1_554
Ba0 O1 2.859351 1_445
Ba0 O11 2.913819 1_454
Ba0 O10 2.913819 1_545
Ba0 O2 3.205708 1_554
Ba0 O3 3.205708 1_445
Ba0 O13 3.327038 1_455
Ba0 O12 3.327038 1_544
H0 O12 1.037160 1_555
H0 O11 1.538659 1_555
H1 O13 1.037160 1_555
H1 O10 1.538659 1_555
O0 P0 1.510029 1_555
O1 P1 1.510029 1_555
O2 P0 1.546735 1_555
O2 Si0 1.797026 1_555
O3 P1 1.546735 1_555
O3 Si0 1.797026 1_665
O4 P1 1.525776 1_555
O4 Si0 1.763215 1_565
O5 P0 1.525776 1_555
O5 Si0 1.763215 1_655
O6 P2 1.604954 1_555
O6 P0 1.624838 1_555
O7 P3 1.604954 1_555
O7 P1 1.624838 1_555
O8 P3 1.531254 1_455
O8 Si0 1.788851 1_555
O9 P2 1.531254 1_655
O9 Si0 1.788851 1_665
O10 P3 1.512237 1_455
O11 P2 1.512237 1_655
O12 P2 1.566769 1_555
O13 P3 1.566769 1_555
