# generated using pymatgen
data_NaFeCSO7
_symmetry_space_group_name_H-M   'P 1'
_cell_length_a   6.59241400
_cell_length_b   5.30385000
_cell_length_c   9.12618718
_cell_angle_alpha   88.10213176
_cell_angle_beta   90.00000000
_cell_angle_gamma   90.00000000
_symmetry_Int_Tables_number   1
_chemical_formula_structural   NaFeCSO7
_chemical_formula_sum   'Na2 Fe2 C2 S2 O14'
_cell_volume   318.92368982
_cell_formula_units_Z   2
loop_
 _symmetry_equiv_pos_site_id
 _symmetry_equiv_pos_as_xyz
  1  'x, y, z'
loop_
 _atom_site_type_symbol
 _atom_site_label
 _atom_site_symmetry_multiplicity
 _atom_site_fract_x
 _atom_site_fract_y
 _atom_site_fract_z
 _atom_site_occupancy
  Na  Na0  1  0.51104700  0.76597700  0.78423700  1
  Na  Na1  1  0.01104700  0.23402300  0.21576300  1
  Fe  Fe0  1  0.23084300  0.22084900  0.65928100  1
  Fe  Fe1  1  0.73084300  0.77915100  0.34071900  1
  C  C0  1  0.26055200  0.27519000  0.92213100  1
  C  C1  1  0.76055200  0.72481000  0.07786900  1
  S  S0  1  0.74419700  0.27430700  0.56758400  1
  S  S1  1  0.24419700  0.72569300  0.43241600  1
  O  O0  1  0.75453500  0.69185500  0.94456400  1
  O  O1  1  0.25832200  0.05234300  0.85896300  1
  O  O2  1  0.26496800  0.46203500  0.81920100  1
  O  O3  1  0.92418100  0.21776800  0.66025700  1
  O  O4  1  0.56279000  0.19391600  0.65251900  1
  O  O5  1  0.25809000  0.86187800  0.57262300  1
  O  O6  1  0.73262400  0.55261000  0.53176000  1
  O  O7  1  0.23262400  0.44739000  0.46824000  1
  O  O8  1  0.75809000  0.13812200  0.42737700  1
  O  O9  1  0.06279000  0.80608400  0.34748100  1
  O  O10  1  0.42418100  0.78223200  0.33974300  1
  O  O11  1  0.76496800  0.53796500  0.18079900  1
  O  O12  1  0.75832200  0.94765700  0.14103700  1
  O  O13  1  0.25453500  0.30814500  0.05543600  1
loop_
_geom_bond_atom_site_label_1
_geom_bond_atom_site_label_2
_geom_bond_distance
_geom_bond_site_symmetry_2
Na0 O0 2.198616 1_555
Na0 O2 2.301782 1_555
Na0 O1 2.369883 1_565
Na0 O4 2.555835 1_565
Na0 O5 2.589243 1_555
Na0 O6 2.982654 1_555
Na1 O13 2.198616 1_555
Na1 O11 2.301782 1_455
Na1 O12 2.369883 1_445
Na1 O9 2.555835 1_545
Na1 O8 2.589243 1_455
Na1 O7 2.982654 1_555
Fe0 O2 1.985115 1_555
Fe0 O1 2.011119 1_555
Fe0 O3 2.021726 1_455
Fe0 O7 2.084416 1_555
Fe0 O5 2.093417 1_545
Fe0 O4 2.193991 1_555
Fe1 O11 1.985115 1_555
Fe1 O12 2.011119 1_555
Fe1 O10 2.021726 1_555
Fe1 O6 2.084416 1_555
Fe1 O8 2.093417 1_565
Fe1 O9 2.193991 1_655
C0 O13 1.235412 1_556
C0 O1 1.332171 1_555
C0 O2 1.343004 1_555
C1 O0 1.235412 1_554
C1 O12 1.332171 1_555
C1 O11 1.343004 1_555
O3 S0 1.481982 1_555
O4 S0 1.480183 1_555
O5 S1 1.492847 1_555
O6 S0 1.503179 1_555
O7 S1 1.503179 1_555
O8 S0 1.492847 1_555
O9 S1 1.480183 1_555
O10 S1 1.481982 1_555
