# generated using pymatgen
data_Fe4OF7
_symmetry_space_group_name_H-M   'P 1'
_cell_length_a   9.57970800
_cell_length_b   5.76260900
_cell_length_c   5.78003324
_cell_angle_alpha   67.85842646
_cell_angle_beta   90.00000000
_cell_angle_gamma   90.00000000
_symmetry_Int_Tables_number   1
_chemical_formula_structural   Fe4OF7
_chemical_formula_sum   'Fe8 O2 F14'
_cell_volume   295.55105470
_cell_formula_units_Z   2
loop_
 _symmetry_equiv_pos_site_id
 _symmetry_equiv_pos_as_xyz
  1  'x, y, z'
loop_
 _atom_site_type_symbol
 _atom_site_label
 _atom_site_symmetry_multiplicity
 _atom_site_fract_x
 _atom_site_fract_y
 _atom_site_fract_z
 _atom_site_occupancy
  Fe  Fe0  1  0.13539900  0.98519200  0.00564300  1
  Fe  Fe1  1  0.62070800  0.00258900  0.99565100  1
  Fe  Fe2  1  0.86460100  0.98519200  0.50564300  1
  Fe  Fe3  1  0.86610700  0.50894200  0.97076800  1
  Fe  Fe4  1  0.37929200  0.00258900  0.49565100  1
  Fe  Fe5  1  0.37052800  0.50629200  0.01122700  1
  Fe  Fe6  1  0.62947200  0.50629200  0.51122700  1
  Fe  Fe7  1  0.13389300  0.50894200  0.47076800  1
  O  O0  1  0.77788700  0.64096800  0.66747600  1
  O  O1  1  0.22211300  0.64096800  0.16747600  1
  F  F0  1  0.97031100  0.83311900  0.86855000  1
  F  F1  1  0.47187100  0.84529400  0.85251000  1
  F  F2  1  0.26961400  0.64634200  0.65786700  1
  F  F3  1  0.52046900  0.35489300  0.85065100  1
  F  F4  1  0.02968900  0.83311900  0.36855000  1
  F  F5  1  0.03005600  0.34971800  0.83818700  1
  F  F6  1  0.52812900  0.84529400  0.35251000  1
  F  F7  1  0.73038600  0.64634200  0.15786700  1
  F  F8  1  0.72006400  0.16026900  0.64942000  1
  F  F9  1  0.22087300  0.16638300  0.63204800  1
  F  F10  1  0.96994400  0.34971800  0.33818700  1
  F  F11  1  0.47953100  0.35489300  0.35065100  1
  F  F12  1  0.77912700  0.16638300  0.13204800  1
  F  F13  1  0.27993600  0.16026900  0.14942000  1
loop_
_geom_bond_atom_site_label_1
_geom_bond_atom_site_label_2
_geom_bond_distance
_geom_bond_site_symmetry_2
Fe0 O1 2.025131 1_555
Fe2 O0 2.025131 1_555
Fe3 O0 1.833262 1_555
Fe5 O1 1.991912 1_555
Fe6 O0 1.991912 1_555
Fe7 O1 1.833262 1_555
F0 Fe3 2.000851 1_555
F0 Fe0 2.102483 1_656
F0 Fe2 2.192674 1_555
F1 Fe1 2.025929 1_565
F1 Fe5 2.061436 1_556
F1 Fe4 2.110306 1_565
F2 Fe7 2.032808 1_555
F2 Fe5 2.124832 1_556
F2 Fe4 2.178663 1_565
F3 Fe5 2.072731 1_556
F3 Fe6 2.100075 1_555
F3 Fe1 2.112724 1_555
F4 Fe7 2.000851 1_555
F4 Fe2 2.102483 1_455
F4 Fe0 2.192674 1_555
F5 Fe3 2.103780 1_455
F5 Fe0 2.198915 1_546
F5 Fe7 2.207401 1_555
F6 Fe4 2.025929 1_565
F6 Fe6 2.061436 1_555
F6 Fe1 2.110306 1_564
F7 Fe3 2.032808 1_554
F7 Fe6 2.124832 1_555
F7 Fe1 2.178663 1_564
F8 Fe6 2.041227 1_555
F8 Fe2 2.063415 1_545
F8 Fe1 2.089443 1_555
F9 Fe7 2.018161 1_555
F9 Fe4 2.092011 1_555
F9 Fe0 2.173494 1_546
F10 Fe7 2.103780 1_655
F10 Fe2 2.198915 1_545
F10 Fe3 2.207401 1_554
F11 Fe6 2.072731 1_555
F11 Fe5 2.100075 1_555
F11 Fe4 2.112724 1_555
F12 Fe3 2.018161 1_554
F12 Fe1 2.092011 1_554
F12 Fe2 2.173494 1_545
F13 Fe5 2.041227 1_555
F13 Fe0 2.063415 1_545
F13 Fe4 2.089443 1_555
