# generated using pymatgen
data_H12Pd(I2N)4
_symmetry_space_group_name_H-M   'P 1'
_cell_length_a   8.69690500
_cell_length_b   9.63508100
_cell_length_c   13.22117152
_cell_angle_alpha   79.03058140
_cell_angle_beta   90.00000000
_cell_angle_gamma   90.00000000
_symmetry_Int_Tables_number   1
_chemical_formula_structural   H12Pd(I2N)4
_chemical_formula_sum   'H24 Pd2 I16 N8'
_cell_volume   1087.63107055
_cell_formula_units_Z   2
loop_
 _symmetry_equiv_pos_site_id
 _symmetry_equiv_pos_as_xyz
  1  'x, y, z'
loop_
 _atom_site_type_symbol
 _atom_site_label
 _atom_site_symmetry_multiplicity
 _atom_site_fract_x
 _atom_site_fract_y
 _atom_site_fract_z
 _atom_site_occupancy
  H  H0  1  0.50491800  0.73785200  0.17033100  1
  H  H1  1  0.00491800  0.26214800  0.82966900  1
  H  H2  1  0.49508200  0.26214800  0.82966900  1
  H  H3  1  0.99508200  0.73785200  0.17033100  1
  H  H4  1  0.52783100  0.67105800  0.29534800  1
  H  H5  1  0.02783100  0.32894200  0.70465200  1
  H  H6  1  0.47216900  0.32894200  0.70465200  1
  H  H7  1  0.97216900  0.67105800  0.29534800  1
  H  H8  1  0.62474200  0.60524600  0.20660700  1
  H  H9  1  0.12474200  0.39475400  0.79339300  1
  H  H10  1  0.37525800  0.39475400  0.79339300  1
  H  H11  1  0.87525800  0.60524600  0.20660700  1
  H  H12  1  0.60535700  0.07165300  0.28102900  1
  H  H13  1  0.10535700  0.92834700  0.71897100  1
  H  H14  1  0.39464300  0.92834700  0.71897100  1
  H  H15  1  0.89464300  0.07165300  0.28102900  1
  H  H16  1  0.52528600  0.02965200  0.17727900  1
  H  H17  1  0.02528600  0.97034800  0.82272100  1
  H  H18  1  0.47471400  0.97034800  0.82272100  1
  H  H19  1  0.97471400  0.02965200  0.17727900  1
  H  H20  1  0.48486800  0.93685500  0.29283700  1
  H  H21  1  0.98486800  0.06314500  0.70716300  1
  H  H22  1  0.51513200  0.06314500  0.70716300  1
  H  H23  1  0.01513200  0.93685500  0.29283700  1
  Pd  Pd0  1  0.75000000  0.84571000  0.23605500  1
  Pd  Pd1  1  0.25000000  0.15429000  0.76394500  1
  I  I0  1  0.75000000  0.21066200  0.59291100  1
  I  I1  1  0.25000000  0.78933800  0.40708900  1
  I  I2  1  0.75000000  0.89508000  0.55442100  1
  I  I3  1  0.25000000  0.10492000  0.44557900  1
  I  I4  1  0.75000000  0.60912600  0.52885600  1
  I  I5  1  0.25000000  0.39087400  0.47114400  1
  I  I6  1  0.75000000  0.08160800  0.95544300  1
  I  I7  1  0.25000000  0.91839200  0.04455700  1
  I  I8  1  0.75000000  0.79230300  0.91021700  1
  I  I9  1  0.25000000  0.20769700  0.08978300  1
  I  I10  1  0.75000000  0.50116300  0.86865900  1
  I  I11  1  0.25000000  0.49883700  0.13134100  1
  I  I12  1  0.75000000  0.38885200  0.11743400  1
  I  I13  1  0.25000000  0.61114800  0.88256600  1
  I  I14  1  0.75000000  0.30754500  0.33738400  1
  I  I15  1  0.25000000  0.69245500  0.66261600  1
  N  N0  1  0.58354400  0.69723000  0.22564300  1
  N  N1  1  0.08354400  0.30277000  0.77435700  1
  N  N2  1  0.41645600  0.30277000  0.77435700  1
  N  N3  1  0.91645600  0.69723000  0.22564300  1
  N  N4  1  0.57237400  0.98765000  0.24756700  1
  N  N5  1  0.07237400  0.01235000  0.75243300  1
  N  N6  1  0.42762600  0.01235000  0.75243300  1
  N  N7  1  0.92762600  0.98765000  0.24756700  1
loop_
_geom_bond_atom_site_label_1
_geom_bond_atom_site_label_2
_geom_bond_distance
_geom_bond_site_symmetry_2
H0 N0 1.023051 1_555
H1 N1 1.023051 1_555
H2 N2 1.023051 1_555
H3 N3 1.023051 1_555
H4 N0 1.029189 1_555
H5 N1 1.029189 1_555
H6 N2 1.029189 1_555
H7 N3 1.029189 1_555
H8 N0 1.030576 1_555
H9 N1 1.030576 1_555
H10 N2 1.030576 1_555
H11 N3 1.030576 1_555
H12 N4 1.034102 1_545
H13 N5 1.034102 1_565
H14 N6 1.034102 1_565
H15 N7 1.034102 1_545
H16 N4 1.025641 1_545
H17 N5 1.025641 1_565
H18 N6 1.025641 1_565
H19 N7 1.025641 1_545
H20 N4 1.032204 1_555
H21 N5 1.032204 1_655
H22 N6 1.032204 1_555
H23 N7 1.032204 1_455
I0 I2 3.177017 1_545
I0 I14 3.329348 1_555
I1 I3 3.177017 1_565
I1 I15 3.329348 1_555
I2 I4 2.838965 1_555
I3 I5 2.838965 1_555
I6 I8 2.960047 1_545
I7 I9 2.960047 1_565
I10 I8 2.959284 1_555
I10 I12 3.261077 1_556
I11 I9 2.959284 1_555
I11 I13 3.261077 1_554
I12 I14 2.864118 1_555
I13 I15 2.864118 1_555
N0 Pd0 2.058217 1_555
N1 Pd1 2.058217 1_555
N2 Pd1 2.058217 1_555
N3 Pd0 2.058217 1_555
N4 Pd0 2.087850 1_555
N5 Pd1 2.087850 1_555
N6 Pd1 2.087850 1_555
N7 Pd0 2.087850 1_555
