# generated using pymatgen
data_Li3CuF5
_symmetry_space_group_name_H-M   'P 1'
_cell_length_a   6.19212016
_cell_length_b   6.19212016
_cell_length_c   6.81891336
_cell_angle_alpha   74.51137645
_cell_angle_beta   74.51137645
_cell_angle_gamma   57.68496247
_symmetry_Int_Tables_number   1
_chemical_formula_structural   Li3CuF5
_chemical_formula_sum   'Li6 Cu2 F10'
_cell_volume   210.44099444
_cell_formula_units_Z   2
loop_
 _symmetry_equiv_pos_site_id
 _symmetry_equiv_pos_as_xyz
  1  'x, y, z'
loop_
 _atom_site_type_symbol
 _atom_site_label
 _atom_site_symmetry_multiplicity
 _atom_site_fract_x
 _atom_site_fract_y
 _atom_site_fract_z
 _atom_site_occupancy
  Li  Li0  1  0.55137200  0.94873700  0.67241800  1
  Li  Li1  1  0.94873700  0.55137200  0.17241800  1
  Li  Li2  1  0.51110900  0.48889100  0.75000000  1
  Li  Li3  1  0.48889100  0.51110900  0.25000000  1
  Li  Li4  1  0.05126300  0.44862800  0.82758200  1
  Li  Li5  1  0.44862800  0.05126300  0.32758200  1
  Cu  Cu0  1  0.00000000  0.00000000  0.00000000  1
  Cu  Cu1  1  0.00000000  0.00000000  0.50000000  1
  F  F0  1  0.26148500  0.08463000  0.86856300  1
  F  F1  1  0.45916100  0.77077400  0.54313900  1
  F  F2  1  0.16938200  0.83061800  0.25000000  1
  F  F3  1  0.77077400  0.45916100  0.04313900  1
  F  F4  1  0.08463000  0.26148500  0.36856300  1
  F  F5  1  0.91537000  0.73851500  0.63143700  1
  F  F6  1  0.22922600  0.54083900  0.95686100  1
  F  F7  1  0.83061800  0.16938200  0.75000000  1
  F  F8  1  0.54083900  0.22922600  0.45686100  1
  F  F9  1  0.73851500  0.91537000  0.13143700  1
loop_
_geom_bond_atom_site_label_1
_geom_bond_atom_site_label_2
_geom_bond_distance
_geom_bond_site_symmetry_2
Cu0 F0 1.892296 1_554
Cu0 F9 1.892296 1_445
Cu0 F2 1.982444 1_545
Cu0 F7 1.982444 1_454
Cu0 F3 2.468588 1_455
Cu0 F6 2.468588 1_544
Cu1 F5 1.892296 1_445
Cu1 F4 1.892296 1_555
Cu1 F7 1.982444 1_455
Cu1 F2 1.982444 1_545
Cu1 F1 2.468588 1_545
Cu1 F8 2.468588 1_455
F0 Li0 1.850131 1_545
F0 Li4 1.890436 1_555
F1 Li2 1.861949 1_555
F1 Li5 1.935952 1_565
F1 Li0 1.943670 1_555
F2 Li3 1.908810 1_555
F3 Li3 1.861949 1_555
F3 Li4 1.935952 1_654
F3 Li1 1.943670 1_555
F4 Li1 1.850131 1_455
F4 Li5 1.890436 1_555
F5 Li4 1.850131 1_655
F5 Li0 1.890436 1_555
F6 Li2 1.861949 1_555
F6 Li1 1.935952 1_456
F6 Li4 1.943670 1_555
F7 Li2 1.908810 1_555
F8 Li3 1.861949 1_555
F8 Li0 1.935952 1_545
F8 Li5 1.943670 1_555
F9 Li5 1.850131 1_565
F9 Li1 1.890436 1_555
