# generated using pymatgen
data_Mn2Fe3Co3O16
_symmetry_space_group_name_H-M   'P 1'
_cell_length_a   5.77081748
_cell_length_b   5.77081748
_cell_length_c   8.85412517
_cell_angle_alpha   88.24081346
_cell_angle_beta   88.24081346
_cell_angle_gamma   59.79581371
_symmetry_Int_Tables_number   1
_chemical_formula_structural   Mn2Fe3Co3O16
_chemical_formula_sum   'Mn2 Fe3 Co3 O16'
_cell_volume   254.67202863
_cell_formula_units_Z   1
loop_
 _symmetry_equiv_pos_site_id
 _symmetry_equiv_pos_as_xyz
  1  'x, y, z'
loop_
 _atom_site_type_symbol
 _atom_site_label
 _atom_site_symmetry_multiplicity
 _atom_site_fract_x
 _atom_site_fract_y
 _atom_site_fract_z
 _atom_site_occupancy
  Mn  Mn0  1  0.66699700  0.66699700  0.51664900  1
  Mn  Mn1  1  0.33101700  0.33101700  0.01499300  1
  Fe  Fe0  1  0.83468700  0.83468700  0.78958400  1
  Fe  Fe1  1  0.16938100  0.66863000  0.29034500  1
  Fe  Fe2  1  0.66863000  0.16938100  0.29034500  1
  Co  Co0  1  0.33438500  0.83371600  0.79146200  1
  Co  Co1  1  0.83371600  0.33438500  0.79146200  1
  Co  Co2  1  0.16891000  0.16891000  0.29278300  1
  O  O0  1  0.33730600  0.83913000  0.39984700  1
  O  O1  1  0.52146300  0.52146300  0.67034200  1
  O  O2  1  0.66366900  0.66366900  0.89847500  1
  O  O3  1  0.00546100  0.00546100  0.68351400  1
  O  O4  1  0.00892400  0.00892400  0.18450200  1
  O  O5  1  0.83913000  0.33730600  0.39984700  1
  O  O6  1  0.51307500  0.95867600  0.65965800  1
  O  O7  1  0.95867600  0.51307500  0.65965800  1
  O  O8  1  0.16314800  0.16314800  0.89004100  1
  O  O9  1  0.83034300  0.83034300  0.40039100  1
  O  O10  1  0.03981500  0.46732700  0.15729200  1
  O  O11  1  0.46732700  0.03981500  0.15729200  1
  O  O12  1  0.32869900  0.32869900  0.40129000  1
  O  O13  1  0.16911800  0.67000300  0.89818800  1
  O  O14  1  0.47791600  0.47791600  0.14819500  1
  O  O15  1  0.67000300  0.16911800  0.89818800  1
loop_
_geom_bond_atom_site_label_1
_geom_bond_atom_site_label_2
_geom_bond_distance
_geom_bond_site_symmetry_2
Mn0 O9 1.900428 1_555
Mn0 O6 1.944996 1_555
Mn0 O7 1.944996 1_555
Mn0 O1 1.957518 1_555
Mn0 O5 1.957614 1_555
Mn0 O0 1.957614 1_555
Mn1 O10 1.905519 1_555
Mn1 O11 1.905519 1_555
Mn1 O14 1.916789 1_555
Mn1 O15 1.966077 1_554
Mn1 O13 1.966077 1_554
Mn1 O8 2.043713 1_554
Fe0 O3 1.920421 1_665
Fe0 O2 1.934093 1_555
Fe0 O15 1.940335 1_565
Fe0 O13 1.940335 1_655
Fe0 O7 2.006074 1_555
Fe0 O6 2.006074 1_555
Fe1 O4 1.924254 1_565
Fe1 O9 1.936473 1_455
Fe1 O12 1.944450 1_555
Fe1 O0 1.980614 1_555
Fe1 O14 1.985284 1_555
Fe1 O10 2.075684 1_555
Fe2 O4 1.924254 1_655
Fe2 O9 1.936473 1_545
Fe2 O12 1.944450 1_555
Fe2 O5 1.980614 1_555
Fe2 O14 1.985284 1_555
Fe2 O11 2.075684 1_555
Co0 O13 1.868574 1_555
Co0 O8 1.873820 1_565
Co0 O6 1.888892 1_555
Co0 O2 1.910204 1_555
Co0 O1 1.911235 1_555
Co0 O3 1.912898 1_565
Co1 O15 1.868574 1_555
Co1 O8 1.873820 1_655
Co1 O7 1.888892 1_555
Co1 O2 1.910204 1_555
Co1 O1 1.911235 1_555
Co1 O3 1.912898 1_655
Co2 O0 1.884083 1_545
Co2 O5 1.884083 1_455
Co2 O12 1.894180 1_555
Co2 O4 1.894806 1_555
Co2 O10 1.896578 1_555
Co2 O11 1.896578 1_555
