# generated using pymatgen
data_SnH3S4N4Cl5O
_symmetry_space_group_name_H-M   'P 1'
_cell_length_a   24.37560500
_cell_length_b   6.84285000
_cell_length_c   9.35834066
_cell_angle_alpha   78.08535855
_cell_angle_beta   90.00000000
_cell_angle_gamma   90.00000000
_symmetry_Int_Tables_number   1
_chemical_formula_structural   SnH3S4N4Cl5O
_chemical_formula_sum   'Sn4 H12 S16 N16 Cl20 O4'
_cell_volume   1527.32932361
_cell_formula_units_Z   4
loop_
 _symmetry_equiv_pos_site_id
 _symmetry_equiv_pos_as_xyz
  1  'x, y, z'
loop_
 _atom_site_type_symbol
 _atom_site_label
 _atom_site_symmetry_multiplicity
 _atom_site_fract_x
 _atom_site_fract_y
 _atom_site_fract_z
 _atom_site_occupancy
  Sn  Sn0  1  0.36201700  0.52200400  0.75139500  1
  Sn  Sn1  1  0.86201700  0.97799600  0.24860500  1
  Sn  Sn2  1  0.63798300  0.47799600  0.24860500  1
  Sn  Sn3  1  0.13798300  0.02200400  0.75139500  1
  H  H0  1  0.39086700  0.93306300  0.49255000  1
  H  H1  1  0.89086700  0.56693700  0.50745000  1
  H  H2  1  0.60913300  0.06693700  0.50745000  1
  H  H3  1  0.10913300  0.43306300  0.49255000  1
  H  H4  1  0.28453900  0.21310500  0.74038300  1
  H  H5  1  0.78453900  0.28689500  0.25961700  1
  H  H6  1  0.71546100  0.78689500  0.25961700  1
  H  H7  1  0.21546100  0.71310500  0.74038300  1
  H  H8  1  0.34292700  0.11004200  0.73766400  1
  H  H9  1  0.84292700  0.38995800  0.26233600  1
  H  H10  1  0.65707300  0.88995800  0.26233600  1
  H  H11  1  0.15707300  0.61004200  0.73766400  1
  S  S0  1  0.34271700  0.17648900  0.32532200  1
  S  S1  1  0.84271700  0.32351100  0.67467800  1
  S  S2  1  0.65728300  0.82351100  0.67467800  1
  S  S3  1  0.15728300  0.67648900  0.32532200  1
  S  S4  1  0.32288800  0.85604600  0.15970700  1
  S  S5  1  0.82288800  0.64395400  0.84029300  1
  S  S6  1  0.67711200  0.14395400  0.84029300  1
  S  S7  1  0.17711200  0.35604600  0.15970700  1
  S  S8  1  0.44238000  0.75819500  0.17689900  1
  S  S9  1  0.94238000  0.74180500  0.82310100  1
  S  S10  1  0.55762000  0.24180500  0.82310100  1
  S  S11  1  0.05762000  0.25819500  0.17689900  1
  S  S12  1  0.45839100  0.09550300  0.32831600  1
  S  S13  1  0.95839100  0.40449700  0.67168400  1
  S  S14  1  0.54160900  0.90449700  0.67168400  1
  S  S15  1  0.04160900  0.59550300  0.32831600  1
  N  N0  1  0.39707000  0.05655000  0.41045000  1
  N  N1  1  0.89707000  0.44345000  0.58955000  1
  N  N2  1  0.60293000  0.94345000  0.58955000  1
  N  N3  1  0.10293000  0.55655000  0.41045000  1
  N  N4  1  0.31487400  0.05112600  0.21906000  1
  N  N5  1  0.81487400  0.44887400  0.78094000  1
  N  N6  1  0.68512600  0.94887400  0.78094000  1
  N  N7  1  0.18512600  0.55112600  0.21906000  1
  N  N8  1  0.37784600  0.72950500  0.19470700  1
  N  N9  1  0.87784600  0.77049500  0.80529300  1
  N  N10  1  0.62215400  0.27049500  0.80529300  1
  N  N11  1  0.12215400  0.22950500  0.19470700  1
  N  N12  1  0.47052000  0.93297200  0.23213200  1
  N  N13  1  0.97052000  0.56702800  0.76786800  1
  N  N14  1  0.52948000  0.06702800  0.76786800  1
  N  N15  1  0.02948000  0.43297200  0.23213200  1
  Cl  Cl0  1  0.41621400  0.31618000  0.94183200  1
  Cl  Cl1  1  0.91621400  0.18382000  0.05816800  1
  Cl  Cl2  1  0.58378600  0.68382000  0.05816800  1
  Cl  Cl3  1  0.08378600  0.81618000  0.94183200  1
  Cl  Cl4  1  0.28586500  0.52346700  0.92092500  1
  Cl  Cl5  1  0.78586500  0.97653300  0.07907500  1
  Cl  Cl6  1  0.71413500  0.47653300  0.07907500  1
  Cl  Cl7  1  0.21413500  0.02346700  0.92092500  1
  Cl  Cl8  1  0.30252100  0.69877300  0.55608700  1
  Cl  Cl9  1  0.80252100  0.80122700  0.44391300  1
  Cl  Cl10  1  0.69747900  0.30122700  0.44391300  1
  Cl  Cl11  1  0.19747900  0.19877300  0.55608700  1
  Cl  Cl12  1  0.43142600  0.49500700  0.56996400  1
  Cl  Cl13  1  0.93142600  0.00499300  0.43003600  1
  Cl  Cl14  1  0.56857400  0.50499300  0.43003600  1
  Cl  Cl15  1  0.06857400  0.99500700  0.56996400  1
  Cl  Cl16  1  0.39923400  0.84440600  0.79052800  1
  Cl  Cl17  1  0.89923400  0.65559400  0.20947200  1
  Cl  Cl18  1  0.60076600  0.15559400  0.20947200  1
  Cl  Cl19  1  0.10076600  0.34440600  0.79052800  1
  O  O0  1  0.32228200  0.23622900  0.70346200  1
  O  O1  1  0.82228200  0.26377100  0.29653800  1
  O  O2  1  0.67771800  0.76377100  0.29653800  1
  O  O3  1  0.17771800  0.73622900  0.70346200  1
loop_
_geom_bond_atom_site_label_1
_geom_bond_atom_site_label_2
_geom_bond_distance
_geom_bond_site_symmetry_2
H0 N0 1.029142 1_565
H1 N1 1.029142 1_555
H2 N2 1.029142 1_545
H3 N3 1.029142 1_555
H4 O0 0.984003 1_555
H5 O1 0.984003 1_555
H6 O2 0.984003 1_555
H7 O3 0.984003 1_555
H8 O0 0.993564 1_555
H9 O1 0.993564 1_555
H10 O2 0.993564 1_555
H11 O3 0.993564 1_555
N0 S0 1.671407 1_555
N0 S12 1.676751 1_555
N1 S1 1.671407 1_555
N1 S13 1.676751 1_555
N2 S2 1.671407 1_555
N2 S14 1.676751 1_555
N3 S3 1.671407 1_555
N3 S15 1.676751 1_555
N4 S4 1.560386 1_545
N4 S0 1.593001 1_555
N5 S5 1.560386 1_555
N5 S1 1.593001 1_555
N6 S6 1.560386 1_565
N6 S2 1.593001 1_555
N7 S7 1.560386 1_555
N7 S3 1.593001 1_555
N8 S8 1.589751 1_555
N8 S4 1.592037 1_555
N9 S9 1.589751 1_555
N9 S5 1.592037 1_555
N10 S10 1.589751 1_555
N10 S6 1.592037 1_555
N11 S11 1.589751 1_555
N11 S7 1.592037 1_555
N12 S8 1.556688 1_555
N12 S12 1.596222 1_565
N13 S9 1.556688 1_555
N13 S13 1.596222 1_555
N14 S10 1.556688 1_555
N14 S14 1.596222 1_545
N15 S11 1.556688 1_555
N15 S15 1.596222 1_555
Cl0 Sn0 2.422528 1_555
Cl1 Sn1 2.422528 1_545
Cl2 Sn2 2.422528 1_555
Cl3 Sn3 2.422528 1_565
Cl4 Sn0 2.443230 1_555
Cl5 Sn1 2.443230 1_555
Cl6 Sn2 2.443230 1_555
Cl7 Sn3 2.443230 1_555
Cl8 Sn0 2.448303 1_555
Cl9 Sn1 2.448303 1_555
Cl10 Sn2 2.448303 1_555
Cl11 Sn3 2.448303 1_555
Cl12 Sn0 2.430836 1_555
Cl13 Sn1 2.430836 1_545
Cl14 Sn2 2.430836 1_555
Cl15 Sn3 2.430836 1_565
Cl16 Sn0 2.481491 1_555
Cl17 Sn1 2.481491 1_555
Cl18 Sn2 2.481491 1_555
Cl19 Sn3 2.481491 1_555
O0 Sn0 2.307721 1_555
O1 Sn1 2.307721 1_545
O2 Sn2 2.307721 1_555
O3 Sn3 2.307721 1_565
