# generated using pymatgen
data_In2WO6
_symmetry_space_group_name_H-M   'P 1'
_cell_length_a   5.46052600
_cell_length_b   10.38077300
_cell_length_c   16.05974600
_cell_angle_alpha   90.00000000
_cell_angle_beta   90.00000000
_cell_angle_gamma   90.00000000
_symmetry_Int_Tables_number   1
_chemical_formula_structural   In2WO6
_chemical_formula_sum   'In16 W8 O48'
_cell_volume   910.33836486
_cell_formula_units_Z   8
loop_
 _symmetry_equiv_pos_site_id
 _symmetry_equiv_pos_as_xyz
  1  'x, y, z'
loop_
 _atom_site_type_symbol
 _atom_site_label
 _atom_site_symmetry_multiplicity
 _atom_site_fract_x
 _atom_site_fract_y
 _atom_site_fract_z
 _atom_site_occupancy
  In  In0  1  0.90614000  0.64186500  0.06313800  1
  In  In1  1  0.40614000  0.85813500  0.06313800  1
  In  In2  1  0.95837700  0.85402900  0.22875900  1
  In  In3  1  0.45837700  0.64597100  0.22875900  1
  In  In4  1  0.95837700  0.35402900  0.27124100  1
  In  In5  1  0.45837700  0.14597100  0.27124100  1
  In  In6  1  0.40614000  0.35813500  0.43686200  1
  In  In7  1  0.90614000  0.14186500  0.43686200  1
  In  In8  1  0.09386000  0.85813500  0.56313800  1
  In  In9  1  0.59386000  0.64186500  0.56313800  1
  In  In10  1  0.54162300  0.85402900  0.72875900  1
  In  In11  1  0.04162300  0.64597100  0.72875900  1
  In  In12  1  0.54162300  0.35402900  0.77124100  1
  In  In13  1  0.04162300  0.14597100  0.77124100  1
  In  In14  1  0.09386000  0.35813500  0.93686200  1
  In  In15  1  0.59386000  0.14186500  0.93686200  1
  W  W0  1  0.39119200  0.38076900  0.11804800  1
  W  W1  1  0.89119200  0.11923100  0.11804800  1
  W  W2  1  0.39119200  0.88076900  0.38195200  1
  W  W3  1  0.89119200  0.61923100  0.38195200  1
  W  W4  1  0.10880800  0.38076900  0.61804800  1
  W  W5  1  0.60880800  0.11923100  0.61804800  1
  W  W6  1  0.10880800  0.88076900  0.88195200  1
  W  W7  1  0.60880800  0.61923100  0.88195200  1
  O  O0  1  0.92171800  0.21685100  0.01978300  1
  O  O1  1  0.42171800  0.28314900  0.01978300  1
  O  O2  1  0.11810300  0.46138100  0.06806200  1
  O  O3  1  0.61810300  0.03861900  0.06806200  1
  O  O4  1  0.11145500  0.98926500  0.10458100  1
  O  O5  1  0.61145500  0.51073500  0.10458100  1
  O  O6  1  0.68538000  0.77096000  0.14678500  1
  O  O7  1  0.18538000  0.72904000  0.14678500  1
  O  O8  1  0.66434000  0.26780100  0.17348000  1
  O  O9  1  0.16434000  0.23219900  0.17348000  1
  O  O10  1  0.80159300  0.04775500  0.22860200  1
  O  O11  1  0.30159300  0.45224500  0.22860200  1
  O  O12  1  0.30159300  0.95224500  0.27139800  1
  O  O13  1  0.80159300  0.54775500  0.27139800  1
  O  O14  1  0.66434000  0.76780100  0.32652000  1
  O  O15  1  0.16434000  0.73219900  0.32652000  1
  O  O16  1  0.68538000  0.27096000  0.35321500  1
  O  O17  1  0.18538000  0.22904000  0.35321500  1
  O  O18  1  0.11145500  0.48926500  0.39541900  1
  O  O19  1  0.61145500  0.01073500  0.39541900  1
  O  O20  1  0.11810300  0.96138100  0.43193800  1
  O  O21  1  0.61810300  0.53861900  0.43193800  1
  O  O22  1  0.42171800  0.78314900  0.48021700  1
  O  O23  1  0.92171800  0.71685100  0.48021700  1
  O  O24  1  0.07828200  0.28314900  0.51978300  1
  O  O25  1  0.57828200  0.21685100  0.51978300  1
  O  O26  1  0.38189700  0.46138100  0.56806200  1
  O  O27  1  0.88189700  0.03861900  0.56806200  1
  O  O28  1  0.38854500  0.98926500  0.60458100  1
  O  O29  1  0.88854500  0.51073500  0.60458100  1
  O  O30  1  0.81462000  0.77096000  0.64678500  1
  O  O31  1  0.31462000  0.72904000  0.64678500  1
  O  O32  1  0.83566000  0.26780100  0.67348000  1
  O  O33  1  0.33566000  0.23219900  0.67348000  1
  O  O34  1  0.19840700  0.45224500  0.72860200  1
  O  O35  1  0.69840700  0.04775500  0.72860200  1
  O  O36  1  0.19840700  0.95224500  0.77139800  1
  O  O37  1  0.69840700  0.54775500  0.77139800  1
  O  O38  1  0.83566000  0.76780100  0.82652000  1
  O  O39  1  0.33566000  0.73219900  0.82652000  1
  O  O40  1  0.81462000  0.27096000  0.85321500  1
  O  O41  1  0.31462000  0.22904000  0.85321500  1
  O  O42  1  0.38854500  0.48926500  0.89541900  1
  O  O43  1  0.88854500  0.01073500  0.89541900  1
  O  O44  1  0.38189700  0.96138100  0.93193800  1
  O  O45  1  0.88189700  0.53861900  0.93193800  1
  O  O46  1  0.07828200  0.78314900  0.98021700  1
  O  O47  1  0.57828200  0.71685100  0.98021700  1
loop_
_geom_bond_atom_site_label_1
_geom_bond_atom_site_label_2
_geom_bond_distance
_geom_bond_site_symmetry_2
In0 O46 2.192714 1_654
In0 O2 2.203664 1_655
In0 O5 2.210258 1_555
In0 O7 2.224527 1_655
In0 O6 2.248026 1_555
In0 O47 2.363137 1_554
In0 O45 2.367664 1_554
In1 O47 2.192714 1_554
In1 O3 2.203664 1_565
In1 O4 2.210258 1_555
In1 O6 2.224527 1_555
In1 O7 2.248026 1_555
In1 O46 2.363137 1_554
In1 O44 2.367664 1_554
In2 O6 2.167701 1_555
In2 O10 2.185675 1_565
In2 O7 2.225552 1_655
In2 O12 2.240717 1_655
In2 O15 2.308520 1_655
In2 O14 2.417462 1_555
In2 O4 2.578103 1_655
In3 O7 2.167701 1_555
In3 O11 2.185675 1_555
In3 O6 2.225552 1_555
In3 O13 2.240717 1_555
In3 O14 2.308520 1_555
In3 O15 2.417462 1_555
In3 O5 2.578103 1_555
In4 O16 2.167701 1_555
In4 O13 2.185675 1_555
In4 O17 2.225552 1_655
In4 O11 2.240717 1_655
In4 O9 2.308520 1_655
In4 O8 2.417462 1_555
In4 O18 2.578103 1_655
In5 O17 2.167701 1_555
In5 O12 2.185675 1_545
In5 O16 2.225552 1_555
In5 O10 2.240717 1_555
In5 O8 2.308520 1_555
In5 O9 2.417462 1_555
In5 O19 2.578103 1_555
In6 O25 2.192714 1_555
In6 O21 2.203664 1_555
In6 O18 2.210258 1_555
In6 O16 2.224527 1_555
In6 O17 2.248026 1_555
In6 O24 2.363137 1_555
In6 O26 2.367664 1_555
In7 O24 2.192714 1_655
In7 O20 2.203664 1_645
In7 O19 2.210258 1_555
In7 O17 2.224527 1_655
In7 O16 2.248026 1_555
In7 O25 2.363137 1_555
In7 O27 2.367664 1_555
In8 O23 2.192714 1_455
In8 O27 2.203664 1_465
In8 O28 2.210258 1_555
In8 O30 2.224527 1_455
In8 O31 2.248026 1_555
In8 O22 2.363137 1_555
In8 O20 2.367664 1_555
In9 O22 2.192714 1_555
In9 O26 2.203664 1_555
In9 O29 2.210258 1_555
In9 O31 2.224527 1_555
In9 O30 2.248026 1_555
In9 O23 2.363137 1_555
In9 O21 2.367664 1_555
In10 O30 2.167701 1_555
In10 O35 2.185675 1_565
In10 O31 2.225552 1_555
In10 O36 2.240717 1_555
In10 O39 2.308520 1_555
In10 O38 2.417462 1_555
In10 O28 2.578103 1_555
In11 O31 2.167701 1_555
In11 O34 2.185675 1_555
In11 O30 2.225552 1_455
In11 O37 2.240717 1_455
In11 O38 2.308520 1_455
In11 O39 2.417462 1_555
In11 O29 2.578103 1_455
In12 O40 2.167701 1_555
In12 O37 2.185675 1_555
In12 O41 2.225552 1_555
In12 O34 2.240717 1_555
In12 O33 2.308520 1_555
In12 O32 2.417462 1_555
In12 O42 2.578103 1_555
In13 O41 2.167701 1_555
In13 O36 2.185675 1_545
In13 O40 2.225552 1_455
In13 O35 2.240717 1_455
In13 O32 2.308520 1_455
In13 O33 2.417462 1_555
In13 O43 2.578103 1_455
In14 O0 2.192714 1_456
In14 O45 2.203664 1_455
In14 O42 2.210258 1_555
In14 O40 2.224527 1_455
In14 O41 2.248026 1_555
In14 O1 2.363137 1_556
In14 O2 2.367664 1_556
In15 O1 2.192714 1_556
In15 O44 2.203664 1_545
In15 O43 2.210258 1_555
In15 O41 2.224527 1_555
In15 O40 2.248026 1_555
In15 O0 2.363137 1_556
In15 O3 2.367664 1_556
O0 W1 1.882854 1_555
O1 W0 1.882854 1_555
O2 W0 1.889019 1_555
O3 W1 1.889019 1_555
O4 W1 1.820326 1_465
O5 W0 1.820326 1_555
O8 W0 2.095800 1_555
O8 W1 2.169229 1_555
O9 W1 2.095800 1_455
O9 W0 2.169229 1_555
O10 W1 1.985496 1_555
O11 W0 1.985496 1_555
O12 W2 1.985496 1_555
O13 W3 1.985496 1_555
O14 W2 2.095800 1_555
O14 W3 2.169229 1_555
O15 W3 2.095800 1_455
O15 W2 2.169229 1_555
O18 W3 1.820326 1_455
O19 W2 1.820326 1_545
O20 W2 1.889019 1_555
O21 W3 1.889019 1_555
O22 W2 1.882854 1_555
O23 W3 1.882854 1_555
O24 W4 1.882854 1_555
O25 W5 1.882854 1_555
O26 W4 1.889019 1_555
O27 W5 1.889019 1_555
O28 W5 1.820326 1_565
O29 W4 1.820326 1_655
O32 W4 2.095800 1_655
O32 W5 2.169229 1_555
O33 W5 2.095800 1_555
O33 W4 2.169229 1_555
O34 W4 1.985496 1_555
O35 W5 1.985496 1_555
O36 W6 1.985496 1_555
O37 W7 1.985496 1_555
O38 W6 2.095800 1_655
O38 W7 2.169229 1_555
O39 W7 2.095800 1_555
O39 W6 2.169229 1_555
O42 W7 1.820326 1_555
O43 W6 1.820326 1_645
O44 W6 1.889019 1_555
O45 W7 1.889019 1_555
O46 W6 1.882854 1_555
O47 W7 1.882854 1_555
