# generated using pymatgen
data_Li13Mn2O9
_symmetry_space_group_name_H-M   'P 1'
_cell_length_a   5.75432360
_cell_length_b   9.93762726
_cell_length_c   9.89953829
_cell_angle_alpha   118.98090750
_cell_angle_beta   90.67255278
_cell_angle_gamma   105.68938772
_symmetry_Int_Tables_number   1
_chemical_formula_structural   Li13Mn2O9
_chemical_formula_sum   'Li26 Mn4 O18'
_cell_volume   469.86178093
_cell_formula_units_Z   2
loop_
 _symmetry_equiv_pos_site_id
 _symmetry_equiv_pos_as_xyz
  1  'x, y, z'
loop_
 _atom_site_type_symbol
 _atom_site_label
 _atom_site_symmetry_multiplicity
 _atom_site_fract_x
 _atom_site_fract_y
 _atom_site_fract_z
 _atom_site_occupancy
  Li  Li0  1  0.01327200  0.42532600  0.69972900  1
  Li  Li1  1  0.51315600  0.42508600  0.19965200  1
  Li  Li2  1  0.80031000  0.94773200  0.48879700  1
  Li  Li3  1  0.30032400  0.94736800  0.98879900  1
  Li  Li4  1  0.59033000  0.22190900  0.25924100  1
  Li  Li5  1  0.09062000  0.22218700  0.75940900  1
  Li  Li6  1  0.09131500  0.21865600  0.12172600  1
  Li  Li7  1  0.59153700  0.21876500  0.62152300  1
  Li  Li8  1  0.00606300  0.41702900  0.37683900  1
  Li  Li9  1  0.50640400  0.41722200  0.87676200  1
  Li  Li10  1  0.32874900  0.95211300  0.62447100  1
  Li  Li11  1  0.82856400  0.95183900  0.12443800  1
  Li  Li12  1  0.58356900  0.42066700  0.53648400  1
  Li  Li13  1  0.08370100  0.42081700  0.03653400  1
  Li  Li14  1  0.67554600  0.06306900  0.36573600  1
  Li  Li15  1  0.17572000  0.06325900  0.86614000  1
  Li  Li16  1  0.42295900  0.57780500  0.45314800  1
  Li  Li17  1  0.92331200  0.57808000  0.95320900  1
  Li  Li18  1  0.32398300  0.75233400  0.71051100  1
  Li  Li19  1  0.82413700  0.75224100  0.21030000  1
  Li  Li20  1  0.88730400  0.75501900  0.86323000  1
  Li  Li21  1  0.38713300  0.75515100  0.36320000  1
  Li  Li22  1  0.74994800  0.93836500  0.81578300  1
  Li  Li23  1  0.24979500  0.93814400  0.31533100  1
  Li  Li24  1  0.44786700  0.57841300  0.77235400  1
  Li  Li25  1  0.94799500  0.57832500  0.27215400  1
  Mn  Mn0  1  0.37830900  0.73731400  0.05420400  1
  Mn  Mn1  1  0.13627800  0.22077400  0.44158300  1
  Mn  Mn2  1  0.87806000  0.73786300  0.55403600  1
  Mn  Mn3  1  0.63625900  0.22084700  0.94138900  1
  O  O0  1  0.66979800  0.66166400  0.34896200  1
  O  O1  1  0.16986000  0.66183300  0.84923400  1
  O  O2  1  0.98604600  0.96816400  0.66618500  1
  O  O3  1  0.48614400  0.96780100  0.16587600  1
  O  O4  1  0.15602200  0.67240600  0.48210900  1
  O  O5  1  0.65628000  0.67241400  0.98222500  1
  O  O6  1  0.63371800  0.67508500  0.65991700  1
  O  O7  1  0.13345000  0.67519400  0.15969600  1
  O  O8  1  0.33221100  0.34458600  0.33573900  1
  O  O9  1  0.83257200  0.34509300  0.83578000  1
  O  O10  1  0.81921900  0.30701300  0.47956000  1
  O  O11  1  0.31924600  0.30718500  0.97961700  1
  O  O12  1  0.45082100  0.98179200  0.82631600  1
  O  O13  1  0.95071600  0.98148400  0.32586500  1
  O  O14  1  0.99313900  0.98687300  0.98171100  1
  O  O15  1  0.49263700  0.98692000  0.48132000  1
  O  O16  1  0.33642700  0.34554600  0.66745500  1
  O  O17  1  0.83606200  0.34535800  0.16731000  1
loop_
_geom_bond_atom_site_label_1
_geom_bond_atom_site_label_2
_geom_bond_distance
_geom_bond_site_symmetry_2
Li0 O1 1.994709 1_555
Li0 O10 2.032074 1_455
Li0 O9 2.038630 1_455
Li0 O16 2.180453 1_555
Li1 O0 1.994921 1_555
Li1 O11 2.031088 1_554
Li1 O8 2.041038 1_555
Li1 O17 2.178805 1_555
Li2 O15 1.920778 1_555
Li2 O2 1.939155 1_555
Li2 O13 1.965503 1_555
Li2 O0 2.359964 1_555
Li3 O14 1.919038 1_455
Li3 O3 1.936787 1_556
Li3 O12 1.964685 1_555
Li3 O1 2.355551 1_555
Li4 O8 2.092119 1_555
Li4 O3 2.120603 1_545
Li4 O17 2.122878 1_555
Li4 O10 2.179371 1_555
Li5 O9 2.093018 1_455
Li5 O2 2.119944 1_445
Li5 O16 2.122722 1_555
Li5 O11 2.178022 1_555
Li6 O14 1.931304 1_444
Li6 O8 2.097573 1_555
Li6 O17 2.100384 1_455
Li6 O11 2.256539 1_554
Li7 O15 1.931875 1_545
Li7 O9 2.099405 1_555
Li7 O16 2.099980 1_555
Li7 O10 2.253170 1_555
Li8 O10 1.962803 1_455
Li8 O17 1.977533 1_455
Li8 O4 2.122004 1_555
Li8 O8 2.161219 1_555
Li9 O11 1.964724 1_555
Li9 O16 1.975557 1_555
Li9 O5 2.120231 1_555
Li9 O9 2.159800 1_555
Li10 O15 1.829542 1_555
Li10 O12 1.963928 1_555
Li10 O2 2.051892 1_455
Li10 O4 2.318879 1_555
Li11 O14 1.828718 1_554
Li11 O13 1.960326 1_555
Li11 O3 2.049600 1_555
Li11 O5 2.316390 1_554
Li12 O10 1.913497 1_555
Li12 O8 2.120864 1_555
Li12 O6 2.138248 1_555
Li12 O16 2.160520 1_555
Li13 O11 1.912830 1_554
Li13 O9 2.121178 1_454
Li13 O7 2.138346 1_555
Li13 O17 2.162201 1_455
Li14 O15 1.851021 1_545
Li14 O3 1.890734 1_545
Li14 O13 1.928530 1_545
Li14 O10 2.019202 1_555
Li15 O14 1.851346 1_445
Li15 O2 1.892435 1_445
Li15 O12 1.927516 1_545
Li15 O11 2.019090 1_555
Li16 O8 1.927667 1_555
Li16 O4 1.963565 1_555
Li16 O6 1.996331 1_555
Li16 O0 2.000719 1_555
Li17 O9 1.925745 1_555
Li17 O5 1.962380 1_555
Li17 O7 1.992776 1_656
Li17 O1 1.997693 1_655
Li18 O12 1.895690 1_555
Li18 O1 2.067702 1_555
Li18 O6 2.098856 1_555
Li18 O4 2.114388 1_555
Li19 O13 1.893849 1_555
Li19 O0 2.068051 1_555
Li19 O7 2.095591 1_655
Li19 O5 2.111594 1_554
Li20 O14 1.913349 1_555
Li20 O5 2.052421 1_555
Li20 O1 2.053208 1_655
Li20 O6 2.136852 1_555
Li21 O15 1.912594 1_555
Li21 O4 2.052735 1_555
Li21 O0 2.055335 1_555
Li21 O7 2.138534 1_555
Li22 O12 1.876770 1_555
Li22 O14 1.924252 1_555
Li22 O2 2.093151 1_555
Li22 O6 2.188811 1_555
Li23 O13 1.876109 1_455
Li23 O15 1.922429 1_555
Li23 O3 2.092502 1_555
Li23 O7 2.185986 1_555
Li24 O16 1.922997 1_555
Li24 O6 1.952963 1_555
Li24 O1 1.989999 1_555
Li24 O5 2.020472 1_555
Li25 O17 1.923876 1_555
Li25 O7 1.953389 1_655
Li25 O0 1.990509 1_555
Li25 O4 2.019967 1_655
Mn0 O3 1.901314 1_555
Mn0 O5 1.903046 1_554
Mn0 O7 1.909401 1_555
Mn0 O1 2.024853 1_554
Mn1 O13 2.016299 1_445
Mn1 O16 2.084281 1_555
Mn1 O8 2.099930 1_555
Mn1 O10 2.180367 1_455
Mn2 O2 1.899746 1_555
Mn2 O4 1.905022 1_655
Mn2 O6 1.912755 1_555
Mn2 O0 2.023223 1_555
Mn3 O12 2.014444 1_545
Mn3 O17 2.084099 1_556
Mn3 O9 2.101881 1_555
Mn3 O11 2.180625 1_555
