# generated using pymatgen
data_Li2VCrP2(HO5)2
_symmetry_space_group_name_H-M   'P 1'
_cell_length_a   5.41342300
_cell_length_b   7.36308284
_cell_length_c   14.31623028
_cell_angle_alpha   93.55210341
_cell_angle_beta   94.84129113
_cell_angle_gamma   106.32025139
_symmetry_Int_Tables_number   1
_chemical_formula_structural   Li2VCrP2(HO5)2
_chemical_formula_sum   'Li6 V3 Cr3 P6 H6 O30'
_cell_volume   543.49614050
_cell_formula_units_Z   3
loop_
 _symmetry_equiv_pos_site_id
 _symmetry_equiv_pos_as_xyz
  1  'x, y, z'
loop_
 _atom_site_type_symbol
 _atom_site_label
 _atom_site_symmetry_multiplicity
 _atom_site_fract_x
 _atom_site_fract_y
 _atom_site_fract_z
 _atom_site_occupancy
  Li  Li0  1  0.68473700  0.25971000  0.08200700  1
  Li  Li1  1  0.64878000  0.07361400  0.25114900  1
  Li  Li2  1  0.35122000  0.92638600  0.74885100  1
  Li  Li3  1  0.31526300  0.74029000  0.91799300  1
  Li  Li4  1  0.01798500  0.59256500  0.41558400  1
  Li  Li5  1  0.98201500  0.40743500  0.58441600  1
  V  V0  1  0.83312800  0.83316300  0.83338900  1
  V  V1  1  0.50000000  0.00000000  0.50000000  1
  V  V2  1  0.16687200  0.16683700  0.16661100  1
  Cr  Cr0  1  0.83374400  0.33346000  0.83327700  1
  Cr  Cr1  1  0.50000000  0.50000000  0.50000000  1
  Cr  Cr2  1  0.16625600  0.66654000  0.16672300  1
  P  P0  1  0.63544500  0.50792800  0.27449800  1
  P  P1  1  0.69696800  0.82523200  0.05970700  1
  P  P2  1  0.30303200  0.17476800  0.94029300  1
  P  P3  1  0.36455500  0.49207200  0.72550200  1
  P  P4  1  0.96786500  0.83936500  0.60748900  1
  P  P5  1  0.03213500  0.16063500  0.39251100  1
  H  H0  1  0.77197400  0.05399400  0.71325400  1
  H  H1  1  0.56215900  0.28279800  0.61998300  1
  H  H2  1  0.22802600  0.94600600  0.28674600  1
  H  H3  1  0.43784100  0.71720200  0.38001700  1
  H  H4  1  0.10474200  0.38718500  0.04647400  1
  H  H5  1  0.89525800  0.61281500  0.95352600  1
  O  O0  1  0.70248400  0.88310200  0.95753900  1
  O  O1  1  0.78863000  0.00899800  0.12950400  1
  O  O2  1  0.79671300  0.97264500  0.59163200  1
  O  O3  1  0.74253900  0.05649900  0.39891000  1
  O  O4  1  0.73255500  0.05678700  0.77967000  1
  O  O5  1  0.59257200  0.27723700  0.93468200  1
  O  O6  1  0.54470100  0.32429400  0.20445800  1
  O  O7  1  0.62836800  0.44928700  0.37672000  1
  O  O8  1  0.60330300  0.28049900  0.55385500  1
  O  O9  1  0.21137000  0.99100200  0.87049600  1
  O  O10  1  0.29751600  0.11689800  0.04246100  1
  O  O11  1  0.26744500  0.94321300  0.22033000  1
  O  O12  1  0.53879800  0.36056600  0.74232200  1
  O  O13  1  0.46120200  0.63943400  0.25767800  1
  O  O14  1  0.25746100  0.94350100  0.60109000  1
  O  O15  1  0.40742800  0.72276300  0.06531800  1
  O  O16  1  0.20328700  0.02735500  0.40836800  1
  O  O17  1  0.12808700  0.30607100  0.92418000  1
  O  O18  1  0.39669700  0.71950100  0.44614500  1
  O  O19  1  0.37163200  0.55071300  0.62328000  1
  O  O20  1  0.45529900  0.67570600  0.79554200  1
  O  O21  1  0.06593100  0.39006900  0.11293100  1
  O  O22  1  0.03610400  0.21788500  0.29041400  1
  O  O23  1  0.12337900  0.34313100  0.46279100  1
  O  O24  1  0.07499000  0.38994100  0.73135300  1
  O  O25  1  0.93406900  0.60993100  0.88706900  1
  O  O26  1  0.92501000  0.61005900  0.26864700  1
  O  O27  1  0.87191300  0.69392900  0.07582000  1
  O  O28  1  0.87662100  0.65686900  0.53720900  1
  O  O29  1  0.96389600  0.78211500  0.70958600  1
loop_
_geom_bond_atom_site_label_1
_geom_bond_atom_site_label_2
_geom_bond_distance
_geom_bond_site_symmetry_2
Li0 O21 2.013842 1_655
Li0 O6 2.048796 1_555
Li0 O10 2.075425 1_555
Li0 O5 2.146239 1_554
Li0 O1 2.204753 1_555
Li1 O11 2.014407 1_545
Li1 O1 2.038291 1_555
Li1 O22 2.077512 1_655
Li1 O3 2.153156 1_555
Li1 O6 2.201120 1_555
Li2 O4 2.014407 1_565
Li2 O9 2.038291 1_555
Li2 O29 2.077512 1_455
Li2 O14 2.153156 1_555
Li2 O20 2.201120 1_555
Li3 O25 2.013842 1_455
Li3 O20 2.048796 1_555
Li3 O0 2.075425 1_555
Li3 O15 2.146239 1_556
Li3 O9 2.204753 1_555
Li4 O18 1.997258 1_555
Li4 O28 2.041572 1_455
Li4 O7 2.085604 1_455
Li4 O26 2.141561 1_455
Li4 O23 2.198408 1_555
Li5 O8 1.997258 1_555
Li5 O23 2.041572 1_655
Li5 O19 2.085604 1_655
Li5 O24 2.141561 1_655
Li5 O28 2.198408 1_555
Cr0 O5 2.018429 1_555
Cr0 O24 2.024668 1_655
Cr0 O17 2.033794 1_655
Cr0 O12 2.035951 1_555
Cr0 O25 2.036124 1_555
Cr0 O4 2.036478 1_555
Cr1 O19 2.002100 1_555
Cr1 O7 2.002100 1_555
Cr1 O18 2.027036 1_555
Cr1 O8 2.027036 1_555
Cr1 O28 2.047334 1_555
Cr1 O23 2.047334 1_555
Cr2 O15 2.018429 1_555
Cr2 O26 2.024668 1_455
Cr2 O27 2.033794 1_455
Cr2 O13 2.035951 1_555
Cr2 O21 2.036124 1_555
Cr2 O11 2.036478 1_555
H0 O4 0.992130 1_555
H1 O8 0.990892 1_555
H2 O11 0.992130 1_555
H3 O18 0.990892 1_555
H4 O21 0.991728 1_555
H5 O25 0.991728 1_555
O0 P1 1.548961 1_556
O0 V0 2.017854 1_555
O1 P1 1.564274 1_545
O1 V2 2.056203 1_655
O2 P4 1.541470 1_555
O2 V1 2.049473 1_565
O3 P5 1.552866 1_655
O3 V1 2.019844 1_555
O4 V0 2.046726 1_545
O5 P2 1.548092 1_555
O6 P0 1.565412 1_555
O6 V2 2.055129 1_555
O7 P0 1.551774 1_555
O8 V1 2.062422 1_555
O9 P2 1.564274 1_565
O9 V0 2.056203 1_455
O10 P2 1.548961 1_554
O10 V2 2.017854 1_555
O11 V2 2.046726 1_565
O12 P3 1.545688 1_555
O13 P0 1.545688 1_555
O14 P4 1.552866 1_455
O14 V1 2.019844 1_565
O15 P1 1.548092 1_555
O16 P5 1.541470 1_555
O16 V1 2.049473 1_555
O17 P2 1.546011 1_555
O18 V1 2.062422 1_565
O19 P3 1.551774 1_555
O20 P3 1.565412 1_555
O20 V0 2.055129 1_555
O21 V2 2.044814 1_555
O22 P5 1.546323 1_555
O22 V2 2.015577 1_555
O23 P5 1.561246 1_555
O24 P3 1.548280 1_555
O25 V0 2.044814 1_555
O26 P0 1.548280 1_555
O27 P1 1.546011 1_555
O28 P4 1.561246 1_555
O29 P4 1.546323 1_555
O29 V0 2.015577 1_555
