# generated using pymatgen
data_FeOF
_symmetry_space_group_name_H-M   'P 1'
_cell_length_a   3.08698500
_cell_length_b   9.55187000
_cell_length_c   9.61327807
_cell_angle_alpha   89.51312820
_cell_angle_beta   90.00000000
_cell_angle_gamma   90.00000000
_symmetry_Int_Tables_number   1
_chemical_formula_structural   FeOF
_chemical_formula_sum   'Fe8 O8 F8'
_cell_volume   283.45149202
_cell_formula_units_Z   8
loop_
 _symmetry_equiv_pos_site_id
 _symmetry_equiv_pos_as_xyz
  1  'x, y, z'
loop_
 _atom_site_type_symbol
 _atom_site_label
 _atom_site_symmetry_multiplicity
 _atom_site_fract_x
 _atom_site_fract_y
 _atom_site_fract_z
 _atom_site_occupancy
  Fe  Fe0  1  0.00000000  0.97879900  0.00037000  1
  Fe  Fe1  1  0.00000000  0.99259800  0.50730500  1
  Fe  Fe2  1  0.50000000  0.74049300  0.22052100  1
  Fe  Fe3  1  0.50000000  0.77080000  0.74736700  1
  Fe  Fe4  1  0.00000000  0.47871100  0.50085400  1
  Fe  Fe5  1  0.00000000  0.48988300  0.01128300  1
  Fe  Fe6  1  0.50000000  0.26963000  0.24951400  1
  Fe  Fe7  1  0.50000000  0.28172900  0.76198400  1
  O  O0  1  0.50000000  0.90296500  0.90047900  1
  O  O1  1  0.00000000  0.84766300  0.15590000  1
  O  O2  1  0.00000000  0.85266900  0.64506500  1
  O  O3  1  0.50000000  0.59409800  0.09365200  1
  O  O4  1  0.50000000  0.40040900  0.40578600  1
  O  O5  1  0.50000000  0.40906600  0.90703600  1
  O  O6  1  0.00000000  0.33680600  0.15541600  1
  O  O7  1  0.00000000  0.34783500  0.65652100  1
  F  F0  1  0.50000000  0.90577700  0.40258400  1
  F  F1  1  0.00000000  0.65567200  0.35119400  1
  F  F2  1  0.00000000  0.65886300  0.83365500  1
  F  F3  1  0.50000000  0.60067200  0.59596700  1
  F  F4  1  0.00000000  0.14072800  0.35521800  1
  F  F5  1  0.00000000  0.15275700  0.84942200  1
  F  F6  1  0.50000000  0.09322300  0.09864100  1
  F  F7  1  0.50000000  0.09815000  0.59426500  1
loop_
_geom_bond_atom_site_label_1
_geom_bond_atom_site_label_2
_geom_bond_distance
_geom_bond_site_symmetry_2
Fe0 O1 1.942330 1_555
Fe0 O0 1.959852 1_554
Fe0 O0 1.959852 1_454
Fe1 O2 1.873556 1_555
Fe2 O3 1.863289 1_555
Fe2 O1 1.950739 1_555
Fe2 O1 1.950739 1_655
Fe3 O0 1.947256 1_555
Fe3 O2 1.986961 1_555
Fe3 O2 1.986961 1_655
Fe4 O7 1.941753 1_555
Fe4 O4 1.946440 1_455
Fe4 O4 1.946440 1_555
Fe5 O5 1.998936 1_454
Fe5 O5 1.998936 1_554
Fe5 O3 2.003419 1_455
Fe5 O3 2.003419 1_555
Fe5 O6 2.005836 1_555
Fe6 O6 1.898028 1_555
Fe6 O6 1.898028 1_655
Fe6 O4 1.961942 1_555
Fe7 O5 1.858130 1_555
Fe7 O7 1.948867 1_555
Fe7 O7 1.948867 1_655
F0 Fe1 2.024295 1_655
F0 Fe1 2.024295 1_555
F0 Fe2 2.367014 1_555
F1 Fe2 2.144650 1_555
F1 Fe2 2.144650 1_455
F1 Fe4 2.210370 1_555
F2 Fe3 2.049046 1_555
F2 Fe3 2.049046 1_455
F2 Fe5 2.339712 1_556
F3 Fe4 2.143274 1_655
F3 Fe4 2.143274 1_555
F3 Fe3 2.190728 1_555
F4 Fe1 2.025942 1_545
F4 Fe6 2.215780 1_455
F4 Fe6 2.215780 1_555
F5 Fe7 2.142185 1_455
F5 Fe7 2.142185 1_555
F5 Fe0 2.196753 1_546
F6 Fe0 2.118244 1_645
F6 Fe0 2.118244 1_545
F6 Fe6 2.232584 1_555
F7 Fe1 2.027818 1_545
F7 Fe1 2.027818 1_645
F7 Fe7 2.392174 1_555
