# generated using pymatgen
data_Li8Mn7Fe(BO3)8
_symmetry_space_group_name_H-M   'P 1'
_cell_length_a   5.25851700
_cell_length_b   9.11341428
_cell_length_c   11.59420208
_cell_angle_alpha   111.51215673
_cell_angle_beta   102.13196381
_cell_angle_gamma   89.81938757
_symmetry_Int_Tables_number   1
_chemical_formula_structural   Li8Mn7Fe(BO3)8
_chemical_formula_sum   'Li8 Mn7 Fe1 B8 O24'
_cell_volume   503.70779411
_cell_formula_units_Z   1
loop_
 _symmetry_equiv_pos_site_id
 _symmetry_equiv_pos_as_xyz
  1  'x, y, z'
loop_
 _atom_site_type_symbol
 _atom_site_label
 _atom_site_symmetry_multiplicity
 _atom_site_fract_x
 _atom_site_fract_y
 _atom_site_fract_z
 _atom_site_occupancy
  Li  Li0  1  0.02970400  0.04030600  0.41788300  1
  Li  Li1  1  0.29472200  0.28472900  0.91781400  1
  Li  Li2  1  0.48052800  0.50821300  0.66795800  1
  Li  Li3  1  0.27228000  0.24432400  0.16789000  1
  Li  Li4  1  0.52843700  0.54082900  0.41794900  1
  Li  Li5  1  0.79494500  0.78456300  0.91787000  1
  Li  Li6  1  0.98036600  0.00847900  0.66780900  1
  Li  Li7  1  0.77061100  0.74442400  0.16746400  1
  Mn  Mn0  1  0.02299700  0.35544700  0.38314400  1
  Mn  Mn1  1  0.27256900  0.93973300  0.88306600  1
  Mn  Mn2  1  0.47600400  0.15310800  0.63095100  1
  Mn  Mn3  1  0.24654800  0.56699200  0.13453300  1
  Mn  Mn4  1  0.77242500  0.43943400  0.88312200  1
  Mn  Mn5  1  0.74467700  0.06503900  0.13306400  1
  Mn  Mn6  1  0.97531100  0.65513700  0.63351700  1
  Fe  Fe0  1  0.52928300  0.85446100  0.38282100  1
  B  B0  1  0.02298300  0.68743900  0.37712300  1
  B  B1  1  0.26599600  0.60504600  0.87578500  1
  B  B2  1  0.23682000  0.89288300  0.12669100  1
  B  B3  1  0.47019200  0.81368000  0.62463000  1
  B  B4  1  0.52418300  0.18323400  0.37500100  1
  B  B5  1  0.76586900  0.10507500  0.87576200  1
  B  B6  1  0.73684000  0.39266800  0.12618400  1
  B  B7  1  0.97049200  0.31427500  0.62577200  1
  O  O0  1  0.01989100  0.10989800  0.86109900  1
  O  O1  1  0.09650000  0.71147000  0.84520100  1
  O  O2  1  0.17626600  0.49399400  0.91778500  1
  O  O3  1  0.07206600  0.16984600  0.61127000  1
  O  O4  1  0.10100700  0.42471100  0.59563000  1
  O  O5  1  0.23833200  0.84973700  0.66613300  1
  O  O6  1  0.26839700  0.66102900  0.34766700  1
  O  O7  1  0.52012400  0.61019400  0.86137700  1
  O  O8  1  0.59641500  0.21128900  0.84513600  1
  O  O9  1  0.40323100  0.08039200  0.41522600  1
  O  O10  1  0.40454700  0.31379800  0.36191600  1
  O  O11  1  0.67634300  0.99386100  0.91779100  1
  O  O12  1  0.33620600  0.01304600  0.09584400  1
  O  O13  1  0.57121500  0.66921000  0.61112000  1
  O  O14  1  0.60079300  0.92312400  0.59368100  1
  O  O15  1  0.40621200  0.79490200  0.16785100  1
  O  O16  1  0.46960700  0.37114500  0.11206500  1
  O  O17  1  0.73792400  0.34949100  0.66657300  1
  O  O18  1  0.76945400  0.15381100  0.34520400  1
  O  O19  1  0.90289900  0.58454400  0.41713900  1
  O  O20  1  0.89794400  0.81625600  0.36281000  1
  O  O21  1  0.83743900  0.51330400  0.09632700  1
  O  O22  1  0.90599600  0.29407600  0.16692500  1
  O  O23  1  0.96961400  0.87055600  0.11202400  1
loop_
_geom_bond_atom_site_label_1
_geom_bond_atom_site_label_2
_geom_bond_distance
_geom_bond_site_symmetry_2
Li0 O18 1.948996 1_455
Li0 O20 1.980843 1_445
Li0 O9 2.007659 1_555
Li0 O3 2.078716 1_555
Li1 O8 1.953570 1_555
Li1 O0 1.976442 1_555
Li1 O2 2.004496 1_555
Li1 O16 2.090803 1_556
Li2 O13 1.913132 1_555
Li2 O17 1.975954 1_555
Li2 O4 2.025665 1_555
Li2 O7 2.052441 1_555
Li3 O16 1.915709 1_555
Li3 O22 1.976048 1_455
Li3 O12 2.018815 1_555
Li3 O10 2.060523 1_555
Li4 O6 1.977543 1_555
Li4 O10 1.993025 1_555
Li4 O19 2.012879 1_555
Li4 O13 2.074532 1_555
Li5 O1 1.952293 1_655
Li5 O7 1.973819 1_555
Li5 O11 2.005182 1_555
Li5 O23 2.089676 1_556
Li6 O3 1.915530 1_655
Li6 O5 1.977751 1_645
Li6 O14 2.031293 1_545
Li6 O0 2.050871 1_655
Li7 O23 1.913580 1_555
Li7 O15 1.969772 1_555
Li7 O21 2.020719 1_555
Li7 O20 2.069907 1_555
Mn0 O10 2.089135 1_555
Mn0 O19 2.099076 1_455
Mn0 O18 2.126954 1_455
Mn0 O4 2.252203 1_555
Mn0 O22 2.302478 1_455
Mn1 O0 2.090385 1_565
Mn1 O11 2.101253 1_555
Mn1 O1 2.132821 1_555
Mn1 O12 2.256102 1_566
Mn1 O5 2.308430 1_555
Mn2 O3 2.099275 1_555
Mn2 O14 2.111061 1_545
Mn2 O17 2.122497 1_555
Mn2 O8 2.285691 1_555
Mn2 O9 2.285844 1_555
Mn3 O16 2.098469 1_555
Mn3 O15 2.110559 1_555
Mn3 O21 2.123879 1_455
Mn3 O6 2.276447 1_555
Mn3 O2 2.297715 1_554
Mn4 O7 2.092769 1_555
Mn4 O2 2.102337 1_655
Mn4 O8 2.131389 1_555
Mn4 O21 2.259723 1_556
Mn4 O17 2.304046 1_555
Mn5 O23 2.095470 1_545
Mn5 O12 2.119265 1_555
Mn5 O22 2.121506 1_555
Mn5 O18 2.264442 1_555
Mn5 O11 2.283988 1_544
Mn6 O13 2.095244 1_555
Mn6 O4 2.115768 1_655
Mn6 O5 2.122483 1_655
Mn6 O1 2.261385 1_655
Mn6 O19 2.295418 1_555
Fe0 O20 2.014652 1_555
Fe0 O9 2.085364 1_565
Fe0 O6 2.099760 1_555
Fe0 O14 2.236716 1_555
Fe0 O15 2.292942 1_555
B0 O20 1.389319 1_455
B0 O19 1.392579 1_455
B0 O6 1.401071 1_555
B1 O7 1.384152 1_555
B1 O2 1.394657 1_555
B1 O1 1.405263 1_555
B2 O23 1.385871 1_455
B2 O15 1.395475 1_555
B2 O12 1.403457 1_565
B3 O13 1.385472 1_555
B3 O5 1.397921 1_555
B3 O14 1.402004 1_555
B4 O10 1.386424 1_555
B4 O9 1.396236 1_555
B4 O18 1.404246 1_555
B5 O0 1.384356 1_655
B5 O11 1.395706 1_545
B5 O8 1.403822 1_555
B6 O16 1.386180 1_555
B6 O22 1.396886 1_555
B6 O21 1.402898 1_555
B7 O3 1.384580 1_655
B7 O17 1.397058 1_555
B7 O4 1.403290 1_655
