# generated using pymatgen
data_Li6V3P8O29
_symmetry_space_group_name_H-M   'P 1'
_cell_length_a   9.79793100
_cell_length_b   9.81190986
_cell_length_c   13.94529314
_cell_angle_alpha   89.73470915
_cell_angle_beta   89.65708098
_cell_angle_gamma   60.19585947
_symmetry_Int_Tables_number   1
_chemical_formula_structural   Li6V3P8O29
_chemical_formula_sum   'Li12 V6 P16 O58'
_cell_volume   1163.29908499
_cell_formula_units_Z   2
loop_
 _symmetry_equiv_pos_site_id
 _symmetry_equiv_pos_as_xyz
  1  'x, y, z'
loop_
 _atom_site_type_symbol
 _atom_site_label
 _atom_site_symmetry_multiplicity
 _atom_site_fract_x
 _atom_site_fract_y
 _atom_site_fract_z
 _atom_site_occupancy
  Li  Li0  1  0.77455700  0.90975000  0.93724100  1
  Li  Li1  1  0.33130200  0.90505600  0.43992000  1
  Li  Li2  1  0.66770000  0.66615100  0.11264500  1
  Li  Li3  1  0.31339800  0.77540900  0.93913000  1
  Li  Li4  1  0.91841800  0.30983400  0.93544100  1
  Li  Li5  1  0.23219700  0.66985300  0.56404900  1
  Li  Li6  1  0.76647700  0.33242900  0.44365300  1
  Li  Li7  1  0.09227400  0.68215000  0.05948100  1
  Li  Li8  1  0.68735700  0.22554300  0.05809700  1
  Li  Li9  1  0.32687300  0.33169700  0.38824100  1
  Li  Li10  1  0.67338600  0.09186600  0.56292400  1
  Li  Li11  1  0.00123800  0.99742700  0.50614800  1
  V  V0  1  0.43143800  0.56733800  0.75153700  1
  V  V1  1  0.56597900  0.43539900  0.25003900  1
  V  V2  1  0.99482100  0.56661700  0.25464800  1
  V  V3  1  0.00457100  0.42977500  0.74474200  1
  V  V4  1  0.56585400  0.99882500  0.74979800  1
  V  V5  1  0.43123300  0.00344600  0.24696500  1
  P  P0  1  0.77009400  0.91120300  0.15957100  1
  P  P1  1  0.91591000  0.77637100  0.65819000  1
  P  P2  1  0.31424400  0.91206900  0.65527600  1
  P  P3  1  0.66816800  0.66488600  0.87179500  1
  P  P4  1  0.66222000  0.66836900  0.37296500  1
  P  P5  1  0.32149600  0.77078700  0.15709700  1
  P  P6  1  0.22608100  0.68301200  0.34216600  1
  P  P7  1  0.91169200  0.31977100  0.15233700  1
  P  P8  1  0.08459800  0.67978000  0.84349400  1
  P  P9  1  0.77122900  0.31759000  0.65888700  1
  P  P10  1  0.67879300  0.23223700  0.84150000  1
  P  P11  1  0.33661900  0.33253700  0.62704800  1
  P  P12  1  0.33185000  0.33749600  0.12821100  1
  P  P13  1  0.68374900  0.09043500  0.34613800  1
  P  P14  1  0.08457600  0.22272600  0.34022000  1
  P  P15  1  0.22917300  0.08480500  0.83959700  1
  O  O0  1  0.77009900  0.00888000  0.43534400  1
  O  O1  1  0.74474900  0.91874200  0.66160800  1
  O  O2  1  0.99689900  0.75410000  0.93503800  1
  O  O3  1  0.92045900  0.74898900  0.15827500  1
  O  O4  1  0.62734700  0.88496000  0.17538800  1
  O  O5  1  0.67370400  0.81361300  0.83340000  1
  O  O6  1  0.47186200  0.90599900  0.66960700  1
  O  O7  1  0.23913900  0.99018100  0.92478500  1
  O  O8  1  0.33905900  0.91680400  0.15865200  1
  O  O9  1  0.81261100  0.66365500  0.32766300  1
  O  O10  1  0.91486900  0.62187300  0.66644800  1
  O  O11  1  0.51450700  0.81905300  0.33224900  1
  O  O12  1  0.66596100  0.66812700  0.98010000  1
  O  O13  1  0.66082100  0.66059900  0.47907200  1
  O  O14  1  0.51270400  0.67187600  0.83511600  1
  O  O15  1  0.88697600  0.48710900  0.17284000  1
  O  O16  1  0.81448700  0.51347200  0.83325000  1
  O  O17  1  0.33710100  0.74275500  0.66551900  1
  O  O18  1  0.21375300  0.78630100  0.24904800  1
  O  O19  1  0.23183200  0.76879600  0.43029100  1
  O  O20  1  0.24624300  0.75045100  0.06914300  1
  O  O21  1  0.48858100  0.62576700  0.17329300  1
  O  O22  1  0.66346400  0.51790200  0.32970700  1
  O  O23  1  0.25060700  0.66153300  0.84367400  1
  O  O24  1  0.61812400  0.47236500  0.66987300  1
  O  O25  1  0.91387200  0.34322800  0.66430000  1
  O  O26  1  0.99209400  0.79693900  0.75698500  1
  O  O27  1  0.00565500  0.79576100  0.57683300  1
  O  O28  1  0.98778500  0.21903500  0.42224600  1
  O  O29  1  0.08286900  0.66076400  0.34002000  1
  O  O30  1  0.37589400  0.51871100  0.33055300  1
  O  O31  1  0.74696200  0.33262500  0.15820200  1
  O  O32  1  0.32472900  0.48877200  0.66541200  1
  O  O33  1  0.51850700  0.38002500  0.82233100  1
  O  O34  1  0.75528200  0.24759800  0.93092700  1
  O  O35  1  0.77951900  0.22445000  0.57031200  1
  O  O36  1  0.79106100  0.20872700  0.75104300  1
  O  O37  1  0.66469200  0.25677200  0.34137800  1
  O  O38  1  0.17968600  0.48074400  0.17137100  1
  O  O39  1  0.09426500  0.52165600  0.82222300  1
  O  O40  1  0.47951500  0.34129600  0.17201100  1
  O  O41  1  0.33797400  0.33837300  0.02222500  1
  O  O42  1  0.33941800  0.33555700  0.51893200  1
  O  O43  1  0.49302400  0.18756400  0.66394000  1
  O  O44  1  0.10148000  0.37293600  0.33231300  1
  O  O45  1  0.19574600  0.32213800  0.67016600  1
  O  O46  1  0.66332300  0.08349100  0.84239200  1
  O  O47  1  0.78568000  0.00067500  0.25150600  1
  O  O48  1  0.75141400  0.00490300  0.06999700  1
  O  O49  1  0.51963800  0.10446900  0.33335500  1
  O  O50  1  0.34292300  0.18489300  0.17509000  1
  O  O51  1  0.38284300  0.09251700  0.82112700  1
  O  O52  1  0.08583700  0.25256300  0.83918800  1
  O  O53  1  0.99450300  0.24978400  0.06133500  1
  O  O54  1  0.00886800  0.20894000  0.24116400  1
  O  O55  1  0.25260600  0.07904800  0.34158700  1
  O  O56  1  0.22929400  0.98169800  0.56328000  1
  O  O57  1  0.20285500  0.00744100  0.74379300  1
loop_
_geom_bond_atom_site_label_1
_geom_bond_atom_site_label_2
_geom_bond_distance
_geom_bond_site_symmetry_2
Li0 O2 1.942032 1_555
Li0 O46 1.998224 1_565
Li0 O48 2.037403 1_566
Li0 O5 2.218011 1_555
Li1 O56 1.941159 1_555
Li1 O19 2.013426 1_555
Li1 O55 2.017893 1_565
Li1 O11 2.159269 1_555
Li2 O12 1.848482 1_554
Li2 O21 2.150054 1_555
Li2 O15 2.159321 1_555
Li2 O4 2.168100 1_555
Li3 O7 1.866515 1_555
Li3 O20 1.980382 1_556
Li3 O23 2.026291 1_555
Li3 O14 2.226444 1_555
Li4 O53 1.885360 1_556
Li4 O52 1.967885 1_655
Li4 O34 1.975746 1_555
Li4 O16 2.242439 1_555
Li5 O27 1.938096 1_555
Li5 O17 2.080404 1_555
Li5 O32 2.089900 1_555
Li5 O19 2.098020 1_555
Li6 O28 1.904178 1_555
Li6 O35 2.027171 1_555
Li6 O37 2.083893 1_555
Li6 O22 2.240985 1_555
Li7 O2 1.932743 1_454
Li7 O20 1.936840 1_555
Li7 O3 2.011281 1_455
Li7 O38 2.319141 1_555
Li8 O48 1.937903 1_555
Li8 O34 1.939141 1_554
Li8 O31 2.006762 1_555
Li8 O40 2.374722 1_555
Li9 O42 1.829231 1_555
Li9 O44 2.185953 1_555
Li9 O49 2.221801 1_555
Li9 O30 2.258936 1_555
Li10 O0 1.988090 1_555
Li10 O1 2.019267 1_545
Li10 O35 2.032637 1_555
Li10 O43 2.078933 1_555
Li11 O27 2.187741 1_555
Li11 O56 2.308427 1_555
Li11 O35 2.380464 1_465
Li11 O28 2.409926 1_465
Li11 O0 2.426746 1_465
Li11 O19 2.492209 1_555
O0 P13 1.494677 1_555
O1 P1 1.561075 1_555
O1 V4 1.953523 1_555
O2 P8 1.507462 1_655
O3 P0 1.540479 1_555
O3 V2 2.057300 1_555
O4 P0 1.557207 1_555
O4 V5 1.951215 1_565
O5 P3 1.578060 1_555
O5 V4 1.965843 1_555
O6 P2 1.529900 1_555
O6 V4 1.945199 1_555
O7 P15 1.477792 1_565
O8 P5 1.525824 1_555
O8 V5 1.959913 1_565
O9 P4 1.579204 1_555
O9 V2 1.851490 1_555
O10 P1 1.524835 1_555
O10 V3 1.965419 1_655
O11 P4 1.574139 1_555
O11 V5 1.969213 1_565
O12 P3 1.510626 1_555
O13 P4 1.481635 1_555
O14 P3 1.578512 1_555
O14 V0 1.969420 1_555
O15 P7 1.563493 1_555
O15 V2 1.966911 1_555
O16 P3 1.559586 1_555
O16 V3 2.031733 1_655
O17 P2 1.568055 1_555
O17 V0 1.915303 1_555
O18 P6 1.611195 1_555
O18 P5 1.614837 1_555
O19 P6 1.509789 1_555
O20 P5 1.499071 1_555
O21 P5 1.562557 1_555
O21 V1 1.947453 1_555
O22 P4 1.591851 1_555
O22 V1 1.895148 1_555
O23 P8 1.545402 1_555
O23 V0 2.000052 1_555
O24 P9 1.521462 1_555
O24 V0 1.949751 1_555
O25 P9 1.540525 1_555
O25 V3 1.881537 1_655
O26 P8 1.600890 1_655
O26 P1 1.631156 1_555
O27 P1 1.499650 1_455
O28 P14 1.493288 1_655
O29 P6 1.523982 1_555
O29 V2 1.956942 1_455
O30 P6 1.557875 1_555
O30 V1 1.966623 1_555
O31 P7 1.556854 1_555
O31 V1 2.002178 1_555
O32 P11 1.574513 1_555
O32 V0 1.988640 1_555
O33 P10 1.542140 1_555
O33 V0 1.874822 1_555
O34 P10 1.504927 1_555
O35 P9 1.517554 1_555
O36 P10 1.608819 1_555
O36 P9 1.616865 1_555
O37 P13 1.548928 1_555
O37 V1 1.984617 1_555
O38 P12 1.573073 1_555
O38 V2 1.950940 1_455
O39 P8 1.536864 1_555
O39 V3 1.886931 1_555
O40 P12 1.591273 1_555
O40 V1 1.884718 1_555
O41 P12 1.479023 1_555
O42 P11 1.508216 1_555
O43 P11 1.572323 1_555
O43 V4 2.012041 1_545
O44 P14 1.566126 1_555
O44 V2 1.974047 1_455
O45 P11 1.551319 1_555
O45 V3 1.930252 1_555
O46 P10 1.540434 1_555
O46 V4 2.020595 1_545
O47 P0 1.607398 1_545
O47 P13 1.623342 1_555
O48 P0 1.504633 1_545
O49 P13 1.555422 1_555
O49 V5 2.015253 1_555
O50 P12 1.584751 1_555
O50 V5 1.839962 1_555
O51 P15 1.564442 1_555
O51 V4 1.843454 1_545
O52 P15 1.543956 1_555
O52 V3 2.001783 1_555
O53 P7 1.477245 1_555
O54 P14 1.609486 1_555
O54 P7 1.611186 1_455
O55 P14 1.546340 1_555
O55 V5 2.011313 1_555
O56 P2 1.498261 1_555
O57 P2 1.603079 1_545
O57 P15 1.623496 1_555
