# generated using pymatgen
data_FeP4O11
_symmetry_space_group_name_H-M   'P 1'
_cell_length_a   22.28374875
_cell_length_b   5.34266439
_cell_length_c   7.43049144
_cell_angle_alpha   71.14124329
_cell_angle_beta   90.00000000
_cell_angle_gamma   90.00000000
_symmetry_Int_Tables_number   1
_chemical_formula_structural   FeP4O11
_chemical_formula_sum   'Fe4 P16 O44'
_cell_volume   837.14543784
_cell_formula_units_Z   4
loop_
 _symmetry_equiv_pos_site_id
 _symmetry_equiv_pos_as_xyz
  1  'x, y, z'
loop_
 _atom_site_type_symbol
 _atom_site_label
 _atom_site_symmetry_multiplicity
 _atom_site_fract_x
 _atom_site_fract_y
 _atom_site_fract_z
 _atom_site_occupancy
  Fe  Fe0  1  0.88633733  0.99467304  0.87144811  1
  Fe  Fe1  1  0.61366267  0.99467304  0.37144811  1
  Fe  Fe2  1  0.38633733  0.00532696  0.62855189  1
  Fe  Fe3  1  0.11366267  0.00532696  0.12855189  1
  P  P0  1  0.57244667  0.69216381  0.81573953  1
  P  P1  1  0.19566156  0.60977589  0.96508194  1
  P  P2  1  0.17818883  0.67850786  0.55255577  1
  P  P3  1  0.96570581  0.60050224  0.70921612  1
  P  P4  1  0.92755333  0.69216381  0.31573953  1
  P  P5  1  0.30433844  0.60977589  0.46508194  1
  P  P6  1  0.46570581  0.39949776  0.79078388  1
  P  P7  1  0.67818883  0.32149214  0.94744423  1
  P  P8  1  0.32181117  0.67850786  0.05255577  1
  P  P9  1  0.53429419  0.60050224  0.20921612  1
  P  P10  1  0.69566156  0.39022411  0.53491806  1
  P  P11  1  0.07244667  0.30783619  0.68426047  1
  P  P12  1  0.03429419  0.39949776  0.29078388  1
  P  P13  1  0.82181117  0.32149214  0.44744423  1
  P  P14  1  0.80433844  0.39022411  0.03491806  1
  P  P15  1  0.42755333  0.30783619  0.18426047  1
  O  O0  1  0.34492760  0.91236406  0.90661035  1
  O  O1  1  0.57660900  0.92576778  0.64819118  1
  O  O2  1  0.54438602  0.76393695  0.98481099  1
  O  O3  1  0.95653647  0.78924924  0.81306873  1
  O  O4  1  0.83794180  0.63831120  0.98428859  1
  O  O5  1  0.15507240  0.91236406  0.40661035  1
  O  O6  1  0.19417691  0.74490742  0.73583335  1
  O  O7  1  0.31626699  0.81992603  0.54896383  1
  O  O8  1  0.43445346  0.65387355  0.74718434  1
  O  O9  1  0.26635449  0.54047304  0.99618334  1
  O  O10  1  0.63567717  0.56970753  0.88777948  1
  O  O11  1  0.92339100  0.92576778  0.14819118  1
  O  O12  1  0.95561398  0.76393695  0.48481099  1
  O  O13  1  0.54346353  0.78924924  0.31306873  1
  O  O14  1  0.03761928  0.55213671  0.70541152  1
  O  O15  1  0.66205820  0.63831120  0.48428859  1
  O  O16  1  0.30582309  0.74490742  0.23583335  1
  O  O17  1  0.18373301  0.81992603  0.04896383  1
  O  O18  1  0.53761928  0.44786329  0.79458848  1
  O  O19  1  0.06554654  0.65387355  0.24718434  1
  O  O20  1  0.23364551  0.54047304  0.49618334  1
  O  O21  1  0.86432283  0.56970753  0.38777948  1
  O  O22  1  0.13567717  0.43029247  0.61222052  1
  O  O23  1  0.76635449  0.45952696  0.50381666  1
  O  O24  1  0.93445346  0.34612645  0.75281566  1
  O  O25  1  0.46238072  0.55213671  0.20541152  1
  O  O26  1  0.81626699  0.18007397  0.95103617  1
  O  O27  1  0.69417691  0.25509258  0.76416665  1
  O  O28  1  0.33794180  0.36168880  0.51571141  1
  O  O29  1  0.96238072  0.44786329  0.29458848  1
  O  O30  1  0.45653647  0.21075076  0.68693127  1
  O  O31  1  0.04438602  0.23606305  0.51518901  1
  O  O32  1  0.07660900  0.07423222  0.85180882  1
  O  O33  1  0.36432283  0.43029247  0.11222052  1
  O  O34  1  0.73364551  0.45952696  0.00381666  1
  O  O35  1  0.56554654  0.34612645  0.25281566  1
  O  O36  1  0.68373301  0.18007397  0.45103617  1
  O  O37  1  0.80582309  0.25509258  0.26416665  1
  O  O38  1  0.84492760  0.08763594  0.59338965  1
  O  O39  1  0.16205820  0.36168880  0.01571141  1
  O  O40  1  0.04346353  0.21075076  0.18693127  1
  O  O41  1  0.45561398  0.23606305  0.01518901  1
  O  O42  1  0.42339100  0.07423222  0.35180882  1
  O  O43  1  0.65507240  0.08763594  0.09338965  1
loop_
_geom_bond_atom_site_label_1
_geom_bond_atom_site_label_2
_geom_bond_distance
_geom_bond_site_symmetry_2
Fe0 O3 2.036544 1_555
Fe0 O26 2.036576 1_565
Fe0 O24 2.093414 1_565
Fe0 O4 2.111622 1_555
Fe0 O11 2.134579 1_556
Fe0 O38 2.168777 1_565
Fe1 O13 2.036544 1_555
Fe1 O36 2.036576 1_565
Fe1 O35 2.093414 1_565
Fe1 O15 2.111622 1_555
Fe1 O1 2.134579 1_555
Fe1 O43 2.168777 1_565
Fe2 O30 2.036544 1_555
Fe2 O7 2.036576 1_545
Fe2 O8 2.093414 1_545
Fe2 O28 2.111622 1_555
Fe2 O42 2.134579 1_555
Fe2 O0 2.168777 1_545
Fe3 O40 2.036544 1_555
Fe3 O17 2.036576 1_545
Fe3 O19 2.093414 1_545
Fe3 O39 2.111622 1_555
Fe3 O32 2.134579 1_554
Fe3 O5 2.168777 1_545
O0 P8 1.458249 1_556
O1 P0 1.453178 1_555
O2 P0 1.558113 1_555
O2 P9 1.628534 1_556
O3 P3 1.468738 1_555
O4 P14 1.461744 1_556
O5 P2 1.458249 1_555
O6 P2 1.555543 1_555
O6 P1 1.621406 1_555
O7 P5 1.473816 1_555
O8 P6 1.467080 1_555
O9 P8 1.564028 1_556
O9 P1 1.617642 1_555
O10 P7 1.572422 1_555
O10 P0 1.572732 1_555
O11 P4 1.453178 1_555
O12 P4 1.558113 1_555
O12 P3 1.628534 1_555
O13 P9 1.468738 1_555
O14 P11 1.569461 1_555
O14 P3 1.624901 1_455
O15 P10 1.461744 1_555
O16 P8 1.555543 1_555
O16 P5 1.621406 1_555
O17 P1 1.473816 1_554
O18 P0 1.569461 1_555
O18 P6 1.624901 1_555
O19 P12 1.467080 1_555
O20 P2 1.564028 1_555
O20 P5 1.617642 1_555
O21 P13 1.572422 1_555
O21 P4 1.572732 1_555
O22 P2 1.572422 1_555
O22 P11 1.572732 1_555
O23 P13 1.564028 1_555
O23 P10 1.617642 1_555
O24 P3 1.467080 1_555
O25 P15 1.569461 1_555
O25 P9 1.624901 1_555
O26 P14 1.473816 1_556
O27 P7 1.555543 1_555
O27 P10 1.621406 1_555
O28 P5 1.461744 1_555
O29 P4 1.569461 1_555
O29 P12 1.624901 1_655
O30 P6 1.468738 1_555
O31 P11 1.558113 1_555
O31 P12 1.628534 1_555
O32 P11 1.453178 1_555
O33 P8 1.572422 1_555
O33 P15 1.572732 1_555
O34 P7 1.564028 1_554
O34 P14 1.617642 1_555
O35 P9 1.467080 1_555
O36 P10 1.473816 1_555
O37 P13 1.555543 1_555
O37 P14 1.621406 1_555
O38 P13 1.458249 1_555
O39 P1 1.461744 1_554
O40 P12 1.468738 1_555
O41 P15 1.558113 1_555
O41 P6 1.628534 1_554
O42 P15 1.453178 1_555
O43 P7 1.458249 1_554
