# generated using pymatgen
data_P3H22C3N9O11
_symmetry_space_group_name_H-M   'P 1'
_cell_length_a   15.25978300
_cell_length_b   10.83694000
_cell_length_c   12.28103119
_cell_angle_alpha   82.53395103
_cell_angle_beta   90.00000000
_cell_angle_gamma   90.00000000
_symmetry_Int_Tables_number   1
_chemical_formula_structural   P3H22C3N9O11
_chemical_formula_sum   'P12 H88 C12 N36 O44'
_cell_volume   2013.68822172
_cell_formula_units_Z   4
loop_
 _symmetry_equiv_pos_site_id
 _symmetry_equiv_pos_as_xyz
  1  'x, y, z'
loop_
 _atom_site_type_symbol
 _atom_site_label
 _atom_site_symmetry_multiplicity
 _atom_site_fract_x
 _atom_site_fract_y
 _atom_site_fract_z
 _atom_site_occupancy
  P  P0  1  0.45599900  0.26117400  0.86069100  1
  P  P1  1  0.04400100  0.76117400  0.36069100  1
  P  P2  1  0.54400100  0.73882600  0.13930900  1
  P  P3  1  0.95599900  0.23882600  0.63930900  1
  P  P4  1  0.38597400  0.11363900  0.69855800  1
  P  P5  1  0.11402600  0.61363900  0.19855800  1
  P  P6  1  0.61402600  0.88636100  0.30144200  1
  P  P7  1  0.88597400  0.38636100  0.80144200  1
  P  P8  1  0.36922100  0.38087000  0.66150900  1
  P  P9  1  0.13077900  0.88087000  0.16150900  1
  P  P10  1  0.63077900  0.61913000  0.33849100  1
  P  P11  1  0.86922100  0.11913000  0.83849100  1
  H  H0  1  0.29219800  0.52751100  0.17457100  1
  H  H1  1  0.20780200  0.02751100  0.67457100  1
  H  H2  1  0.70780200  0.47248900  0.82542900  1
  H  H3  1  0.79219800  0.97248900  0.32542900  1
  H  H4  1  0.37881700  0.60914400  0.15624700  1
  H  H5  1  0.12118300  0.10914400  0.65624700  1
  H  H6  1  0.62118300  0.39085600  0.84375300  1
  H  H7  1  0.87881700  0.89085600  0.34375300  1
  H  H8  1  0.31366800  0.97272700  0.17598700  1
  H  H9  1  0.18633200  0.47272700  0.67598700  1
  H  H10  1  0.68633200  0.02727300  0.82401300  1
  H  H11  1  0.81366800  0.52727300  0.32401300  1
  H  H12  1  0.40200300  0.90891400  0.14746000  1
  H  H13  1  0.09799700  0.40891400  0.64746000  1
  H  H14  1  0.59799700  0.09108600  0.85254000  1
  H  H15  1  0.90200300  0.59108600  0.35254000  1
  H  H16  1  0.11561400  0.30205300  0.48006100  1
  H  H17  1  0.38438600  0.80205300  0.98006100  1
  H  H18  1  0.88438600  0.69794700  0.51993900  1
  H  H19  1  0.61561400  0.19794700  0.01993900  1
  H  H20  1  0.15745800  0.39867000  0.36502000  1
  H  H21  1  0.34254200  0.89867000  0.86502000  1
  H  H22  1  0.84254200  0.60133000  0.63498000  1
  H  H23  1  0.65745800  0.10133000  0.13498000  1
  H  H24  1  0.35537500  0.52603300  0.85811200  1
  H  H25  1  0.14462500  0.02603300  0.35811200  1
  H  H26  1  0.64462500  0.47396700  0.14188800  1
  H  H27  1  0.85537500  0.97396700  0.64188800  1
  H  H28  1  0.36719500  0.57829200  0.98570200  1
  H  H29  1  0.13280500  0.07829200  0.48570200  1
  H  H30  1  0.63280500  0.42170800  0.01429800  1
  H  H31  1  0.86719500  0.92170800  0.51429800  1
  H  H32  1  0.31826600  0.81766900  0.70598000  1
  H  H33  1  0.18173400  0.31766900  0.20598000  1
  H  H34  1  0.68173400  0.18233100  0.29402000  1
  H  H35  1  0.81826600  0.68233100  0.79402000  1
  H  H36  1  0.31112200  0.65335000  0.70789500  1
  H  H37  1  0.18887800  0.15335000  0.20789500  1
  H  H38  1  0.68887800  0.34665000  0.29210500  1
  H  H39  1  0.81112200  0.84665000  0.79210500  1
  H  H40  1  0.41815100  0.36307100  0.41588900  1
  H  H41  1  0.08184900  0.86307100  0.91588900  1
  H  H42  1  0.58184900  0.63692900  0.58411100  1
  H  H43  1  0.91815100  0.13692900  0.08411100  1
  H  H44  1  0.09877800  0.92423500  0.77717900  1
  H  H45  1  0.40122200  0.42423500  0.27717900  1
  H  H46  1  0.90122200  0.07576500  0.22282100  1
  H  H47  1  0.59877800  0.57576500  0.72282100  1
  H  H48  1  0.44710400  0.14408700  0.45735600  1
  H  H49  1  0.05289600  0.64408700  0.95735600  1
  H  H50  1  0.55289600  0.85591300  0.54264400  1
  H  H51  1  0.94710400  0.35591300  0.04264400  1
  H  H52  1  0.46739800  0.05922900  0.35031100  1
  H  H53  1  0.03260200  0.55922900  0.85031100  1
  H  H54  1  0.53260200  0.94077100  0.64968900  1
  H  H55  1  0.96739800  0.44077100  0.14968900  1
  H  H56  1  0.42155600  0.30387500  0.13682000  1
  H  H57  1  0.07844400  0.80387500  0.63682000  1
  H  H58  1  0.57844400  0.69612500  0.86318000  1
  H  H59  1  0.92155600  0.19612500  0.36318000  1
  H  H60  1  0.07785000  0.64302700  0.66961300  1
  H  H61  1  0.42215000  0.14302700  0.16961300  1
  H  H62  1  0.92215000  0.35697300  0.33038700  1
  H  H63  1  0.57785000  0.85697300  0.83038700  1
  H  H64  1  0.46177900  0.74145500  0.42009800  1
  H  H65  1  0.03822100  0.24145500  0.92009800  1
  H  H66  1  0.53822100  0.25854500  0.57990200  1
  H  H67  1  0.96177900  0.75854500  0.07990200  1
  H  H68  1  0.42539800  0.59344600  0.47935100  1
  H  H69  1  0.07460200  0.09344600  0.97935100  1
  H  H70  1  0.57460200  0.40655400  0.52064900  1
  H  H71  1  0.92539800  0.90655400  0.02064900  1
  H  H72  1  0.24730100  0.87005000  0.39853100  1
  H  H73  1  0.25269900  0.37005000  0.89853100  1
  H  H74  1  0.75269900  0.12995000  0.60146900  1
  H  H75  1  0.74730100  0.62995000  0.10146900  1
  H  H76  1  0.35709400  0.89734800  0.36731300  1
  H  H77  1  0.14290600  0.39734800  0.86731300  1
  H  H78  1  0.64290600  0.10265200  0.63268700  1
  H  H79  1  0.85709400  0.60265200  0.13268700  1
  H  H80  1  0.29969200  0.18295200  0.98291100  1
  H  H81  1  0.20030800  0.68295200  0.48291100  1
  H  H82  1  0.70030800  0.81704800  0.01708900  1
  H  H83  1  0.79969200  0.31704800  0.51708900  1
  H  H84  1  0.22447300  0.06216600  0.02395800  1
  H  H85  1  0.27552700  0.56216600  0.52395800  1
  H  H86  1  0.77552700  0.93783400  0.97604200  1
  H  H87  1  0.72447300  0.43783400  0.47604200  1
  C  C0  1  0.15620100  0.21361100  0.35274700  1
  C  C1  1  0.34379900  0.71361100  0.85274700  1
  C  C2  1  0.84379900  0.78638900  0.64725300  1
  C  C3  1  0.65620100  0.28638900  0.14725300  1
  C  C4  1  0.43170800  0.24030100  0.30134500  1
  C  C5  1  0.06829200  0.74030100  0.80134500  1
  C  C6  1  0.56829200  0.75969900  0.69865500  1
  C  C7  1  0.93170800  0.25969900  0.19865500  1
  C  C8  1  0.32920900  0.72538500  0.44922500  1
  C  C9  1  0.17079100  0.22538500  0.94922500  1
  C  C10  1  0.67079100  0.27461500  0.55077500  1
  C  C11  1  0.82920900  0.77461500  0.05077500  1
  N  N0  1  0.14937300  0.31217500  0.40753200  1
  N  N1  1  0.35062700  0.81217500  0.90753200  1
  N  N2  1  0.85062700  0.68782500  0.59246800  1
  N  N3  1  0.64937300  0.18782500  0.09246800  1
  N  N4  1  0.14022100  0.09864100  0.40261000  1
  N  N5  1  0.35977900  0.59864100  0.90261000  1
  N  N6  1  0.85977900  0.90135900  0.59739000  1
  N  N7  1  0.64022100  0.40135900  0.09739000  1
  N  N8  1  0.31931200  0.72973900  0.74699000  1
  N  N9  1  0.18068800  0.22973900  0.24699000  1
  N  N10  1  0.68068800  0.27026100  0.25301000  1
  N  N11  1  0.81931200  0.77026100  0.75301000  1
  N  N12  1  0.42063600  0.35151500  0.33435000  1
  N  N13  1  0.07936400  0.85151500  0.83435000  1
  N  N14  1  0.57936400  0.64848500  0.66565000  1
  N  N15  1  0.92063600  0.14848500  0.16565000  1
  N  N16  1  0.05771200  0.63804700  0.87511400  1
  N  N17  1  0.44228800  0.13804700  0.37511400  1
  N  N18  1  0.94228800  0.36195300  0.12488600  1
  N  N19  1  0.55771200  0.86195300  0.62488600  1
  N  N20  1  0.06621400  0.72912100  0.69357500  1
  N  N21  1  0.43378600  0.22912100  0.19357500  1
  N  N22  1  0.93378600  0.27087900  0.30642500  1
  N  N23  1  0.56621400  0.77087900  0.80642500  1
  N  N24  1  0.08823200  0.18433200  0.95096600  1
  N  N25  1  0.41176800  0.68433200  0.45096600  1
  N  N26  1  0.91176800  0.81566800  0.04903400  1
  N  N27  1  0.58823200  0.31566800  0.54903400  1
  N  N28  1  0.31120600  0.84499100  0.41186200  1
  N  N29  1  0.18879400  0.34499100  0.91186200  1
  N  N30  1  0.68879400  0.15500900  0.58813800  1
  N  N31  1  0.81120600  0.65500900  0.08813800  1
  N  N32  1  0.23653800  0.15028300  0.98802800  1
  N  N33  1  0.26346200  0.65028300  0.48802800  1
  N  N34  1  0.76346200  0.84971700  0.01197200  1
  N  N35  1  0.73653800  0.34971700  0.51197200  1
  O  O0  1  0.55217100  0.24568100  0.88671800  1
  O  O1  1  0.94782900  0.74568100  0.38671800  1
  O  O2  1  0.44782900  0.75431900  0.11328200  1
  O  O3  1  0.05217100  0.25431900  0.61328200  1
  O  O4  1  0.39287300  0.29881700  0.94365300  1
  O  O5  1  0.10712700  0.79881700  0.44365300  1
  O  O6  1  0.60712700  0.70118300  0.05634700  1
  O  O7  1  0.89287300  0.20118300  0.55634700  1
  O  O8  1  0.42068600  0.13198200  0.82095100  1
  O  O9  1  0.07931400  0.63198200  0.32095100  1
  O  O10  1  0.57931400  0.86801800  0.17904900  1
  O  O11  1  0.92068600  0.36801800  0.67904900  1
  O  O12  1  0.32883000  0.24096100  0.66706000  1
  O  O13  1  0.17117000  0.74096100  0.16706000  1
  O  O14  1  0.67117000  0.75903900  0.33294000  1
  O  O15  1  0.82883000  0.25903900  0.83294000  1
  O  O16  1  0.46300400  0.11296800  0.62212000  1
  O  O17  1  0.03699600  0.61296800  0.12212000  1
  O  O18  1  0.53699600  0.88703200  0.37788000  1
  O  O19  1  0.96300400  0.38703200  0.87788000  1
  O  O20  1  0.32257300  0.00714200  0.71263000  1
  O  O21  1  0.17742700  0.50714200  0.21263000  1
  O  O22  1  0.67742700  0.99285800  0.28737000  1
  O  O23  1  0.82257300  0.49285800  0.78737000  1
  O  O24  1  0.45097500  0.35788700  0.74689700  1
  O  O25  1  0.04902500  0.85788700  0.24689700  1
  O  O26  1  0.54902500  0.64211300  0.25310300  1
  O  O27  1  0.95097500  0.14211300  0.75310300  1
  O  O28  1  0.19817200  0.96183300  0.20711100  1
  O  O29  1  0.30182800  0.46183300  0.70711100  1
  O  O30  1  0.80182800  0.03816700  0.79288900  1
  O  O31  1  0.69817200  0.53816700  0.29288900  1
  O  O32  1  0.09413200  0.92224100  0.04965200  1
  O  O33  1  0.40586800  0.42224100  0.54965200  1
  O  O34  1  0.90586800  0.07775900  0.95034800  1
  O  O35  1  0.59413200  0.57775900  0.45034800  1
  O  O36  1  0.35542700  0.52445300  0.15642300  1
  O  O37  1  0.14457300  0.02445300  0.65642300  1
  O  O38  1  0.64457300  0.47554700  0.84357700  1
  O  O39  1  0.85542700  0.97554700  0.34357700  1
  O  O40  1  0.37683300  0.98834800  0.16304900  1
  O  O41  1  0.12316700  0.48834800  0.66304900  1
  O  O42  1  0.62316700  0.01165200  0.83695100  1
  O  O43  1  0.87683300  0.51165200  0.33695100  1
loop_
_geom_bond_atom_site_label_1
_geom_bond_atom_site_label_2
_geom_bond_distance
_geom_bond_site_symmetry_2
H0 O36 0.991790 1_555
H1 O37 0.991790 1_555
H2 O38 0.991790 1_555
H3 O39 0.991790 1_555
H4 O36 0.984493 1_555
H5 O37 0.984493 1_555
H6 O38 0.984493 1_555
H7 O39 0.984493 1_555
H8 O40 0.987920 1_555
H9 O41 0.987920 1_555
H10 O42 0.987920 1_555
H11 O43 0.987920 1_555
H12 O40 0.983880 1_555
H13 O41 0.983880 1_555
H14 O42 0.983880 1_555
H15 O43 0.983880 1_555
H16 N0 1.022461 1_555
H17 N1 1.022461 1_555
H18 N2 1.022461 1_555
H19 N3 1.022461 1_555
H20 N0 1.019427 1_555
H21 N1 1.019427 1_555
H22 N2 1.019427 1_555
H23 N3 1.019427 1_555
H24 N5 1.016875 1_555
H25 N4 1.016875 1_555
H26 N7 1.016875 1_555
H27 N6 1.016875 1_555
H28 N5 1.021903 1_555
H29 N4 1.021903 1_555
H30 N7 1.021903 1_555
H31 N6 1.021903 1_555
H32 N8 1.018428 1_555
H33 N9 1.018428 1_555
H34 N10 1.018428 1_555
H35 N11 1.018428 1_555
H36 N8 1.017213 1_555
H37 N9 1.017213 1_555
H38 N10 1.017213 1_555
H39 N11 1.017213 1_555
H40 N12 1.025904 1_555
H41 N13 1.025904 1_555
H42 N14 1.025904 1_555
H43 N15 1.025904 1_555
H44 N13 1.028584 1_555
H45 N12 1.028584 1_555
H46 N15 1.028584 1_555
H47 N14 1.028584 1_555
H48 N17 1.023230 1_555
H49 N16 1.023230 1_555
H50 N19 1.023230 1_555
H51 N18 1.023230 1_555
H52 N17 1.018227 1_555
H53 N16 1.018227 1_555
H54 N19 1.018227 1_555
H55 N18 1.018227 1_555
H56 N21 1.014979 1_555
H57 N20 1.014979 1_555
H58 N23 1.014979 1_555
H59 N22 1.014979 1_555
H60 N20 1.029544 1_555
H61 N21 1.029544 1_555
H62 N22 1.029544 1_555
H63 N23 1.029544 1_555
H64 N25 1.023885 1_555
H65 N24 1.023885 1_555
H66 N27 1.023885 1_555
H67 N26 1.023885 1_555
H68 N25 1.022562 1_555
H69 N24 1.022562 1_555
H70 N27 1.022562 1_555
H71 N26 1.022562 1_555
H72 N28 1.019787 1_555
H73 N29 1.019787 1_555
H74 N30 1.019787 1_555
H75 N31 1.019787 1_555
H76 N28 1.015344 1_555
H77 N29 1.015344 1_555
H78 N30 1.015344 1_555
H79 N31 1.015344 1_555
H80 N32 1.025795 1_555
H81 N33 1.025795 1_555
H82 N34 1.025795 1_555
H83 N35 1.025795 1_555
H84 N32 1.015367 1_554
H85 N33 1.015367 1_555
H86 N34 1.015367 1_556
H87 N35 1.015367 1_555
C0 N4 1.337350 1_555
C0 N0 1.338360 1_555
C0 N9 1.340923 1_555
C1 N5 1.337350 1_555
C1 N1 1.338360 1_555
C1 N8 1.340923 1_555
C2 N6 1.337350 1_555
C2 N2 1.338360 1_555
C2 N11 1.340923 1_555
C3 N7 1.337350 1_555
C3 N3 1.338360 1_555
C3 N10 1.340923 1_555
C4 N12 1.331297 1_555
C4 N21 1.345020 1_555
C4 N17 1.346798 1_555
C5 N13 1.331297 1_555
C5 N20 1.345020 1_555
C5 N16 1.346798 1_555
C6 N14 1.331297 1_555
C6 N23 1.345020 1_555
C6 N19 1.346798 1_555
C7 N15 1.331297 1_555
C7 N22 1.345020 1_555
C7 N18 1.346798 1_555
C8 N25 1.335324 1_555
C8 N33 1.339878 1_555
C8 N28 1.345919 1_555
C9 N24 1.335324 1_555
C9 N32 1.339878 1_555
C9 N29 1.345919 1_555
C10 N27 1.335324 1_555
C10 N35 1.339878 1_555
C10 N30 1.345919 1_555
C11 N26 1.335324 1_555
C11 N34 1.339878 1_555
C11 N31 1.345919 1_555
O0 P0 1.506703 1_555
O1 P1 1.506703 1_655
O2 P2 1.506703 1_555
O3 P3 1.506703 1_455
O4 P0 1.496804 1_555
O5 P1 1.496804 1_555
O6 P2 1.496804 1_555
O7 P3 1.496804 1_555
O8 P4 1.630058 1_555
O8 P0 1.632872 1_555
O9 P5 1.630058 1_555
O9 P1 1.632872 1_555
O10 P6 1.630058 1_555
O10 P2 1.632872 1_555
O11 P7 1.630058 1_555
O11 P3 1.632872 1_555
O12 P8 1.629878 1_555
O12 P4 1.635579 1_555
O13 P9 1.629878 1_555
O13 P5 1.635579 1_555
O14 P10 1.629878 1_555
O14 P6 1.635579 1_555
O15 P11 1.629878 1_555
O15 P7 1.635579 1_555
O16 P4 1.504913 1_555
O17 P5 1.504913 1_555
O18 P6 1.504913 1_555
O19 P7 1.504913 1_555
O20 P4 1.498670 1_555
O21 P5 1.498670 1_555
O22 P6 1.498670 1_555
O23 P7 1.498670 1_555
O24 P8 1.627946 1_555
O24 P0 1.636069 1_555
O25 P9 1.627946 1_555
O25 P1 1.636069 1_555
O26 P10 1.627946 1_555
O26 P2 1.636069 1_555
O27 P11 1.627946 1_555
O27 P3 1.636069 1_555
O28 P9 1.506243 1_555
O29 P8 1.506243 1_555
O30 P11 1.506243 1_555
O31 P10 1.506243 1_555
O32 P9 1.496926 1_555
O33 P8 1.496926 1_555
O34 P11 1.496926 1_555
O35 P10 1.496926 1_555
