# generated using pymatgen
data_KICl4O
_symmetry_space_group_name_H-M   'P 1'
_cell_length_a   13.73148100
_cell_length_b   4.81540100
_cell_length_c   13.18735266
_cell_angle_alpha   75.56939322
_cell_angle_beta   90.00000000
_cell_angle_gamma   90.00000000
_symmetry_Int_Tables_number   1
_chemical_formula_structural   KICl4O
_chemical_formula_sum   'K4 I4 Cl16 O4'
_cell_volume   844.47100295
_cell_formula_units_Z   4
loop_
 _symmetry_equiv_pos_site_id
 _symmetry_equiv_pos_as_xyz
  1  'x, y, z'
loop_
 _atom_site_type_symbol
 _atom_site_label
 _atom_site_symmetry_multiplicity
 _atom_site_fract_x
 _atom_site_fract_y
 _atom_site_fract_z
 _atom_site_occupancy
  K  K0  1  0.66187900  0.84612800  0.42952500  1
  K  K1  1  0.83812100  0.84612800  0.92952500  1
  K  K2  1  0.33812100  0.15387200  0.57047500  1
  K  K3  1  0.16187900  0.15387200  0.07047500  1
  I  I0  1  0.05629700  0.30293400  0.70397100  1
  I  I1  1  0.44370300  0.30293400  0.20397100  1
  I  I2  1  0.94370300  0.69706600  0.29602900  1
  I  I3  1  0.55629700  0.69706600  0.79602900  1
  Cl  Cl0  1  0.22052200  0.51829200  0.72496900  1
  Cl  Cl1  1  0.27947800  0.51829200  0.22496900  1
  Cl  Cl2  1  0.77947800  0.48170800  0.27503100  1
  Cl  Cl3  1  0.72052200  0.48170800  0.77503100  1
  Cl  Cl4  1  0.89620100  0.07184800  0.68421800  1
  Cl  Cl5  1  0.60379900  0.07184800  0.18421800  1
  Cl  Cl6  1  0.10379900  0.92815200  0.31578200  1
  Cl  Cl7  1  0.39620100  0.92815200  0.81578200  1
  Cl  Cl8  1  0.00197700  0.36925300  0.88723200  1
  Cl  Cl9  1  0.49802300  0.36925300  0.38723200  1
  Cl  Cl10  1  0.99802300  0.63074700  0.11276800  1
  Cl  Cl11  1  0.50197700  0.63074700  0.61276800  1
  Cl  Cl12  1  0.10833200  0.21891600  0.53657400  1
  Cl  Cl13  1  0.39166800  0.21891600  0.03657400  1
  Cl  Cl14  1  0.89166800  0.78108400  0.46342600  1
  Cl  Cl15  1  0.60833200  0.78108400  0.96342600  1
  O  O0  1  0.28475300  0.71834100  0.45966000  1
  O  O1  1  0.21524700  0.71834100  0.95966000  1
  O  O2  1  0.71524700  0.28165900  0.54034000  1
  O  O3  1  0.78475300  0.28165900  0.04034000  1
loop_
_geom_bond_atom_site_label_1
_geom_bond_atom_site_label_2
_geom_bond_distance
_geom_bond_site_symmetry_2
K0 O2 2.842729 1_555
K0 O2 2.932343 1_565
K1 O3 2.842729 1_556
K1 O3 2.932343 1_566
K2 O0 2.842729 1_555
K2 O0 2.932343 1_545
K3 O1 2.842729 1_554
K3 O1 2.932343 1_544
Cl0 I0 2.525967 1_555
Cl0 K2 3.408788 1_555
Cl0 K2 3.608006 1_565
Cl1 I1 2.525967 1_555
Cl1 K3 3.408788 1_555
Cl1 K3 3.608006 1_565
Cl2 I2 2.525967 1_555
Cl2 K0 3.408788 1_555
Cl2 K0 3.608006 1_545
Cl3 I3 2.525967 1_555
Cl3 K1 3.408788 1_555
Cl3 K1 3.608006 1_545
Cl4 I0 2.506662 1_655
Cl4 K1 3.244974 1_545
Cl5 I1 2.506662 1_555
Cl5 K0 3.244974 1_545
Cl6 I2 2.506662 1_455
Cl6 K3 3.244974 1_565
Cl7 I3 2.506662 1_555
Cl7 K2 3.244974 1_565
Cl8 I0 2.623659 1_555
Cl8 K3 3.238364 1_556
Cl8 K1 3.319472 1_445
Cl8 K1 3.359321 1_455
Cl9 I1 2.623659 1_555
Cl9 K2 3.238364 1_555
Cl9 K0 3.319472 1_545
Cl9 K0 3.359321 1_555
Cl10 I2 2.623659 1_555
Cl10 K1 3.238364 1_554
Cl10 K3 3.319472 1_665
Cl10 K3 3.359321 1_655
Cl11 I3 2.623659 1_555
Cl11 K0 3.238364 1_555
Cl11 K2 3.319472 1_565
Cl11 K2 3.359321 1_555
Cl12 I0 2.447963 1_555
Cl12 K2 3.191296 1_555
Cl13 I1 2.447963 1_555
Cl13 K3 3.191296 1_555
Cl14 I2 2.447963 1_555
Cl14 K0 3.191296 1_555
Cl15 I3 2.447963 1_555
Cl15 K1 3.191296 1_555
