# generated using pymatgen
data_Li4Fe3O8
_symmetry_space_group_name_H-M   'P 1'
_cell_length_a   10.32087174
_cell_length_b   10.32089225
_cell_length_c   14.63792608
_cell_angle_alpha   18.99868096
_cell_angle_beta   18.99874873
_cell_angle_gamma   32.75149534
_symmetry_Int_Tables_number   1
_chemical_formula_structural   Li4Fe3O8
_chemical_formula_sum   'Li4 Fe3 O8'
_cell_volume   143.10685732
_cell_formula_units_Z   1
loop_
 _symmetry_equiv_pos_site_id
 _symmetry_equiv_pos_as_xyz
  1  'x, y, z'
loop_
 _atom_site_type_symbol
 _atom_site_label
 _atom_site_symmetry_multiplicity
 _atom_site_fract_x
 _atom_site_fract_y
 _atom_site_fract_z
 _atom_site_occupancy
  Li  Li0  1  0.00000000  0.99998900  0.00000700  1
  Li  Li1  1  0.99999900  0.50000600  0.49999500  1
  Li  Li2  1  0.49999800  0.99998800  0.50001000  1
  Li  Li3  1  0.50001700  0.50000700  0.49998500  1
  Fe  Fe0  1  0.99998500  0.49999700  0.00001500  1
  Fe  Fe1  1  0.49999100  0.99999300  0.00001300  1
  Fe  Fe2  1  0.49999300  0.50000700  0.99999700  1
  O  O0  1  0.00002900  0.00003100  0.24808300  1
  O  O1  1  0.00002100  0.47423800  0.28187800  1
  O  O2  1  0.47423400  0.00001500  0.28188600  1
  O  O3  1  0.99997400  0.99997300  0.75191200  1
  O  O4  1  0.52577300  0.52577200  0.23035700  1
  O  O5  1  0.99999400  0.52576600  0.71811200  1
  O  O6  1  0.52576600  0.99999100  0.71811000  1
  O  O7  1  0.47422900  0.47422900  0.76964000  1
loop_
_geom_bond_atom_site_label_1
_geom_bond_atom_site_label_2
_geom_bond_distance
_geom_bond_site_symmetry_2
Li0 O7 2.032002 1_455
Li0 O4 2.032041 1_564
Li0 O1 2.032107 1_555
Li0 O6 2.032108 1_554
Li0 O2 2.032144 1_465
Li0 O5 2.032185 1_464
Li1 O0 2.060151 1_665
Li1 O3 2.060154 1_545
Li1 O6 2.243825 1_654
Li1 O2 2.243861 1_556
Li1 O7 2.243951 1_555
Li1 O4 2.243996 1_655
Li2 O0 2.060125 1_665
Li2 O3 2.060158 1_455
Li2 O1 2.243788 1_556
Li2 O5 2.243837 1_564
Li2 O7 2.243959 1_555
Li2 O4 2.243995 1_565
Li3 O3 2.059924 1_554
Li3 O0 2.059961 1_556
Li3 O1 2.243939 1_655
Li3 O5 2.243968 1_455
Li3 O6 2.243980 1_545
Li3 O2 2.243988 1_565
Fe0 O6 1.921641 1_545
Fe0 O4 1.921719 1_555
Fe0 O2 1.921745 1_664
Fe0 O7 1.921747 1_654
Fe0 O3 2.092315 1_554
Fe0 O0 2.092388 1_655
Fe1 O5 1.921673 1_455
Fe1 O7 1.921724 1_564
Fe1 O4 1.921755 1_555
Fe1 O1 1.921763 1_664
Fe1 O3 2.092347 1_554
Fe1 O0 2.092358 1_565
Fe2 O1 1.921658 1_556
Fe2 O2 1.921722 1_556
Fe2 O6 1.921727 1_555
Fe2 O5 1.921821 1_555
Fe2 O0 2.092358 1_665
Fe2 O3 2.092398 1_446
