# generated using pymatgen
data_Fe2Ni3P6WO24
_symmetry_space_group_name_H-M   'P 1'
_cell_length_a   8.44917874
_cell_length_b   8.44917874
_cell_length_c   8.44917936
_cell_angle_alpha   61.88912212
_cell_angle_beta   61.88912212
_cell_angle_gamma   61.88912108
_symmetry_Int_Tables_number   1
_chemical_formula_structural   Fe2Ni3P6WO24
_chemical_formula_sum   'Fe2 Ni3 P6 W1 O24'
_cell_volume   444.54593672
_cell_formula_units_Z   1
loop_
 _symmetry_equiv_pos_site_id
 _symmetry_equiv_pos_as_xyz
  1  'x, y, z'
loop_
 _atom_site_type_symbol
 _atom_site_label
 _atom_site_symmetry_multiplicity
 _atom_site_fract_x
 _atom_site_fract_y
 _atom_site_fract_z
 _atom_site_occupancy
  Fe  Fe0  1  0.01171800  0.01171800  0.01171800  1
  Fe  Fe1  1  0.50329100  0.50329100  0.50329100  1
  Ni  Ni0  1  0.35658600  0.35658600  0.35658600  1
  Ni  Ni1  1  0.14799400  0.14799400  0.14799400  1
  Ni  Ni2  1  0.64256700  0.64256700  0.64256700  1
  P  P0  1  0.74168500  0.04910100  0.44969900  1
  P  P1  1  0.04910100  0.44969900  0.74168500  1
  P  P2  1  0.44969900  0.74168500  0.04910100  1
  P  P3  1  0.53823700  0.25523400  0.95368200  1
  P  P4  1  0.95368200  0.53823700  0.25523400  1
  P  P5  1  0.25523400  0.95368200  0.53823700  1
  W  W0  1  0.85806000  0.85806000  0.85806000  1
  O  O0  1  0.89570400  0.49564700  0.67278300  1
  O  O1  1  0.49564700  0.67278300  0.89570400  1
  O  O2  1  0.67278300  0.89570400  0.49564700  1
  O  O3  1  0.90085100  0.06401800  0.25375000  1
  O  O4  1  0.82349800  0.98720400  0.61721000  1
  O  O5  1  0.59855000  0.24723800  0.45288700  1
  O  O6  1  0.06401800  0.25375000  0.90085100  1
  O  O7  1  0.24723800  0.45288700  0.59855000  1
  O  O8  1  0.39787000  0.17103100  0.99136100  1
  O  O9  1  0.45288700  0.59855000  0.24723800  1
  O  O10  1  0.75208700  0.09132800  0.92790000  1
  O  O11  1  0.99136100  0.39787000  0.17103100  1
  O  O12  1  0.98720400  0.61721000  0.82349800  1
  O  O13  1  0.25375000  0.90085100  0.06401800  1
  O  O14  1  0.56213100  0.40207000  0.74983600  1
  O  O15  1  0.61721000  0.82349800  0.98720400  1
  O  O16  1  0.74983600  0.56213100  0.40207000  1
  O  O17  1  0.92790000  0.75208700  0.09132800  1
  O  O18  1  0.40207000  0.74983600  0.56213100  1
  O  O19  1  0.17103100  0.99136100  0.39787000  1
  O  O20  1  0.09132800  0.92790000  0.75208700  1
  O  O21  1  0.31108400  0.10720900  0.51890900  1
  O  O22  1  0.51890900  0.31108400  0.10720900  1
  O  O23  1  0.10720900  0.51890900  0.31108400  1
loop_
_geom_bond_atom_site_label_1
_geom_bond_atom_site_label_2
_geom_bond_distance
_geom_bond_site_symmetry_2
Fe0 O6 1.977616 1_554
Fe0 O13 1.977616 1_545
Fe0 O3 1.977616 1_455
Fe0 O17 2.321801 1_445
Fe0 O10 2.321801 1_454
Fe0 O20 2.321801 1_544
Fe1 O16 2.052876 1_555
Fe1 O18 2.052876 1_555
Fe1 O14 2.052876 1_555
Fe1 O7 2.100944 1_555
Fe1 O5 2.100944 1_555
Fe1 O9 2.100944 1_555
Ni0 O23 2.002911 1_555
Ni0 O21 2.002911 1_555
Ni0 O22 2.002911 1_555
Ni0 O9 2.185043 1_555
Ni0 O5 2.185043 1_555
Ni0 O7 2.185043 1_555
Ni1 O11 1.938604 1_455
Ni1 O8 1.938604 1_554
Ni1 O19 1.938604 1_545
Ni1 O3 2.168567 1_455
Ni1 O13 2.168567 1_545
Ni1 O6 2.168567 1_554
Ni2 O0 1.973460 1_555
Ni2 O2 1.973460 1_555
Ni2 O1 1.973460 1_555
Ni2 O14 2.097085 1_555
Ni2 O18 2.097085 1_555
Ni2 O16 2.097085 1_555
O0 P1 1.480995 1_655
O1 P2 1.480995 1_556
O2 P0 1.480995 1_565
O3 P0 1.558973 1_555
O4 P0 1.624272 1_565
O4 W0 1.893224 1_555
O5 P0 1.539414 1_555
O6 P1 1.558973 1_555
O7 P1 1.539414 1_555
O8 P3 1.496649 1_555
O9 P2 1.539414 1_555
O10 P3 1.668951 1_555
O10 W0 1.992367 1_545
O11 P4 1.496649 1_555
O12 P1 1.624272 1_655
O12 W0 1.893224 1_555
O13 P2 1.558973 1_555
O14 P3 1.562405 1_555
O15 P2 1.624272 1_556
O15 W0 1.893224 1_555
O16 P4 1.562404 1_555
O17 P4 1.668951 1_555
O17 W0 1.992367 1_554
O18 P5 1.562404 1_555
O19 P5 1.496649 1_555
O20 P5 1.668951 1_555
O20 W0 1.992367 1_455
O21 P5 1.495528 1_545
O22 P3 1.495529 1_554
O23 P4 1.495528 1_455
