# generated using pymatgen
data_Li6V3P8O29
_symmetry_space_group_name_H-M   'P 1'
_cell_length_a   9.81076300
_cell_length_b   9.83388117
_cell_length_c   13.94256529
_cell_angle_alpha   89.75415990
_cell_angle_beta   89.52054080
_cell_angle_gamma   60.07850543
_symmetry_Int_Tables_number   1
_chemical_formula_structural   Li6V3P8O29
_chemical_formula_sum   'Li12 V6 P16 O58'
_cell_volume   1165.81292138
_cell_formula_units_Z   2
loop_
 _symmetry_equiv_pos_site_id
 _symmetry_equiv_pos_as_xyz
  1  'x, y, z'
loop_
 _atom_site_type_symbol
 _atom_site_label
 _atom_site_symmetry_multiplicity
 _atom_site_fract_x
 _atom_site_fract_y
 _atom_site_fract_z
 _atom_site_occupancy
  Li  Li0  1  0.22321300  0.07930200  0.55873600  1
  Li  Li1  1  0.08635200  0.68575300  0.56054700  1
  Li  Li2  1  0.32521800  0.34011900  0.38394900  1
  Li  Li3  1  0.32408400  0.33856700  0.88588000  1
  Li  Li4  1  0.23621800  0.67239000  0.06513600  1
  Li  Li5  1  0.67558500  0.09027000  0.06270800  1
  Li  Li6  1  0.68521600  0.22716700  0.56106700  1
  Li  Li7  1  0.33477100  0.89966600  0.94167600  1
  Li  Li8  1  0.76690100  0.33753300  0.94242900  1
  Li  Li9  1  0.90846200  0.31867700  0.43594400  1
  Li  Li10  1  0.77460900  0.90443500  0.43954100  1
  Li  Li11  1  0.00014900  0.99925500  0.00431800  1
  V  V0  1  0.43529200  0.56830000  0.25404600  1
  V  V1  1  0.56842100  0.43448600  0.74624800  1
  V  V2  1  0.43161200  0.99869800  0.74814000  1
  V  V3  1  0.56414100  0.99838900  0.24862000  1
  V  V4  1  0.00329000  0.43401800  0.24224400  1
  V  V5  1  0.99247200  0.57011600  0.75627000  1
  P  P0  1  0.08610100  0.22219500  0.84019800  1
  P  P1  1  0.22783500  0.09143500  0.34142300  1
  P  P2  1  0.08932600  0.67868700  0.34390400  1
  P  P3  1  0.33689500  0.33622000  0.12710200  1
  P  P4  1  0.33040700  0.33427300  0.62734500  1
  P  P5  1  0.22733800  0.68266200  0.84503700  1
  P  P6  1  0.31414400  0.76909100  0.65857600  1
  P  P7  1  0.68076000  0.09412000  0.84379600  1
  P  P8  1  0.31273400  0.91393800  0.15718700  1
  P  P9  1  0.67769900  0.22889800  0.34189900  1
  P  P10  1  0.77190600  0.31425600  0.15769500  1
  P  P11  1  0.67237600  0.66349600  0.37060400  1
  P  P12  1  0.66237400  0.66532900  0.87408900  1
  P  P13  1  0.91590600  0.32047700  0.65428600  1
  P  P14  1  0.77010400  0.91428400  0.65998200  1
  P  P15  1  0.91692200  0.77639600  0.15834500  1
  O  O0  1  0.00084400  0.24421300  0.56257600  1
  O  O1  1  0.07921800  0.25527400  0.33887100  1
  O  O2  1  0.22719900  0.98959600  0.06619100  1
  O  O3  1  0.25732600  0.07880500  0.84031600  1
  O  O4  1  0.10113700  0.37206300  0.83394700  1
  O  O5  1  0.19111500  0.33092000  0.16964100  1
  O  O6  1  0.10975300  0.51349900  0.32619100  1
  O  O7  1  0.01031700  0.79112000  0.07708900  1
  O  O8  1  0.08384600  0.66150400  0.84153500  1
  O  O9  1  0.32725800  0.18422200  0.66527600  1
  O  O10  1  0.37158600  0.11663700  0.32117500  1
  O  O11  1  0.18314300  0.48219900  0.67093400  1
  O  O12  1  0.33758800  0.33869300  0.01909000  1
  O  O13  1  0.32881300  0.33609900  0.51953000  1
  O  O14  1  0.32834100  0.48926800  0.16658100  1
  O  O15  1  0.51708000  0.10961600  0.83022500  1
  O  O16  1  0.49018500  0.18761200  0.16441400  1
  O  O17  1  0.25411900  0.65941400  0.34096000  1
  O  O18  1  0.21398600  0.79365000  0.75607600  1
  O  O19  1  0.22996300  0.75861100  0.57439200  1
  O  O20  1  0.23146300  0.76732000  0.93455200  1
  O  O21  1  0.37577800  0.51935900  0.83002200  1
  O  O22  1  0.48535400  0.32746700  0.66401800  1
  O  O23  1  0.33981400  0.74557200  0.16311900  1
  O  O24  1  0.51021800  0.37082600  0.32564900  1
  O  O25  1  0.66376600  0.07951500  0.34394900  1
  O  O26  1  0.20852400  0.00191200  0.25042300  1
  O  O27  1  0.24556200  0.00410700  0.43192200  1
  O  O28  1  0.75436400  0.00331900  0.56897600  1
  O  O29  1  0.33740700  0.91414500  0.65805400  1
  O  O30  1  0.47592100  0.61795300  0.67643800  1
  O  O31  1  0.65950500  0.26214700  0.83686800  1
  O  O32  1  0.52825200  0.65858800  0.32596200  1
  O  O33  1  0.61453400  0.46720700  0.16876300  1
  O  O34  1  0.77780500  0.22193200  0.06891800  1
  O  O35  1  0.75316400  0.24703300  0.43077700  1
  O  O36  1  0.78741800  0.20747100  0.25092300  1
  O  O37  1  0.75210700  0.33189700  0.65799500  1
  O  O38  1  0.51240800  0.81266500  0.83390300  1
  O  O39  1  0.46955000  0.91427300  0.16872000  1
  O  O40  1  0.67312500  0.51241400  0.83169600  1
  O  O41  1  0.66499100  0.66115000  0.98046000  1
  O  O42  1  0.67629100  0.65935500  0.47721900  1
  O  O43  1  0.82267000  0.51808600  0.32632100  1
  O  O44  1  0.61903500  0.90499800  0.68049600  1
  O  O45  1  0.66710400  0.81738100  0.32988500  1
  O  O46  1  0.91232900  0.33934700  0.16108200  1
  O  O47  1  0.01414600  0.20286000  0.74095200  1
  O  O48  1  0.99195100  0.21164100  0.92156400  1
  O  O49  1  0.90221700  0.47914000  0.67396300  1
  O  O50  1  0.81177100  0.66700800  0.82806100  1
  O  O51  1  0.91576100  0.62090100  0.16480400  1
  O  O52  1  0.74795800  0.91786000  0.15945400  1
  O  O53  1  0.76629400  0.01696300  0.93369400  1
  O  O54  1  0.78809300  0.00475900  0.75090900  1
  O  O55  1  0.91565300  0.75054200  0.66018500  1
  O  O56  1  0.99807900  0.75204800  0.43480500  1
  O  O57  1  0.99115800  0.79420100  0.25810300  1
loop_
_geom_bond_atom_site_label_1
_geom_bond_atom_site_label_2
_geom_bond_distance
_geom_bond_site_symmetry_2
Li0 O27 1.887877 1_555
Li0 O0 1.965067 1_555
Li0 O29 2.000474 1_545
Li0 O9 2.324276 1_555
Li1 O19 1.883748 1_555
Li1 O56 1.923788 1_455
Li1 O55 2.011123 1_455
Li1 O11 2.319290 1_555
Li2 O13 1.890847 1_555
Li2 O6 2.108341 1_555
Li2 O24 2.136838 1_555
Li2 O10 2.194380 1_555
Li3 O12 1.863163 1_556
Li3 O4 2.173172 1_555
Li3 O21 2.214873 1_555
Li3 O15 2.234700 1_555
Li4 O7 1.927900 1_555
Li4 O20 2.032709 1_554
Li4 O23 2.044160 1_555
Li4 O14 2.106208 1_555
Li5 O53 1.972715 1_554
Li5 O34 1.996840 1_555
Li5 O52 1.998413 1_545
Li5 O16 2.113548 1_555
Li6 O28 1.956386 1_555
Li6 O35 1.972083 1_555
Li6 O37 2.004688 1_555
Li6 O22 2.216663 1_555
Li7 O2 1.990274 1_556
Li7 O20 2.012385 1_555
Li7 O3 2.083057 1_565
Li7 O38 2.122921 1_555
Li8 O48 1.938450 1_555
Li8 O34 2.068483 1_556
Li8 O40 2.147131 1_555
Li8 O31 2.154173 1_555
Li9 O0 1.956656 1_655
Li9 O35 1.973841 1_555
Li9 O1 1.988537 1_655
Li9 O43 2.288911 1_555
Li10 O56 1.943572 1_555
Li10 O28 2.014497 1_565
Li10 O25 2.014928 1_565
Li10 O45 2.263129 1_555
Li11 O7 2.238048 1_555
Li11 O48 2.348017 1_464
Li11 O2 2.352765 1_555
Li11 O34 2.362923 1_465
Li11 O53 2.429295 1_464
Li11 O20 2.473199 1_554
O0 P13 1.502925 1_455
O1 P1 1.542671 1_555
O1 V4 2.037108 1_555
O2 P8 1.501415 1_555
O3 P0 1.564336 1_555
O3 V2 1.955517 1_545
O4 P0 1.554660 1_555
O4 V5 2.008118 1_455
O5 P3 1.568407 1_555
O5 V4 1.887313 1_555
O6 P2 1.554927 1_555
O6 V4 1.978515 1_555
O7 P15 1.502533 1_455
O8 P5 1.523460 1_555
O8 V5 1.963488 1_455
O9 P4 1.580031 1_555
O9 V2 1.962086 1_545
O10 P1 1.572105 1_555
O10 V3 1.931546 1_545
O11 P4 1.571312 1_555
O11 V5 2.005116 1_455
O12 P3 1.506070 1_555
O13 P4 1.503367 1_555
O14 P3 1.567019 1_555
O14 V0 2.008791 1_555
O15 P7 1.548681 1_555
O15 V2 2.035158 1_545
O16 P3 1.575438 1_555
O16 V3 2.003991 1_545
O17 P2 1.531253 1_555
O17 V0 1.953217 1_555
O18 P5 1.611003 1_555
O18 P6 1.617270 1_555
O19 P6 1.473954 1_555
O20 P5 1.515180 1_555
O21 P5 1.551847 1_555
O21 V1 2.007643 1_555
O22 P4 1.577336 1_555
O22 V1 1.991931 1_555
O23 P8 1.542432 1_555
O23 V0 1.973695 1_555
O24 P9 1.553966 1_555
O24 V0 1.969689 1_555
O25 P9 1.541885 1_555
O25 V3 2.041346 1_545
O26 P8 1.608910 1_545
O26 P1 1.612672 1_555
O27 P1 1.484999 1_555
O28 P14 1.503100 1_545
O29 P6 1.552916 1_555
O29 V2 1.979446 1_555
O30 P6 1.562109 1_555
O30 V1 1.841829 1_555
O31 P7 1.561513 1_555
O31 V1 1.938243 1_555
O32 P11 1.572295 1_555
O32 V0 1.859103 1_555
O33 P10 1.533349 1_555
O33 V0 1.930185 1_555
O34 P10 1.521762 1_555
O35 P9 1.504829 1_555
O36 P9 1.601623 1_555
O36 P10 1.627156 1_555
O37 P13 1.554455 1_555
O37 V1 1.984746 1_555
O38 P12 1.567814 1_555
O38 V2 1.988809 1_555
O39 P8 1.549840 1_555
O39 V3 1.891424 1_555
O40 P12 1.571654 1_555
O40 V1 1.968618 1_555
O41 P12 1.483560 1_555
O42 P11 1.487162 1_555
O43 P11 1.577653 1_555
O43 V4 1.926072 1_655
O44 P14 1.553858 1_555
O44 V2 1.846007 1_555
O45 P11 1.590616 1_555
O45 V3 1.918506 1_555
O46 P10 1.517022 1_555
O46 V4 1.948951 1_655
O47 P0 1.612995 1_555
O47 P13 1.619320 1_455
O48 P0 1.492659 1_655
O49 P13 1.523734 1_555
O49 V5 1.928079 1_555
O50 P12 1.602715 1_555
O50 V5 1.829198 1_555
O51 P15 1.537082 1_555
O51 V4 1.924766 1_655
O52 P15 1.543551 1_555
O52 V3 1.992754 1_555
O53 P7 1.491698 1_555
O54 P14 1.612460 1_545
O54 P7 1.619290 1_555
O55 P14 1.529061 1_555
O55 V5 2.042862 1_555
O56 P2 1.507546 1_655
O57 P2 1.601634 1_655
O57 P15 1.625396 1_555
