# generated using pymatgen
data_Sr7W4O19
_symmetry_space_group_name_H-M   'P 1'
_cell_length_a   7.41833254
_cell_length_b   7.41833254
_cell_length_c   10.46969975
_cell_angle_alpha   82.39178767
_cell_angle_beta   82.39178767
_cell_angle_gamma   44.39364213
_symmetry_Int_Tables_number   1
_chemical_formula_structural   Sr7W4O19
_chemical_formula_sum   'Sr7 W4 O19'
_cell_volume   398.93351709
_cell_formula_units_Z   1
loop_
 _symmetry_equiv_pos_site_id
 _symmetry_equiv_pos_as_xyz
  1  'x, y, z'
loop_
 _atom_site_type_symbol
 _atom_site_label
 _atom_site_symmetry_multiplicity
 _atom_site_fract_x
 _atom_site_fract_y
 _atom_site_fract_z
 _atom_site_occupancy
  Sr  Sr0  1  0.86000679  0.86000679  0.95320222  1
  Sr  Sr1  1  0.41693492  0.41693492  0.16117710  1
  Sr  Sr2  1  0.79142070  0.79142070  0.58757990  1
  Sr  Sr3  1  0.20857930  0.20857930  0.41242010  1
  Sr  Sr4  1  0.58306508  0.58306508  0.83882290  1
  Sr  Sr5  1  0.13999321  0.13999321  0.04679778  1
  Sr  Sr6  1  0.50000000  0.50000000  0.50000000  1
  W  W0  1  0.96395326  0.96395326  0.31931349  1
  W  W1  1  0.32534545  0.32534545  0.78227436  1
  W  W2  1  0.67465455  0.67465455  0.21772564  1
  W  W3  1  0.03604674  0.03604674  0.68068651  1
  O  O0  1  0.68788677  0.16919401  0.71470700  1
  O  O1  1  0.16919401  0.68788677  0.71470700  1
  O  O2  1  0.39924260  0.39924260  0.92788616  1
  O  O3  1  0.95377271  0.95377271  0.14388659  1
  O  O4  1  0.63200058  0.12344464  0.37047340  1
  O  O5  1  0.12344464  0.63200058  0.37047340  1
  O  O6  1  0.30463822  0.30463822  0.61128666  1
  O  O7  1  -0.00027906  0.48433740  0.84635441  1
  O  O8  1  0.48433740  -0.00027906  0.84635441  1
  O  O9  1  0.51566260  0.00027906  0.15364559  1
  O  O10  1  0.00027906  0.51566260  0.15364559  1
  O  O11  1  0.69536178  0.69536178  0.38871334  1
  O  O12  1  0.36799942  0.87655536  0.62952660  1
  O  O13  1  0.87655536  0.36799942  0.62952660  1
  O  O14  1  0.04622729  0.04622729  0.85611341  1
  O  O15  1  0.60075740  0.60075740  0.07211384  1
  O  O16  1  0.83080599  0.31211323  0.28529300  1
  O  O17  1  0.31211323  0.83080599  0.28529300  1
  O  O18  1  0.00000000  0.00000000  0.50000000  1
loop_
_geom_bond_atom_site_label_1
_geom_bond_atom_site_label_2
_geom_bond_distance
_geom_bond_site_symmetry_2
O0 W3 1.994236 1_655
O0 W1 2.082400 1_555
O0 Sr6 2.738402 1_555
O0 Sr2 2.802876 1_545
O0 Sr0 2.875488 1_545
O0 Sr4 3.016056 1_555
O1 W3 1.994236 1_565
O1 W1 2.082400 1_555
O1 Sr6 2.738402 1_555
O1 Sr2 2.802876 1_455
O1 Sr0 2.875488 1_455
O1 Sr4 3.016056 1_555
O2 W1 1.948649 1_555
O2 Sr1 2.488891 1_556
O2 Sr4 2.563726 1_555
O2 Sr0 2.859071 1_545
O2 Sr0 2.859071 1_455
O3 W0 1.861817 1_555
O3 Sr0 2.525909 1_554
O3 Sr5 2.614125 1_665
O3 Sr1 2.849042 1_655
O3 Sr1 2.849042 1_565
O4 W0 1.845427 1_545
O4 Sr1 2.604923 1_555
O4 Sr3 2.707632 1_555
O4 Sr6 2.709868 1_555
O4 Sr2 2.774618 1_545
O5 W0 1.845427 1_455
O5 Sr1 2.604923 1_555
O5 Sr3 2.707632 1_555
O5 Sr6 2.709868 1_555
O5 Sr2 2.774618 1_455
O6 W1 1.852386 1_555
O6 Sr3 2.619552 1_555
O6 Sr6 2.768681 1_555
O6 Sr2 2.821674 1_545
O6 Sr2 2.821674 1_455
O7 W1 1.839857 1_555
O7 Sr0 2.546131 1_455
O7 Sr4 2.628754 1_455
O7 Sr5 2.715167 1_556
O7 Sr2 3.059605 1_455
O8 W1 1.839857 1_555
O8 Sr0 2.546131 1_545
O8 Sr4 2.628754 1_545
O8 Sr5 2.715167 1_556
O8 Sr2 3.059605 1_545
O9 W2 1.839857 1_545
O9 Sr5 2.546131 1_555
O9 Sr1 2.628754 1_555
O9 Sr0 2.715167 1_544
O9 Sr3 3.059605 1_555
O10 W2 1.839857 1_455
O10 Sr5 2.546131 1_555
O10 Sr1 2.628754 1_555
O10 Sr0 2.715167 1_454
O10 Sr3 3.059605 1_555
O11 W2 1.852386 1_555
O11 Sr2 2.619552 1_555
O11 Sr6 2.768681 1_555
O11 Sr3 2.821674 1_565
O11 Sr3 2.821674 1_655
O12 W3 1.845427 1_565
O12 Sr4 2.604923 1_555
O12 Sr2 2.707632 1_555
O12 Sr6 2.709868 1_555
O12 Sr3 2.774618 1_565
O13 W3 1.845427 1_655
O13 Sr4 2.604923 1_555
O13 Sr2 2.707632 1_555
O13 Sr6 2.709868 1_555
O13 Sr3 2.774618 1_655
O14 W3 1.861817 1_555
O14 Sr5 2.525909 1_556
O14 Sr0 2.614125 1_445
O14 Sr4 2.849042 1_455
O14 Sr4 2.849042 1_545
O15 W2 1.948649 1_555
O15 Sr4 2.488891 1_554
O15 Sr1 2.563726 1_555
O15 Sr5 2.859071 1_565
O15 Sr5 2.859071 1_655
O16 W0 1.994236 1_545
O16 W2 2.082400 1_555
O16 Sr6 2.738402 1_555
O16 Sr3 2.802876 1_655
O16 Sr5 2.875488 1_655
O16 Sr1 3.016056 1_555
O17 W0 1.994236 1_455
O17 W2 2.082400 1_555
O17 Sr6 2.738402 1_555
O17 Sr3 2.802876 1_565
O17 Sr5 2.875488 1_565
O17 Sr1 3.016056 1_555
O18 W0 2.022810 1_445
O18 W3 2.022810 1_555
O18 Sr6 2.802568 1_545
O18 Sr6 2.802568 1_455
O18 Sr3 2.880840 1_555
O18 Sr2 2.880840 1_445
