# generated using pymatgen
data_Na4P4(H2O5)3
_symmetry_space_group_name_H-M   'P 1'
_cell_length_a   6.69445400
_cell_length_b   10.08207683
_cell_length_c   11.31572442
_cell_angle_alpha   103.98280580
_cell_angle_beta   101.08267088
_cell_angle_gamma   90.98928888
_symmetry_Int_Tables_number   1
_chemical_formula_structural   Na4P4(H2O5)3
_chemical_formula_sum   'Na8 P8 H12 O30'
_cell_volume   725.66167875
_cell_formula_units_Z   2
loop_
 _symmetry_equiv_pos_site_id
 _symmetry_equiv_pos_as_xyz
  1  'x, y, z'
loop_
 _atom_site_type_symbol
 _atom_site_label
 _atom_site_symmetry_multiplicity
 _atom_site_fract_x
 _atom_site_fract_y
 _atom_site_fract_z
 _atom_site_occupancy
  Na  Na0  1  0.74908700  0.02738000  0.41300900  1
  Na  Na1  1  0.25091300  0.97262000  0.58699100  1
  Na  Na2  1  0.91928800  0.71597900  0.23559300  1
  Na  Na3  1  0.08071200  0.28402100  0.76440700  1
  Na  Na4  1  0.50631300  0.66044600  0.63597300  1
  Na  Na5  1  0.49368700  0.33955400  0.36402700  1
  Na  Na6  1  0.81569300  0.56063800  0.89298400  1
  Na  Na7  1  0.18430700  0.43936200  0.10701600  1
  P  P0  1  0.40320200  0.77371400  0.18950800  1
  P  P1  1  0.59679800  0.22628600  0.81049200  1
  P  P2  1  0.31862300  0.64295700  0.91184600  1
  P  P3  1  0.68137700  0.35704300  0.08815400  1
  P  P4  1  0.03223600  0.75484500  0.73891300  1
  P  P5  1  0.96776400  0.24515500  0.26108700  1
  P  P6  1  0.21885700  0.01913400  0.30193700  1
  P  P7  1  0.78114300  0.98086600  0.69806300  1
  H  H0  1  0.96054100  0.86016300  0.04116800  1
  H  H1  1  0.03945900  0.13983700  0.95883200  1
  H  H2  1  0.72656000  0.81835700  0.01610400  1
  H  H3  1  0.27344000  0.18164300  0.98389600  1
  H  H4  1  0.97903300  0.34343700  0.50710400  1
  H  H5  1  0.02096700  0.65656300  0.49289600  1
  H  H6  1  0.96177200  0.45982500  0.62573800  1
  H  H7  1  0.03822800  0.54017500  0.37426200  1
  H  H8  1  0.57580400  0.38517300  0.64244100  1
  H  H9  1  0.42419600  0.61482700  0.35755900  1
  H  H10  1  0.34102500  0.38885700  0.59594900  1
  H  H11  1  0.65897500  0.61114300  0.40405100  1
  O  O0  1  0.73258300  0.33241800  0.78618300  1
  O  O1  1  0.26741700  0.66758200  0.21381700  1
  O  O2  1  0.56148900  0.26767600  0.95235600  1
  O  O3  1  0.43851100  0.73232400  0.04764400  1
  O  O4  1  0.72515900  0.09097500  0.81710400  1
  O  O5  1  0.27484100  0.90902500  0.18289600  1
  O  O6  1  0.38968400  0.18496700  0.72916800  1
  O  O7  1  0.61031600  0.81503300  0.27083200  1
  O  O8  1  0.17842200  0.76293700  0.87271900  1
  O  O9  1  0.82157800  0.23706300  0.12728100  1
  O  O10  1  0.18306400  0.52781500  0.92270500  1
  O  O11  1  0.81693600  0.47218500  0.07729500  1
  O  O12  1  0.47637000  0.61536700  0.83359000  1
  O  O13  1  0.52363000  0.38463300  0.16641000  1
  O  O14  1  0.87352700  0.63731500  0.70816100  1
  O  O15  1  0.12647300  0.36268500  0.29183900  1
  O  O16  1  0.15802400  0.76456900  0.64385000  1
  O  O17  1  0.84197600  0.23543100  0.35615000  1
  O  O18  1  0.93085900  0.89892100  0.78356800  1
  O  O19  1  0.06914100  0.10107900  0.21643200  1
  O  O20  1  0.90677700  0.05159900  0.63133600  1
  O  O21  1  0.09322300  0.94840100  0.36866400  1
  O  O22  1  0.59410200  0.89295800  0.62531300  1
  O  O23  1  0.40589800  0.10704200  0.37468700  1
  O  O24  1  0.13806200  0.21289100  0.96072200  1
  O  O25  1  0.86193800  0.78710900  0.03927800  1
  O  O26  1  0.04295100  0.38307400  0.59537800  1
  O  O27  1  0.95704900  0.61692600  0.40462200  1
  O  O28  1  0.47452700  0.40996000  0.57780800  1
  O  O29  1  0.52547300  0.59004000  0.42219200  1
loop_
_geom_bond_atom_site_label_1
_geom_bond_atom_site_label_2
_geom_bond_distance
_geom_bond_site_symmetry_2
Na0 O7 2.393122 1_545
Na0 O23 2.441404 1_555
Na0 O17 2.441618 1_555
Na0 O20 2.444268 1_555
Na0 O21 2.551087 1_645
Na1 O6 2.393122 1_565
Na1 O22 2.441404 1_555
Na1 O16 2.441618 1_555
Na1 O21 2.444268 1_555
Na1 O20 2.551087 1_465
Na2 O27 2.337843 1_555
Na2 O7 2.372887 1_555
Na2 O1 2.435597 1_655
Na2 O25 2.459270 1_555
Na2 O21 2.576973 1_655
Na2 O11 2.657420 1_555
Na3 O26 2.337843 1_555
Na3 O6 2.372887 1_555
Na3 O0 2.435597 1_455
Na3 O24 2.459270 1_555
Na3 O20 2.576973 1_455
Na3 O10 2.657420 1_555
Na4 O29 2.380105 1_555
Na4 O12 2.430550 1_555
Na4 O22 2.443679 1_555
Na4 O28 2.445517 1_555
Na4 O14 2.470773 1_555
Na4 O16 2.581774 1_555
Na5 O28 2.380105 1_555
Na5 O13 2.430550 1_555
Na5 O23 2.443679 1_555
Na5 O29 2.445517 1_555
Na5 O15 2.470773 1_555
Na5 O17 2.581774 1_555
Na6 O0 2.327628 1_555
Na6 O12 2.356227 1_555
Na6 O25 2.449824 1_556
Na6 O10 2.456606 1_655
Na6 O11 2.457143 1_556
Na6 O14 2.490743 1_555
Na7 O1 2.327628 1_555
Na7 O13 2.356227 1_555
Na7 O24 2.449824 1_554
Na7 O11 2.456606 1_455
Na7 O10 2.457143 1_554
Na7 O15 2.490743 1_555
H0 O25 0.974083 1_555
H1 O24 0.974083 1_555
H2 O25 0.973541 1_555
H3 O24 0.973541 1_555
H4 O26 0.988651 1_655
H5 O27 0.988651 1_455
H6 O26 0.984870 1_655
H7 O27 0.984870 1_455
H8 O28 0.980088 1_555
H9 O29 0.980088 1_555
H10 O28 0.985505 1_555
H11 O29 0.985505 1_555
O0 P1 1.500570 1_555
O1 P0 1.500570 1_555
O2 P1 1.622509 1_555
O2 P3 1.627591 1_556
O3 P0 1.622509 1_555
O3 P2 1.627591 1_554
O4 P1 1.634069 1_555
O4 P7 1.634975 1_545
O5 P0 1.634069 1_555
O5 P6 1.634975 1_565
O6 P1 1.499023 1_555
O7 P0 1.499023 1_555
O8 P4 1.620124 1_555
O8 P2 1.636598 1_555
O9 P5 1.620124 1_555
O9 P3 1.636598 1_555
O10 P2 1.503892 1_555
O11 P3 1.503892 1_555
O12 P2 1.492430 1_555
O13 P3 1.492430 1_555
O14 P4 1.506370 1_655
O15 P5 1.506370 1_455
O16 P4 1.507389 1_555
O17 P5 1.507389 1_555
O18 P4 1.623912 1_655
O18 P7 1.632586 1_555
O19 P5 1.623912 1_455
O19 P6 1.632586 1_555
O20 P7 1.506553 1_545
O21 P6 1.506553 1_565
O22 P7 1.497950 1_555
O23 P6 1.497950 1_555
