# generated using pymatgen
data_CaMn7O8
_symmetry_space_group_name_H-M   'P 1'
_cell_length_a   6.43080677
_cell_length_b   6.43080677
_cell_length_c   5.56749340
_cell_angle_alpha   73.06518237
_cell_angle_beta   73.06518237
_cell_angle_gamma   59.92369111
_symmetry_Int_Tables_number   1
_chemical_formula_structural   CaMn7O8
_chemical_formula_sum   'Ca1 Mn7 O8'
_cell_volume   187.64565335
_cell_formula_units_Z   1
loop_
 _symmetry_equiv_pos_site_id
 _symmetry_equiv_pos_as_xyz
  1  'x, y, z'
loop_
 _atom_site_type_symbol
 _atom_site_label
 _atom_site_symmetry_multiplicity
 _atom_site_fract_x
 _atom_site_fract_y
 _atom_site_fract_z
 _atom_site_occupancy
  Ca  Ca0  1  0.50000000  0.50000000  0.50000000  1
  Mn  Mn0  1  0.75274200  0.24725800  0.00000000  1
  Mn  Mn1  1  0.75083700  0.75083700  0.99811500  1
  Mn  Mn2  1  0.24916300  0.24916300  0.00188500  1
  Mn  Mn3  1  0.00000000  0.50000000  0.50000000  1
  Mn  Mn4  1  0.50000000  0.00000000  0.50000000  1
  Mn  Mn5  1  0.24725800  0.75274200  0.00000000  1
  Mn  Mn6  1  0.00000000  0.00000000  0.50000000  1
  O  O0  1  0.37300800  0.37300800  0.24227200  1
  O  O1  1  0.88428900  0.37035300  0.24520700  1
  O  O2  1  0.37035300  0.88428900  0.24520700  1
  O  O3  1  0.87499300  0.87499300  0.25362000  1
  O  O4  1  0.62699200  0.62699200  0.75772800  1
  O  O5  1  0.62964700  0.11571100  0.75479300  1
  O  O6  1  0.11571100  0.62964700  0.75479300  1
  O  O7  1  0.12500700  0.12500700  0.74638000  1
loop_
_geom_bond_atom_site_label_1
_geom_bond_atom_site_label_2
_geom_bond_distance
_geom_bond_site_symmetry_2
Ca0 O1 2.322984 1_555
Ca0 O2 2.322984 1_555
Ca0 O5 2.322984 1_555
Ca0 O6 2.322984 1_555
Ca0 O4 2.329509 1_555
Ca0 O0 2.329509 1_555
Mn0 O3 2.265828 1_545
Mn0 O7 2.265828 1_654
Mn0 O0 2.274621 1_555
Mn0 O4 2.274621 1_554
Mn0 O1 2.275868 1_555
Mn0 O5 2.275868 1_554
Mn1 O5 2.208774 1_565
Mn1 O6 2.208774 1_655
Mn1 O4 2.222034 1_555
Mn1 O1 2.288683 1_556
Mn1 O2 2.288683 1_556
Mn1 O3 2.293645 1_556
Mn2 O1 2.208774 1_455
Mn2 O2 2.208774 1_545
Mn2 O0 2.222034 1_555
Mn2 O5 2.288683 1_554
Mn2 O6 2.288683 1_554
Mn2 O7 2.293645 1_554
Mn3 O7 2.261744 1_555
Mn3 O3 2.261744 1_455
Mn3 O6 2.277476 1_555
Mn3 O1 2.277476 1_455
Mn3 O0 2.279004 1_555
Mn3 O4 2.279004 1_455
Mn4 O7 2.261744 1_555
Mn4 O3 2.261744 1_545
Mn4 O5 2.277476 1_555
Mn4 O2 2.277476 1_545
Mn4 O4 2.279004 1_545
Mn4 O0 2.279004 1_555
Mn5 O3 2.265828 1_455
Mn5 O7 2.265828 1_564
Mn5 O0 2.274621 1_555
Mn5 O4 2.274621 1_554
Mn5 O2 2.275868 1_555
Mn5 O6 2.275868 1_554
Mn6 O3 2.259793 1_445
Mn6 O7 2.259793 1_555
Mn6 O2 2.260255 1_545
Mn6 O1 2.260255 1_455
Mn6 O5 2.260255 1_455
Mn6 O6 2.260255 1_545
