# generated using pymatgen
data_Li2MnF6
_symmetry_space_group_name_H-M   'P 1'
_cell_length_a   4.53686818
_cell_length_b   4.53686818
_cell_length_c   8.70343947
_cell_angle_alpha   90.00000000
_cell_angle_beta   90.00000000
_cell_angle_gamma   90.00002475
_symmetry_Int_Tables_number   1
_chemical_formula_structural   Li2MnF6
_chemical_formula_sum   'Li4 Mn2 F12'
_cell_volume   179.14439929
_cell_formula_units_Z   2
loop_
 _symmetry_equiv_pos_site_id
 _symmetry_equiv_pos_as_xyz
  1  'x, y, z'
loop_
 _atom_site_type_symbol
 _atom_site_label
 _atom_site_symmetry_multiplicity
 _atom_site_fract_x
 _atom_site_fract_y
 _atom_site_fract_z
 _atom_site_occupancy
  Li  Li0  1  -0.00000000  -0.00000000  0.33761544  1
  Li  Li1  1  -0.00000000  -0.00000000  0.66238456  1
  Li  Li2  1  0.50000000  0.50000000  0.16238456  1
  Li  Li3  1  0.50000000  0.50000000  0.83761544  1
  Mn  Mn0  1  -0.00000000  -0.00000000  0.00000000  1
  Mn  Mn1  1  0.50000000  0.50000000  0.50000000  1
  F  F0  1  0.19188937  0.80811063  0.15313382  1
  F  F1  1  0.19188937  0.80811063  0.84686618  1
  F  F2  1  0.21706867  0.78293133  0.50000000  1
  F  F3  1  0.28293133  0.28293133  0.00000000  1
  F  F4  1  0.30811063  0.30811063  0.34686618  1
  F  F5  1  0.30811063  0.30811063  0.65313382  1
  F  F6  1  0.69188937  0.69188937  0.34686618  1
  F  F7  1  0.69188937  0.69188937  0.65313382  1
  F  F8  1  0.71706867  0.71706867  0.00000000  1
  F  F9  1  0.78293133  0.21706867  0.50000000  1
  F  F10  1  0.80811063  0.19188937  0.15313382  1
  F  F11  1  0.80811063  0.19188937  0.84686618  1
loop_
_geom_bond_atom_site_label_1
_geom_bond_atom_site_label_2
_geom_bond_distance
_geom_bond_site_symmetry_2
F0 Mn0 1.814426 1_565
F0 Li2 1.978508 1_555
F0 Li0 2.023324 1_565
F1 Mn0 1.814426 1_566
F1 Li3 1.978508 1_555
F1 Li1 2.023324 1_565
F2 Mn1 1.815316 1_555
F2 Li1 1.984222 1_565
F2 Li0 1.984222 1_565
F3 Mn0 1.815315 1_555
F3 Li2 1.984222 1_555
F3 Li3 1.984222 1_554
F4 Mn1 1.814425 1_555
F4 Li0 1.978507 1_555
F4 Li2 2.023323 1_555
F5 Mn1 1.814425 1_555
F5 Li1 1.978507 1_555
F5 Li3 2.023323 1_555
F6 Mn1 1.814425 1_555
F6 Li0 1.978507 1_665
F6 Li2 2.023323 1_555
F7 Mn1 1.814425 1_555
F7 Li1 1.978507 1_665
F7 Li3 2.023323 1_555
F8 Mn0 1.815315 1_665
F8 Li2 1.984222 1_555
F8 Li3 1.984222 1_554
F9 Mn1 1.815316 1_555
F9 Li0 1.984222 1_655
F9 Li1 1.984222 1_655
F10 Mn0 1.814426 1_655
F10 Li2 1.978508 1_555
F10 Li0 2.023324 1_655
F11 Mn0 1.814426 1_656
F11 Li3 1.978508 1_555
F11 Li1 2.023324 1_655
