# generated using pymatgen
data_LiMn3(PO4)3
_symmetry_space_group_name_H-M   'P 1'
_cell_length_a   8.65448834
_cell_length_b   8.65448834
_cell_length_c   6.72827344
_cell_angle_alpha   70.90150787
_cell_angle_beta   70.90150787
_cell_angle_gamma   89.25337459
_symmetry_Int_Tables_number   1
_chemical_formula_structural   LiMn3(PO4)3
_chemical_formula_sum   'Li2 Mn6 P6 O24'
_cell_volume   447.49680125
_cell_formula_units_Z   2
loop_
 _symmetry_equiv_pos_site_id
 _symmetry_equiv_pos_as_xyz
  1  'x, y, z'
loop_
 _atom_site_type_symbol
 _atom_site_label
 _atom_site_symmetry_multiplicity
 _atom_site_fract_x
 _atom_site_fract_y
 _atom_site_fract_z
 _atom_site_occupancy
  Li  Li0  1  0.50000000  0.50000000  0.50000000  1
  Li  Li1  1  0.50000000  0.50000000  0.00000000  1
  Mn  Mn0  1  0.38512700  0.06724400  0.35220500  1
  Mn  Mn1  1  0.74090500  0.25909500  0.75000000  1
  Mn  Mn2  1  0.06724400  0.38512700  0.85220500  1
  Mn  Mn3  1  0.93275600  0.61487300  0.14779500  1
  Mn  Mn4  1  0.25909500  0.74090500  0.25000000  1
  Mn  Mn5  1  0.61487300  0.93275600  0.64779500  1
  P  P0  1  0.13455400  0.35069300  0.36705800  1
  P  P1  1  0.28755700  0.71244300  0.75000000  1
  P  P2  1  0.35069300  0.13455400  0.86705800  1
  P  P3  1  0.64930700  0.86544600  0.13294200  1
  P  P4  1  0.71244300  0.28755700  0.25000000  1
  P  P5  1  0.86544600  0.64930700  0.63294200  1
  O  O0  1  0.19220100  0.18143600  0.36995300  1
  O  O1  1  0.16599400  0.73391100  0.96466100  1
  O  O2  1  0.04446700  0.40960700  0.18802100  1
  O  O3  1  0.46346400  0.72651000  0.76469800  1
  O  O4  1  0.72069700  0.52068000  0.69647100  1
  O  O5  1  0.00271500  0.33067300  0.59718100  1
  O  O6  1  0.66932700  0.99728500  0.90281900  1
  O  O7  1  0.47932000  0.27930300  0.80352900  1
  O  O8  1  0.27349000  0.53653600  0.73530200  1
  O  O9  1  0.59039300  0.95553300  0.31197900  1
  O  O10  1  0.26608900  0.83400600  0.53533900  1
  O  O11  1  0.18143600  0.19220100  0.86995300  1
  O  O12  1  0.81856400  0.80779900  0.13004700  1
  O  O13  1  0.73391100  0.16599400  0.46466100  1
  O  O14  1  0.40960700  0.04446700  0.68802100  1
  O  O15  1  0.72651000  0.46346400  0.26469800  1
  O  O16  1  0.52068000  0.72069700  0.19647100  1
  O  O17  1  0.33067300  0.00271500  0.09718100  1
  O  O18  1  0.99728500  0.66932700  0.40281900  1
  O  O19  1  0.27930300  0.47932000  0.30352900  1
  O  O20  1  0.53653600  0.27349000  0.23530200  1
  O  O21  1  0.95553300  0.59039300  0.81197900  1
  O  O22  1  0.83400600  0.26608900  0.03533900  1
  O  O23  1  0.80779900  0.81856400  0.63004700  1
loop_
_geom_bond_atom_site_label_1
_geom_bond_atom_site_label_2
_geom_bond_distance
_geom_bond_site_symmetry_2
Li0 O8 2.174818 1_555
Li0 O15 2.174818 1_555
Li0 O16 2.251236 1_555
Li0 O7 2.251236 1_555
Li1 O20 2.174818 1_555
Li1 O3 2.174818 1_554
Li1 O4 2.251236 1_554
Li1 O19 2.251236 1_555
Mn0 O0 1.918987 1_555
Mn0 O9 1.993903 1_545
Mn0 O20 1.997386 1_555
Mn0 O10 2.061572 1_545
Mn0 O17 2.154364 1_555
Mn0 O14 2.282458 1_555
Mn1 O6 2.161057 1_545
Mn1 O5 2.161057 1_655
Mn1 O7 2.186965 1_555
Mn1 O4 2.186965 1_555
Mn1 O13 2.329859 1_555
Mn1 O22 2.329859 1_556
Mn2 O11 1.918987 1_555
Mn2 O21 1.993903 1_455
Mn2 O8 1.997386 1_555
Mn2 O22 2.061572 1_456
Mn2 O5 2.154364 1_555
Mn2 O2 2.282458 1_556
Mn3 O12 1.918987 1_555
Mn3 O2 1.993903 1_655
Mn3 O15 1.997386 1_555
Mn3 O1 2.061572 1_654
Mn3 O18 2.154364 1_555
Mn3 O21 2.282458 1_554
Mn4 O18 2.161057 1_455
Mn4 O17 2.161057 1_565
Mn4 O19 2.186965 1_555
Mn4 O16 2.186965 1_555
Mn4 O1 2.329859 1_554
Mn4 O10 2.329859 1_555
Mn5 O23 1.918987 1_555
Mn5 O14 1.993903 1_565
Mn5 O3 1.997386 1_555
Mn5 O13 2.061572 1_565
Mn5 O6 2.154364 1_555
Mn5 O9 2.282458 1_555
O0 P0 1.537421 1_555
O1 P1 1.550331 1_555
O2 P0 1.587837 1_555
O3 P1 1.566360 1_555
O4 P5 1.538121 1_555
O5 P0 1.550084 1_555
O6 P3 1.550084 1_556
O7 P2 1.538121 1_555
O8 P1 1.566360 1_555
O9 P3 1.587837 1_555
O10 P1 1.550331 1_555
O11 P2 1.537421 1_555
O12 P3 1.537421 1_555
O13 P4 1.550331 1_555
O14 P2 1.587837 1_555
O15 P4 1.566360 1_555
O16 P3 1.538121 1_555
O17 P2 1.550084 1_554
O18 P5 1.550084 1_555
O19 P0 1.538121 1_555
O20 P4 1.566360 1_555
O21 P5 1.587837 1_555
O22 P4 1.550331 1_555
O23 P5 1.537421 1_555
