# generated using pymatgen
data_Li2Ti3Sn(PO4)6
_symmetry_space_group_name_H-M   'P 1'
_cell_length_a   8.68457622
_cell_length_b   8.68457622
_cell_length_c   8.68457594
_cell_angle_alpha   59.79163320
_cell_angle_beta   59.79163320
_cell_angle_gamma   59.79163222
_symmetry_Int_Tables_number   1
_chemical_formula_structural   Li2Ti3Sn(PO4)6
_chemical_formula_sum   'Li2 Ti3 Sn1 P6 O24'
_cell_volume   460.96891373
_cell_formula_units_Z   1
loop_
 _symmetry_equiv_pos_site_id
 _symmetry_equiv_pos_as_xyz
  1  'x, y, z'
loop_
 _atom_site_type_symbol
 _atom_site_label
 _atom_site_symmetry_multiplicity
 _atom_site_fract_x
 _atom_site_fract_y
 _atom_site_fract_z
 _atom_site_occupancy
  Li  Li0  1  0.00248300  0.00248300  0.00248300  1
  Li  Li1  1  0.50003800  0.50003800  0.50003800  1
  Ti  Ti0  1  0.14180000  0.14180000  0.14180000  1
  Ti  Ti1  1  0.35758700  0.35758700  0.35758700  1
  Ti  Ti2  1  0.64213000  0.64213000  0.64213000  1
  Sn  Sn0  1  0.85796200  0.85796200  0.85796200  1
  P  P0  1  0.74930500  0.04255300  0.45504200  1
  P  P1  1  0.04255300  0.45504200  0.74930500  1
  P  P2  1  0.45504200  0.74930500  0.04255300  1
  P  P3  1  0.53814700  0.25298100  0.95971900  1
  P  P4  1  0.95971900  0.53814700  0.25298100  1
  P  P5  1  0.25298100  0.95971900  0.53814700  1
  O  O0  1  0.30746200  0.12342500  0.49590800  1
  O  O1  1  0.49590800  0.30746200  0.12342500  1
  O  O2  1  0.91637800  0.05906800  0.26592500  1
  O  O3  1  0.12342500  0.49590800  0.30746200  1
  O  O4  1  0.80036100  0.01524300  0.61427000  1
  O  O5  1  0.58273200  0.23093900  0.43483500  1
  O  O6  1  0.05906800  0.26592500  0.91637800  1
  O  O7  1  0.23093900  0.43483500  0.58273200  1
  O  O8  1  0.37521700  0.19621600  0.00031900  1
  O  O9  1  0.43483500  0.58273200  0.23093900  1
  O  O10  1  0.73019000  0.08832700  0.94633300  1
  O  O11  1  0.00031900  0.37521700  0.19621600  1
  O  O12  1  0.01524300  0.61427000  0.80036100  1
  O  O13  1  0.26592500  0.91637800  0.05906800  1
  O  O14  1  0.55599700  0.41852900  0.76999100  1
  O  O15  1  0.61427000  0.80036100  0.01524300  1
  O  O16  1  0.76999100  0.55599700  0.41852900  1
  O  O17  1  0.94633300  0.73019000  0.08832700  1
  O  O18  1  0.41852900  0.76999100  0.55599700  1
  O  O19  1  0.19621600  0.00031900  0.37521700  1
  O  O20  1  0.87422500  0.50069500  0.69766100  1
  O  O21  1  0.08832700  0.94633300  0.73019000  1
  O  O22  1  0.50069500  0.69766100  0.87422500  1
  O  O23  1  0.69766100  0.87422500  0.50069500  1
loop_
_geom_bond_atom_site_label_1
_geom_bond_atom_site_label_2
_geom_bond_distance
_geom_bond_site_symmetry_2
Li0 O2 2.252789 1_455
Li0 O13 2.252789 1_545
Li0 O6 2.252789 1_554
Li0 O21 2.325111 1_544
Li0 O10 2.325111 1_454
Li0 O17 2.325111 1_445
Li1 O14 2.316018 1_555
Li1 O18 2.316018 1_555
Li1 O16 2.316019 1_555
Li1 O9 2.351929 1_555
Li1 O5 2.351929 1_555
Li1 O7 2.351929 1_555
O0 P5 1.535303 1_545
O0 Ti1 1.916873 1_555
O1 P3 1.535303 1_554
O1 Ti1 1.916873 1_555
O2 P0 1.548435 1_555
O2 Ti0 2.005805 1_655
O3 P4 1.535303 1_455
O3 Ti1 1.916873 1_555
O4 P0 1.531734 1_555
O4 Sn0 2.015876 1_545
O5 P0 1.544369 1_555
O5 Ti1 1.973907 1_555
O6 P1 1.548435 1_555
O6 Ti0 2.005805 1_556
O7 P1 1.544369 1_555
O7 Ti1 1.973907 1_555
O8 P3 1.547415 1_554
O8 Ti0 1.927582 1_555
O9 P2 1.544369 1_555
O9 Ti1 1.973908 1_555
O10 P3 1.553109 1_555
O10 Sn0 2.068079 1_545
O11 P4 1.547415 1_455
O11 Ti0 1.927582 1_555
O12 P1 1.531734 1_555
O12 Sn0 2.015876 1_455
O13 P2 1.548435 1_555
O13 Ti0 2.005805 1_565
O14 P3 1.545767 1_555
O14 Ti2 2.004863 1_555
O15 P2 1.531734 1_555
O15 Sn0 2.015876 1_554
O16 P4 1.545767 1_555
O16 Ti2 2.004863 1_555
O17 P4 1.553109 1_555
O17 Sn0 2.068079 1_554
O18 P5 1.545767 1_555
O18 Ti2 2.004863 1_555
O19 P5 1.547415 1_545
O19 Ti0 1.927582 1_555
O20 P1 1.546924 1_655
O20 Ti2 1.922194 1_555
O21 P5 1.553109 1_555
O21 Sn0 2.068079 1_455
O22 P2 1.546924 1_556
O22 Ti2 1.922194 1_555
O23 P0 1.546925 1_565
O23 Ti2 1.922194 1_555
