# generated using pymatgen
data_V6O7F5
_symmetry_space_group_name_H-M   'P 1'
_cell_length_a   5.61223700
_cell_length_b   5.61919234
_cell_length_c   7.36335495
_cell_angle_alpha   72.36632581
_cell_angle_beta   72.78913633
_cell_angle_gamma   71.72972467
_symmetry_Int_Tables_number   1
_chemical_formula_structural   V6O7F5
_chemical_formula_sum   'V6 O7 F5'
_cell_volume   204.90056391
_cell_formula_units_Z   1
loop_
 _symmetry_equiv_pos_site_id
 _symmetry_equiv_pos_as_xyz
  1  'x, y, z'
loop_
 _atom_site_type_symbol
 _atom_site_label
 _atom_site_symmetry_multiplicity
 _atom_site_fract_x
 _atom_site_fract_y
 _atom_site_fract_z
 _atom_site_occupancy
  V  V0  1  0.67385200  0.70672600  0.84482000  1
  V  V1  1  0.32339600  0.34575000  0.66918300  1
  V  V2  1  0.66893300  0.62744700  0.32501900  1
  V  V3  1  0.31897900  0.34444900  0.16290500  1
  V  V4  1  0.98130700  0.99988900  0.50310300  1
  V  V5  1  0.02979300  0.98856600  0.99840400  1
  O  O0  1  0.01872800  0.65164100  0.66840800  1
  O  O1  1  0.23176200  0.23261300  0.96229200  1
  O  O2  1  0.77586800  0.77225700  0.03074600  1
  O  O3  1  0.43112700  0.42509700  0.37105200  1
  O  O4  1  0.31975700  0.69806100  0.98952500  1
  O  O5  1  0.62366900  0.03171800  0.67551300  1
  O  O6  1  0.97059200  0.34989700  0.33612300  1
  F  F0  1  0.36722400  0.95612700  0.33557600  1
  F  F1  1  0.57215700  0.56993000  0.63408900  1
  F  F2  1  0.89225800  0.89030000  0.30090200  1
  F  F3  1  0.09442700  0.10414200  0.69853300  1
  F  F4  1  0.70616800  0.30538900  0.99380500  1
loop_
_geom_bond_atom_site_label_1
_geom_bond_atom_site_label_2
_geom_bond_distance
_geom_bond_site_symmetry_2
O0 V4 1.950776 1_455
O0 V0 1.977254 1_455
O0 V1 2.008788 1_555
O1 V5 1.952293 1_545
O1 V3 1.999942 1_556
O1 V1 2.010873 1_555
O2 V0 1.799758 1_554
O2 V2 2.045942 1_555
O2 V5 2.067569 1_654
O3 V2 1.907683 1_555
O3 V3 2.030043 1_555
O3 V1 2.043041 1_555
O4 V5 1.911375 1_555
O4 V0 1.965473 1_555
O4 V3 2.010804 1_556
O5 V0 1.863985 1_545
O5 V4 2.019127 1_545
O5 V1 2.021892 1_555
O6 V2 1.911644 1_555
O6 V4 1.971809 1_545
O6 V3 1.990228 1_655
F0 V2 2.081477 1_555
F0 V4 2.131164 1_455
F0 V3 2.145612 1_565
F1 V1 2.072376 1_555
F1 V2 2.124063 1_555
F1 V0 2.201396 1_555
F2 V4 2.008610 1_555
F2 V5 2.089653 1_654
F2 V2 2.157340 1_555
F3 V4 2.025232 1_445
F3 V5 2.057617 1_545
F3 V1 2.071945 1_555
F4 V5 2.107574 1_645
F4 V3 2.141456 1_556
F4 V0 2.164402 1_555
