# generated using pymatgen
data_Li10Cr2Fe3Co3O16
_symmetry_space_group_name_H-M   'P 1'
_cell_length_a   5.96222388
_cell_length_b   5.96222388
_cell_length_c   9.83417506
_cell_angle_alpha   89.84653147
_cell_angle_beta   89.84653147
_cell_angle_gamma   60.05153994
_symmetry_Int_Tables_number   1
_chemical_formula_structural   Li10Cr2Fe3Co3O16
_chemical_formula_sum   'Li10 Cr2 Fe3 Co3 O16'
_cell_volume   302.90634041
_cell_formula_units_Z   1
loop_
 _symmetry_equiv_pos_site_id
 _symmetry_equiv_pos_as_xyz
  1  'x, y, z'
loop_
 _atom_site_type_symbol
 _atom_site_label
 _atom_site_symmetry_multiplicity
 _atom_site_fract_x
 _atom_site_fract_y
 _atom_site_fract_z
 _atom_site_occupancy
  Li  Li0  1  0.38228600  0.79780100  0.04906600  1
  Li  Li1  1  0.79780100  0.38228600  0.04906600  1
  Li  Li2  1  0.65473500  0.65473500  0.26802300  1
  Li  Li3  1  0.99225000  0.99225000  0.97506300  1
  Li  Li4  1  0.98828200  0.98828200  0.47993000  1
  Li  Li5  1  0.79886000  0.79886000  0.04993000  1
  Li  Li6  1  0.18282300  0.18282300  0.55205000  1
  Li  Li7  1  0.59354100  0.19148800  0.54695100  1
  Li  Li8  1  0.19148800  0.59354100  0.54695100  1
  Li  Li9  1  0.32101700  0.32101700  0.76823200  1
  Cr  Cr0  1  0.32169000  0.32169000  0.02193100  1
  Cr  Cr1  1  0.65361800  0.65361800  0.52523500  1
  Fe  Fe0  1  0.82237500  0.82237500  0.77786800  1
  Fe  Fe1  1  0.15721200  0.64954600  0.27984200  1
  Fe  Fe2  1  0.64954600  0.15721200  0.27984200  1
  Co  Co0  1  0.33253500  0.81514100  0.78171000  1
  Co  Co1  1  0.15626600  0.15626600  0.28116100  1
  Co  Co2  1  0.81514100  0.33253500  0.78171000  1
  O  O0  1  0.32093400  0.81219100  0.40625100  1
  O  O1  1  0.50069500  0.50069500  0.65362400  1
  O  O2  1  0.66004100  0.66004100  0.89791100  1
  O  O3  1  0.50910400  0.96603800  0.65280000  1
  O  O4  1  0.99146000  0.99146000  0.67176300  1
  O  O5  1  0.98347500  0.98347500  0.16819600  1
  O  O6  1  0.81219100  0.32093400  0.40625100  1
  O  O7  1  0.96603800  0.50910400  0.65280000  1
  O  O8  1  0.15946600  0.15946600  0.90519600  1
  O  O9  1  0.82148000  0.82148000  0.39900800  1
  O  O10  1  0.01221400  0.48339300  0.15348300  1
  O  O11  1  0.48339300  0.01221400  0.15348300  1
  O  O12  1  0.32526500  0.32526500  0.39821100  1
  O  O13  1  0.15217900  0.65530400  0.90279400  1
  O  O14  1  0.47871800  0.47871800  0.15487600  1
  O  O15  1  0.65530400  0.15217900  0.90279400  1
loop_
_geom_bond_atom_site_label_1
_geom_bond_atom_site_label_2
_geom_bond_distance
_geom_bond_site_symmetry_2
Li0 O11 1.957514 1_565
Li0 O14 1.983207 1_555
Li0 O2 2.064461 1_554
Li0 O8 2.355834 1_564
Li0 O5 2.369768 1_455
Li0 O13 2.419536 1_554
Li1 O10 1.957514 1_655
Li1 O14 1.983207 1_555
Li1 O2 2.064461 1_554
Li1 O8 2.355834 1_654
Li1 O5 2.369768 1_545
Li1 O15 2.419536 1_554
Li2 O14 2.133768 1_555
Li2 O9 2.153273 1_555
Li2 O11 2.162056 1_565
Li2 O10 2.162056 1_655
Li2 O0 2.194753 1_555
Li2 O6 2.194753 1_555
Li3 O8 1.856098 1_665
Li3 O15 1.881915 1_565
Li3 O13 1.881915 1_655
Li3 O5 1.901183 1_556
Li4 O6 1.865010 1_565
Li4 O0 1.865010 1_655
Li4 O4 1.886906 1_555
Li4 O9 1.899314 1_555
Li5 O10 1.949546 1_655
Li5 O11 1.949546 1_565
Li5 O2 2.074192 1_554
Li5 O5 2.235897 1_555
Li5 O13 2.335377 1_654
Li5 O15 2.335377 1_564
Li6 O3 1.982340 1_545
Li6 O7 1.982340 1_455
Li6 O12 2.106585 1_555
Li6 O4 2.296706 1_445
Li6 O0 2.410580 1_545
Li6 O6 2.410580 1_455
Li7 O1 1.947805 1_555
Li7 O3 1.951710 1_545
Li7 O12 2.016612 1_555
Li7 O6 2.280099 1_555
Li7 O4 2.395888 1_545
Li7 O9 2.417352 1_545
Li8 O1 1.947805 1_555
Li8 O7 1.951710 1_455
Li8 O12 2.016612 1_555
Li8 O0 2.280099 1_555
Li8 O4 2.395888 1_455
Li8 O9 2.417352 1_455
Li9 O8 2.140596 1_555
Li9 O7 2.159152 1_455
Li9 O3 2.159152 1_545
Li9 O1 2.167602 1_555
Li9 O13 2.177310 1_555
Li9 O15 2.177310 1_555
Cr0 O8 2.033432 1_554
Cr0 O10 2.055612 1_555
Cr0 O11 2.055612 1_555
Cr0 O15 2.082610 1_554
Cr0 O13 2.082610 1_554
Cr0 O14 2.085826 1_555
Cr1 O1 2.018528 1_555
Cr1 O7 2.046984 1_555
Cr1 O3 2.046984 1_555
Cr1 O6 2.081236 1_555
Cr1 O0 2.081236 1_555
Cr1 O9 2.128623 1_555
Fe0 O4 2.030980 1_555
Fe0 O3 2.035774 1_555
Fe0 O7 2.035774 1_555
Fe0 O2 2.047013 1_555
Fe0 O13 2.102111 1_655
Fe0 O15 2.102111 1_565
Fe1 O10 2.034780 1_555
Fe1 O12 2.038902 1_555
Fe1 O5 2.043931 1_455
Fe1 O14 2.065642 1_555
Fe1 O9 2.091921 1_455
Fe1 O0 2.096826 1_555
Fe2 O11 2.034780 1_555
Fe2 O12 2.038902 1_555
Fe2 O5 2.043931 1_545
Fe2 O14 2.065642 1_555
Fe2 O9 2.091921 1_545
Fe2 O6 2.096826 1_555
Co0 O2 2.043844 1_555
Co0 O1 2.058120 1_555
Co0 O4 2.069016 1_455
Co0 O3 2.111213 1_555
Co0 O13 2.119585 1_555
Co0 O8 2.155372 1_565
Co1 O12 2.093248 1_555
Co1 O5 2.104471 1_445
Co1 O11 2.106754 1_555
Co1 O10 2.106754 1_555
Co1 O0 2.160474 1_545
Co1 O6 2.160474 1_455
Co2 O2 2.043844 1_555
Co2 O1 2.058120 1_555
Co2 O4 2.069016 1_545
Co2 O7 2.111213 1_555
Co2 O15 2.119585 1_555
Co2 O8 2.155372 1_655
