# generated using pymatgen
data_Li3Fe8(BO3)8
_symmetry_space_group_name_H-M   'P 1'
_cell_length_a   5.26550900
_cell_length_b   9.16345830
_cell_length_c   11.35404443
_cell_angle_alpha   113.11466550
_cell_angle_beta   103.02385955
_cell_angle_gamma   90.24135251
_symmetry_Int_Tables_number   1
_chemical_formula_structural   Li3Fe8(BO3)8
_chemical_formula_sum   'Li3 Fe8 B8 O24'
_cell_volume   488.26212576
_cell_formula_units_Z   1
loop_
 _symmetry_equiv_pos_site_id
 _symmetry_equiv_pos_as_xyz
  1  'x, y, z'
loop_
 _atom_site_type_symbol
 _atom_site_label
 _atom_site_symmetry_multiplicity
 _atom_site_fract_x
 _atom_site_fract_y
 _atom_site_fract_z
 _atom_site_occupancy
  Li  Li0  1  0.82254100  0.49320300  0.34293600  1
  Li  Li1  1  0.32333100  0.98919700  0.33430300  1
  Li  Li2  1  0.60336800  0.24496100  0.83431000  1
  Fe  Fe0  1  0.64753300  0.64681100  0.62380600  1
  Fe  Fe1  1  0.38737600  0.06774200  0.11582300  1
  Fe  Fe2  1  0.83654400  0.84604500  0.37667800  1
  Fe  Fe3  1  0.10910900  0.44098400  0.87005700  1
  Fe  Fe4  1  0.89638000  0.56958100  0.12461300  1
  Fe  Fe5  1  0.13395600  0.14638900  0.61695200  1
  Fe  Fe6  1  0.33638000  0.34560200  0.37373800  1
  Fe  Fe7  1  0.62419600  0.93123700  0.87049200  1
  B  B0  1  0.64485500  0.31972300  0.62743800  1
  B  B1  1  0.38840700  0.39807400  0.12387800  1
  B  B2  1  0.84265100  0.18347600  0.37014100  1
  B  B3  1  0.10772400  0.11421400  0.87419700  1
  B  B4  1  0.15009500  0.81070800  0.62181500  1
  B  B5  1  0.89058000  0.89968800  0.12603100  1
  B  B6  1  0.34748000  0.68240200  0.37194300  1
  B  B7  1  0.60549200  0.59744800  0.86886200  1
  O  O0  1  0.15370600  0.93489500  0.14658500  1
  O  O1  1  0.30229500  0.28872600  0.16554800  1
  O  O2  1  0.20547600  0.47752000  0.06649000  1
  O  O3  1  0.46181200  0.81523900  0.37125900  1
  O  O4  1  0.49480800  0.57828100  0.41549000  1
  O  O5  1  0.57031400  0.14530800  0.32693600  1
  O  O6  1  0.91963400  0.32784900  0.67084500  1
  O  O7  1  0.65037500  0.43308000  0.14210500  1
  O  O8  1  0.80659000  0.78304200  0.16356900  1
  O  O9  1  0.04169800  0.92827300  0.58082900  1
  O  O10  1  0.99030400  0.68946000  0.61464400  1
  O  O11  1  0.70969600  0.98141700  0.07522300  1
  O  O12  1  0.27923400  0.02651600  0.92405200  1
  O  O13  1  0.96039100  0.31290800  0.36751200  1
  O  O14  1  0.99687100  0.08180800  0.41873200  1
  O  O15  1  0.22551400  0.21930500  0.82922600  1
  O  O16  1  0.34825000  0.58947300  0.87047900  1
  O  O17  1  0.07157000  0.64455200  0.32456300  1
  O  O18  1  0.42094200  0.81858700  0.66266500  1
  O  O19  1  0.53540100  0.42234000  0.57496600  1
  O  O20  1  0.49525700  0.20905600  0.64322300  1
  O  O21  1  0.76750100  0.49663200  0.91644700  1
  O  O22  1  0.71553200  0.69314000  0.82241100  1
  O  O23  1  0.84873100  0.10710800  0.86639900  1
loop_
_geom_bond_atom_site_label_1
_geom_bond_atom_site_label_2
_geom_bond_distance
_geom_bond_site_symmetry_2
Li0 O13 1.901318 1_555
Li0 O17 2.005365 1_655
Li0 O7 2.098241 1_555
Li0 O4 2.100524 1_555
Li1 O3 1.909404 1_555
Li1 O5 1.967728 1_565
Li1 O0 1.973220 1_555
Li1 O14 2.170315 1_465
Li2 O23 1.886943 1_555
Li2 O15 1.987644 1_555
Li2 O20 2.005196 1_555
Li2 O21 2.205994 1_555
Fe0 O10 1.879279 1_555
Fe0 O18 1.950301 1_555
Fe0 O19 1.957988 1_555
Fe0 O22 2.067972 1_555
Fe0 O4 2.146542 1_555
Fe1 O0 1.905956 1_545
Fe1 O11 1.948404 1_545
Fe1 O1 1.960612 1_555
Fe1 O12 2.000368 1_554
Fe1 O5 2.189639 1_555
Fe2 O3 1.975795 1_555
Fe2 O9 2.144949 1_655
Fe2 O14 2.145006 1_565
Fe2 O17 2.186825 1_655
Fe2 O8 2.223358 1_555
Fe3 O16 1.847908 1_555
Fe3 O21 1.999196 1_455
Fe3 O15 2.028828 1_555
Fe3 O2 2.060599 1_556
Fe3 O6 2.078286 1_455
Fe4 O7 1.891892 1_555
Fe4 O8 1.915208 1_555
Fe4 O2 1.963323 1_655
Fe4 O17 2.074396 1_655
Fe4 O21 2.127536 1_554
Fe5 O20 1.907494 1_555
Fe5 O9 1.912430 1_545
Fe5 O6 1.985210 1_455
Fe5 O14 2.038363 1_455
Fe5 O15 2.167250 1_555
Fe6 O13 1.982310 1_455
Fe6 O19 2.113288 1_555
Fe6 O4 2.116566 1_555
Fe6 O5 2.171776 1_555
Fe6 O1 2.175342 1_555
Fe7 O23 2.016109 1_565
Fe7 O22 2.116965 1_555
Fe7 O11 2.122475 1_556
Fe7 O12 2.127381 1_565
Fe7 O18 2.172335 1_555
B0 O19 1.364175 1_555
B0 O20 1.371346 1_555
B0 O6 1.410924 1_555
B1 O7 1.365263 1_555
B1 O1 1.377872 1_555
B1 O2 1.406349 1_555
B2 O13 1.349773 1_555
B2 O5 1.401184 1_555
B2 O14 1.428193 1_555
B3 O23 1.346159 1_455
B3 O12 1.383710 1_555
B3 O15 1.447938 1_555
B4 O10 1.356174 1_455
B4 O18 1.388863 1_555
B4 O9 1.407833 1_555
B5 O0 1.367305 1_655
B5 O11 1.377824 1_555
B5 O8 1.399429 1_555
B6 O3 1.359238 1_555
B6 O4 1.400119 1_555
B6 O17 1.420333 1_555
B7 O16 1.360810 1_555
B7 O22 1.370889 1_555
B7 O21 1.436614 1_555
