# generated using pymatgen
data_Li7W5O16
_symmetry_space_group_name_H-M   'P 1'
_cell_length_a   5.98497178
_cell_length_b   5.98497178
_cell_length_c   9.91817932
_cell_angle_alpha   89.67593238
_cell_angle_beta   89.67593238
_cell_angle_gamma   58.45766577
_symmetry_Int_Tables_number   1
_chemical_formula_structural   Li7W5O16
_chemical_formula_sum   'Li7 W5 O16'
_cell_volume   302.77222456
_cell_formula_units_Z   1
loop_
 _symmetry_equiv_pos_site_id
 _symmetry_equiv_pos_as_xyz
  1  'x, y, z'
loop_
 _atom_site_type_symbol
 _atom_site_label
 _atom_site_symmetry_multiplicity
 _atom_site_fract_x
 _atom_site_fract_y
 _atom_site_fract_z
 _atom_site_occupancy
  Li  Li0  1  0.33932400  0.82736000  0.21062500  1
  Li  Li1  1  0.67580400  0.67580400  0.90864700  1
  Li  Li2  1  0.00300600  0.00300600  0.98996200  1
  Li  Li3  1  0.01038200  0.01038200  0.48380200  1
  Li  Li4  1  0.82736000  0.33932400  0.21062500  1
  Li  Li5  1  0.16198900  0.16198900  0.71735500  1
  Li  Li6  1  0.33317300  0.33317300  0.39780000  1
  W  W0  1  0.65432300  0.65432300  0.47563900  1
  W  W1  1  0.82455500  0.82455500  0.22681900  1
  W  W2  1  0.33085200  0.33085200  0.99970400  1
  W  W3  1  0.19064200  0.63439000  0.71083500  1
  W  W4  1  0.63439000  0.19064200  0.71083500  1
  O  O0  1  0.35309200  0.79049800  0.59918200  1
  O  O1  1  0.52095700  0.52095700  0.36220900  1
  O  O2  1  0.68636500  0.68636500  0.11035200  1
  O  O3  1  0.99111500  0.99111500  0.29493500  1
  O  O4  1  0.99438200  0.99438200  0.80186600  1
  O  O5  1  0.79049800  0.35309200  0.59918200  1
  O  O6  1  0.52417000  0.97424500  0.35218000  1
  O  O7  1  0.97424500  0.52417000  0.35218000  1
  O  O8  1  0.17295800  0.17295800  0.07142600  1
  O  O9  1  0.83032800  0.83032800  0.59737400  1
  O  O10  1  0.05573700  0.49727100  0.84506500  1
  O  O11  1  0.49727100  0.05573700  0.84506500  1
  O  O12  1  0.32180600  0.32180600  0.59097200  1
  O  O13  1  0.16109200  0.65059500  0.09262300  1
  O  O14  1  0.48953200  0.48953200  0.85797000  1
  O  O15  1  0.65059500  0.16109200  0.09262300  1
loop_
_geom_bond_atom_site_label_1
_geom_bond_atom_site_label_2
_geom_bond_distance
_geom_bond_site_symmetry_2
Li0 O3 1.963544 1_455
Li0 O2 2.041463 1_555
Li0 O1 2.169452 1_555
Li0 O13 2.199022 1_555
Li0 O8 2.237010 1_565
Li0 O6 2.239846 1_555
Li1 O2 2.004300 1_556
Li1 O14 2.012797 1_555
Li1 O10 2.039436 1_655
Li1 O11 2.039436 1_565
Li2 O4 1.868327 1_445
Li2 O8 1.955276 1_556
Li2 O15 2.068636 1_456
Li2 O13 2.068636 1_546
Li3 O3 1.885294 1_445
Li3 O0 2.105674 1_545
Li3 O5 2.105674 1_455
Li3 O9 2.186064 1_445
Li4 O3 1.963544 1_545
Li4 O2 2.041463 1_555
Li4 O1 2.169452 1_555
Li4 O15 2.199022 1_555
Li4 O8 2.237010 1_655
Li4 O7 2.239846 1_555
Li5 O4 1.936198 1_445
Li5 O12 2.081131 1_555
Li5 O11 2.172557 1_555
Li5 O10 2.172557 1_555
Li5 O5 2.231356 1_455
Li5 O0 2.231356 1_545
Li6 O7 1.887336 1_455
Li6 O6 1.887336 1_545
Li6 O12 1.918822 1_555
Li6 O1 1.990827 1_555
O0 W0 1.965947 1_555
O0 W3 1.992749 1_555
O1 W0 1.796325 1_555
O2 W1 1.854645 1_555
O3 W1 1.870506 1_555
O4 W3 2.049175 1_655
O4 W4 2.049175 1_565
O5 W0 1.965947 1_555
O5 W4 1.992749 1_555
O6 W1 1.970482 1_555
O6 W0 2.048439 1_555
O7 W1 1.970482 1_555
O7 W0 2.048439 1_555
O8 W2 1.791967 1_554
O9 W4 2.158378 1_565
O9 W3 2.158378 1_655
O9 W0 2.206071 1_555
O10 W3 1.940749 1_555
O10 W2 2.085898 1_555
O11 W4 1.940749 1_555
O11 W2 2.085898 1_555
O12 W4 2.001880 1_555
O12 W3 2.001880 1_555
O13 W2 1.875846 1_554
O13 W1 2.168792 1_455
O14 W3 2.115137 1_555
O14 W4 2.115137 1_555
O14 W2 2.166424 1_555
O15 W2 1.875846 1_554
O15 W1 2.168792 1_545
