# generated using pymatgen
data_Li3Mn4(BO3)4
_symmetry_space_group_name_H-M   'P 1'
_cell_length_a   5.28159100
_cell_length_b   9.12437617
_cell_length_c   10.37391868
_cell_angle_alpha   88.58431014
_cell_angle_beta   88.41374011
_cell_angle_gamma   89.61390073
_symmetry_Int_Tables_number   1
_chemical_formula_structural   Li3Mn4(BO3)4
_chemical_formula_sum   'Li6 Mn8 B8 O24'
_cell_volume   499.57853637
_cell_formula_units_Z   2
loop_
 _symmetry_equiv_pos_site_id
 _symmetry_equiv_pos_as_xyz
  1  'x, y, z'
loop_
 _atom_site_type_symbol
 _atom_site_label
 _atom_site_symmetry_multiplicity
 _atom_site_fract_x
 _atom_site_fract_y
 _atom_site_fract_z
 _atom_site_occupancy
  Li  Li0  1  0.05131600  0.08539600  0.32767000  1
  Li  Li1  1  0.10354500  0.06985500  0.83885700  1
  Li  Li2  1  0.41841700  0.42228900  0.60312100  1
  Li  Li3  1  0.56125300  0.58679300  0.34292600  1
  Li  Li4  1  0.59650600  0.57676600  0.82972100  1
  Li  Li5  1  0.91857500  0.91335200  0.09866700  1
  Mn  Mn0  1  0.05948200  0.74983100  0.37438700  1
  Mn  Mn1  1  0.07440500  0.40268700  0.86702500  1
  Mn  Mn2  1  0.41525900  0.09939100  0.11408700  1
  Mn  Mn3  1  0.40579600  0.77230100  0.61983800  1
  Mn  Mn4  1  0.57198000  0.25412700  0.36716100  1
  Mn  Mn5  1  0.60018800  0.91526400  0.86900200  1
  Mn  Mn6  1  0.92456300  0.57783400  0.12392400  1
  Mn  Mn7  1  0.92737000  0.22700200  0.61264000  1
  B  B0  1  0.08140800  0.41628500  0.38184900  1
  B  B1  1  0.09326800  0.74766800  0.86977700  1
  B  B2  1  0.41813200  0.76142900  0.13275900  1
  B  B3  1  0.43295400  0.07827300  0.62885000  1
  B  B4  1  0.56485900  0.92661000  0.37232400  1
  B  B5  1  0.57932700  0.25060000  0.86505000  1
  B  B6  1  0.90094000  0.24889300  0.11399100  1
  B  B7  1  0.92712000  0.57312400  0.63023900  1
  O  O0  1  0.02741400  0.11775900  0.12908600  1
  O  O1  1  0.07722300  0.68442300  0.57750200  1
  O  O2  1  0.02128500  0.37161600  0.05377900  1
  O  O3  1  0.05615300  0.44413000  0.67470800  1
  O  O4  1  0.15726600  0.76376700  0.16445700  1
  O  O5  1  0.17995300  0.06703300  0.65204500  1
  O  O6  1  0.33549900  0.43302000  0.40404800  1
  O  O7  1  0.34252500  0.74020500  0.81504100  1
  O  O8  1  0.41535400  0.04419100  0.33106700  1
  O  O9  1  0.44465400  0.12614600  0.90488600  1
  O  O10  1  0.43973900  0.80095300  0.42787000  1
  O  O11  1  0.46155400  0.38373200  0.85201000  1
  O  O12  1  0.56040700  0.64156400  0.16178600  1
  O  O13  1  0.54526000  0.20723900  0.58146800  1
  O  O14  1  0.53200900  0.88552100  0.07396800  1
  O  O15  1  0.58784100  0.95498700  0.65754300  1
  O  O16  1  0.65709500  0.26667200  0.16205200  1
  O  O17  1  0.66878400  0.58401300  0.63656600  1
  O  O18  1  0.82069900  0.92691700  0.35829200  1
  O  O19  1  0.83997100  0.23236600  0.83616000  1
  O  O20  1  0.93344100  0.53213100  0.33604300  1
  O  O21  1  0.96200400  0.61822900  0.90023800  1
  O  O22  1  0.96490100  0.28025000  0.40841600  1
  O  O23  1  0.98529100  0.88034700  0.89645500  1
loop_
_geom_bond_atom_site_label_1
_geom_bond_atom_site_label_2
_geom_bond_distance
_geom_bond_site_symmetry_2
Li0 O18 1.911830 1_445
Li0 O8 1.957734 1_555
Li0 O22 2.027920 1_455
Li0 O0 2.081096 1_555
Li1 O23 1.918303 1_445
Li1 O5 1.969336 1_555
Li1 O9 2.019142 1_555
Li1 O19 2.027243 1_455
Li2 O17 2.030624 1_555
Li2 O3 2.043420 1_555
Li2 O13 2.084518 1_555
Li2 O6 2.122686 1_555
Li3 O6 1.931087 1_555
Li3 O12 1.932599 1_555
Li3 O20 2.024546 1_555
Li3 O10 2.245817 1_555
Li4 O11 1.910862 1_555
Li4 O7 2.004907 1_555
Li4 O17 2.028954 1_555
Li4 O21 2.122843 1_555
Li5 O4 1.973924 1_655
Li5 O0 1.990514 1_665
Li5 O14 2.082732 1_555
Li5 O23 2.145738 1_554
Mn0 O18 2.049405 1_455
Mn0 O20 2.149092 1_455
Mn0 O10 2.155467 1_555
Mn0 O1 2.180106 1_555
Mn0 O4 2.225000 1_555
Mn1 O2 1.963755 1_556
Mn1 O3 2.026206 1_555
Mn1 O19 2.030575 1_455
Mn1 O11 2.052842 1_555
Mn1 O21 2.084567 1_455
Mn2 O0 2.056068 1_555
Mn2 O16 2.075504 1_555
Mn2 O14 2.090748 1_545
Mn2 O9 2.179287 1_554
Mn2 O8 2.294432 1_555
Mn3 O1 1.981349 1_555
Mn3 O15 1.982583 1_555
Mn3 O10 2.005378 1_555
Mn3 O7 2.057351 1_555
Mn3 O17 2.208491 1_555
Mn4 O6 2.085116 1_555
Mn4 O8 2.137227 1_555
Mn4 O22 2.146511 1_555
Mn4 O16 2.162951 1_555
Mn4 O13 2.254335 1_555
Mn5 O23 2.082893 1_555
Mn5 O9 2.124373 1_565
Mn5 O14 2.157518 1_556
Mn5 O7 2.198264 1_555
Mn5 O15 2.217222 1_555
Mn6 O12 2.036166 1_555
Mn6 O2 2.089272 1_655
Mn6 O4 2.158125 1_655
Mn6 O20 2.231239 1_555
Mn6 O21 2.343713 1_554
Mn7 O5 2.012888 1_655
Mn7 O13 2.062506 1_555
Mn7 O22 2.165875 1_555
Mn7 O3 2.215324 1_655
Mn7 O19 2.353349 1_555
B0 O6 1.378019 1_555
B0 O20 1.392283 1_455
B0 O22 1.406865 1_455
B1 O23 1.365987 1_455
B1 O21 1.398514 1_455
B1 O7 1.421085 1_555
B2 O12 1.355241 1_555
B2 O14 1.403737 1_555
B2 O4 1.407747 1_555
B3 O5 1.355287 1_555
B3 O13 1.393854 1_555
B3 O15 1.416954 1_545
B4 O18 1.355062 1_555
B4 O8 1.393666 1_565
B4 O10 1.428210 1_555
B5 O11 1.366449 1_555
B5 O9 1.391992 1_555
B5 O19 1.410357 1_555
B6 O0 1.374095 1_655
B6 O16 1.378111 1_555
B6 O2 1.414606 1_655
B7 O17 1.367250 1_555
B7 O1 1.385101 1_655
B7 O3 1.429100 1_655
