# generated using pymatgen
data_Yb2TiO5
_symmetry_space_group_name_H-M   'P 1'
_cell_length_a   3.67788800
_cell_length_b   10.92997100
_cell_length_c   11.09842000
_cell_angle_alpha   90.00000000
_cell_angle_beta   90.00000000
_cell_angle_gamma   90.00000000
_symmetry_Int_Tables_number   1
_chemical_formula_structural   Yb2TiO5
_chemical_formula_sum   'Yb8 Ti4 O20'
_cell_volume   446.14770716
_cell_formula_units_Z   4
loop_
 _symmetry_equiv_pos_site_id
 _symmetry_equiv_pos_as_xyz
  1  'x, y, z'
loop_
 _atom_site_type_symbol
 _atom_site_label
 _atom_site_symmetry_multiplicity
 _atom_site_fract_x
 _atom_site_fract_y
 _atom_site_fract_z
 _atom_site_occupancy
  Yb  Yb0  1  0.25000000  0.10720000  0.28206000  1
  Yb  Yb1  1  0.25000000  0.14018500  0.93812500  1
  Yb  Yb2  1  0.75000000  0.35981500  0.43812500  1
  Yb  Yb3  1  0.75000000  0.39280000  0.78206000  1
  Yb  Yb4  1  0.25000000  0.60720000  0.21794000  1
  Yb  Yb5  1  0.25000000  0.64018500  0.56187500  1
  Yb  Yb6  1  0.75000000  0.85981500  0.06187500  1
  Yb  Yb7  1  0.75000000  0.89280000  0.71794000  1
  Ti  Ti0  1  0.25000000  0.17469500  0.62528900  1
  Ti  Ti1  1  0.75000000  0.32530500  0.12528900  1
  Ti  Ti2  1  0.25000000  0.67469500  0.87471100  1
  Ti  Ti3  1  0.75000000  0.82530500  0.37471100  1
  O  O0  1  0.75000000  0.00712000  0.90676600  1
  O  O1  1  0.25000000  0.01741000  0.66327900  1
  O  O2  1  0.25000000  0.22247800  0.45779000  1
  O  O3  1  0.75000000  0.23507900  0.61286000  1
  O  O4  1  0.75000000  0.23857300  0.27018700  1
  O  O5  1  0.25000000  0.26142700  0.77018700  1
  O  O6  1  0.25000000  0.26492100  0.11286000  1
  O  O7  1  0.75000000  0.27752200  0.95779000  1
  O  O8  1  0.75000000  0.48259000  0.16327900  1
  O  O9  1  0.25000000  0.49288000  0.40676600  1
  O  O10  1  0.75000000  0.50712000  0.59323400  1
  O  O11  1  0.25000000  0.51741000  0.83672100  1
  O  O12  1  0.25000000  0.72247800  0.04221000  1
  O  O13  1  0.75000000  0.73507900  0.88714000  1
  O  O14  1  0.75000000  0.73857300  0.22981300  1
  O  O15  1  0.25000000  0.76142700  0.72981300  1
  O  O16  1  0.25000000  0.76492100  0.38714000  1
  O  O17  1  0.75000000  0.77752200  0.54221000  1
  O  O18  1  0.75000000  0.98259000  0.33672100  1
  O  O19  1  0.25000000  0.99288000  0.09323400  1
loop_
_geom_bond_atom_site_label_1
_geom_bond_atom_site_label_2
_geom_bond_distance
_geom_bond_site_symmetry_2
O0 Yb6 2.357046 1_546
O0 Yb1 2.370256 1_555
O0 Yb1 2.370256 1_655
O0 Yb7 2.439902 1_545
O1 Ti0 1.770070 1_555
O1 Yb7 2.367433 1_445
O1 Yb7 2.367433 1_545
O2 Ti0 1.930945 1_555
O2 Yb0 2.321924 1_555
O2 Yb2 2.383824 1_455
O2 Yb2 2.383824 1_555
O3 Ti0 1.958657 1_655
O3 Ti0 1.958657 1_555
O3 Yb2 2.370563 1_555
O3 Yb3 2.549140 1_555
O4 Ti1 1.866755 1_555
O4 Yb2 2.286920 1_555
O4 Yb0 2.336856 1_555
O4 Yb0 2.336856 1_655
O5 Ti0 1.866755 1_555
O5 Yb1 2.286920 1_555
O5 Yb3 2.336856 1_555
O5 Yb3 2.336856 1_455
O6 Ti1 1.958657 1_555
O6 Ti1 1.958657 1_455
O6 Yb1 2.370563 1_554
O6 Yb0 2.549140 1_555
O7 Ti1 1.930945 1_556
O7 Yb3 2.321924 1_555
O7 Yb1 2.383824 1_655
O7 Yb1 2.383824 1_555
O8 Ti1 1.770070 1_555
O8 Yb4 2.367433 1_655
O8 Yb4 2.367433 1_555
O9 Yb5 2.357046 1_555
O9 Yb2 2.370256 1_455
O9 Yb2 2.370256 1_555
O9 Yb4 2.439902 1_555
O10 Yb2 2.357046 1_555
O10 Yb5 2.370256 1_655
O10 Yb5 2.370256 1_555
O10 Yb3 2.439902 1_555
O11 Ti2 1.770070 1_555
O11 Yb3 2.367433 1_455
O11 Yb3 2.367433 1_555
O12 Ti2 1.930945 1_554
O12 Yb4 2.321924 1_555
O12 Yb6 2.383824 1_555
O12 Yb6 2.383824 1_455
O13 Ti2 1.958657 1_655
O13 Ti2 1.958657 1_555
O13 Yb6 2.370563 1_556
O13 Yb7 2.549140 1_555
O14 Ti3 1.866755 1_555
O14 Yb6 2.286920 1_555
O14 Yb4 2.336856 1_555
O14 Yb4 2.336856 1_655
O15 Ti2 1.866755 1_555
O15 Yb5 2.286920 1_555
O15 Yb7 2.336856 1_455
O15 Yb7 2.336856 1_555
O16 Ti3 1.958657 1_455
O16 Ti3 1.958657 1_555
O16 Yb5 2.370563 1_555
O16 Yb4 2.549140 1_555
O17 Ti3 1.930945 1_555
O17 Yb7 2.321924 1_555
O17 Yb5 2.383824 1_555
O17 Yb5 2.383824 1_655
O18 Ti3 1.770070 1_555
O18 Yb0 2.367433 1_665
O18 Yb0 2.367433 1_565
O19 Yb1 2.357046 1_564
O19 Yb6 2.370256 1_555
O19 Yb6 2.370256 1_455
O19 Yb0 2.439902 1_565
