# generated using pymatgen
data_Co6OF11
_symmetry_space_group_name_H-M   'P 1'
_cell_length_a   4.72733173
_cell_length_b   4.72733173
_cell_length_c   9.59031300
_cell_angle_alpha   90.00000000
_cell_angle_beta   90.00000000
_cell_angle_gamma   91.31118532
_symmetry_Int_Tables_number   1
_chemical_formula_structural   Co6OF11
_chemical_formula_sum   'Co6 O1 F11'
_cell_volume   214.26498707
_cell_formula_units_Z   1
loop_
 _symmetry_equiv_pos_site_id
 _symmetry_equiv_pos_as_xyz
  1  'x, y, z'
loop_
 _atom_site_type_symbol
 _atom_site_label
 _atom_site_symmetry_multiplicity
 _atom_site_fract_x
 _atom_site_fract_y
 _atom_site_fract_z
 _atom_site_occupancy
  Co  Co0  1  0.00614100  0.00614100  0.65989000  1
  Co  Co1  1  0.00614100  0.00614100  0.34011000  1
  Co  Co2  1  0.00327800  0.00327800  0.00000000  1
  Co  Co3  1  0.46910700  0.46910700  0.50000000  1
  Co  Co4  1  0.50405000  0.50405000  0.83234400  1
  Co  Co5  1  0.50405000  0.50405000  0.16765600  1
  O  O0  1  0.20079800  0.20079800  0.50000000  1
  F  F0  1  0.19923400  0.19923400  0.83186100  1
  F  F1  1  0.19923400  0.19923400  0.16813900  1
  F  F2  1  0.69443700  0.30515400  0.33619100  1
  F  F3  1  0.69443700  0.30515400  0.66380900  1
  F  F4  1  0.70038500  0.30778500  0.00000000  1
  F  F5  1  0.30778500  0.70038500  0.00000000  1
  F  F6  1  0.30515400  0.69443700  0.66380900  1
  F  F7  1  0.30515400  0.69443700  0.33619100  1
  F  F8  1  0.78354900  0.78354900  0.50000000  1
  F  F9  1  0.80853400  0.80853400  0.83009400  1
  F  F10  1  0.80853400  0.80853400  0.16990600  1
loop_
_geom_bond_atom_site_label_1
_geom_bond_atom_site_label_2
_geom_bond_distance
_geom_bond_site_symmetry_2
Co0 O0 2.001528 1_555
Co0 F3 2.065454 1_455
Co0 F6 2.065454 1_545
Co0 F0 2.085275 1_555
Co0 F9 2.090403 1_445
Co0 F8 2.124889 1_445
Co1 O0 2.001528 1_555
Co1 F2 2.065454 1_455
Co1 F7 2.065454 1_545
Co1 F1 2.085275 1_555
Co1 F10 2.090403 1_445
Co1 F8 2.124889 1_445
Co2 F5 2.053479 1_545
Co2 F4 2.053479 1_455
Co2 F1 2.068127 1_555
Co2 F0 2.068127 1_554
Co2 F10 2.076392 1_445
Co2 F9 2.076392 1_444
Co3 O0 1.773126 1_555
Co3 F3 2.059405 1_555
Co3 F6 2.059405 1_555
Co3 F7 2.059405 1_555
Co3 F2 2.059405 1_555
Co3 F8 2.077998 1_555
Co4 F9 2.012306 1_555
Co4 F0 2.014389 1_555
Co4 F3 2.084531 1_555
Co4 F6 2.084531 1_555
Co4 F4 2.084932 1_556
Co4 F5 2.084932 1_556
Co5 F10 2.012306 1_555
Co5 F1 2.014389 1_555
Co5 F2 2.084531 1_555
Co5 F7 2.084531 1_555
Co5 F4 2.084932 1_555
Co5 F5 2.084932 1_555
