# generated using pymatgen
data_Na3Ni2P2(CO7)2
_symmetry_space_group_name_H-M   'P 1'
_cell_length_a   8.91950990
_cell_length_b   10.31440099
_cell_length_c   6.44060739
_cell_angle_alpha   90.22864487
_cell_angle_beta   90.88165989
_cell_angle_gamma   88.20601150
_symmetry_Int_Tables_number   1
_chemical_formula_structural   Na3Ni2P2(CO7)2
_chemical_formula_sum   'Na6 Ni4 P4 C4 O28'
_cell_volume   592.16783198
_cell_formula_units_Z   2
loop_
 _symmetry_equiv_pos_site_id
 _symmetry_equiv_pos_as_xyz
  1  'x, y, z'
loop_
 _atom_site_type_symbol
 _atom_site_label
 _atom_site_symmetry_multiplicity
 _atom_site_fract_x
 _atom_site_fract_y
 _atom_site_fract_z
 _atom_site_occupancy
  Na  Na0  1  0.25163800  0.12467500  0.01389800  1
  Na  Na1  1  0.24985700  0.12050900  0.48608600  1
  Na  Na2  1  0.26855300  0.62243500  0.45238600  1
  Na  Na3  1  0.73865100  0.36791600  0.97911300  1
  Na  Na4  1  0.74474600  0.88590100  0.97427300  1
  Na  Na5  1  0.91416600  0.60629600  0.73472100  1
  Ni  Ni0  1  0.34313500  0.39264500  0.75337300  1
  Ni  Ni1  1  0.34473700  0.88789900  0.75364700  1
  Ni  Ni2  1  0.65827900  0.10887300  0.26220100  1
  Ni  Ni3  1  0.65733300  0.60907400  0.25500500  1
  P  P0  1  0.42756500  0.35817300  0.25146400  1
  P  P1  1  0.43048900  0.86156900  0.25251200  1
  P  P2  1  0.57318500  0.14148200  0.75375000  1
  P  P3  1  0.57215700  0.64015400  0.75183600  1
  C  C0  1  0.07302300  0.35797900  0.74763600  1
  C  C1  1  0.07572600  0.85514200  0.74998000  1
  C  C2  1  0.92645600  0.14351500  0.25119300  1
  C  C3  1  0.92633200  0.64615900  0.24832000  1
  O  O0  1  0.06465800  0.16163800  0.24603700  1
  O  O1  1  0.06357400  0.66619400  0.25070200  1
  O  O2  1  0.13132200  0.47173300  0.74018700  1
  O  O3  1  0.13371900  0.96931600  0.75133400  1
  O  O4  1  0.17269100  0.26271200  0.74592400  1
  O  O5  1  0.17685000  0.76126800  0.73992000  1
  O  O6  1  0.32081600  0.38357900  0.06363800  1
  O  O7  1  0.32741900  0.39526200  0.43763900  1
  O  O8  1  0.32659500  0.89940300  0.06582400  1
  O  O9  1  0.32910600  0.89798100  0.43864700  1
  O  O10  1  0.42458700  0.06785500  0.75285200  1
  O  O11  1  0.42589600  0.56700000  0.74450600  1
  O  O12  1  0.46526500  0.20843000  0.25838900  1
  O  O13  1  0.46892600  0.71392700  0.25608000  1
  O  O14  1  0.53079200  0.28884000  0.76231600  1
  O  O15  1  0.53258300  0.78779300  0.76529400  1
  O  O16  1  0.57295700  0.43250800  0.24266600  1
  O  O17  1  0.57792800  0.93423400  0.24901100  1
  O  O18  1  0.67421400  0.10717100  0.56991000  1
  O  O19  1  0.67533600  0.10688600  0.94322200  1
  O  O20  1  0.67656600  0.61127600  0.56634300  1
  O  O21  1  0.67948500  0.60220500  0.93648700  1
  O  O22  1  0.82527400  0.23688800  0.25645700  1
  O  O23  1  0.82380700  0.73870400  0.24564400  1
  O  O24  1  0.86860400  0.03003000  0.25247700  1
  O  O25  1  0.87090300  0.53110100  0.25133700  1
  O  O26  1  0.93493600  0.34374700  0.75741900  1
  O  O27  1  0.93883400  0.83395300  0.75881100  1
loop_
_geom_bond_atom_site_label_1
_geom_bond_atom_site_label_2
_geom_bond_distance
_geom_bond_site_symmetry_2
Na0 O0 2.279157 1_555
Na0 O4 2.328346 1_554
Na0 O10 2.359078 1_554
Na0 O8 2.420695 1_545
Na0 O3 2.561820 1_544
Na0 O12 2.618489 1_555
Na0 O6 2.775764 1_555
Na1 O0 2.276347 1_555
Na1 O4 2.319128 1_555
Na1 O10 2.355404 1_555
Na1 O9 2.400128 1_545
Na1 O3 2.569118 1_545
Na1 O12 2.621253 1_555
Na2 O1 2.261345 1_555
Na2 O7 2.387007 1_555
Na2 O11 2.390270 1_555
Na2 O13 2.422379 1_555
Na2 O5 2.470066 1_555
Na2 O2 2.749954 1_555
Na2 O9 2.911463 1_555
Na3 O26 2.283162 1_555
Na3 O16 2.348598 1_556
Na3 O22 2.350660 1_556
Na3 O14 2.461330 1_555
Na3 O21 2.472767 1_555
Na3 O25 2.708441 1_556
Na3 O19 2.776225 1_555
Na4 O27 2.284664 1_555
Na4 O19 2.351615 1_565
Na4 O17 2.370881 1_556
Na4 O23 2.402782 1_556
Na4 O15 2.539166 1_555
Na4 O24 2.581023 1_566
Na5 O2 2.347181 1_655
Na5 O20 2.364934 1_555
Na5 O27 2.369528 1_555
Na5 O21 2.482297 1_555
Na5 O26 2.712944 1_555
Na5 O5 2.877065 1_655
Ni0 O14 1.958734 1_555
Ni0 O11 1.966607 1_555
Ni0 O6 2.014065 1_556
Ni0 O2 2.034971 1_555
Ni0 O7 2.036420 1_555
Ni0 O4 2.057775 1_555
Ni1 O15 1.940996 1_555
Ni1 O10 2.008855 1_565
Ni1 O5 2.018330 1_555
Ni1 O8 2.022306 1_556
Ni1 O9 2.034286 1_555
Ni1 O3 2.036737 1_555
Ni2 O17 1.960426 1_545
Ni2 O12 1.976652 1_555
Ni2 O18 1.984849 1_555
Ni2 O22 2.022053 1_555
Ni2 O24 2.022942 1_555
Ni2 O19 2.062351 1_554
Ni3 O13 1.969837 1_555
Ni3 O16 1.993038 1_555
Ni3 O20 2.009997 1_555
Ni3 O23 2.030735 1_555
Ni3 O25 2.044865 1_555
Ni3 O21 2.064689 1_554
C0 O26 1.247521 1_455
C0 O2 1.299523 1_555
C0 O4 1.304412 1_555
C1 O27 1.249323 1_455
C1 O3 1.300919 1_555
C1 O5 1.304566 1_555
C2 O0 1.253522 1_655
C2 O24 1.294026 1_555
C2 O22 1.299785 1_555
C3 O1 1.247667 1_655
C3 O25 1.300158 1_555
C3 O23 1.301041 1_555
O6 P0 1.546003 1_555
O7 P0 1.545945 1_555
O8 P1 1.550344 1_555
O9 P1 1.550634 1_555
O10 P2 1.547980 1_555
O11 P3 1.527394 1_555
O12 P0 1.571032 1_555
O13 P1 1.550630 1_555
O14 P2 1.555679 1_555
O15 P3 1.554762 1_555
O16 P0 1.528951 1_555
O17 P1 1.534424 1_555
O18 P2 1.532565 1_555
O19 P2 1.547764 1_555
O20 P3 1.548324 1_555
O21 P3 1.558598 1_555
