# generated using pymatgen
data_Li3Fe2CoO6
_symmetry_space_group_name_H-M   'P 1'
_cell_length_a   6.61738919
_cell_length_b   6.61738919
_cell_length_c   5.91747906
_cell_angle_alpha   76.07019246
_cell_angle_beta   76.07019246
_cell_angle_gamma   25.61233074
_symmetry_Int_Tables_number   1
_chemical_formula_structural   Li3Fe2CoO6
_chemical_formula_sum   'Li3 Fe2 Co1 O6'
_cell_volume   108.54758618
_cell_formula_units_Z   1
loop_
 _symmetry_equiv_pos_site_id
 _symmetry_equiv_pos_as_xyz
  1  'x, y, z'
loop_
 _atom_site_type_symbol
 _atom_site_label
 _atom_site_symmetry_multiplicity
 _atom_site_fract_x
 _atom_site_fract_y
 _atom_site_fract_z
 _atom_site_occupancy
  Li  Li0  1  0.33955800  0.33955800  0.33308600  1
  Li  Li1  1  0.66044200  0.66044200  0.66691400  1
  Li  Li2  1  0.00000000  0.00000000  0.00000000  1
  Fe  Fe0  1  0.33452200  0.33452200  0.82974700  1
  Fe  Fe1  1  0.66547800  0.66547800  0.17025300  1
  Co  Co0  1  0.00000000  0.00000000  0.50000000  1
  O  O0  1  0.49667500  0.49667500  0.72334700  1
  O  O1  1  0.84309700  0.84309700  0.58862400  1
  O  O2  1  0.16942300  0.16942300  0.92879300  1
  O  O3  1  0.83057700  0.83057700  0.07120700  1
  O  O4  1  0.15690300  0.15690300  0.41137600  1
  O  O5  1  0.50332500  0.50332500  0.27665300  1
loop_
_geom_bond_atom_site_label_1
_geom_bond_atom_site_label_2
_geom_bond_distance
_geom_bond_site_symmetry_2
Li0 O5 2.056683 1_555
Li0 O1 2.115221 1_455
Li0 O1 2.115221 1_545
Li0 O3 2.157540 1_455
Li0 O3 2.157540 1_545
Li0 O4 2.287384 1_555
Li1 O0 2.056683 1_555
Li1 O4 2.115221 1_655
Li1 O4 2.115221 1_565
Li1 O2 2.157540 1_655
Li1 O2 2.157540 1_565
Li1 O1 2.287384 1_555
Li2 O2 2.122130 1_554
Li2 O3 2.122130 1_445
Li2 O5 2.206352 1_545
Li2 O5 2.206352 1_455
Li2 O0 2.206352 1_454
Li2 O0 2.206352 1_544
Fe0 O1 2.030163 1_455
Fe0 O1 2.030163 1_545
Fe0 O0 2.031049 1_555
Fe0 O3 2.039521 1_456
Fe0 O3 2.039521 1_546
Fe0 O2 2.065621 1_555
Fe1 O4 2.030163 1_655
Fe1 O4 2.030163 1_565
Fe1 O5 2.031049 1_555
Fe1 O2 2.039521 1_654
Fe1 O2 2.039521 1_564
Fe1 O3 2.065621 1_555
Co0 O1 1.962400 1_445
Co0 O4 1.962400 1_555
Co0 O0 1.967741 1_455
Co0 O0 1.967741 1_545
Co0 O5 1.967741 1_455
Co0 O5 1.967741 1_545
