# generated using pymatgen
data_Li5MnF8
_symmetry_space_group_name_H-M   'P 1'
_cell_length_a   6.03749870
_cell_length_b   6.03749870
_cell_length_c   6.03749870
_cell_angle_alpha   123.49445988
_cell_angle_beta   122.19938782
_cell_angle_gamma   85.13986980
_symmetry_Int_Tables_number   1
_chemical_formula_structural   Li5MnF8
_chemical_formula_sum   'Li5 Mn1 F8'
_cell_volume   148.31138115
_cell_formula_units_Z   1
loop_
 _symmetry_equiv_pos_site_id
 _symmetry_equiv_pos_as_xyz
  1  'x, y, z'
loop_
 _atom_site_type_symbol
 _atom_site_label
 _atom_site_symmetry_multiplicity
 _atom_site_fract_x
 _atom_site_fract_y
 _atom_site_fract_z
 _atom_site_occupancy
  Li  Li0  1  0.50000000  0.00000000  0.00000000  1
  Li  Li1  1  0.50000000  0.50000000  0.50000000  1
  Li  Li2  1  0.50000000  0.00000000  0.50000000  1
  Li  Li3  1  0.00000000  0.00000000  0.50000000  1
  Li  Li4  1  0.00000000  0.50000000  0.00000000  1
  Mn  Mn0  1  0.00000000  0.00000000  0.00000000  1
  F  F0  1  0.72581300  0.22581300  0.50000000  1
  F  F1  1  0.23299200  0.22718200  0.46017400  1
  F  F2  1  0.76125800  0.76125800  0.00000000  1
  F  F3  1  0.23299200  0.77281800  0.00581100  1
  F  F4  1  0.76700800  0.22718200  0.99418900  1
  F  F5  1  0.23874200  0.23874200  0.00000000  1
  F  F6  1  0.76700800  0.77281800  0.53982600  1
  F  F7  1  0.27418700  0.77418700  0.50000000  1
loop_
_geom_bond_atom_site_label_1
_geom_bond_atom_site_label_2
_geom_bond_distance
_geom_bond_site_symmetry_2
F0 Li2 2.008078 1_555
F0 Li0 2.053448 1_555
F0 Li1 2.053448 1_555
F0 Li4 2.053448 1_656
F0 Li3 2.053448 1_655
F1 Mn0 1.880133 1_555
F1 Li2 2.028328 1_555
F1 Li3 2.229198 1_555
F1 Li1 2.229198 1_555
F2 Li4 2.044605 1_655
F2 Li1 2.044605 1_554
F2 Li0 2.044605 1_565
F2 Li3 2.044605 1_665
F2 Mn0 2.123051 1_665
F3 Mn0 1.880133 1_565
F3 Li2 2.028323 1_565
F3 Li4 2.229193 1_555
F3 Li0 2.229202 1_565
F4 Mn0 1.880133 1_656
F4 Li2 2.028323 1_555
F4 Li4 2.229193 1_656
F4 Li0 2.229202 1_556
F5 Li4 2.044605 1_555
F5 Li3 2.044605 1_554
F5 Li1 2.044605 1_555
F5 Li0 2.044605 1_555
F5 Mn0 2.123051 1_555
F6 Mn0 1.880133 1_666
F6 Li2 2.028328 1_565
F6 Li1 2.229198 1_555
F6 Li3 2.229198 1_665
F7 Li2 2.008078 1_565
F7 Li1 2.053448 1_555
F7 Li4 2.053448 1_555
F7 Li0 2.053448 1_566
F7 Li3 2.053448 1_565
