# generated using pymatgen
data_Mn3Cr2Sb3O16
_symmetry_space_group_name_H-M   'P 1'
_cell_length_a   6.08698441
_cell_length_b   6.03200005
_cell_length_c   9.04669038
_cell_angle_alpha   89.99836458
_cell_angle_beta   89.80615194
_cell_angle_gamma   119.70269067
_symmetry_Int_Tables_number   1
_chemical_formula_structural   Mn3Cr2Sb3O16
_chemical_formula_sum   'Mn3 Cr2 Sb3 O16'
_cell_volume   288.51864155
_cell_formula_units_Z   1
loop_
 _symmetry_equiv_pos_site_id
 _symmetry_equiv_pos_as_xyz
  1  'x, y, z'
loop_
 _atom_site_type_symbol
 _atom_site_label
 _atom_site_symmetry_multiplicity
 _atom_site_fract_x
 _atom_site_fract_y
 _atom_site_fract_z
 _atom_site_occupancy
  Mn  Mn0  1  0.66160000  0.83080300  0.21470600  1
  Mn  Mn1  1  0.82713900  0.66242300  0.71012500  1
  Mn  Mn2  1  0.82712800  0.16473700  0.71013000  1
  Cr  Cr0  1  0.34017900  0.67008200  0.49284500  1
  Cr  Cr1  1  0.68215300  0.34109600  0.98407100  1
  Sb  Sb0  1  0.16414700  0.83066300  0.20982800  1
  Sb  Sb1  1  0.16414000  0.33350500  0.20982000  1
  Sb  Sb2  1  0.32918900  0.16459800  0.70947300  1
  O  O0  1  0.16290000  0.83214100  0.60417700  1
  O  O1  1  0.04362800  0.52181000  0.34710700  1
  O  O2  1  0.30625900  0.65315600  0.08616100  1
  O  O3  1  0.02303000  0.01151600  0.32678900  1
  O  O4  1  0.98888700  0.99446600  0.81573900  1
  O  O5  1  0.16287300  0.33076700  0.60418800  1
  O  O6  1  0.47512900  0.95228000  0.33739100  1
  O  O7  1  0.47510200  0.52283000  0.33740000  1
  O  O8  1  0.33459400  0.16731800  0.09666100  1
  O  O9  1  0.67521300  0.83761900  0.60330500  1
  O  O10  1  0.53113800  0.48308500  0.83765400  1
  O  O11  1  0.53115800  0.04806300  0.83766100  1
  O  O12  1  0.67213600  0.33605600  0.59993700  1
  O  O13  1  0.83546900  0.67067100  0.10516800  1
  O  O14  1  0.95132800  0.47568600  0.83023200  1
  O  O15  1  0.83548100  0.16482900  0.10515300  1
loop_
_geom_bond_atom_site_label_1
_geom_bond_atom_site_label_2
_geom_bond_distance
_geom_bond_site_symmetry_2
Mn0 O6 1.967957 1_555
Mn0 O7 1.968054 1_555
Mn0 O13 2.010246 1_555
Mn0 O15 2.010360 1_565
Mn0 O3 2.166809 1_665
Mn0 O2 2.213410 1_555
Mn1 O10 1.949852 1_555
Mn1 O14 1.967271 1_555
Mn1 O9 1.969855 1_555
Mn1 O12 1.981217 1_555
Mn1 O4 1.986470 1_555
Mn1 O0 2.014190 1_655
Mn2 O11 1.949728 1_555
Mn2 O14 1.967375 1_555
Mn2 O9 1.969881 1_545
Mn2 O12 1.980964 1_555
Mn2 O4 1.986371 1_545
Mn2 O5 2.014090 1_655
Cr0 O9 2.037223 1_555
Cr0 O7 2.038670 1_555
Cr0 O6 2.038744 1_555
Cr0 O5 2.042557 1_555
Cr0 O0 2.042674 1_555
Cr0 O1 2.052526 1_555
Cr1 O14 1.986675 1_555
Cr1 O10 2.030136 1_555
Cr1 O11 2.030234 1_555
Cr1 O15 2.047358 1_556
Cr1 O13 2.047367 1_556
Cr1 O8 2.097538 1_556
O0 Sb2 1.987100 1_565
O1 Sb1 2.047058 1_555
O1 Sb0 2.047100 1_555
O2 Sb0 2.014394 1_555
O2 Sb1 2.014428 1_555
O3 Sb0 1.992500 1_545
O3 Sb1 1.992561 1_555
O4 Sb2 2.036654 1_665
O5 Sb2 1.987165 1_555
O6 Sb0 2.022829 1_555
O7 Sb1 2.022814 1_555
O8 Sb1 2.037886 1_555
O8 Sb0 2.037917 1_545
O10 Sb2 2.053276 1_555
O11 Sb2 2.053377 1_555
O12 Sb2 2.062937 1_555
O13 Sb0 1.982409 1_655
O15 Sb1 1.982351 1_655
