# generated using pymatgen
data_Na6HfH8S5O24
_symmetry_space_group_name_H-M   'P 1'
_cell_length_a   11.29002100
_cell_length_b   8.63152000
_cell_length_c   10.79416118
_cell_angle_alpha   81.30553449
_cell_angle_beta   90.00000000
_cell_angle_gamma   90.00000000
_symmetry_Int_Tables_number   1
_chemical_formula_structural   Na6HfH8S5O24
_chemical_formula_sum   'Na12 Hf2 H16 S10 O48'
_cell_volume   1039.80364281
_cell_formula_units_Z   2
loop_
 _symmetry_equiv_pos_site_id
 _symmetry_equiv_pos_as_xyz
  1  'x, y, z'
loop_
 _atom_site_type_symbol
 _atom_site_label
 _atom_site_symmetry_multiplicity
 _atom_site_fract_x
 _atom_site_fract_y
 _atom_site_fract_z
 _atom_site_occupancy
  Na  Na0  1  0.17502600  0.05392700  0.50649400  1
  Na  Na1  1  0.67502600  0.94607300  0.49350600  1
  Na  Na2  1  0.80822200  0.53119100  0.02064300  1
  Na  Na3  1  0.30822200  0.46880900  0.97935700  1
  Na  Na4  1  0.52919300  0.58958200  0.46734900  1
  Na  Na5  1  0.02919300  0.41041800  0.53265100  1
  Na  Na6  1  0.03035500  0.20710300  0.04930100  1
  Na  Na7  1  0.53035500  0.79289700  0.95069900  1
  Na  Na8  1  0.17660300  0.69287800  0.72917900  1
  Na  Na9  1  0.67660300  0.30712200  0.27082100  1
  Na  Na10  1  0.43663900  0.97734400  0.22617500  1
  Na  Na11  1  0.93663900  0.02265600  0.77382500  1
  Hf  Hf0  1  0.49794100  0.22285700  0.72701700  1
  Hf  Hf1  1  0.99794100  0.77714300  0.27298300  1
  H  H0  1  0.84270900  0.53463300  0.38170900  1
  H  H1  1  0.34270900  0.46536700  0.61829100  1
  H  H2  1  0.92473300  0.45269100  0.29075200  1
  H  H3  1  0.42473300  0.54730900  0.70924800  1
  H  H4  1  0.34104400  0.02417400  0.97105600  1
  H  H5  1  0.84104400  0.97582600  0.02894400  1
  H  H6  1  0.76933200  0.12164500  0.97308900  1
  H  H7  1  0.26933200  0.87835500  0.02691100  1
  H  H8  1  0.95731500  0.48777900  0.82696400  1
  H  H9  1  0.45731500  0.51222100  0.17303600  1
  H  H10  1  0.88693400  0.33631100  0.84111400  1
  H  H11  1  0.38693400  0.66368900  0.15888600  1
  H  H12  1  0.24322000  0.26712000  0.21768300  1
  H  H13  1  0.74322000  0.73288000  0.78231700  1
  H  H14  1  0.16924600  0.41874600  0.19483000  1
  H  H15  1  0.66924600  0.58125400  0.80517000  1
  S  S0  1  0.73167000  0.30165600  0.61898100  1
  S  S1  1  0.23167000  0.69834400  0.38101900  1
  S  S2  1  0.19817600  0.24876600  0.77803700  1
  S  S3  1  0.69817600  0.75123400  0.22196300  1
  S  S4  1  0.43988500  0.22482600  0.40330500  1
  S  S5  1  0.93988500  0.77517400  0.59669500  1
  S  S6  1  0.42518200  0.84669700  0.67889900  1
  S  S7  1  0.92518200  0.15330300  0.32110100  1
  S  S8  1  0.55295300  0.26116600  0.98378100  1
  S  S9  1  0.05295300  0.73883400  0.01621900  1
  O  O0  1  0.65326800  0.38899800  0.70125000  1
  O  O1  1  0.15326800  0.61100200  0.29875000  1
  O  O2  1  0.66188300  0.14935400  0.62987000  1
  O  O3  1  0.16188300  0.85064600  0.37013000  1
  O  O4  1  0.73288800  0.38847200  0.49104300  1
  O  O5  1  0.23288800  0.61152800  0.50895700  1
  O  O6  1  0.85180100  0.27264300  0.67012200  1
  O  O7  1  0.35180100  0.72735700  0.32987800  1
  O  O8  1  0.32504600  0.18312000  0.79910000  1
  O  O9  1  0.82504600  0.81688000  0.20090000  1
  O  O10  1  0.16648400  0.24555800  0.64581700  1
  O  O11  1  0.66648400  0.75444200  0.35418300  1
  O  O12  1  0.12072400  0.14641500  0.86425600  1
  O  O13  1  0.62072400  0.85358500  0.13574400  1
  O  O14  1  0.19990500  0.41198900  0.80559300  1
  O  O15  1  0.69990500  0.58801100  0.19440700  1
  O  O16  1  0.43331500  0.21823800  0.54491000  1
  O  O17  1  0.93331500  0.78176200  0.45509000  1
  O  O18  1  0.53470700  0.11835200  0.37225800  1
  O  O19  1  0.03470700  0.88164800  0.62774200  1
  O  O20  1  0.46873200  0.38876600  0.34835500  1
  O  O21  1  0.96873200  0.61123400  0.65164500  1
  O  O22  1  0.32403600  0.17278700  0.36052900  1
  O  O23  1  0.82403600  0.82721300  0.63947100  1
  O  O24  1  0.48508400  0.96973200  0.74574400  1
  O  O25  1  0.98508400  0.03026800  0.25425600  1
  O  O26  1  0.50563100  0.80812800  0.58042700  1
  O  O27  1  0.00563100  0.19187200  0.41957300  1
  O  O28  1  0.40868800  0.70455500  0.77728800  1
  O  O29  1  0.90868800  0.29544500  0.22271200  1
  O  O30  1  0.30898000  0.90267800  0.63156300  1
  O  O31  1  0.80898000  0.09732200  0.36843700  1
  O  O32  1  0.57720000  0.12775900  0.90731900  1
  O  O33  1  0.07720000  0.87224100  0.09268100  1
  O  O34  1  0.49549100  0.37945000  0.88380200  1
  O  O35  1  0.99549100  0.62055000  0.11619800  1
  O  O36  1  0.46915700  0.21380800  0.08539000  1
  O  O37  1  0.96915700  0.78619200  0.91461000  1
  O  O38  1  0.66546300  0.31661300  0.02952500  1
  O  O39  1  0.16546300  0.68338700  0.97047500  1
  O  O40  1  0.42284900  0.46133600  0.65469200  1
  O  O41  1  0.92284900  0.53866400  0.34530800  1
  O  O42  1  0.84594700  0.07056000  0.96651300  1
  O  O43  1  0.34594700  0.92944000  0.03348700  1
  O  O44  1  0.92684000  0.40547300  0.89184300  1
  O  O45  1  0.42684000  0.59452700  0.10815700  1
  O  O46  1  0.19530600  0.33165000  0.15274500  1
  O  O47  1  0.69530600  0.66835000  0.84725500  1
loop_
_geom_bond_atom_site_label_1
_geom_bond_atom_site_label_2
_geom_bond_distance
_geom_bond_site_symmetry_2
Na0 O30 2.298093 1_545
Na0 O27 2.370192 1_555
Na0 O10 2.399777 1_555
Na0 O19 2.417737 1_545
Na0 O22 2.424149 1_555
Na0 O3 2.459297 1_545
Na1 O31 2.298093 1_565
Na1 O26 2.370192 1_555
Na1 O11 2.399777 1_555
Na1 O18 2.417737 1_565
Na1 O23 2.424149 1_555
Na1 O2 2.459297 1_565
Na2 O44 2.315166 1_554
Na2 O15 2.352051 1_555
Na2 O47 2.420680 1_554
Na2 O38 2.446151 1_555
Na2 O35 2.523773 1_555
Na2 O29 2.973683 1_555
Na3 O45 2.315166 1_556
Na3 O14 2.352051 1_555
Na3 O46 2.420680 1_556
Na3 O39 2.446151 1_555
Na3 O34 2.523773 1_555
Na3 O28 2.973683 1_555
Na4 O11 2.322517 1_555
Na4 O20 2.406935 1_555
Na4 O26 2.411461 1_555
Na4 O40 2.465649 1_555
Na4 O7 2.663394 1_555
Na4 O4 2.869355 1_555
Na5 O10 2.322517 1_555
Na5 O21 2.406935 1_455
Na5 O27 2.411461 1_555
Na5 O41 2.465649 1_455
Na5 O6 2.663394 1_455
Na5 O5 2.869355 1_555
Na6 O12 2.370928 1_554
Na6 O46 2.496705 1_555
Na6 O44 2.511270 1_454
Na6 O29 2.530522 1_455
Na6 O25 2.542526 1_455
Na6 O42 2.615458 1_454
Na6 O33 2.905860 1_545
Na7 O13 2.370928 1_556
Na7 O47 2.496705 1_555
Na7 O45 2.511270 1_556
Na7 O28 2.530522 1_555
Na7 O24 2.542526 1_555
Na7 O43 2.615458 1_556
Na7 O32 2.905860 1_565
Na8 O19 2.425032 1_555
Na8 O14 2.454210 1_555
Na8 O30 2.458932 1_555
Na8 O39 2.596517 1_555
Na8 O21 2.623575 1_455
Na8 O5 2.655589 1_555
Na8 O28 2.676067 1_555
Na9 O18 2.425032 1_555
Na9 O15 2.454210 1_555
Na9 O31 2.458932 1_555
Na9 O38 2.596517 1_555
Na9 O20 2.623575 1_555
Na9 O4 2.655589 1_555
Na9 O29 2.676067 1_555
Na10 O36 2.381651 1_565
Na10 O18 2.402894 1_565
Na10 O43 2.409436 1_555
Na10 O7 2.469042 1_555
Na10 O13 2.593957 1_555
Na10 O22 2.702757 1_565
Na11 O37 2.381651 1_545
Na11 O19 2.402894 1_645
Na11 O42 2.409436 1_555
Na11 O6 2.469042 1_555
Na11 O12 2.593957 1_655
Na11 O23 2.702757 1_545
Hf0 O16 2.102757 1_555
Hf0 O8 2.110123 1_555
Hf0 O24 2.168408 1_545
Hf0 O32 2.186151 1_555
Hf0 O40 2.253783 1_555
Hf0 O0 2.255779 1_555
Hf0 O2 2.264757 1_555
Hf0 O34 2.320203 1_555
Hf1 O17 2.102757 1_555
Hf1 O9 2.110123 1_555
Hf1 O25 2.168408 1_565
Hf1 O33 2.186151 1_655
Hf1 O41 2.253783 1_555
Hf1 O1 2.255779 1_655
Hf1 O3 2.264757 1_655
Hf1 O35 2.320203 1_555
H0 O41 0.984933 1_555
H1 O40 0.984933 1_555
H2 O41 1.014907 1_555
H2 O29 1.647959 1_555
H3 O40 1.014907 1_555
H3 O28 1.647959 1_555
H4 O43 0.979401 1_546
H5 O42 0.979401 1_564
H6 O42 0.978330 1_555
H7 O43 0.978330 1_555
H8 O44 0.981381 1_555
H9 O45 0.981381 1_555
H10 O44 0.978791 1_555
H11 O45 0.978791 1_555
H12 O46 0.988009 1_555
H13 O47 0.988009 1_555
H14 O46 0.980477 1_555
H15 O47 0.980477 1_555
O0 S0 1.530639 1_555
O1 S1 1.530639 1_555
O2 S0 1.521857 1_555
O3 S1 1.521857 1_555
O4 S0 1.468322 1_555
O5 S1 1.468322 1_555
O6 S0 1.471445 1_555
O7 S1 1.471445 1_555
O8 S2 1.544499 1_555
O9 S3 1.544499 1_555
O10 S2 1.475686 1_555
O11 S3 1.475686 1_555
O12 S2 1.470602 1_555
O13 S3 1.470602 1_555
O14 S2 1.483389 1_555
O15 S3 1.483389 1_555
O16 S4 1.522758 1_555
O17 S5 1.522758 1_555
O18 S4 1.481927 1_555
O19 S5 1.481927 1_455
O20 S4 1.485430 1_555
O21 S5 1.485430 1_555
O22 S4 1.479310 1_555
O23 S5 1.479310 1_555
O24 S6 1.528872 1_555
O25 S7 1.528872 1_555
O26 S6 1.473964 1_555
O27 S7 1.473964 1_455
O28 S6 1.507955 1_555
O29 S7 1.507955 1_555
O30 S6 1.463234 1_555
O31 S7 1.463234 1_555
O32 S8 1.539294 1_555
O33 S9 1.539294 1_555
O34 S8 1.514856 1_555
O35 S9 1.514856 1_655
O36 S8 1.459284 1_554
O37 S9 1.459284 1_656
O38 S8 1.468949 1_554
O39 S9 1.468949 1_556
