# generated using pymatgen
data_Li2Ti2V3O10
_symmetry_space_group_name_H-M   'P 1'
_cell_length_a   5.14849813
_cell_length_b   7.73748258
_cell_length_c   10.46219472
_cell_angle_alpha   104.39594751
_cell_angle_beta   103.46170253
_cell_angle_gamma   78.20151557
_symmetry_Int_Tables_number   1
_chemical_formula_structural   Li2Ti2V3O10
_chemical_formula_sum   'Li4 Ti4 V6 O20'
_cell_volume   387.81575540
_cell_formula_units_Z   2
loop_
 _symmetry_equiv_pos_site_id
 _symmetry_equiv_pos_as_xyz
  1  'x, y, z'
loop_
 _atom_site_type_symbol
 _atom_site_label
 _atom_site_symmetry_multiplicity
 _atom_site_fract_x
 _atom_site_fract_y
 _atom_site_fract_z
 _atom_site_occupancy
  Li  Li0  1  0.55670100  0.39904900  0.11091400  1
  Li  Li1  1  0.54649600  0.39251000  0.60487700  1
  Li  Li2  1  0.45338100  0.60764800  0.39517700  1
  Li  Li3  1  0.44323600  0.60101000  0.88912600  1
  Ti  Ti0  1  0.02164300  0.68288000  0.06901500  1
  Ti  Ti1  1  0.00217700  0.68767300  0.55872500  1
  Ti  Ti2  1  0.99771400  0.31231700  0.44126300  1
  Ti  Ti3  1  0.97836600  0.31707600  0.93099800  1
  V  V0  1  0.49998600  0.00001800  0.49999200  1
  V  V1  1  0.95789000  0.88803100  0.84206300  1
  V  V2  1  0.04218400  0.11196500  0.15792400  1
  V  V3  1  0.50003200  0.99999100  0.99997000  1
  V  V4  1  0.96249200  0.89417200  0.34558400  1
  V  V5  1  0.03753100  0.10579200  0.65443300  1
  O  O0  1  0.21520300  0.85789700  0.01917600  1
  O  O1  1  0.21441500  0.86602500  0.53054400  1
  O  O2  1  0.78570500  0.13393900  0.46947100  1
  O  O3  1  0.78483600  0.14209300  0.98082500  1
  O  O4  1  0.76848600  0.51811500  0.02639200  1
  O  O5  1  0.77458200  0.50587500  0.52881100  1
  O  O6  1  0.22534800  0.49405700  0.47114700  1
  O  O7  1  0.23145900  0.48189500  0.97359400  1
  O  O8  1  0.79891900  0.93290400  0.15245500  1
  O  O9  1  0.78429500  0.93726000  0.66242300  1
  O  O10  1  0.21576800  0.06275200  0.33758800  1
  O  O11  1  0.20113000  0.06706800  0.84754500  1
  O  O12  1  0.28433100  0.20974300  0.10991100  1
  O  O13  1  0.27954600  0.22080000  0.59262700  1
  O  O14  1  0.72052400  0.77923400  0.40732500  1
  O  O15  1  0.71562700  0.79025800  0.89011100  1
  O  O16  1  0.17367500  0.68008800  0.24067000  1
  O  O17  1  0.15659100  0.69145800  0.74321800  1
  O  O18  1  0.84343300  0.30849500  0.25681100  1
  O  O19  1  0.82629500  0.31991200  0.75929400  1
loop_
_geom_bond_atom_site_label_1
_geom_bond_atom_site_label_2
_geom_bond_distance
_geom_bond_site_symmetry_2
Li0 O18 2.014892 1_555
Li0 O4 2.020995 1_555
Li0 O7 2.043966 1_554
Li0 O12 2.222053 1_555
Li0 O3 2.372476 1_554
Li1 O5 1.996286 1_555
Li1 O19 2.009343 1_555
Li1 O6 2.060820 1_555
Li1 O13 2.061703 1_555
Li1 O2 2.433468 1_555
Li2 O6 1.996581 1_555
Li2 O16 2.009376 1_555
Li2 O5 2.061061 1_555
Li2 O14 2.062018 1_555
Li2 O1 2.431812 1_555
Li3 O17 2.014436 1_555
Li3 O7 2.020839 1_555
Li3 O4 2.043778 1_556
Li3 O15 2.221840 1_555
Li3 O0 2.371723 1_556
O0 V1 2.046596 1_454
O0 Ti0 2.060030 1_555
O0 V3 2.075087 1_554
O0 V2 2.287400 1_565
O1 Ti1 2.038207 1_555
O1 V0 2.084628 1_565
O1 V4 2.097557 1_455
O1 V5 2.148045 1_565
O2 Ti2 2.037662 1_555
O2 V0 2.084749 1_555
O2 V5 2.097383 1_655
O2 V4 2.147841 1_545
O3 V2 2.046546 1_656
O3 Ti3 2.059644 1_555
O3 V3 2.074771 1_545
O3 V1 2.287511 1_545
O4 Ti3 1.904249 1_554
O4 Ti0 1.910275 1_655
O5 Ti2 1.872398 1_555
O5 Ti1 1.932379 1_655
O6 Ti1 1.872895 1_555
O6 Ti2 1.932209 1_455
O7 Ti0 1.903967 1_556
O7 Ti3 1.910362 1_455
O8 V3 2.030915 1_554
O8 V2 2.031819 1_665
O8 V4 2.070581 1_555
O8 Ti0 2.130408 1_655
O9 V1 1.977579 1_555
O9 V5 2.051220 1_665
O9 V0 2.056164 1_565
O9 Ti1 2.191747 1_655
O10 V2 1.977750 1_555
O10 V4 2.051689 1_445
O10 V0 2.055685 1_555
O10 Ti2 2.191937 1_455
O11 V3 2.030510 1_545
O11 V1 2.031535 1_445
O11 V5 2.070419 1_555
O11 Ti3 2.130456 1_455
O12 V2 1.801443 1_555
O12 V3 2.029711 1_544
O12 Ti3 2.353724 1_454
O13 V5 1.969068 1_555
O13 V0 2.010387 1_555
O13 Ti2 2.045046 1_455
O14 V4 1.968115 1_555
O14 V0 2.010785 1_565
O14 Ti1 2.045020 1_655
O15 V1 1.802122 1_555
O15 V3 2.028924 1_555
O15 Ti0 2.353908 1_656
O16 Ti0 1.787806 1_555
O16 V4 2.011443 1_455
O17 V1 1.871769 1_455
O17 Ti1 1.904080 1_555
O18 V2 1.871922 1_655
O18 Ti2 1.903519 1_555
O19 Ti3 1.788369 1_555
O19 V5 2.011482 1_655
