# generated using pymatgen
data_Li5MnO3F
_symmetry_space_group_name_H-M   'P 1'
_cell_length_a   4.75085900
_cell_length_b   6.70323445
_cell_length_c   6.71295634
_cell_angle_alpha   89.83824536
_cell_angle_beta   89.71491782
_cell_angle_gamma   89.68789568
_symmetry_Int_Tables_number   1
_chemical_formula_structural   Li5MnO3F
_chemical_formula_sum   'Li10 Mn2 O6 F2'
_cell_volume   213.77497098
_cell_formula_units_Z   2
loop_
 _symmetry_equiv_pos_site_id
 _symmetry_equiv_pos_as_xyz
  1  'x, y, z'
loop_
 _atom_site_type_symbol
 _atom_site_label
 _atom_site_symmetry_multiplicity
 _atom_site_fract_x
 _atom_site_fract_y
 _atom_site_fract_z
 _atom_site_occupancy
  Li  Li0  1  0.95703500  0.30445300  0.24749100  1
  Li  Li1  1  0.03325600  0.54145200  0.97859100  1
  Li  Li2  1  0.54192700  0.50755800  0.97718600  1
  Li  Li3  1  0.55850500  0.81590500  0.20206700  1
  Li  Li4  1  0.01759300  0.30281900  0.70066700  1
  Li  Li5  1  0.51514000  0.22967200  0.77252200  1
  Li  Li6  1  0.46532700  0.04671900  0.47217400  1
  Li  Li7  1  0.95693200  0.00805800  0.47824400  1
  Li  Li8  1  0.97993600  0.72155400  0.67686300  1
  Li  Li9  1  0.48028300  0.80291000  0.74857900  1
  Mn  Mn0  1  0.98073400  0.01203200  0.96306200  1
  Mn  Mn1  1  0.51859800  0.51394700  0.48275700  1
  O  O0  1  0.81158200  0.29202000  0.97118600  1
  O  O1  1  0.74261600  0.25741100  0.49257100  1
  O  O2  1  0.75784400  0.75589800  0.95664300  1
  O  O3  1  0.28028200  0.52345400  0.74275700  1
  O  O4  1  0.68738400  0.79392300  0.47814700  1
  O  O5  1  0.22152800  0.02619600  0.70710300  1
  F  F0  1  0.27550700  0.51733200  0.20480900  1
  F  F1  1  0.21799000  0.02668200  0.24657900  1
loop_
_geom_bond_atom_site_label_1
_geom_bond_atom_site_label_2
_geom_bond_distance
_geom_bond_site_symmetry_2
Li0 O1 1.956463 1_555
Li0 O0 1.984714 1_554
Li1 O2 1.944304 1_455
Li1 O3 1.969581 1_555
Li1 O0 1.981752 1_455
Li2 O0 1.926116 1_555
Li2 O2 1.964263 1_555
Li2 O3 2.012497 1_555
Li3 O2 1.938313 1_554
Li3 O4 1.959628 1_555
Li4 O1 1.943091 1_455
Li4 O3 1.962309 1_555
Li4 O0 2.059924 1_455
Li4 O5 2.087887 1_555
Li5 O0 1.991213 1_555
Li5 O5 2.007283 1_555
Li5 O1 2.171237 1_555
Li5 O3 2.266946 1_555
Li6 O1 1.942160 1_555
Li6 O5 1.957028 1_555
Li6 O4 1.991636 1_545
Li7 O4 1.928808 1_545
Li7 O1 1.954779 1_555
Li7 O5 1.994291 1_655
Li8 O4 1.988469 1_555
Li8 O3 1.994338 1_655
Li8 O2 2.161902 1_555
Li8 O5 2.357731 1_665
Li9 O2 1.949438 1_555
Li9 O5 1.951910 1_565
Li9 O4 2.061449 1_555
Li9 O3 2.105620 1_555
Mn0 O2 2.022790 1_545
Mn0 O0 2.038371 1_555
Mn0 O5 2.061736 1_655
Mn1 O1 2.018476 1_555
Mn1 O4 2.044984 1_555
Mn1 O3 2.076642 1_555
F0 Li1 1.915936 1_554
F0 Li2 1.980308 1_554
F0 Li0 2.103444 1_455
F0 Mn1 2.199230 1_555
F0 Li3 2.417118 1_555
F1 Li6 1.926869 1_555
F1 Li7 1.988395 1_455
F1 Li3 2.162241 1_545
F1 Mn0 2.219477 1_454
F1 Li0 2.231321 1_455
