# generated using pymatgen
data_Li17(CoO4)4
_symmetry_space_group_name_H-M   'P 1'
_cell_length_a   6.66081300
_cell_length_b   7.44153200
_cell_length_c   7.89323992
_cell_angle_alpha   88.76757866
_cell_angle_beta   90.00000000
_cell_angle_gamma   90.00000000
_symmetry_Int_Tables_number   1
_chemical_formula_structural   Li17(CoO4)4
_chemical_formula_sum   'Li17 Co4 O16'
_cell_volume   391.15098009
_cell_formula_units_Z   1
loop_
 _symmetry_equiv_pos_site_id
 _symmetry_equiv_pos_as_xyz
  1  'x, y, z'
loop_
 _atom_site_type_symbol
 _atom_site_label
 _atom_site_symmetry_multiplicity
 _atom_site_fract_x
 _atom_site_fract_y
 _atom_site_fract_z
 _atom_site_occupancy
  Li  Li0  1  0.24771600  0.50201900  0.98490400  1
  Li  Li1  1  0.75228400  0.50201900  0.98490400  1
  Li  Li2  1  0.50000000  0.76578000  0.06674400  1
  Li  Li3  1  0.24468300  0.98370800  0.16041000  1
  Li  Li4  1  0.75531700  0.98370800  0.16041000  1
  Li  Li5  1  0.25603500  0.46713300  0.33824900  1
  Li  Li6  1  0.74396500  0.46713300  0.33824900  1
  Li  Li7  1  0.00000000  0.24194200  0.45357700  1
  Li  Li8  1  0.72547200  0.00669900  0.50917600  1
  Li  Li9  1  0.27452800  0.00669900  0.50917600  1
  Li  Li10  1  0.00000000  0.75347400  0.53717900  1
  Li  Li11  1  0.23456100  0.49527800  0.66936800  1
  Li  Li12  1  0.76543900  0.49527800  0.66936800  1
  Li  Li13  1  0.50000000  0.75266100  0.72226400  1
  Li  Li14  1  0.75921100  0.03709900  0.82587600  1
  Li  Li15  1  0.24078900  0.03709900  0.82587600  1
  Li  Li16  1  0.50000000  0.25244000  0.94906400  1
  Co  Co0  1  0.00000000  0.23666600  0.12237500  1
  Co  Co1  1  0.50000000  0.72688700  0.38325000  1
  Co  Co2  1  0.50000000  0.27081800  0.62104400  1
  Co  Co3  1  0.00000000  0.77380400  0.87339400  1
  O  O0  1  0.23093700  0.21163100  0.00860300  1
  O  O1  1  0.76906300  0.21163100  0.00860300  1
  O  O2  1  0.00000000  0.44972400  0.22173600  1
  O  O3  1  0.50000000  0.55725200  0.22022100  1
  O  O4  1  0.00000000  0.05315200  0.28393900  1
  O  O5  1  0.50000000  0.94322300  0.27871600  1
  O  O6  1  0.27870800  0.70448100  0.51174100  1
  O  O7  1  0.72129200  0.70448100  0.51174100  1
  O  O8  1  0.25664600  0.28947900  0.52257700  1
  O  O9  1  0.74335400  0.28947900  0.52257700  1
  O  O10  1  0.50000000  0.02647400  0.70464400  1
  O  O11  1  0.00000000  0.94498800  0.70165800  1
  O  O12  1  0.50000000  0.46513600  0.79559100  1
  O  O13  1  0.00000000  0.54762900  0.80063000  1
  O  O14  1  0.23863200  0.80114200  0.97638700  1
  O  O15  1  0.76136800  0.80114200  0.97638700  1
loop_
_geom_bond_atom_site_label_1
_geom_bond_atom_site_label_2
_geom_bond_distance
_geom_bond_site_symmetry_2
Li0 O0 2.167884 1_556
Li0 O13 2.220823 1_555
Li0 O14 2.226325 1_555
Li0 O12 2.269292 1_555
Li0 O2 2.517373 1_556
Li0 O3 2.544712 1_556
Li1 O1 2.167884 1_556
Li1 O13 2.220823 1_655
Li1 O15 2.226325 1_555
Li1 O12 2.269292 1_555
Li1 O2 2.517373 1_656
Li1 O3 2.544712 1_556
Li2 O14 1.897539 1_554
Li2 O15 1.897539 1_554
Li2 O3 1.947995 1_555
Li2 O5 2.153610 1_555
Li3 O5 1.960301 1_555
Li3 O4 1.973739 1_565
Li3 O14 2.010495 1_554
Li3 O0 2.057548 1_565
Li4 O5 1.960301 1_555
Li4 O4 1.973739 1_665
Li4 O15 2.010495 1_554
Li4 O1 2.057548 1_565
Li5 O2 1.943215 1_555
Li5 O8 1.944704 1_555
Li5 O3 1.982782 1_555
Li5 O6 2.263123 1_555
Li6 O2 1.943215 1_655
Li6 O9 1.944704 1_555
Li6 O3 1.982782 1_555
Li6 O7 2.263123 1_555
Li7 O8 1.830940 1_555
Li7 O9 1.830940 1_455
Li7 O4 1.961512 1_555
Li7 O2 2.370207 1_555
Li8 O9 2.112605 1_555
Li8 O10 2.160410 1_555
Li8 O7 2.248793 1_545
Li8 O5 2.413422 1_545
Li8 O11 2.415134 1_645
Li8 O4 2.568562 1_655
Li9 O8 2.112605 1_555
Li9 O10 2.160410 1_555
Li9 O6 2.248793 1_545
Li9 O5 2.413422 1_545
Li9 O11 2.415134 1_545
Li9 O4 2.568562 1_555
Li10 O7 1.903336 1_455
Li10 O6 1.903336 1_555
Li10 O11 1.948378 1_555
Li11 O13 1.919267 1_555
Li11 O8 1.945719 1_555
Li11 O6 1.993677 1_555
Li11 O12 2.039434 1_555
Li12 O13 1.919267 1_655
Li12 O9 1.945719 1_555
Li12 O7 1.993677 1_555
Li12 O12 2.039434 1_555
Li13 O10 2.039343 1_565
Li13 O12 2.204479 1_555
Li13 O6 2.255677 1_555
Li13 O7 2.255677 1_555
Li14 O1 1.962647 1_556
Li14 O10 1.976407 1_555
Li14 O11 2.008091 1_645
Li14 O15 2.098805 1_545
Li15 O0 1.962647 1_556
Li15 O10 1.976407 1_555
Li15 O11 2.008091 1_545
Li15 O14 2.098805 1_545
Li16 O0 1.875858 1_556
Li16 O1 1.875858 1_556
Li16 O12 1.972363 1_555
Co0 O2 1.783907 1_555
Co0 O1 1.792905 1_455
Co0 O0 1.792905 1_555
Co0 O4 1.848328 1_555
Co1 O5 1.793141 1_555
Co1 O6 1.794932 1_555
Co1 O7 1.794932 1_555
Co1 O3 1.821898 1_555
Co2 O9 1.801707 1_555
Co2 O8 1.801707 1_555
Co2 O10 1.920941 1_555
Co2 O12 2.018627 1_555
Co3 O13 1.790039 1_555
Co3 O15 1.798845 1_455
Co3 O14 1.798845 1_555
Co3 O11 1.840107 1_555
