# generated using pymatgen
data_PrTiO3
_symmetry_space_group_name_H-M   'P 1'
_cell_length_a   5.53697762
_cell_length_b   5.53697762
_cell_length_c   5.53697744
_cell_angle_alpha   61.66746208
_cell_angle_beta   61.66746208
_cell_angle_gamma   61.66745346
_symmetry_Int_Tables_number   1
_chemical_formula_structural   PrTiO3
_chemical_formula_sum   'Pr2 Ti2 O6'
_cell_volume   124.52131208
_cell_formula_units_Z   2
loop_
 _symmetry_equiv_pos_site_id
 _symmetry_equiv_pos_as_xyz
  1  'x, y, z'
loop_
 _atom_site_type_symbol
 _atom_site_label
 _atom_site_symmetry_multiplicity
 _atom_site_fract_x
 _atom_site_fract_y
 _atom_site_fract_z
 _atom_site_occupancy
  Pr  Pr0  1  0.25000000  0.25000000  0.25000000  1
  Pr  Pr1  1  0.75000000  0.75000000  0.75000000  1
  Ti  Ti0  1  0.00000000  0.00000000  0.00000000  1
  Ti  Ti1  1  0.50000000  0.50000000  0.50000000  1
  O  O0  1  0.75000000  0.17079600  0.32920400  1
  O  O1  1  0.67079600  0.25000000  0.82920400  1
  O  O2  1  0.82920400  0.67079600  0.25000000  1
  O  O3  1  0.17079600  0.32920400  0.75000000  1
  O  O4  1  0.32920400  0.75000000  0.17079600  1
  O  O5  1  0.25000000  0.82920400  0.67079600  1
loop_
_geom_bond_atom_site_label_1
_geom_bond_atom_site_label_2
_geom_bond_distance
_geom_bond_site_symmetry_2
O0 Ti1 2.032671 1_555
O0 Ti0 2.032671 1_655
O0 Pr1 2.388412 1_545
O0 Pr0 2.804752 1_555
O0 Pr0 2.804752 1_655
O1 Ti0 2.032671 1_656
O1 Ti1 2.032671 1_555
O1 Pr0 2.388412 1_556
O1 Pr1 2.804752 1_545
O1 Pr1 2.804752 1_555
O2 Ti0 2.032671 1_665
O2 Ti1 2.032671 1_555
O2 Pr0 2.388412 1_655
O2 Pr1 2.804752 1_555
O2 Pr1 2.804752 1_554
O3 Ti0 2.032671 1_556
O3 Ti1 2.032671 1_555
O3 Pr1 2.388412 1_455
O3 Pr0 2.804752 1_555
O3 Pr0 2.804752 1_556
O4 Ti0 2.032671 1_565
O4 Ti1 2.032671 1_555
O4 Pr1 2.388412 1_554
O4 Pr0 2.804752 1_565
O4 Pr0 2.804752 1_555
O5 Ti1 2.032671 1_555
O5 Ti0 2.032671 1_566
O5 Pr0 2.388412 1_565
O5 Pr1 2.804752 1_555
O5 Pr1 2.804752 1_455
