# generated using pymatgen
data_Li4Ti4V5O18
_symmetry_space_group_name_H-M   'P 1'
_cell_length_a   2.97339300
_cell_length_b   9.14852900
_cell_length_c   25.37718500
_cell_angle_alpha   90.00000000
_cell_angle_beta   90.00000000
_cell_angle_gamma   90.00000000
_symmetry_Int_Tables_number   1
_chemical_formula_structural   Li4Ti4V5O18
_chemical_formula_sum   'Li8 Ti8 V10 O36'
_cell_volume   690.31455350
_cell_formula_units_Z   2
loop_
 _symmetry_equiv_pos_site_id
 _symmetry_equiv_pos_as_xyz
  1  'x, y, z'
loop_
 _atom_site_type_symbol
 _atom_site_label
 _atom_site_symmetry_multiplicity
 _atom_site_fract_x
 _atom_site_fract_y
 _atom_site_fract_z
 _atom_site_occupancy
  Li  Li0  1  0.00000000  0.69241900  0.99033500  1
  Li  Li1  1  0.00000000  0.68212200  0.20127600  1
  Li  Li2  1  0.00000000  0.81787800  0.70127600  1
  Li  Li3  1  0.00000000  0.80758100  0.49033500  1
  Li  Li4  1  0.00000000  0.19241900  0.50966500  1
  Li  Li5  1  0.00000000  0.18212200  0.29872400  1
  Li  Li6  1  0.00000000  0.31787800  0.79872400  1
  Li  Li7  1  0.00000000  0.30758100  0.00966500  1
  Ti  Ti0  1  0.00000000  0.50293500  0.10212700  1
  Ti  Ti1  1  0.50000000  0.64748300  0.80516700  1
  Ti  Ti2  1  0.50000000  0.85251700  0.30516700  1
  Ti  Ti3  1  0.00000000  0.99706500  0.60212700  1
  Ti  Ti4  1  0.00000000  0.00293500  0.39787300  1
  Ti  Ti5  1  0.50000000  0.14748300  0.69483300  1
  Ti  Ti6  1  0.50000000  0.35251700  0.19483300  1
  Ti  Ti7  1  0.00000000  0.49706500  0.89787300  1
  V  V0  1  0.00000000  0.50000000  0.50000000  1
  V  V1  1  0.00000000  0.51763600  0.30976600  1
  V  V2  1  0.50000000  0.64619500  0.58538400  1
  V  V3  1  0.50000000  0.85380500  0.08538400  1
  V  V4  1  0.00000000  0.98236400  0.80976600  1
  V  V5  1  0.00000000  0.00000000  0.00000000  1
  V  V6  1  0.00000000  0.01763600  0.19023400  1
  V  V7  1  0.50000000  0.14619500  0.91461600  1
  V  V8  1  0.50000000  0.35380500  0.41461600  1
  V  V9  1  0.00000000  0.48236400  0.69023400  1
  O  O0  1  0.00000000  0.49991800  0.42521500  1
  O  O1  1  0.00000000  0.50008200  0.57478500  1
  O  O2  1  0.50000000  0.55806900  0.94044400  1
  O  O3  1  0.50000000  0.54990800  0.15864900  1
  O  O4  1  0.50000000  0.60389700  0.66249400  1
  O  O5  1  0.00000000  0.59480600  0.75767200  1
  O  O6  1  0.50000000  0.64839900  0.50403400  1
  O  O7  1  0.50000000  0.65071900  0.28222100  1
  O  O8  1  0.00000000  0.68572500  0.85389400  1
  O  O9  1  0.00000000  0.70142800  0.08274700  1
  O  O10  1  0.00000000  0.79857200  0.58274700  1
  O  O11  1  0.00000000  0.81427500  0.35389400  1
  O  O12  1  0.50000000  0.84928100  0.78222100  1
  O  O13  1  0.50000000  0.85160100  0.00403400  1
  O  O14  1  0.00000000  0.90519400  0.25767200  1
  O  O15  1  0.50000000  0.89610300  0.16249400  1
  O  O16  1  0.50000000  0.95009200  0.65864900  1
  O  O17  1  0.50000000  0.94193100  0.44044400  1
  O  O18  1  0.00000000  0.99991800  0.07478500  1
  O  O19  1  0.00000000  0.00008200  0.92521500  1
  O  O20  1  0.50000000  0.05806900  0.55955600  1
  O  O21  1  0.50000000  0.04990800  0.34135100  1
  O  O22  1  0.50000000  0.10389700  0.83750600  1
  O  O23  1  0.00000000  0.09480600  0.74232800  1
  O  O24  1  0.50000000  0.14839900  0.99596600  1
  O  O25  1  0.50000000  0.15071900  0.21777900  1
  O  O26  1  0.00000000  0.18572500  0.64610600  1
  O  O27  1  0.00000000  0.20142800  0.41725300  1
  O  O28  1  0.00000000  0.29857200  0.91725300  1
  O  O29  1  0.00000000  0.31427500  0.14610600  1
  O  O30  1  0.50000000  0.34928100  0.71777900  1
  O  O31  1  0.50000000  0.35160100  0.49596600  1
  O  O32  1  0.00000000  0.40519400  0.24232800  1
  O  O33  1  0.50000000  0.39610300  0.33750600  1
  O  O34  1  0.50000000  0.45009200  0.84135100  1
  O  O35  1  0.50000000  0.44193100  0.05955600  1
loop_
_geom_bond_atom_site_label_1
_geom_bond_atom_site_label_2
_geom_bond_distance
_geom_bond_site_symmetry_2
Li0 O13 2.109947 1_556
Li0 O13 2.109947 1_456
Li0 O2 2.307370 1_455
Li0 O2 2.307370 1_555
Li0 O9 2.346604 1_556
Li1 O3 2.200795 1_455
Li1 O3 2.200795 1_555
Li1 O14 2.492597 1_555
Li1 O7 2.551933 1_455
Li1 O7 2.551933 1_555
Li1 O15 2.647851 1_455
Li1 O15 2.647851 1_555
Li2 O16 2.200795 1_455
Li2 O16 2.200795 1_555
Li2 O5 2.492597 1_555
Li2 O12 2.551933 1_455
Li2 O12 2.551933 1_555
Li2 O4 2.647851 1_555
Li2 O4 2.647851 1_455
Li3 O6 2.109947 1_455
Li3 O6 2.109947 1_555
Li3 O17 2.307370 1_455
Li3 O17 2.307370 1_555
Li3 O10 2.346604 1_555
Li4 O31 2.109947 1_555
Li4 O31 2.109947 1_455
Li4 O20 2.307370 1_555
Li4 O20 2.307370 1_455
Li4 O27 2.346604 1_555
Li5 O21 2.200795 1_455
Li5 O21 2.200795 1_555
Li5 O32 2.492597 1_555
Li5 O25 2.551933 1_455
Li5 O25 2.551933 1_555
Li5 O33 2.647851 1_555
Li5 O33 2.647851 1_455
Li6 O34 2.200795 1_455
Li6 O34 2.200795 1_555
Li6 O23 2.492597 1_555
Li6 O30 2.551933 1_455
Li6 O30 2.551933 1_555
Li6 O22 2.647851 1_455
Li6 O22 2.647851 1_555
Li7 O24 2.109947 1_454
Li7 O24 2.109947 1_554
Li7 O35 2.307370 1_455
Li7 O35 2.307370 1_555
Li7 O28 2.346604 1_554
O0 V0 1.897833 1_555
O0 V8 2.017283 1_555
O0 V8 2.017283 1_455
O1 V0 1.897833 1_555
O1 V2 2.017283 1_455
O1 V2 2.017283 1_555
O2 Ti7 1.920640 1_555
O2 Ti7 1.920640 1_655
O3 Ti6 2.025889 1_555
O3 Ti0 2.110060 1_655
O3 Ti0 2.110060 1_555
O4 V9 1.985456 1_555
O4 V9 1.985456 1_655
O4 V2 1.994729 1_555
O5 Ti1 1.973634 1_555
O5 Ti1 1.973634 1_455
O5 V9 1.996753 1_555
O6 V0 2.015915 1_555
O6 V0 2.015915 1_655
O6 V2 2.064532 1_555
O7 Ti2 1.935812 1_555
O7 V1 2.044805 1_555
O7 V1 2.044805 1_655
O8 Ti1 1.965129 1_555
O8 Ti1 1.965129 1_455
O8 Ti7 2.055369 1_555
O9 Ti0 1.881340 1_555
O9 V3 2.039130 1_555
O9 V3 2.039130 1_455
O10 Ti3 1.881340 1_555
O10 V2 2.039130 1_455
O10 V2 2.039130 1_555
O11 Ti2 1.965129 1_455
O11 Ti2 1.965129 1_555
O11 Ti4 2.055369 1_565
O12 Ti1 1.935812 1_555
O12 V4 2.044805 1_655
O12 V4 2.044805 1_555
O13 V5 2.015915 1_565
O13 V5 2.015915 1_665
O13 V3 2.064532 1_555
O14 Ti2 1.973634 1_455
O14 Ti2 1.973634 1_555
O14 V6 1.996753 1_565
O15 V6 1.985456 1_665
O15 V6 1.985456 1_565
O15 V3 1.994729 1_555
O16 Ti5 2.025889 1_565
O16 Ti3 2.110060 1_655
O16 Ti3 2.110060 1_555
O17 Ti4 1.920640 1_665
O17 Ti4 1.920640 1_565
O18 V5 1.897833 1_565
O18 V3 2.017283 1_555
O18 V3 2.017283 1_455
O19 V5 1.897833 1_556
O19 V7 2.017283 1_455
O19 V7 2.017283 1_555
O20 Ti3 1.920640 1_545
O20 Ti3 1.920640 1_645
O21 Ti2 2.025889 1_545
O21 Ti4 2.110060 1_655
O21 Ti4 2.110060 1_555
O22 V4 1.985456 1_645
O22 V4 1.985456 1_545
O22 V7 1.994729 1_555
O23 Ti5 1.973634 1_455
O23 Ti5 1.973634 1_555
O23 V4 1.996753 1_545
O24 V5 2.015915 1_656
O24 V5 2.015915 1_556
O24 V7 2.064532 1_555
O25 Ti6 1.935812 1_555
O25 V6 2.044805 1_655
O25 V6 2.044805 1_555
O26 Ti5 1.965129 1_455
O26 Ti5 1.965129 1_555
O26 Ti3 2.055369 1_545
O27 Ti4 1.881340 1_555
O27 V8 2.039130 1_555
O27 V8 2.039130 1_455
O28 Ti7 1.881340 1_555
O28 V7 2.039130 1_555
O28 V7 2.039130 1_455
O29 Ti6 1.965129 1_555
O29 Ti6 1.965129 1_455
O29 Ti0 2.055369 1_555
O30 Ti5 1.935812 1_555
O30 V9 2.044805 1_655
O30 V9 2.044805 1_555
O31 V0 2.015915 1_655
O31 V0 2.015915 1_555
O31 V8 2.064532 1_555
O32 Ti6 1.973634 1_455
O32 Ti6 1.973634 1_555
O32 V1 1.996753 1_555
O33 V1 1.985456 1_555
O33 V1 1.985456 1_655
O33 V8 1.994729 1_555
O34 Ti1 2.025889 1_555
O34 Ti7 2.110060 1_555
O34 Ti7 2.110060 1_655
O35 Ti0 1.920640 1_555
O35 Ti0 1.920640 1_655
