# generated using pymatgen
data_Na3BiO3
_symmetry_space_group_name_H-M   'P 1'
_cell_length_a   10.34101100
_cell_length_b   10.35410945
_cell_length_c   11.33847476
_cell_angle_alpha   108.59932792
_cell_angle_beta   113.44722661
_cell_angle_gamma   89.07426693
_symmetry_Int_Tables_number   1
_chemical_formula_structural   Na3BiO3
_chemical_formula_sum   'Na24 Bi8 O24'
_cell_volume   1047.01723769
_cell_formula_units_Z   8
loop_
 _symmetry_equiv_pos_site_id
 _symmetry_equiv_pos_as_xyz
  1  'x, y, z'
loop_
 _atom_site_type_symbol
 _atom_site_label
 _atom_site_symmetry_multiplicity
 _atom_site_fract_x
 _atom_site_fract_y
 _atom_site_fract_z
 _atom_site_occupancy
  Na  Na0  1  0.48859800  0.08017200  0.91351900  1
  Na  Na1  1  0.35182400  0.07730100  0.52769100  1
  Na  Na2  1  0.89962500  0.09038900  0.48722700  1
  Na  Na3  1  0.60996000  0.15323300  0.35898700  1
  Na  Na4  1  0.43535000  0.29664000  0.77386200  1
  Na  Na5  1  0.13640700  0.33036500  0.58538000  1
  Na  Na6  1  0.89411700  0.34911500  0.65985700  1
  Na  Na7  1  0.27152100  0.49549000  0.94198800  1
  Na  Na8  1  0.57225800  0.40925700  0.61591200  1
  Na  Na9  1  0.87470900  0.51872600  0.89154200  1
  Na  Na10  1  0.51326500  0.32781800  0.15847400  1
  Na  Na11  1  0.27770000  0.53669000  0.55467000  1
  Na  Na12  1  0.72230000  0.46331000  0.44533000  1
  Na  Na13  1  0.48673500  0.67218200  0.84152600  1
  Na  Na14  1  0.12529100  0.48127400  0.10845800  1
  Na  Na15  1  0.42774200  0.59074300  0.38408800  1
  Na  Na16  1  0.72847900  0.50451000  0.05801200  1
  Na  Na17  1  0.10588300  0.65088500  0.34014300  1
  Na  Na18  1  0.86359300  0.66963500  0.41462000  1
  Na  Na19  1  0.56465000  0.70336000  0.22613800  1
  Na  Na20  1  0.39004000  0.84676700  0.64101300  1
  Na  Na21  1  0.10037500  0.90961100  0.51277300  1
  Na  Na22  1  0.64817600  0.92269900  0.47230900  1
  Na  Na23  1  0.51140200  0.91982800  0.08648100  1
  Bi  Bi0  1  0.15286700  0.17749600  0.84595400  1
  Bi  Bi1  1  0.73415600  0.16579400  0.78305400  1
  Bi  Bi2  1  0.28986500  0.27034800  0.32082100  1
  Bi  Bi3  1  0.83592200  0.26504500  0.23491200  1
  Bi  Bi4  1  0.16407800  0.73495500  0.76508800  1
  Bi  Bi5  1  0.71013500  0.72965200  0.67917900  1
  Bi  Bi6  1  0.26584400  0.83420600  0.21694600  1
  Bi  Bi7  1  0.84713300  0.82250400  0.15404600  1
  O  O0  1  0.52925700  0.06645400  0.72135700  1
  O  O1  1  0.13412200  0.13655400  0.64551100  1
  O  O2  1  0.73604400  0.14917700  0.59192600  1
  O  O3  1  0.36086800  0.27903600  0.93811200  1
  O  O4  1  0.05530700  0.36066400  0.87597000  1
  O  O5  1  0.64327400  0.13435500  0.15059900  1
  O  O6  1  0.67535400  0.36498700  0.83354700  1
  O  O7  1  0.33113500  0.29849700  0.52643800  1
  O  O8  1  0.88626800  0.29156300  0.44082200  1
  O  O9  1  0.49557600  0.34906900  0.36353900  1
  O  O10  1  0.25830900  0.55107300  0.75831100  1
  O  O11  1  0.79371800  0.54580500  0.68216200  1
  O  O12  1  0.20628200  0.45419500  0.31783800  1
  O  O13  1  0.74169100  0.44892700  0.24168900  1
  O  O14  1  0.50442400  0.65093100  0.63646100  1
  O  O15  1  0.11373200  0.70843700  0.55917800  1
  O  O16  1  0.66886500  0.70150300  0.47356200  1
  O  O17  1  0.32464600  0.63501300  0.16645300  1
  O  O18  1  0.35672600  0.86564500  0.84940100  1
  O  O19  1  0.94469300  0.63933600  0.12403000  1
  O  O20  1  0.63913200  0.72096400  0.06188800  1
  O  O21  1  0.26395600  0.85082300  0.40807400  1
  O  O22  1  0.86587800  0.86344600  0.35448900  1
  O  O23  1  0.47074300  0.93354600  0.27864300  1
loop_
_geom_bond_atom_site_label_1
_geom_bond_atom_site_label_2
_geom_bond_distance
_geom_bond_site_symmetry_2
Na0 O0 2.339642 1_555
Na0 O18 2.366618 1_545
Na0 O5 2.396760 1_556
Na0 O3 2.429222 1_555
Na1 O0 2.268348 1_555
Na1 O21 2.285469 1_545
Na1 O7 2.300847 1_555
Na2 O22 2.293696 1_545
Na2 O8 2.294932 1_555
Na2 O1 2.314430 1_655
Na2 O2 2.396903 1_555
Na3 O9 2.327597 1_555
Na3 O23 2.411814 1_545
Na3 O2 2.450723 1_555
Na3 O5 2.467937 1_555
Na3 O8 2.872488 1_555
Na4 O3 2.336104 1_555
Na4 O6 2.352266 1_555
Na4 O0 2.541275 1_555
Na4 O7 2.580666 1_555
Na5 O1 2.319379 1_555
Na5 O7 2.349315 1_555
Na5 O8 2.403830 1_455
Na5 O10 2.433881 1_555
Na6 O11 2.258649 1_555
Na6 O4 2.316513 1_655
Na6 O8 2.329522 1_555
Na6 O2 2.375116 1_555
Na7 O10 2.285336 1_555
Na7 O17 2.331061 1_556
Na7 O4 2.368678 1_555
Na7 O3 2.404390 1_555
Na8 O11 2.421979 1_555
Na8 O7 2.428762 1_555
Na8 O6 2.459295 1_555
Na8 O9 2.505622 1_555
Na8 O14 2.551350 1_555
Na9 O11 2.291476 1_555
Na9 O19 2.333063 1_556
Na9 O6 2.361304 1_555
Na9 O4 2.485303 1_655
Na10 O3 2.251371 1_554
Na10 O9 2.344972 1_555
Na10 O13 2.368500 1_555
Na10 O5 2.392159 1_555
Na11 O14 2.327161 1_555
Na11 O12 2.337720 1_555
Na11 O10 2.354128 1_555
Na11 O15 2.439983 1_555
Na11 O7 2.466465 1_555
Na12 O9 2.327161 1_555
Na12 O11 2.337720 1_555
Na12 O13 2.354128 1_555
Na12 O8 2.439983 1_555
Na12 O16 2.466465 1_555
Na13 O20 2.251371 1_556
Na13 O14 2.344972 1_555
Na13 O10 2.368500 1_555
Na13 O18 2.392159 1_555
Na14 O12 2.291476 1_555
Na14 O4 2.333063 1_554
Na14 O17 2.361304 1_555
Na14 O19 2.485303 1_455
Na15 O12 2.421979 1_555
Na15 O16 2.428762 1_555
Na15 O17 2.459295 1_555
Na15 O14 2.505622 1_555
Na15 O9 2.551350 1_555
Na16 O13 2.285336 1_555
Na16 O6 2.331061 1_554
Na16 O19 2.368678 1_555
Na16 O20 2.404390 1_555
Na17 O12 2.258649 1_555
Na17 O19 2.316513 1_455
Na17 O15 2.329522 1_555
Na17 O21 2.375116 1_555
Na18 O22 2.319379 1_555
Na18 O16 2.349315 1_555
Na18 O15 2.403830 1_655
Na18 O13 2.433881 1_555
Na19 O20 2.336104 1_555
Na19 O17 2.352266 1_555
Na19 O23 2.541275 1_555
Na19 O16 2.580666 1_555
Na20 O14 2.327597 1_555
Na20 O0 2.411814 1_565
Na20 O21 2.450723 1_555
Na20 O18 2.467937 1_555
Na20 O15 2.872488 1_555
Na21 O1 2.293696 1_565
Na21 O15 2.294932 1_555
Na21 O22 2.314430 1_455
Na21 O21 2.396903 1_555
Na22 O23 2.268348 1_555
Na22 O2 2.285469 1_565
Na22 O16 2.300847 1_555
Na23 O23 2.339642 1_555
Na23 O5 2.366618 1_565
Na23 O18 2.396760 1_554
Na23 O20 2.429222 1_555
Bi0 O3 2.099384 1_555
Bi0 O1 2.102382 1_555
Bi0 O4 2.128426 1_555
Bi1 O6 2.105846 1_555
Bi1 O0 2.113945 1_555
Bi1 O2 2.126505 1_555
Bi2 O12 2.082413 1_555
Bi2 O9 2.099625 1_555
Bi2 O7 2.116883 1_555
Bi3 O8 2.103729 1_555
Bi3 O5 2.111887 1_555
Bi3 O13 2.118189 1_555
Bi4 O15 2.103729 1_555
Bi4 O18 2.111887 1_555
Bi4 O10 2.118189 1_555
Bi5 O11 2.082413 1_555
Bi5 O14 2.099625 1_555
Bi5 O16 2.116883 1_555
Bi6 O17 2.105846 1_555
Bi6 O23 2.113945 1_555
Bi6 O21 2.126505 1_555
Bi7 O20 2.099384 1_555
Bi7 O22 2.102382 1_555
Bi7 O19 2.128426 1_555
