# generated using pymatgen
data_LiCrPO5
_symmetry_space_group_name_H-M   'P 1'
_cell_length_a   11.85319100
_cell_length_b   5.56780400
_cell_length_c   5.77219091
_cell_angle_alpha   83.61826807
_cell_angle_beta   90.00000000
_cell_angle_gamma   90.00000000
_symmetry_Int_Tables_number   1
_chemical_formula_structural   LiCrPO5
_chemical_formula_sum   'Li4 Cr4 P4 O20'
_cell_volume   378.58237350
_cell_formula_units_Z   4
loop_
 _symmetry_equiv_pos_site_id
 _symmetry_equiv_pos_as_xyz
  1  'x, y, z'
loop_
 _atom_site_type_symbol
 _atom_site_label
 _atom_site_symmetry_multiplicity
 _atom_site_fract_x
 _atom_site_fract_y
 _atom_site_fract_z
 _atom_site_occupancy
  Li  Li0  1  0.25810800  0.82217600  0.65296300  1
  Li  Li1  1  0.24189200  0.82217600  0.15296300  1
  Li  Li2  1  0.75810800  0.17782400  0.84703700  1
  Li  Li3  1  0.74189200  0.17782400  0.34703700  1
  Cr  Cr0  1  0.58063100  0.81770100  0.57127400  1
  Cr  Cr1  1  0.91936900  0.81770100  0.07127400  1
  Cr  Cr2  1  0.08063100  0.18229900  0.92872600  1
  Cr  Cr3  1  0.41936900  0.18229900  0.42872600  1
  P  P0  1  0.84518500  0.64204700  0.59069700  1
  P  P1  1  0.65481500  0.64204700  0.09069700  1
  P  P2  1  0.34518500  0.35795300  0.90930300  1
  P  P3  1  0.15481500  0.35795300  0.40930300  1
  O  O0  1  0.56896500  0.73533600  0.89280000  1
  O  O1  1  0.75071100  0.83686800  0.59910900  1
  O  O2  1  0.41658000  0.87459700  0.52601400  1
  O  O3  1  0.93103500  0.73533600  0.39280000  1
  O  O4  1  0.74928900  0.83686800  0.09910900  1
  O  O5  1  0.08342000  0.87459700  0.02601400  1
  O  O6  1  0.30105300  0.60808600  0.93652500  1
  O  O7  1  0.91731900  0.63639100  0.82002300  1
  O  O8  1  0.41731900  0.36360900  0.67997700  1
  O  O9  1  0.19894700  0.60808600  0.43652500  1
  O  O10  1  0.80105300  0.39191400  0.56347500  1
  O  O11  1  0.58268100  0.63639100  0.32002300  1
  O  O12  1  0.08268100  0.36360900  0.17997700  1
  O  O13  1  0.69894700  0.39191400  0.06347500  1
  O  O14  1  0.91658000  0.12540300  0.97398600  1
  O  O15  1  0.25071100  0.16313200  0.90089100  1
  O  O16  1  0.06896500  0.26466400  0.60720000  1
  O  O17  1  0.58342000  0.12540300  0.47398600  1
  O  O18  1  0.24928900  0.16313200  0.40089100  1
  O  O19  1  0.43103500  0.26466400  0.10720000  1
loop_
_geom_bond_atom_site_label_1
_geom_bond_atom_site_label_2
_geom_bond_distance
_geom_bond_site_symmetry_2
Li0 O9 1.950512 1_555
Li0 O6 1.981239 1_555
Li0 O2 2.025582 1_555
Li0 O18 2.262249 1_565
Li0 O15 2.502694 1_565
Li1 O6 1.950512 1_554
Li1 O9 1.981239 1_555
Li1 O5 2.025582 1_555
Li1 O15 2.262249 1_564
Li1 O18 2.502694 1_565
Li2 O13 1.950512 1_556
Li2 O10 1.981239 1_555
Li2 O14 2.025582 1_555
Li2 O4 2.262249 1_546
Li2 O1 2.502694 1_545
Li3 O10 1.950512 1_555
Li3 O13 1.981239 1_555
Li3 O17 2.025582 1_555
Li3 O1 2.262249 1_545
Li3 O4 2.502694 1_545
Cr0 O17 1.742903 1_565
Cr0 O11 1.856992 1_555
Cr0 O0 1.866715 1_555
Cr0 O2 1.982775 1_555
Cr0 O1 2.026138 1_555
Cr1 O14 1.742903 1_564
Cr1 O7 1.856992 1_554
Cr1 O3 1.866715 1_555
Cr1 O5 1.982775 1_655
Cr1 O4 2.026138 1_555
Cr2 O5 1.742903 1_546
Cr2 O12 1.856992 1_556
Cr2 O16 1.866715 1_555
Cr2 O14 1.982775 1_455
Cr2 O15 2.026138 1_555
Cr3 O2 1.742903 1_545
Cr3 O8 1.856992 1_555
Cr3 O19 1.866715 1_555
Cr3 O17 1.982775 1_555
Cr3 O18 2.026138 1_555
O0 P1 1.574244 1_556
O1 P0 1.563550 1_555
O3 P0 1.574244 1_555
O4 P1 1.563550 1_555
O6 P2 1.512140 1_555
O7 P0 1.573213 1_555
O8 P2 1.573213 1_555
O9 P3 1.512140 1_555
O10 P0 1.512140 1_555
O11 P1 1.573213 1_555
O12 P3 1.573213 1_555
O13 P1 1.512140 1_555
O15 P2 1.563550 1_555
O16 P3 1.574244 1_555
O18 P3 1.563550 1_555
O19 P2 1.574244 1_554
