# generated using pymatgen
data_Li6(NiO2)13
_symmetry_space_group_name_H-M   'P 1'
_cell_length_a   4.89469100
_cell_length_b   9.86070339
_cell_length_c   9.92459947
_cell_angle_alpha   67.50877141
_cell_angle_beta   82.22024082
_cell_angle_gamma   85.22474847
_symmetry_Int_Tables_number   1
_chemical_formula_structural   Li6(NiO2)13
_chemical_formula_sum   'Li6 Ni13 O26'
_cell_volume   438.24451032
_cell_formula_units_Z   1
loop_
 _symmetry_equiv_pos_site_id
 _symmetry_equiv_pos_as_xyz
  1  'x, y, z'
loop_
 _atom_site_type_symbol
 _atom_site_label
 _atom_site_symmetry_multiplicity
 _atom_site_fract_x
 _atom_site_fract_y
 _atom_site_fract_z
 _atom_site_occupancy
  Li  Li0  1  0.04046500  0.57611500  0.34660900  1
  Li  Li1  1  0.80200300  0.10893700  0.28409300  1
  Li  Li2  1  0.11956700  0.72968100  0.03680000  1
  Li  Li3  1  0.88043300  0.27031900  0.96320000  1
  Li  Li4  1  0.19799700  0.89106300  0.71590700  1
  Li  Li5  1  0.95953500  0.42388500  0.65339100  1
  Ni  Ni0  1  0.11483500  0.73173200  0.53929100  1
  Ni  Ni1  1  0.88516500  0.26826800  0.46070900  1
  Ni  Ni2  1  0.65359000  0.80401900  0.38514400  1
  Ni  Ni3  1  0.42253700  0.34833400  0.30699100  1
  Ni  Ni4  1  0.96154300  0.42328000  0.15381300  1
  Ni  Ni5  1  0.19210700  0.88674400  0.23112200  1
  Ni  Ni6  1  0.50000000  0.50000000  0.00000000  1
  Ni  Ni7  1  0.73192300  0.95665400  0.07610200  1
  Ni  Ni8  1  0.26807700  0.04334600  0.92389800  1
  Ni  Ni9  1  0.80789300  0.11325600  0.76887800  1
  Ni  Ni10  1  0.03845700  0.57672000  0.84618700  1
  Ni  Ni11  1  0.57746300  0.65166600  0.69300900  1
  Ni  Ni12  1  0.34641000  0.19598100  0.61485600  1
  O  O0  1  0.41389500  0.81840100  0.56671000  1
  O  O1  1  0.17895700  0.36402200  0.48404500  1
  O  O2  1  0.82104300  0.63597800  0.51595500  1
  O  O3  1  0.58610500  0.18159900  0.43329000  1
  O  O4  1  0.75499000  0.44051500  0.32096800  1
  O  O5  1  0.97157000  0.90143900  0.39445400  1
  O  O6  1  0.50656200  0.97359800  0.25079400  1
  O  O7  1  0.32677800  0.71536900  0.37143000  1
  O  O8  1  0.09220200  0.25122800  0.29505600  1
  O  O9  1  0.66500200  0.33140200  0.12942500  1
  O  O10  1  0.25529100  0.51698500  0.17760500  1
  O  O11  1  0.02746400  0.05524300  0.09956600  1
  O  O12  1  0.90611400  0.78913300  0.20503000  1
  O  O13  1  0.59561400  0.12956400  0.93654300  1
  O  O14  1  0.83003000  0.59522100  0.01194400  1
  O  O15  1  0.16997000  0.40477900  0.98805600  1
  O  O16  1  0.40438600  0.87043600  0.06345700  1
  O  O17  1  0.49343800  0.02640200  0.74920600  1
  O  O18  1  0.33499800  0.66859800  0.87057500  1
  O  O19  1  0.09388600  0.21086700  0.79497000  1
  O  O20  1  0.97253600  0.94475700  0.90043400  1
  O  O21  1  0.74470900  0.48301500  0.82239500  1
  O  O22  1  0.67322200  0.28463100  0.62857000  1
  O  O23  1  0.24501000  0.55948500  0.67903200  1
  O  O24  1  0.02843000  0.09856100  0.60554600  1
  O  O25  1  0.90779800  0.74877200  0.70494400  1
loop_
_geom_bond_atom_site_label_1
_geom_bond_atom_site_label_2
_geom_bond_distance
_geom_bond_site_symmetry_2
Li0 O10 2.104191 1_555
Li0 O4 2.114894 1_455
Li0 O2 2.119303 1_455
Li0 O1 2.127362 1_555
Li0 O12 2.140326 1_455
Li0 O7 2.140751 1_555
Li1 O3 2.021050 1_555
Li1 O5 2.079359 1_545
Li1 O8 2.118630 1_655
Li1 O6 2.183922 1_545
Li1 O11 2.224738 1_655
Li1 O9 2.252907 1_555
Li2 O18 2.092795 1_554
Li2 O12 2.097019 1_455
Li2 O14 2.117772 1_455
Li2 O10 2.137741 1_555
Li2 O16 2.154725 1_555
Li2 O20 2.158923 1_454
Li3 O9 2.092795 1_556
Li3 O19 2.097019 1_655
Li3 O15 2.117772 1_655
Li3 O21 2.137741 1_555
Li3 O13 2.154725 1_555
Li3 O11 2.158923 1_656
Li4 O0 2.021050 1_555
Li4 O24 2.079359 1_565
Li4 O25 2.118630 1_455
Li4 O17 2.183922 1_565
Li4 O20 2.224738 1_455
Li4 O18 2.252907 1_555
Li5 O21 2.104191 1_555
Li5 O23 2.114894 1_655
Li5 O1 2.119303 1_655
Li5 O2 2.127362 1_555
Li5 O19 2.140326 1_655
Li5 O22 2.140751 1_555
Ni0 O0 1.855048 1_555
Ni0 O23 1.863080 1_555
Ni0 O25 1.868152 1_455
Ni0 O2 1.869919 1_455
Ni0 O7 1.894075 1_555
Ni0 O5 1.896179 1_455
Ni1 O3 1.855048 1_555
Ni1 O4 1.863080 1_555
Ni1 O8 1.868152 1_655
Ni1 O1 1.869919 1_655
Ni1 O22 1.894075 1_555
Ni1 O24 1.896179 1_655
Ni2 O6 1.856208 1_555
Ni2 O2 1.875902 1_555
Ni2 O5 1.926018 1_555
Ni2 O7 1.929848 1_555
Ni2 O0 2.058916 1_555
Ni2 O12 2.077750 1_555
Ni3 O3 1.841497 1_555
Ni3 O10 1.873175 1_555
Ni3 O4 1.974151 1_555
Ni3 O8 1.985352 1_555
Ni3 O1 2.035481 1_555
Ni3 O9 2.041532 1_555
Ni4 O10 1.859259 1_655
Ni4 O9 1.862256 1_555
Ni4 O8 1.869446 1_655
Ni4 O14 1.873141 1_555
Ni4 O15 1.877388 1_654
Ni4 O4 1.880467 1_555
Ni5 O12 1.861780 1_455
Ni5 O7 1.868672 1_555
Ni5 O5 1.869178 1_455
Ni5 O11 1.875359 1_565
Ni5 O6 1.889280 1_555
Ni5 O16 1.892936 1_555
Ni6 O9 1.868041 1_555
Ni6 O18 1.868041 1_554
Ni6 O14 1.973500 1_555
Ni6 O15 1.973500 1_554
Ni6 O10 2.047086 1_555
Ni6 O21 2.047086 1_554
Ni7 O13 1.877397 1_564
Ni7 O12 1.880595 1_555
Ni7 O11 1.894852 1_665
Ni7 O16 1.916193 1_555
Ni7 O6 1.980845 1_555
Ni7 O20 2.004483 1_554
Ni8 O16 1.877397 1_546
Ni8 O19 1.880595 1_555
Ni8 O20 1.894852 1_445
Ni8 O13 1.916193 1_555
Ni8 O17 1.980845 1_555
Ni8 O11 2.004483 1_556
Ni9 O19 1.861780 1_655
Ni9 O22 1.868672 1_555
Ni9 O24 1.869178 1_655
Ni9 O20 1.875359 1_545
Ni9 O17 1.889280 1_555
Ni9 O13 1.892936 1_555
Ni10 O21 1.859259 1_455
Ni10 O18 1.862256 1_555
Ni10 O25 1.869446 1_455
Ni10 O15 1.873141 1_555
Ni10 O14 1.877388 1_456
Ni10 O23 1.880467 1_555
Ni11 O0 1.841497 1_555
Ni11 O21 1.873175 1_555
Ni11 O23 1.974151 1_555
Ni11 O25 1.985352 1_555
Ni11 O2 2.035481 1_555
Ni11 O18 2.041532 1_555
Ni12 O17 1.856208 1_555
Ni12 O1 1.875902 1_555
Ni12 O24 1.926018 1_555
Ni12 O22 1.929848 1_555
Ni12 O3 2.058916 1_555
Ni12 O19 2.077750 1_555
