# generated using pymatgen
data_Li24TiCr11O36
_symmetry_space_group_name_H-M   'P 1'
_cell_length_a   5.08821800
_cell_length_b   10.59499129
_cell_length_c   13.06490324
_cell_angle_alpha   112.85282797
_cell_angle_beta   96.74866314
_cell_angle_gamma   95.62293103
_symmetry_Int_Tables_number   1
_chemical_formula_structural   Li24TiCr11O36
_chemical_formula_sum   'Li24 Ti1 Cr11 O36'
_cell_volume   636.55425124
_cell_formula_units_Z   1
loop_
 _symmetry_equiv_pos_site_id
 _symmetry_equiv_pos_as_xyz
  1  'x, y, z'
loop_
 _atom_site_type_symbol
 _atom_site_label
 _atom_site_symmetry_multiplicity
 _atom_site_fract_x
 _atom_site_fract_y
 _atom_site_fract_z
 _atom_site_occupancy
  Li  Li0  1  0.77144800  0.06050500  0.05922600  1
  Li  Li1  1  0.66577000  0.33312600  0.08351900  1
  Li  Li2  1  0.88843200  0.27260600  0.27317600  1
  Li  Li3  1  0.33523900  0.16631900  0.16729500  1
  Li  Li4  1  0.55189600  0.60565400  0.10598300  1
  Li  Li5  1  0.99968100  0.00101500  0.24997900  1
  Li  Li6  1  0.99897100  0.50059400  0.00000600  1
  Li  Li7  1  0.77980100  0.06056900  0.55959200  1
  Li  Li8  1  0.44996800  0.39276200  0.39366200  1
  Li  Li9  1  0.66746500  0.33265100  0.58354000  1
  Li  Li10  1  0.66753100  0.83423000  0.33394800  1
  Li  Li11  1  0.11310400  0.72822200  0.22734100  1
  Li  Li12  1  0.88510100  0.27260200  0.77291700  1
  Li  Li13  1  0.33198400  0.16629200  0.66732500  1
  Li  Li14  1  0.33323600  0.66778200  0.41692400  1
  Li  Li15  1  0.55085100  0.60666000  0.60659600  1
  Li  Li16  1  0.00001800  0.50004500  0.50021300  1
  Li  Li17  1  0.22002500  0.94014200  0.44015000  1
  Li  Li18  1  0.45307600  0.39224700  0.89317100  1
  Li  Li19  1  0.67037600  0.83527100  0.83404100  1
  Li  Li20  1  0.11314700  0.72631200  0.72645500  1
  Li  Li21  1  0.33337900  0.66637500  0.91653200  1
  Li  Li22  1  0.99769600  0.99933900  0.74863300  1
  Li  Li23  1  0.21937300  0.93966400  0.94036900  1
  Ti  Ti0  1  0.11054600  0.22108400  0.97463100  1
  Cr  Cr0  1  0.88962400  0.78049700  0.03115100  1
  Cr  Cr1  1  0.55758200  0.11393500  0.36387300  1
  Cr  Cr2  1  0.77753300  0.55301800  0.30238300  1
  Cr  Cr3  1  0.22546400  0.44967800  0.19928600  1
  Cr  Cr4  1  0.44251300  0.88549500  0.13541200  1
  Cr  Cr5  1  0.11146100  0.21992100  0.46928900  1
  Cr  Cr6  1  0.89190200  0.78013100  0.53039000  1
  Cr  Cr7  1  0.54960400  0.10982100  0.85996200  1
  Cr  Cr8  1  0.77631400  0.55307100  0.80217400  1
  Cr  Cr9  1  0.22330000  0.44711400  0.69818500  1
  Cr  Cr10  1  0.44597000  0.88593500  0.63383600  1
  O  O0  1  0.42382500  0.13966100  0.00450200  1
  O  O1  1  0.64302100  0.07570600  0.21199400  1
  O  O2  1  0.90156800  0.52984400  0.16712500  1
  O  O3  1  0.30963700  0.41243500  0.04692600  1
  O  O4  1  0.88573000  0.04613100  0.40876900  1
  O  O5  1  0.02379200  0.25824600  0.12416000  1
  O  O6  1  0.55341400  0.37993700  0.24264000  1
  O  O7  1  0.78208900  0.28772700  0.42474500  1
  O  O8  1  0.76571000  0.80368700  0.16652200  1
  O  O9  1  0.23595600  0.19560000  0.33310000  1
  O  O10  1  0.21914500  0.71200000  0.07542600  1
  O  O11  1  0.44790500  0.62253400  0.25915400  1
  O  O12  1  0.43131200  0.13751700  0.49954500  1
  O  O13  1  0.97646600  0.74300000  0.37856500  1
  O  O14  1  0.11332400  0.95379800  0.09100600  1
  O  O15  1  0.69249600  0.59069900  0.45424600  1
  O  O16  1  0.10057100  0.47179100  0.33404300  1
  O  O17  1  0.64251200  0.07377100  0.70853500  1
  O  O18  1  0.35883300  0.92414300  0.28773800  1
  O  O19  1  0.90049500  0.52921200  0.66670100  1
  O  O20  1  0.30773300  0.40919500  0.54556700  1
  O  O21  1  0.87262700  0.04203800  0.90437700  1
  O  O22  1  0.02397100  0.25746900  0.62156400  1
  O  O23  1  0.56867900  0.86140100  0.49856400  1
  O  O24  1  0.55296300  0.37930100  0.74217100  1
  O  O25  1  0.78433600  0.28834000  0.92609200  1
  O  O26  1  0.76450600  0.80348200  0.66561300  1
  O  O27  1  0.24716600  0.19192400  0.82992200  1
  O  O28  1  0.21893000  0.71266700  0.57573400  1
  O  O29  1  0.44658600  0.62116900  0.75784600  1
  O  O30  1  0.97556300  0.74249700  0.87881400  1
  O  O31  1  0.11517300  0.95358000  0.59068400  1
  O  O32  1  0.69093300  0.59060800  0.95421700  1
  O  O33  1  0.09907100  0.47065000  0.83344900  1
  O  O34  1  0.35769300  0.92534700  0.78864400  1
  O  O35  1  0.56688700  0.86221000  0.00013000  1
loop_
_geom_bond_atom_site_label_1
_geom_bond_atom_site_label_2
_geom_bond_distance
_geom_bond_site_symmetry_2
Li0 O35 2.053309 1_545
Li0 O21 2.086451 1_554
Li0 O1 2.124629 1_555
Li0 O5 2.143344 1_655
Li0 O0 2.191418 1_555
Li0 O14 2.248733 1_645
Li1 O0 2.084704 1_555
Li1 O25 2.099783 1_554
Li1 O2 2.100064 1_555
Li1 O6 2.104442 1_555
Li1 O5 2.147785 1_655
Li1 O3 2.150599 1_555
Li2 O7 2.064506 1_555
Li2 O16 2.073521 1_655
Li2 O5 2.096059 1_655
Li2 O1 2.123662 1_555
Li2 O9 2.204287 1_655
Li2 O6 2.220484 1_555
Li3 O1 2.056802 1_555
Li3 O5 2.072777 1_555
Li3 O0 2.142477 1_555
Li3 O9 2.193148 1_555
Li3 O14 2.198287 1_545
Li3 O6 2.200936 1_555
Li4 O8 2.067099 1_555
Li4 O11 2.075101 1_555
Li4 O3 2.088235 1_555
Li4 O32 2.136281 1_554
Li4 O10 2.204516 1_555
Li4 O2 2.212056 1_555
Li5 O9 2.084088 1_655
Li5 O8 2.100876 1_545
Li5 O14 2.104833 1_645
Li5 O4 2.106014 1_555
Li5 O1 2.130888 1_555
Li5 O18 2.153630 1_645
Li6 O32 2.059064 1_554
Li6 O3 2.062345 1_655
Li6 O25 2.183241 1_554
Li6 O10 2.185735 1_655
Li6 O33 2.202542 1_654
Li6 O2 2.206293 1_555
Li7 O4 2.056302 1_555
Li7 O23 2.071282 1_545
Li7 O17 2.102710 1_555
Li7 O22 2.120105 1_655
Li7 O12 2.208490 1_555
Li7 O31 2.221642 1_645
Li8 O6 2.058749 1_555
Li8 O9 2.059952 1_555
Li8 O15 2.126340 1_555
Li8 O20 2.141658 1_555
Li8 O7 2.194851 1_555
Li8 O16 2.222888 1_555
Li9 O12 2.088888 1_555
Li9 O19 2.092669 1_555
Li9 O24 2.103224 1_555
Li9 O7 2.107755 1_555
Li9 O22 2.133197 1_655
Li9 O20 2.155027 1_555
Li10 O18 2.063062 1_555
Li10 O13 2.065201 1_555
Li10 O23 2.182443 1_555
Li10 O4 2.186425 1_565
Li10 O11 2.187273 1_555
Li10 O8 2.208553 1_555
Li11 O10 2.065144 1_555
Li11 O2 2.066003 1_455
Li11 O18 2.117095 1_555
Li11 O13 2.124916 1_455
Li11 O8 2.198965 1_455
Li11 O11 2.213045 1_555
Li12 O33 2.067539 1_655
Li12 O25 2.072261 1_555
Li12 O17 2.130500 1_555
Li12 O22 2.130606 1_655
Li12 O24 2.205210 1_555
Li12 O27 2.271533 1_655
Li13 O17 2.064174 1_555
Li13 O22 2.066865 1_555
Li13 O27 2.136132 1_555
Li13 O31 2.190683 1_545
Li13 O24 2.200891 1_555
Li13 O12 2.219204 1_555
Li14 O23 2.073553 1_555
Li14 O16 2.087213 1_555
Li14 O11 2.094979 1_555
Li14 O28 2.107320 1_555
Li14 O13 2.135780 1_455
Li14 O15 2.153761 1_555
Li15 O26 2.057861 1_555
Li15 O29 2.058240 1_555
Li15 O20 2.123295 1_555
Li15 O15 2.146969 1_555
Li15 O28 2.199951 1_555
Li15 O19 2.216587 1_555
Li16 O20 2.061408 1_555
Li16 O15 2.062348 1_455
Li16 O7 2.189405 1_455
Li16 O28 2.193753 1_555
Li16 O19 2.202420 1_455
Li16 O16 2.202473 1_555
Li17 O31 2.053499 1_555
Li17 O12 2.057655 1_565
Li17 O13 2.121079 1_455
Li17 O18 2.141138 1_555
Li17 O4 2.211427 1_465
Li17 O23 2.211776 1_555
Li18 O24 2.051392 1_555
Li18 O27 2.069713 1_555
Li18 O32 2.119073 1_555
Li18 O3 2.157573 1_556
Li18 O25 2.190656 1_555
Li18 O33 2.238232 1_555
Li19 O30 2.062022 1_555
Li19 O34 2.075878 1_555
Li19 O21 2.115405 1_565
Li19 O35 2.210048 1_556
Li19 O26 2.211033 1_555
Li19 O29 2.215109 1_555
Li20 O28 2.057041 1_555
Li20 O19 2.057549 1_455
Li20 O30 2.137219 1_455
Li20 O34 2.138395 1_555
Li20 O29 2.202125 1_555
Li20 O26 2.214704 1_455
Li21 O35 2.088389 1_556
Li21 O33 2.088745 1_555
Li21 O29 2.103067 1_555
Li21 O10 2.107185 1_556
Li21 O32 2.139948 1_555
Li21 O30 2.143275 1_455
Li22 O26 2.087380 1_555
Li22 O27 2.096422 1_665
Li22 O21 2.096598 1_565
Li22 O31 2.102465 1_655
Li22 O17 2.130768 1_565
Li22 O34 2.148899 1_655
Li23 O14 2.055081 1_556
Li23 O0 2.063591 1_566
Li23 O30 2.121880 1_455
Li23 O34 2.136121 1_555
Li23 O35 2.206173 1_556
Li23 O21 2.255347 1_465
Cr0 O8 1.881700 1_555
Cr0 O14 1.882666 1_655
Cr0 O32 1.967713 1_554
Cr0 O30 1.982706 1_554
Cr0 O35 2.001292 1_555
Cr0 O10 2.002270 1_655
Cr1 O7 1.888057 1_555
Cr1 O12 1.890039 1_555
Cr1 O18 1.966491 1_545
Cr1 O1 1.975706 1_555
Cr1 O4 1.995033 1_555
Cr1 O9 1.995360 1_555
Cr2 O2 1.880645 1_555
Cr2 O6 1.881942 1_555
Cr2 O13 1.968414 1_555
Cr2 O15 1.975734 1_555
Cr2 O16 2.001834 1_655
Cr2 O11 2.004257 1_555
Cr3 O11 1.876158 1_555
Cr3 O16 1.878866 1_555
Cr3 O3 1.981135 1_555
Cr3 O5 1.984744 1_555
Cr3 O6 1.998967 1_555
Cr3 O2 2.000699 1_455
Cr4 O35 1.881492 1_555
Cr4 O10 1.883383 1_555
Cr4 O1 1.973402 1_565
Cr4 O18 1.977350 1_555
Cr4 O14 2.000277 1_555
Cr4 O8 2.004170 1_555
Cr5 O9 1.890589 1_555
Cr5 O4 1.891052 1_455
Cr5 O20 1.957884 1_555
Cr5 O22 1.985571 1_555
Cr5 O12 1.990597 1_555
Cr5 O7 1.998732 1_455
Cr6 O31 1.882657 1_655
Cr6 O26 1.887756 1_555
Cr6 O15 1.964730 1_555
Cr6 O13 1.975384 1_555
Cr6 O28 1.990232 1_655
Cr6 O23 2.003494 1_555
Cr7 O34 1.907722 1_545
Cr7 O27 1.914262 1_555
Cr7 O25 1.948306 1_555
Cr7 O21 1.970983 1_555
Cr7 O0 1.983827 1_556
Cr7 O17 1.987866 1_555
Cr8 O19 1.882144 1_555
Cr8 O24 1.885538 1_555
Cr8 O30 1.964724 1_555
Cr8 O32 1.978852 1_555
Cr8 O29 2.001034 1_555
Cr8 O33 2.006739 1_655
Cr9 O33 1.880403 1_555
Cr9 O29 1.887831 1_555
Cr9 O22 1.966650 1_555
Cr9 O20 1.983609 1_555
Cr9 O24 1.997608 1_555
Cr9 O19 2.005666 1_455
Cr10 O23 1.874869 1_555
Cr10 O28 1.891232 1_555
Cr10 O17 1.945545 1_565
Cr10 O26 1.990846 1_555
Cr10 O31 1.997940 1_555
Cr10 O34 2.015221 1_555
O0 Ti0 1.955050 1_554
O3 Ti0 1.978341 1_554
O5 Ti0 1.950807 1_554
O21 Ti0 1.960347 1_655
O25 Ti0 2.000082 1_655
O27 Ti0 2.012554 1_555
