# generated using pymatgen
data_MnV2Fe3(PO4)6
_symmetry_space_group_name_H-M   'P 1'
_cell_length_a   8.45176160
_cell_length_b   8.45176160
_cell_length_c   8.45176172
_cell_angle_alpha   61.67852346
_cell_angle_beta   61.67852346
_cell_angle_gamma   61.67852491
_symmetry_Int_Tables_number   1
_chemical_formula_structural   MnV2Fe3(PO4)6
_chemical_formula_sum   'Mn1 V2 Fe3 P6 O24'
_cell_volume   442.96532249
_cell_formula_units_Z   1
loop_
 _symmetry_equiv_pos_site_id
 _symmetry_equiv_pos_as_xyz
  1  'x, y, z'
loop_
 _atom_site_type_symbol
 _atom_site_label
 _atom_site_symmetry_multiplicity
 _atom_site_fract_x
 _atom_site_fract_y
 _atom_site_fract_z
 _atom_site_occupancy
  Mn  Mn0  1  0.14609600  0.14609600  0.14609600  1
  V  V0  1  0.00087100  0.00087100  0.00087100  1
  V  V1  1  0.50086900  0.50086900  0.50086900  1
  Fe  Fe0  1  0.64662400  0.64662400  0.64662400  1
  Fe  Fe1  1  0.85401600  0.85401600  0.85401600  1
  Fe  Fe2  1  0.35346500  0.35346500  0.35346500  1
  P  P0  1  0.54758200  0.95152800  0.25088100  1
  P  P1  1  0.25088100  0.54758200  0.95152800  1
  P  P2  1  0.95152800  0.25088100  0.54758200  1
  P  P3  1  0.04696800  0.74991100  0.45318800  1
  P  P4  1  0.74991100  0.45318800  0.04696800  1
  P  P5  1  0.45318800  0.04696800  0.74991100  1
  O  O0  1  0.32554800  0.50131700  0.10625600  1
  O  O1  1  0.10625600  0.32554800  0.50131700  1
  O  O2  1  0.50131700  0.10625600  0.32554800  1
  O  O3  1  0.75124300  0.93865600  0.09614000  1
  O  O4  1  0.39742200  0.98688900  0.17829700  1
  O  O5  1  0.56555900  0.74832300  0.40608400  1
  O  O6  1  0.09614000  0.75124300  0.93865500  1
  O  O7  1  0.40608400  0.56555900  0.74832300  1
  O  O8  1  0.00405300  0.82468500  0.60639200  1
  O  O9  1  0.74832300  0.40608400  0.56555900  1
  O  O10  1  0.05753100  0.90325400  0.24931900  1
  O  O11  1  0.82468500  0.60639200  0.00405300  1
  O  O12  1  0.17829700  0.39742200  0.98688900  1
  O  O13  1  0.93865600  0.09614000  0.75124300  1
  O  O14  1  0.25064400  0.59707100  0.43616800  1
  O  O15  1  0.98688900  0.17829700  0.39742200  1
  O  O16  1  0.59707100  0.43616800  0.25064400  1
  O  O17  1  0.90325400  0.24931900  0.05753100  1
  O  O18  1  0.43616800  0.25064400  0.59707100  1
  O  O19  1  0.60639200  0.00405300  0.82468500  1
  O  O20  1  0.24931900  0.05753100  0.90325400  1
  O  O21  1  0.49849800  0.89249400  0.67615900  1
  O  O22  1  0.89249400  0.67615900  0.49849800  1
  O  O23  1  0.67615900  0.49849800  0.89249400  1
loop_
_geom_bond_atom_site_label_1
_geom_bond_atom_site_label_2
_geom_bond_distance
_geom_bond_site_symmetry_2
Mn0 O12 1.971226 1_554
Mn0 O15 1.971226 1_455
Mn0 O4 1.971226 1_545
Mn0 O10 2.161724 1_545
Mn0 O17 2.161724 1_455
Mn0 O20 2.161724 1_554
Fe0 O22 1.917050 1_555
Fe0 O23 1.917050 1_555
Fe0 O21 1.917050 1_555
Fe0 O7 2.108573 1_555
Fe0 O9 2.108574 1_555
Fe0 O5 2.108574 1_555
Fe1 O11 1.930132 1_556
Fe1 O8 1.930132 1_655
Fe1 O19 1.930132 1_565
Fe1 O6 2.136984 1_655
Fe1 O13 2.136989 1_565
Fe1 O3 2.136989 1_556
Fe2 O1 1.921794 1_555
Fe2 O0 1.921794 1_555
Fe2 O2 1.921794 1_555
Fe2 O16 2.138766 1_555
Fe2 O14 2.138766 1_555
Fe2 O18 2.138766 1_555
O0 P1 1.524797 1_554
O1 P2 1.524797 1_455
O2 P0 1.524797 1_545
O3 P0 1.583177 1_555
O3 V0 2.101212 1_665
O4 P0 1.510360 1_555
O5 P0 1.580281 1_555
O5 V1 2.096283 1_555
O6 P1 1.583177 1_555
O6 V0 2.101217 1_566
O7 P1 1.580281 1_555
O7 V1 2.096283 1_555
O8 P3 1.523447 1_555
O9 P2 1.580281 1_555
O9 V1 2.096283 1_555
O10 P3 1.581618 1_555
O10 V0 2.062694 1_565
O11 P4 1.523447 1_555
O12 P1 1.510360 1_555
O13 P2 1.583177 1_555
O13 V0 2.101212 1_656
O14 P3 1.576102 1_555
O14 V1 2.115789 1_555
O15 P2 1.510360 1_555
O16 P4 1.576102 1_555
O16 V1 2.115789 1_555
O17 P4 1.581618 1_555
O17 V0 2.062694 1_655
O18 P5 1.576102 1_555
O18 V1 2.115789 1_555
O19 P5 1.523447 1_555
O20 P5 1.581618 1_555
O20 V0 2.062694 1_556
O21 P5 1.520204 1_565
O22 P3 1.520204 1_655
O23 P4 1.520204 1_556
