# generated using pymatgen
data_Li2MnF4
_symmetry_space_group_name_H-M   'P 1'
_cell_length_a   5.05278883
_cell_length_b   5.05278883
_cell_length_c   9.90172300
_cell_angle_alpha   90.00000000
_cell_angle_beta   90.00000000
_cell_angle_gamma   145.74164097
_symmetry_Int_Tables_number   1
_chemical_formula_structural   Li2MnF4
_chemical_formula_sum   'Li4 Mn2 F8'
_cell_volume   142.30625968
_cell_formula_units_Z   2
loop_
 _symmetry_equiv_pos_site_id
 _symmetry_equiv_pos_as_xyz
  1  'x, y, z'
loop_
 _atom_site_type_symbol
 _atom_site_label
 _atom_site_symmetry_multiplicity
 _atom_site_fract_x
 _atom_site_fract_y
 _atom_site_fract_z
 _atom_site_occupancy
  Li  Li0  1  0.62573200  0.37426800  0.43890100  1
  Li  Li1  1  0.62573200  0.37426800  0.06109900  1
  Li  Li2  1  0.37426800  0.62573200  0.56109900  1
  Li  Li3  1  0.37426800  0.62573200  0.93890100  1
  Mn  Mn0  1  0.88196700  0.11803300  0.25000000  1
  Mn  Mn1  1  0.11803300  0.88196700  0.75000000  1
  F  F0  1  0.00000000  0.00000000  0.00000000  1
  F  F1  1  0.00000000  0.00000000  0.50000000  1
  F  F2  1  0.54162700  0.45837300  0.25000000  1
  F  F3  1  0.72103700  0.27896300  0.61805400  1
  F  F4  1  0.72103700  0.27896300  0.88194600  1
  F  F5  1  0.45837300  0.54162700  0.75000000  1
  F  F6  1  0.27896300  0.72103700  0.11805400  1
  F  F7  1  0.27896300  0.72103700  0.38194600  1
loop_
_geom_bond_atom_site_label_1
_geom_bond_atom_site_label_2
_geom_bond_distance
_geom_bond_site_symmetry_2
F0 Li3 2.013719 1_444
F0 Li1 2.013719 1_555
F0 Li1 2.013719 1_445
F0 Li3 2.013719 1_554
F1 Li0 2.013719 1_555
F1 Li0 2.013719 1_445
F1 Li2 2.013719 1_445
F1 Li2 2.013719 1_555
F2 Li0 2.039187 1_555
F2 Li1 2.039187 1_555
F2 Mn0 2.142921 1_455
F2 Mn0 2.142921 1_565
F3 Li0 1.998481 1_555
F3 Li2 2.173142 1_545
F3 Li2 2.173142 1_655
F3 Mn1 2.216106 1_545
F3 Mn1 2.216106 1_655
F4 Li1 1.998481 1_556
F4 Li3 2.173142 1_545
F4 Li3 2.173142 1_655
F4 Mn1 2.216106 1_545
F4 Mn1 2.216106 1_655
F5 Li3 2.039187 1_555
F5 Li2 2.039187 1_555
F5 Mn1 2.142921 1_545
F5 Mn1 2.142921 1_655
F6 Li3 1.998481 1_554
F6 Li1 2.173142 1_455
F6 Li1 2.173142 1_565
F6 Mn0 2.216106 1_455
F6 Mn0 2.216106 1_565
F7 Li2 1.998481 1_555
F7 Li0 2.173142 1_455
F7 Li0 2.173142 1_565
F7 Mn0 2.216106 1_455
F7 Mn0 2.216106 1_565
