# generated using pymatgen
data_Sr3LiTa4(O6F)2
_symmetry_space_group_name_H-M   'P 1'
_cell_length_a   7.47688763
_cell_length_b   7.47688763
_cell_length_c   7.47688823
_cell_angle_alpha   60.89170660
_cell_angle_beta   60.89170660
_cell_angle_gamma   60.89169967
_symmetry_Int_Tables_number   1
_chemical_formula_structural   Sr3LiTa4(O6F)2
_chemical_formula_sum   'Sr3 Li1 Ta4 O12 F2'
_cell_volume   301.50216165
_cell_formula_units_Z   1
loop_
 _symmetry_equiv_pos_site_id
 _symmetry_equiv_pos_as_xyz
  1  'x, y, z'
loop_
 _atom_site_type_symbol
 _atom_site_label
 _atom_site_symmetry_multiplicity
 _atom_site_fract_x
 _atom_site_fract_y
 _atom_site_fract_z
 _atom_site_occupancy
  Sr  Sr0  1  0.50000000  0.50000000  0.00000000  1
  Sr  Sr1  1  0.00000000  0.50000000  0.50000000  1
  Sr  Sr2  1  0.50000000  0.00000000  0.50000000  1
  Li  Li0  1  0.50000000  0.50000000  0.50000000  1
  Ta  Ta0  1  0.00000000  0.50000000  0.00000000  1
  Ta  Ta1  1  0.00000000  0.00000000  0.00000000  1
  Ta  Ta2  1  0.50000000  0.00000000  0.00000000  1
  Ta  Ta3  1  0.00000000  0.00000000  0.50000000  1
  O  O0  1  0.07284100  0.67874100  0.07284100  1
  O  O1  1  0.92715900  0.32125900  0.92715900  1
  O  O2  1  0.68663500  0.68663500  0.06123300  1
  O  O3  1  0.06123300  0.68663500  0.68663500  1
  O  O4  1  0.67874100  0.07284100  0.07284100  1
  O  O5  1  0.07284100  0.07284100  0.67874100  1
  O  O6  1  0.68663500  0.06123300  0.68663500  1
  O  O7  1  0.93876700  0.31336500  0.31336500  1
  O  O8  1  0.92715900  0.92715900  0.32125900  1
  O  O9  1  0.31336500  0.31336500  0.93876700  1
  O  O10  1  0.32125900  0.92715900  0.92715900  1
  O  O11  1  0.31336500  0.93876700  0.31336500  1
  F  F0  1  0.60828900  0.60828900  0.60828900  1
  F  F1  1  0.39171100  0.39171100  0.39171100  1
loop_
_geom_bond_atom_site_label_1
_geom_bond_atom_site_label_2
_geom_bond_distance
_geom_bond_site_symmetry_2
O0 Ta0 2.020924 1_555
O0 Ta1 2.026315 1_565
O0 Sr0 2.673239 1_555
O0 Sr1 2.673240 1_555
O1 Ta0 2.020924 1_656
O1 Ta1 2.026315 1_656
O1 Sr0 2.673239 1_556
O1 Sr1 2.673240 1_655
O2 Ta2 2.010830 1_565
O2 Ta0 2.010830 1_655
O2 Sr0 2.691075 1_555
O3 Ta3 2.010830 1_565
O3 Ta0 2.010831 1_556
O3 Sr1 2.691075 1_555
O4 Ta2 2.020924 1_555
O4 Ta1 2.026315 1_655
O4 Sr0 2.673239 1_555
O4 Sr2 2.673240 1_555
O5 Ta3 2.020924 1_555
O5 Ta1 2.026315 1_556
O5 Sr1 2.673239 1_555
O5 Sr2 2.673239 1_555
O6 Ta3 2.010830 1_655
O6 Ta2 2.010831 1_556
O6 Sr2 2.691075 1_555
O7 Ta3 2.010830 1_655
O7 Ta0 2.010831 1_655
O7 Sr1 2.691075 1_655
O8 Ta3 2.020924 1_665
O8 Ta1 2.026315 1_665
O8 Sr2 2.673239 1_565
O8 Sr1 2.673239 1_655
O9 Ta0 2.010830 1_556
O9 Ta2 2.010830 1_556
O9 Sr0 2.691075 1_556
O10 Ta2 2.020924 1_566
O10 Ta1 2.026315 1_566
O10 Sr0 2.673239 1_556
O10 Sr2 2.673240 1_565
O11 Ta3 2.010830 1_565
O11 Ta2 2.010831 1_565
O11 Sr2 2.691075 1_565
F0 Li0 1.969795 1_555
F0 Sr2 2.431547 1_565
F0 Sr1 2.431547 1_655
F0 Sr0 2.431548 1_556
F1 Li0 1.969795 1_555
F1 Sr2 2.431547 1_555
F1 Sr1 2.431547 1_555
F1 Sr0 2.431548 1_555
