# generated using pymatgen
data_LiCrPO4
_symmetry_space_group_name_H-M   'P 1'
_cell_length_a   10.13270700
_cell_length_b   4.78863300
_cell_length_c   7.27195621
_cell_angle_alpha   84.23378353
_cell_angle_beta   90.00000000
_cell_angle_gamma   90.00000000
_symmetry_Int_Tables_number   1
_chemical_formula_structural   LiCrPO4
_chemical_formula_sum   'Li4 Cr4 P4 O16'
_cell_volume   351.06314440
_cell_formula_units_Z   4
loop_
 _symmetry_equiv_pos_site_id
 _symmetry_equiv_pos_as_xyz
  1  'x, y, z'
loop_
 _atom_site_type_symbol
 _atom_site_label
 _atom_site_symmetry_multiplicity
 _atom_site_fract_x
 _atom_site_fract_y
 _atom_site_fract_z
 _atom_site_occupancy
  Li  Li0  1  0.30973500  0.73541600  0.24702800  1
  Li  Li1  1  0.73143400  0.34223600  0.25071000  1
  Li  Li2  1  0.23143400  0.65776400  0.74929000  1
  Li  Li3  1  0.80973500  0.26458400  0.75297200  1
  Cr  Cr0  1  0.00895400  0.82573600  0.06556700  1
  Cr  Cr1  1  0.08255100  0.26264100  0.44699300  1
  Cr  Cr2  1  0.58255100  0.73735900  0.55300700  1
  Cr  Cr3  1  0.50895400  0.17426400  0.93443300  1
  P  P0  1  0.20649400  0.20336300  0.05112300  1
  P  P1  1  0.90158600  0.72473100  0.48005600  1
  P  P2  1  0.40158600  0.27526900  0.51994400  1
  P  P3  1  0.70649400  0.79663700  0.94887700  1
  O  O0  1  0.34799400  0.09133800  0.08659000  1
  O  O1  1  0.20057700  0.52527300  0.03289100  1
  O  O2  1  0.63481300  0.91934900  0.11180600  1
  O  O3  1  0.13102100  0.05459200  0.22701900  1
  O  O4  1  0.90368100  0.62640500  0.28022900  1
  O  O5  1  0.27425600  0.40838700  0.43045100  1
  O  O6  1  0.90076900  0.04858500  0.47566300  1
  O  O7  1  0.52505500  0.40226600  0.41275400  1
  O  O8  1  0.02505500  0.59773400  0.58724600  1
  O  O9  1  0.40076900  0.95141500  0.52433700  1
  O  O10  1  0.77425600  0.59161300  0.56954900  1
  O  O11  1  0.40368100  0.37359500  0.71977100  1
  O  O12  1  0.63102100  0.94540800  0.77298100  1
  O  O13  1  0.13481300  0.08065100  0.88819400  1
  O  O14  1  0.70057700  0.47472700  0.96710900  1
  O  O15  1  0.84799400  0.90866200  0.91341000  1
loop_
_geom_bond_atom_site_label_1
_geom_bond_atom_site_label_2
_geom_bond_distance
_geom_bond_site_symmetry_2
Li0 O5 1.985214 1_555
Li0 O0 2.004199 1_565
Li0 O1 2.230638 1_555
Li0 O3 2.364687 1_565
Li0 O9 2.531094 1_555
Li1 O14 2.119101 1_554
Li1 O4 2.236665 1_555
Li1 O7 2.431522 1_555
Li1 O2 2.547679 1_545
Li1 O6 2.671176 1_555
Li2 O1 2.119101 1_556
Li2 O11 2.236665 1_555
Li2 O8 2.431522 1_555
Li2 O13 2.547679 1_565
Li2 O9 2.671176 1_555
Li3 O10 1.985214 1_555
Li3 O15 2.004199 1_545
Li3 O14 2.230638 1_555
Li3 O12 2.364687 1_545
Li3 O6 2.531094 1_555
Cr0 O15 1.988398 1_454
Cr0 O4 2.046050 1_455
Cr0 O3 2.089939 1_565
Cr0 O13 2.112769 1_564
Cr0 O1 2.442411 1_555
Cr1 O3 2.028016 1_555
Cr1 O5 2.063484 1_555
Cr1 O8 2.069626 1_555
Cr1 O6 2.108075 1_455
Cr2 O12 2.028016 1_555
Cr2 O10 2.063484 1_555
Cr2 O7 2.069626 1_555
Cr2 O9 2.108075 1_555
Cr3 O0 1.988398 1_556
Cr3 O11 2.046050 1_555
Cr3 O12 2.089939 1_545
Cr3 O2 2.112769 1_546
Cr3 O14 2.442411 1_555
O0 P0 1.543442 1_555
O1 P0 1.535042 1_555
O2 P3 1.554517 1_554
O3 P0 1.595423 1_555
O4 P1 1.572014 1_555
O5 P2 1.552779 1_555
O6 P1 1.547957 1_545
O7 P2 1.564405 1_555
O8 P1 1.564405 1_455
O9 P2 1.547957 1_565
O10 P1 1.552779 1_555
O11 P2 1.572014 1_555
O12 P3 1.595423 1_555
O13 P0 1.554517 1_556
O14 P3 1.535042 1_555
O15 P3 1.543442 1_555
