# generated using pymatgen
data_Sm2Se2O
_symmetry_space_group_name_H-M   'P 1'
_cell_length_a   4.01049616
_cell_length_b   7.14528088
_cell_length_c   16.34677285
_cell_angle_alpha   90.00000000
_cell_angle_beta   90.00000000
_cell_angle_gamma   90.00000000
_symmetry_Int_Tables_number   1
_chemical_formula_structural   Sm2Se2O
_chemical_formula_sum   'Sm8 Se8 O4'
_cell_volume   468.43510944
_cell_formula_units_Z   4
loop_
 _symmetry_equiv_pos_site_id
 _symmetry_equiv_pos_as_xyz
  1  'x, y, z'
loop_
 _atom_site_type_symbol
 _atom_site_label
 _atom_site_symmetry_multiplicity
 _atom_site_fract_x
 _atom_site_fract_y
 _atom_site_fract_z
 _atom_site_occupancy
  Sm  Sm0  1  0.25000000  0.69820257  0.03821992  1
  Sm  Sm1  1  0.25000000  0.25886834  0.16183772  1
  Sm  Sm2  1  0.75000000  0.75886834  0.33816228  1
  Sm  Sm3  1  0.75000000  0.19820257  0.46178008  1
  Sm  Sm4  1  0.25000000  0.80179743  0.53821992  1
  Sm  Sm5  1  0.25000000  0.24113166  0.66183772  1
  Sm  Sm6  1  0.75000000  0.74113166  0.83816228  1
  Sm  Sm7  1  0.75000000  0.30179743  0.96178008  1
  Se  Se0  1  0.75000000  0.01105600  0.09944477  1
  Se  Se1  1  0.75000000  0.55125518  0.17927733  1
  Se  Se2  1  0.25000000  0.05125518  0.32072267  1
  Se  Se3  1  0.25000000  0.51105600  0.40055523  1
  Se  Se4  1  0.75000000  0.48894400  0.59944477  1
  Se  Se5  1  0.75000000  0.94874482  0.67927733  1
  Se  Se6  1  0.25000000  0.44874482  0.82072267  1
  Se  Se7  1  0.25000000  0.98894400  0.90055523  1
  O  O0  1  0.25000000  0.37222404  0.03049884  1
  O  O1  1  0.75000000  0.87222404  0.46950116  1
  O  O2  1  0.25000000  0.12777596  0.53049884  1
  O  O3  1  0.75000000  0.62777596  0.96950116  1
loop_
_geom_bond_atom_site_label_1
_geom_bond_atom_site_label_2
_geom_bond_distance
_geom_bond_site_symmetry_2
Se0 Sm1 2.862971 1_655
Se0 Sm1 2.862971 1_555
Se0 Sm7 3.062661 1_554
Se0 Sm0 3.165408 1_545
Se0 Sm0 3.165408 1_645
Se1 Sm1 2.909809 1_555
Se1 Sm1 2.909809 1_655
Se1 Sm2 2.991049 1_555
Se1 Sm0 3.231153 1_555
Se1 Sm0 3.231153 1_655
Se2 Sm2 2.909809 1_445
Se2 Sm2 2.909809 1_545
Se2 Sm1 2.991049 1_555
Se2 Sm3 3.231153 1_455
Se2 Sm3 3.231153 1_555
Se3 Sm2 2.862971 1_455
Se3 Sm2 2.862971 1_555
Se3 Sm4 3.062661 1_555
Se3 Sm3 3.165408 1_455
Se3 Sm3 3.165408 1_555
Se4 Sm5 2.862971 1_655
Se4 Sm5 2.862971 1_555
Se4 Sm3 3.062661 1_555
Se4 Sm4 3.165408 1_555
Se4 Sm4 3.165408 1_655
Se5 Sm5 2.909809 1_565
Se5 Sm5 2.909809 1_665
Se5 Sm6 2.991049 1_555
Se5 Sm4 3.231153 1_655
Se5 Sm4 3.231153 1_555
Se6 Sm6 2.909809 1_455
Se6 Sm6 2.909809 1_555
Se6 Sm5 2.991049 1_555
Se6 Sm7 3.231153 1_455
Se6 Sm7 3.231153 1_555
Se7 Sm6 2.862971 1_555
Se7 Sm6 2.862971 1_455
Se7 Sm0 3.062661 1_556
Se7 Sm7 3.165408 1_565
Se7 Sm7 3.165408 1_465
O0 Sm1 2.294668 1_555
O0 Sm0 2.332625 1_555
O0 Sm7 2.352896 1_554
O0 Sm7 2.352896 1_454
O1 Sm2 2.294668 1_555
O1 Sm3 2.332625 1_565
O1 Sm4 2.352896 1_655
O1 Sm4 2.352896 1_555
O2 Sm5 2.294668 1_555
O2 Sm4 2.332625 1_545
O2 Sm3 2.352896 1_555
O2 Sm3 2.352896 1_455
O3 Sm6 2.294668 1_555
O3 Sm7 2.332625 1_555
O3 Sm0 2.352896 1_556
O3 Sm0 2.352896 1_656
