# generated using pymatgen
data_LiVF3
_symmetry_space_group_name_H-M   'P 1'
_cell_length_a   5.53633743
_cell_length_b   5.53633743
_cell_length_c   5.53633601
_cell_angle_alpha   55.46044749
_cell_angle_beta   55.46044749
_cell_angle_gamma   55.46044098
_symmetry_Int_Tables_number   1
_chemical_formula_structural   LiVF3
_chemical_formula_sum   'Li2 V2 F6'
_cell_volume   107.34272054
_cell_formula_units_Z   2
loop_
 _symmetry_equiv_pos_site_id
 _symmetry_equiv_pos_as_xyz
  1  'x, y, z'
loop_
 _atom_site_type_symbol
 _atom_site_label
 _atom_site_symmetry_multiplicity
 _atom_site_fract_x
 _atom_site_fract_y
 _atom_site_fract_z
 _atom_site_occupancy
  Li  Li0  1  0.79998243  0.79998243  0.79998243  1
  Li  Li1  1  0.29998243  0.29998243  0.29998243  1
  V  V0  1  0.50651954  0.50651954  0.50651954  1
  V  V1  1  0.00651954  0.00651954  0.00651954  1
  F  F0  1  0.92288125  0.59587117  0.21984361  1
  F  F1  1  0.42288125  0.71984361  0.09587117  1
  F  F2  1  0.71984361  0.09587117  0.42288125  1
  F  F3  1  0.59587117  0.21984361  0.92288125  1
  F  F4  1  0.21984361  0.92288125  0.59587117  1
  F  F5  1  0.09587117  0.42288125  0.71984361  1
loop_
_geom_bond_atom_site_label_1
_geom_bond_atom_site_label_2
_geom_bond_distance
_geom_bond_site_symmetry_2
F0 Li1 1.893974 1_655
F0 V1 2.075306 1_665
F0 V0 2.081209 1_555
F0 Li0 2.255256 1_554
F1 Li0 1.893974 1_554
F1 V0 2.075305 1_555
F1 V1 2.081209 1_565
F1 Li1 2.255257 1_555
F2 Li0 1.893974 1_545
F2 V0 2.075305 1_555
F2 V1 2.081209 1_655
F2 Li1 2.255257 1_555
F3 Li1 1.893974 1_556
F3 V1 2.075305 1_656
F3 V0 2.081209 1_555
F3 Li0 2.255257 1_545
F4 Li1 1.893974 1_565
F4 V1 2.075305 1_566
F4 V0 2.081209 1_555
F4 Li0 2.255257 1_455
F5 Li0 1.893974 1_455
F5 V0 2.075306 1_555
F5 V1 2.081209 1_556
F5 Li1 2.255256 1_555
