# generated using pymatgen
data_Li5Fe8(BO3)8
_symmetry_space_group_name_H-M   'P 1'
_cell_length_a   5.22024900
_cell_length_b   9.05336779
_cell_length_c   11.40099456
_cell_angle_alpha   112.84830326
_cell_angle_beta   102.30001401
_cell_angle_gamma   89.61935300
_symmetry_Int_Tables_number   1
_chemical_formula_structural   Li5Fe8(BO3)8
_chemical_formula_sum   'Li5 Fe8 B8 O24'
_cell_volume   483.40991250
_cell_formula_units_Z   1
loop_
 _symmetry_equiv_pos_site_id
 _symmetry_equiv_pos_as_xyz
  1  'x, y, z'
loop_
 _atom_site_type_symbol
 _atom_site_label
 _atom_site_symmetry_multiplicity
 _atom_site_fract_x
 _atom_site_fract_y
 _atom_site_fract_z
 _atom_site_occupancy
  Li  Li0  1  0.03228800  0.02259200  0.38784000  1
  Li  Li1  1  0.28607100  0.27376100  0.89335300  1
  Li  Li2  1  0.48094700  0.50624100  0.66051100  1
  Li  Li3  1  0.25392600  0.23890800  0.15598300  1
  Li  Li4  1  0.52639700  0.53594900  0.40517600  1
  Fe  Fe0  1  0.02604100  0.35368800  0.38219900  1
  Fe  Fe1  1  0.26118000  0.92997800  0.88235000  1
  Fe  Fe2  1  0.49486300  0.14840300  0.62954200  1
  Fe  Fe3  1  0.23535400  0.57466000  0.12986100  1
  Fe  Fe4  1  0.77013000  0.45334100  0.88435800  1
  Fe  Fe5  1  0.53932300  0.85035400  0.37563900  1
  Fe  Fe6  1  0.96195500  0.66271200  0.63081000  1
  Fe  Fe7  1  0.72913500  0.05446300  0.12729200  1
  B  B0  1  0.02411900  0.68619600  0.37439800  1
  B  B1  1  0.26634700  0.60505000  0.87660800  1
  B  B2  1  0.46022200  0.81225500  0.62776700  1
  B  B3  1  0.22846200  0.89562600  0.13398300  1
  B  B4  1  0.52933800  0.18860900  0.38192300  1
  B  B5  1  0.76490900  0.10735000  0.87846000  1
  B  B6  1  0.99359400  0.32019500  0.62810100  1
  B  B7  1  0.73753200  0.39215000  0.12754300  1
  O  O0  1  0.03341800  0.10436800  0.88667200  1
  O  O1  1  0.10541400  0.71929900  0.85269600  1
  O  O2  1  0.17244600  0.50161600  0.92796000  1
  O  O3  1  0.14054700  0.19610600  0.63770300  1
  O  O4  1  0.09470800  0.43574700  0.59443600  1
  O  O5  1  0.25278500  0.84281000  0.69029500  1
  O  O6  1  0.26102300  0.64957100  0.32836500  1
  O  O7  1  0.50446800  0.58796600  0.84592800  1
  O  O8  1  0.62047200  0.21199500  0.82979300  1
  O  O9  1  0.41543400  0.08787400  0.42921800  1
  O  O10  1  0.39206300  0.31033600  0.35895700  1
  O  O11  1  0.63157000  0.01469500  0.92205900  1
  O  O12  1  0.33229900  0.99837100  0.08389200  1
  O  O13  1  0.57141200  0.66658500  0.60038200  1
  O  O14  1  0.54857300  0.92312500  0.58539000  1
  O  O15  1  0.39303100  0.78335700  0.16241300  1
  O  O16  1  0.46517300  0.39578200  0.11895300  1
  O  O17  1  0.74194200  0.33214100  0.65590700  1
  O  O18  1  0.77294900  0.16026800  0.35500500  1
  O  O19  1  0.91115300  0.57886900  0.41374000  1
  O  O20  1  0.91620200  0.82518400  0.38386700  1
  O  O21  1  0.86470500  0.49347800  0.08815200  1
  O  O22  1  0.87999100  0.28415200  0.16820100  1
  O  O23  1  0.99099400  0.90997800  0.16188800  1
loop_
_geom_bond_atom_site_label_1
_geom_bond_atom_site_label_2
_geom_bond_distance
_geom_bond_site_symmetry_2
Li0 O20 1.871690 1_445
Li0 O18 1.910642 1_455
Li0 O9 1.992359 1_555
Li0 O23 2.334265 1_445
Li0 O3 2.598609 1_555
Li1 O0 1.997635 1_555
Li1 O8 2.023964 1_555
Li1 O2 2.052865 1_555
Li1 O16 2.343631 1_556
Li2 O7 1.925415 1_555
Li2 O13 1.928764 1_555
Li2 O4 2.009158 1_555
Li2 O17 2.069085 1_555
Li3 O22 2.014581 1_455
Li3 O16 2.023907 1_555
Li3 O12 2.080055 1_545
Li3 O10 2.103890 1_555
Li4 O6 1.976839 1_555
Li4 O10 1.991787 1_555
Li4 O19 2.022878 1_555
Li4 O13 2.035637 1_555
Fe0 O10 2.000030 1_555
Fe0 O19 2.037502 1_455
Fe0 O18 2.083905 1_455
Fe0 O4 2.184810 1_555
Fe0 O22 2.225136 1_455
Fe1 O1 1.953508 1_555
Fe1 O0 1.961722 1_565
Fe1 O11 1.977078 1_565
Fe1 O5 2.009176 1_555
Fe1 O12 2.082239 1_556
Fe2 O3 1.909911 1_555
Fe2 O14 1.935695 1_545
Fe2 O17 1.999013 1_555
Fe2 O9 2.077496 1_555
Fe2 O8 2.078514 1_555
Fe3 O15 1.931602 1_555
Fe3 O21 1.966097 1_455
Fe3 O16 1.989658 1_555
Fe3 O6 2.068762 1_555
Fe3 O2 2.083856 1_554
Fe4 O7 1.932382 1_555
Fe4 O2 2.060967 1_655
Fe4 O8 2.128749 1_555
Fe4 O21 2.152258 1_556
Fe4 O17 2.372524 1_555
Fe5 O20 1.965556 1_555
Fe5 O9 2.131945 1_565
Fe5 O6 2.155459 1_555
Fe5 O14 2.209695 1_555
Fe5 O15 2.220563 1_555
Fe6 O13 1.996288 1_555
Fe6 O5 2.039330 1_655
Fe6 O4 2.077547 1_655
Fe6 O19 2.243972 1_555
Fe6 O1 2.326858 1_655
Fe7 O23 1.970390 1_545
Fe7 O12 2.043597 1_545
Fe7 O22 2.067349 1_555
Fe7 O11 2.168973 1_554
Fe7 O18 2.351291 1_555
B0 O20 1.350320 1_455
B0 O19 1.397090 1_455
B0 O6 1.432043 1_555
B1 O7 1.353561 1_555
B1 O1 1.399935 1_555
B1 O2 1.419181 1_555
B2 O13 1.385970 1_555
B2 O5 1.388925 1_555
B2 O14 1.389729 1_555
B3 O23 1.337386 1_455
B3 O15 1.414849 1_555
B3 O12 1.427005 1_555
B4 O18 1.370423 1_555
B4 O10 1.389326 1_555
B4 O9 1.414825 1_555
B5 O11 1.383552 1_555
B5 O0 1.385554 1_655
B5 O8 1.412234 1_555
B6 O3 1.382328 1_655
B6 O4 1.387731 1_655
B6 O17 1.409571 1_555
B7 O22 1.385402 1_555
B7 O21 1.392489 1_555
B7 O16 1.405237 1_555
