# generated using pymatgen
data_Lu2TiO5
_symmetry_space_group_name_H-M   'P 1'
_cell_length_a   5.73783400
_cell_length_b   5.73783400
_cell_length_c   10.36085500
_cell_angle_alpha   90.00000000
_cell_angle_beta   90.00000000
_cell_angle_gamma   138.81764333
_symmetry_Int_Tables_number   1
_chemical_formula_structural   Lu2TiO5
_chemical_formula_sum   'Lu4 Ti2 O10'
_cell_volume   224.60502022
_cell_formula_units_Z   2
loop_
 _symmetry_equiv_pos_site_id
 _symmetry_equiv_pos_as_xyz
  1  'x, y, z'
loop_
 _atom_site_type_symbol
 _atom_site_label
 _atom_site_symmetry_multiplicity
 _atom_site_fract_x
 _atom_site_fract_y
 _atom_site_fract_z
 _atom_site_occupancy
  Lu  Lu0  1  0.14254100  0.85745900  0.43172300  1
  Lu  Lu1  1  0.14254100  0.85745900  0.06827700  1
  Lu  Lu2  1  0.85745900  0.14254100  0.56827700  1
  Lu  Lu3  1  0.85745900  0.14254100  0.93172300  1
  Ti  Ti0  1  0.17555100  0.82444900  0.75000000  1
  Ti  Ti1  1  0.82444900  0.17555100  0.25000000  1
  O  O0  1  0.05117300  0.94882700  0.87705500  1
  O  O1  1  0.05117300  0.94882700  0.62294500  1
  O  O2  1  0.70553000  0.29447000  0.41210200  1
  O  O3  1  0.70553000  0.29447000  0.08789800  1
  O  O4  1  0.26776000  0.73224000  0.25000000  1
  O  O5  1  0.73224000  0.26776000  0.75000000  1
  O  O6  1  0.29447000  0.70553000  0.58789800  1
  O  O7  1  0.29447000  0.70553000  0.91210200  1
  O  O8  1  0.94882700  0.05117300  0.12294500  1
  O  O9  1  0.94882700  0.05117300  0.37705500  1
loop_
_geom_bond_atom_site_label_1
_geom_bond_atom_site_label_2
_geom_bond_distance
_geom_bond_site_symmetry_2
Lu0 O2 2.138095 1_565
Lu0 O2 2.138095 1_455
Lu0 O9 2.156685 1_465
Lu0 O1 2.211026 1_555
Lu0 O6 2.298266 1_555
Lu0 O4 2.313966 1_555
Lu1 O3 2.138095 1_455
Lu1 O3 2.138095 1_565
Lu1 O8 2.156685 1_465
Lu1 O0 2.211026 1_554
Lu1 O7 2.298266 1_554
Lu1 O4 2.313966 1_555
Lu2 O6 2.138095 1_655
Lu2 O6 2.138095 1_545
Lu2 O1 2.156685 1_645
Lu2 O9 2.211026 1_555
Lu2 O2 2.298266 1_555
Lu2 O5 2.313966 1_555
Lu3 O7 2.138095 1_545
Lu3 O7 2.138095 1_655
Lu3 O0 2.156685 1_645
Lu3 O8 2.211026 1_556
Lu3 O3 2.298266 1_556
Lu3 O5 2.313966 1_555
O0 Ti0 1.875676 1_555
O1 Ti0 1.875676 1_555
O2 Ti1 2.110155 1_555
O3 Ti1 2.110155 1_555
O4 Ti1 2.107869 1_455
O4 Ti1 2.107869 1_565
O5 Ti0 2.107869 1_545
O5 Ti0 2.107869 1_655
O6 Ti0 2.110155 1_555
O7 Ti0 2.110155 1_555
O8 Ti1 1.875676 1_555
O9 Ti1 1.875676 1_555
