# generated using pymatgen
data_Ba(ClO)2
_symmetry_space_group_name_H-M   'P 1'
_cell_length_a   10.41158500
_cell_length_b   5.70341900
_cell_length_c   9.70771734
_cell_angle_alpha   57.90776258
_cell_angle_beta   90.00000000
_cell_angle_gamma   90.00000000
_symmetry_Int_Tables_number   1
_chemical_formula_structural   Ba(ClO)2
_chemical_formula_sum   'Ba4 Cl8 O8'
_cell_volume   488.37348192
_cell_formula_units_Z   4
loop_
 _symmetry_equiv_pos_site_id
 _symmetry_equiv_pos_as_xyz
  1  'x, y, z'
loop_
 _atom_site_type_symbol
 _atom_site_label
 _atom_site_symmetry_multiplicity
 _atom_site_fract_x
 _atom_site_fract_y
 _atom_site_fract_z
 _atom_site_occupancy
  Ba  Ba0  1  0.70788900  0.27152400  0.41006100  1
  Ba  Ba1  1  0.79211100  0.27152400  0.91006100  1
  Ba  Ba2  1  0.29211100  0.72847600  0.58993900  1
  Ba  Ba3  1  0.20788900  0.72847600  0.08993900  1
  Cl  Cl0  1  0.59674000  0.62388900  0.59008600  1
  Cl  Cl1  1  0.90326000  0.62388900  0.09008600  1
  Cl  Cl2  1  0.40326000  0.37611100  0.40991400  1
  Cl  Cl3  1  0.09674000  0.37611100  0.90991400  1
  Cl  Cl4  1  0.58174700  0.81150700  0.91615600  1
  Cl  Cl5  1  0.91825300  0.81150700  0.41615600  1
  Cl  Cl6  1  0.41825300  0.18849300  0.08384400  1
  Cl  Cl7  1  0.08174700  0.18849300  0.58384400  1
  O  O0  1  0.62966900  0.32965800  0.11813200  1
  O  O1  1  0.87033100  0.32965800  0.61813200  1
  O  O2  1  0.37033100  0.67034200  0.88186800  1
  O  O3  1  0.12966900  0.67034200  0.38186800  1
  O  O4  1  0.77124400  0.81706100  0.22178100  1
  O  O5  1  0.72875600  0.81706100  0.72178100  1
  O  O6  1  0.22875600  0.18293900  0.77821900  1
  O  O7  1  0.27124400  0.18293900  0.27821900  1
loop_
_geom_bond_atom_site_label_1
_geom_bond_atom_site_label_2
_geom_bond_distance
_geom_bond_site_symmetry_2
Ba0 O4 2.722872 1_555
Ba0 O5 2.754721 1_545
Ba0 O1 2.786029 1_555
Ba0 O0 2.793939 1_555
Ba0 Cl2 3.227136 1_555
Ba0 Cl0 3.343338 1_545
Ba0 Cl1 3.345447 1_555
Ba0 Cl5 3.394005 1_545
Ba0 Cl0 3.487720 1_555
Ba1 O5 2.722872 1_555
Ba1 O4 2.754721 1_546
Ba1 O0 2.786029 1_556
Ba1 O1 2.793939 1_555
Ba1 Cl3 3.227136 1_655
Ba1 Cl1 3.343338 1_546
Ba1 Cl0 3.345447 1_555
Ba1 Cl4 3.394005 1_545
Ba1 Cl1 3.487720 1_556
Ba2 O6 2.722872 1_555
Ba2 O7 2.754721 1_565
Ba2 O3 2.786029 1_555
Ba2 O2 2.793939 1_555
Ba2 Cl0 3.227136 1_555
Ba2 Cl2 3.343338 1_565
Ba2 Cl3 3.345447 1_555
Ba2 Cl7 3.394005 1_565
Ba2 Cl2 3.487720 1_555
Ba3 O7 2.722872 1_555
Ba3 O6 2.754721 1_564
Ba3 O2 2.786029 1_554
Ba3 O3 2.793939 1_555
Ba3 Cl1 3.227136 1_455
Ba3 Cl3 3.343338 1_564
Ba3 Cl2 3.345447 1_555
Ba3 Cl6 3.394005 1_565
Ba3 Cl3 3.487720 1_554
Cl0 O5 2.496835 1_555
Cl1 O4 2.496835 1_555
Cl2 O7 2.496835 1_555
Cl3 O6 2.496835 1_555
Cl4 O5 2.416765 1_555
Cl4 O2 2.426716 1_555
Cl4 O0 2.433175 1_556
Cl5 O4 2.416765 1_555
Cl5 O3 2.426716 1_655
Cl5 O1 2.433175 1_555
Cl6 O7 2.416765 1_555
Cl6 O0 2.426716 1_555
Cl6 O2 2.433175 1_554
Cl7 O6 2.416765 1_555
Cl7 O1 2.426716 1_455
Cl7 O3 2.433175 1_555
