# generated using pymatgen
data_Li3Cr(PO4)2
_symmetry_space_group_name_H-M   'P 1'
_cell_length_a   8.68657600
_cell_length_b   8.72926270
_cell_length_c   9.11892085
_cell_angle_alpha   87.43755632
_cell_angle_beta   87.73372746
_cell_angle_gamma   67.06530421
_symmetry_Int_Tables_number   1
_chemical_formula_structural   Li3Cr(PO4)2
_chemical_formula_sum   'Li12 Cr4 P8 O32'
_cell_volume   635.98291205
_cell_formula_units_Z   4
loop_
 _symmetry_equiv_pos_site_id
 _symmetry_equiv_pos_as_xyz
  1  'x, y, z'
loop_
 _atom_site_type_symbol
 _atom_site_label
 _atom_site_symmetry_multiplicity
 _atom_site_fract_x
 _atom_site_fract_y
 _atom_site_fract_z
 _atom_site_occupancy
  Li  Li0  1  0.13442200  0.35905800  0.20666300  1
  Li  Li1  1  0.37532400  0.13000400  0.70088600  1
  Li  Li2  1  0.84494200  0.04067700  0.55033500  1
  Li  Li3  1  0.41637700  0.56734200  0.24164600  1
  Li  Li4  1  0.89459100  0.08459500  0.23646400  1
  Li  Li5  1  0.56461100  0.43582600  0.74932800  1
  Li  Li6  1  0.10981000  0.89410600  0.77022700  1
  Li  Li7  1  0.15705900  0.96677800  0.45670800  1
  Li  Li8  1  0.96307400  0.14715200  0.96359800  1
  Li  Li9  1  0.60346900  0.87121500  0.32593800  1
  Li  Li10  1  0.86317900  0.62247200  0.77626800  1
  Li  Li11  1  0.89724200  0.73371800  0.10090300  1
  Cr  Cr0  1  0.51365700  0.23070800  0.08795200  1
  Cr  Cr1  1  0.23302700  0.50985600  0.58850800  1
  Cr  Cr2  1  0.76909600  0.49184600  0.40766600  1
  Cr  Cr3  1  0.48934200  0.76921300  0.91183400  1
  P  P0  1  0.28741500  0.01356400  0.07491300  1
  P  P1  1  0.01456400  0.28973900  0.57149100  1
  P  P2  1  0.57146600  0.24098800  0.43006500  1
  P  P3  1  0.23789300  0.57254700  0.92865500  1
  P  P4  1  0.75961600  0.43246600  0.07108700  1
  P  P5  1  0.43118500  0.76312100  0.57044800  1
  P  P6  1  0.99077300  0.71494600  0.42222500  1
  P  P7  1  0.71573300  0.98986400  0.91800100  1
  O  O0  1  0.11248300  0.03086200  0.12647500  1
  O  O1  1  0.02189300  0.11500000  0.61495100  1
  O  O2  1  0.32423600  0.15908700  0.13573900  1
  O  O3  1  0.16480600  0.31508000  0.63484600  1
  O  O4  1  0.62816800  0.05294800  0.44835000  1
  O  O5  1  0.04888900  0.62576500  0.94081500  1
  O  O6  1  0.70768100  0.98319200  0.09280100  1
  O  O7  1  0.98556700  0.68132600  0.59257000  1
  O  O8  1  0.16072200  0.57561900  0.37308800  1
  O  O9  1  0.56253200  0.15352900  0.87792400  1
  O  O10  1  0.33474400  0.46544500  0.06279200  1
  O  O11  1  0.46555400  0.33627500  0.56324500  1
  O  O12  1  0.47295300  0.31669400  0.28995200  1
  O  O13  1  0.31604300  0.46947800  0.79119400  1
  O  O14  1  0.73635400  0.27364800  0.42408300  1
  O  O15  1  0.27474300  0.73321800  0.91672300  1
  O  O16  1  0.73513800  0.26365600  0.07537400  1
  O  O17  1  0.26825800  0.72706300  0.57773800  1
  O  O18  1  0.67482000  0.53087600  0.20856900  1
  O  O19  1  0.53327000  0.68687100  0.70849100  1
  O  O20  1  0.54062400  0.67373600  0.43635100  1
  O  O21  1  0.66294400  0.53495000  0.93614000  1
  O  O22  1  0.43003300  0.84434100  0.12364600  1
  O  O23  1  0.84606500  0.43242100  0.62134100  1
  O  O24  1  0.01175000  0.32020800  0.39933100  1
  O  O25  1  0.30942000  0.01066900  0.90171400  1
  O  O26  1  0.94665300  0.38763800  0.06087400  1
  O  O27  1  0.37235400  0.95114500  0.55071500  1
  O  O28  1  0.84589100  0.68899000  0.34371900  1
  O  O29  1  0.69059100  0.83417600  0.86701900  1
  O  O30  1  0.98136300  0.89212200  0.38644100  1
  O  O31  1  0.87977000  0.99479500  0.85640900  1
loop_
_geom_bond_atom_site_label_1
_geom_bond_atom_site_label_2
_geom_bond_distance
_geom_bond_site_symmetry_2
Li0 O2 1.989347 1_555
Li0 O26 2.077193 1_455
Li0 O24 2.101809 1_555
Li0 O8 2.559213 1_555
Li0 O10 2.565465 1_555
Li1 O3 2.003595 1_555
Li1 O27 2.130483 1_545
Li1 O25 2.231133 1_555
Li1 O9 2.406346 1_555
Li1 O11 2.500371 1_555
Li2 O1 2.003450 1_655
Li2 O30 2.038413 1_545
Li2 O4 2.096313 1_555
Li2 O14 2.175427 1_555
Li3 O12 2.077424 1_555
Li3 O18 2.151823 1_555
Li3 O10 2.160278 1_555
Li3 O8 2.458834 1_555
Li3 O20 2.502002 1_555
Li3 O22 2.645644 1_555
Li4 O0 2.002110 1_655
Li4 O30 2.037281 1_545
Li4 O16 2.188112 1_555
Li4 O14 2.416302 1_555
Li4 O6 2.554968 1_545
Li5 O13 2.084396 1_555
Li5 O19 2.117844 1_555
Li5 O21 2.281059 1_555
Li5 O11 2.281460 1_555
Li6 O31 1.987945 1_455
Li6 O15 2.055501 1_555
Li6 O1 2.236061 1_565
Li6 O17 2.361210 1_555
Li7 O1 1.995973 1_565
Li7 O30 2.013552 1_455
Li7 O27 2.041684 1_555
Li7 O17 2.198255 1_555
Li8 O0 1.977813 1_656
Li8 O31 2.042077 1_545
Li8 O16 2.087406 1_556
Li8 O26 2.266550 1_556
Li9 O4 2.061862 1_565
Li9 O28 2.093886 1_555
Li9 O20 2.195032 1_555
Li9 O22 2.502313 1_555
Li9 O6 2.578029 1_555
Li10 O29 2.055961 1_555
Li10 O7 2.099554 1_555
Li10 O5 2.255237 1_655
Li10 O23 2.277873 1_555
Li10 O21 2.543611 1_555
Li11 O5 1.938516 1_654
Li11 O6 2.158669 1_555
Li11 O28 2.287905 1_555
Cr0 O12 1.986639 1_555
Cr0 O2 2.002210 1_555
Cr0 O9 2.032336 1_554
Cr0 O10 2.042293 1_555
Cr0 O16 2.051381 1_555
Cr0 O6 2.161051 1_545
Cr1 O13 1.977233 1_555
Cr1 O11 2.009471 1_555
Cr1 O3 2.030225 1_555
Cr1 O17 2.032620 1_555
Cr1 O8 2.073315 1_555
Cr1 O7 2.086516 1_455
Cr2 O18 1.981863 1_555
Cr2 O20 2.017030 1_555
Cr2 O14 2.030900 1_555
Cr2 O24 2.056637 1_655
Cr2 O23 2.062778 1_555
Cr2 O28 2.126224 1_555
Cr3 O19 1.987467 1_555
Cr3 O15 2.006083 1_555
Cr3 O21 2.021761 1_555
Cr3 O22 2.048764 1_556
Cr3 O29 2.059141 1_555
Cr3 O25 2.078551 1_565
O0 P0 1.524453 1_555
O1 P1 1.536243 1_555
O2 P0 1.554779 1_555
O3 P1 1.543379 1_555
O4 P2 1.522064 1_555
O5 P3 1.522954 1_555
O6 P7 1.592211 1_554
O7 P6 1.570075 1_555
O8 P6 1.567303 1_455
O9 P7 1.567060 1_545
O10 P3 1.563385 1_554
O11 P2 1.555232 1_555
O12 P2 1.540037 1_555
O13 P3 1.548907 1_555
O14 P2 1.564115 1_555
O15 P3 1.554001 1_555
O16 P4 1.567350 1_555
O17 P5 1.563450 1_555
O18 P4 1.543492 1_555
O19 P5 1.538613 1_555
O20 P5 1.556636 1_555
O21 P4 1.554865 1_556
O22 P0 1.572558 1_565
O23 P1 1.574006 1_655
O24 P1 1.580063 1_555
O25 P0 1.583531 1_556
O26 P4 1.515678 1_555
O27 P5 1.521380 1_555
O28 P6 1.567076 1_555
O29 P7 1.551346 1_555
O30 P6 1.537412 1_555
O31 P7 1.526450 1_555
