# generated using pymatgen
data_Na2VO4
_symmetry_space_group_name_H-M   'P 1'
_cell_length_a   8.72916900
_cell_length_b   8.59664100
_cell_length_c   11.27015507
_cell_angle_alpha   84.48598775
_cell_angle_beta   90.00000000
_cell_angle_gamma   90.00000000
_symmetry_Int_Tables_number   1
_chemical_formula_structural   Na2VO4
_chemical_formula_sum   'Na16 V8 O32'
_cell_volume   841.81628254
_cell_formula_units_Z   8
loop_
 _symmetry_equiv_pos_site_id
 _symmetry_equiv_pos_as_xyz
  1  'x, y, z'
loop_
 _atom_site_type_symbol
 _atom_site_label
 _atom_site_symmetry_multiplicity
 _atom_site_fract_x
 _atom_site_fract_y
 _atom_site_fract_z
 _atom_site_occupancy
  Na  Na0  1  0.44728900  0.71426100  0.53008200  1
  Na  Na1  1  0.94728900  0.28573900  0.96991800  1
  Na  Na2  1  0.55271100  0.28573900  0.46991800  1
  Na  Na3  1  0.05271100  0.71426100  0.03008200  1
  Na  Na4  1  0.71857100  0.66312200  0.82214800  1
  Na  Na5  1  0.21857100  0.33687800  0.67785200  1
  Na  Na6  1  0.28142900  0.33687800  0.17785200  1
  Na  Na7  1  0.78142900  0.66312200  0.32214800  1
  Na  Na8  1  0.81743600  0.96016300  0.49955700  1
  Na  Na9  1  0.31743600  0.03983700  0.00044300  1
  Na  Na10  1  0.18256400  0.03983700  0.50044300  1
  Na  Na11  1  0.68256400  0.96016300  0.99955700  1
  Na  Na12  1  0.34154900  0.68332000  0.81440100  1
  Na  Na13  1  0.84154900  0.31668000  0.68559900  1
  Na  Na14  1  0.65845100  0.31668000  0.18559900  1
  Na  Na15  1  0.15845100  0.68332000  0.31440100  1
  V  V0  1  0.02719500  0.95949800  0.80662800  1
  V  V1  1  0.52719500  0.04050200  0.69337200  1
  V  V2  1  0.97280500  0.04050200  0.19337200  1
  V  V3  1  0.47280500  0.95949800  0.30662800  1
  V  V4  1  0.02967800  0.69326900  0.61071800  1
  V  V5  1  0.52967800  0.30673100  0.88928200  1
  V  V6  1  0.97032200  0.30673100  0.38928200  1
  V  V7  1  0.47032200  0.69326900  0.11071800  1
  O  O0  1  0.02830200  0.15955100  0.80391700  1
  O  O1  1  0.52830200  0.84044900  0.69608300  1
  O  O2  1  0.97169800  0.84044900  0.19608300  1
  O  O3  1  0.47169800  0.15955100  0.30391700  1
  O  O4  1  0.18778900  0.88315300  0.87898200  1
  O  O5  1  0.68778900  0.11684700  0.62101800  1
  O  O6  1  0.81221100  0.11684700  0.12101800  1
  O  O7  1  0.31221100  0.88315300  0.37898200  1
  O  O8  1  0.87523200  0.87549700  0.88538100  1
  O  O9  1  0.37523200  0.12450300  0.61461900  1
  O  O10  1  0.12476800  0.12450300  0.11461900  1
  O  O11  1  0.62476800  0.87549700  0.38538100  1
  O  O12  1  0.02262700  0.89671300  0.65241200  1
  O  O13  1  0.52262700  0.10328700  0.84758800  1
  O  O14  1  0.97737300  0.10328700  0.34758800  1
  O  O15  1  0.47737300  0.89671300  0.15241200  1
  O  O16  1  0.91073800  0.57408300  0.70201700  1
  O  O17  1  0.41073800  0.42591700  0.79798300  1
  O  O18  1  0.08926200  0.42591700  0.29798300  1
  O  O19  1  0.58926200  0.57408300  0.20201700  1
  O  O20  1  0.96470900  0.71125800  0.46761700  1
  O  O21  1  0.46470900  0.28874200  0.03238300  1
  O  O22  1  0.03529100  0.28874200  0.53238300  1
  O  O23  1  0.53529100  0.71125800  0.96761700  1
  O  O24  1  0.21431500  0.62481900  0.62166100  1
  O  O25  1  0.71431500  0.37518100  0.87833900  1
  O  O26  1  0.78568500  0.37518100  0.37833900  1
  O  O27  1  0.28568500  0.62481900  0.12166100  1
  O  O28  1  0.61964200  0.50001600  0.59585000  1
  O  O29  1  0.11964200  0.49998400  0.90415000  1
  O  O30  1  0.38035800  0.49998400  0.40415000  1
  O  O31  1  0.88035800  0.50001600  0.09585000  1
loop_
_geom_bond_atom_site_label_1
_geom_bond_atom_site_label_2
_geom_bond_distance
_geom_bond_site_symmetry_2
Na0 O1 2.359450 1_555
Na0 O24 2.374818 1_555
Na0 O7 2.433748 1_555
Na0 O28 2.437774 1_555
Na0 O30 2.500262 1_555
Na0 O11 2.558614 1_555
Na1 O0 2.359450 1_655
Na1 O25 2.374818 1_555
Na1 O6 2.433748 1_556
Na1 O29 2.437774 1_655
Na1 O31 2.500262 1_556
Na1 O10 2.558614 1_656
Na2 O3 2.359450 1_555
Na2 O26 2.374818 1_555
Na2 O5 2.433748 1_555
Na2 O30 2.437774 1_555
Na2 O28 2.500262 1_555
Na2 O9 2.558614 1_555
Na3 O2 2.359450 1_455
Na3 O27 2.374818 1_555
Na3 O4 2.433748 1_554
Na3 O31 2.437774 1_455
Na3 O29 2.500262 1_554
Na3 O8 2.558614 1_454
Na4 O16 2.330654 1_555
Na4 O23 2.355644 1_555
Na4 O8 2.441565 1_555
Na4 O25 2.495678 1_555
Na4 O1 2.585492 1_555
Na5 O17 2.330654 1_555
Na5 O22 2.355644 1_555
Na5 O9 2.441565 1_555
Na5 O24 2.495678 1_555
Na5 O0 2.585492 1_555
Na6 O18 2.330654 1_555
Na6 O21 2.355644 1_555
Na6 O10 2.441565 1_555
Na6 O27 2.495678 1_555
Na6 O3 2.585492 1_555
Na7 O19 2.330654 1_555
Na7 O20 2.355644 1_555
Na7 O11 2.441565 1_555
Na7 O26 2.495678 1_555
Na7 O2 2.585492 1_555
Na8 O11 2.279059 1_555
Na8 O5 2.307216 1_565
Na8 O14 2.447735 1_565
Na8 O12 2.508554 1_655
Na8 O20 2.551237 1_555
Na9 O10 2.279059 1_555
Na9 O4 2.307216 1_544
Na9 O15 2.447735 1_545
Na9 O13 2.508554 1_554
Na9 O21 2.551237 1_555
Na10 O9 2.279059 1_555
Na10 O7 2.307216 1_545
Na10 O12 2.447735 1_545
Na10 O14 2.508554 1_455
Na10 O22 2.551237 1_555
Na11 O8 2.279059 1_555
Na11 O6 2.307216 1_566
Na11 O13 2.447735 1_565
Na11 O15 2.508554 1_556
Na11 O23 2.551237 1_555
Na12 O17 2.318228 1_555
Na12 O4 2.350039 1_555
Na12 O1 2.431897 1_555
Na12 O23 2.445259 1_555
Na12 O24 2.532764 1_555
Na12 O29 2.636847 1_555
Na13 O16 2.318228 1_555
Na13 O5 2.350039 1_555
Na13 O0 2.431897 1_655
Na13 O22 2.445259 1_655
Na13 O25 2.532764 1_555
Na13 O28 2.636847 1_555
Na14 O19 2.318228 1_555
Na14 O6 2.350039 1_555
Na14 O3 2.431897 1_555
Na14 O21 2.445259 1_555
Na14 O26 2.532764 1_555
Na14 O31 2.636847 1_555
Na15 O18 2.318228 1_555
Na15 O7 2.350039 1_555
Na15 O2 2.431897 1_455
Na15 O20 2.445259 1_455
Na15 O27 2.532764 1_555
Na15 O30 2.636847 1_555
O0 V0 1.717144 1_545
O1 V1 1.717144 1_565
O2 V2 1.717144 1_565
O3 V3 1.717144 1_545
O4 V0 1.719891 1_555
O5 V1 1.719891 1_555
O6 V2 1.719891 1_555
O7 V3 1.719891 1_555
O8 V0 1.716300 1_655
O9 V1 1.716300 1_555
O10 V2 1.716300 1_455
O11 V3 1.716300 1_555
O12 V4 1.855075 1_555
O12 V0 1.869216 1_555
O13 V5 1.855075 1_555
O13 V1 1.869216 1_555
O14 V6 1.855075 1_555
O14 V2 1.869216 1_555
O15 V7 1.855075 1_555
O15 V3 1.869216 1_555
O16 V4 1.727397 1_655
O17 V5 1.727397 1_555
O18 V6 1.727397 1_455
O19 V7 1.727397 1_555
O20 V4 1.702541 1_655
O21 V5 1.702541 1_554
O22 V6 1.702541 1_455
O23 V7 1.702541 1_556
O24 V4 1.716156 1_555
O25 V5 1.716156 1_555
O26 V6 1.716156 1_555
O27 V7 1.716156 1_555
