# generated using pymatgen
data_Sn4P3C(NO4)3
_symmetry_space_group_name_H-M   'P 1'
_cell_length_a   9.18892000
_cell_length_b   9.18892000
_cell_length_c   21.02103900
_cell_angle_alpha   90.00000000
_cell_angle_beta   90.00000000
_cell_angle_gamma   90.00000000
_symmetry_Int_Tables_number   1
_chemical_formula_structural   Sn4P3C(NO4)3
_chemical_formula_sum   'Sn16 P12 C4 N12 O48'
_cell_volume   1774.93772037
_cell_formula_units_Z   4
loop_
 _symmetry_equiv_pos_site_id
 _symmetry_equiv_pos_as_xyz
  1  'x, y, z'
loop_
 _atom_site_type_symbol
 _atom_site_label
 _atom_site_symmetry_multiplicity
 _atom_site_fract_x
 _atom_site_fract_y
 _atom_site_fract_z
 _atom_site_occupancy
  Sn  Sn0  1  0.11272500  0.08368700  0.27681500  1
  Sn  Sn1  1  0.88727500  0.91631300  0.77681500  1
  Sn  Sn2  1  0.08368700  0.88727500  0.52681500  1
  Sn  Sn3  1  0.91631300  0.11272500  0.02681500  1
  Sn  Sn4  1  0.55070700  0.07356500  0.43500500  1
  Sn  Sn5  1  0.44929300  0.92643500  0.93500500  1
  Sn  Sn6  1  0.07356500  0.44929300  0.68500500  1
  Sn  Sn7  1  0.92643500  0.55070700  0.18500500  1
  Sn  Sn8  1  0.15680900  0.33312800  0.48465600  1
  Sn  Sn9  1  0.84319100  0.66687200  0.98465600  1
  Sn  Sn10  1  0.33312800  0.84319100  0.73465600  1
  Sn  Sn11  1  0.66687200  0.15680900  0.23465600  1
  Sn  Sn12  1  0.57385600  0.63389700  0.49531700  1
  Sn  Sn13  1  0.42614400  0.36610300  0.99531700  1
  Sn  Sn14  1  0.63389700  0.42614400  0.74531700  1
  Sn  Sn15  1  0.36610300  0.57385600  0.24531700  1
  P  P0  1  0.91513300  0.56867100  0.54751900  1
  P  P1  1  0.08486700  0.43132900  0.04751900  1
  P  P2  1  0.56867100  0.08486700  0.79751900  1
  P  P3  1  0.43132900  0.91513300  0.29751900  1
  P  P4  1  0.91655000  0.09769400  0.41317900  1
  P  P5  1  0.08345000  0.90230600  0.91317900  1
  P  P6  1  0.09769400  0.08345000  0.66317900  1
  P  P7  1  0.90230600  0.91655000  0.16317900  1
  P  P8  1  0.42225100  0.39733900  0.38916100  1
  P  P9  1  0.57774900  0.60266100  0.88916100  1
  P  P10  1  0.39733900  0.57774900  0.63916100  1
  P  P11  1  0.60266100  0.42225100  0.13916100  1
  C  C0  1  0.63915400  0.11030900  0.60219700  1
  C  C1  1  0.36084600  0.88969100  0.10219700  1
  C  C2  1  0.11030900  0.36084600  0.85219700  1
  C  C3  1  0.88969100  0.63915400  0.35219700  1
  N  N0  1  0.67219800  0.96893100  0.61461600  1
  N  N1  1  0.32780200  0.03106900  0.11461600  1
  N  N2  1  0.96893100  0.32780200  0.86461600  1
  N  N3  1  0.03106900  0.67219800  0.36461600  1
  N  N4  1  0.50141100  0.16122200  0.61142900  1
  N  N5  1  0.49858900  0.83877800  0.11142900  1
  N  N6  1  0.16122200  0.49858900  0.86142900  1
  N  N7  1  0.83877800  0.50141100  0.36142900  1
  N  N8  1  0.74348600  0.20118000  0.57884900  1
  N  N9  1  0.25651400  0.79882000  0.07884900  1
  N  N10  1  0.20118000  0.25651400  0.82884900  1
  N  N11  1  0.79882000  0.74348600  0.32884900  1
  O  O0  1  0.98246600  0.01958400  0.35451800  1
  O  O1  1  0.01753400  0.98041600  0.85451800  1
  O  O2  1  0.01958400  0.01753400  0.60451800  1
  O  O3  1  0.98041600  0.98246600  0.10451800  1
  O  O4  1  0.75498300  0.13706100  0.39875500  1
  O  O5  1  0.24501700  0.86293900  0.89875500  1
  O  O6  1  0.13706100  0.24501700  0.64875500  1
  O  O7  1  0.86293900  0.75498300  0.14875500  1
  O  O8  1  0.26231000  0.43750200  0.40801200  1
  O  O9  1  0.73769000  0.56249800  0.90801200  1
  O  O10  1  0.43750200  0.73769000  0.65801200  1
  O  O11  1  0.56249800  0.26231000  0.15801200  1
  O  O12  1  0.00445800  0.92147700  0.22169900  1
  O  O13  1  0.99554200  0.07852300  0.72169900  1
  O  O14  1  0.92147700  0.99554200  0.47169900  1
  O  O15  1  0.07852300  0.00445800  0.97169900  1
  O  O16  1  0.26435300  0.92607400  0.30657300  1
  O  O17  1  0.73564700  0.07392600  0.80657300  1
  O  O18  1  0.92607400  0.73564700  0.55657300  1
  O  O19  1  0.07392600  0.26435300  0.05657300  1
  O  O20  1  0.52848600  0.44274800  0.44273400  1
  O  O21  1  0.47151400  0.55725200  0.94273400  1
  O  O22  1  0.44274800  0.47151400  0.69273400  1
  O  O23  1  0.55725200  0.52848600  0.19273400  1
  O  O24  1  0.51238500  0.92306600  0.36215400  1
  O  O25  1  0.48761500  0.07693400  0.86215400  1
  O  O26  1  0.92306600  0.48761500  0.61215400  1
  O  O27  1  0.07693400  0.51238500  0.11215400  1
  O  O28  1  0.04112900  0.52166800  0.50188900  1
  O  O29  1  0.95887100  0.47833200  0.00188900  1
  O  O30  1  0.52166800  0.95887100  0.75188900  1
  O  O31  1  0.47833200  0.04112900  0.25188900  1
  O  O32  1  0.76783700  0.52833400  0.51705100  1
  O  O33  1  0.23216300  0.47166600  0.01705100  1
  O  O34  1  0.52833400  0.23216300  0.76705100  1
  O  O35  1  0.47166600  0.76783700  0.26705100  1
  O  O36  1  0.00057400  0.24274000  0.42456400  1
  O  O37  1  0.99942600  0.75726000  0.92456400  1
  O  O38  1  0.24274000  0.99942600  0.67456400  1
  O  O39  1  0.75726000  0.00057400  0.17456400  1
  O  O40  1  0.43362700  0.22885200  0.38105100  1
  O  O41  1  0.56637300  0.77114800  0.88105100  1
  O  O42  1  0.22885200  0.56637300  0.63105100  1
  O  O43  1  0.77114800  0.43362700  0.13105100  1
  O  O44  1  0.46122500  0.47121100  0.32545700  1
  O  O45  1  0.53877500  0.52878900  0.82545700  1
  O  O46  1  0.47121100  0.53877500  0.57545700  1
  O  O47  1  0.52878900  0.46122500  0.07545700  1
loop_
_geom_bond_atom_site_label_1
_geom_bond_atom_site_label_2
_geom_bond_distance
_geom_bond_site_symmetry_2
C0 N0 1.359426 1_545
C0 N8 1.362799 1_555
C0 N4 1.363287 1_555
C1 N1 1.359426 1_565
C1 N9 1.362799 1_555
C1 N5 1.363287 1_555
C2 N2 1.359426 1_455
C2 N10 1.362799 1_555
C2 N6 1.363287 1_555
C3 N3 1.359426 1_655
C3 N11 1.362799 1_555
C3 N7 1.363287 1_555
O0 P4 1.550033 1_555
O0 Sn0 2.108938 1_655
O1 P5 1.550033 1_555
O1 Sn1 2.108938 1_455
O2 P6 1.550033 1_555
O2 Sn2 2.108938 1_545
O3 P7 1.550033 1_555
O3 Sn3 2.108938 1_565
O4 P4 1.557853 1_555
O4 Sn4 2.108199 1_555
O5 P5 1.557853 1_555
O5 Sn5 2.108199 1_555
O6 P6 1.557853 1_555
O6 Sn6 2.108199 1_555
O7 P7 1.557853 1_555
O7 Sn7 2.108199 1_555
O8 P8 1.566271 1_555
O8 Sn8 2.110786 1_555
O9 P9 1.566271 1_555
O9 Sn9 2.110786 1_555
O10 P10 1.566271 1_555
O10 Sn10 2.110786 1_555
O11 P11 1.566271 1_555
O11 Sn11 2.110786 1_555
O12 P7 1.548036 1_455
O12 Sn0 2.133958 1_565
O13 P6 1.548036 1_655
O13 Sn1 2.133958 1_545
O14 P4 1.548036 1_565
O14 Sn2 2.133958 1_655
O15 P5 1.548036 1_545
O15 Sn3 2.133958 1_456
O16 P3 1.549354 1_555
O16 Sn0 2.104789 1_565
O17 P2 1.549354 1_555
O17 Sn1 2.104789 1_545
O18 P0 1.549354 1_555
O18 Sn2 2.104789 1_655
O19 P1 1.549354 1_555
O19 Sn3 2.104789 1_455
O20 P8 1.547669 1_555
O20 Sn12 2.116774 1_555
O21 P9 1.547669 1_555
O21 Sn13 2.116774 1_555
O22 P10 1.547669 1_555
O22 Sn14 2.116774 1_555
O23 P11 1.547669 1_555
O23 Sn15 2.116774 1_555
O24 P3 1.551167 1_555
O24 Sn4 2.093245 1_565
O25 P2 1.551167 1_555
O25 Sn5 2.093245 1_545
O26 P0 1.551167 1_555
O26 Sn6 2.093245 1_655
O27 P1 1.551167 1_555
O27 Sn7 2.093245 1_455
O28 P0 1.564293 1_455
O28 Sn8 2.064613 1_555
O29 P1 1.564293 1_655
O29 Sn9 2.064613 1_554
O30 P2 1.564293 1_565
O30 Sn10 2.064613 1_555
O31 P3 1.564293 1_545
O31 Sn11 2.064613 1_555
O32 P0 1.542570 1_555
O32 Sn12 2.080113 1_555
O33 P1 1.542570 1_555
O33 Sn13 2.080113 1_554
O34 P2 1.542570 1_555
O34 Sn14 2.080113 1_555
O35 P3 1.542570 1_555
O35 Sn15 2.080113 1_555
O36 P4 1.558781 1_455
O36 Sn8 2.084837 1_555
O37 P5 1.558781 1_655
O37 Sn9 2.084837 1_555
O38 P6 1.558781 1_565
O38 Sn10 2.084837 1_555
O39 P7 1.558781 1_545
O39 Sn11 2.084837 1_555
O40 P8 1.561075 1_555
O40 Sn4 2.116570 1_555
O41 P9 1.561075 1_555
O41 Sn5 2.116570 1_555
O42 P10 1.561075 1_555
O42 Sn6 2.116570 1_555
O43 P11 1.561075 1_555
O43 Sn7 2.116570 1_555
O44 P8 1.543465 1_555
O44 Sn15 2.119335 1_555
O45 P9 1.543465 1_555
O45 Sn14 2.119335 1_555
O46 P10 1.543465 1_555
O46 Sn12 2.119335 1_555
O47 P11 1.543465 1_555
O47 Sn13 2.119335 1_554
