# generated using pymatgen
data_Ni2PO5
_symmetry_space_group_name_H-M   'P 1'
_cell_length_a   7.18161401
_cell_length_b   6.35960200
_cell_length_c   7.48946801
_cell_angle_alpha   89.99951056
_cell_angle_beta   90.00639230
_cell_angle_gamma   90.00098116
_symmetry_Int_Tables_number   1
_chemical_formula_structural   Ni2PO5
_chemical_formula_sum   'Ni8 P4 O20'
_cell_volume   342.06052991
_cell_formula_units_Z   4
loop_
 _symmetry_equiv_pos_site_id
 _symmetry_equiv_pos_as_xyz
  1  'x, y, z'
loop_
 _atom_site_type_symbol
 _atom_site_label
 _atom_site_symmetry_multiplicity
 _atom_site_fract_x
 _atom_site_fract_y
 _atom_site_fract_z
 _atom_site_occupancy
  Ni  Ni0  1  0.00000500  0.99999400  0.00000200  1
  Ni  Ni1  1  0.00000500  0.50000600  0.00000200  1
  Ni  Ni2  1  0.14455700  0.25000600  0.72363800  1
  Ni  Ni3  1  0.35554400  0.74999500  0.22351400  1
  Ni  Ni4  1  0.49998700  0.00000500  0.50000600  1
  Ni  Ni5  1  0.49998600  0.49999500  0.50000300  1
  Ni  Ni6  1  0.64451100  0.25000600  0.77647300  1
  Ni  Ni7  1  0.85544600  0.74999200  0.27637000  1
  P  P0  1  0.11910000  0.75000200  0.63805600  1
  P  P1  1  0.38089200  0.24999900  0.13804900  1
  P  P2  1  0.61911300  0.75000000  0.86194000  1
  P  P3  1  0.88089500  0.24999600  0.36194800  1
  O  O0  1  0.05508300  0.25000400  0.47453000  1
  O  O1  1  0.09881600  0.74998200  0.13877500  1
  O  O2  1  0.13166600  0.94281100  0.76672100  1
  O  O3  1  0.13166800  0.55719700  0.76672900  1
  O  O4  1  0.19900300  0.25000300  0.02098400  1
  O  O5  1  0.30105700  0.74999600  0.52100300  1
  O  O6  1  0.36835300  0.05713800  0.26670100  1
  O  O7  1  0.36836200  0.44285700  0.26670400  1
  O  O8  1  0.40113600  0.25000700  0.63871300  1
  O  O9  1  0.44487100  0.74999700  0.97450400  1
  O  O10  1  0.55513400  0.25000300  0.02548600  1
  O  O11  1  0.59883200  0.74999600  0.36128400  1
  O  O12  1  0.63163400  0.55714400  0.73328900  1
  O  O13  1  0.63164300  0.94286200  0.73329200  1
  O  O14  1  0.69892800  0.25000400  0.47899400  1
  O  O15  1  0.80099700  0.74999800  0.97901500  1
  O  O16  1  0.86833200  0.05718700  0.23328500  1
  O  O17  1  0.86833000  0.44280300  0.23327800  1
  O  O18  1  0.90121700  0.25001900  0.86121600  1
  O  O19  1  0.94489800  0.74999500  0.52549400  1
loop_
_geom_bond_atom_site_label_1
_geom_bond_atom_site_label_2
_geom_bond_distance
_geom_bond_site_symmetry_2
Ni0 O2 2.019708 1_554
Ni0 O16 2.019772 1_465
Ni0 O1 2.027722 1_555
Ni0 O18 2.027779 1_464
Ni0 O15 2.143570 1_454
Ni0 O4 2.143581 1_565
Ni1 O3 2.019660 1_554
Ni1 O17 2.019734 1_455
Ni1 O1 2.027537 1_555
Ni1 O18 2.027584 1_454
Ni1 O15 2.143586 1_454
Ni1 O4 2.143587 1_555
Ni2 O8 1.949404 1_555
Ni2 O0 1.973173 1_555
Ni2 O3 1.982258 1_555
Ni2 O2 1.982266 1_545
Ni2 O18 2.028820 1_455
Ni2 O4 2.260987 1_556
Ni3 O1 1.949828 1_555
Ni3 O9 1.972271 1_554
Ni3 O7 1.982014 1_555
Ni3 O6 1.982041 1_565
Ni3 O11 2.029031 1_555
Ni3 O5 2.262178 1_555
Ni4 O13 2.019490 1_545
Ni4 O6 2.019527 1_555
Ni4 O8 2.027614 1_555
Ni4 O11 2.027692 1_545
Ni4 O5 2.143285 1_545
Ni4 O14 2.143299 1_555
Ni5 O7 2.019460 1_555
Ni5 O12 2.019469 1_555
Ni5 O8 2.027520 1_555
Ni5 O11 2.027610 1_555
Ni5 O5 2.143283 1_555
Ni5 O14 2.143303 1_555
Ni6 O18 1.949688 1_555
Ni6 O10 1.972409 1_556
Ni6 O12 1.982027 1_555
Ni6 O13 1.982060 1_545
Ni6 O8 2.029531 1_555
Ni6 O14 2.262018 1_555
Ni7 O11 1.949615 1_555
Ni7 O19 1.973235 1_555
Ni7 O17 1.982245 1_555
Ni7 O16 1.982266 1_565
Ni7 O1 2.029071 1_655
Ni7 O15 2.261057 1_554
O0 P3 1.508507 1_455
O2 P0 1.562135 1_555
O3 P0 1.562143 1_555
O4 P1 1.573134 1_555
O5 P0 1.573651 1_555
O6 P1 1.562323 1_555
O7 P1 1.562334 1_555
O9 P2 1.508910 1_555
O10 P1 1.508905 1_555
O12 P2 1.562301 1_555
O13 P2 1.562306 1_555
O14 P3 1.573682 1_555
O15 P2 1.573146 1_555
O16 P3 1.562125 1_555
O17 P3 1.562137 1_555
O19 P0 1.508507 1_655
