# generated using pymatgen
data_Li4TiV3O8
_symmetry_space_group_name_H-M   'P 1'
_cell_length_a   5.96587626
_cell_length_b   5.96587626
_cell_length_c   6.00488833
_cell_angle_alpha   60.17103314
_cell_angle_beta   60.17103314
_cell_angle_gamma   60.46982399
_symmetry_Int_Tables_number   1
_chemical_formula_structural   Li4TiV3O8
_chemical_formula_sum   'Li4 Ti1 V3 O8'
_cell_volume   152.04868472
_cell_formula_units_Z   1
loop_
 _symmetry_equiv_pos_site_id
 _symmetry_equiv_pos_as_xyz
  1  'x, y, z'
loop_
 _atom_site_type_symbol
 _atom_site_label
 _atom_site_symmetry_multiplicity
 _atom_site_fract_x
 _atom_site_fract_y
 _atom_site_fract_z
 _atom_site_occupancy
  Li  Li0  1  0.00000000  0.50000000  0.00000000  1
  Li  Li1  1  0.50000000  0.00000000  0.00000000  1
  Li  Li2  1  0.00000000  0.00000000  0.00000000  1
  Li  Li3  1  0.50000000  0.50000000  0.00000000  1
  Ti  Ti0  1  0.00000000  0.00000000  0.50000000  1
  V  V0  1  0.50000000  0.00000000  0.50000000  1
  V  V1  1  0.00000000  0.50000000  0.50000000  1
  V  V2  1  0.50000000  0.50000000  0.50000000  1
  O  O0  1  0.23509700  0.75045500  0.27020100  1
  O  O1  1  0.75045500  0.23509700  0.27020100  1
  O  O2  1  0.23678400  0.23678400  0.26748100  1
  O  O3  1  0.25026500  0.25026500  0.72882300  1
  O  O4  1  0.74973500  0.74973500  0.27117700  1
  O  O5  1  0.76321600  0.76321600  0.73251900  1
  O  O6  1  0.24954500  0.76490300  0.72979900  1
  O  O7  1  0.76490300  0.24954500  0.72979900  1
loop_
_geom_bond_atom_site_label_1
_geom_bond_atom_site_label_2
_geom_bond_distance
_geom_bond_site_symmetry_2
Li0 O2 2.145366 1_555
Li0 O5 2.145366 1_454
Li0 O6 2.170691 1_554
Li0 O1 2.170691 1_455
Li0 O4 2.214200 1_455
Li0 O3 2.214200 1_554
Li1 O2 2.145366 1_555
Li1 O5 2.145366 1_544
Li1 O0 2.170691 1_545
Li1 O7 2.170691 1_554
Li1 O4 2.214200 1_545
Li1 O3 2.214200 1_554
Li2 O3 2.114271 1_554
Li2 O4 2.114271 1_445
Li2 O1 2.149113 1_455
Li2 O0 2.149113 1_545
Li2 O7 2.149113 1_454
Li2 O6 2.149113 1_544
Li3 O0 2.212665 1_555
Li3 O1 2.212665 1_555
Li3 O6 2.212665 1_554
Li3 O7 2.212665 1_554
Li3 O2 2.219022 1_555
Li3 O5 2.219022 1_554
O0 Ti0 2.036595 1_565
O0 V1 2.047729 1_555
O0 V2 2.103550 1_555
O1 Ti0 2.036595 1_655
O1 V0 2.047729 1_555
O1 V2 2.103550 1_555
O2 Ti0 1.995817 1_555
O2 V1 2.107904 1_555
O2 V0 2.107904 1_555
O3 V0 2.036789 1_555
O3 V1 2.036789 1_555
O3 V2 2.107733 1_555
O4 V1 2.036789 1_655
O4 V0 2.036789 1_565
O4 V2 2.107733 1_555
O5 Ti0 1.995817 1_665
O5 V0 2.107904 1_565
O5 V1 2.107904 1_655
O6 Ti0 2.036595 1_565
O6 V0 2.047729 1_565
O6 V2 2.103550 1_555
O7 Ti0 2.036595 1_655
O7 V1 2.047729 1_655
O7 V2 2.103550 1_555
