# generated using pymatgen
data_Li3VF6
_symmetry_space_group_name_H-M   'P 1'
_cell_length_a   5.22685600
_cell_length_b   5.18467700
_cell_length_c   9.31931744
_cell_angle_alpha   56.57584736
_cell_angle_beta   90.00000000
_cell_angle_gamma   90.00000000
_symmetry_Int_Tables_number   1
_chemical_formula_structural   Li3VF6
_chemical_formula_sum   'Li6 V2 F12'
_cell_volume   210.78170622
_cell_formula_units_Z   2
loop_
 _symmetry_equiv_pos_site_id
 _symmetry_equiv_pos_as_xyz
  1  'x, y, z'
loop_
 _atom_site_type_symbol
 _atom_site_label
 _atom_site_symmetry_multiplicity
 _atom_site_fract_x
 _atom_site_fract_y
 _atom_site_fract_z
 _atom_site_occupancy
  Li  Li0  1  0.50000000  0.50000000  0.00000000  1
  Li  Li1  1  0.03083000  0.72211700  0.76361300  1
  Li  Li2  1  0.53083000  0.27788300  0.73638700  1
  Li  Li3  1  0.00000000  0.50000000  0.50000000  1
  Li  Li4  1  0.46917000  0.72211700  0.26361300  1
  Li  Li5  1  0.96917000  0.27788300  0.23638700  1
  V  V0  1  0.50000000  0.00000000  0.50000000  1
  V  V1  1  0.00000000  0.00000000  0.00000000  1
  F  F0  1  0.40512300  0.63301300  0.73845000  1
  F  F1  1  0.18247000  0.92696300  0.41726800  1
  F  F2  1  0.17142000  0.26875700  0.05746400  1
  F  F3  1  0.67142000  0.73124300  0.44253600  1
  F  F4  1  0.68247000  0.07303700  0.08273200  1
  F  F5  1  0.90512300  0.36698700  0.76155000  1
  F  F6  1  0.09487700  0.63301300  0.23845000  1
  F  F7  1  0.31753000  0.92696300  0.91726800  1
  F  F8  1  0.32858000  0.26875700  0.55746400  1
  F  F9  1  0.82858000  0.73124300  0.94253600  1
  F  F10  1  0.81753000  0.07303700  0.58273200  1
  F  F11  1  0.59487700  0.36698700  0.26155000  1
loop_
_geom_bond_atom_site_label_1
_geom_bond_atom_site_label_2
_geom_bond_distance
_geom_bond_site_symmetry_2
F0 Li2 1.965001 1_555
F0 V0 2.036251 1_565
F0 Li1 2.053087 1_555
F0 Li0 2.193381 1_556
F1 V0 1.952955 1_565
F1 Li5 2.003998 1_465
F1 Li3 2.126999 1_555
F2 V1 1.962975 1_555
F2 Li0 1.991600 1_555
F2 Li5 1.996757 1_455
F3 V0 1.962975 1_565
F3 Li3 1.991600 1_655
F3 Li4 1.996757 1_555
F4 V1 1.952955 1_655
F4 Li4 2.003998 1_545
F4 Li0 2.126999 1_555
F5 Li1 1.965001 1_655
F5 V1 2.036251 1_656
F5 Li2 2.053087 1_555
F5 Li3 2.193381 1_655
F6 Li5 1.965001 1_455
F6 V1 2.036251 1_565
F6 Li4 2.053087 1_555
F6 Li3 2.193381 1_555
F7 V1 1.952955 1_566
F7 Li2 2.003998 1_565
F7 Li0 2.126999 1_556
F8 V0 1.962975 1_555
F8 Li3 1.991600 1_555
F8 Li2 1.996757 1_555
F9 V1 1.962975 1_666
F9 Li0 1.991600 1_556
F9 Li1 1.996757 1_655
F10 V0 1.952955 1_555
F10 Li1 2.003998 1_645
F10 Li3 2.126999 1_655
F11 Li4 1.965001 1_555
F11 V0 2.036251 1_555
F11 Li5 2.053087 1_555
F11 Li0 2.193381 1_555
