# generated using pymatgen
data_LiNbCo3(PO4)6
_symmetry_space_group_name_H-M   'P 1'
_cell_length_a   8.65615320
_cell_length_b   8.66127197
_cell_length_c   8.72398162
_cell_angle_alpha   60.20683789
_cell_angle_beta   60.30783922
_cell_angle_gamma   60.61314676
_symmetry_Int_Tables_number   1
_chemical_formula_structural   LiNbCo3(PO4)6
_chemical_formula_sum   'Li1 Nb1 Co3 P6 O24'
_cell_volume   466.41430171
_cell_formula_units_Z   1
loop_
 _symmetry_equiv_pos_site_id
 _symmetry_equiv_pos_as_xyz
  1  'x, y, z'
loop_
 _atom_site_type_symbol
 _atom_site_label
 _atom_site_symmetry_multiplicity
 _atom_site_fract_x
 _atom_site_fract_y
 _atom_site_fract_z
 _atom_site_occupancy
  Li  Li0  1  0.48694000  0.50247700  0.49742800  1
  Nb  Nb0  1  0.86362000  0.86167000  0.86137000  1
  Co  Co0  1  0.13513900  0.14158100  0.13611500  1
  Co  Co1  1  0.35640900  0.35375100  0.35435100  1
  Co  Co2  1  0.64111400  0.64289800  0.63919100  1
  P  P0  1  0.03993100  0.74871900  0.45560000  1
  P  P1  1  0.45674900  0.03795500  0.74654400  1
  P  P2  1  0.26171300  0.52789000  0.95656000  1
  P  P3  1  0.74705200  0.45630500  0.03715400  1
  P  P4  1  0.52945600  0.95891200  0.26016200  1
  P  P5  1  0.95533700  0.26285200  0.52455200  1
  O  O0  1  0.36662300  0.00549500  0.20282200  1
  O  O1  1  0.12664100  0.29671200  0.49795600  1
  O  O2  1  0.30105200  0.50559900  0.11962300  1
  O  O3  1  0.07243600  0.91094400  0.26720700  1
  O  O4  1  0.51345400  0.12319400  0.29600300  1
  O  O5  1  0.22528900  0.58033300  0.44779400  1
  O  O6  1  0.26632000  0.07256500  0.90379400  1
  O  O7  1  0.19836600  0.36860600  0.99863000  1
  O  O8  1  0.45102700  0.22590000  0.58015800  1
  O  O9  1  0.09873900  0.72010700  0.92178300  1
  O  O10  1  0.57997800  0.45024700  0.22358300  1
  O  O11  1  0.42734800  0.53940000  0.77097400  1
  O  O12  1  0.90387400  0.26497800  0.07047200  1
  O  O13  1  0.53951800  0.77308400  0.42597900  1
  O  O14  1  0.71941500  0.92279700  0.09517300  1
  O  O15  1  0.48204900  0.87563600  0.70209400  1
  O  O16  1  0.77226300  0.42979700  0.54102300  1
  O  O17  1  0.98676100  0.20819100  0.36731000  1
  O  O18  1  0.92373100  0.09819900  0.71629800  1
  O  O19  1  0.70236100  0.48614900  0.87398700  1
  O  O20  1  0.87408300  0.70605400  0.48408000  1
  O  O21  1  0.62183500  0.98791700  0.80697000  1
  O  O22  1  0.81054800  0.61854300  0.99047300  1
  O  O23  1  0.99446100  0.80612100  0.62012800  1
loop_
_geom_bond_atom_site_label_1
_geom_bond_atom_site_label_2
_geom_bond_distance
_geom_bond_site_symmetry_2
Li0 O5 2.225863 1_555
Li0 O8 2.268583 1_555
Li0 O10 2.317543 1_555
Li0 O13 2.324460 1_555
Li0 O11 2.332442 1_555
Li0 O16 2.409905 1_555
Nb0 O18 1.971458 1_565
Nb0 O9 1.973508 1_655
Nb0 O14 1.975098 1_556
Nb0 O22 1.998464 1_555
Nb0 O21 2.005884 1_555
Nb0 O23 2.013348 1_555
Co0 O7 1.914872 1_554
Co0 O3 1.942122 1_545
Co0 O0 1.974515 1_555
Co0 O12 1.976215 1_455
Co0 O17 1.978202 1_455
Co0 O6 2.003076 1_554
Co1 O1 1.910526 1_555
Co1 O4 1.937838 1_555
Co1 O2 1.957022 1_555
Co1 O10 2.048865 1_555
Co1 O5 2.071544 1_555
Co1 O8 2.078035 1_555
Co2 O20 1.959764 1_555
Co2 O15 1.971608 1_555
Co2 O19 1.981402 1_555
Co2 O16 1.995037 1_555
Co2 O11 2.011345 1_555
Co2 O13 2.016871 1_555
O0 P4 1.529562 1_545
O1 P5 1.535239 1_455
O2 P2 1.522942 1_554
O3 P0 1.545847 1_555
O4 P4 1.532108 1_545
O5 P0 1.549183 1_555
O6 P1 1.540277 1_555
O7 P2 1.542260 1_555
O8 P1 1.550262 1_555
O9 P2 1.571943 1_555
O10 P3 1.548853 1_555
O11 P2 1.538544 1_555
O12 P3 1.542032 1_555
O13 P4 1.537606 1_555
O14 P4 1.572039 1_555
O15 P1 1.526540 1_565
O16 P5 1.534542 1_555
O17 P5 1.526183 1_555
O18 P5 1.570264 1_555
O19 P3 1.524625 1_556
O20 P0 1.528165 1_655
O21 P1 1.555390 1_565
O22 P3 1.552433 1_556
O23 P0 1.555545 1_655
