# generated using pymatgen
data_Y2CuH5S2O12F
_symmetry_space_group_name_H-M   'P 1'
_cell_length_a   6.81364800
_cell_length_b   12.87591200
_cell_length_c   16.46733087
_cell_angle_alpha   51.56483358
_cell_angle_beta   90.00000000
_cell_angle_gamma   90.00000000
_symmetry_Int_Tables_number   1
_chemical_formula_structural   Y2CuH5S2O12F
_chemical_formula_sum   'Y8 Cu4 H20 S8 O48 F4'
_cell_volume   1131.65936766
_cell_formula_units_Z   4
loop_
 _symmetry_equiv_pos_site_id
 _symmetry_equiv_pos_as_xyz
  1  'x, y, z'
loop_
 _atom_site_type_symbol
 _atom_site_label
 _atom_site_symmetry_multiplicity
 _atom_site_fract_x
 _atom_site_fract_y
 _atom_site_fract_z
 _atom_site_occupancy
  Y  Y0  1  0.79759900  0.22475400  0.96368900  1
  Y  Y1  1  0.70240100  0.22475400  0.46368900  1
  Y  Y2  1  0.20240100  0.77524600  0.03631100  1
  Y  Y3  1  0.29759900  0.77524600  0.53631100  1
  Y  Y4  1  0.73806500  0.31481600  0.68093600  1
  Y  Y5  1  0.76193500  0.31481600  0.18093600  1
  Y  Y6  1  0.26193500  0.68518400  0.31906400  1
  Y  Y7  1  0.23806500  0.68518400  0.81906400  1
  Cu  Cu0  1  0.57858100  0.48762000  0.73854700  1
  Cu  Cu1  1  0.92141900  0.48762000  0.23854700  1
  Cu  Cu2  1  0.42141900  0.51238000  0.26145300  1
  Cu  Cu3  1  0.07858100  0.51238000  0.76145300  1
  H  H0  1  0.80431300  0.03767500  0.21126000  1
  H  H1  1  0.69568700  0.03767500  0.71126000  1
  H  H2  1  0.19568700  0.96232500  0.78874000  1
  H  H3  1  0.30431300  0.96232500  0.28874000  1
  H  H4  1  0.26588300  0.14590900  0.88741200  1
  H  H5  1  0.23411700  0.14590900  0.38741200  1
  H  H6  1  0.73411700  0.85409100  0.11258800  1
  H  H7  1  0.76588300  0.85409100  0.61258800  1
  H  H8  1  0.20319200  0.25099300  0.76295800  1
  H  H9  1  0.29680800  0.25099300  0.26295800  1
  H  H10  1  0.79680800  0.74900700  0.23704200  1
  H  H11  1  0.70319200  0.74900700  0.73704200  1
  H  H12  1  0.73366400  0.90099600  0.18471700  1
  H  H13  1  0.76633600  0.90099600  0.68471700  1
  H  H14  1  0.26633600  0.09900400  0.81528300  1
  H  H15  1  0.23366400  0.09900400  0.31528300  1
  H  H16  1  0.47718100  0.02763200  0.30903300  1
  H  H17  1  0.02281900  0.02763200  0.80903300  1
  H  H18  1  0.52281900  0.97236800  0.69096700  1
  H  H19  1  0.97718100  0.97236800  0.19096700  1
  S  S0  1  0.77140300  0.55606600  0.41412600  1
  S  S1  1  0.72859700  0.55606600  0.91412600  1
  S  S2  1  0.22859700  0.44393400  0.58587400  1
  S  S3  1  0.27140300  0.44393400  0.08587400  1
  S  S4  1  0.72682100  0.96469400  0.92315200  1
  S  S5  1  0.77317900  0.96469400  0.42315200  1
  S  S6  1  0.27317900  0.03530600  0.07684800  1
  S  S7  1  0.22682100  0.03530600  0.57684800  1
  O  O0  1  0.69778200  0.45004100  0.90545300  1
  O  O1  1  0.80221800  0.45004100  0.40545300  1
  O  O2  1  0.30221800  0.54995900  0.09454700  1
  O  O3  1  0.19778200  0.54995900  0.59454700  1
  O  O4  1  0.80281700  0.51149000  0.52011000  1
  O  O5  1  0.69718300  0.51149000  0.02011000  1
  O  O6  1  0.19718300  0.48851000  0.47989000  1
  O  O7  1  0.30281700  0.48851000  0.97989000  1
  O  O8  1  0.08378500  0.33298000  0.65919200  1
  O  O9  1  0.41621500  0.33298000  0.15919200  1
  O  O10  1  0.91621500  0.66702000  0.34080800  1
  O  O11  1  0.58378500  0.66702000  0.84080800  1
  O  O12  1  0.42636400  0.38535000  0.62106300  1
  O  O13  1  0.07363600  0.38535000  0.12106300  1
  O  O14  1  0.57363600  0.61465000  0.37893700  1
  O  O15  1  0.92636400  0.61465000  0.87893700  1
  O  O16  1  0.75068700  0.02462100  0.97671800  1
  O  O17  1  0.74931300  0.02462100  0.47671800  1
  O  O18  1  0.24931300  0.97537900  0.02328200  1
  O  O19  1  0.25068700  0.97537900  0.52328200  1
  O  O20  1  0.77066400  0.07469800  0.80740500  1
  O  O21  1  0.72933600  0.07469800  0.30740500  1
  O  O22  1  0.22933600  0.92530200  0.19259500  1
  O  O23  1  0.27066400  0.92530200  0.69259500  1
  O  O24  1  0.52948300  0.91266800  0.93447400  1
  O  O25  1  0.97051700  0.91266800  0.43447400  1
  O  O26  1  0.47051700  0.08733200  0.06552600  1
  O  O27  1  0.02948300  0.08733200  0.56552600  1
  O  O28  1  0.87569800  0.85948200  0.96449100  1
  O  O29  1  0.62430200  0.85948200  0.46449100  1
  O  O30  1  0.12430200  0.14051800  0.03550900  1
  O  O31  1  0.37569800  0.14051800  0.53550900  1
  O  O32  1  0.83619900  0.99520300  0.17962700  1
  O  O33  1  0.66380100  0.99520300  0.67962700  1
  O  O34  1  0.16380100  0.00479700  0.82037300  1
  O  O35  1  0.33619900  0.00479700  0.32037300  1
  O  O36  1  0.65629400  0.31776500  0.80819100  1
  O  O37  1  0.84370600  0.31776500  0.30819100  1
  O  O38  1  0.34370600  0.68223500  0.19180900  1
  O  O39  1  0.15629400  0.68223500  0.69180900  1
  O  O40  1  0.00822400  0.34544300  0.84104100  1
  O  O41  1  0.49177600  0.34544300  0.34104100  1
  O  O42  1  0.99177600  0.65455700  0.15895900  1
  O  O43  1  0.50822400  0.65455700  0.65895900  1
  O  O44  1  0.69974600  0.82029600  0.18340300  1
  O  O45  1  0.80025400  0.82029600  0.68340300  1
  O  O46  1  0.30025400  0.17970400  0.81659700  1
  O  O47  1  0.19974600  0.17970400  0.31659700  1
  F  F0  1  0.79520500  0.23997200  0.09376600  1
  F  F1  1  0.70479500  0.23997200  0.59376600  1
  F  F2  1  0.20479500  0.76002800  0.90623400  1
  F  F3  1  0.29520500  0.76002800  0.40623400  1
loop_
_geom_bond_atom_site_label_1
_geom_bond_atom_site_label_2
_geom_bond_distance
_geom_bond_site_symmetry_2
Cu0 O43 1.750806 1_555
Cu0 O36 1.805668 1_555
Cu1 O42 1.750806 1_555
Cu1 O37 1.805668 1_555
Cu2 O41 1.750806 1_555
Cu2 O38 1.805668 1_555
Cu3 O40 1.750806 1_555
Cu3 O39 1.805668 1_555
H0 O32 0.985788 1_545
H1 O33 0.985788 1_545
H2 O34 0.985788 1_565
H3 O35 0.985788 1_565
H4 O46 0.986505 1_555
H5 O47 0.986505 1_555
H6 O44 0.986505 1_555
H7 O45 0.986505 1_555
H8 O46 1.025734 1_555
H8 O8 1.566372 1_555
H9 O47 1.025734 1_555
H9 O9 1.566372 1_555
H10 O44 1.025734 1_555
H10 O10 1.566372 1_555
H11 O45 1.025734 1_555
H11 O11 1.566372 1_555
H12 O44 1.077743 1_555
H12 O32 1.356498 1_555
H13 O45 1.077743 1_555
H13 O33 1.356498 1_555
H14 O46 1.077743 1_555
H14 O34 1.356498 1_555
H15 O47 1.077743 1_555
H15 O35 1.356498 1_555
H16 O35 0.987833 1_555
H17 O34 0.987833 1_555
H18 O33 0.987833 1_555
H19 O32 0.987833 1_555
O0 S1 1.473286 1_555
O0 Y0 2.517580 1_555
O1 S0 1.473286 1_555
O1 Y1 2.517580 1_555
O2 S3 1.473286 1_555
O2 Y2 2.517580 1_555
O3 S2 1.473286 1_555
O3 Y3 2.517580 1_555
O4 S0 1.475071 1_555
O4 Y4 2.298545 1_555
O5 S1 1.475071 1_554
O5 Y5 2.298545 1_555
O6 S2 1.475071 1_555
O6 Y6 2.298545 1_555
O7 S3 1.475071 1_556
O7 Y7 2.298545 1_555
O8 S2 1.525718 1_555
O8 Y4 2.372280 1_455
O9 S3 1.525718 1_555
O9 Y5 2.372280 1_555
O10 S0 1.525718 1_555
O10 Y6 2.372280 1_655
O11 S1 1.525718 1_555
O11 Y7 2.372280 1_555
O12 S2 1.475516 1_555
O12 Y4 2.279094 1_555
O13 S3 1.475516 1_555
O13 Y5 2.279094 1_455
O14 S0 1.475516 1_555
O14 Y6 2.279094 1_555
O15 S1 1.475516 1_555
O15 Y7 2.279094 1_655
O16 S4 1.498705 1_545
O16 Y0 2.470065 1_555
O17 S5 1.498705 1_545
O17 Y1 2.470065 1_555
O18 S6 1.498705 1_565
O18 Y2 2.470065 1_555
O19 S7 1.498705 1_565
O19 Y3 2.470065 1_555
O20 S4 1.540125 1_545
O20 Y4 2.437264 1_555
O21 S5 1.540125 1_545
O21 Y5 2.437264 1_555
O22 S6 1.540125 1_565
O22 Y6 2.437264 1_555
O23 S7 1.540125 1_565
O23 Y7 2.437264 1_555
O24 S4 1.461559 1_555
O24 Y2 2.687153 1_556
O25 S5 1.461559 1_555
O25 Y3 2.687153 1_655
O26 S6 1.461559 1_555
O26 Y0 2.687153 1_554
O27 S7 1.461559 1_555
O27 Y1 2.687153 1_455
O28 S4 1.476850 1_555
O28 Y2 2.436306 1_656
O29 S5 1.476850 1_555
O29 Y3 2.436306 1_555
O30 S6 1.476850 1_555
O30 Y0 2.436306 1_454
O31 S7 1.476850 1_555
O31 Y1 2.436306 1_555
O32 Y0 2.895333 1_564
O33 Y1 2.895333 1_565
O34 Y2 2.895333 1_546
O35 Y3 2.895333 1_545
O36 Y4 2.191375 1_555
O36 Y0 2.259535 1_555
O37 Y5 2.191375 1_555
O37 Y1 2.259535 1_555
O38 Y6 2.191375 1_555
O38 Y2 2.259535 1_555
O39 Y7 2.191375 1_555
O39 Y3 2.259535 1_555
O40 Y0 2.156743 1_455
O41 Y1 2.156743 1_555
O42 Y2 2.156743 1_655
O43 Y3 2.156743 1_555
F0 Y5 2.181845 1_555
F0 Y0 2.269082 1_554
F1 Y4 2.181845 1_555
F1 Y1 2.269082 1_555
F2 Y7 2.181845 1_555
F2 Y2 2.269082 1_556
F3 Y6 2.181845 1_555
F3 Y3 2.269082 1_555
