# generated using pymatgen
data_KNaReH9
_symmetry_space_group_name_H-M   'P 1'
_cell_length_a   5.39543109
_cell_length_b   9.12972641
_cell_length_c   10.04100825
_cell_angle_alpha   90.00000000
_cell_angle_beta   90.00000000
_cell_angle_gamma   90.00000000
_symmetry_Int_Tables_number   1
_chemical_formula_structural   KNaReH9
_chemical_formula_sum   'K4 Na4 Re4 H36'
_cell_volume   494.60811474
_cell_formula_units_Z   4
loop_
 _symmetry_equiv_pos_site_id
 _symmetry_equiv_pos_as_xyz
  1  'x, y, z'
loop_
 _atom_site_type_symbol
 _atom_site_label
 _atom_site_symmetry_multiplicity
 _atom_site_fract_x
 _atom_site_fract_y
 _atom_site_fract_z
 _atom_site_occupancy
  K  K0  1  0.25000000  0.52839684  0.82483795  1
  K  K1  1  0.25000000  0.02839684  0.67516205  1
  K  K2  1  0.75000000  0.47160316  0.17516205  1
  K  K3  1  0.75000000  0.97160316  0.32483795  1
  Na  Na0  1  0.25000000  0.63539601  0.42434767  1
  Na  Na1  1  0.25000000  0.13539601  0.07565233  1
  Na  Na2  1  0.75000000  0.36460399  0.57565233  1
  Na  Na3  1  0.75000000  0.86460399  0.92434767  1
  Re  Re0  1  0.25000000  0.77024849  0.11619169  1
  Re  Re1  1  0.25000000  0.27024849  0.38380831  1
  Re  Re2  1  0.75000000  0.22975151  0.88380831  1
  Re  Re3  1  0.75000000  0.72975151  0.61619169  1
  H  H0  1  0.03076020  0.90344464  0.10275344  1
  H  H1  1  0.46923980  0.40344464  0.39724656  1
  H  H2  1  0.53076020  0.09655536  0.89724656  1
  H  H3  1  0.96923980  0.59655536  0.60275344  1
  H  H4  1  0.96923980  0.09655536  0.89724656  1
  H  H5  1  0.53076020  0.59655536  0.60275344  1
  H  H6  1  0.46923980  0.90344464  0.10275344  1
  H  H7  1  0.03076020  0.40344464  0.39724656  1
  H  H8  1  0.02810859  0.71976044  0.22656177  1
  H  H9  1  0.47189141  0.21976044  0.27343823  1
  H  H10  1  0.52810859  0.28023956  0.77343823  1
  H  H11  1  0.97189141  0.78023956  0.72656177  1
  H  H12  1  0.97189141  0.28023956  0.77343823  1
  H  H13  1  0.52810859  0.78023956  0.72656177  1
  H  H14  1  0.47189141  0.71976044  0.22656177  1
  H  H15  1  0.02810859  0.21976044  0.27343823  1
  H  H16  1  0.02145691  0.68956782  0.02579105  1
  H  H17  1  0.47854309  0.18956782  0.47420895  1
  H  H18  1  0.52145691  0.31043218  0.97420895  1
  H  H19  1  0.97854309  0.81043218  0.52579105  1
  H  H20  1  0.97854309  0.31043218  0.97420895  1
  H  H21  1  0.52145691  0.81043218  0.52579105  1
  H  H22  1  0.47854309  0.68956782  0.02579105  1
  H  H23  1  0.02145691  0.18956782  0.47420895  1
  H  H24  1  0.25000000  0.87773974  0.24983386  1
  H  H25  1  0.25000000  0.37773974  0.25016614  1
  H  H26  1  0.75000000  0.12226026  0.75016614  1
  H  H27  1  0.75000000  0.62226026  0.74983386  1
  H  H28  1  0.25000000  0.83575599  0.95974654  1
  H  H29  1  0.25000000  0.33575599  0.54025346  1
  H  H30  1  0.75000000  0.16424401  0.04025346  1
  H  H31  1  0.75000000  0.66424401  0.45974654  1
  H  H32  1  0.25000000  0.58857273  0.13519753  1
  H  H33  1  0.25000000  0.08857273  0.36480247  1
  H  H34  1  0.75000000  0.41142727  0.86480247  1
  H  H35  1  0.75000000  0.91142727  0.63519753  1
loop_
_geom_bond_atom_site_label_1
_geom_bond_atom_site_label_2
_geom_bond_distance
_geom_bond_site_symmetry_2
H0 Re0 1.701825 1_555
H0 Na3 2.372646 1_454
H0 Na1 2.440848 1_565
H0 K3 2.766693 1_455
H1 Re1 1.701825 1_555
H1 Na2 2.372646 1_555
H1 Na0 2.440848 1_555
H1 K2 2.766693 1_555
H2 Re2 1.701825 1_555
H2 Na1 2.372646 1_556
H2 Na3 2.440848 1_545
H2 K1 2.766693 1_555
H3 Re3 1.701825 1_555
H3 Na0 2.372646 1_655
H3 Na2 2.440848 1_555
H3 K0 2.766693 1_655
H4 Re2 1.701825 1_555
H4 Na1 2.372646 1_656
H4 Na3 2.440848 1_545
H4 K1 2.766693 1_655
H5 Re3 1.701825 1_555
H5 Na0 2.372646 1_555
H5 Na2 2.440848 1_555
H5 K0 2.766693 1_555
H6 Re0 1.701825 1_555
H6 Na3 2.372646 1_554
H6 Na1 2.440848 1_565
H6 K3 2.766693 1_555
H7 Re1 1.701825 1_555
H7 Na2 2.372646 1_455
H7 Na0 2.440848 1_555
H7 K2 2.766693 1_455
H8 Re0 1.695265 1_555
H8 Na0 2.443483 1_555
H8 K2 2.766025 1_455
H8 K3 2.917513 1_455
H9 Re1 1.695265 1_555
H9 Na1 2.443483 1_555
H9 K3 2.766025 1_545
H9 K2 2.917513 1_555
H10 Re2 1.695265 1_555
H10 Na2 2.443483 1_555
H10 K0 2.766025 1_555
H10 K1 2.917513 1_555
H11 Re3 1.695265 1_555
H11 Na3 2.443483 1_555
H11 K1 2.766025 1_665
H11 K0 2.917513 1_655
H12 Re2 1.695265 1_555
H12 Na2 2.443483 1_555
H12 K0 2.766025 1_655
H12 K1 2.917513 1_655
H13 Re3 1.695265 1_555
H13 Na3 2.443483 1_555
H13 K1 2.766025 1_565
H13 K0 2.917513 1_555
H14 Re0 1.695265 1_555
H14 Na0 2.443483 1_555
H14 K2 2.766025 1_555
H14 K3 2.917513 1_555
H15 Re1 1.695265 1_555
H15 Na1 2.443483 1_555
H15 K3 2.766025 1_445
H15 K2 2.917513 1_455
H16 Re0 1.699123 1_555
H16 Na3 2.395073 1_454
H16 K0 2.785151 1_554
H16 K2 2.890427 1_455
H17 Re1 1.699123 1_555
H17 Na2 2.395073 1_555
H17 K1 2.785151 1_555
H17 K3 2.890427 1_545
H18 Re2 1.699123 1_555
H18 Na1 2.395073 1_556
H18 K2 2.785151 1_556
H18 K0 2.890427 1_555
H19 Re3 1.699123 1_555
H19 Na0 2.395073 1_655
H19 K3 2.785151 1_555
H19 K1 2.890427 1_665
H20 Re2 1.699123 1_555
H20 Na1 2.395073 1_656
H20 K2 2.785151 1_556
H20 K0 2.890427 1_655
H21 Re3 1.699123 1_555
H21 Na0 2.395073 1_555
H21 K3 2.785151 1_555
H21 K1 2.890427 1_565
H22 Re0 1.699123 1_555
H22 Na3 2.395073 1_554
H22 K0 2.785151 1_554
H22 K2 2.890427 1_555
H23 Re1 1.699123 1_555
H23 Na2 2.395073 1_455
H23 K1 2.785151 1_555
H23 K3 2.890427 1_445
H24 Re0 1.662462 1_555
H24 K3 2.929029 1_555
H24 K3 2.929029 1_455
H25 Re1 1.662462 1_555
H25 K2 2.929029 1_455
H25 K2 2.929029 1_555
H26 Re2 1.662462 1_555
H26 K1 2.929029 1_555
H26 K1 2.929029 1_655
H27 Re3 1.662462 1_555
H27 K0 2.929029 1_555
H27 K0 2.929029 1_655
H28 Re0 1.680865 1_556
H29 Re1 1.680865 1_555
H30 Re2 1.680865 1_554
H31 Re3 1.680865 1_555
H32 Re0 1.669592 1_555
H32 K2 2.929012 1_455
H32 K2 2.929012 1_555
H33 Re1 1.669592 1_555
H33 K3 2.929012 1_445
H33 K3 2.929012 1_545
H34 Re2 1.669592 1_555
H34 K0 2.929012 1_555
H34 K0 2.929012 1_655
H35 Re3 1.669592 1_555
H35 K1 2.929012 1_565
H35 K1 2.929012 1_665
