# generated using pymatgen
data_Li2Fe(SiO3)2
_symmetry_space_group_name_H-M   'P 1'
_cell_length_a   4.75858512
_cell_length_b   5.44012884
_cell_length_c   9.87109553
_cell_angle_alpha   86.50603470
_cell_angle_beta   90.02502320
_cell_angle_gamma   90.01745634
_symmetry_Int_Tables_number   1
_chemical_formula_structural   Li2Fe(SiO3)2
_chemical_formula_sum   'Li4 Fe2 Si4 O12'
_cell_volume   255.06115157
_cell_formula_units_Z   2
loop_
 _symmetry_equiv_pos_site_id
 _symmetry_equiv_pos_as_xyz
  1  'x, y, z'
loop_
 _atom_site_type_symbol
 _atom_site_label
 _atom_site_symmetry_multiplicity
 _atom_site_fract_x
 _atom_site_fract_y
 _atom_site_fract_z
 _atom_site_occupancy
  Li  Li0  1  0.79920700  0.34581000  0.33708600  1
  Li  Li1  1  0.29949300  0.65425500  0.66286200  1
  Li  Li2  1  0.29685200  0.16222900  0.48712800  1
  Li  Li3  1  0.79680800  0.83769700  0.51295500  1
  Fe  Fe0  1  0.80830300  0.73961000  0.86380000  1
  Fe  Fe1  1  0.30622300  0.25961100  0.13672300  1
  Si  Si0  1  0.79064400  0.87310900  0.18119100  1
  Si  Si1  1  0.29085100  0.12720200  0.81873700  1
  Si  Si2  1  0.29269800  0.69067600  0.34128300  1
  Si  Si3  1  0.79243400  0.30946600  0.65866500  1
  O  O0  1  0.70686100  0.72669000  0.05190800  1
  O  O1  1  0.20783500  0.27320400  0.94822500  1
  O  O2  1  0.70381300  0.15871600  0.18667200  1
  O  O3  1  0.20325100  0.84163400  0.81318000  1
  O  O4  1  0.13826700  0.86417100  0.21592700  1
  O  O5  1  0.63798500  0.13570200  0.78378500  1
  O  O6  1  0.64386900  0.71704500  0.31954400  1
  O  O7  1  0.14364500  0.28324100  0.68052500  1
  O  O8  1  0.21307300  0.40217600  0.32457400  1
  O  O9  1  0.71273300  0.59779200  0.67536200  1
  O  O10  1  0.21184300  0.80131200  0.48402300  1
  O  O11  1  0.71190400  0.19865000  0.51584600  1
loop_
_geom_bond_atom_site_label_1
_geom_bond_atom_site_label_2
_geom_bond_distance
_geom_bond_site_symmetry_2
Li0 O2 1.905209 1_555
Li0 O11 1.937890 1_555
Li0 O8 1.995773 1_655
Li0 O6 2.147837 1_555
Li1 O3 1.906766 1_555
Li1 O10 1.938508 1_555
Li1 O9 1.992985 1_555
Li1 O7 2.147206 1_555
Li2 O10 2.006613 1_545
Li2 O11 2.006639 1_555
Li2 O8 2.044998 1_555
Li2 O7 2.182664 1_555
Li3 O11 2.006793 1_565
Li3 O10 2.007214 1_655
Li3 O9 2.044174 1_555
Li3 O6 2.180977 1_555
Fe0 O0 1.915891 1_556
Fe0 O3 2.014008 1_655
Fe0 O9 2.106168 1_555
Fe0 O5 2.391003 1_565
Fe1 O1 1.915540 1_554
Fe1 O2 2.022557 1_555
Fe1 O8 2.100624 1_555
Fe1 O4 2.381676 1_545
O0 Si0 1.595395 1_555
O1 Si1 1.595325 1_555
O2 Si0 1.611961 1_545
O3 Si1 1.612511 1_565
O4 Si2 1.679077 1_555
O4 Si0 1.689323 1_455
O5 Si3 1.678458 1_555
O5 Si1 1.687704 1_555
O6 Si2 1.689834 1_555
O6 Si0 1.712573 1_555
O7 Si3 1.690009 1_455
O7 Si1 1.712007 1_555
O8 Si2 1.632533 1_555
O9 Si3 1.631938 1_555
O10 Si2 1.612312 1_555
O11 Si3 1.612681 1_555
