# generated using pymatgen
data_Rb3Sn4Au
_symmetry_space_group_name_H-M   'P 1'
_cell_length_a   6.68692900
_cell_length_b   7.32048500
_cell_length_c   14.81804600
_cell_angle_alpha   90.00000000
_cell_angle_beta   90.00000000
_cell_angle_gamma   90.00000000
_symmetry_Int_Tables_number   1
_chemical_formula_structural   Rb3Sn4Au
_chemical_formula_sum   'Rb6 Sn8 Au2'
_cell_volume   725.36651883
_cell_formula_units_Z   2
loop_
 _symmetry_equiv_pos_site_id
 _symmetry_equiv_pos_as_xyz
  1  'x, y, z'
loop_
 _atom_site_type_symbol
 _atom_site_label
 _atom_site_symmetry_multiplicity
 _atom_site_fract_x
 _atom_site_fract_y
 _atom_site_fract_z
 _atom_site_occupancy
  Rb  Rb0  1  0.51281600  0.00000000  0.00000000  1
  Rb  Rb1  1  0.93257400  0.00000000  0.19609700  1
  Rb  Rb2  1  0.93257400  0.00000000  0.80390300  1
  Rb  Rb3  1  0.06742600  0.50000000  0.69609700  1
  Rb  Rb4  1  0.06742600  0.50000000  0.30390300  1
  Rb  Rb5  1  0.48718400  0.50000000  0.50000000  1
  Sn  Sn0  1  0.93589900  0.78870100  0.50000000  1
  Sn  Sn1  1  0.62969000  0.00000000  0.39435400  1
  Sn  Sn2  1  0.62969000  0.00000000  0.60564600  1
  Sn  Sn3  1  0.93589900  0.21129900  0.50000000  1
  Sn  Sn4  1  0.06410100  0.28870100  0.00000000  1
  Sn  Sn5  1  0.37031000  0.50000000  0.89435400  1
  Sn  Sn6  1  0.37031000  0.50000000  0.10564600  1
  Sn  Sn7  1  0.06410100  0.71129900  0.00000000  1
  Au  Au0  1  0.28415600  0.00000000  0.50000000  1
  Au  Au1  1  0.71584400  0.50000000  0.00000000  1
loop_
_geom_bond_atom_site_label_1
_geom_bond_atom_site_label_2
_geom_bond_distance
_geom_bond_site_symmetry_2
Rb0 Sn4 3.670115 1_555
Rb0 Sn7 3.670115 1_545
Rb0 Rb1 4.040070 1_555
Rb0 Rb2 4.040070 1_554
Rb0 Sn6 4.093426 1_545
Rb0 Sn6 4.093426 1_555
Rb0 Sn5 4.093426 1_544
Rb0 Sn5 4.093426 1_554
Rb0 Sn7 4.249255 1_645
Rb0 Sn4 4.249255 1_655
Rb0 Rb1 4.847495 1_455
Rb0 Rb2 4.847495 1_454
Rb1 Sn1 3.568285 1_555
Rb1 Sn7 3.699143 1_645
Rb1 Sn4 3.699143 1_655
Rb1 Rb4 4.094196 1_655
Rb1 Rb4 4.094196 1_645
Rb2 Sn2 3.568285 1_555
Rb2 Sn4 3.699143 1_656
Rb2 Sn7 3.699143 1_646
Rb2 Rb3 4.094196 1_655
Rb2 Rb3 4.094196 1_645
Rb3 Sn5 3.568285 1_555
Rb3 Sn3 3.699143 1_455
Rb3 Sn0 3.699143 1_455
Rb3 Rb5 4.040070 1_555
Rb3 Rb5 4.847495 1_455
Rb4 Sn6 3.568285 1_555
Rb4 Sn3 3.699143 1_455
Rb4 Sn0 3.699143 1_455
Rb4 Rb5 4.040070 1_555
Rb4 Rb5 4.847495 1_455
Rb5 Sn3 3.670115 1_555
Rb5 Sn0 3.670115 1_555
Rb5 Sn2 4.093426 1_555
Rb5 Sn2 4.093426 1_565
Rb5 Sn1 4.093426 1_565
Rb5 Sn1 4.093426 1_555
Rb5 Sn0 4.249255 1_455
Rb5 Sn3 4.249255 1_455
Sn0 Sn1 3.005989 1_565
Sn0 Sn2 3.005989 1_565
Sn0 Sn3 3.093622 1_565
Sn1 Sn3 3.005989 1_555
Sn1 Sn2 3.130935 1_555
Sn2 Sn3 3.005989 1_555
Sn4 Sn6 3.005989 1_555
Sn4 Sn5 3.005989 1_554
Sn4 Sn7 3.093622 1_555
Sn5 Sn7 3.005989 1_556
Sn5 Sn6 3.130935 1_556
Sn6 Sn7 3.005989 1_555
Au0 Sn1 2.790946 1_555
Au0 Sn2 2.790946 1_555
Au0 Sn0 2.795674 1_445
Au0 Sn3 2.795674 1_455
Au0 Rb5 3.903914 1_555
Au0 Rb5 3.903914 1_545
Au1 Sn6 2.790946 1_555
Au1 Sn5 2.790946 1_554
Au1 Sn7 2.795674 1_655
Au1 Sn4 2.795674 1_655
Au1 Rb0 3.903914 1_565
Au1 Rb0 3.903914 1_555
