# generated using pymatgen
data_SnPd3
_symmetry_space_group_name_H-M   'P 1'
_cell_length_a   4.00703442
_cell_length_b   4.00703442
_cell_length_c   4.00703442
_cell_angle_alpha   90.00000000
_cell_angle_beta   90.00000000
_cell_angle_gamma   90.00000000
_symmetry_Int_Tables_number   1
_chemical_formula_structural   SnPd3
_chemical_formula_sum   'Sn1 Pd3'
_cell_volume   64.33824630
_cell_formula_units_Z   1
loop_
 _symmetry_equiv_pos_site_id
 _symmetry_equiv_pos_as_xyz
  1  'x, y, z'
loop_
 _atom_site_type_symbol
 _atom_site_label
 _atom_site_symmetry_multiplicity
 _atom_site_fract_x
 _atom_site_fract_y
 _atom_site_fract_z
 _atom_site_occupancy
  Sn  Sn0  1  -0.00000000  -0.00000000  -0.00000000  1
  Pd  Pd0  1  -0.00000000  0.50000000  0.50000000  1
  Pd  Pd1  1  0.50000000  0.50000000  -0.00000000  1
  Pd  Pd2  1  0.50000000  -0.00000000  0.50000000  1
loop_
_geom_bond_atom_site_label_1
_geom_bond_atom_site_label_2
_geom_bond_distance
_geom_bond_site_symmetry_2
Pd0 Pd1 2.833401 1_456
Pd0 Pd1 2.833401 1_556
Pd0 Sn0 2.833401 1_555
Pd0 Sn0 2.833401 1_556
Pd0 Pd2 2.833401 1_465
Pd0 Pd1 2.833401 1_555
Pd0 Sn0 2.833401 1_566
Pd0 Pd2 2.833401 1_455
Pd0 Sn0 2.833401 1_565
Pd0 Pd2 2.833401 1_555
Pd0 Pd2 2.833401 1_565
Pd0 Pd1 2.833401 1_455
Pd1 Pd2 2.833401 1_564
Pd1 Sn0 2.833401 1_555
Pd1 Pd2 2.833401 1_554
Pd1 Sn0 2.833401 1_665
Pd1 Sn0 2.833401 1_565
Pd1 Sn0 2.833401 1_655
Pd1 Pd2 2.833401 1_555
Pd1 Pd2 2.833401 1_565
Pd2 Sn0 2.833401 1_555
Pd2 Sn0 2.833401 1_656
Pd2 Sn0 2.833401 1_556
Pd2 Sn0 2.833401 1_655
