# generated using pymatgen
data_KSbAs(O2F)2
_symmetry_space_group_name_H-M   'P 1'
_cell_length_a   7.93608100
_cell_length_b   7.17480500
_cell_length_c   10.88261531
_cell_angle_alpha   81.75167580
_cell_angle_beta   90.00000000
_cell_angle_gamma   90.00000000
_symmetry_Int_Tables_number   1
_chemical_formula_structural   KSbAs(O2F)2
_chemical_formula_sum   'K4 Sb4 As4 O16 F8'
_cell_volume   613.24434283
_cell_formula_units_Z   4
loop_
 _symmetry_equiv_pos_site_id
 _symmetry_equiv_pos_as_xyz
  1  'x, y, z'
loop_
 _atom_site_type_symbol
 _atom_site_label
 _atom_site_symmetry_multiplicity
 _atom_site_fract_x
 _atom_site_fract_y
 _atom_site_fract_z
 _atom_site_occupancy
  K  K0  1  0.58343900  0.24816900  0.97557000  1
  K  K1  1  0.08343900  0.75183100  0.52443000  1
  K  K2  1  0.41656100  0.75183100  0.02443000  1
  K  K3  1  0.91656100  0.24816900  0.47557000  1
  Sb  Sb0  1  0.61476500  0.76828200  0.35726800  1
  Sb  Sb1  1  0.11476500  0.23171800  0.14273200  1
  Sb  Sb2  1  0.38523500  0.23171800  0.64273200  1
  Sb  Sb3  1  0.88523500  0.76828200  0.85726800  1
  As  As0  1  0.55114100  0.67899400  0.67562500  1
  As  As1  1  0.05114100  0.32100600  0.82437500  1
  As  As2  1  0.44885900  0.32100600  0.32437500  1
  As  As3  1  0.94885900  0.67899400  0.17562500  1
  O  O0  1  0.73498100  0.74229600  0.19150800  1
  O  O1  1  0.23498100  0.25770400  0.30849200  1
  O  O2  1  0.26501900  0.25770400  0.80849200  1
  O  O3  1  0.76501900  0.74229600  0.69150800  1
  O  O4  1  0.57727600  0.23335700  0.22507700  1
  O  O5  1  0.07727600  0.76664300  0.27492300  1
  O  O6  1  0.42272400  0.76664300  0.77492300  1
  O  O7  1  0.92272400  0.23335700  0.72507700  1
  O  O8  1  0.55658000  0.43086400  0.68751400  1
  O  O9  1  0.05658000  0.56913600  0.81248600  1
  O  O10  1  0.44342000  0.56913600  0.31248600  1
  O  O11  1  0.94342000  0.43086400  0.18751400  1
  O  O12  1  0.50747900  0.22760600  0.47712800  1
  O  O13  1  0.00747900  0.77239400  0.02287200  1
  O  O14  1  0.49252100  0.77239400  0.52287200  1
  O  O15  1  0.99252100  0.22760600  0.97712800  1
  F  F0  1  0.76516400  0.57056100  0.43777300  1
  F  F1  1  0.26516400  0.42943900  0.06222700  1
  F  F2  1  0.23483600  0.42943900  0.56222700  1
  F  F3  1  0.73483600  0.57056100  0.93777300  1
  F  F4  1  0.70696600  0.94265800  0.90645400  1
  F  F5  1  0.20696600  0.05734200  0.59354600  1
  F  F6  1  0.29303400  0.05734200  0.09354600  1
  F  F7  1  0.79303400  0.94265800  0.40645400  1
loop_
_geom_bond_atom_site_label_1
_geom_bond_atom_site_label_2
_geom_bond_distance
_geom_bond_site_symmetry_2
K0 O4 2.702533 1_556
K0 O2 3.108178 1_555
K0 O8 3.226702 1_555
K0 O15 3.249792 1_555
K1 O5 2.702533 1_555
K1 O3 3.108178 1_455
K1 O9 3.226702 1_555
K1 O14 3.249792 1_555
K2 O6 2.702533 1_554
K2 O0 3.108178 1_555
K2 O10 3.226702 1_555
K2 O13 3.249792 1_555
K3 O7 2.702533 1_555
K3 O1 3.108178 1_655
K3 O11 3.226702 1_555
K3 O12 3.249792 1_555
As0 O6 1.672370 1_555
As0 O14 1.763313 1_555
As0 O8 1.766897 1_555
As0 O3 1.771917 1_555
As1 O7 1.672370 1_455
As1 O15 1.763313 1_455
As1 O9 1.766897 1_555
As1 O2 1.771917 1_555
As2 O4 1.672370 1_555
As2 O12 1.763313 1_555
As2 O10 1.766897 1_555
As2 O1 1.771917 1_555
As3 O5 1.672370 1_655
As3 O13 1.763313 1_655
As3 O11 1.766897 1_555
As3 O0 1.771917 1_555
O0 Sb0 2.072565 1_555
O1 Sb1 2.072565 1_555
O2 Sb2 2.072565 1_555
O3 Sb3 2.072565 1_555
O8 Sb2 2.080372 1_555
O9 Sb3 2.080372 1_455
O10 Sb0 2.080372 1_555
O11 Sb1 2.080372 1_655
O12 Sb2 2.050667 1_555
O13 Sb3 2.050667 1_454
O14 Sb0 2.050667 1_555
O15 Sb1 2.050667 1_656
F0 Sb0 1.961641 1_555
F0 K3 2.586547 1_555
F0 K1 3.051675 1_655
F1 Sb1 1.961641 1_555
F1 K2 2.586547 1_555
F1 K0 3.051675 1_554
F2 Sb2 1.961641 1_555
F2 K1 2.586547 1_555
F2 K3 3.051675 1_455
F3 Sb3 1.961641 1_555
F3 K0 2.586547 1_555
F3 K2 3.051675 1_556
F4 Sb3 2.011341 1_555
F4 K0 2.608568 1_565
F4 K2 2.886191 1_556
F5 Sb2 2.011341 1_555
F5 K1 2.608568 1_545
F5 K3 2.886191 1_455
F6 Sb1 2.011341 1_555
F6 K2 2.608568 1_545
F6 K0 2.886191 1_554
F7 Sb0 2.011341 1_555
F7 K3 2.608568 1_565
F7 K1 2.886191 1_655
