# generated using pymatgen
data_Li6MnFe5(BO3)6
_symmetry_space_group_name_H-M   'P 1'
_cell_length_a   3.13955900
_cell_length_b   8.24405500
_cell_length_c   14.29396137
_cell_angle_alpha   89.89862775
_cell_angle_beta   90.00000000
_cell_angle_gamma   90.00000000
_symmetry_Int_Tables_number   1
_chemical_formula_structural   Li6MnFe5(BO3)6
_chemical_formula_sum   'Li6 Mn1 Fe5 B6 O18'
_cell_volume   369.96569310
_cell_formula_units_Z   1
loop_
 _symmetry_equiv_pos_site_id
 _symmetry_equiv_pos_as_xyz
  1  'x, y, z'
loop_
 _atom_site_type_symbol
 _atom_site_label
 _atom_site_symmetry_multiplicity
 _atom_site_fract_x
 _atom_site_fract_y
 _atom_site_fract_z
 _atom_site_occupancy
  Li  Li0  1  0.50000000  0.70728900  0.00905500  1
  Li  Li1  1  0.50000000  0.65979800  0.64165200  1
  Li  Li2  1  0.50000000  0.63500200  0.34876400  1
  Li  Li3  1  0.50000000  0.20612900  0.50689500  1
  Li  Li4  1  0.50000000  0.15905600  0.14266000  1
  Li  Li5  1  0.50000000  0.13377400  0.84966800  1
  Mn  Mn0  1  0.00000000  0.32601600  0.68616900  1
  Fe  Fe0  1  0.00000000  0.86278100  0.49568700  1
  Fe  Fe1  1  0.00000000  0.82408400  0.18434400  1
  Fe  Fe2  1  0.00000000  0.81186900  0.81995900  1
  Fe  Fe3  1  0.00000000  0.36447200  0.99661700  1
  Fe  Fe4  1  0.00000000  0.31247200  0.31989100  1
  B  B0  1  0.50000000  0.00016000  0.33303900  1
  B  B1  1  0.00000000  0.99983100  0.00008900  1
  B  B2  1  0.50000000  0.99776200  0.66656400  1
  B  B3  1  0.50000000  0.50234200  0.83494000  1
  B  B4  1  0.00000000  0.49902100  0.49867900  1
  B  B5  1  0.50000000  0.50018500  0.16669400  1
  O  O0  1  0.50000000  0.98746000  0.56933100  1
  O  O1  1  0.50000000  0.98183600  0.23612600  1
  O  O2  1  0.50000000  0.86360300  0.39085200  1
  O  O3  1  0.50000000  0.85721000  0.72063600  1
  O  O4  1  0.00000000  0.84798600  0.04278000  1
  O  O5  1  0.50000000  0.65612000  0.87480600  1
  O  O6  1  0.50000000  0.65174900  0.20933600  1
  O  O7  1  0.00000000  0.63786700  0.55441300  1
  O  O8  1  0.00000000  0.51417400  0.40162100  1
  O  O9  1  0.50000000  0.48876300  0.06954200  1
  O  O10  1  0.50000000  0.48681800  0.73770300  1
  O  O11  1  0.50000000  0.36399800  0.89122900  1
  O  O12  1  0.50000000  0.35991000  0.22087500  1
  O  O13  1  0.00000000  0.34604000  0.53969500  1
  O  O14  1  0.50000000  0.15475600  0.37224100  1
  O  O15  1  0.50000000  0.14816000  0.70999500  1
  O  O16  1  0.00000000  0.13958500  0.05459100  1
  O  O17  1  0.00000000  0.01192400  0.90286200  1
loop_
_geom_bond_atom_site_label_1
_geom_bond_atom_site_label_2
_geom_bond_distance
_geom_bond_site_symmetry_2
Li0 O5 1.965498 1_554
Li0 O9 1.996889 1_555
Li0 O4 2.010963 1_655
Li0 O4 2.010963 1_555
Li1 O10 1.977802 1_555
Li1 O3 1.982374 1_555
Li1 O7 2.013127 1_655
Li1 O7 2.013127 1_555
Li2 O2 1.979306 1_555
Li2 O6 1.997511 1_555
Li2 O8 2.006145 1_555
Li2 O8 2.006145 1_655
Li3 O14 1.971516 1_555
Li3 O13 2.004082 1_655
Li3 O13 2.004082 1_555
Li3 O0 2.010121 1_545
Li4 O1 1.978015 1_545
Li4 O12 1.999581 1_555
Li4 O16 2.018763 1_555
Li4 O16 2.018763 1_655
Li5 O11 1.989783 1_555
Li5 O15 1.999791 1_555
Li5 O17 2.012148 1_555
Li5 O17 2.012148 1_655
Mn0 O13 2.099900 1_555
Mn0 O15 2.174472 1_455
Mn0 O15 2.174472 1_555
Mn0 O10 2.183496 1_555
Mn0 O10 2.183496 1_455
Fe0 O7 2.034011 1_555
Fe0 O0 2.152356 1_555
Fe0 O0 2.152356 1_455
Fe0 O2 2.170194 1_555
Fe0 O2 2.170194 1_455
Fe1 O4 2.032735 1_555
Fe1 O6 2.146748 1_455
Fe1 O6 2.146748 1_555
Fe1 O1 2.169518 1_455
Fe1 O1 2.169518 1_555
Fe2 O17 2.032546 1_565
Fe2 O3 2.148873 1_555
Fe2 O3 2.148873 1_455
Fe2 O5 2.173462 1_555
Fe2 O5 2.173462 1_455
Fe3 O16 2.029413 1_556
Fe3 O9 2.145808 1_556
Fe3 O9 2.145808 1_456
Fe3 O11 2.175666 1_455
Fe3 O11 2.175666 1_555
Fe4 O8 2.033892 1_555
Fe4 O12 2.149036 1_555
Fe4 O12 2.149036 1_455
Fe4 O14 2.170546 1_555
Fe4 O14 2.170546 1_455
B0 O14 1.393150 1_555
B0 O1 1.393749 1_545
B0 O2 1.395348 1_545
B1 O4 1.391661 1_555
B1 O16 1.391948 1_565
B1 O17 1.393154 1_564
B2 O15 1.387603 1_565
B2 O3 1.391703 1_555
B2 O0 1.392587 1_555
B3 O5 1.390855 1_555
B3 O11 1.394596 1_555
B3 O10 1.396007 1_555
B4 O13 1.389854 1_555
B4 O8 1.392736 1_555
B4 O7 1.395753 1_555
B5 O12 1.390670 1_555
B5 O6 1.391211 1_555
B5 O9 1.392042 1_555
