# generated using pymatgen
data_Bi3O4F
_symmetry_space_group_name_H-M   'P 1'
_cell_length_a   5.85408200
_cell_length_b   5.76543800
_cell_length_c   9.08894986
_cell_angle_alpha   80.93159899
_cell_angle_beta   90.00000000
_cell_angle_gamma   90.00000000
_symmetry_Int_Tables_number   1
_chemical_formula_structural   Bi3O4F
_chemical_formula_sum   'Bi6 O8 F2'
_cell_volume   302.93001566
_cell_formula_units_Z   2
loop_
 _symmetry_equiv_pos_site_id
 _symmetry_equiv_pos_as_xyz
  1  'x, y, z'
loop_
 _atom_site_type_symbol
 _atom_site_label
 _atom_site_symmetry_multiplicity
 _atom_site_fract_x
 _atom_site_fract_y
 _atom_site_fract_z
 _atom_site_occupancy
  Bi  Bi0  1  0.29961100  0.13807900  0.80694000  1
  Bi  Bi1  1  0.70038900  0.63807900  0.80694000  1
  Bi  Bi2  1  0.80303700  0.25000000  0.50000000  1
  Bi  Bi3  1  0.19696300  0.75000000  0.50000000  1
  Bi  Bi4  1  0.29961100  0.36192100  0.19306000  1
  Bi  Bi5  1  0.70038900  0.86192100  0.19306000  1
  O  O0  1  0.43758800  0.47154600  0.69962500  1
  O  O1  1  0.56241200  0.97154600  0.69962500  1
  O  O2  1  0.07583800  0.04158800  0.63789600  1
  O  O3  1  0.92416200  0.54158800  0.63789600  1
  O  O4  1  0.07583800  0.45841200  0.36210400  1
  O  O5  1  0.92416200  0.95841200  0.36210400  1
  O  O6  1  0.43758800  0.02845400  0.30037500  1
  O  O7  1  0.56241200  0.52845400  0.30037500  1
  F  F0  1  0.62260400  0.25000000  0.00000000  1
  F  F1  1  0.37739600  0.75000000  0.00000000  1
loop_
_geom_bond_atom_site_label_1
_geom_bond_atom_site_label_2
_geom_bond_distance
_geom_bond_site_symmetry_2
Bi0 O1 2.129623 1_545
Bi0 O2 2.157686 1_555
Bi0 O0 2.170021 1_555
Bi0 F1 2.656111 1_546
Bi0 F0 2.725352 1_556
Bi1 O0 2.129623 1_555
Bi1 O3 2.157686 1_555
Bi1 O1 2.170021 1_555
Bi1 F0 2.656111 1_556
Bi1 F1 2.725352 1_556
Bi2 O4 2.256175 1_655
Bi2 O2 2.256175 1_655
Bi2 O3 2.358817 1_555
Bi2 O5 2.358817 1_545
Bi2 O1 2.633511 1_545
Bi2 O7 2.633511 1_555
Bi3 O5 2.256175 1_455
Bi3 O3 2.256175 1_455
Bi3 O2 2.358817 1_565
Bi3 O4 2.358817 1_555
Bi3 O0 2.633511 1_555
Bi3 O6 2.633511 1_565
Bi4 O7 2.129623 1_555
Bi4 O4 2.157686 1_555
Bi4 O6 2.170021 1_555
Bi4 F1 2.656111 1_555
Bi4 F0 2.725352 1_555
Bi5 O6 2.129623 1_565
Bi5 O5 2.157686 1_555
Bi5 O7 2.170021 1_555
Bi5 F0 2.656111 1_565
Bi5 F1 2.725352 1_555
