# generated using pymatgen
data_LiMnPO4
_symmetry_space_group_name_H-M   'P 1'
_cell_length_a   5.63696400
_cell_length_b   6.40736600
_cell_length_c   8.47439400
_cell_angle_alpha   90.00016161
_cell_angle_beta   90.00017937
_cell_angle_gamma   89.99998089
_symmetry_Int_Tables_number   1
_chemical_formula_structural   LiMnPO4
_chemical_formula_sum   'Li4 Mn4 P4 O16'
_cell_volume   306.07893770
_cell_formula_units_Z   4
loop_
 _symmetry_equiv_pos_site_id
 _symmetry_equiv_pos_as_xyz
  1  'x, y, z'
loop_
 _atom_site_type_symbol
 _atom_site_label
 _atom_site_symmetry_multiplicity
 _atom_site_fract_x
 _atom_site_fract_y
 _atom_site_fract_z
 _atom_site_occupancy
  Li  Li0  1  0.00000000  0.00000000  0.50000100  1
  Li  Li1  1  0.49999900  0.00000000  0.00000100  1
  Li  Li2  1  0.00000000  0.50000000  0.50000100  1
  Li  Li3  1  0.49999900  0.50000000  0.00000100  1
  Mn  Mn0  1  0.50002900  0.24999000  0.68161700  1
  Mn  Mn1  1  0.50000600  0.75000600  0.31838200  1
  Mn  Mn2  1  0.00001500  0.25000100  0.18181200  1
  Mn  Mn3  1  0.99996600  0.75000300  0.81816600  1
  P  P0  1  0.00000100  0.75000000  0.14884600  1
  P  P1  1  0.49999700  0.74999700  0.64889400  1
  P  P2  1  0.00000000  0.25000100  0.85115500  1
  P  P3  1  0.49999900  0.25000200  0.35110800  1
  O  O0  1  0.27792200  0.25000000  0.46199400  1
  O  O1  1  0.77792800  0.24999900  0.96200900  1
  O  O2  1  0.27792000  0.75000000  0.53800900  1
  O  O3  1  0.77792800  0.74999900  0.03799200  1
  O  O4  1  0.72207900  0.25000000  0.46199300  1
  O  O5  1  0.22207100  0.25000000  0.96200900  1
  O  O6  1  0.72207800  0.75000000  0.53801000  1
  O  O7  1  0.22207000  0.74999900  0.03799100  1
  O  O8  1  0.99999800  0.55573200  0.25774700  1
  O  O9  1  0.50000200  0.55571600  0.75773800  1
  O  O10  1  0.99999800  0.94426800  0.25774700  1
  O  O11  1  0.50000000  0.94427900  0.75773900  1
  O  O12  1  0.99999600  0.05573400  0.74225500  1
  O  O13  1  0.50000000  0.05572100  0.24226300  1
  O  O14  1  0.99999900  0.44426700  0.74225500  1
  O  O15  1  0.50000000  0.44428300  0.24226500  1
loop_
_geom_bond_atom_site_label_1
_geom_bond_atom_site_label_2
_geom_bond_distance
_geom_bond_site_symmetry_2
Li0 O10 2.083780 1_445
Li0 O12 2.083783 1_455
Li0 O2 2.263615 1_545
Li0 O4 2.263619 1_455
Li0 O0 2.263624 1_555
Li0 O6 2.263626 1_445
Li1 O13 2.083835 1_555
Li1 O11 2.083835 1_544
Li1 O5 2.263627 1_554
Li1 O1 2.263629 1_554
Li1 O3 2.263634 1_545
Li1 O7 2.263635 1_545
Li2 O8 2.083782 1_455
Li2 O14 2.083783 1_455
Li2 O2 2.263615 1_555
Li2 O4 2.263618 1_455
Li2 O0 2.263622 1_555
Li2 O6 2.263624 1_455
Li3 O9 2.083840 1_554
Li3 O15 2.083849 1_555
Li3 O7 2.263624 1_555
Li3 O3 2.263625 1_555
Li3 O5 2.263626 1_554
Li3 O1 2.263636 1_554
Mn0 O11 2.062293 1_545
Mn0 O9 2.062378 1_555
Mn0 O4 2.242929 1_555
Mn0 O0 2.243095 1_555
Mn1 O13 2.062309 1_565
Mn1 O15 2.062349 1_555
Mn1 O6 2.243020 1_555
Mn1 O2 2.243063 1_555
Mn2 O8 2.061916 1_455
Mn2 O10 2.061932 1_445
Mn2 O5 2.244206 1_554
Mn2 O1 2.244297 1_454
Mn3 O12 2.061856 1_565
Mn3 O14 2.061883 1_555
Mn3 O3 2.244312 1_556
Mn3 O7 2.244506 1_656
O0 P3 1.565290 1_555
O1 P2 1.565104 1_655
O2 P1 1.565280 1_555
O3 P0 1.565104 1_655
O4 P3 1.565293 1_555
O5 P2 1.565095 1_555
O6 P1 1.565297 1_555
O7 P0 1.565096 1_555
O8 P0 1.549545 1_655
O9 P1 1.549324 1_555
O10 P0 1.549540 1_655
O11 P1 1.549330 1_555
O12 P2 1.549530 1_655
O13 P3 1.549325 1_555
O14 P2 1.549529 1_655
O15 P3 1.549319 1_555
