# generated using pymatgen
data_ScVO3
_symmetry_space_group_name_H-M   'P 1'
_cell_length_a   5.40277200
_cell_length_b   7.81713000
_cell_length_c   5.10902500
_cell_angle_alpha   89.99944111
_cell_angle_beta   90.00002182
_cell_angle_gamma   90.00006846
_symmetry_Int_Tables_number   1
_chemical_formula_structural   ScVO3
_chemical_formula_sum   'Sc4 V4 O12'
_cell_volume   215.77543592
_cell_formula_units_Z   4
loop_
 _symmetry_equiv_pos_site_id
 _symmetry_equiv_pos_as_xyz
  1  'x, y, z'
loop_
 _atom_site_type_symbol
 _atom_site_label
 _atom_site_symmetry_multiplicity
 _atom_site_fract_x
 _atom_site_fract_y
 _atom_site_fract_z
 _atom_site_occupancy
  Sc  Sc0  1  0.06131000  0.24999800  0.98109100  1
  Sc  Sc1  1  0.43869200  0.74999900  0.48109200  1
  Sc  Sc2  1  0.56130800  0.24999800  0.51891200  1
  Sc  Sc3  1  0.93869300  0.75000000  0.01891200  1
  V  V0  1  0.99999900  0.00000100  0.50000200  1
  V  V1  1  0.99999600  0.50000100  0.49999500  1
  V  V2  1  0.50000300  0.99999900  0.00000100  1
  V  V3  1  0.50000200  0.49999800  0.00000000  1
  O  O0  1  0.07448100  0.75000200  0.64522200  1
  O  O1  1  0.19226100  0.57542300  0.18387200  1
  O  O2  1  0.19226300  0.92457800  0.18387100  1
  O  O3  1  0.30774100  0.07542200  0.68387500  1
  O  O4  1  0.30773400  0.42457700  0.68386700  1
  O  O5  1  0.42551900  0.25000400  0.14522200  1
  O  O6  1  0.57448200  0.74999800  0.85477800  1
  O  O7  1  0.69226100  0.57542200  0.31613100  1
  O  O8  1  0.69226000  0.92457900  0.31612700  1
  O  O9  1  0.80773800  0.07542400  0.81612600  1
  O  O10  1  0.80773900  0.42457900  0.81612700  1
  O  O11  1  0.92551800  0.24999800  0.35477600  1
loop_
_geom_bond_atom_site_label_1
_geom_bond_atom_site_label_2
_geom_bond_distance
_geom_bond_site_symmetry_2
O0 Sc3 2.045294 1_456
O0 V0 2.128746 1_465
O0 V1 2.128788 1_455
O0 Sc1 2.138970 1_555
O1 V3 1.998638 1_555
O1 V1 2.008757 1_455
O1 Sc3 2.109376 1_455
O1 Sc1 2.437397 1_555
O1 Sc0 2.836423 1_554
O2 V2 1.998613 1_555
O2 V0 2.008799 1_465
O2 Sc3 2.109395 1_455
O2 Sc1 2.437393 1_555
O2 Sc0 2.836373 1_564
O3 V0 1.998634 1_455
O3 V2 2.008763 1_546
O3 Sc2 2.109372 1_555
O3 Sc0 2.437387 1_555
O3 Sc1 2.836415 1_545
O4 V1 1.998617 1_455
O4 V3 2.008813 1_556
O4 Sc2 2.109408 1_555
O4 Sc0 2.437386 1_555
O4 Sc1 2.836383 1_555
O5 Sc2 2.045296 1_555
O5 V3 2.128714 1_555
O5 V2 2.128806 1_545
O5 Sc0 2.138962 1_554
O6 Sc1 2.045279 1_555
O6 V3 2.128754 1_556
O6 V2 2.128776 1_556
O6 Sc3 2.138978 1_556
O7 V1 1.998577 1_555
O7 V3 2.008786 1_555
O7 Sc1 2.109393 1_555
O7 Sc3 2.437390 1_555
O7 Sc2 2.836401 1_555
O8 V0 1.998628 1_565
O8 V2 2.008743 1_555
O8 Sc1 2.109400 1_555
O8 Sc3 2.437403 1_555
O8 Sc2 2.836392 1_565
O9 V2 1.998612 1_546
O9 V0 2.008762 1_555
O9 Sc0 2.109394 1_655
O9 Sc2 2.437351 1_555
O9 Sc3 2.836415 1_546
O10 V3 1.998609 1_556
O10 V1 2.008772 1_555
O10 Sc0 2.109415 1_655
O10 Sc2 2.437403 1_555
O10 Sc3 2.836407 1_556
O11 Sc0 2.045278 1_654
O11 V0 2.128741 1_555
O11 V1 2.128781 1_555
O11 Sc2 2.138977 1_555
