# generated using pymatgen
data_LiTiVO4
_symmetry_space_group_name_H-M   'P 1'
_cell_length_a   5.92316602
_cell_length_b   6.00438888
_cell_length_c   8.45471631
_cell_angle_alpha   90.00001939
_cell_angle_beta   89.99999425
_cell_angle_gamma   90.05721047
_symmetry_Int_Tables_number   1
_chemical_formula_structural   LiTiVO4
_chemical_formula_sum   'Li4 Ti4 V4 O16'
_cell_volume   300.69176991
_cell_formula_units_Z   4
loop_
 _symmetry_equiv_pos_site_id
 _symmetry_equiv_pos_as_xyz
  1  'x, y, z'
loop_
 _atom_site_type_symbol
 _atom_site_label
 _atom_site_symmetry_multiplicity
 _atom_site_fract_x
 _atom_site_fract_y
 _atom_site_fract_z
 _atom_site_occupancy
  Li  Li0  1  0.00000000  0.49999700  0.00000000  1
  Li  Li1  1  0.50000000  0.00000400  0.50000000  1
  Li  Li2  1  0.50000000  0.49999700  0.00000000  1
  Li  Li3  1  0.00000000  0.00000400  0.50000000  1
  Ti  Ti0  1  0.50000000  0.00005200  0.00000000  1
  Ti  Ti1  1  0.00000000  0.49994900  0.50000000  1
  Ti  Ti2  1  0.00000000  0.00005100  0.99999900  1
  Ti  Ti3  1  0.50000000  0.49995100  0.50000100  1
  V  V0  1  0.25000100  0.74999600  0.75000400  1
  V  V1  1  0.75000100  0.74999200  0.24999800  1
  V  V2  1  0.75000300  0.24999900  0.24999300  1
  V  V3  1  0.24999500  0.24999500  0.74999900  1
  O  O0  1  0.97378300  0.50016100  0.26560700  1
  O  O1  1  0.47378300  0.00021200  0.76560600  1
  O  O2  1  0.52621900  0.49978900  0.26560500  1
  O  O3  1  0.02621800  0.99983900  0.76560500  1
  O  O4  1  0.47378200  0.50016200  0.73439500  1
  O  O5  1  0.97378000  0.00021200  0.23439500  1
  O  O6  1  0.02621800  0.49978900  0.73439500  1
  O  O7  1  0.52621700  0.99984100  0.23439500  1
  O  O8  1  0.74976400  0.77481300  0.00506800  1
  O  O9  1  0.24976400  0.27486300  0.50499700  1
  O  O10  1  0.75023700  0.22513900  0.00499700  1
  O  O11  1  0.25023500  0.72518900  0.50506800  1
  O  O12  1  0.24976600  0.77481300  0.99493300  1
  O  O13  1  0.74976400  0.27486400  0.49500300  1
  O  O14  1  0.25023500  0.22513800  0.99500300  1
  O  O15  1  0.75023500  0.72518900  0.49493300  1
loop_
_geom_bond_atom_site_label_1
_geom_bond_atom_site_label_2
_geom_bond_distance
_geom_bond_site_symmetry_2
Li0 O12 2.215499 1_554
Li0 O10 2.215664 1_455
Li0 O8 2.219559 1_455
Li0 O14 2.219736 1_554
Li0 O6 2.250979 1_554
Li0 O0 2.250995 1_455
Li1 O11 2.215491 1_545
Li1 O13 2.215677 1_555
Li1 O15 2.219551 1_545
Li1 O9 2.219740 1_555
Li1 O7 2.250978 1_545
Li1 O1 2.250987 1_555
Li2 O8 2.215492 1_555
Li2 O14 2.215676 1_554
Li2 O12 2.219551 1_554
Li2 O10 2.219739 1_555
Li2 O4 2.250978 1_554
Li2 O2 2.250979 1_555
Li3 O15 2.215491 1_445
Li3 O9 2.215672 1_555
Li3 O11 2.219551 1_545
Li3 O13 2.219744 1_455
Li3 O3 2.250978 1_545
Li3 O5 2.250979 1_455
O0 Ti1 1.987802 1_655
O0 V2 2.006634 1_555
O0 V1 2.007132 1_555
O1 Ti0 1.987810 1_556
O1 V0 2.006877 1_545
O1 V3 2.006939 1_555
O2 Ti3 1.987828 1_555
O2 V1 2.006822 1_555
O2 V2 2.006957 1_555
O3 Ti2 1.987811 1_565
O3 V3 2.006591 1_565
O3 V0 2.007185 1_555
O4 Ti3 1.987811 1_555
O4 V3 2.006678 1_555
O4 V0 2.007142 1_555
O5 Ti2 1.987828 1_654
O5 V1 2.006884 1_545
O5 V2 2.006909 1_555
O6 Ti1 1.987819 1_555
O6 V0 2.006845 1_555
O6 V3 2.006944 1_555
O7 Ti0 1.987819 1_565
O7 V2 2.006630 1_565
O7 V1 2.007217 1_555
O8 Ti0 2.005862 1_565
O8 Ti2 2.005929 1_664
O8 V1 2.076170 1_555
O9 Ti1 2.005230 1_555
O9 Ti3 2.005309 1_555
O9 V3 2.076798 1_555
O10 Ti2 2.005234 1_654
O10 Ti0 2.005310 1_555
O10 V2 2.076744 1_555
O11 Ti3 2.005862 1_555
O11 Ti1 2.005932 1_555
O11 V0 2.076215 1_555
O12 Ti2 2.005867 1_565
O12 Ti0 2.005924 1_566
O12 V0 2.076160 1_555
O13 Ti3 2.005234 1_555
O13 Ti1 2.005297 1_655
O13 V2 2.076864 1_555
O14 Ti0 2.005234 1_556
O14 Ti2 2.005301 1_555
O14 V3 2.076810 1_555
O15 Ti1 2.005871 1_655
O15 Ti3 2.005924 1_555
O15 V1 2.076205 1_555
