# generated using pymatgen
data_Ti5Cr(PO4)6
_symmetry_space_group_name_H-M   'P 1'
_cell_length_a   8.47521192
_cell_length_b   8.47521192
_cell_length_c   8.47521254
_cell_angle_alpha   61.89505494
_cell_angle_beta   61.89505494
_cell_angle_gamma   61.89505687
_symmetry_Int_Tables_number   1
_chemical_formula_structural   Ti5Cr(PO4)6
_chemical_formula_sum   'Ti5 Cr1 P6 O24'
_cell_volume   448.72414678
_cell_formula_units_Z   1
loop_
 _symmetry_equiv_pos_site_id
 _symmetry_equiv_pos_as_xyz
  1  'x, y, z'
loop_
 _atom_site_type_symbol
 _atom_site_label
 _atom_site_symmetry_multiplicity
 _atom_site_fract_x
 _atom_site_fract_y
 _atom_site_fract_z
 _atom_site_occupancy
  Ti  Ti0  1  0.99718800  0.99718800  0.99718800  1
  Ti  Ti1  1  0.50040600  0.50040600  0.50040600  1
  Ti  Ti2  1  0.85842800  0.85842800  0.85842800  1
  Ti  Ti3  1  0.64119000  0.64119000  0.64119000  1
  Ti  Ti4  1  0.36003800  0.36003800  0.36003800  1
  Cr  Cr0  1  0.14177200  0.14177200  0.14177200  1
  P  P0  1  0.95849800  0.25079300  0.53949200  1
  P  P1  1  0.53949200  0.95849800  0.25079300  1
  P  P2  1  0.75385900  0.45532600  0.04191400  1
  P  P3  1  0.45532600  0.04191400  0.75385900  1
  P  P4  1  0.04191400  0.75385900  0.45532600  1
  P  P5  1  0.25079300  0.53949200  0.95849800  1
  O  O0  1  0.88541700  0.68339300  0.49786500  1
  O  O1  1  0.68339300  0.49786500  0.88541700  1
  O  O2  1  0.94262800  0.09352500  0.73899300  1
  O  O3  1  0.49786500  0.88541700  0.68339300  1
  O  O4  1  0.99244000  0.18528200  0.38500600  1
  O  O5  1  0.75853900  0.40712900  0.55936300  1
  O  O6  1  0.73899300  0.94262800  0.09352500  1
  O  O7  1  0.55936300  0.75853900  0.40712900  1
  O  O8  1  0.82130100  0.61343400  0.00048600  1
  O  O9  1  0.40712900  0.55936300  0.75853900  1
  O  O10  1  0.90856100  0.25632200  0.05657400  1
  O  O11  1  0.61343400  0.00048600  0.82130100  1
  O  O12  1  0.38500600  0.99244000  0.18528200  1
  O  O13  1  0.09352500  0.73899300  0.94262800  1
  O  O14  1  0.59671500  0.44218400  0.24030000  1
  O  O15  1  0.18528200  0.38500600  0.99244000  1
  O  O16  1  0.44218400  0.24030000  0.59671500  1
  O  O17  1  0.25632200  0.05657400  0.90856100  1
  O  O18  1  0.24030000  0.59671500  0.44218400  1
  O  O19  1  0.00048600  0.82130100  0.61343400  1
  O  O20  1  0.50162100  0.11412900  0.31989100  1
  O  O21  1  0.05657400  0.90856100  0.25632200  1
  O  O22  1  0.31989100  0.50162100  0.11412900  1
  O  O23  1  0.11412900  0.31989100  0.50162100  1
loop_
_geom_bond_atom_site_label_1
_geom_bond_atom_site_label_2
_geom_bond_distance
_geom_bond_site_symmetry_2
Cr0 O15 1.950829 1_554
Cr0 O12 1.950829 1_545
Cr0 O4 1.950829 1_455
Cr0 O21 2.060771 1_545
Cr0 O10 2.060771 1_455
Cr0 O17 2.060772 1_554
O0 P4 1.529298 1_655
O0 Ti3 1.951183 1_555
O1 P2 1.529298 1_556
O1 Ti3 1.951183 1_555
O2 P0 1.576329 1_555
O2 Ti2 2.064639 1_545
O2 Ti0 2.140845 1_545
O3 P3 1.529298 1_565
O3 Ti3 1.951183 1_555
O4 P0 1.511576 1_555
O5 P0 1.575330 1_555
O5 Ti3 2.047608 1_555
O5 Ti1 2.165429 1_555
O6 P1 1.576329 1_555
O6 Ti2 2.064639 1_554
O6 Ti0 2.140845 1_554
O7 P1 1.575330 1_555
O7 Ti3 2.047608 1_555
O7 Ti1 2.165429 1_555
O8 P2 1.528022 1_555
O8 Ti2 1.939894 1_554
O9 P5 1.575330 1_555
O9 Ti3 2.047608 1_555
O9 Ti1 2.165429 1_555
O10 P2 1.565787 1_555
O10 Ti0 2.184466 1_544
O11 P3 1.528022 1_555
O11 Ti2 1.939894 1_545
O12 P1 1.511576 1_555
O13 P5 1.576329 1_555
O13 Ti2 2.064639 1_455
O13 Ti0 2.140845 1_455
O14 P2 1.570564 1_555
O14 Ti4 2.066479 1_555
O14 Ti1 2.172425 1_555
O15 P5 1.511576 1_555
O16 P3 1.570564 1_555
O16 Ti4 2.066479 1_555
O16 Ti1 2.172425 1_555
O17 P3 1.565787 1_555
O17 Ti0 2.184465 1_445
O18 P4 1.570564 1_555
O18 Ti4 2.066479 1_555
O18 Ti1 2.172425 1_555
O19 P4 1.528022 1_555
O19 Ti2 1.939894 1_455
O20 P1 1.528904 1_545
O20 Ti4 1.956134 1_555
O21 P4 1.565787 1_555
O21 Ti0 2.184466 1_454
O22 P5 1.528904 1_554
O22 Ti4 1.956134 1_555
O23 P0 1.528904 1_455
O23 Ti4 1.956134 1_555
