# generated using pymatgen
data_Li2CrFeO4
_symmetry_space_group_name_H-M   'P 1'
_cell_length_a   5.17754600
_cell_length_b   5.95293598
_cell_length_c   7.86960203
_cell_angle_alpha   100.85911503
_cell_angle_beta   96.33716516
_cell_angle_gamma   106.83375612
_symmetry_Int_Tables_number   1
_chemical_formula_structural   Li2CrFeO4
_chemical_formula_sum   'Li6 Cr3 Fe3 O12'
_cell_volume   224.46562067
_cell_formula_units_Z   3
loop_
 _symmetry_equiv_pos_site_id
 _symmetry_equiv_pos_as_xyz
  1  'x, y, z'
loop_
 _atom_site_type_symbol
 _atom_site_label
 _atom_site_symmetry_multiplicity
 _atom_site_fract_x
 _atom_site_fract_y
 _atom_site_fract_z
 _atom_site_occupancy
  Li  Li0  1  0.50009800  0.58236300  0.83496300  1
  Li  Li1  1  0.49990200  0.41763700  0.16503700  1
  Li  Li2  1  0.49804300  0.24897700  0.49925100  1
  Li  Li3  1  0.50200300  0.08522100  0.83324500  1
  Li  Li4  1  0.49799700  0.91477900  0.16675500  1
  Li  Li5  1  0.50195700  0.75102300  0.50074900  1
  Cr  Cr0  1  0.00099600  0.16543100  0.66649400  1
  Cr  Cr1  1  0.00000000  0.00000000  0.00000000  1
  Cr  Cr2  1  0.99900400  0.83456900  0.33350600  1
  Fe  Fe0  1  0.00000000  0.50000000  0.00000000  1
  Fe  Fe1  1  0.00025400  0.33462600  0.33330700  1
  Fe  Fe2  1  0.99974600  0.66537400  0.66669300  1
  O  O0  1  0.77112000  0.54833200  0.41756500  1
  O  O1  1  0.77263100  0.21279000  0.08451200  1
  O  O2  1  0.22888000  0.45166800  0.58243500  1
  O  O3  1  0.77244800  0.37749100  0.75082300  1
  O  O4  1  0.22766400  0.28323900  0.91354800  1
  O  O5  1  0.77465900  0.04728700  0.42045300  1
  O  O6  1  0.22527700  0.11804100  0.24711100  1
  O  O7  1  0.77233600  0.71676100  0.08645200  1
  O  O8  1  0.22736900  0.78721000  0.91548800  1
  O  O9  1  0.77472300  0.88195900  0.75288900  1
  O  O10  1  0.22534100  0.95271300  0.57954700  1
  O  O11  1  0.22755200  0.62250900  0.24917700  1
loop_
_geom_bond_atom_site_label_1
_geom_bond_atom_site_label_2
_geom_bond_distance
_geom_bond_site_symmetry_2
Li0 O7 2.162907 1_556
Li0 O2 2.166827 1_555
Li0 O4 2.166933 1_555
Li0 O8 2.187749 1_555
Li0 O9 2.188085 1_555
Li0 O3 2.193660 1_555
Li1 O4 2.162907 1_554
Li1 O0 2.166827 1_555
Li1 O7 2.166933 1_555
Li1 O1 2.187749 1_555
Li1 O6 2.188085 1_555
Li1 O11 2.193660 1_555
Li2 O10 2.162837 1_545
Li2 O6 2.168016 1_555
Li2 O3 2.168440 1_555
Li2 O2 2.168933 1_555
Li2 O0 2.181948 1_555
Li2 O5 2.188320 1_555
Li3 O3 2.150162 1_555
Li3 O1 2.157841 1_556
Li3 O4 2.166494 1_555
Li3 O9 2.180871 1_545
Li3 O8 2.182371 1_545
Li3 O10 2.186535 1_545
Li4 O11 2.150162 1_555
Li4 O8 2.157841 1_554
Li4 O7 2.166494 1_555
Li4 O6 2.180871 1_565
Li4 O1 2.182371 1_565
Li4 O5 2.186535 1_565
Li5 O5 2.162837 1_565
Li5 O9 2.168016 1_555
Li5 O11 2.168440 1_555
Li5 O0 2.168933 1_555
Li5 O2 2.181948 1_555
Li5 O10 2.188320 1_555
Cr0 O10 2.030223 1_545
Cr0 O5 2.031156 1_455
Cr0 O9 2.036045 1_445
Cr0 O4 2.038371 1_555
Cr0 O3 2.038909 1_455
Cr0 O2 2.041013 1_555
Cr1 O6 2.036081 1_555
Cr1 O9 2.036081 1_444
Cr1 O1 2.037609 1_455
Cr1 O8 2.037609 1_544
Cr1 O4 2.037983 1_554
Cr1 O7 2.037983 1_445
Cr2 O5 2.030223 1_565
Cr2 O10 2.031156 1_655
Cr2 O6 2.036045 1_665
Cr2 O7 2.038371 1_555
Cr2 O11 2.038909 1_655
Cr2 O0 2.041013 1_555
Fe0 O1 2.046194 1_455
Fe0 O8 2.046194 1_554
Fe0 O11 2.053933 1_555
Fe0 O3 2.053933 1_454
Fe0 O4 2.060230 1_554
Fe0 O7 2.060230 1_455
Fe1 O11 2.047347 1_555
Fe1 O6 2.048123 1_555
Fe1 O0 2.048292 1_455
Fe1 O1 2.051557 1_455
Fe1 O5 2.054780 1_455
Fe1 O2 2.055641 1_555
Fe2 O3 2.047347 1_555
Fe2 O9 2.048123 1_555
Fe2 O2 2.048292 1_655
Fe2 O8 2.051557 1_655
Fe2 O10 2.054780 1_655
Fe2 O0 2.055641 1_555
