# generated using pymatgen
data_Li4V2P4H3O16
_symmetry_space_group_name_H-M   'P 1'
_cell_length_a   4.95237400
_cell_length_b   7.71399916
_cell_length_c   8.35020986
_cell_angle_alpha   91.00439221
_cell_angle_beta   90.75264970
_cell_angle_gamma   102.03520087
_symmetry_Int_Tables_number   1
_chemical_formula_structural   Li4V2P4H3O16
_chemical_formula_sum   'Li4 V2 P4 H3 O16'
_cell_volume   311.89415891
_cell_formula_units_Z   1
loop_
 _symmetry_equiv_pos_site_id
 _symmetry_equiv_pos_as_xyz
  1  'x, y, z'
loop_
 _atom_site_type_symbol
 _atom_site_label
 _atom_site_symmetry_multiplicity
 _atom_site_fract_x
 _atom_site_fract_y
 _atom_site_fract_z
 _atom_site_occupancy
  Li  Li0  1  0.12371000  0.67884900  0.64341700  1
  Li  Li1  1  0.39043300  0.85356300  0.12659200  1
  Li  Li2  1  0.58484900  0.15290200  0.88034000  1
  Li  Li3  1  0.87611500  0.31887900  0.35214800  1
  V  V0  1  0.49792800  0.00231500  0.49953200  1
  V  V1  1  0.00150700  0.49671000  0.00301900  1
  P  P0  1  0.11085500  0.25408800  0.67240900  1
  P  P1  1  0.37799000  0.24242000  0.15418100  1
  P  P2  1  0.62223300  0.75045400  0.84534700  1
  P  P3  1  0.88192100  0.74736600  0.32721200  1
  H  H0  1  0.45818900  0.46014000  0.59838600  1
  H  H1  1  0.53876800  0.52866900  0.37953700  1
  H  H2  1  0.94320300  0.96948100  0.98151800  1
  O  O0  1  0.10457800  0.82308300  0.45215700  1
  O  O1  1  0.98070300  0.30008100  0.82985800  1
  O  O2  1  0.25712300  0.44478700  0.59685400  1
  O  O3  1  0.38408300  0.66030100  0.95057400  1
  O  O4  1  0.15961500  0.36370600  0.17384200  1
  O  O5  1  0.26008200  0.06749200  0.06066700  1
  O  O6  1  0.33547200  0.14916500  0.69620600  1
  O  O7  1  0.51811200  0.79646400  0.68213500  1
  O  O8  1  0.47875900  0.20921500  0.32443600  1
  O  O9  1  0.74751300  0.93515600  0.93705700  1
  O  O10  1  0.65918500  0.85346600  0.30333500  1
  O  O11  1  0.84704800  0.63997400  0.82738400  1
  O  O12  1  0.62481000  0.34512400  0.05494500  1
  O  O13  1  0.73655600  0.55818600  0.40635800  1
  O  O14  1  0.00776600  0.70039600  0.16884000  1
  O  O15  1  0.89155200  0.17717800  0.54682600  1
loop_
_geom_bond_atom_site_label_1
_geom_bond_atom_site_label_2
_geom_bond_distance
_geom_bond_site_symmetry_2
Li0 O0 1.974789 1_555
Li0 O7 1.994212 1_555
Li0 O11 2.055989 1_455
Li0 O2 2.080232 1_555
Li1 O10 1.974440 1_555
Li1 O5 1.977337 1_565
Li1 O14 2.051905 1_555
Li1 O3 2.070322 1_554
Li1 O9 2.381692 1_554
Li2 O6 1.955472 1_555
Li2 O12 2.039079 1_556
Li2 O9 2.068033 1_545
Li2 O1 2.102432 1_555
Li2 O5 2.223683 1_556
Li3 O8 1.982065 1_555
Li3 O15 1.984221 1_555
Li3 O4 2.044038 1_655
Li3 O13 2.145076 1_555
H0 O2 0.977828 1_555
H1 O13 0.980256 1_555
H2 O9 1.013531 1_555
H2 O5 1.712185 1_666
O0 P3 1.524923 1_455
O0 V0 2.168001 1_565
O1 P0 1.539848 1_655
O1 V1 2.063014 1_656
O2 P0 1.639180 1_555
O3 P2 1.534046 1_555
O3 V1 2.101927 1_556
O4 P1 1.578963 1_555
O4 V1 2.014297 1_555
O5 P1 1.547277 1_555
O6 P0 1.518972 1_555
O6 V0 2.230950 1_555
O7 P2 1.524483 1_555
O7 V0 2.236858 1_565
O8 P1 1.543769 1_555
O8 V0 2.198946 1_555
O9 P2 1.606871 1_555
O10 P3 1.517507 1_555
O10 V0 2.234052 1_565
O11 P2 1.544023 1_555
O11 V1 2.082602 1_656
O12 P1 1.566595 1_555
O12 V1 2.040811 1_655
O13 P3 1.640999 1_555
O14 P3 1.538690 1_455
O14 V1 2.071051 1_555
O15 P0 1.520115 1_655
O15 V0 2.154080 1_555
