# generated using pymatgen
data_Li4Cr3Co(PO4)4
_symmetry_space_group_name_H-M   'P 1'
_cell_length_a   6.27577000
_cell_length_b   4.77213800
_cell_length_c   10.23645199
_cell_angle_alpha   89.58929411
_cell_angle_beta   90.00000000
_cell_angle_gamma   90.00000000
_symmetry_Int_Tables_number   1
_chemical_formula_structural   Li4Cr3Co(PO4)4
_chemical_formula_sum   'Li4 Cr3 Co1 P4 O16'
_cell_volume   306.56199165
_cell_formula_units_Z   1
loop_
 _symmetry_equiv_pos_site_id
 _symmetry_equiv_pos_as_xyz
  1  'x, y, z'
loop_
 _atom_site_type_symbol
 _atom_site_label
 _atom_site_symmetry_multiplicity
 _atom_site_fract_x
 _atom_site_fract_y
 _atom_site_fract_z
 _atom_site_occupancy
  Li  Li0  1  0.25198300  0.99515800  0.00015600  1
  Li  Li1  1  0.74801700  0.99515800  0.00015600  1
  Li  Li2  1  0.74665100  0.50228400  0.49837200  1
  Li  Li3  1  0.25334900  0.50228400  0.49837200  1
  Cr  Cr0  1  0.50000000  0.54473600  0.78384600  1
  Cr  Cr1  1  0.00000000  0.45450000  0.21806200  1
  Cr  Cr2  1  0.00000000  0.04937600  0.71559700  1
  Co  Co0  1  0.50000000  0.97948000  0.27853100  1
  P  P0  1  0.00000000  0.91718200  0.40544500  1
  P  P1  1  0.00000000  0.58063400  0.90566400  1
  P  P2  1  0.50000000  0.41627200  0.09393100  1
  P  P3  1  0.50000000  0.08388300  0.59423300  1
  O  O0  1  0.00000000  0.80585800  0.54954500  1
  O  O1  1  0.20116600  0.78598800  0.33914300  1
  O  O2  1  0.79883400  0.78598800  0.33914300  1
  O  O3  1  0.50000000  0.75952700  0.60133800  1
  O  O4  1  0.50000000  0.74020000  0.09767000  1
  O  O5  1  0.19861600  0.71410500  0.83868100  1
  O  O6  1  0.80138400  0.71410500  0.83868100  1
  O  O7  1  0.00000000  0.68949800  0.04883200  1
  O  O8  1  0.50000000  0.29944200  0.95157200  1
  O  O9  1  0.69570000  0.27836000  0.16390200  1
  O  O10  1  0.30430000  0.27836000  0.16390200  1
  O  O11  1  0.00000000  0.25602700  0.89903000  1
  O  O12  1  0.00000000  0.24150300  0.39957300  1
  O  O13  1  0.69749300  0.21490900  0.66284300  1
  O  O14  1  0.30250700  0.21490900  0.66284300  1
  O  O15  1  0.50000000  0.20027100  0.45093300  1
loop_
_geom_bond_atom_site_label_1
_geom_bond_atom_site_label_2
_geom_bond_distance
_geom_bond_site_symmetry_2
Li0 O5 2.162178 1_554
Li0 O8 2.183625 1_564
Li0 O10 2.185485 1_565
Li0 O7 2.205970 1_555
Li0 O4 2.209529 1_555
Li0 O11 2.259131 1_564
Li1 O6 2.162178 1_554
Li1 O8 2.183625 1_564
Li1 O9 2.185485 1_565
Li1 O7 2.205970 1_655
Li1 O4 2.209529 1_555
Li1 O11 2.259131 1_664
Li2 O2 2.136655 1_555
Li2 O15 2.172352 1_555
Li2 O13 2.185704 1_555
Li2 O0 2.216297 1_655
Li2 O3 2.243335 1_555
Li2 O12 2.262208 1_655
Li3 O1 2.136655 1_555
Li3 O15 2.172352 1_555
Li3 O14 2.185704 1_555
Li3 O0 2.216297 1_555
Li3 O3 2.243335 1_555
Li3 O12 2.262208 1_555
Cr0 O8 2.071050 1_555
Cr0 O3 2.124499 1_555
Cr0 O6 2.133614 1_555
Cr0 O5 2.133614 1_555
Cr0 O13 2.361304 1_555
Cr0 O14 2.361304 1_555
Cr1 O7 2.056866 1_555
Cr1 O12 2.111485 1_555
Cr1 O9 2.160466 1_455
Cr1 O10 2.160466 1_555
Cr1 O1 2.379198 1_555
Cr1 O2 2.379198 1_455
Cr2 O0 2.065929 1_545
Cr2 O14 2.124543 1_555
Cr2 O13 2.124543 1_455
Cr2 O11 2.127167 1_555
Cr2 O5 2.381619 1_545
Cr2 O6 2.381619 1_445
Co0 O15 2.061866 1_565
Co0 O2 2.178655 1_555
Co0 O1 2.178655 1_555
Co0 O4 2.182150 1_555
Co0 O9 2.212596 1_565
Co0 O10 2.212596 1_565
O0 P0 1.564236 1_555
O1 P0 1.566055 1_555
O2 P0 1.566055 1_655
O3 P3 1.549058 1_565
O4 P2 1.546577 1_555
O5 P1 1.556682 1_555
O6 P1 1.556682 1_655
O7 P1 1.558395 1_554
O8 P2 1.563991 1_556
O9 P2 1.564545 1_555
O10 P2 1.564545 1_555
O11 P1 1.551043 1_555
O12 P0 1.548441 1_545
O13 P3 1.557782 1_555
O14 P3 1.557782 1_555
O15 P3 1.564787 1_555
