# generated using pymatgen
data_Fe10O11
_symmetry_space_group_name_H-M   'P 1'
_cell_length_a   6.87970300
_cell_length_b   6.80744188
_cell_length_c   5.35378149
_cell_angle_alpha   104.79498320
_cell_angle_beta   98.41747560
_cell_angle_gamma   107.40716382
_symmetry_Int_Tables_number   1
_chemical_formula_structural   Fe10O11
_chemical_formula_sum   'Fe10 O11'
_cell_volume   224.47394727
_cell_formula_units_Z   1
loop_
 _symmetry_equiv_pos_site_id
 _symmetry_equiv_pos_as_xyz
  1  'x, y, z'
loop_
 _atom_site_type_symbol
 _atom_site_label
 _atom_site_symmetry_multiplicity
 _atom_site_fract_x
 _atom_site_fract_y
 _atom_site_fract_z
 _atom_site_occupancy
  Fe  Fe0  1  0.65450900  0.91358000  0.18243800  1
  Fe  Fe1  1  0.81615100  0.44313100  0.08451700  1
  Fe  Fe2  1  0.26703900  0.82958600  0.36111900  1
  Fe  Fe3  1  0.44411000  0.35075400  0.26451100  1
  Fe  Fe4  1  0.90372500  0.72622000  0.56007200  1
  Fe  Fe5  1  0.09627500  0.27378000  0.43992800  1
  Fe  Fe6  1  0.55589000  0.64924600  0.73548900  1
  Fe  Fe7  1  0.73296100  0.17041400  0.63888100  1
  Fe  Fe8  1  0.18384900  0.55686900  0.91548300  1
  Fe  Fe9  1  0.34549100  0.08642000  0.81756200  1
  O  O0  1  0.94518800  0.83166100  0.28592200  1
  O  O1  1  0.33622300  0.93783400  0.09373400  1
  O  O2  1  0.50000000  0.50000000  0.00000000  1
  O  O3  1  0.77543800  0.32570400  0.34746800  1
  O  O4  1  0.57578200  0.75949300  0.44869900  1
  O  O5  1  0.12503400  0.42513200  0.17175200  1
  O  O6  1  0.22456200  0.67429600  0.65253200  1
  O  O7  1  0.87496600  0.57486800  0.82824800  1
  O  O8  1  0.42421800  0.24050700  0.55130100  1
  O  O9  1  0.05481200  0.16833900  0.71407800  1
  O  O10  1  0.66377700  0.06216600  0.90626600  1
loop_
_geom_bond_atom_site_label_1
_geom_bond_atom_site_label_2
_geom_bond_distance
_geom_bond_site_symmetry_2
Fe0 O10 1.991521 1_564
Fe0 O4 2.018779 1_555
Fe0 O1 2.235967 1_555
Fe0 O0 2.262242 1_555
Fe0 O3 2.542831 1_565
Fe0 O2 2.551766 1_555
Fe1 O3 1.804308 1_555
Fe1 O7 1.850455 1_554
Fe1 O5 2.154834 1_655
Fe1 O2 2.321740 1_555
Fe1 O10 2.356235 1_554
Fe1 O0 2.409274 1_555
Fe2 O1 1.829530 1_555
Fe2 O6 2.104280 1_555
Fe2 O0 2.196763 1_455
Fe2 O4 2.321259 1_555
Fe2 O5 2.497589 1_555
Fe2 O8 2.538542 1_565
Fe3 O8 1.878310 1_555
Fe3 O2 1.961121 1_555
Fe3 O3 2.323151 1_555
Fe3 O5 2.407474 1_555
Fe3 O4 2.522733 1_555
Fe3 O1 2.555115 1_545
Fe4 O0 1.813551 1_555
Fe4 O7 1.969468 1_555
Fe4 O4 2.340499 1_555
Fe4 O6 2.340571 1_655
Fe4 O3 2.487856 1_555
Fe4 O9 2.725522 1_665
Fe5 O9 1.813551 1_555
Fe5 O5 1.969468 1_555
Fe5 O8 2.340499 1_555
Fe5 O3 2.340571 1_455
Fe5 O6 2.487856 1_555
Fe5 O0 2.725522 1_445
Fe6 O4 1.878310 1_555
Fe6 O2 1.961121 1_556
Fe6 O6 2.323151 1_555
Fe6 O7 2.407474 1_555
Fe6 O8 2.522733 1_555
Fe6 O10 2.555115 1_565
Fe7 O10 1.829530 1_555
Fe7 O3 2.104280 1_555
Fe7 O9 2.196763 1_655
Fe7 O8 2.321259 1_555
Fe7 O7 2.497589 1_555
Fe7 O4 2.538542 1_545
Fe8 O6 1.804308 1_555
Fe8 O5 1.850455 1_556
Fe8 O7 2.154834 1_455
Fe8 O2 2.321740 1_556
Fe8 O1 2.356235 1_556
Fe8 O9 2.409274 1_555
Fe9 O1 1.991521 1_546
Fe9 O8 2.018779 1_555
Fe9 O10 2.235967 1_555
Fe9 O9 2.262242 1_555
Fe9 O6 2.542831 1_545
Fe9 O2 2.551766 1_556
