# generated using pymatgen
data_Li3Mn2(CoO4)2
_symmetry_space_group_name_H-M   'P 1'
_cell_length_a   2.91369800
_cell_length_b   4.99117083
_cell_length_c   10.06131636
_cell_angle_alpha   91.12704374
_cell_angle_beta   91.30901448
_cell_angle_gamma   90.70872344
_symmetry_Int_Tables_number   1
_chemical_formula_structural   Li3Mn2(CoO4)2
_chemical_formula_sum   'Li3 Mn2 Co2 O8'
_cell_volume   146.24084190
_cell_formula_units_Z   1
loop_
 _symmetry_equiv_pos_site_id
 _symmetry_equiv_pos_as_xyz
  1  'x, y, z'
loop_
 _atom_site_type_symbol
 _atom_site_label
 _atom_site_symmetry_multiplicity
 _atom_site_fract_x
 _atom_site_fract_y
 _atom_site_fract_z
 _atom_site_occupancy
  Li  Li0  1  0.50970200  0.83078200  0.22961800  1
  Li  Li1  1  0.24483300  0.91882500  0.73173100  1
  Li  Li2  1  0.01978500  0.33035100  0.22654400  1
  Mn  Mn0  1  0.51501500  0.49114700  0.99295300  1
  Mn  Mn1  1  0.24095500  0.25861900  0.50240300  1
  Co  Co0  1  0.73947300  0.75616200  0.49492100  1
  Co  Co1  1  0.00506800  0.99558600  0.00558700  1
  O  O0  1  0.98550600  0.66670400  0.11224100  1
  O  O1  1  0.75329700  0.07897500  0.60403900  1
  O  O2  1  0.72217000  0.42157700  0.39301500  1
  O  O3  1  0.49158300  0.84178800  0.90433900  1
  O  O4  1  0.51738200  0.15748100  0.11292400  1
  O  O5  1  0.24566400  0.60205600  0.59406000  1
  O  O6  1  0.22924900  0.92500200  0.39636400  1
  O  O7  1  0.03167900  0.30782300  0.89976100  1
loop_
_geom_bond_atom_site_label_1
_geom_bond_atom_site_label_2
_geom_bond_distance
_geom_bond_site_symmetry_2
Li0 O6 1.935104 1_555
Li0 O0 2.012997 1_555
Li0 O4 2.028177 1_565
Li0 O0 2.060762 1_455
Li1 O3 1.912277 1_555
Li1 O1 2.079743 1_465
Li1 O5 2.081456 1_555
Li1 O1 2.140668 1_565
Li2 O2 1.952117 1_455
Li2 O4 2.011877 1_455
Li2 O4 2.054562 1_555
Li2 O0 2.055667 1_455
Mn0 O7 1.890429 1_555
Mn0 O3 1.980910 1_555
Mn0 O0 1.985265 1_556
Mn0 O7 2.011825 1_655
Mn0 O4 2.075944 1_556
Mn0 O0 2.159919 1_456
Mn1 O5 1.930181 1_555
Mn1 O6 1.959377 1_545
Mn1 O2 1.978956 1_555
Mn1 O1 1.984819 1_455
Mn1 O1 2.019298 1_555
Mn1 O2 2.036501 1_455
Co0 O5 1.930056 1_555
Co0 O1 1.931254 1_565
Co0 O5 1.937238 1_655
Co0 O2 1.941855 1_555
Co0 O6 1.948777 1_655
Co0 O6 1.974857 1_555
Co1 O7 1.906426 1_564
Co1 O3 1.923172 1_554
Co1 O3 1.933032 1_454
Co1 O4 1.975494 1_465
Co1 O4 1.977283 1_565
Co1 O0 1.979663 1_455
