# generated using pymatgen
data_Li3Mn5FeO12
_symmetry_space_group_name_H-M   'P 1'
_cell_length_a   5.98447784
_cell_length_b   5.98447784
_cell_length_c   13.00963325
_cell_angle_alpha   77.91332425
_cell_angle_beta   77.91332425
_cell_angle_gamma   92.24954751
_symmetry_Int_Tables_number   1
_chemical_formula_structural   Li3Mn5FeO12
_chemical_formula_sum   'Li6 Mn10 Fe2 O24'
_cell_volume   443.81270864
_cell_formula_units_Z   2
loop_
 _symmetry_equiv_pos_site_id
 _symmetry_equiv_pos_as_xyz
  1  'x, y, z'
loop_
 _atom_site_type_symbol
 _atom_site_label
 _atom_site_symmetry_multiplicity
 _atom_site_fract_x
 _atom_site_fract_y
 _atom_site_fract_z
 _atom_site_occupancy
  Li  Li0  1  0.95312700  0.71732000  0.08273200  1
  Li  Li1  1  0.38472400  0.61527600  0.25000000  1
  Li  Li2  1  0.28268000  0.04687300  0.41726800  1
  Li  Li3  1  0.71732000  0.95312700  0.58273200  1
  Li  Li4  1  0.61527600  0.38472400  0.75000000  1
  Li  Li5  1  0.04687300  0.28268000  0.91726800  1
  Mn  Mn0  1  0.50000000  0.00000000  0.00000000  1
  Mn  Mn1  1  0.16604000  0.16503600  0.16706600  1
  Mn  Mn2  1  0.66317700  0.16723400  0.16819200  1
  Mn  Mn3  1  0.83496400  0.83396000  0.33293400  1
  Mn  Mn4  1  0.83276600  0.33682300  0.33180800  1
  Mn  Mn5  1  0.00000000  0.50000000  0.50000000  1
  Mn  Mn6  1  0.16723400  0.66317700  0.66819200  1
  Mn  Mn7  1  0.16503600  0.16604000  0.66706600  1
  Mn  Mn8  1  0.83396000  0.83496400  0.83293400  1
  Mn  Mn9  1  0.33682300  0.83276600  0.83180800  1
  Fe  Fe0  1  0.50000000  0.50000000  0.00000000  1
  Fe  Fe1  1  0.50000000  0.50000000  0.50000000  1
  O  O0  1  0.27504900  0.22828800  0.00935600  1
  O  O1  1  0.72139100  0.24055700  0.00904500  1
  O  O2  1  0.42749800  0.38172900  0.16162000  1
  O  O3  1  0.44296500  0.93490500  0.15557100  1
  O  O4  1  0.89100300  0.39698100  0.17683500  1
  O  O5  1  0.90033400  0.94946000  0.17435700  1
  O  O6  1  0.05054000  0.09966600  0.32564300  1
  O  O7  1  0.60301900  0.10899700  0.32316500  1
  O  O8  1  0.61827100  0.57250200  0.33838000  1
  O  O9  1  0.06509500  0.55703500  0.34442900  1
  O  O10  1  0.77171200  0.72495100  0.49064400  1
  O  O11  1  0.75944300  0.27860900  0.49095500  1
  O  O12  1  0.22828800  0.27504900  0.50935600  1
  O  O13  1  0.24055700  0.72139100  0.50904500  1
  O  O14  1  0.93490500  0.44296500  0.65557100  1
  O  O15  1  0.38172900  0.42749800  0.66162000  1
  O  O16  1  0.94946000  0.90033400  0.67435700  1
  O  O17  1  0.39698100  0.89100300  0.67683500  1
  O  O18  1  0.09966600  0.05054000  0.82564300  1
  O  O19  1  0.10899700  0.60301900  0.82316500  1
  O  O20  1  0.57250200  0.61827100  0.83838000  1
  O  O21  1  0.55703500  0.06509500  0.84442900  1
  O  O22  1  0.72495100  0.77171200  0.99064400  1
  O  O23  1  0.27860900  0.75944300  0.99095500  1
loop_
_geom_bond_atom_site_label_1
_geom_bond_atom_site_label_2
_geom_bond_distance
_geom_bond_site_symmetry_2
Li0 O22 1.990614 1_554
Li0 O5 2.005222 1_555
Li0 O4 2.020569 1_555
Li0 O23 2.035847 1_654
Li1 O2 1.979598 1_555
Li1 O8 1.979598 1_555
Li1 O9 2.018361 1_555
Li1 O3 2.018361 1_555
Li2 O12 1.990614 1_555
Li2 O6 2.005222 1_555
Li2 O7 2.020569 1_555
Li2 O13 2.035847 1_545
Li3 O10 1.990614 1_555
Li3 O16 2.005222 1_555
Li3 O17 2.020569 1_555
Li3 O11 2.035847 1_565
Li4 O15 1.979598 1_555
Li4 O20 1.979598 1_555
Li4 O21 2.018361 1_555
Li4 O14 2.018361 1_555
Li5 O0 1.990614 1_556
Li5 O18 2.005222 1_555
Li5 O19 2.020569 1_555
Li5 O1 2.035847 1_456
Mn0 O3 1.932510 1_545
Mn0 O21 1.932510 1_554
Mn0 O1 1.956579 1_555
Mn0 O23 1.956579 1_544
Mn0 O0 1.959329 1_555
Mn0 O22 1.959329 1_544
Mn1 O0 1.968088 1_555
Mn1 O2 1.972500 1_555
Mn1 O5 1.981510 1_445
Mn1 O6 1.982551 1_555
Mn1 O4 2.194922 1_455
Mn1 O3 2.197090 1_545
Mn2 O7 1.925571 1_555
Mn2 O3 1.933701 1_545
Mn2 O4 1.934873 1_555
Mn2 O2 1.947045 1_555
Mn2 O5 1.966808 1_545
Mn2 O1 1.976389 1_555
Mn3 O10 1.968088 1_555
Mn3 O8 1.972500 1_555
Mn3 O6 1.981510 1_665
Mn3 O5 1.982551 1_555
Mn3 O7 2.194922 1_565
Mn3 O9 2.197090 1_655
Mn4 O4 1.925571 1_555
Mn4 O9 1.933701 1_655
Mn4 O7 1.934873 1_555
Mn4 O8 1.947045 1_555
Mn4 O6 1.966808 1_655
Mn4 O11 1.976389 1_555
Mn5 O14 1.932510 1_455
Mn5 O9 1.932510 1_555
Mn5 O13 1.956579 1_555
Mn5 O11 1.956579 1_455
Mn5 O12 1.959329 1_555
Mn5 O10 1.959329 1_455
Mn6 O19 1.925571 1_555
Mn6 O14 1.933701 1_455
Mn6 O17 1.934873 1_555
Mn6 O15 1.947045 1_555
Mn6 O16 1.966808 1_455
Mn6 O13 1.976389 1_555
Mn7 O12 1.968088 1_555
Mn7 O15 1.972500 1_555
Mn7 O16 1.981510 1_445
Mn7 O18 1.982551 1_555
Mn7 O17 2.194922 1_545
Mn7 O14 2.197090 1_455
Mn8 O22 1.968088 1_555
Mn8 O20 1.972500 1_555
Mn8 O18 1.981510 1_665
Mn8 O16 1.982551 1_555
Mn8 O19 2.194922 1_655
Mn8 O21 2.197090 1_565
Mn9 O17 1.925571 1_555
Mn9 O21 1.933701 1_565
Mn9 O19 1.934873 1_555
Mn9 O20 1.947045 1_555
Mn9 O18 1.966808 1_565
Mn9 O23 1.976389 1_555
Fe0 O20 2.020105 1_554
Fe0 O2 2.020105 1_555
Fe0 O0 2.036617 1_555
Fe0 O22 2.036617 1_554
Fe0 O23 2.080904 1_554
Fe0 O1 2.080904 1_555
Fe1 O8 2.020105 1_555
Fe1 O15 2.020105 1_555
Fe1 O10 2.036617 1_555
Fe1 O12 2.036617 1_555
Fe1 O11 2.080904 1_555
Fe1 O13 2.080904 1_555
