# generated using pymatgen
data_Li3Cr(PO4)2
_symmetry_space_group_name_H-M   'P 1'
_cell_length_a   8.42142238
_cell_length_b   8.42142238
_cell_length_c   8.42142199
_cell_angle_alpha   63.67410162
_cell_angle_beta   63.67410162
_cell_angle_gamma   63.67410584
_symmetry_Int_Tables_number   1
_chemical_formula_structural   Li3Cr(PO4)2
_chemical_formula_sum   'Li9 Cr3 P6 O24'
_cell_volume   456.58376469
_cell_formula_units_Z   3
loop_
 _symmetry_equiv_pos_site_id
 _symmetry_equiv_pos_as_xyz
  1  'x, y, z'
loop_
 _atom_site_type_symbol
 _atom_site_label
 _atom_site_symmetry_multiplicity
 _atom_site_fract_x
 _atom_site_fract_y
 _atom_site_fract_z
 _atom_site_occupancy
  Li  Li0  1  0.85030500  0.24354200  0.65329500  1
  Li  Li1  1  0.80492200  0.32616500  0.14244600  1
  Li  Li2  1  0.32616500  0.14244600  0.80492200  1
  Li  Li3  1  0.15230700  0.15230700  0.15230700  1
  Li  Li4  1  0.00947800  0.00947800  0.00947800  1
  Li  Li5  1  0.49759500  0.49759500  0.49759500  1
  Li  Li6  1  0.65329500  0.85030500  0.24354200  1
  Li  Li7  1  0.24354200  0.65329500  0.85030500  1
  Li  Li8  1  0.14244600  0.80492200  0.32616500  1
  Cr  Cr0  1  0.35664700  0.35664700  0.35664700  1
  Cr  Cr1  1  0.85724500  0.85724500  0.85724500  1
  Cr  Cr2  1  0.64183700  0.64183700  0.64183700  1
  P  P0  1  0.74530500  0.04611500  0.45365400  1
  P  P1  1  0.94991200  0.54816100  0.24656700  1
  P  P2  1  0.54816100  0.24656700  0.94991200  1
  P  P3  1  0.45365400  0.74530500  0.04611500  1
  P  P4  1  0.04611500  0.45365400  0.74530500  1
  P  P5  1  0.24656700  0.94991200  0.54816100  1
  O  O0  1  0.90299600  0.05147800  0.26798400  1
  O  O1  1  0.74451600  0.09149900  0.93266100  1
  O  O2  1  0.88930000  0.49527600  0.67176600  1
  O  O3  1  0.01892200  0.61735800  0.80315900  1
  O  O4  1  0.59336900  0.24238900  0.43005200  1
  O  O5  1  0.39197900  0.18883200  0.97194100  1
  O  O6  1  0.30372200  0.11456400  0.51577000  1
  O  O7  1  0.75420500  0.57898800  0.40177600  1
  O  O8  1  0.93266100  0.74451600  0.09149900  1
  O  O9  1  0.18883200  0.97194100  0.39197900  1
  O  O10  1  0.51577000  0.30372200  0.11456400  1
  O  O11  1  0.57898800  0.40177600  0.75420500  1
  O  O12  1  0.43005200  0.59336900  0.24238900  1
  O  O13  1  0.49527600  0.67176600  0.88930000  1
  O  O14  1  0.80315900  0.01892200  0.61735800  1
  O  O15  1  0.24238900  0.43005200  0.59336900  1
  O  O16  1  0.05147800  0.26798400  0.90299600  1
  O  O17  1  0.61735800  0.80315900  0.01892200  1
  O  O18  1  0.67176600  0.88930000  0.49527600  1
  O  O19  1  0.40177600  0.75420500  0.57898800  1
  O  O20  1  0.97194100  0.39197900  0.18883200  1
  O  O21  1  0.11456400  0.51577000  0.30372200  1
  O  O22  1  0.26798400  0.90299600  0.05147800  1
  O  O23  1  0.09149900  0.93266100  0.74451600  1
loop_
_geom_bond_atom_site_label_1
_geom_bond_atom_site_label_2
_geom_bond_distance
_geom_bond_site_symmetry_2
Li0 O11 2.073693 1_555
Li0 O1 2.109279 1_555
Li0 O14 2.260074 1_555
Li0 O2 2.362527 1_555
Li0 O23 2.540403 1_645
Li1 O20 1.951651 1_555
Li1 O0 2.015376 1_555
Li1 O16 2.208609 1_654
Li1 O4 2.304355 1_555
Li2 O5 1.951651 1_555
Li2 O16 2.015376 1_555
Li2 O22 2.208609 1_546
Li2 O15 2.304355 1_555
Li3 O9 1.972989 1_545
Li3 O5 1.972989 1_554
Li3 O20 1.972989 1_455
Li3 O16 2.260886 1_554
Li3 O0 2.260886 1_455
Li3 O22 2.260886 1_545
Li4 O0 2.082945 1_455
Li4 O16 2.082945 1_554
Li4 O22 2.082945 1_545
Li4 O23 2.321959 1_544
Li4 O8 2.321959 1_445
Li4 O1 2.321959 1_454
Li5 O12 2.175548 1_555
Li5 O15 2.175549 1_555
Li5 O4 2.175549 1_555
Li5 O11 2.251122 1_555
Li5 O7 2.251122 1_555
Li5 O19 2.251122 1_555
Li6 O7 2.073693 1_555
Li6 O8 2.109279 1_555
Li6 O17 2.260074 1_555
Li6 O18 2.362527 1_555
Li6 O1 2.540402 1_564
Li7 O19 2.073693 1_555
Li7 O23 2.109279 1_555
Li7 O3 2.260074 1_555
Li7 O13 2.362527 1_555
Li7 O8 2.540402 1_456
Li8 O9 1.951651 1_555
Li8 O22 2.015376 1_555
Li8 O0 2.208609 1_465
Li8 O12 2.304356 1_555
Cr0 O10 2.000923 1_555
Cr0 O6 2.000923 1_555
Cr0 O21 2.000923 1_555
Cr0 O15 2.036243 1_555
Cr0 O12 2.036243 1_555
Cr0 O4 2.036243 1_555
Cr1 O14 1.992207 1_565
Cr1 O17 1.992207 1_556
Cr1 O3 1.992207 1_655
Cr1 O8 2.027749 1_556
Cr1 O23 2.027749 1_655
Cr1 O1 2.027749 1_565
Cr2 O13 1.959206 1_555
Cr2 O18 1.959206 1_555
Cr2 O2 1.959206 1_555
Cr2 O7 2.017599 1_555
Cr2 O11 2.017599 1_555
Cr2 O19 2.017599 1_555
O0 P0 1.536000 1_555
O1 P2 1.581367 1_555
O2 P4 1.540355 1_655
O3 P4 1.551510 1_555
O4 P0 1.570703 1_555
O5 P2 1.507166 1_555
O6 P5 1.539086 1_545
O7 P1 1.582072 1_555
O8 P1 1.581367 1_555
O9 P5 1.507166 1_555
O10 P2 1.539086 1_554
O11 P2 1.582072 1_555
O12 P3 1.570703 1_555
O13 P3 1.540355 1_556
O14 P0 1.551510 1_555
O15 P4 1.570703 1_555
O16 P4 1.536000 1_555
O17 P3 1.551510 1_555
O18 P0 1.540355 1_565
O19 P5 1.582072 1_555
O20 P1 1.507166 1_555
O21 P1 1.539086 1_455
O22 P3 1.536000 1_555
O23 P5 1.581367 1_555
