# generated using pymatgen
data_Li2Fe3NiO8
_symmetry_space_group_name_H-M   'P 1'
_cell_length_a   8.40373901
_cell_length_b   8.34200810
_cell_length_c   8.40998625
_cell_angle_alpha   90.11991602
_cell_angle_beta   90.18118101
_cell_angle_gamma   89.87976202
_symmetry_Int_Tables_number   1
_chemical_formula_structural   Li2Fe3NiO8
_chemical_formula_sum   'Li8 Fe12 Ni4 O32'
_cell_volume   589.56864265
_cell_formula_units_Z   4
loop_
 _symmetry_equiv_pos_site_id
 _symmetry_equiv_pos_as_xyz
  1  'x, y, z'
loop_
 _atom_site_type_symbol
 _atom_site_label
 _atom_site_symmetry_multiplicity
 _atom_site_fract_x
 _atom_site_fract_y
 _atom_site_fract_z
 _atom_site_occupancy
  Li  Li0  1  0.12462200  0.87539900  0.37867700  1
  Li  Li1  1  0.25655700  0.75359900  0.74101200  1
  Li  Li2  1  0.24901700  0.25204400  0.24750200  1
  Li  Li3  1  0.37647200  0.12389100  0.87493000  1
  Li  Li4  1  0.62538200  0.62339300  0.62340500  1
  Li  Li5  1  0.75120000  0.75119500  0.24438900  1
  Li  Li6  1  0.75137300  0.25312200  0.74320500  1
  Li  Li7  1  0.87486400  0.37837900  0.12646600  1
  Fe  Fe0  1  0.12145100  0.62072700  0.12692200  1
  Fe  Fe1  1  0.12618700  0.37999300  0.87823800  1
  Fe  Fe2  1  0.12310900  0.12428800  0.62198700  1
  Fe  Fe3  1  0.37364200  0.87669100  0.12595800  1
  Fe  Fe4  1  0.37749000  0.62312300  0.38285300  1
  Fe  Fe5  1  0.38011900  0.37291300  0.62910000  1
  Fe  Fe6  1  0.61873700  0.87670700  0.87461300  1
  Fe  Fe7  1  0.62335400  0.12538400  0.12003900  1
  Fe  Fe8  1  0.62400800  0.37731600  0.37610100  1
  Fe  Fe9  1  0.87474300  0.62116200  0.87445600  1
  Fe  Fe10  1  0.87483700  0.87372500  0.62241900  1
  Fe  Fe11  1  0.87903000  0.12291700  0.37250400  1
  Ni  Ni0  1  0.00111000  0.49833600  0.49668900  1
  Ni  Ni1  1  0.50092700  0.50202600  0.00045600  1
  Ni  Ni2  1  0.49904800  0.99629000  0.50564700  1
  Ni  Ni3  1  0.00312200  0.99873600  0.00345700  1
  O  O0  1  0.09652900  0.12722100  0.37926500  1
  O  O1  1  0.11049600  0.90332300  0.63248000  1
  O  O2  1  0.12227900  0.60698800  0.88151000  1
  O  O3  1  0.12334400  0.39988200  0.11145100  1
  O  O4  1  0.11248500  0.15680400  0.87209200  1
  O  O5  1  0.13427700  0.35926300  0.63417000  1
  O  O6  1  0.14760700  0.62358900  0.36764800  1
  O  O7  1  0.13818100  0.84991500  0.12288100  1
  O  O8  1  0.34995300  0.13105100  0.62198100  1
  O  O9  1  0.36525200  0.37429600  0.86209100  1
  O  O10  1  0.36142400  0.63261300  0.14280400  1
  O  O11  1  0.37908100  0.84900700  0.36891300  1
  O  O12  1  0.37563900  0.61350900  0.59938600  1
  O  O13  1  0.38426700  0.39292600  0.38298900  1
  O  O14  1  0.38943700  0.10318300  0.13174900  1
  O  O15  1  0.40110500  0.87336800  0.88647700  1
  O  O16  1  0.61061200  0.37252200  0.59764900  1
  O  O17  1  0.60357900  0.61047400  0.37316200  1
  O  O18  1  0.61561300  0.87946100  0.10281100  1
  O  O19  1  0.62963100  0.10145800  0.88690600  1
  O  O20  1  0.62059900  0.36166400  0.14643700  1
  O  O21  1  0.64447000  0.13305500  0.36457500  1
  O  O22  1  0.63386100  0.87523600  0.65251200  1
  O  O23  1  0.63557100  0.64688600  0.87579800  1
  O  O24  1  0.85706500  0.35506800  0.37601400  1
  O  O25  1  0.86377500  0.12311000  0.14531900  1
  O  O26  1  0.85962500  0.85907700  0.87148500  1
  O  O27  1  0.87911500  0.63806100  0.64058000  1
  O  O28  1  0.87108000  0.89875400  0.38827600  1
  O  O29  1  0.89007700  0.11922800  0.60621900  1
  O  O30  1  0.88533400  0.40221500  0.87558100  1
  O  O31  1  0.89823800  0.62551700  0.10784000  1
loop_
_geom_bond_atom_site_label_1
_geom_bond_atom_site_label_2
_geom_bond_distance
_geom_bond_site_symmetry_2
Li0 O6 2.110932 1_555
Li0 O0 2.113431 1_565
Li0 O28 2.140944 1_455
Li0 O1 2.150294 1_555
Li0 O11 2.151060 1_555
Li0 O7 2.164613 1_555
Li1 O12 1.944898 1_555
Li1 O1 1.972567 1_555
Li1 O15 1.990230 1_555
Li1 O2 2.045872 1_555
Li2 O14 1.969343 1_555
Li2 O3 1.984516 1_555
Li2 O13 1.990779 1_555
Li2 O0 1.993431 1_555
Li3 O9 2.093806 1_555
Li3 O15 2.102076 1_545
Li3 O19 2.137381 1_555
Li3 O8 2.139184 1_555
Li3 O14 2.169478 1_556
Li3 O4 2.234890 1_555
Li4 O16 2.107374 1_555
Li4 O12 2.109605 1_555
Li4 O17 2.114467 1_555
Li4 O22 2.115903 1_555
Li4 O23 2.132708 1_555
Li4 O27 2.140476 1_555
Li5 O18 1.962788 1_555
Li5 O31 1.985774 1_555
Li5 O28 1.996426 1_555
Li5 O17 2.027268 1_555
Li6 O16 1.969991 1_555
Li6 O29 1.982707 1_555
Li6 O30 2.011415 1_555
Li6 O19 2.031644 1_555
Li7 O31 2.077661 1_555
Li7 O3 2.100446 1_655
Li7 O24 2.113889 1_555
Li7 O30 2.121822 1_554
Li7 O25 2.137930 1_555
Li7 O20 2.148740 1_555
Fe0 O3 1.846647 1_555
Fe0 O31 1.882518 1_455
Fe0 O7 1.917725 1_555
Fe0 O10 2.023292 1_555
Fe0 O6 2.035805 1_555
Fe0 O2 2.066885 1_554
Fe1 O4 1.866241 1_555
Fe1 O2 1.893954 1_555
Fe1 O3 1.968193 1_556
Fe1 O9 2.014507 1_555
Fe1 O30 2.032206 1_455
Fe1 O5 2.060844 1_555
Fe2 O1 1.848867 1_545
Fe2 O8 1.907291 1_555
Fe2 O29 1.962943 1_455
Fe2 O5 1.965049 1_555
Fe2 O0 2.052963 1_555
Fe2 O4 2.122369 1_555
Fe3 O14 1.894846 1_565
Fe3 O7 1.991866 1_555
Fe3 O15 2.028062 1_554
Fe3 O18 2.043554 1_555
Fe3 O10 2.044137 1_555
Fe3 O11 2.057092 1_555
Fe4 O12 1.823089 1_555
Fe4 O11 1.888292 1_555
Fe4 O17 1.904692 1_555
Fe4 O13 1.921033 1_555
Fe4 O6 1.935697 1_555
Fe4 O10 2.024595 1_555
Fe5 O16 1.955802 1_555
Fe5 O9 1.963833 1_555
Fe5 O12 2.023327 1_555
Fe5 O8 2.034740 1_555
Fe5 O5 2.069945 1_555
Fe5 O13 2.077269 1_555
Fe6 O15 1.832230 1_555
Fe6 O22 1.872599 1_555
Fe6 O19 1.879913 1_565
Fe6 O18 1.919493 1_556
Fe6 O23 1.922129 1_555
Fe6 O26 2.029637 1_555
Fe7 O19 1.971223 1_554
Fe7 O14 1.977652 1_555
Fe7 O20 1.983146 1_555
Fe7 O25 2.030975 1_555
Fe7 O18 2.057450 1_545
Fe7 O21 2.064497 1_555
Fe8 O16 1.867486 1_555
Fe8 O20 1.935732 1_555
Fe8 O17 1.952410 1_555
Fe8 O24 1.966939 1_555
Fe8 O13 2.019658 1_555
Fe8 O21 2.046631 1_555
Fe9 O30 1.828481 1_555
Fe9 O31 1.972308 1_556
Fe9 O27 1.972697 1_555
Fe9 O26 1.988689 1_555
Fe9 O23 2.020979 1_555
Fe9 O2 2.084002 1_655
Fe10 O27 1.972397 1_555
Fe10 O28 1.980758 1_555
Fe10 O1 1.997768 1_655
Fe10 O22 2.041656 1_555
Fe10 O29 2.057085 1_565
Fe10 O26 2.102767 1_555
Fe11 O0 1.828935 1_655
Fe11 O28 1.876290 1_545
Fe11 O25 1.914518 1_555
Fe11 O24 1.945168 1_555
Fe11 O29 1.967740 1_555
Fe11 O21 1.973739 1_555
Ni0 O6 1.950314 1_555
Ni0 O27 1.967480 1_455
Ni0 O24 1.979119 1_455
Ni0 O5 1.981702 1_555
Ni1 O9 1.944464 1_554
Ni1 O23 1.964239 1_554
Ni1 O20 1.970516 1_555
Ni1 O10 1.998077 1_555
Ni2 O8 1.946307 1_565
Ni2 O22 1.954590 1_555
Ni2 O11 1.959656 1_555
Ni2 O21 2.055093 1_565
Ni3 O4 1.954872 1_564
Ni3 O7 1.957112 1_555
Ni3 O25 1.967164 1_465
Ni3 O26 2.008828 1_454
