# generated using pymatgen
data_Li4Ti2Nb3V3O16
_symmetry_space_group_name_H-M   'P 1'
_cell_length_a   6.05770344
_cell_length_b   6.05770344
_cell_length_c   9.82834915
_cell_angle_alpha   89.62655486
_cell_angle_beta   89.62655486
_cell_angle_gamma   59.20530105
_symmetry_Int_Tables_number   1
_chemical_formula_structural   Li4Ti2Nb3V3O16
_chemical_formula_sum   'Li4 Ti2 Nb3 V3 O16'
_cell_volume   309.79986784
_cell_formula_units_Z   1
loop_
 _symmetry_equiv_pos_site_id
 _symmetry_equiv_pos_as_xyz
  1  'x, y, z'
loop_
 _atom_site_type_symbol
 _atom_site_label
 _atom_site_symmetry_multiplicity
 _atom_site_fract_x
 _atom_site_fract_y
 _atom_site_fract_z
 _atom_site_occupancy
  Li  Li0  1  0.66763400  0.66763400  0.90124400  1
  Li  Li1  1  0.00433500  0.00433500  0.99109500  1
  Li  Li2  1  0.00840000  0.00840000  0.49200700  1
  Li  Li3  1  0.33479800  0.33479800  0.38848200  1
  Ti  Ti0  1  0.65773900  0.65773900  0.49517800  1
  Ti  Ti1  1  0.32719000  0.32719000  0.00032000  1
  Nb  Nb0  1  0.82667800  0.82667800  0.22301500  1
  Nb  Nb1  1  0.63535800  0.18231200  0.71582000  1
  Nb  Nb2  1  0.18231200  0.63535800  0.71582000  1
  V  V0  1  0.81881400  0.34958900  0.21166100  1
  V  V1  1  0.34958900  0.81881400  0.21166100  1
  V  V2  1  0.17244500  0.17244500  0.71164800  1
  O  O0  1  0.82136500  0.34018200  0.59475200  1
  O  O1  1  0.52501000  0.52501000  0.35116100  1
  O  O2  1  0.67662200  0.67662200  0.09783600  1
  O  O3  1  0.99877200  0.99877200  0.30645100  1
  O  O4  1  0.00119900  0.00119900  0.80620200  1
  O  O5  1  0.34018200  0.82136500  0.59475200  1
  O  O6  1  0.96482900  0.52300300  0.34299400  1
  O  O7  1  0.52300300  0.96482900  0.34299400  1
  O  O8  1  0.16949900  0.16949900  0.09271600  1
  O  O9  1  0.82952000  0.82952000  0.59309700  1
  O  O10  1  0.48850500  0.04099000  0.84706500  1
  O  O11  1  0.04099000  0.48850500  0.84706500  1
  O  O12  1  0.32776800  0.32776800  0.58124700  1
  O  O13  1  0.65692800  0.16213400  0.09723300  1
  O  O14  1  0.48695200  0.48695200  0.85710700  1
  O  O15  1  0.16213400  0.65692800  0.09723300  1
loop_
_geom_bond_atom_site_label_1
_geom_bond_atom_site_label_2
_geom_bond_distance
_geom_bond_site_symmetry_2
Li0 O2 1.935202 1_556
Li0 O14 1.955282 1_555
Li0 O11 2.013739 1_655
Li0 O10 2.013739 1_565
Li1 O4 1.817741 1_555
Li1 O8 2.012617 1_556
Li1 O13 2.086952 1_456
Li1 O15 2.086952 1_546
Li2 O3 1.827286 1_445
Li2 O5 2.005684 1_545
Li2 O0 2.005684 1_455
Li2 O9 2.123616 1_445
Li3 O12 1.895454 1_555
Li3 O7 1.978040 1_545
Li3 O6 1.978040 1_455
Li3 O1 2.034286 1_555
Nb0 O7 1.970571 1_555
Nb0 O6 1.970571 1_555
Nb0 O3 1.995279 1_555
Nb0 O2 2.010320 1_555
Nb0 O13 2.135250 1_565
Nb0 O15 2.135250 1_655
Nb1 O10 1.984589 1_555
Nb1 O12 2.081691 1_555
Nb1 O4 2.104163 1_655
Nb1 O14 2.111974 1_555
Nb1 O0 2.161270 1_555
Nb1 O9 2.201547 1_545
Nb2 O11 1.984589 1_555
Nb2 O12 2.081691 1_555
Nb2 O4 2.104163 1_565
Nb2 O14 2.111974 1_555
Nb2 O5 2.161270 1_555
Nb2 O9 2.201547 1_455
O0 Ti0 1.917411 1_555
O0 V2 2.163188 1_655
O1 Ti0 1.997008 1_555
O1 V0 2.056034 1_555
O1 V1 2.056034 1_555
O2 V1 2.038264 1_555
O2 V0 2.038264 1_555
O3 V0 2.046430 1_565
O3 V1 2.046430 1_655
O4 V2 2.023008 1_555
O5 Ti0 1.917411 1_555
O5 V2 2.163188 1_565
O6 V0 2.129787 1_555
O6 Ti0 2.188354 1_555
O7 V1 2.129787 1_555
O7 Ti0 2.188354 1_555
O8 Ti1 1.887152 1_555
O8 V0 2.163539 1_455
O8 V1 2.163539 1_545
O9 Ti0 2.055902 1_555
O10 Ti1 2.123579 1_556
O10 V2 2.128254 1_555
O11 Ti1 2.123579 1_556
O11 V2 2.128254 1_555
O12 V2 2.070795 1_555
O13 Ti1 1.965761 1_555
O13 V0 2.164998 1_555
O14 Ti1 2.185851 1_556
O15 Ti1 1.965761 1_555
O15 V1 2.164998 1_555
