# generated using pymatgen
data_K2LuPCO7
_symmetry_space_group_name_H-M   'P 1'
_cell_length_a   7.04147700
_cell_length_b   5.78686900
_cell_length_c   9.88935427
_cell_angle_alpha   88.38727773
_cell_angle_beta   90.00000000
_cell_angle_gamma   90.00000000
_symmetry_Int_Tables_number   1
_chemical_formula_structural   K2LuPCO7
_chemical_formula_sum   'K4 Lu2 P2 C2 O14'
_cell_volume   402.81282451
_cell_formula_units_Z   2
loop_
 _symmetry_equiv_pos_site_id
 _symmetry_equiv_pos_as_xyz
  1  'x, y, z'
loop_
 _atom_site_type_symbol
 _atom_site_label
 _atom_site_symmetry_multiplicity
 _atom_site_fract_x
 _atom_site_fract_y
 _atom_site_fract_z
 _atom_site_occupancy
  K  K0  1  0.48687600  0.24587700  0.77286300  1
  K  K1  1  0.01312400  0.24587700  0.77286300  1
  K  K2  1  0.51312400  0.75412300  0.22713700  1
  K  K3  1  0.98687600  0.75412300  0.22713700  1
  Lu  Lu0  1  0.75000000  0.77722300  0.63653000  1
  Lu  Lu1  1  0.25000000  0.22277700  0.36347000  1
  P  P0  1  0.25000000  0.71283800  0.56925900  1
  P  P1  1  0.75000000  0.28716200  0.43074100  1
  C  C0  1  0.75000000  0.72950100  0.90759500  1
  C  C1  1  0.25000000  0.27049900  0.09240500  1
  O  O0  1  0.25000000  0.29986000  0.96604400  1
  O  O1  1  0.75000000  0.93474300  0.84566400  1
  O  O2  1  0.75000000  0.55404200  0.82330200  1
  O  O3  1  0.06731900  0.76464700  0.65056900  1
  O  O4  1  0.43268100  0.76464700  0.65056900  1
  O  O5  1  0.75000000  0.13649100  0.56500700  1
  O  O6  1  0.25000000  0.45095700  0.53272800  1
  O  O7  1  0.75000000  0.54904300  0.46727200  1
  O  O8  1  0.25000000  0.86350900  0.43499300  1
  O  O9  1  0.56731900  0.23535300  0.34943100  1
  O  O10  1  0.93268100  0.23535300  0.34943100  1
  O  O11  1  0.25000000  0.44595800  0.17669800  1
  O  O12  1  0.25000000  0.06525700  0.15433600  1
  O  O13  1  0.75000000  0.70014000  0.03395600  1
loop_
_geom_bond_atom_site_label_1
_geom_bond_atom_site_label_2
_geom_bond_distance
_geom_bond_site_symmetry_2
K0 O0 2.561840 1_555
K0 O2 2.629045 1_555
K0 O1 2.668322 1_545
K0 O5 2.851678 1_555
K0 O4 3.090803 1_545
K0 O6 3.109896 1_555
K0 O4 3.227424 1_555
K1 O0 2.561840 1_555
K1 O2 2.629045 1_455
K1 O1 2.668322 1_445
K1 O5 2.851678 1_455
K1 O3 3.090803 1_545
K1 O6 3.109896 1_555
K1 O3 3.227424 1_555
K2 O13 2.561840 1_555
K2 O11 2.629045 1_555
K2 O12 2.668322 1_565
K2 O8 2.851678 1_555
K2 O9 3.090803 1_565
K2 O7 3.109896 1_555
K2 O9 3.227424 1_555
K3 O13 2.561840 1_555
K3 O11 2.629045 1_655
K3 O12 2.668322 1_665
K3 O8 2.851678 1_655
K3 O10 3.090803 1_565
K3 O7 3.109896 1_555
K3 O10 3.227424 1_555
Lu0 O7 2.160965 1_555
Lu0 O5 2.177135 1_565
Lu0 O2 2.223816 1_555
Lu0 O3 2.239759 1_655
Lu0 O4 2.239759 1_555
Lu0 O1 2.283525 1_555
Lu1 O6 2.160965 1_555
Lu1 O8 2.177135 1_545
Lu1 O11 2.223816 1_555
Lu1 O10 2.239759 1_455
Lu1 O9 2.239759 1_555
Lu1 O12 2.283525 1_555
C0 O13 1.256380 1_556
C0 O1 1.320913 1_555
C0 O2 1.331724 1_555
C1 O0 1.256380 1_554
C1 O12 1.320913 1_555
C1 O11 1.331724 1_555
O3 P0 1.550716 1_555
O4 P0 1.550716 1_555
O5 P1 1.567843 1_555
O6 P0 1.567796 1_555
O7 P1 1.567796 1_555
O8 P0 1.567843 1_555
O9 P1 1.550716 1_555
O10 P1 1.550716 1_555
