# generated using pymatgen
data_Li2CrO3
_symmetry_space_group_name_H-M   'P 1'
_cell_length_a   5.60645400
_cell_length_b   5.56004205
_cell_length_c   4.99164800
_cell_angle_alpha   89.99984106
_cell_angle_beta   89.99968475
_cell_angle_gamma   59.72364885
_symmetry_Int_Tables_number   1
_chemical_formula_structural   Li2CrO3
_chemical_formula_sum   'Li4 Cr2 O6'
_cell_volume   134.37695515
_cell_formula_units_Z   2
loop_
 _symmetry_equiv_pos_site_id
 _symmetry_equiv_pos_as_xyz
  1  'x, y, z'
loop_
 _atom_site_type_symbol
 _atom_site_label
 _atom_site_symmetry_multiplicity
 _atom_site_fract_x
 _atom_site_fract_y
 _atom_site_fract_z
 _atom_site_occupancy
  Li  Li0  1  0.83468200  0.65887600  0.52216800  1
  Li  Li1  1  0.50643600  0.65886800  0.02217800  1
  Li  Li2  1  0.49355500  0.34113400  0.52216900  1
  Li  Li3  1  0.16531000  0.34112600  0.02217600  1
  Cr  Cr0  1  0.82269200  0.00001100  0.01783300  1
  Cr  Cr1  1  0.17735800  0.99998900  0.51783800  1
  O  O0  1  0.82884200  0.69422000  0.92134200  1
  O  O1  1  0.47690100  0.69425100  0.42134300  1
  O  O2  1  0.52306600  0.30577000  0.92133400  1
  O  O3  1  0.17115700  0.30576000  0.42134700  1
  O  O4  1  0.86268100  0.99999400  0.39213200  1
  O  O5  1  0.13732000  0.00000200  0.89213600  1
loop_
_geom_bond_atom_site_label_1
_geom_bond_atom_site_label_2
_geom_bond_distance
_geom_bond_site_symmetry_2
Li0 O1 1.979327 1_555
Li0 O3 1.982925 1_655
Li0 O0 2.000851 1_555
Li0 O4 2.084075 1_555
Li1 O0 1.979263 1_554
Li1 O2 1.982883 1_554
Li1 O1 2.000823 1_555
Li1 O5 2.084127 1_564
Li2 O3 1.979276 1_555
Li2 O1 1.982899 1_555
Li2 O2 2.000814 1_555
Li2 O4 2.084159 1_545
Li3 O2 1.979251 1_554
Li3 O0 1.982864 1_454
Li3 O3 2.000845 1_555
Li3 O5 2.084090 1_554
Cr0 O2 1.750541 1_554
Cr0 O0 1.750652 1_544
Cr0 O5 1.872187 1_654
Cr0 O4 1.881768 1_545
Cr1 O1 1.750258 1_555
Cr1 O3 1.750409 1_565
Cr1 O4 1.872478 1_455
Cr1 O5 1.881794 1_565
