# generated using pymatgen
data_Li2VSi7O16
_symmetry_space_group_name_H-M   'P 1'
_cell_length_a   7.28205074
_cell_length_b   12.94347561
_cell_length_c   7.75067887
_cell_angle_alpha   86.36767842
_cell_angle_beta   75.44830494
_cell_angle_gamma   80.87344440
_symmetry_Int_Tables_number   1
_chemical_formula_structural   Li2VSi7O16
_chemical_formula_sum   'Li4 V2 Si14 O32'
_cell_volume   697.94302917
_cell_formula_units_Z   2
loop_
 _symmetry_equiv_pos_site_id
 _symmetry_equiv_pos_as_xyz
  1  'x, y, z'
loop_
 _atom_site_type_symbol
 _atom_site_label
 _atom_site_symmetry_multiplicity
 _atom_site_fract_x
 _atom_site_fract_y
 _atom_site_fract_z
 _atom_site_occupancy
  Li  Li0  1  0.44504600  0.19453200  0.96522700  1
  Li  Li1  1  0.94495200  0.69460900  0.46561200  1
  Li  Li2  1  0.92680800  0.35489700  0.80167200  1
  Li  Li3  1  0.42659500  0.85478000  0.30163500  1
  V  V0  1  0.45491200  0.68510000  0.53699300  1
  V  V1  1  0.95494700  0.18507600  0.03674900  1
  Si  Si0  1  0.05289100  0.10048000  0.65730000  1
  Si  Si1  1  0.55284200  0.60028800  0.15772900  1
  Si  Si2  1  0.29758300  0.41852800  0.21534700  1
  Si  Si3  1  0.79757400  0.91870300  0.71505800  1
  Si  Si4  1  0.62792000  0.09618900  0.25615200  1
  Si  Si5  1  0.12798200  0.59614800  0.75628500  1
  Si  Si6  1  0.23393400  0.06152100  0.26560100  1
  Si  Si7  1  0.73388600  0.56152300  0.76593600  1
  Si  Si8  1  0.86673700  0.41301800  0.22559600  1
  Si  Si9  1  0.36672600  0.91321800  0.72535300  1
  Si  Si10  1  0.55067700  0.29270500  0.46256400  1
  Si  Si11  1  0.05066600  0.79287800  0.96231800  1
  Si  Si12  1  0.45607000  0.40842900  0.80753900  1
  Si  Si13  1  0.95599300  0.90851600  0.30731200  1
  O  O0  1  0.65616500  0.16594700  0.07669500  1
  O  O1  1  0.15626600  0.66581100  0.57671400  1
  O  O2  1  0.87414000  0.03028300  0.70233900  1
  O  O3  1  0.37408600  0.53011900  0.20275300  1
  O  O4  1  0.22363400  0.13021000  0.08879700  1
  O  O5  1  0.72349300  0.63036300  0.58926100  1
  O  O6  1  0.23961500  0.02816900  0.70943400  1
  O  O7  1  0.73952400  0.52798100  0.20995200  1
  O  O8  1  0.59508200  0.16637900  0.43522000  1
  O  O9  1  0.09522100  0.66654200  0.93510100  1
  O  O10  1  0.37455500  0.36549500  0.01262700  1
  O  O11  1  0.87445800  0.86559100  0.51240100  1
  O  O12  1  0.99321800  0.20710700  0.76329500  1
  O  O13  1  0.49316400  0.70697100  0.26356600  1
  O  O14  1  0.45660200  0.02381900  0.28173100  1
  O  O15  1  0.95655800  0.52385100  0.78202500  1
  O  O16  1  0.06503200  0.43301600  0.27849500  1
  O  O17  1  0.56501500  0.93324500  0.77823600  1
  O  O18  1  0.47031400  0.30879500  0.68159600  1
  O  O19  1  0.97017600  0.80892800  0.18132800  1
  O  O20  1  0.91636200  0.34576100  0.04991300  1
  O  O21  1  0.41633500  0.84583100  0.54981500  1
  O  O22  1  0.10400200  0.12437800  0.44083100  1
  O  O23  1  0.60393700  0.62422000  0.94130300  1
  O  O24  1  0.32470400  0.51148400  0.74992700  1
  O  O25  1  0.82478900  0.01160900  0.24961900  1
  O  O26  1  0.38351400  0.34172700  0.36091300  1
  O  O27  1  0.88355100  0.84187900  0.86058800  1
  O  O28  1  0.74127100  0.34950700  0.39738000  1
  O  O29  1  0.24115900  0.84979300  0.89722000  1
  O  O30  1  0.66967500  0.44202000  0.77652000  1
  O  O31  1  0.16964000  0.94203500  0.27643100  1
loop_
_geom_bond_atom_site_label_1
_geom_bond_atom_site_label_2
_geom_bond_distance
_geom_bond_site_symmetry_2
Li0 O0 1.921805 1_556
Li0 O4 1.938781 1_556
Li0 O10 2.223307 1_556
Li0 O18 2.554400 1_555
Li1 O1 1.921354 1_655
Li1 O5 1.938683 1_555
Li1 O11 2.222745 1_555
Li1 O19 2.558885 1_555
Li2 O20 1.903199 1_556
Li2 O12 1.920401 1_555
Li2 O30 2.074000 1_555
Li2 O15 2.223503 1_555
Li3 O21 1.902995 1_555
Li3 O13 1.920335 1_555
Li3 O31 2.073702 1_555
Li3 O14 2.225004 1_565
O0 Si4 1.596314 1_555
O0 V1 2.171108 1_555
O1 Si5 1.596372 1_555
O1 V0 2.170884 1_555
O2 Si3 1.617463 1_545
O2 Si0 1.657836 1_655
O3 Si2 1.617461 1_555
O3 Si1 1.657629 1_555
O4 Si6 1.596892 1_555
O4 V1 2.101156 1_455
O5 Si7 1.597144 1_555
O5 V0 2.100835 1_555
O6 Si9 1.637984 1_545
O6 Si0 1.647001 1_555
O7 Si8 1.638098 1_555
O7 Si1 1.647023 1_555
O8 Si10 1.632411 1_555
O8 Si4 1.653147 1_555
O9 Si11 1.632404 1_555
O9 Si5 1.653130 1_555
O10 Si12 1.645140 1_554
O10 Si2 1.681112 1_555
O11 Si13 1.645132 1_555
O11 Si3 1.681087 1_555
O12 Si0 1.594524 1_655
O12 V1 2.074339 1_556
O13 Si1 1.594531 1_555
O13 V0 2.073955 1_555
O14 Si4 1.641956 1_555
O14 Si6 1.651086 1_555
O15 Si5 1.641812 1_655
O15 Si7 1.650964 1_555
O16 Si2 1.623845 1_555
O16 Si8 1.658236 1_455
O17 Si3 1.623890 1_555
O17 Si9 1.658251 1_555
O18 Si12 1.641006 1_555
O18 Si10 1.665758 1_555
O19 Si13 1.640815 1_555
O19 Si11 1.665599 1_654
O20 Si8 1.595520 1_555
O20 V1 2.059640 1_555
O21 Si9 1.595545 1_555
O21 V0 2.060024 1_555
O22 Si6 1.628436 1_555
O22 Si0 1.645032 1_555
O23 Si7 1.628285 1_555
O23 Si1 1.644785 1_556
O24 Si12 1.621157 1_555
O24 Si5 1.651921 1_555
O25 Si13 1.621117 1_545
O25 Si4 1.651958 1_555
O26 Si2 1.633398 1_555
O26 Si10 1.636673 1_555
O27 Si3 1.633494 1_555
O27 Si11 1.636721 1_655
O28 Si10 1.626770 1_555
O28 Si8 1.664800 1_555
O29 Si11 1.626933 1_555
O29 Si9 1.664930 1_555
O30 Si12 1.636992 1_555
O30 Si7 1.676901 1_555
O31 Si13 1.637022 1_455
O31 Si6 1.676788 1_565
