# generated using pymatgen
data_LiMn(PO3)4
_symmetry_space_group_name_H-M   'P 1'
_cell_length_a   7.32682544
_cell_length_b   7.32682544
_cell_length_c   9.88929240
_cell_angle_alpha   66.30961085
_cell_angle_beta   66.30961085
_cell_angle_gamma   67.91597999
_symmetry_Int_Tables_number   1
_chemical_formula_structural   LiMn(PO3)4
_chemical_formula_sum   'Li2 Mn2 P8 O24'
_cell_volume   430.36165630
_cell_formula_units_Z   2
loop_
 _symmetry_equiv_pos_site_id
 _symmetry_equiv_pos_as_xyz
  1  'x, y, z'
loop_
 _atom_site_type_symbol
 _atom_site_label
 _atom_site_symmetry_multiplicity
 _atom_site_fract_x
 _atom_site_fract_y
 _atom_site_fract_z
 _atom_site_occupancy
  Li  Li0  1  0.00000000  0.50000000  0.00000000  1
  Li  Li1  1  0.50000000  0.00000000  0.50000000  1
  Mn  Mn0  1  0.55385100  0.44614900  0.25000000  1
  Mn  Mn1  1  0.44614900  0.55385100  0.75000000  1
  P  P0  1  0.74847900  0.22975300  0.97867000  1
  P  P1  1  0.79234400  0.80838000  0.19864400  1
  P  P2  1  0.19162000  0.20765600  0.30135600  1
  P  P3  1  0.77024700  0.25152100  0.52133000  1
  P  P4  1  0.22975300  0.74847900  0.47867000  1
  P  P5  1  0.80838000  0.79234400  0.69864400  1
  P  P6  1  0.20765600  0.19162000  0.80135600  1
  P  P7  1  0.25152100  0.77024700  0.02133000  1
  O  O0  1  0.76552800  0.31072500  0.09214500  1
  O  O1  1  0.30908400  0.14938900  0.65104300  1
  O  O2  1  0.37711500  0.22176700  0.32272800  1
  O  O3  1  0.96389300  0.19907700  0.84928600  1
  O  O4  1  0.71656000  0.00338000  0.05931700  1
  O  O5  1  0.57981700  0.35196000  0.90358100  1
  O  O6  1  0.99662000  0.28344000  0.44068300  1
  O  O7  1  0.14938900  0.30908400  0.15104300  1
  O  O8  1  0.31072500  0.76552800  0.59214500  1
  O  O9  1  0.64804000  0.42018300  0.59641900  1
  O  O10  1  0.77823300  0.62288500  0.17727200  1
  O  O11  1  0.19907700  0.96389300  0.34928600  1
  O  O12  1  0.80092300  0.03610700  0.65071400  1
  O  O13  1  0.22176700  0.37711500  0.82272800  1
  O  O14  1  0.35196000  0.57981700  0.40358100  1
  O  O15  1  0.68927500  0.23447200  0.40785500  1
  O  O16  1  0.85061100  0.69091600  0.84895700  1
  O  O17  1  0.00338000  0.71656000  0.55931700  1
  O  O18  1  0.42018300  0.64804000  0.09641900  1
  O  O19  1  0.28344000  0.99662000  0.94068300  1
  O  O20  1  0.03610700  0.80092300  0.15071400  1
  O  O21  1  0.62288500  0.77823300  0.67727200  1
  O  O22  1  0.69091600  0.85061100  0.34895700  1
  O  O23  1  0.23447200  0.68927500  0.90785500  1
loop_
_geom_bond_atom_site_label_1
_geom_bond_atom_site_label_2
_geom_bond_distance
_geom_bond_site_symmetry_2
Li0 O7 1.967078 1_555
Li0 O16 1.967078 1_454
Li0 O13 2.098438 1_554
Li0 O10 2.098438 1_455
Li0 O23 2.285337 1_554
Li0 O0 2.285337 1_455
Li1 O22 1.967078 1_545
Li1 O1 1.967078 1_555
Li1 O2 2.098438 1_555
Li1 O21 2.098438 1_545
Li1 O15 2.285337 1_555
Li1 O8 2.285337 1_545
Mn0 O18 1.937686 1_555
Mn0 O14 1.937686 1_555
Mn0 O15 1.992196 1_555
Mn0 O0 1.992196 1_555
Mn0 O10 2.190665 1_555
Mn0 O2 2.190665 1_555
Mn1 O5 1.937686 1_555
Mn1 O9 1.937686 1_555
Mn1 O8 1.992196 1_555
Mn1 O23 1.992196 1_555
Mn1 O13 2.190665 1_555
Mn1 O21 2.190665 1_555
O0 P0 1.526512 1_554
O1 P6 1.471957 1_555
O2 P2 1.502175 1_555
O3 P0 1.587531 1_555
O3 P6 1.638486 1_655
O4 P0 1.587608 1_554
O4 P1 1.638412 1_545
O5 P0 1.500448 1_555
O6 P3 1.587608 1_555
O6 P2 1.638412 1_655
O7 P2 1.471957 1_555
O8 P4 1.526512 1_555
O9 P3 1.500448 1_555
O10 P1 1.502175 1_555
O11 P4 1.587531 1_555
O11 P2 1.638486 1_565
O12 P3 1.587531 1_555
O12 P5 1.638486 1_545
O13 P6 1.502175 1_555
O14 P4 1.500448 1_555
O15 P3 1.526512 1_555
O16 P5 1.471957 1_555
O17 P4 1.587608 1_555
O17 P5 1.638412 1_455
O18 P7 1.500448 1_555
O19 P7 1.587608 1_556
O19 P6 1.638412 1_565
O20 P7 1.587531 1_555
O20 P1 1.638486 1_455
O21 P5 1.502175 1_555
O22 P1 1.471957 1_555
O23 P7 1.526512 1_556
