# generated using pymatgen
data_Li2CoH8(CO5)2
_symmetry_space_group_name_H-M   'P 1'
_cell_length_a   5.98839600
_cell_length_b   6.16084400
_cell_length_c   12.07168996
_cell_angle_alpha   67.70595633
_cell_angle_beta   90.00000000
_cell_angle_gamma   90.00000000
_symmetry_Int_Tables_number   1
_chemical_formula_structural   Li2CoH8(CO5)2
_chemical_formula_sum   'Li4 Co2 H16 C4 O20'
_cell_volume   412.07616600
_cell_formula_units_Z   2
loop_
 _symmetry_equiv_pos_site_id
 _symmetry_equiv_pos_as_xyz
  1  'x, y, z'
loop_
 _atom_site_type_symbol
 _atom_site_label
 _atom_site_symmetry_multiplicity
 _atom_site_fract_x
 _atom_site_fract_y
 _atom_site_fract_z
 _atom_site_occupancy
  Li  Li0  1  0.25498600  0.80143900  0.81218300  1
  Li  Li1  1  0.75498600  0.19856100  0.68781700  1
  Li  Li2  1  0.24501400  0.80143900  0.31218300  1
  Li  Li3  1  0.74501400  0.19856100  0.18781700  1
  Co  Co0  1  0.00000000  0.00000000  0.00000000  1
  Co  Co1  1  0.50000000  0.00000000  0.50000000  1
  H  H0  1  0.67306800  0.33144100  0.93077100  1
  H  H1  1  0.68233300  0.77465000  0.98097100  1
  H  H2  1  0.90833000  0.45127700  0.89744800  1
  H  H3  1  0.83084400  0.80796000  0.86207900  1
  H  H4  1  0.40833000  0.54872300  0.60255200  1
  H  H5  1  0.33084400  0.19204000  0.63792100  1
  H  H6  1  0.17306800  0.66855900  0.56922900  1
  H  H7  1  0.18233300  0.22535000  0.51902900  1
  H  H8  1  0.81766700  0.77465000  0.48097100  1
  H  H9  1  0.82693200  0.33144100  0.43077100  1
  H  H10  1  0.66915600  0.80796000  0.36207900  1
  H  H11  1  0.59167000  0.45127700  0.39744800  1
  H  H12  1  0.16915600  0.19204000  0.13792100  1
  H  H13  1  0.09167000  0.54872300  0.10255200  1
  H  H14  1  0.31766700  0.22535000  0.01902900  1
  H  H15  1  0.32693200  0.66855900  0.06922900  1
  C  C0  1  0.36086500  0.26172300  0.81777400  1
  C  C1  1  0.86086500  0.73827700  0.68222600  1
  C  C2  1  0.13913500  0.26172300  0.31777400  1
  C  C3  1  0.63913500  0.73827700  0.18222600  1
  O  O0  1  0.83014900  0.31978400  0.96161000  1
  O  O1  1  0.40350800  0.38004400  0.88364700  1
  O  O2  1  0.75187300  0.89536100  0.90632600  1
  O  O3  1  0.20989700  0.09770500  0.84729500  1
  O  O4  1  0.97127000  0.69553400  0.78167600  1
  O  O5  1  0.47127000  0.30446600  0.71832400  1
  O  O6  1  0.70989700  0.90229500  0.65270500  1
  O  O7  1  0.90350800  0.61995600  0.61635300  1
  O  O8  1  0.33014900  0.68021600  0.53839000  1
  O  O9  1  0.25187300  0.10463900  0.59367400  1
  O  O10  1  0.74812700  0.89536100  0.40632600  1
  O  O11  1  0.66985100  0.31978400  0.46161000  1
  O  O12  1  0.09649200  0.38004400  0.38364700  1
  O  O13  1  0.29010300  0.09770500  0.34729500  1
  O  O14  1  0.52873000  0.69553400  0.28167600  1
  O  O15  1  0.02873000  0.30446600  0.21832400  1
  O  O16  1  0.79010300  0.90229500  0.15270500  1
  O  O17  1  0.24812700  0.10463900  0.09367400  1
  O  O18  1  0.59649200  0.61995600  0.11635300  1
  O  O19  1  0.16985100  0.68021600  0.03839000  1
loop_
_geom_bond_atom_site_label_1
_geom_bond_atom_site_label_2
_geom_bond_distance
_geom_bond_site_symmetry_2
Li0 O4 1.905323 1_455
Li0 O3 2.042323 1_565
Li0 O1 2.564369 1_555
Li1 O5 1.905323 1_555
Li1 O6 2.042323 1_545
Li1 O7 2.564369 1_555
Li2 O14 1.905323 1_555
Li2 O13 2.042323 1_565
Li2 O12 2.564369 1_555
Li3 O15 1.905323 1_655
Li3 O16 2.042323 1_545
Li3 O18 2.564369 1_555
Co0 O19 2.106668 1_545
Co0 O0 2.106668 1_454
Co0 O17 2.110747 1_555
Co0 O2 2.110747 1_444
Co0 O3 2.120968 1_554
Co0 O16 2.120968 1_445
Co1 O8 2.106668 1_545
Co1 O11 2.106668 1_555
Co1 O10 2.110747 1_545
Co1 O9 2.110747 1_555
Co1 O6 2.120968 1_545
Co1 O13 2.120968 1_555
H0 O0 1.004147 1_555
H0 O1 1.699934 1_555
H1 O2 1.014893 1_555
H1 O18 1.631472 1_556
H2 O0 0.999657 1_555
H2 O4 1.662557 1_555
H3 O2 1.008517 1_555
H3 O4 1.624512 1_555
H4 O8 0.999657 1_555
H4 O5 1.662557 1_555
H5 O9 1.008517 1_555
H5 O5 1.624512 1_555
H6 O8 1.004147 1_555
H6 O7 1.699934 1_455
H7 O9 1.014893 1_555
H7 O12 1.631472 1_555
H8 O10 1.014893 1_555
H8 O7 1.631472 1_555
H9 O11 1.004147 1_555
H9 O12 1.699934 1_655
H10 O10 1.008517 1_555
H10 O14 1.624512 1_555
H11 O11 0.999657 1_555
H11 O14 1.662557 1_555
H12 O17 1.008517 1_555
H12 O15 1.624512 1_555
H13 O19 0.999657 1_555
H13 O15 1.662557 1_555
H14 O17 1.014893 1_555
H14 O1 1.631472 1_554
H15 O19 1.004147 1_555
H15 O18 1.699934 1_555
C0 O1 1.291795 1_555
C0 O3 1.300840 1_555
C0 O5 1.306856 1_555
C1 O7 1.291795 1_555
C1 O6 1.300840 1_555
C1 O4 1.306856 1_555
C2 O12 1.291795 1_555
C2 O13 1.300840 1_555
C2 O15 1.306856 1_555
C3 O18 1.291795 1_555
C3 O16 1.300840 1_555
C3 O14 1.306856 1_555
