# generated using pymatgen
data_V2O3F
_symmetry_space_group_name_H-M   'P 1'
_cell_length_a   5.45627793
_cell_length_b   5.45627793
_cell_length_c   8.64621162
_cell_angle_alpha   86.96914869
_cell_angle_beta   86.96914869
_cell_angle_gamma   75.22705751
_symmetry_Int_Tables_number   1
_chemical_formula_structural   V2O3F
_chemical_formula_sum   'V8 O12 F4'
_cell_volume   248.34219396
_cell_formula_units_Z   4
loop_
 _symmetry_equiv_pos_site_id
 _symmetry_equiv_pos_as_xyz
  1  'x, y, z'
loop_
 _atom_site_type_symbol
 _atom_site_label
 _atom_site_symmetry_multiplicity
 _atom_site_fract_x
 _atom_site_fract_y
 _atom_site_fract_z
 _atom_site_occupancy
  V  V0  1  0.63309086  0.62239898  0.87572345  1
  V  V1  1  0.89471164  0.85974269  0.62577707  1
  V  V2  1  0.22693390  0.28055765  0.74698971  1
  V  V3  1  0.47960943  0.52039057  0.50000000  1
  V  V4  1  0.71944235  0.77306610  0.25301029  1
  V  V5  1  0.14025731  0.10528836  0.37422293  1
  V  V6  1  0.37760102  0.36690914  0.12427655  1
  V  V7  1  0.04058799  0.95941201  0.00000000  1
  O  O0  1  0.94752738  0.55958565  0.75000108  1
  O  O1  1  0.96782827  0.97477541  0.22595523  1
  O  O2  1  0.22523604  0.22382235  0.97170366  1
  O  O3  1  0.72451643  0.73275619  0.47533717  1
  O  O4  1  0.47619433  0.47324370  0.72803453  1
  O  O5  1  0.02522459  0.03217173  0.77404477  1
  O  O6  1  0.77617765  0.77476396  0.02829634  1
  O  O7  1  0.26724381  0.27548357  0.52466283  1
  O  O8  1  0.52675630  0.52380567  0.27196547  1
  O  O9  1  0.19859238  0.80140762  0.50000000  1
  O  O10  1  0.44041435  0.05247262  0.24999892  1
  O  O11  1  0.30799154  0.69200846  0.00000000  1
  F  F0  1  0.79800058  0.20199942  0.50000000  1
  F  F1  1  0.54879983  0.95150738  0.74939754  1
  F  F2  1  0.70876840  0.29123160  0.00000000  1
  F  F3  1  0.04849262  0.45120017  0.25060246  1
loop_
_geom_bond_atom_site_label_1
_geom_bond_atom_site_label_2
_geom_bond_distance
_geom_bond_site_symmetry_2
O0 V2 1.859848 1_655
O0 V1 1.877468 1_555
O0 V0 1.945472 1_555
O1 V5 1.897737 1_665
O1 V4 1.950041 1_555
O1 V7 1.974775 1_655
O2 V6 1.896516 1_556
O2 V2 1.951109 1_555
O2 V7 1.958094 1_546
O3 V1 1.893545 1_555
O3 V4 1.924093 1_555
O3 V3 1.976650 1_555
O4 V0 1.899099 1_555
O4 V2 1.915541 1_555
O4 V3 1.974536 1_555
O5 V1 1.897737 1_445
O5 V2 1.950041 1_555
O5 V7 1.974775 1_546
O6 V0 1.896516 1_554
O6 V4 1.951109 1_555
O6 V7 1.958094 1_655
O7 V5 1.893545 1_555
O7 V2 1.924093 1_555
O7 V3 1.976650 1_555
O8 V6 1.899099 1_555
O8 V4 1.915541 1_555
O8 V3 1.974536 1_555
O9 V3 1.871653 1_555
O9 V1 1.899973 1_455
O9 V5 1.899973 1_565
O10 V4 1.859848 1_545
O10 V5 1.877468 1_555
O10 V6 1.945472 1_555
O11 V7 1.780984 1_555
O11 V0 1.985787 1_554
O11 V6 1.985787 1_555
F0 V5 2.071676 1_655
F0 V1 2.071676 1_545
F0 V3 2.120576 1_555
F1 V0 2.013358 1_555
F1 V1 2.077669 1_555
F1 V2 2.167946 1_565
F2 V6 2.012767 1_555
F2 V0 2.012767 1_554
F2 V7 2.210013 1_645
F3 V6 2.013358 1_555
F3 V5 2.077669 1_555
F3 V4 2.167946 1_455
