# generated using pymatgen
data_Li2FeSiO5
_symmetry_space_group_name_H-M   'P 1'
_cell_length_a   4.54982900
_cell_length_b   9.07396900
_cell_length_c   9.15523200
_cell_angle_alpha   90.00000000
_cell_angle_beta   90.00000000
_cell_angle_gamma   90.00000000
_symmetry_Int_Tables_number   1
_chemical_formula_structural   Li2FeSiO5
_chemical_formula_sum   'Li8 Fe4 Si4 O20'
_cell_volume   377.97381997
_cell_formula_units_Z   4
loop_
 _symmetry_equiv_pos_site_id
 _symmetry_equiv_pos_as_xyz
  1  'x, y, z'
loop_
 _atom_site_type_symbol
 _atom_site_label
 _atom_site_symmetry_multiplicity
 _atom_site_fract_x
 _atom_site_fract_y
 _atom_site_fract_z
 _atom_site_occupancy
  Li  Li0  1  0.60783000  0.00000000  0.00036800  1
  Li  Li1  1  0.39217000  0.00000000  0.50036800  1
  Li  Li2  1  0.00252000  0.23782500  0.00110600  1
  Li  Li3  1  0.99748000  0.23782500  0.50110600  1
  Li  Li4  1  0.01331200  0.50000000  0.25728700  1
  Li  Li5  1  0.98668800  0.50000000  0.75728700  1
  Li  Li6  1  0.00252000  0.76217500  0.00110600  1
  Li  Li7  1  0.99748000  0.76217500  0.50110600  1
  Fe  Fe0  1  0.96649100  0.00000000  0.28065800  1
  Fe  Fe1  1  0.03350900  0.00000000  0.78065800  1
  Fe  Fe2  1  0.39953200  0.50000000  0.99803000  1
  Fe  Fe3  1  0.60046800  0.50000000  0.49803000  1
  Si  Si0  1  0.50121900  0.25068100  0.24898900  1
  Si  Si1  1  0.49878100  0.25068100  0.74898900  1
  Si  Si2  1  0.50121900  0.74931900  0.24898900  1
  Si  Si3  1  0.49878100  0.74931900  0.74898900  1
  O  O0  1  0.81243800  0.00000000  0.46417200  1
  O  O1  1  0.18756200  0.00000000  0.96417200  1
  O  O2  1  0.73825300  0.14907200  0.16046800  1
  O  O3  1  0.26174700  0.14907200  0.66046800  1
  O  O4  1  0.26235900  0.15344300  0.34064300  1
  O  O5  1  0.73764100  0.15344300  0.84064300  1
  O  O6  1  0.29320200  0.35372000  0.14201100  1
  O  O7  1  0.70679800  0.35372000  0.64201100  1
  O  O8  1  0.71105900  0.35446000  0.35433000  1
  O  O9  1  0.28894100  0.35446000  0.85433000  1
  O  O10  1  0.21450500  0.50000000  0.49345300  1
  O  O11  1  0.78549500  0.50000000  0.99345300  1
  O  O12  1  0.71105900  0.64554000  0.35433000  1
  O  O13  1  0.28894100  0.64554000  0.85433000  1
  O  O14  1  0.29320200  0.64628000  0.14201100  1
  O  O15  1  0.70679800  0.64628000  0.64201100  1
  O  O16  1  0.26235900  0.84655700  0.34064300  1
  O  O17  1  0.73764100  0.84655700  0.84064300  1
  O  O18  1  0.26174700  0.85092800  0.66046800  1
  O  O19  1  0.73825300  0.85092800  0.16046800  1
loop_
_geom_bond_atom_site_label_1
_geom_bond_atom_site_label_2
_geom_bond_distance
_geom_bond_site_symmetry_2
Li0 O1 1.940650 1_554
Li0 O19 2.080934 1_545
Li0 O2 2.080934 1_555
Li0 O5 2.103761 1_554
Li0 O17 2.103761 1_544
Li1 O0 1.940650 1_555
Li1 O3 2.080934 1_555
Li1 O18 2.080934 1_545
Li1 O16 2.103761 1_545
Li1 O4 2.103761 1_555
Li2 O5 2.048621 1_454
Li2 O2 2.054979 1_455
Li2 O6 2.125844 1_555
Li2 O9 2.150359 1_554
Li2 O1 2.340980 1_554
Li2 O11 2.576705 1_454
Li3 O4 2.048621 1_655
Li3 O3 2.054979 1_655
Li3 O7 2.125844 1_555
Li3 O8 2.150359 1_555
Li3 O0 2.340980 1_555
Li3 O10 2.576705 1_655
Li4 O12 2.103466 1_455
Li4 O8 2.103466 1_455
Li4 O14 2.120692 1_555
Li4 O6 2.120692 1_555
Li4 O10 2.347948 1_555
Li4 O11 2.628468 1_454
Li5 O13 2.103466 1_655
Li5 O9 2.103466 1_655
Li5 O15 2.120692 1_555
Li5 O7 2.120692 1_555
Li5 O11 2.347948 1_555
Li5 O10 2.628468 1_655
Li6 O17 2.048621 1_454
Li6 O19 2.054979 1_455
Li6 O14 2.125844 1_555
Li6 O13 2.150359 1_554
Li6 O1 2.340980 1_564
Li6 O11 2.576705 1_454
Li7 O16 2.048621 1_655
Li7 O18 2.054979 1_655
Li7 O15 2.125844 1_555
Li7 O12 2.150359 1_555
Li7 O0 2.340980 1_565
Li7 O10 2.576705 1_655
Fe0 O0 1.820457 1_555
Fe0 O4 2.013036 1_655
Fe0 O16 2.013036 1_645
Fe0 O19 2.029508 1_545
Fe0 O2 2.029508 1_555
Fe1 O1 1.820457 1_555
Fe1 O5 2.013036 1_455
Fe1 O17 2.013036 1_445
Fe1 O18 2.029508 1_545
Fe1 O3 2.029508 1_555
Fe2 O11 1.756566 1_555
Fe2 O9 1.930817 1_555
Fe2 O13 1.930817 1_555
Fe2 O14 1.932220 1_556
Fe2 O6 1.932220 1_556
Fe3 O10 1.756566 1_555
Fe3 O12 1.930817 1_555
Fe3 O8 1.930817 1_555
Fe3 O15 1.932220 1_555
Fe3 O7 1.932220 1_555
O2 Si0 1.634001 1_555
O3 Si1 1.634001 1_555
O4 Si0 1.632084 1_555
O5 Si1 1.632084 1_555
O6 Si0 1.652019 1_555
O7 Si1 1.652019 1_555
O8 Si0 1.651788 1_555
O9 Si1 1.651788 1_555
O12 Si2 1.651788 1_555
O13 Si3 1.651788 1_555
O14 Si2 1.652019 1_555
O15 Si3 1.652019 1_555
O16 Si2 1.632084 1_555
O17 Si3 1.632084 1_555
O18 Si3 1.634001 1_555
O19 Si2 1.634001 1_555
