# generated using pymatgen
data_Li3Sb(PO4)2
_symmetry_space_group_name_H-M   'P 1'
_cell_length_a   8.74681389
_cell_length_b   8.74681389
_cell_length_c   7.22990000
_cell_angle_alpha   90.00000000
_cell_angle_beta   90.00000000
_cell_angle_gamma   119.99999917
_symmetry_Int_Tables_number   1
_chemical_formula_structural   Li3Sb(PO4)2
_chemical_formula_sum   'Li9 Sb3 P6 O24'
_cell_volume   479.02998350
_cell_formula_units_Z   3
loop_
 _symmetry_equiv_pos_site_id
 _symmetry_equiv_pos_as_xyz
  1  'x, y, z'
loop_
 _atom_site_type_symbol
 _atom_site_label
 _atom_site_symmetry_multiplicity
 _atom_site_fract_x
 _atom_site_fract_y
 _atom_site_fract_z
 _atom_site_occupancy
  Li  Li0  1  0.36469700  0.05186200  0.15832900  1
  Li  Li1  1  0.94813800  0.31283600  0.15832900  1
  Li  Li2  1  0.00000000  0.00000000  0.00000000  1
  Li  Li3  1  0.33333300  0.66666700  0.02421800  1
  Li  Li4  1  0.31283600  0.36469700  0.84167100  1
  Li  Li5  1  0.68716400  0.63530300  0.15832900  1
  Li  Li6  1  0.66666700  0.33333300  0.97578200  1
  Li  Li7  1  0.05186200  0.68716400  0.84167100  1
  Li  Li8  1  0.63530300  0.94813800  0.84167100  1
  Sb  Sb0  1  0.00000000  0.00000000  0.50000000  1
  Sb  Sb1  1  0.33333300  0.66666700  0.54549100  1
  Sb  Sb2  1  0.66666700  0.33333300  0.45450900  1
  P  P0  1  0.02482900  0.68879200  0.25736000  1
  P  P1  1  0.31120800  0.33603700  0.25736000  1
  P  P2  1  0.66396300  0.97517100  0.25736000  1
  P  P3  1  0.33603700  0.02482900  0.74264000  1
  P  P4  1  0.68879200  0.66396300  0.74264000  1
  P  P5  1  0.97517100  0.31120800  0.74264000  1
  O  O0  1  0.13181500  0.92894900  0.76682200  1
  O  O1  1  0.15626600  0.72978900  0.09715700  1
  O  O2  1  0.11890700  0.73484800  0.44664000  1
  O  O3  1  0.39391300  0.87844600  0.75476800  1
  O  O4  1  0.12155400  0.51546700  0.75476800  1
  O  O5  1  0.07105100  0.20286600  0.76682200  1
  O  O6  1  0.61594200  0.88109300  0.44664000  1
  O  O7  1  0.20286600  0.13181500  0.23317800  1
  O  O8  1  0.26515200  0.38405800  0.44664000  1
  O  O9  1  0.27021100  0.42647700  0.09715700  1
  O  O10  1  0.57352300  0.84373400  0.09715700  1
  O  O11  1  0.48453300  0.60608700  0.75476800  1
  O  O12  1  0.51546700  0.39391300  0.24523200  1
  O  O13  1  0.42647700  0.15626600  0.90284300  1
  O  O14  1  0.72978900  0.57352300  0.90284300  1
  O  O15  1  0.73484800  0.61594200  0.55336000  1
  O  O16  1  0.79713400  0.86818500  0.76682200  1
  O  O17  1  0.38405800  0.11890700  0.55336000  1
  O  O18  1  0.92894900  0.79713400  0.23317800  1
  O  O19  1  0.87844600  0.48453300  0.24523200  1
  O  O20  1  0.60608700  0.12155400  0.24523200  1
  O  O21  1  0.88109300  0.26515200  0.55336000  1
  O  O22  1  0.84373400  0.27021100  0.90284300  1
  O  O23  1  0.86818500  0.07105100  0.23317800  1
loop_
_geom_bond_atom_site_label_1
_geom_bond_atom_site_label_2
_geom_bond_distance
_geom_bond_site_symmetry_2
Li0 O7 1.943059 1_555
Li0 O20 1.984254 1_555
Li0 O13 2.011067 1_554
Li0 O1 2.513871 1_545
Li1 O23 1.943067 1_555
Li1 O19 1.984246 1_555
Li1 O22 2.011067 1_554
Li1 O9 2.513872 1_655
Li2 O23 2.296558 1_455
Li2 O0 2.296558 1_544
Li2 O18 2.296558 1_445
Li2 O5 2.296558 1_554
Li2 O16 2.296558 1_444
Li2 O7 2.296558 1_555
Li3 O1 1.958754 1_555
Li3 O10 1.958760 1_555
Li3 O9 1.958763 1_555
Li4 O5 1.943066 1_555
Li4 O11 1.984252 1_555
Li4 O9 2.011070 1_556
Li4 O13 2.513864 1_555
Li5 O18 1.943066 1_555
Li5 O12 1.984252 1_555
Li5 O14 2.011070 1_554
Li5 O10 2.513864 1_555
Li6 O22 1.958754 1_555
Li6 O13 1.958760 1_555
Li6 O14 1.958763 1_555
Li7 O0 1.943067 1_555
Li7 O4 1.984246 1_555
Li7 O1 2.011067 1_556
Li7 O14 2.513872 1_455
Li8 O16 1.943059 1_555
Li8 O3 1.984254 1_555
Li8 O10 2.011067 1_556
Li8 O22 2.513871 1_565
O0 P3 1.557776 1_565
O0 Sb0 2.480623 1_565
O1 P0 1.542590 1_555
O2 P0 1.542936 1_555
O2 Sb1 2.345763 1_555
O3 P3 1.597346 1_565
O3 Sb1 2.240515 1_555
O4 P5 1.597346 1_455
O4 Sb1 2.240516 1_555
O5 P5 1.557776 1_455
O5 Sb0 2.480623 1_555
O6 P2 1.542936 1_555
O6 Sb1 2.345774 1_555
O7 P1 1.557776 1_555
O7 Sb0 2.480623 1_555
O8 P1 1.542932 1_555
O8 Sb1 2.345779 1_555
O9 P1 1.542590 1_555
O10 P2 1.542590 1_555
O11 P4 1.597346 1_555
O11 Sb1 2.240521 1_555
O12 P1 1.597346 1_555
O12 Sb2 2.240521 1_555
O13 P3 1.542590 1_555
O14 P4 1.542590 1_555
O15 P4 1.542932 1_555
O15 Sb2 2.345779 1_555
O16 P4 1.557776 1_555
O16 Sb0 2.480623 1_665
O17 P3 1.542936 1_555
O17 Sb2 2.345774 1_555
O18 P0 1.557776 1_655
O18 Sb0 2.480623 1_665
O19 P0 1.597346 1_655
O19 Sb2 2.240516 1_555
O20 P2 1.597346 1_545
O20 Sb2 2.240515 1_555
O21 P5 1.542936 1_555
O21 Sb2 2.345763 1_555
O22 P5 1.542590 1_555
O23 P2 1.557776 1_545
O23 Sb0 2.480623 1_655
