# generated using pymatgen
data_LiFe4(BO3)4
_symmetry_space_group_name_H-M   'P 1'
_cell_length_a   5.20461700
_cell_length_b   9.22328723
_cell_length_c   10.20200418
_cell_angle_alpha   90.78782739
_cell_angle_beta   90.62063379
_cell_angle_gamma   90.56675575
_symmetry_Int_Tables_number   1
_chemical_formula_structural   LiFe4(BO3)4
_chemical_formula_sum   'Li2 Fe8 B8 O24'
_cell_volume   489.63400471
_cell_formula_units_Z   2
loop_
 _symmetry_equiv_pos_site_id
 _symmetry_equiv_pos_as_xyz
  1  'x, y, z'
loop_
 _atom_site_type_symbol
 _atom_site_label
 _atom_site_symmetry_multiplicity
 _atom_site_fract_x
 _atom_site_fract_y
 _atom_site_fract_z
 _atom_site_occupancy
  Li  Li0  1  0.84212200  0.17632700  0.34860200  1
  Li  Li1  1  0.65748400  0.32842900  0.63152100  1
  Fe  Fe0  1  0.83647200  0.83100100  0.37214400  1
  Fe  Fe1  1  0.83000900  0.50854100  0.87113300  1
  Fe  Fe2  1  0.67573000  0.98950300  0.12067400  1
  Fe  Fe3  1  0.67120000  0.67006600  0.62207100  1
  Fe  Fe4  1  0.33241000  0.34439900  0.37405600  1
  Fe  Fe5  1  0.33722700  0.00618300  0.86769300  1
  Fe  Fe6  1  0.16190400  0.15256500  0.61795900  1
  Fe  Fe7  1  0.16494500  0.49290700  0.12460200  1
  B  B0  1  0.84331000  0.49856800  0.37893500  1
  B  B1  1  0.84048400  0.83385500  0.87201600  1
  B  B2  1  0.65303300  0.00091700  0.61546000  1
  B  B3  1  0.66420200  0.66424400  0.12331200  1
  B  B4  1  0.32964800  0.00342400  0.36565200  1
  B  B5  1  0.32249200  0.33322300  0.86630200  1
  B  B6  1  0.17532900  0.49414000  0.62669500  1
  B  B7  1  0.18382800  0.16634800  0.12517400  1
  O  O0  1  0.91252800  0.50008500  0.66604700  1
  O  O1  1  0.93081300  0.13505500  0.15034200  1
  O  O2  1  0.77663700  0.79257200  0.17528200  1
  O  O3  1  0.75406000  0.86952600  0.56621700  1
  O  O4  1  0.77823700  0.12981000  0.59938300  1
  O  O5  1  0.82633300  0.56334700  0.06352400  1
  O  O6  1  0.71487000  0.37123500  0.39870400  1
  O  O7  1  0.67528200  0.93503300  0.92883000  1
  O  O8  1  0.75111900  0.63191100  0.42810000  1
  O  O9  1  0.72978800  0.70610800  0.81849000  1
  O  O10  1  0.57414000  0.36505900  0.83888500  1
  O  O11  1  0.59336500  0.00113900  0.32648700  1
  O  O12  1  0.41644600  0.99442300  0.67647700  1
  O  O13  1  0.41183200  0.64042200  0.13070800  1
  O  O14  1  0.29309800  0.29878900  0.16109400  1
  O  O15  1  0.27157000  0.36349500  0.58410800  1
  O  O16  1  0.32614500  0.61601200  0.63187200  1
  O  O17  1  0.34137700  0.06175700  0.06807900  1
  O  O18  1  0.16616500  0.43834800  0.92472100  1
  O  O19  1  0.18558000  0.87891100  0.36227800  1
  O  O20  1  0.22496900  0.13313300  0.40625200  1
  O  O21  1  0.21261300  0.20075100  0.83198000  1
  O  O22  1  0.09316800  0.85722000  0.86953600  1
  O  O23  1  0.07626700  0.50054800  0.31467500  1
loop_
_geom_bond_atom_site_label_1
_geom_bond_atom_site_label_2
_geom_bond_distance
_geom_bond_site_symmetry_2
Li0 O6 1.984243 1_555
Li0 O11 2.068868 1_555
Li0 O1 2.109887 1_555
Li0 O20 2.114647 1_655
Li1 O4 1.967011 1_555
Li1 O0 2.079822 1_555
Li1 O15 2.090190 1_555
Li1 O10 2.186524 1_555
Li1 O6 2.434231 1_555
Fe0 O19 1.869783 1_655
Fe0 O8 1.978200 1_555
Fe0 O2 2.054488 1_555
Fe0 O3 2.057288 1_555
Fe0 O11 2.080143 1_565
Fe1 O10 1.891205 1_555
Fe1 O18 1.946900 1_655
Fe1 O9 1.980060 1_555
Fe1 O5 2.020418 1_556
Fe1 O0 2.140992 1_555
Fe2 O1 1.897693 1_565
Fe2 O17 1.942369 1_565
Fe2 O2 1.981333 1_555
Fe2 O7 2.013913 1_554
Fe2 O11 2.149013 1_565
Fe3 O16 1.863139 1_555
Fe3 O3 1.978268 1_555
Fe3 O9 2.045828 1_555
Fe3 O8 2.052913 1_555
Fe3 O0 2.069518 1_555
Fe4 O6 2.016064 1_555
Fe4 O20 2.053660 1_555
Fe4 O23 2.064680 1_555
Fe4 O15 2.174615 1_555
Fe4 O14 2.214210 1_555
Fe5 O22 1.862318 1_545
Fe5 O21 1.951847 1_555
Fe5 O7 1.981325 1_545
Fe5 O12 1.999955 1_545
Fe5 O17 2.100602 1_556
Fe6 O4 2.012399 1_455
Fe6 O15 2.056859 1_555
Fe6 O12 2.069785 1_545
Fe6 O20 2.193313 1_555
Fe6 O21 2.234527 1_555
Fe7 O13 1.862120 1_555
Fe7 O14 1.955915 1_555
Fe7 O5 1.981471 1_455
Fe7 O23 1.998615 1_555
Fe7 O18 2.093722 1_554
B0 O6 1.364085 1_555
B0 O23 1.384655 1_655
B0 O8 1.412194 1_555
B1 O22 1.331125 1_655
B1 O7 1.399243 1_555
B1 O9 1.407284 1_555
B2 O4 1.362781 1_555
B2 O12 1.386892 1_545
B2 O3 1.413874 1_545
B3 O13 1.332710 1_555
B3 O5 1.400426 1_555
B3 O2 1.409535 1_555
B4 O19 1.365137 1_545
B4 O20 1.379775 1_555
B4 O11 1.433945 1_555
B5 O10 1.372020 1_555
B5 O21 1.382963 1_555
B5 O18 1.402686 1_555
B6 O16 1.364715 1_555
B6 O15 1.376187 1_555
B6 O0 1.431005 1_455
B7 O1 1.373011 1_455
B7 O14 1.385393 1_555
B7 O17 1.397425 1_555
