# generated using pymatgen
data_Li2Fe(PO4)2
_symmetry_space_group_name_H-M   'P 1'
_cell_length_a   8.32347752
_cell_length_b   10.72689284
_cell_length_c   8.26457119
_cell_angle_alpha   88.75301623
_cell_angle_beta   103.79645287
_cell_angle_gamma   89.65232686
_symmetry_Int_Tables_number   1
_chemical_formula_structural   Li2Fe(PO4)2
_chemical_formula_sum   'Li8 Fe4 P8 O32'
_cell_volume   716.39559291
_cell_formula_units_Z   4
loop_
 _symmetry_equiv_pos_site_id
 _symmetry_equiv_pos_as_xyz
  1  'x, y, z'
loop_
 _atom_site_type_symbol
 _atom_site_label
 _atom_site_symmetry_multiplicity
 _atom_site_fract_x
 _atom_site_fract_y
 _atom_site_fract_z
 _atom_site_occupancy
  Li  Li0  1  0.22214800  0.44532100  0.45098400  1
  Li  Li1  1  0.29352100  0.91817900  0.55231200  1
  Li  Li2  1  0.39960700  0.17263200  0.39149000  1
  Li  Li3  1  0.72163200  0.07212800  0.46101700  1
  Li  Li4  1  0.84768600  0.65799400  0.84456600  1
  Li  Li5  1  0.78084000  0.56537100  0.52923600  1
  Li  Li6  1  0.83946700  0.83884000  0.36170200  1
  Li  Li7  1  0.90868500  0.32579800  0.39213700  1
  Fe  Fe0  1  0.09814600  0.84027600  0.10000900  1
  Fe  Fe1  1  0.40979600  0.33638900  0.90833200  1
  Fe  Fe2  1  0.58494900  0.66438600  0.09761900  1
  Fe  Fe3  1  0.91141800  0.16048200  0.90764100  1
  P  P0  1  0.04144500  0.40804600  0.76236400  1
  P  P1  1  0.03266800  0.08067900  0.28891600  1
  P  P2  1  0.47700600  0.58477500  0.72138200  1
  P  P3  1  0.54219000  0.09439200  0.76677600  1
  P  P4  1  0.45462700  0.90780000  0.23692600  1
  P  P5  1  0.53067800  0.41434300  0.28452600  1
  P  P6  1  0.97422800  0.91472800  0.71918200  1
  P  P7  1  0.94507400  0.59753800  0.22779100  1
  O  O0  1  0.00185800  0.05190700  0.77656000  1
  O  O1  1  0.08424200  0.36373000  0.60187300  1
  O  O2  1  0.19993300  0.40167800  0.90959700  1
  O  O3  1  0.00695300  0.46449300  0.27450200  1
  O  O4  1  0.12303200  0.87013400  0.65689300  1
  O  O5  1  0.04437300  0.15388800  0.12587100  1
  O  O6  1  0.08556200  0.67587200  0.17806100  1
  O  O7  1  0.20096800  0.08282100  0.41199300  1
  O  O8  1  0.32216700  0.59791300  0.57798200  1
  O  O9  1  0.40967200  0.17754000  0.81660600  1
  O  O10  1  0.45567300  0.65786300  0.87674300  1
  O  O11  1  0.39275400  0.35938100  0.35901700  1
  O  O12  1  0.47569200  0.96179400  0.73627900  1
  O  O13  1  0.30407000  0.90574200  0.08007400  1
  O  O14  1  0.39548500  0.84975500  0.38381300  1
  O  O15  1  0.50223300  0.44267900  0.77118400  1
  O  O16  1  0.49276400  0.55434700  0.23083300  1
  O  O17  1  0.58109100  0.14195200  0.60235600  1
  O  O18  1  0.70175300  0.09730200  0.91132800  1
  O  O19  1  0.51887200  0.03932000  0.28140100  1
  O  O20  1  0.63400100  0.62697000  0.66952700  1
  O  O21  1  0.54108900  0.33878500  0.12749900  1
  O  O22  1  0.59827600  0.82709800  0.19557000  1
  O  O23  1  0.70003500  0.40601600  0.41032400  1
  O  O24  1  0.81954500  0.90516400  0.57549700  1
  O  O25  1  0.91141300  0.31956000  0.81250900  1
  O  O26  1  0.95622700  0.83239400  0.87548400  1
  O  O27  1  0.89488400  0.13754300  0.35837300  1
  O  O28  1  0.96375400  0.53868000  0.73743300  1
  O  O29  1  0.79530600  0.60457800  0.06492700  1
  O  O30  1  0.87805300  0.66022200  0.36412300  1
  O  O31  1  0.98914000  0.93962900  0.23737200  1
loop_
_geom_bond_atom_site_label_1
_geom_bond_atom_site_label_2
_geom_bond_distance
_geom_bond_site_symmetry_2
Li0 O11 1.993348 1_555
Li0 O3 2.028397 1_555
Li0 O8 2.036785 1_555
Li0 O1 2.070283 1_555
Li1 O4 1.897594 1_555
Li1 O12 1.941573 1_555
Li1 O14 1.949071 1_555
Li1 O7 2.127360 1_565
Li2 O7 1.958650 1_555
Li2 O11 2.013988 1_555
Li2 O17 2.034860 1_555
Li2 O19 2.080481 1_555
Li3 O27 1.965037 1_555
Li3 O17 1.993248 1_555
Li3 O19 2.002683 1_555
Li3 O24 2.075528 1_545
Li4 O28 1.948751 1_555
Li4 O20 2.041534 1_555
Li4 O29 2.042410 1_556
Li4 O26 2.076653 1_555
Li5 O20 1.993525 1_555
Li5 O30 2.007045 1_555
Li5 O28 2.020993 1_555
Li5 O23 2.027803 1_555
Li6 O30 1.939708 1_555
Li6 O24 1.961811 1_555
Li6 O31 2.086928 1_555
Li6 O22 2.151097 1_555
Li7 O23 1.972596 1_555
Li7 O1 2.033533 1_655
Li7 O3 2.039294 1_655
Li7 O27 2.044763 1_555
Fe0 O6 1.876732 1_555
Fe0 O13 1.897988 1_555
Fe0 O31 1.944223 1_455
Fe0 O26 1.951508 1_454
Fe1 O9 1.879898 1_555
Fe1 O21 1.879912 1_556
Fe1 O2 1.880440 1_555
Fe1 O15 1.883356 1_555
Fe2 O16 1.884537 1_555
Fe2 O10 1.888020 1_554
Fe2 O22 1.932628 1_555
Fe2 O29 1.941594 1_555
Fe3 O25 1.863219 1_555
Fe3 O5 1.877262 1_656
Fe3 O0 1.878819 1_655
Fe3 O18 1.882705 1_555
O0 P6 1.557417 1_445
O1 P0 1.537179 1_555
O2 P0 1.566915 1_555
O3 P7 1.524256 1_455
O4 P6 1.528238 1_455
O5 P1 1.568257 1_555
O6 P7 1.571140 1_455
O7 P1 1.522938 1_555
O8 P2 1.532140 1_555
O9 P3 1.549984 1_555
O10 P2 1.563872 1_555
O11 P5 1.540787 1_555
O12 P3 1.533501 1_565
O13 P4 1.574202 1_555
O14 P4 1.536081 1_555
O15 P2 1.569848 1_555
O16 P5 1.565369 1_555
O17 P3 1.547029 1_555
O18 P3 1.561239 1_555
O19 P4 1.532773 1_545
O20 P2 1.536862 1_555
O21 P5 1.564344 1_555
O22 P4 1.578307 1_555
O23 P5 1.539937 1_555
O24 P6 1.534936 1_555
O25 P0 1.566328 1_655
O26 P6 1.586001 1_555
O27 P1 1.528909 1_655
O28 P0 1.528772 1_655
O29 P7 1.601739 1_555
O30 P7 1.536566 1_555
O31 P1 1.600962 1_665
