# generated using pymatgen
data_Li2Fe3WO8
_symmetry_space_group_name_H-M   'P 1'
_cell_length_a   6.05081466
_cell_length_b   6.05081466
_cell_length_c   9.78105000
_cell_angle_alpha   90.00000000
_cell_angle_beta   90.00000000
_cell_angle_gamma   120.04712708
_symmetry_Int_Tables_number   1
_chemical_formula_structural   Li2Fe3WO8
_chemical_formula_sum   'Li4 Fe6 W2 O16'
_cell_volume   309.98264270
_cell_formula_units_Z   2
loop_
 _symmetry_equiv_pos_site_id
 _symmetry_equiv_pos_as_xyz
  1  'x, y, z'
loop_
 _atom_site_type_symbol
 _atom_site_label
 _atom_site_symmetry_multiplicity
 _atom_site_fract_x
 _atom_site_fract_y
 _atom_site_fract_z
 _atom_site_occupancy
  Li  Li0  1  0.66820800  0.33179200  0.09087900  1
  Li  Li1  1  0.99737400  0.00262600  0.01294000  1
  Li  Li2  1  0.00262600  0.99737400  0.51294000  1
  Li  Li3  1  0.33179200  0.66820800  0.59087900  1
  Fe  Fe0  1  0.34431300  0.17293700  0.78440500  1
  Fe  Fe1  1  0.82706300  0.65568700  0.78440500  1
  Fe  Fe2  1  0.83177900  0.16822100  0.78824100  1
  Fe  Fe3  1  0.16822100  0.83177900  0.28824100  1
  Fe  Fe4  1  0.17293700  0.34431300  0.28440500  1
  Fe  Fe5  1  0.65568700  0.82706300  0.28440500  1
  W  W0  1  0.66524900  0.33475100  0.51281400  1
  W  W1  1  0.33475100  0.66524900  0.01281400  1
  O  O0  1  0.34578800  0.19148600  0.41355600  1
  O  O1  1  0.51818600  0.48181400  0.65504600  1
  O  O2  1  0.66369400  0.33630600  0.88951500  1
  O  O3  1  0.00470200  0.99529800  0.70170300  1
  O  O4  1  0.99529800  0.00470200  0.20170300  1
  O  O5  1  0.80851400  0.65421200  0.41355600  1
  O  O6  1  0.50528000  0.04399400  0.64375200  1
  O  O7  1  0.95600600  0.49472000  0.64375200  1
  O  O8  1  0.17594700  0.82405300  0.91065300  1
  O  O9  1  0.82405300  0.17594700  0.41065300  1
  O  O10  1  0.04399400  0.50528000  0.14375200  1
  O  O11  1  0.49472000  0.95600600  0.14375200  1
  O  O12  1  0.33630600  0.66369400  0.38951500  1
  O  O13  1  0.19148600  0.34578800  0.91355600  1
  O  O14  1  0.48181400  0.51818600  0.15504600  1
  O  O15  1  0.65421200  0.80851400  0.91355600  1
loop_
_geom_bond_atom_site_label_1
_geom_bond_atom_site_label_2
_geom_bond_distance
_geom_bond_site_symmetry_2
Li0 O2 1.970120 1_554
Li0 O11 2.036985 1_545
Li0 O10 2.036985 1_655
Li0 O14 2.052257 1_555
Li1 O4 1.846429 1_555
Li1 O15 2.047843 1_544
Li1 O13 2.047843 1_654
Li1 O8 2.122529 1_644
Li2 O3 1.846429 1_555
Li2 O0 2.047843 1_565
Li2 O5 2.047843 1_455
Li2 O9 2.122529 1_465
Li3 O12 1.970120 1_555
Li3 O7 2.036985 1_455
Li3 O6 2.036985 1_565
Li3 O1 2.052257 1_555
Fe0 O3 1.954603 1_545
Fe0 O2 1.963593 1_555
Fe0 O6 2.052073 1_555
Fe0 O1 2.057105 1_555
Fe0 O13 2.124454 1_555
Fe0 O8 2.205778 1_545
Fe1 O3 1.954603 1_655
Fe1 O2 1.963593 1_555
Fe1 O7 2.052073 1_555
Fe1 O1 2.057105 1_555
Fe1 O15 2.124454 1_555
Fe1 O8 2.205778 1_655
Fe2 O3 2.000599 1_645
Fe2 O2 2.021354 1_555
Fe2 O7 2.231171 1_555
Fe2 O6 2.231171 1_555
Fe2 O13 2.247701 1_655
Fe2 O15 2.247701 1_545
Fe3 O4 2.000599 1_465
Fe3 O12 2.021354 1_555
Fe3 O11 2.231171 1_555
Fe3 O10 2.231171 1_555
Fe3 O0 2.247701 1_565
Fe3 O5 2.247701 1_455
Fe4 O4 1.954603 1_455
Fe4 O12 1.963593 1_555
Fe4 O10 2.052073 1_555
Fe4 O14 2.057105 1_555
Fe4 O0 2.124454 1_555
Fe4 O9 2.205778 1_455
Fe5 O4 1.954603 1_565
Fe5 O12 1.963593 1_555
Fe5 O11 2.052073 1_555
Fe5 O14 2.057105 1_555
Fe5 O5 2.124454 1_555
Fe5 O9 2.205778 1_565
O0 W0 1.937124 1_555
O1 W0 2.076538 1_555
O5 W0 1.937124 1_555
O6 W0 1.991729 1_555
O7 W0 1.991729 1_555
O8 W1 1.941584 1_556
O9 W0 1.941584 1_555
O10 W1 1.991729 1_555
O11 W1 1.991729 1_555
O13 W1 1.937124 1_556
O14 W1 2.076538 1_555
O15 W1 1.937124 1_556
