# generated using pymatgen
data_K2TiCr(PO4)3
_symmetry_space_group_name_H-M   'P 1'
_cell_length_a   9.94057400
_cell_length_b   9.94316433
_cell_length_c   19.88672291
_cell_angle_alpha   90.01326749
_cell_angle_beta   90.03339203
_cell_angle_gamma   90.05931742
_symmetry_Int_Tables_number   1
_chemical_formula_structural   K2TiCr(PO4)3
_chemical_formula_sum   'K16 Ti8 Cr8 P24 O96'
_cell_volume   1965.61738244
_cell_formula_units_Z   8
loop_
 _symmetry_equiv_pos_site_id
 _symmetry_equiv_pos_as_xyz
  1  'x, y, z'
loop_
 _atom_site_type_symbol
 _atom_site_label
 _atom_site_symmetry_multiplicity
 _atom_site_fract_x
 _atom_site_fract_y
 _atom_site_fract_z
 _atom_site_occupancy
  K  K0  1  0.95799700  0.45564600  0.47905800  1
  K  K1  1  0.95825900  0.45738700  0.97797600  1
  K  K2  1  0.82058900  0.18089600  0.15869100  1
  K  K3  1  0.81694600  0.18337000  0.65818100  1
  K  K4  1  0.68017500  0.81751200  0.40958300  1
  K  K5  1  0.68419200  0.81697900  0.90880700  1
  K  K6  1  0.54173500  0.54285800  0.22906400  1
  K  K7  1  0.54347400  0.54399500  0.72769700  1
  K  K8  1  0.45585500  0.04278300  0.02084500  1
  K  K9  1  0.45578200  0.04289300  0.52196300  1
  K  K10  1  0.31597800  0.31826700  0.34173900  1
  K  K11  1  0.31615800  0.31662100  0.84150700  1
  K  K12  1  0.17991800  0.68118400  0.09093400  1
  K  K13  1  0.18436200  0.68321200  0.59073200  1
  K  K14  1  0.04330200  0.95873400  0.27165600  1
  K  K15  1  0.04385000  0.95626000  0.77177900  1
  Ti  Ti0  1  0.89262600  0.60754300  0.30462300  1
  Ti  Ti1  1  0.83495300  0.83510400  0.58179500  1
  Ti  Ti2  1  0.66417900  0.16346600  0.33293700  1
  Ti  Ti3  1  0.66391400  0.16309100  0.83093700  1
  Ti  Ti4  1  0.60831100  0.39125200  0.05360700  1
  Ti  Ti5  1  0.38838400  0.89254200  0.19624700  1
  Ti  Ti6  1  0.33296500  0.66444000  0.91795000  1
  Ti  Ti7  1  0.16435000  0.33662500  0.66715900  1
  Cr  Cr0  1  0.89552300  0.60571300  0.80262000  1
  Cr  Cr1  1  0.83860100  0.83711900  0.08117800  1
  Cr  Cr2  1  0.60477900  0.39502300  0.55288700  1
  Cr  Cr3  1  0.39486100  0.89436200  0.69701900  1
  Cr  Cr4  1  0.33750800  0.66286200  0.41914800  1
  Cr  Cr5  1  0.16233100  0.33702900  0.16812100  1
  Cr  Cr6  1  0.10557200  0.10556800  0.44770700  1
  Cr  Cr7  1  0.10583600  0.10477000  0.94729000  1
  P  P0  1  0.97851300  0.29097300  0.31172100  1
  P  P1  1  0.97806200  0.29317800  0.81244000  1
  P  P2  1  0.87807400  0.52453800  0.14621200  1
  P  P3  1  0.87476300  0.52233500  0.64665000  1
  P  P4  1  0.79330600  0.12527400  0.48920100  1
  P  P5  1  0.79464500  0.12248200  0.98859800  1
  P  P6  1  0.70715800  0.87693900  0.23725500  1
  P  P7  1  0.70664300  0.87443900  0.73873300  1
  P  P8  1  0.62245400  0.47784600  0.39728700  1
  P  P9  1  0.62410700  0.47759300  0.89562300  1
  P  P10  1  0.52536000  0.70762800  0.06149000  1
  P  P11  1  0.52088900  0.70703500  0.56207100  1
  P  P12  1  0.47461400  0.20738000  0.18863200  1
  P  P13  1  0.47743600  0.20673900  0.68731500  1
  P  P14  1  0.37569800  0.97503000  0.35474000  1
  P  P15  1  0.37486100  0.97750300  0.85324800  1
  P  P16  1  0.29081300  0.37572000  0.01237300  1
  P  P17  1  0.29310300  0.37597700  0.51041400  1
  P  P18  1  0.20766100  0.62130100  0.26258300  1
  P  P19  1  0.20688500  0.62514500  0.76087100  1
  P  P20  1  0.12499300  0.02210000  0.60339500  1
  P  P21  1  0.12215000  0.02473300  0.10280900  1
  P  P22  1  0.02561900  0.79436900  0.43835900  1
  P  P23  1  0.02069800  0.79310500  0.93786400  1
  O  O0  1  0.99171500  0.94638200  0.11651600  1
  O  O1  1  0.98787400  0.94812600  0.61395300  1
  O  O2  1  0.98333800  0.44194600  0.33431200  1
  O  O3  1  0.98686500  0.44013100  0.83634100  1
  O  O4  1  0.95239900  0.70217400  0.38533000  1
  O  O5  1  0.95266700  0.70160500  0.88650900  1
  O  O6  1  0.94948100  0.76811200  0.00528500  1
  O  O7  1  0.94571200  0.77070000  0.50486100  1
  O  O8  1  0.94014900  0.17271300  0.49349500  1
  O  O9  1  0.93995400  0.17350300  0.99355600  1
  O  O10  1  0.90002900  0.67051800  0.12647200  1
  O  O11  1  0.89796900  0.67167700  0.62558700  1
  O  O12  1  0.82972600  0.51525300  0.22092600  1
  O  O13  1  0.82745700  0.51326100  0.72015000  1
  O  O14  1  0.82791400  0.25122200  0.30165900  1
  O  O15  1  0.82814300  0.25109800  0.80131200  1
  O  O16  1  0.79688500  0.77096200  0.27378400  1
  O  O17  1  0.79862400  0.77457400  0.77405900  1
  O  O18  1  0.76878500  0.45315400  0.10170400  1
  O  O19  1  0.77458300  0.45186700  0.60066400  1
  O  O20  1  0.76717100  0.99101100  0.02618000  1
  O  O21  1  0.77139900  0.98810900  0.52559800  1
  O  O22  1  0.75102400  0.10253200  0.41423600  1
  O  O23  1  0.75031500  0.10352200  0.91436000  1
  O  O24  1  0.74773500  0.90106000  0.16474200  1
  O  O25  1  0.74890100  0.89815300  0.66428100  1
  O  O26  1  0.72916600  0.00989500  0.27709900  1
  O  O27  1  0.72817000  0.01181600  0.77592300  1
  O  O28  1  0.73009700  0.54617600  0.35093200  1
  O  O29  1  0.72642600  0.54793500  0.85130900  1
  O  O30  1  0.70214900  0.23011200  0.02305900  1
  O  O31  1  0.70133700  0.22583000  0.52384500  1
  O  O32  1  0.67061500  0.74756900  0.04949600  1
  O  O33  1  0.67206500  0.74898300  0.55184600  1
  O  O34  1  0.67379900  0.48722800  0.46985700  1
  O  O35  1  0.66898600  0.48394800  0.97090700  1
  O  O36  1  0.60356900  0.32871800  0.37521500  1
  O  O37  1  0.60207000  0.32828300  0.87582700  1
  O  O38  1  0.55829500  0.82992200  0.24237200  1
  O  O39  1  0.55973400  0.82754700  0.74365000  1
  O  O40  1  0.55464300  0.22904400  0.25487300  1
  O  O41  1  0.55193400  0.22815500  0.75601800  1
  O  O42  1  0.54751100  0.29702400  0.13545100  1
  O  O43  1  0.54831900  0.29865800  0.63741900  1
  O  O44  1  0.51511500  0.55843900  0.08497200  1
  O  O45  1  0.51355300  0.55987000  0.58641500  1
  O  O46  1  0.51123800  0.05397900  0.36341300  1
  O  O47  1  0.51200500  0.05176600  0.86420900  1
  O  O48  1  0.48851800  0.55227200  0.88602500  1
  O  O49  1  0.49097600  0.55184200  0.38335800  1
  O  O50  1  0.48543400  0.05857600  0.16490900  1
  O  O51  1  0.48724500  0.05989300  0.66380300  1
  O  O52  1  0.45273800  0.79685900  0.11473300  1
  O  O53  1  0.45268200  0.79824800  0.61350900  1
  O  O54  1  0.45004200  0.73182600  0.49465100  1
  O  O55  1  0.44587800  0.72916600  0.99512500  1
  O  O56  1  0.44227300  0.33130400  0.00808200  1
  O  O57  1  0.44033000  0.32735900  0.50667700  1
  O  O58  1  0.39789600  0.82835100  0.87464800  1
  O  O59  1  0.40203100  0.82929800  0.37322000  1
  O  O60  1  0.33153500  0.98427800  0.27887700  1
  O  O61  1  0.32757700  0.98675700  0.77988900  1
  O  O62  1  0.32970900  0.24771400  0.20053900  1
  O  O63  1  0.32853200  0.24889700  0.69914200  1
  O  O64  1  0.29656600  0.73054900  0.22662500  1
  O  O65  1  0.29873600  0.72566100  0.72612600  1
  O  O66  1  0.27483600  0.04798800  0.89939500  1
  O  O67  1  0.27368000  0.04874800  0.39825700  1
  O  O68  1  0.26830800  0.51042300  0.47466400  1
  O  O69  1  0.27266700  0.51102900  0.97330300  1
  O  O70  1  0.25338800  0.40189900  0.08540700  1
  O  O71  1  0.25118200  0.39633000  0.58597300  1
  O  O72  1  0.24735000  0.59996100  0.33526800  1
  O  O73  1  0.24889300  0.60227500  0.83577400  1
  O  O74  1  0.23183700  0.49171200  0.22286500  1
  O  O75  1  0.22850800  0.48797700  0.72430900  1
  O  O76  1  0.23091700  0.95347600  0.14878600  1
  O  O77  1  0.22557500  0.95214200  0.64929100  1
  O  O78  1  0.20158100  0.27296500  0.47631200  1
  O  O79  1  0.20328600  0.27366300  0.97556500  1
  O  O80  1  0.16995300  0.75227200  0.45057000  1
  O  O81  1  0.17173800  0.75107000  0.94818600  1
  O  O82  1  0.17395500  0.01168000  0.03004400  1
  O  O83  1  0.17234200  0.01312900  0.52996500  1
  O  O84  1  0.09961000  0.17002200  0.12393100  1
  O  O85  1  0.10215100  0.17158400  0.62451600  1
  O  O86  1  0.05814300  0.66980100  0.25773200  1
  O  O87  1  0.06002600  0.67258100  0.75645100  1
  O  O88  1  0.05113400  0.26897500  0.24484600  1
  O  O89  1  0.05141600  0.27150900  0.74403500  1
  O  O90  1  0.04708100  0.20288000  0.36381900  1
  O  O91  1  0.04782400  0.20141500  0.86291100  1
  O  O92  1  0.01145900  0.94001300  0.41314500  1
  O  O93  1  0.01335000  0.94022100  0.91369700  1
  O  O94  1  0.00795900  0.44619400  0.13389100  1
  O  O95  1  0.01177400  0.44848700  0.63585900  1
loop_
_geom_bond_atom_site_label_1
_geom_bond_atom_site_label_2
_geom_bond_distance
_geom_bond_site_symmetry_2
K0 O8 2.833316 1_555
K0 O34 2.848595 1_555
K0 O2 2.892861 1_555
K0 O78 3.028962 1_655
K0 O19 3.029695 1_555
K0 O4 3.080320 1_555
K0 O68 3.133102 1_655
K0 O95 3.164271 1_655
K0 O7 3.176750 1_555
K1 O3 2.836311 1_555
K1 O9 2.845379 1_555
K1 O35 2.891255 1_555
K1 O5 3.034900 1_555
K1 O79 3.046552 1_655
K1 O18 3.099812 1_556
K1 O6 3.138146 1_556
K1 O94 3.141483 1_656
K1 O69 3.171456 1_655
K2 O84 2.861009 1_655
K2 O24 2.876996 1_545
K2 O14 2.928582 1_555
K2 O18 2.980196 1_555
K2 O30 2.983129 1_555
K2 O42 2.986796 1_555
K2 O88 2.990856 1_655
K2 O0 3.007238 1_545
K2 O26 3.043499 1_555
K2 O94 3.265335 1_655
K2 O20 3.284060 1_545
K2 O40 3.299211 1_555
K3 O85 2.915923 1_655
K3 O25 2.917395 1_545
K3 O15 2.926861 1_555
K3 O19 2.935337 1_555
K3 O43 2.936044 1_555
K3 O31 2.938337 1_555
K3 O89 3.017617 1_655
K3 O1 3.023391 1_545
K3 O27 3.028576 1_555
K4 O59 2.860031 1_555
K4 O33 2.911341 1_555
K4 O22 2.920925 1_565
K4 O54 2.970239 1_555
K4 O16 2.976176 1_555
K4 O4 2.979648 1_555
K4 O28 2.981201 1_555
K4 O21 3.002534 1_555
K4 O46 3.032961 1_565
K4 O7 3.281974 1_555
K4 O49 3.282558 1_555
K4 O26 3.292376 1_565
K5 O32 2.885064 1_556
K5 O23 2.925364 1_565
K5 O58 2.927816 1_555
K5 O29 2.939663 1_555
K5 O5 2.939832 1_555
K5 O17 2.942197 1_555
K5 O20 3.019276 1_556
K5 O47 3.028825 1_565
K5 O55 3.053233 1_555
K6 O38 2.871051 1_555
K6 O12 2.880847 1_555
K6 O44 2.881774 1_555
K6 O28 3.061900 1_555
K6 O64 3.071497 1_555
K6 O42 3.072833 1_555
K6 O49 3.111179 1_555
K6 O74 3.124097 1_555
K6 O40 3.165073 1_555
K7 O45 2.829623 1_555
K7 O39 2.841548 1_555
K7 O13 2.843807 1_555
K7 O43 3.028970 1_555
K7 O65 3.031757 1_555
K7 O29 3.057212 1_555
K7 O75 3.180206 1_555
K7 O41 3.191866 1_555
K7 O48 3.197034 1_555
K8 O82 2.824983 1_555
K8 O56 2.883371 1_555
K8 O50 2.884065 1_555
K8 O66 3.011514 1_554
K8 O30 3.075055 1_555
K8 O52 3.077085 1_545
K8 O20 3.139445 1_545
K8 O55 3.161344 1_544
K8 O47 3.166174 1_554
K9 O83 2.837314 1_555
K9 O51 2.842810 1_555
K9 O57 2.849143 1_555
K9 O53 3.038847 1_545
K9 O31 3.042861 1_555
K9 O67 3.054084 1_555
K9 O54 3.140648 1_545
K9 O21 3.185689 1_545
K9 O46 3.203087 1_555
K10 O72 2.886380 1_555
K10 O62 2.897479 1_555
K10 O67 2.936222 1_555
K10 O36 2.936661 1_555
K10 O90 2.940963 1_555
K10 O78 2.942998 1_555
K10 O49 3.015647 1_555
K10 O74 3.043835 1_555
K10 O40 3.067289 1_555
K10 O68 3.296039 1_555
K10 O46 3.296817 1_555
K10 O88 3.297756 1_555
K11 O63 2.912700 1_555
K11 O73 2.920859 1_555
K11 O79 2.924346 1_555
K11 O37 2.924720 1_555
K11 O91 2.933188 1_555
K11 O66 2.937392 1_555
K11 O75 3.016088 1_555
K11 O41 3.027451 1_555
K11 O48 3.032909 1_555
K12 O10 2.872872 1_455
K12 O70 2.874234 1_555
K12 O81 2.923862 1_554
K12 O64 2.976856 1_555
K12 O52 2.982209 1_555
K12 O6 2.982561 1_455
K12 O76 2.984278 1_555
K12 O94 3.017537 1_555
K12 O69 3.031289 1_554
K12 O74 3.271396 1_555
K12 O0 3.274579 1_455
K12 O55 3.294119 1_554
K13 O80 2.874379 1_555
K13 O71 2.931019 1_555
K13 O11 2.932606 1_455
K13 O53 2.935947 1_555
K13 O77 2.944503 1_555
K13 O65 2.952201 1_555
K13 O68 2.996552 1_555
K13 O95 3.031559 1_555
K13 O7 3.049768 1_455
K14 O92 2.837818 1_555
K14 O60 2.879671 1_555
K14 O86 2.890086 1_555
K14 O90 3.041624 1_565
K14 O76 3.075227 1_555
K14 O16 3.078722 1_455
K14 O0 3.129620 1_455
K14 O88 3.131531 1_565
K14 O26 3.166285 1_465
K15 O61 2.840836 1_555
K15 O87 2.841748 1_555
K15 O93 2.843193 1_555
K15 O17 3.032983 1_455
K15 O77 3.033762 1_555
K15 O91 3.037383 1_565
K15 O89 3.183705 1_565
K15 O27 3.187963 1_465
K15 O1 3.188258 1_455
Cr0 O87 1.989699 1_655
Cr0 O3 1.996926 1_555
Cr0 O13 1.997340 1_555
Cr0 O5 2.002989 1_555
Cr0 O17 2.018083 1_555
Cr0 O29 2.023174 1_555
Cr1 O10 1.982546 1_555
Cr1 O6 1.991624 1_555
Cr1 O32 1.993419 1_555
Cr1 O24 1.996037 1_555
Cr1 O0 1.996437 1_555
Cr1 O20 2.010963 1_555
Cr2 O45 1.989185 1_555
Cr2 O57 1.991265 1_555
Cr2 O34 2.009585 1_555
Cr2 O43 2.014895 1_555
Cr2 O19 2.016751 1_555
Cr2 O31 2.022024 1_555
Cr3 O51 1.996691 1_565
Cr3 O39 1.997045 1_555
Cr3 O53 2.000814 1_555
Cr3 O61 2.002288 1_555
Cr3 O65 2.014853 1_555
Cr3 O77 2.015731 1_555
Cr4 O80 1.989736 1_555
Cr4 O54 1.993012 1_555
Cr4 O72 1.993376 1_555
Cr4 O59 1.995868 1_555
Cr4 O68 1.997248 1_555
Cr4 O49 2.014169 1_555
Cr5 O84 1.978654 1_555
Cr5 O70 1.985473 1_555
Cr5 O62 1.993668 1_555
Cr5 O94 1.999745 1_555
Cr5 O88 2.002173 1_555
Cr5 O74 2.006070 1_555
Cr6 O83 1.990484 1_555
Cr6 O8 1.995662 1_455
Cr6 O78 2.000126 1_555
Cr6 O92 2.013197 1_545
Cr6 O90 2.014487 1_555
Cr6 O67 2.020500 1_555
Cr7 O93 1.991014 1_545
Cr7 O82 2.006072 1_556
Cr7 O9 2.009104 1_455
Cr7 O66 2.012910 1_555
Cr7 O79 2.017495 1_555
Cr7 O91 2.018047 1_555
O0 P21 1.536496 1_665
O1 P20 1.562469 1_665
O1 Ti1 1.994410 1_555
O2 P0 1.567514 1_555
O2 Ti0 1.968696 1_555
O3 P1 1.538826 1_555
O4 P22 1.574650 1_655
O4 Ti0 1.952293 1_555
O5 P23 1.524986 1_655
O6 P23 1.536726 1_654
O7 P22 1.560878 1_655
O7 Ti1 1.991499 1_555
O8 P4 1.535882 1_555
O9 P5 1.533567 1_555
O10 P2 1.519311 1_555
O11 P3 1.559931 1_555
O11 Ti1 1.947696 1_555
O12 P2 1.564596 1_555
O12 Ti0 2.000090 1_555
O13 P3 1.538356 1_555
O14 P0 1.560699 1_555
O14 Ti2 1.948313 1_555
O15 P1 1.563092 1_555
O15 Ti3 1.943294 1_555
O16 P6 1.560512 1_555
O16 Ti0 1.981207 1_555
O17 P7 1.522172 1_555
O18 P2 1.569864 1_555
O18 Ti4 1.958139 1_555
O19 P3 1.521901 1_555
O20 P5 1.530356 1_564
O21 P4 1.559313 1_565
O21 Ti1 1.991123 1_555
O22 P4 1.564998 1_555
O22 Ti2 1.930340 1_555
O23 P5 1.551863 1_555
O23 Ti3 1.959759 1_555
O24 P6 1.516692 1_555
O25 P7 1.557219 1_555
O25 Ti1 1.953928 1_555
O26 P6 1.556314 1_545
O26 Ti2 1.996036 1_555
O27 P7 1.567602 1_545
O27 Ti3 1.967091 1_555
O28 P8 1.567264 1_555
O28 Ti0 1.957207 1_555
O29 P9 1.516634 1_555
O30 P5 1.569329 1_554
O30 Ti4 1.951835 1_555
O31 P4 1.520679 1_555
O32 P10 1.516169 1_555
O33 P11 1.572498 1_555
O33 Ti1 1.924988 1_555
O34 P8 1.533283 1_555
O35 P9 1.563203 1_555
O35 Ti4 1.979601 1_556
O36 P8 1.557448 1_555
O36 Ti2 1.942104 1_555
O37 P9 1.551130 1_555
O37 Ti3 1.968460 1_555
O38 P6 1.554810 1_555
O38 Ti5 2.020514 1_555
O39 P7 1.535703 1_555
O40 P12 1.553348 1_555
O40 Ti2 2.005193 1_555
O41 P13 1.568068 1_555
O41 Ti3 1.969115 1_555
O42 P12 1.561441 1_555
O42 Ti4 1.973044 1_555
O43 P13 1.521945 1_555
O44 P10 1.558529 1_555
O44 Ti4 2.003538 1_555
O45 P11 1.543064 1_555
O46 P14 1.568054 1_545
O46 Ti2 1.965146 1_555
O47 P15 1.564870 1_545
O47 Ti3 1.985301 1_555
O48 P9 1.551224 1_555
O48 Ti6 2.010565 1_555
O49 P8 1.525743 1_555
O50 P12 1.556717 1_555
O50 Ti5 2.010587 1_545
O51 P13 1.536262 1_555
O52 P10 1.559243 1_555
O52 Ti5 1.985933 1_555
O53 P11 1.526533 1_555
O54 P11 1.534210 1_555
O55 P10 1.552806 1_556
O55 Ti6 2.006376 1_555
O56 P16 1.571834 1_555
O56 Ti4 1.973604 1_555
O57 P17 1.543594 1_555
O58 P15 1.560079 1_555
O58 Ti6 1.952821 1_555
O59 P14 1.517963 1_555
O60 P14 1.573732 1_555
O60 Ti5 1.962920 1_555
O61 P15 1.535268 1_555
O62 P12 1.514372 1_555
O63 P13 1.556806 1_555
O63 Ti7 1.957311 1_555
O64 P18 1.572096 1_555
O64 Ti5 1.946921 1_555
O65 P19 1.519590 1_555
O66 P15 1.524543 1_545
O67 P14 1.522141 1_545
O68 P17 1.534341 1_555
O69 P16 1.564337 1_556
O69 Ti6 1.974205 1_555
O70 P16 1.521940 1_555
O71 P17 1.572655 1_555
O71 Ti7 1.924881 1_555
O72 P18 1.513176 1_555
O73 P19 1.563506 1_555
O73 Ti6 1.935980 1_555
O74 P18 1.530465 1_555
O75 P19 1.560571 1_555
O75 Ti7 1.989872 1_555
O76 P21 1.583586 1_565
O76 Ti5 1.925782 1_555
O77 P20 1.522262 1_565
O78 P17 1.527670 1_555
O79 P16 1.523047 1_556
O80 P22 1.514465 1_555
O81 P23 1.572286 1_555
O81 Ti6 1.917258 1_555
O82 P21 1.541731 1_555
O83 P20 1.537122 1_555
O84 P21 1.521218 1_555
O85 P20 1.561320 1_555
O85 Ti7 1.947065 1_555
O86 P18 1.565974 1_555
O86 Ti0 1.989938 1_455
O87 P19 1.537104 1_555
O88 P0 1.529374 1_455
O89 P1 1.558855 1_455
O89 Ti7 2.004425 1_555
O90 P0 1.518578 1_455
O91 P1 1.523729 1_455
O92 P22 1.539184 1_555
O93 P23 1.541622 1_555
O94 P2 1.528477 1_455
O95 P3 1.562856 1_455
O95 Ti7 1.981829 1_555
