# generated using pymatgen
data_Li4Cr3NiO8
_symmetry_space_group_name_H-M   'P 1'
_cell_length_a   5.90023400
_cell_length_b   5.09262900
_cell_length_c   5.09707170
_cell_angle_alpha   70.21444912
_cell_angle_beta   90.00000000
_cell_angle_gamma   90.00000000
_symmetry_Int_Tables_number   1
_chemical_formula_structural   Li4Cr3NiO8
_chemical_formula_sum   'Li4 Cr3 Ni1 O8'
_cell_volume   144.11395071
_cell_formula_units_Z   1
loop_
 _symmetry_equiv_pos_site_id
 _symmetry_equiv_pos_as_xyz
  1  'x, y, z'
loop_
 _atom_site_type_symbol
 _atom_site_label
 _atom_site_symmetry_multiplicity
 _atom_site_fract_x
 _atom_site_fract_y
 _atom_site_fract_z
 _atom_site_occupancy
  Li  Li0  1  0.00000000  0.00000000  0.50000000  1
  Li  Li1  1  0.50000000  0.00000000  0.50000000  1
  Li  Li2  1  0.75733800  0.50000000  0.50000000  1
  Li  Li3  1  0.24266200  0.50000000  0.50000000  1
  Cr  Cr0  1  0.75032200  0.00000000  0.00000000  1
  Cr  Cr1  1  0.24967800  0.00000000  0.00000000  1
  Cr  Cr2  1  0.50000000  0.50000000  0.00000000  1
  Ni  Ni0  1  0.00000000  0.50000000  0.00000000  1
  O  O0  1  0.00000000  0.76548000  0.23302500  1
  O  O1  1  0.50000000  0.75209200  0.22554300  1
  O  O2  1  0.73387000  0.74189900  0.77510600  1
  O  O3  1  0.73387000  0.25810100  0.22489400  1
  O  O4  1  0.26613000  0.74189900  0.77510600  1
  O  O5  1  0.00000000  0.23452000  0.76697500  1
  O  O6  1  0.26613000  0.25810100  0.22489400  1
  O  O7  1  0.50000000  0.24790800  0.77445700  1
loop_
_geom_bond_atom_site_label_1
_geom_bond_atom_site_label_2
_geom_bond_distance
_geom_bond_site_symmetry_2
Li0 O5 2.092472 1_555
Li0 O0 2.092472 1_545
Li0 O4 2.216252 1_545
Li0 O3 2.216252 1_455
Li0 O2 2.216252 1_445
Li0 O6 2.216252 1_555
Li1 O4 2.085723 1_545
Li1 O3 2.085723 1_555
Li1 O6 2.085723 1_555
Li1 O2 2.085723 1_545
Li1 O7 2.178669 1_555
Li1 O1 2.178669 1_545
Li2 O5 2.117556 1_655
Li2 O0 2.117556 1_655
Li2 O2 2.161592 1_555
Li2 O3 2.161592 1_555
Li2 O1 2.166726 1_555
Li2 O7 2.166726 1_555
Li3 O5 2.117556 1_555
Li3 O0 2.117556 1_555
Li3 O4 2.161592 1_555
Li3 O6 2.161592 1_555
Li3 O7 2.166726 1_555
Li3 O1 2.166726 1_555
Cr0 O0 2.011711 1_645
Cr0 O5 2.011711 1_654
Cr0 O3 2.017710 1_555
Cr0 O2 2.017710 1_544
Cr0 O1 2.028382 1_545
Cr0 O7 2.028382 1_554
Cr1 O0 2.011711 1_545
Cr1 O5 2.011711 1_554
Cr1 O6 2.017710 1_555
Cr1 O4 2.017710 1_544
Cr1 O7 2.028382 1_554
Cr1 O1 2.028382 1_545
Cr2 O4 1.944136 1_554
Cr2 O2 1.944136 1_554
Cr2 O6 1.944136 1_555
Cr2 O3 1.944136 1_555
Cr2 O1 1.992221 1_555
Cr2 O7 1.992221 1_554
Ni0 O0 2.079846 1_555
Ni0 O5 2.079846 1_554
Ni0 O2 2.083553 1_454
Ni0 O4 2.083553 1_554
Ni0 O6 2.083553 1_555
Ni0 O3 2.083553 1_455
