# generated using pymatgen
data_Li2VP2HO8
_symmetry_space_group_name_H-M   'P 1'
_cell_length_a   7.98716148
_cell_length_b   8.16255903
_cell_length_c   9.72758763
_cell_angle_alpha   89.99059571
_cell_angle_beta   112.22133627
_cell_angle_gamma   90.00705248
_symmetry_Int_Tables_number   1
_chemical_formula_structural   Li2VP2HO8
_chemical_formula_sum   'Li8 V4 P8 H4 O32'
_cell_volume   587.09475063
_cell_formula_units_Z   4
loop_
 _symmetry_equiv_pos_site_id
 _symmetry_equiv_pos_as_xyz
  1  'x, y, z'
loop_
 _atom_site_type_symbol
 _atom_site_label
 _atom_site_symmetry_multiplicity
 _atom_site_fract_x
 _atom_site_fract_y
 _atom_site_fract_z
 _atom_site_occupancy
  Li  Li0  1  0.65644300  0.36401500  0.76897200  1
  Li  Li1  1  0.65639000  0.36394000  0.26893800  1
  Li  Li2  1  0.84349300  0.86377900  0.73104300  1
  Li  Li3  1  0.84359000  0.86386100  0.23103000  1
  Li  Li4  1  0.15821300  0.13725500  0.27602600  1
  Li  Li5  1  0.15832600  0.13747900  0.77595100  1
  Li  Li6  1  0.34176200  0.63731900  0.22397800  1
  Li  Li7  1  0.34176300  0.63736200  0.72405000  1
  V  V0  1  0.00339300  0.49987600  0.25244000  1
  V  V1  1  0.49643300  0.00021300  0.74756700  1
  V  V2  1  0.00364000  0.50015400  0.75261400  1
  V  V3  1  0.49652700  0.00018600  0.24775400  1
  P  P0  1  0.26909100  0.35075000  0.56885700  1
  P  P1  1  0.26898300  0.35075400  0.06889400  1
  P  P2  1  0.23100700  0.85067800  0.43112800  1
  P  P3  1  0.23097700  0.85070000  0.93111400  1
  P  P4  1  0.76372000  0.15271500  0.56544200  1
  P  P5  1  0.76363900  0.15269000  0.06542400  1
  P  P6  1  0.73626700  0.65264000  0.43454000  1
  P  P7  1  0.73627600  0.65270600  0.93459400  1
  H  H0  1  0.51128700  0.51013300  0.49174300  1
  H  H1  1  0.51132300  0.51031800  0.99173500  1
  H  H2  1  0.98856100  0.01045900  0.50827800  1
  H  H3  1  0.98850000  0.01029400  0.00825200  1
  O  O0  1  0.83676300  0.54135500  0.86281200  1
  O  O1  1  0.83683200  0.54118200  0.36289200  1
  O  O2  1  0.66325000  0.04120100  0.63715900  1
  O  O3  1  0.66314000  0.04120900  0.13712800  1
  O  O4  1  0.30962800  0.18313700  0.64851600  1
  O  O5  1  0.30952600  0.18311900  0.14855100  1
  O  O6  1  0.19045400  0.68306900  0.35140000  1
  O  O7  1  0.19045000  0.68310700  0.85132300  1
  O  O8  1  0.34778600  0.82824000  0.59973700  1
  O  O9  1  0.34782700  0.82824500  0.09974900  1
  O  O10  1  0.15229600  0.32818000  0.40027100  1
  O  O11  1  0.15222100  0.32825600  0.90026800  1
  O  O12  1  0.44868000  0.44103400  0.59482900  1
  O  O13  1  0.44854600  0.44109500  0.09493600  1
  O  O14  1  0.05149300  0.94113500  0.40498700  1
  O  O15  1  0.05136000  0.94097400  0.90499300  1
  O  O16  1  0.81264800  0.31697600  0.64777500  1
  O  O17  1  0.81265200  0.31693600  0.14779700  1
  O  O18  1  0.68740600  0.81694400  0.35224100  1
  O  O19  1  0.68727500  0.81702900  0.85229300  1
  O  O20  1  0.84710800  0.67343300  0.60245800  1
  O  O21  1  0.84704300  0.67349200  0.10250000  1
  O  O22  1  0.65296400  0.17360600  0.39756700  1
  O  O23  1  0.65290600  0.17362500  0.89753100  1
  O  O24  1  0.94826900  0.06092400  0.59318400  1
  O  O25  1  0.94816300  0.06081900  0.09319600  1
  O  O26  1  0.55181900  0.56074700  0.40676100  1
  O  O27  1  0.55180100  0.56076900  0.90675200  1
  O  O28  1  0.33800700  0.95983700  0.36163800  1
  O  O29  1  0.33779300  0.95994600  0.86155600  1
  O  O30  1  0.16202200  0.45989300  0.13839100  1
  O  O31  1  0.16226800  0.45981600  0.63844300  1
loop_
_geom_bond_atom_site_label_1
_geom_bond_atom_site_label_2
_geom_bond_distance
_geom_bond_site_symmetry_2
Li0 O12 1.972881 1_555
Li0 O23 2.001481 1_555
Li0 O0 2.002120 1_555
Li0 O16 2.051040 1_555
Li0 O27 2.433612 1_555
Li1 O13 1.972829 1_555
Li1 O22 2.001334 1_555
Li1 O1 2.002279 1_555
Li1 O17 2.050924 1_555
Li1 O26 2.433869 1_555
Li2 O15 1.972802 1_655
Li2 O20 2.001842 1_555
Li2 O2 2.002386 1_565
Li2 O19 2.050971 1_555
Li2 O24 2.436406 1_565
Li3 O14 1.973193 1_655
Li3 O21 2.001326 1_555
Li3 O3 2.002886 1_565
Li3 O18 2.050695 1_555
Li3 O25 2.434338 1_565
Li4 O10 1.983815 1_555
Li4 O28 1.987098 1_545
Li4 O25 2.027377 1_455
Li4 O5 2.066809 1_555
Li4 O14 2.381339 1_545
Li5 O11 1.983682 1_555
Li5 O29 1.986300 1_545
Li5 O24 2.027358 1_455
Li5 O4 2.066115 1_555
Li5 O15 2.385068 1_545
Li6 O9 1.983705 1_555
Li6 O30 1.986809 1_555
Li6 O26 2.027436 1_555
Li6 O6 2.066313 1_555
Li6 O13 2.383134 1_555
Li7 O8 1.983817 1_555
Li7 O31 1.986449 1_555
Li7 O27 2.026969 1_555
Li7 O7 2.065148 1_555
Li7 O12 2.385450 1_555
H0 O26 1.077566 1_555
H0 O12 1.397412 1_555
H1 O27 1.076811 1_555
H1 O13 1.399629 1_556
H2 O24 1.075452 1_555
H2 O14 1.401671 1_645
H3 O25 1.076178 1_555
H3 O15 1.401030 1_644
O0 P7 1.543421 1_555
O0 V2 2.029698 1_655
O1 P6 1.543521 1_555
O1 V0 2.029600 1_655
O2 P4 1.543450 1_555
O2 V1 2.030475 1_555
O3 P5 1.543369 1_555
O3 V3 2.030776 1_555
O4 P0 1.545030 1_555
O4 V1 2.072849 1_555
O5 P1 1.545182 1_555
O5 V3 2.074039 1_555
O6 P2 1.545442 1_555
O6 V0 2.075337 1_555
O7 P3 1.545581 1_555
O7 V2 2.072366 1_555
O8 P2 1.560923 1_555
O8 V1 2.038847 1_565
O9 P3 1.561261 1_554
O9 V3 2.039628 1_565
O10 P0 1.560927 1_555
O10 V0 2.037819 1_555
O11 P1 1.561126 1_556
O11 V2 2.037306 1_555
O12 P0 1.546008 1_555
O13 P1 1.545922 1_555
O14 P2 1.545984 1_555
O15 P3 1.546020 1_555
O16 P4 1.534722 1_555
O16 V2 2.103808 1_655
O17 P5 1.534819 1_555
O17 V0 2.100940 1_655
O18 P6 1.534711 1_555
O18 V3 2.103001 1_565
O19 P7 1.534919 1_555
O19 V1 2.102992 1_565
O20 P6 1.544979 1_555
O20 V2 2.077413 1_655
O21 P7 1.544773 1_554
O21 V0 2.077802 1_655
O22 P4 1.544563 1_555
O22 V3 2.076475 1_555
O23 P5 1.544718 1_556
O23 V1 2.077224 1_555
O24 P4 1.583122 1_555
O25 P5 1.583206 1_555
O26 P6 1.582623 1_555
O27 P7 1.582869 1_555
O28 P2 1.554929 1_555
O28 V3 1.999873 1_565
O29 P3 1.554712 1_555
O29 V1 2.001381 1_565
O30 P1 1.554905 1_555
O30 V0 2.001501 1_555
O31 P0 1.554333 1_555
O31 V2 2.002911 1_555
