# generated using pymatgen
data_Li2BiP3O10
_symmetry_space_group_name_H-M   'P 1'
_cell_length_a   9.00353500
_cell_length_b   5.10937000
_cell_length_c   10.26527207
_cell_angle_alpha   81.58729974
_cell_angle_beta   90.00000000
_cell_angle_gamma   90.00000000
_symmetry_Int_Tables_number   1
_chemical_formula_structural   Li2BiP3O10
_chemical_formula_sum   'Li4 Bi2 P6 O20'
_cell_volume   467.14586849
_cell_formula_units_Z   2
loop_
 _symmetry_equiv_pos_site_id
 _symmetry_equiv_pos_as_xyz
  1  'x, y, z'
loop_
 _atom_site_type_symbol
 _atom_site_label
 _atom_site_symmetry_multiplicity
 _atom_site_fract_x
 _atom_site_fract_y
 _atom_site_fract_z
 _atom_site_occupancy
  Li  Li0  1  0.07676300  0.17570000  0.42258000  1
  Li  Li1  1  0.42323700  0.17570000  0.42258000  1
  Li  Li2  1  0.57676300  0.82430000  0.57742000  1
  Li  Li3  1  0.92323700  0.82430000  0.57742000  1
  Bi  Bi0  1  0.00000000  0.00000000  0.00000000  1
  Bi  Bi1  1  0.50000000  0.00000000  0.00000000  1
  P  P0  1  0.25000000  0.32120900  0.78654300  1
  P  P1  1  0.75000000  0.36104400  0.49931800  1
  P  P2  1  0.75000000  0.51683600  0.94385900  1
  P  P3  1  0.25000000  0.48316400  0.05614100  1
  P  P4  1  0.25000000  0.63895600  0.50068200  1
  P  P5  1  0.75000000  0.67879100  0.21345700  1
  O  O0  1  0.10846600  0.15695000  0.80066600  1
  O  O1  1  0.39153400  0.15695000  0.80066600  1
  O  O2  1  0.75000000  0.21912500  0.92527100  1
  O  O3  1  0.60765300  0.20112100  0.51855900  1
  O  O4  1  0.89234700  0.20112100  0.51855900  1
  O  O5  1  0.25000000  0.38762900  0.43660100  1
  O  O6  1  0.10649000  0.34195900  0.10465500  1
  O  O7  1  0.39351000  0.34195900  0.10465500  1
  O  O8  1  0.25000000  0.51737600  0.89594700  1
  O  O9  1  0.75000000  0.46659300  0.33683200  1
  O  O10  1  0.25000000  0.53340700  0.66316800  1
  O  O11  1  0.75000000  0.48262400  0.10405300  1
  O  O12  1  0.89351000  0.65804100  0.89534500  1
  O  O13  1  0.60649000  0.65804100  0.89534500  1
  O  O14  1  0.75000000  0.61237100  0.56339900  1
  O  O15  1  0.10765300  0.79887900  0.48144100  1
  O  O16  1  0.39234700  0.79887900  0.48144100  1
  O  O17  1  0.25000000  0.78087500  0.07472900  1
  O  O18  1  0.60846600  0.84305000  0.19933400  1
  O  O19  1  0.89153400  0.84305000  0.19933400  1
loop_
_geom_bond_atom_site_label_1
_geom_bond_atom_site_label_2
_geom_bond_distance
_geom_bond_site_symmetry_2
Li0 O5 1.916150 1_555
Li0 O4 1.944723 1_455
Li0 O15 1.951638 1_545
Li1 O5 1.916150 1_555
Li1 O3 1.944723 1_555
Li1 O16 1.951638 1_545
Li2 O14 1.916150 1_555
Li2 O16 1.944723 1_555
Li2 O3 1.951638 1_565
Li3 O14 1.916150 1_555
Li3 O15 1.944723 1_655
Li3 O4 1.951638 1_565
Bi0 O19 2.302965 1_445
Bi0 O0 2.302965 1_554
Bi0 O6 2.382297 1_555
Bi0 O12 2.382297 1_444
Bi0 O2 2.580139 1_454
Bi0 O17 2.580139 1_545
Bi1 O18 2.302965 1_545
Bi1 O1 2.302965 1_554
Bi1 O7 2.382297 1_555
Bi1 O13 2.382297 1_544
Bi1 O2 2.580139 1_554
Bi1 O17 2.580139 1_545
O0 P0 1.521062 1_555
O1 P0 1.521062 1_555
O2 P2 1.560490 1_555
O3 P1 1.517240 1_555
O4 P1 1.517240 1_555
O5 P4 1.526057 1_555
O6 P3 1.527388 1_555
O7 P3 1.527388 1_555
O8 P0 1.610968 1_555
O8 P3 1.628070 1_556
O9 P5 1.541970 1_555
O9 P1 1.676225 1_555
O10 P0 1.541970 1_555
O10 P4 1.676225 1_555
O11 P5 1.610968 1_555
O11 P2 1.628070 1_554
O12 P2 1.527388 1_555
O13 P2 1.527388 1_555
O14 P1 1.526057 1_555
O15 P4 1.517240 1_555
O16 P4 1.517240 1_555
O17 P3 1.560490 1_555
O18 P5 1.521062 1_555
O19 P5 1.521062 1_555
