# generated using pymatgen
data_Li5FeP3O11
_symmetry_space_group_name_H-M   'P 1'
_cell_length_a   5.36501900
_cell_length_b   8.52565005
_cell_length_c   9.61994141
_cell_angle_alpha   84.21415070
_cell_angle_beta   88.70407979
_cell_angle_gamma   85.40168528
_symmetry_Int_Tables_number   1
_chemical_formula_structural   Li5FeP3O11
_chemical_formula_sum   'Li10 Fe2 P6 O22'
_cell_volume   436.32117774
_cell_formula_units_Z   2
loop_
 _symmetry_equiv_pos_site_id
 _symmetry_equiv_pos_as_xyz
  1  'x, y, z'
loop_
 _atom_site_type_symbol
 _atom_site_label
 _atom_site_symmetry_multiplicity
 _atom_site_fract_x
 _atom_site_fract_y
 _atom_site_fract_z
 _atom_site_occupancy
  Li  Li0  1  0.77964300  0.67029500  0.65670400  1
  Li  Li1  1  0.70977200  0.37593400  0.16773500  1
  Li  Li2  1  0.67387300  0.61436600  0.31941900  1
  Li  Li3  1  0.82778700  0.38381900  0.84469500  1
  Li  Li4  1  0.49693900  0.99673500  0.15588700  1
  Li  Li5  1  0.50306100  0.00326500  0.84411300  1
  Li  Li6  1  0.17221300  0.61618100  0.15530500  1
  Li  Li7  1  0.32612700  0.38563400  0.68058100  1
  Li  Li8  1  0.29022800  0.62406600  0.83226500  1
  Li  Li9  1  0.22035700  0.32970500  0.34329600  1
  Fe  Fe0  1  0.00000000  0.00000000  0.00000000  1
  Fe  Fe1  1  0.50000000  0.00000000  0.50000000  1
  P  P0  1  0.96543400  0.04345300  0.68639200  1
  P  P1  1  0.78338400  0.70338200  0.98467900  1
  P  P2  1  0.72929300  0.32688900  0.52353200  1
  P  P3  1  0.27070700  0.67311100  0.47646800  1
  P  P4  1  0.21661600  0.29661800  0.01532100  1
  P  P5  1  0.03456600  0.95654700  0.31360800  1
  O  O0  1  0.05502500  0.74550300  0.94011800  1
  O  O1  1  0.95005500  0.18968500  0.56474700  1
  O  O2  1  0.87567000  0.11883200  0.82037200  1
  O  O3  1  0.79651700  0.59924900  0.12748400  1
  O  O4  1  0.81973500  0.40077600  0.38235800  1
  O  O5  1  0.75881800  0.01632300  0.31363000  1
  O  O6  1  0.77326800  0.92818400  0.65570600  1
  O  O7  1  0.70617800  0.43335300  0.64376100  1
  O  O8  1  0.66298700  0.61855000  0.87058500  1
  O  O9  1  0.63964100  0.86625100  0.00666200  1
  O  O10  1  0.52068100  0.75145800  0.48189200  1
  O  O11  1  0.47931900  0.24854200  0.51810800  1
  O  O12  1  0.36035900  0.13374900  0.99333800  1
  O  O13  1  0.33701300  0.38145000  0.12941500  1
  O  O14  1  0.29382200  0.56664700  0.35623900  1
  O  O15  1  0.22673200  0.07181600  0.34429400  1
  O  O16  1  0.24118200  0.98367700  0.68637000  1
  O  O17  1  0.18026500  0.59922400  0.61764200  1
  O  O18  1  0.20348300  0.40075100  0.87251600  1
  O  O19  1  0.12433000  0.88116800  0.17962800  1
  O  O20  1  0.04994500  0.81031500  0.43525300  1
  O  O21  1  0.94497500  0.25449700  0.05988200  1
loop_
_geom_bond_atom_site_label_1
_geom_bond_atom_site_label_2
_geom_bond_distance
_geom_bond_site_symmetry_2
Li0 O7 2.105276 1_555
Li0 O8 2.150055 1_555
Li0 O6 2.195249 1_555
Li0 O17 2.220044 1_655
Li0 O10 2.225767 1_555
Li1 O21 1.920571 1_555
Li1 O3 1.994156 1_555
Li1 O13 2.037722 1_555
Li1 O4 2.195227 1_555
Li2 O3 1.959131 1_555
Li2 O4 1.966124 1_555
Li2 O14 2.125960 1_555
Li2 O10 2.154223 1_555
Li3 O7 2.046627 1_555
Li3 O18 2.057674 1_655
Li3 O8 2.157667 1_555
Li3 O2 2.288115 1_555
Li3 O21 2.320283 1_556
Li4 O12 1.973058 1_564
Li4 O9 2.005040 1_555
Li4 O5 2.118907 1_565
Li4 O19 2.295420 1_555
Li4 O15 2.400539 1_565
Li5 O9 1.973058 1_546
Li5 O12 2.005040 1_555
Li5 O16 2.118907 1_545
Li5 O2 2.295420 1_555
Li5 O6 2.400539 1_545
Li6 O14 2.046627 1_555
Li6 O3 2.057674 1_455
Li6 O13 2.157667 1_555
Li6 O19 2.288115 1_555
Li6 O0 2.320283 1_554
Li7 O18 1.959131 1_555
Li7 O17 1.966124 1_555
Li7 O7 2.125960 1_555
Li7 O11 2.154223 1_555
Li8 O0 1.920571 1_555
Li8 O18 1.994156 1_555
Li8 O8 2.037722 1_555
Li8 O17 2.195227 1_555
Li9 O14 2.105276 1_555
Li9 O13 2.150055 1_555
Li9 O15 2.195249 1_555
Li9 O4 2.220044 1_455
Li9 O11 2.225767 1_555
Fe0 O19 2.012007 1_545
Fe0 O2 2.012007 1_454
Fe0 O21 2.295307 1_455
Fe0 O0 2.295307 1_544
Fe0 O12 2.318470 1_554
Fe0 O9 2.318470 1_445
Fe1 O6 2.130362 1_545
Fe1 O15 2.130362 1_555
Fe1 O11 2.137427 1_555
Fe1 O10 2.137427 1_545
Fe1 O5 2.242749 1_555
Fe1 O16 2.242749 1_545
O0 P1 1.568832 1_455
O1 P0 1.619956 1_555
O1 P2 1.622929 1_555
O2 P0 1.547723 1_555
O3 P1 1.558480 1_554
O4 P2 1.524260 1_555
O5 P5 1.525597 1_645
O6 P0 1.533148 1_565
O7 P2 1.537561 1_555
O8 P1 1.553067 1_555
O9 P1 1.564509 1_554
O10 P3 1.549615 1_555
O11 P2 1.549615 1_555
O12 P4 1.564509 1_556
O13 P4 1.553067 1_555
O14 P3 1.537561 1_555
O15 P5 1.533148 1_545
O16 P0 1.525597 1_465
O17 P3 1.524260 1_555
O18 P4 1.558480 1_556
O19 P5 1.547723 1_555
O20 P5 1.619956 1_555
O20 P3 1.622929 1_555
O21 P4 1.568832 1_655
