# generated using pymatgen
data_Li6Fe2O5F2
_symmetry_space_group_name_H-M   'P 1'
_cell_length_a   5.91689400
_cell_length_b   5.91737694
_cell_length_c   9.96991936
_cell_angle_alpha   93.19609549
_cell_angle_beta   97.05917475
_cell_angle_gamma   118.91062888
_symmetry_Int_Tables_number   1
_chemical_formula_structural   Li6Fe2O5F2
_chemical_formula_sum   'Li12 Fe4 O10 F4'
_cell_volume   300.57583720
_cell_formula_units_Z   2
loop_
 _symmetry_equiv_pos_site_id
 _symmetry_equiv_pos_as_xyz
  1  'x, y, z'
loop_
 _atom_site_type_symbol
 _atom_site_label
 _atom_site_symmetry_multiplicity
 _atom_site_fract_x
 _atom_site_fract_y
 _atom_site_fract_z
 _atom_site_occupancy
  Li  Li0  1  0.12644700  0.20851100  0.09212400  1
  Li  Li1  1  0.13533600  0.47513600  0.60645800  1
  Li  Li2  1  0.12258500  0.91922000  0.58236000  1
  Li  Li3  1  0.13056900  0.68288500  0.09877200  1
  Li  Li4  1  0.41489500  0.33592700  0.88868500  1
  Li  Li5  1  0.41374100  0.07316600  0.39286700  1
  Li  Li6  1  0.58625900  0.92683400  0.60713300  1
  Li  Li7  1  0.58510500  0.66407300  0.11131500  1
  Li  Li8  1  0.86943100  0.31711500  0.90122800  1
  Li  Li9  1  0.87741500  0.08078000  0.41764000  1
  Li  Li10  1  0.86466400  0.52486400  0.39354200  1
  Li  Li11  1  0.87355300  0.79148900  0.90787600  1
  Fe  Fe0  1  0.39034100  0.79129300  0.88525100  1
  Fe  Fe1  1  0.38141400  0.54617500  0.38124400  1
  Fe  Fe2  1  0.61858600  0.45382500  0.61875600  1
  Fe  Fe3  1  0.60965900  0.20870700  0.11474900  1
  O  O0  1  0.24000900  0.49493900  0.97920000  1
  O  O1  1  0.24503300  0.73680000  0.47149300  1
  O  O2  1  0.26157700  0.26006300  0.50162800  1
  O  O3  1  0.50961300  0.63420800  0.74931100  1
  O  O4  1  0.26415200  0.99645200  0.99608900  1
  O  O5  1  0.73584800  0.00354800  0.00391100  1
  O  O6  1  0.49038700  0.36579200  0.25068900  1
  O  O7  1  0.73842300  0.73993700  0.49837200  1
  O  O8  1  0.75496700  0.26320000  0.52850700  1
  O  O9  1  0.75999100  0.50506100  0.02080000  1
  F  F0  1  0.50657100  0.13547200  0.75425700  1
  F  F1  1  0.49342900  0.86452800  0.24574300  1
  F  F2  1  0.01634100  0.66834100  0.74672900  1
  F  F3  1  0.98365900  0.33165900  0.25327100  1
loop_
_geom_bond_atom_site_label_1
_geom_bond_atom_site_label_2
_geom_bond_distance
_geom_bond_site_symmetry_2
Li0 O0 1.972124 1_554
Li0 O4 2.049770 1_544
Li0 O5 2.063260 1_455
Li0 O6 2.250311 1_555
Li1 O8 1.993578 1_455
Li1 O1 2.025982 1_555
Li1 O2 2.057345 1_555
Li1 O3 2.208731 1_555
Li2 O1 1.931802 1_555
Li2 O7 2.023587 1_455
Li2 O2 2.032733 1_565
Li3 O9 1.943794 1_455
Li3 O0 1.953347 1_554
Li3 O4 2.026897 1_554
Li4 O0 1.961318 1_555
Li4 O9 2.030264 1_556
Li4 O4 2.172481 1_545
Li4 O3 2.206525 1_555
Li5 O1 2.004465 1_545
Li5 O8 2.033170 1_555
Li5 O2 2.068451 1_555
Li5 O6 2.210377 1_555
Li6 O8 2.004465 1_565
Li6 O1 2.033170 1_555
Li6 O7 2.068451 1_555
Li6 O3 2.210377 1_555
Li7 O9 1.961318 1_555
Li7 O0 2.030264 1_554
Li7 O5 2.172481 1_565
Li7 O6 2.206525 1_555
Li8 O0 1.943794 1_655
Li8 O9 1.953347 1_556
Li8 O5 2.026897 1_556
Li9 O8 1.931802 1_555
Li9 O2 2.023587 1_655
Li9 O7 2.032733 1_545
Li10 O1 1.993578 1_655
Li10 O8 2.025982 1_555
Li10 O7 2.057345 1_555
Li10 O6 2.208731 1_555
Li11 O9 1.972124 1_556
Li11 O5 2.049770 1_566
Li11 O4 2.063260 1_655
Li11 O3 2.250311 1_555
Fe0 O0 1.903555 1_555
Fe0 O5 1.978279 1_566
Fe0 O3 1.981872 1_555
Fe0 O4 2.045003 1_555
Fe1 O1 1.917952 1_555
Fe1 O6 1.991508 1_555
Fe1 O7 2.010732 1_555
Fe1 O2 2.021062 1_555
Fe2 O8 1.917952 1_555
Fe2 O3 1.991508 1_555
Fe2 O2 2.010732 1_555
Fe2 O7 2.021062 1_555
Fe3 O9 1.903555 1_555
Fe3 O4 1.978279 1_544
Fe3 O6 1.981872 1_555
Fe3 O5 2.045003 1_555
F0 Li4 2.030025 1_555
F0 Li6 2.104513 1_545
F0 Li8 2.175279 1_555
F0 Fe2 2.260462 1_555
F0 Fe0 2.342984 1_545
F0 Li2 2.392473 1_545
F1 Li7 2.030025 1_555
F1 Li5 2.104513 1_565
F1 Li3 2.175279 1_555
F1 Fe1 2.260462 1_555
F1 Fe3 2.342984 1_565
F1 Li9 2.392473 1_565
F2 Li1 2.144900 1_555
F2 Li11 2.150443 1_455
F2 Li2 2.215104 1_555
F2 Fe0 2.216694 1_555
F2 Fe2 2.229543 1_455
F2 Li8 2.527257 1_455
F3 Li10 2.144900 1_555
F3 Li0 2.150443 1_655
F3 Li9 2.215104 1_555
F3 Fe3 2.216694 1_555
F3 Fe1 2.229543 1_655
F3 Li3 2.527257 1_655
