# generated using pymatgen
data_PH3NF5
_symmetry_space_group_name_H-M   'P 1'
_cell_length_a   9.39886600
_cell_length_b   4.86667500
_cell_length_c   9.83667393
_cell_angle_alpha   61.70005375
_cell_angle_beta   90.00000000
_cell_angle_gamma   90.00000000
_symmetry_Int_Tables_number   1
_chemical_formula_structural   PH3NF5
_chemical_formula_sum   'P4 H12 N4 F20'
_cell_volume   396.16352502
_cell_formula_units_Z   4
loop_
 _symmetry_equiv_pos_site_id
 _symmetry_equiv_pos_as_xyz
  1  'x, y, z'
loop_
 _atom_site_type_symbol
 _atom_site_label
 _atom_site_symmetry_multiplicity
 _atom_site_fract_x
 _atom_site_fract_y
 _atom_site_fract_z
 _atom_site_occupancy
  P  P0  1  0.38858000  0.87350000  0.74891200  1
  P  P1  1  0.88858000  0.12650000  0.75108800  1
  P  P2  1  0.11142000  0.87350000  0.24891200  1
  P  P3  1  0.61142000  0.12650000  0.25108800  1
  H  H0  1  0.34205000  0.36639700  0.96908200  1
  H  H1  1  0.22653900  0.62904500  0.96691700  1
  H  H2  1  0.20370000  0.47486200  0.84906900  1
  H  H3  1  0.70369900  0.52513800  0.65093100  1
  H  H4  1  0.84205000  0.63360300  0.53091800  1
  H  H5  1  0.72653900  0.37095500  0.53308300  1
  H  H6  1  0.27346100  0.62904500  0.46691700  1
  H  H7  1  0.15795000  0.36639700  0.46908200  1
  H  H8  1  0.29630000  0.47486200  0.34906900  1
  H  H9  1  0.79630000  0.52513800  0.15093100  1
  H  H10  1  0.77346100  0.37095500  0.03308300  1
  H  H11  1  0.65795000  0.63360300  0.03091800  1
  N  N0  1  0.27878400  0.55241800  0.89909800  1
  N  N1  1  0.77878400  0.44758200  0.60090200  1
  N  N2  1  0.22121600  0.55241800  0.39909800  1
  N  N3  1  0.72121600  0.44758200  0.10090200  1
  F  F0  1  0.78930900  0.14133600  0.88507400  1
  F  F1  1  0.48001100  0.87558800  0.88960900  1
  F  F2  1  0.98239100  0.84687900  0.88000500  1
  F  F3  1  0.27584400  0.12162200  0.75683400  1
  F  F4  1  0.99305200  0.39200000  0.75208900  1
  F  F5  1  0.49305200  0.60800000  0.74791100  1
  F  F6  1  0.77584400  0.87837800  0.74316600  1
  F  F7  1  0.28930900  0.85866400  0.61492600  1
  F  F8  1  0.48239100  0.15312100  0.61999500  1
  F  F9  1  0.98001100  0.12441200  0.61039100  1
  F  F10  1  0.01998900  0.87558800  0.38960900  1
  F  F11  1  0.51760900  0.84687900  0.38000500  1
  F  F12  1  0.71069100  0.14133600  0.38507400  1
  F  F13  1  0.22415600  0.12162200  0.25683400  1
  F  F14  1  0.50694800  0.39200000  0.25208900  1
  F  F15  1  0.00694800  0.60800000  0.24791100  1
  F  F16  1  0.72415600  0.87837800  0.24316600  1
  F  F17  1  0.01760900  0.15312100  0.11999500  1
  F  F18  1  0.51998900  0.12441200  0.11039100  1
  F  F19  1  0.21069100  0.85866400  0.11492600  1
loop_
_geom_bond_atom_site_label_1
_geom_bond_atom_site_label_2
_geom_bond_distance
_geom_bond_site_symmetry_2
H0 N0 1.027689 1_555
H1 N0 1.030106 1_555
H2 N0 1.028970 1_555
H3 N1 1.028977 1_555
H4 N1 1.027689 1_555
H5 N1 1.030106 1_555
H6 N2 1.030106 1_555
H7 N2 1.027689 1_555
H8 N2 1.028970 1_555
H9 N3 1.028970 1_555
H10 N3 1.030106 1_555
H11 N3 1.027689 1_555
N0 P0 1.870916 1_555
N1 P1 1.870916 1_555
N2 P2 1.870916 1_555
N3 P3 1.870916 1_555
F0 P1 1.644098 1_555
F1 P0 1.633201 1_555
F2 P1 1.612804 1_565
F3 P0 1.635895 1_545
F4 P1 1.626608 1_555
F5 P0 1.626608 1_555
F6 P1 1.635895 1_565
F7 P0 1.644098 1_555
F8 P0 1.612804 1_545
F9 P1 1.633201 1_555
F10 P2 1.633201 1_555
F11 P3 1.612804 1_565
F12 P3 1.644098 1_555
F13 P2 1.635895 1_545
F14 P3 1.626608 1_555
F15 P2 1.626608 1_555
F16 P3 1.635895 1_565
F17 P2 1.612804 1_545
F18 P3 1.633201 1_555
F19 P2 1.644098 1_555
