# generated using pymatgen
data_Li2FeSiO4
_symmetry_space_group_name_H-M   'P 1'
_cell_length_a   7.44031700
_cell_length_b   8.24560244
_cell_length_c   7.84343702
_cell_angle_alpha   61.59410783
_cell_angle_beta   89.99885265
_cell_angle_gamma   63.18039480
_symmetry_Int_Tables_number   1
_chemical_formula_structural   Li2FeSiO4
_chemical_formula_sum   'Li8 Fe4 Si4 O16'
_cell_volume   363.33754712
_cell_formula_units_Z   4
loop_
 _symmetry_equiv_pos_site_id
 _symmetry_equiv_pos_as_xyz
  1  'x, y, z'
loop_
 _atom_site_type_symbol
 _atom_site_label
 _atom_site_symmetry_multiplicity
 _atom_site_fract_x
 _atom_site_fract_y
 _atom_site_fract_z
 _atom_site_occupancy
  Li  Li0  1  0.07575800  0.50000000  0.75000900  1
  Li  Li1  1  0.57581700  0.50000100  0.24999500  1
  Li  Li2  1  0.67418900  0.00001200  0.99997100  1
  Li  Li3  1  0.17420900  0.99999800  0.50002000  1
  Li  Li4  1  0.12498300  0.75001300  0.93500400  1
  Li  Li5  1  0.62501400  0.74997200  0.43494500  1
  Li  Li6  1  0.37500100  0.24997800  0.56501000  1
  Li  Li7  1  0.87499600  0.25003500  0.06503300  1
  Fe  Fe0  1  0.37502100  0.24998300  0.19672300  1
  Fe  Fe1  1  0.12497700  0.74997900  0.30331200  1
  Fe  Fe2  1  0.87501900  0.24998500  0.69684300  1
  Fe  Fe3  1  0.62501200  0.75003000  0.80309700  1
  Si  Si0  1  0.32045800  0.99995600  0.00004800  1
  Si  Si1  1  0.82040800  0.00005500  0.49994900  1
  Si  Si2  1  0.42958000  0.49998900  0.75000400  1
  Si  Si3  1  0.92955600  0.50000300  0.24999900  1
  O  O0  1  0.08533100  0.21988800  0.89541600  1
  O  O1  1  0.58530800  0.21996600  0.39538300  1
  O  O2  1  0.80521800  0.78013100  0.60457100  1
  O  O3  1  0.30530000  0.78002000  0.10463600  1
  O  O4  1  0.44478000  0.71988200  0.63471100  1
  O  O5  1  0.94469500  0.71996800  0.13465800  1
  O  O6  1  0.66468800  0.28009800  0.86530300  1
  O  O7  1  0.16468700  0.28005300  0.36533800  1
  O  O8  1  0.95780900  0.99840700  0.66737000  1
  O  O9  1  0.45772800  0.99838600  0.16749800  1
  O  O10  1  0.45625500  0.00159000  0.83264700  1
  O  O11  1  0.95609600  0.00162900  0.33248200  1
  O  O12  1  0.29223700  0.50165700  0.91581400  1
  O  O13  1  0.79218100  0.50162200  0.41581500  1
  O  O14  1  0.29392400  0.49832700  0.58418100  1
  O  O15  1  0.79376200  0.49838600  0.08421500  1
loop_
_geom_bond_atom_site_label_1
_geom_bond_atom_site_label_2
_geom_bond_distance
_geom_bond_site_symmetry_2
Li0 O0 1.996443 1_555
Li0 O2 1.996510 1_455
Li0 O12 2.079074 1_555
Li0 O14 2.079314 1_555
Li1 O3 1.996017 1_555
Li1 O1 1.996185 1_555
Li1 O15 2.077822 1_555
Li1 O13 2.078289 1_555
Li2 O5 1.996073 1_546
Li2 O6 1.996529 1_555
Li2 O10 2.077644 1_555
Li2 O9 2.079234 1_546
Li3 O7 1.996224 1_565
Li3 O4 1.996575 1_555
Li3 O8 2.077993 1_455
Li3 O11 2.079453 1_465
Li4 O12 1.938708 1_555
Li4 O8 1.938878 1_455
Li4 O5 2.060019 1_456
Li4 O3 2.060145 1_556
Li5 O9 1.938206 1_555
Li5 O13 1.938289 1_555
Li5 O4 2.060373 1_555
Li5 O2 2.060423 1_555
Li6 O14 1.938608 1_555
Li6 O10 1.938825 1_555
Li6 O7 2.059914 1_555
Li6 O1 2.059990 1_555
Li7 O11 1.938219 1_555
Li7 O15 1.938481 1_555
Li7 O0 2.060176 1_654
Li7 O6 2.060260 1_554
Fe0 O9 2.008859 1_545
Fe0 O12 2.009178 1_554
Fe0 O1 2.054478 1_555
Fe0 O7 2.054599 1_555
Fe1 O11 2.008929 1_465
Fe1 O14 2.009019 1_555
Fe1 O5 2.054600 1_455
Fe1 O3 2.054817 1_555
Fe2 O13 2.009566 1_555
Fe2 O8 2.009791 1_545
Fe2 O0 2.053746 1_655
Fe2 O6 2.053761 1_555
Fe3 O15 2.009953 1_556
Fe3 O10 2.009990 1_565
Fe3 O2 2.053403 1_555
Fe3 O4 2.053678 1_555
O0 Si0 1.656488 1_546
O1 Si1 1.656322 1_555
O2 Si1 1.656421 1_565
O3 Si0 1.656382 1_555
O4 Si2 1.656230 1_555
O5 Si3 1.656498 1_555
O6 Si2 1.656280 1_555
O7 Si3 1.656558 1_455
O8 Si1 1.655360 1_565
O9 Si0 1.655358 1_555
O10 Si0 1.655416 1_546
O11 Si1 1.655373 1_555
O12 Si2 1.655311 1_555
O13 Si3 1.655452 1_555
O14 Si2 1.655304 1_555
O15 Si3 1.655449 1_555
