# generated using pymatgen
data_Li2CrCoO4
_symmetry_space_group_name_H-M   'P 1'
_cell_length_a   5.91932662
_cell_length_b   5.91297756
_cell_length_c   5.90493751
_cell_angle_alpha   119.88880580
_cell_angle_beta   89.71660703
_cell_angle_gamma   60.06904494
_symmetry_Int_Tables_number   1
_chemical_formula_structural   Li2CrCoO4
_chemical_formula_sum   'Li4 Cr2 Co2 O8'
_cell_volume   146.17800283
_cell_formula_units_Z   2
loop_
 _symmetry_equiv_pos_site_id
 _symmetry_equiv_pos_as_xyz
  1  'x, y, z'
loop_
 _atom_site_type_symbol
 _atom_site_label
 _atom_site_symmetry_multiplicity
 _atom_site_fract_x
 _atom_site_fract_y
 _atom_site_fract_z
 _atom_site_occupancy
  Li  Li0  1  0.49539900  0.00643100  0.50450600  1
  Li  Li1  1  0.99599500  0.50745800  0.00668500  1
  Li  Li2  1  0.99740100  0.50485300  0.50329100  1
  Li  Li3  1  0.99791600  0.00574900  0.50392000  1
  Cr  Cr0  1  0.49780800  0.50424000  0.50291600  1
  Cr  Cr1  1  0.99788000  0.00432000  0.00285700  1
  Co  Co0  1  0.49777500  0.00437000  0.00285700  1
  Co  Co1  1  0.49768600  0.50440700  0.00297800  1
  O  O0  1  0.74001000  0.01992800  0.24623400  1
  O  O1  1  0.25450600  0.51985300  0.76113300  1
  O  O2  1  0.74093900  0.48889200  0.24474900  1
  O  O3  1  0.25559600  0.98861600  0.75943400  1
  O  O4  1  0.26647400  0.49521700  0.25254100  1
  O  O5  1  0.73770400  0.02180700  0.77954300  1
  O  O6  1  0.25761100  0.98718000  0.22646500  1
  O  O7  1  0.72882000  0.51364200  0.75338700  1
loop_
_geom_bond_atom_site_label_1
_geom_bond_atom_site_label_2
_geom_bond_distance
_geom_bond_site_symmetry_2
Li0 O3 2.139660 1_545
Li0 O1 2.149374 1_555
Li0 O0 2.154883 1_555
Li0 O6 2.164759 1_545
Li0 O2 2.165944 1_545
Li0 O5 2.170039 1_555
Li1 O2 2.136767 1_555
Li1 O0 2.145704 1_565
Li1 O1 2.155275 1_654
Li1 O4 2.165250 1_655
Li1 O3 2.171221 1_644
Li1 O7 2.181699 1_554
Li2 O7 2.128145 1_555
Li2 O4 2.129421 1_655
Li2 O1 2.159902 1_655
Li2 O2 2.160212 1_555
Li2 O5 2.164315 1_565
Li2 O6 2.167380 1_645
Li3 O7 2.126096 1_555
Li3 O4 2.136654 1_645
Li3 O3 2.152706 1_645
Li3 O0 2.162256 1_555
Li3 O6 2.164873 1_645
Li3 O5 2.169238 1_555
Cr0 O7 2.018509 1_555
Cr0 O4 2.019424 1_555
Cr0 O0 2.027108 1_555
Cr0 O3 2.027330 1_555
Cr0 O1 2.028013 1_555
Cr0 O2 2.028178 1_555
Cr1 O3 2.026284 1_644
Cr1 O0 2.027149 1_555
Cr1 O1 2.027813 1_644
Cr1 O2 2.028313 1_555
Cr1 O6 2.028636 1_645
Cr1 O5 2.029389 1_554
Co0 O5 2.007387 1_554
Co0 O6 2.008513 1_545
Co0 O3 2.037158 1_544
Co0 O0 2.037161 1_555
Co0 O7 2.054258 1_544
Co0 O4 2.054716 1_555
Co1 O5 2.021308 1_554
Co1 O6 2.022043 1_555
Co1 O2 2.034434 1_555
Co1 O1 2.034437 1_554
Co1 O7 2.044944 1_554
Co1 O4 2.044945 1_555
