# generated using pymatgen
data_Li2VOF4
_symmetry_space_group_name_H-M   'P 1'
_cell_length_a   5.44814000
_cell_length_b   7.20342100
_cell_length_c   9.60725500
_cell_angle_alpha   90.00000000
_cell_angle_beta   90.00000000
_cell_angle_gamma   90.00000000
_symmetry_Int_Tables_number   1
_chemical_formula_structural   Li2VOF4
_chemical_formula_sum   'Li8 V4 O4 F16'
_cell_volume   377.03908669
_cell_formula_units_Z   4
loop_
 _symmetry_equiv_pos_site_id
 _symmetry_equiv_pos_as_xyz
  1  'x, y, z'
loop_
 _atom_site_type_symbol
 _atom_site_label
 _atom_site_symmetry_multiplicity
 _atom_site_fract_x
 _atom_site_fract_y
 _atom_site_fract_z
 _atom_site_occupancy
  Li  Li0  1  0.49948500  0.70146900  0.28037900  1
  Li  Li1  1  0.03418700  0.87480300  0.42822400  1
  Li  Li2  1  0.46581300  0.12519700  0.92822400  1
  Li  Li3  1  0.00051500  0.29853100  0.78037900  1
  Li  Li4  1  0.50051500  0.20146900  0.21962100  1
  Li  Li5  1  0.96581300  0.37480300  0.07177600  1
  Li  Li6  1  0.53418700  0.62519700  0.57177600  1
  Li  Li7  1  0.99948500  0.79853100  0.71962100  1
  V  V0  1  0.97283200  0.94835300  0.05234000  1
  V  V1  1  0.52716800  0.05164700  0.55234000  1
  V  V2  1  0.02716800  0.44835300  0.44766000  1
  V  V3  1  0.47283200  0.55164700  0.94766000  1
  O  O0  1  0.75336400  0.89987800  0.57888300  1
  O  O1  1  0.74663600  0.10012200  0.07888300  1
  O  O2  1  0.24663600  0.39987800  0.92111700  1
  O  O3  1  0.25336400  0.60012200  0.42111700  1
  F  F0  1  0.27282700  0.76582500  0.00217700  1
  F  F1  1  0.77282700  0.73417500  0.99782300  1
  F  F2  1  0.00620400  0.85194500  0.23546200  1
  F  F3  1  0.24945500  0.88965900  0.58931000  1
  F  F4  1  0.48573800  0.98870500  0.35185000  1
  F  F5  1  0.01426200  0.01129500  0.85185000  1
  F  F6  1  0.25054500  0.11034100  0.08931000  1
  F  F7  1  0.49379600  0.14805500  0.73546200  1
  F  F8  1  0.22717300  0.23417500  0.50217700  1
  F  F9  1  0.72717300  0.26582500  0.49782300  1
  F  F10  1  0.99379600  0.35194500  0.26453800  1
  F  F11  1  0.75054500  0.38965900  0.91069000  1
  F  F12  1  0.51426200  0.48870500  0.14815000  1
  F  F13  1  0.98573800  0.51129500  0.64815000  1
  F  F14  1  0.74945500  0.61034100  0.41069000  1
  F  F15  1  0.50620400  0.64805500  0.76453800  1
loop_
_geom_bond_atom_site_label_1
_geom_bond_atom_site_label_2
_geom_bond_distance
_geom_bond_site_symmetry_2
Li0 O3 2.039405 1_555
Li1 O0 2.113867 1_455
Li1 O3 2.312051 1_555
Li2 O1 2.113867 1_556
Li2 O2 2.312051 1_555
Li3 O2 2.039405 1_555
Li4 O1 2.039405 1_555
Li5 O2 2.113867 1_654
Li5 O1 2.312051 1_555
Li6 O3 2.113867 1_555
Li6 O0 2.312051 1_555
Li7 O0 2.039405 1_555
O0 V1 1.667008 1_565
O1 V0 1.667008 1_545
O2 V3 1.667008 1_555
O3 V2 1.667008 1_555
F0 V3 1.960089 1_554
F0 V0 2.152286 1_455
F1 V0 1.960089 1_556
F1 V3 2.152286 1_555
F2 Li1 1.865459 1_555
F2 V0 1.900126 1_455
F3 V1 1.943440 1_565
F3 Li1 1.944732 1_555
F3 Li7 1.962888 1_455
F3 Li6 2.462504 1_555
F4 V1 1.991634 1_565
F4 Li4 1.992295 1_565
F4 Li0 2.181326 1_555
F5 V0 1.991634 1_446
F5 Li7 1.992295 1_445
F5 Li3 2.181326 1_555
F6 V0 1.943440 1_445
F6 Li2 1.944732 1_554
F6 Li4 1.962888 1_555
F6 Li5 2.462504 1_455
F7 Li2 1.865459 1_555
F7 V1 1.900126 1_555
F8 V2 1.960089 1_555
F8 V1 2.152286 1_555
F9 V1 1.960089 1_555
F9 V2 2.152286 1_655
F10 Li5 1.865459 1_555
F10 V2 1.900126 1_655
F11 V3 1.943440 1_555
F11 Li5 1.944732 1_556
F11 Li3 1.962888 1_655
F11 Li2 2.462504 1_555
F12 V3 1.991634 1_554
F12 Li0 1.992295 1_555
F12 Li4 2.181326 1_555
F13 V2 1.991634 1_655
F13 Li3 1.992295 1_655
F13 Li7 2.181326 1_555
F14 V2 1.943440 1_655
F14 Li6 1.944732 1_555
F14 Li0 1.962888 1_555
F14 Li1 2.462504 1_655
F15 Li6 1.865459 1_555
F15 V3 1.900126 1_555
