# generated using pymatgen
data_ZrPbO3
_symmetry_space_group_name_H-M   'P 1'
_cell_length_a   5.88932500
_cell_length_b   5.92742000
_cell_length_c   8.35430900
_cell_angle_alpha   90.00000000
_cell_angle_beta   90.00000000
_cell_angle_gamma   90.00000000
_symmetry_Int_Tables_number   1
_chemical_formula_structural   ZrPbO3
_chemical_formula_sum   'Zr4 Pb4 O12'
_cell_volume   291.63641905
_cell_formula_units_Z   4
loop_
 _symmetry_equiv_pos_site_id
 _symmetry_equiv_pos_as_xyz
  1  'x, y, z'
loop_
 _atom_site_type_symbol
 _atom_site_label
 _atom_site_symmetry_multiplicity
 _atom_site_fract_x
 _atom_site_fract_y
 _atom_site_fract_z
 _atom_site_occupancy
  Zr  Zr0  1  0.00000000  0.00000000  0.00000000  1
  Zr  Zr1  1  0.00000000  0.00000000  0.50000000  1
  Zr  Zr2  1  0.50000000  0.50000000  0.00000000  1
  Zr  Zr3  1  0.50000000  0.50000000  0.50000000  1
  Pb  Pb0  1  0.00692700  0.52386200  0.25000000  1
  Pb  Pb1  1  0.49307300  0.02386200  0.25000000  1
  Pb  Pb2  1  0.50692700  0.97613800  0.75000000  1
  Pb  Pb3  1  0.99307300  0.47613800  0.75000000  1
  O  O0  1  0.07722900  0.01578200  0.75000000  1
  O  O1  1  0.21150900  0.28751200  0.04019200  1
  O  O2  1  0.21150900  0.28751200  0.45980800  1
  O  O3  1  0.28849100  0.78751200  0.04019200  1
  O  O4  1  0.28849100  0.78751200  0.45980800  1
  O  O5  1  0.42277100  0.51578200  0.75000000  1
  O  O6  1  0.57722900  0.48421800  0.25000000  1
  O  O7  1  0.71150900  0.21248800  0.54019200  1
  O  O8  1  0.71150900  0.21248800  0.95980800  1
  O  O9  1  0.78849100  0.71248800  0.54019200  1
  O  O10  1  0.78849100  0.71248800  0.95980800  1
  O  O11  1  0.92277100  0.98421800  0.25000000  1
loop_
_geom_bond_atom_site_label_1
_geom_bond_atom_site_label_2
_geom_bond_distance
_geom_bond_site_symmetry_2
O0 Zr0 2.139573 1_556
O0 Zr1 2.139573 1_555
O0 Pb2 2.541518 1_545
O0 Pb3 2.773368 1_455
O1 Zr0 2.137450 1_555
O1 Zr2 2.141439 1_555
O1 Pb0 2.546885 1_555
O2 Zr1 2.137450 1_555
O2 Zr3 2.141439 1_555
O2 Pb0 2.546885 1_555
O3 Zr2 2.137450 1_555
O3 Zr0 2.141439 1_565
O3 Pb1 2.546885 1_565
O4 Zr3 2.137450 1_555
O4 Zr1 2.141439 1_565
O4 Pb1 2.546885 1_565
O5 Zr3 2.139573 1_555
O5 Zr2 2.139573 1_556
O5 Pb3 2.541518 1_455
O5 Pb2 2.773368 1_555
O6 Zr2 2.139573 1_555
O6 Zr3 2.139573 1_555
O6 Pb0 2.541518 1_655
O6 Pb1 2.773368 1_555
O7 Zr3 2.137450 1_555
O7 Zr1 2.141439 1_655
O7 Pb2 2.546885 1_545
O8 Zr2 2.137450 1_556
O8 Zr0 2.141439 1_656
O8 Pb2 2.546885 1_545
O9 Zr1 2.137450 1_665
O9 Zr3 2.141439 1_555
O9 Pb3 2.546885 1_555
O10 Zr0 2.137450 1_666
O10 Zr2 2.141439 1_556
O10 Pb3 2.546885 1_555
O11 Zr0 2.139573 1_665
O11 Zr1 2.139573 1_665
O11 Pb1 2.541518 1_565
O11 Pb0 2.773368 1_655
