# generated using pymatgen
data_V3(O2F)2
_symmetry_space_group_name_H-M   'P 1'
_cell_length_a   4.60647600
_cell_length_b   4.60647600
_cell_length_c   9.36581600
_cell_angle_alpha   90.00000000
_cell_angle_beta   90.00000000
_cell_angle_gamma   90.00000000
_symmetry_Int_Tables_number   1
_chemical_formula_structural   V3(O2F)2
_chemical_formula_sum   'V6 O8 F4'
_cell_volume   198.73906717
_cell_formula_units_Z   2
loop_
 _symmetry_equiv_pos_site_id
 _symmetry_equiv_pos_as_xyz
  1  'x, y, z'
loop_
 _atom_site_type_symbol
 _atom_site_label
 _atom_site_symmetry_multiplicity
 _atom_site_fract_x
 _atom_site_fract_y
 _atom_site_fract_z
 _atom_site_occupancy
  V  V0  1  0.00000000  0.00000000  0.02041600  1
  V  V1  1  0.00000000  0.00000000  0.33726500  1
  V  V2  1  0.00000000  0.00000000  0.65288200  1
  V  V3  1  0.50000000  0.50000000  0.15288200  1
  V  V4  1  0.50000000  0.50000000  0.83726500  1
  V  V5  1  0.50000000  0.50000000  0.52041600  1
  O  O0  1  0.19550600  0.80449400  0.17067200  1
  O  O1  1  0.21044800  0.78955200  0.49297100  1
  O  O2  1  0.28955200  0.28955200  0.99297100  1
  O  O3  1  0.30449400  0.30449400  0.67067200  1
  O  O4  1  0.71044800  0.71044800  0.99297100  1
  O  O5  1  0.69550600  0.69550600  0.67067200  1
  O  O6  1  0.80449400  0.19550600  0.17067200  1
  O  O7  1  0.78955200  0.21044800  0.49297100  1
  F  F0  1  0.18988000  0.81012000  0.83375700  1
  F  F1  1  0.31012000  0.31012000  0.33375700  1
  F  F2  1  0.68988000  0.68988000  0.33375700  1
  F  F3  1  0.81012000  0.18988000  0.83375700  1
loop_
_geom_bond_atom_site_label_1
_geom_bond_atom_site_label_2
_geom_bond_distance
_geom_bond_site_symmetry_2
O0 V0 1.898038 1_565
O0 V3 1.990624 1_555
O0 V1 2.014103 1_565
O1 V5 1.903731 1_555
O1 V1 2.001560 1_565
O1 V2 2.030434 1_565
O2 V0 1.903731 1_556
O2 V4 2.001560 1_555
O2 V3 2.030434 1_556
O3 V5 1.898038 1_555
O3 V2 1.990624 1_555
O3 V4 2.014103 1_555
O4 V0 1.903731 1_666
O4 V4 2.001560 1_555
O4 V3 2.030434 1_556
O5 V5 1.898038 1_555
O5 V2 1.990624 1_665
O5 V4 2.014103 1_555
O6 V0 1.898038 1_655
O6 V3 1.990624 1_555
O6 V1 2.014103 1_655
O7 V5 1.903731 1_555
O7 V1 2.001560 1_655
O7 V2 2.030434 1_655
F0 V4 2.020557 1_555
F0 V2 2.097594 1_565
F0 V0 2.141582 1_566
F1 V1 2.020557 1_555
F1 V3 2.097594 1_555
F1 V5 2.141582 1_555
F2 V1 2.020557 1_665
F2 V3 2.097594 1_555
F2 V5 2.141582 1_555
F3 V4 2.020557 1_555
F3 V2 2.097594 1_655
F3 V0 2.141582 1_656
