# generated using pymatgen
data_RbHoHS2O9
_symmetry_space_group_name_H-M   'P 1'
_cell_length_a   8.38557800
_cell_length_b   10.26530600
_cell_length_c   10.51102959
_cell_angle_alpha   60.98663842
_cell_angle_beta   90.00000000
_cell_angle_gamma   90.00000000
_symmetry_Int_Tables_number   1
_chemical_formula_structural   RbHoHS2O9
_chemical_formula_sum   'Rb4 Ho4 H4 S8 O36'
_cell_volume   791.24916523
_cell_formula_units_Z   4
loop_
 _symmetry_equiv_pos_site_id
 _symmetry_equiv_pos_as_xyz
  1  'x, y, z'
loop_
 _atom_site_type_symbol
 _atom_site_label
 _atom_site_symmetry_multiplicity
 _atom_site_fract_x
 _atom_site_fract_y
 _atom_site_fract_z
 _atom_site_occupancy
  Rb  Rb0  1  0.84325800  0.78619500  0.68007200  1
  Rb  Rb1  1  0.34325800  0.21380500  0.81992800  1
  Rb  Rb2  1  0.65674200  0.78619500  0.18007200  1
  Rb  Rb3  1  0.15674200  0.21380500  0.31992800  1
  Ho  Ho0  1  0.35705600  0.74253400  0.53733100  1
  Ho  Ho1  1  0.85705600  0.25746600  0.96266900  1
  Ho  Ho2  1  0.14294400  0.74253400  0.03733100  1
  Ho  Ho3  1  0.64294400  0.25746600  0.46266900  1
  H  H0  1  0.53270100  0.32207000  0.03832700  1
  H  H1  1  0.96729900  0.32207000  0.53832700  1
  H  H2  1  0.03270100  0.67793000  0.46167300  1
  H  H3  1  0.46729900  0.67793000  0.96167300  1
  S  S0  1  0.20137500  0.50002800  0.89703600  1
  S  S1  1  0.70137500  0.49997200  0.60296400  1
  S  S2  1  0.63587200  0.05725000  0.31903900  1
  S  S3  1  0.13587200  0.94275000  0.18096100  1
  S  S4  1  0.86412800  0.05725000  0.81903900  1
  S  S5  1  0.36412800  0.94275000  0.68096100  1
  S  S6  1  0.29862500  0.50002800  0.39703600  1
  S  S7  1  0.79862500  0.49997200  0.10296400  1
  O  O0  1  0.09419200  0.68693800  0.53661300  1
  O  O1  1  0.31259100  0.55624300  0.77068300  1
  O  O2  1  0.28965000  0.41653300  0.03424400  1
  O  O3  1  0.88353800  0.37018600  0.10624100  1
  O  O4  1  0.58597000  0.60031500  0.62028300  1
  O  O5  1  0.08597000  0.39968500  0.87971700  1
  O  O6  1  0.51465200  0.17364300  0.29111100  1
  O  O7  1  0.81259100  0.44375700  0.72931700  1
  O  O8  1  0.59419200  0.31306200  0.96338700  1
  O  O9  1  0.75746600  0.07007700  0.41755600  1
  O  O10  1  0.21035000  0.41653300  0.53424400  1
  O  O11  1  0.61646200  0.37018600  0.60624100  1
  O  O12  1  0.71446700  0.07955600  0.18261300  1
  O  O13  1  0.06392900  0.09431800  0.10912600  1
  O  O14  1  0.56392900  0.90568200  0.39087400  1
  O  O15  1  0.21446700  0.92044400  0.31738700  1
  O  O16  1  0.98534800  0.17364300  0.79111100  1
  O  O17  1  0.74253400  0.07007700  0.91755600  1
  O  O18  1  0.25746600  0.92992300  0.08244400  1
  O  O19  1  0.01465200  0.82635700  0.20888900  1
  O  O20  1  0.78553300  0.07955600  0.68261300  1
  O  O21  1  0.43607100  0.09431800  0.60912600  1
  O  O22  1  0.93607100  0.90568200  0.89087400  1
  O  O23  1  0.28553300  0.92044400  0.81738700  1
  O  O24  1  0.38353800  0.62981400  0.39375900  1
  O  O25  1  0.78965000  0.58346700  0.46575600  1
  O  O26  1  0.24253400  0.92992300  0.58244400  1
  O  O27  1  0.40580800  0.68693800  0.03661300  1
  O  O28  1  0.18740900  0.55624300  0.27068300  1
  O  O29  1  0.48534800  0.82635700  0.70888900  1
  O  O30  1  0.91403000  0.60031500  0.12028300  1
  O  O31  1  0.41403000  0.39968500  0.37971700  1
  O  O32  1  0.11646200  0.62981400  0.89375900  1
  O  O33  1  0.71035000  0.58346700  0.96575600  1
  O  O34  1  0.68740900  0.44375700  0.22931700  1
  O  O35  1  0.90580800  0.31306200  0.46338700  1
loop_
_geom_bond_atom_site_label_1
_geom_bond_atom_site_label_2
_geom_bond_distance
_geom_bond_site_symmetry_2
Ho0 O0 2.277880 1_555
Ho0 O1 2.293949 1_555
Ho0 O4 2.311191 1_555
Ho0 O24 2.315037 1_555
Ho0 O14 2.383927 1_555
Ho0 O26 2.394191 1_555
Ho0 O15 2.452363 1_555
Ho0 O29 2.579652 1_555
Ho1 O8 2.277880 1_555
Ho1 O7 2.293949 1_555
Ho1 O5 2.311191 1_655
Ho1 O3 2.315037 1_556
Ho1 O13 2.383927 1_656
Ho1 O17 2.394191 1_555
Ho1 O12 2.452363 1_556
Ho1 O16 2.579652 1_555
Ho2 O27 2.277880 1_555
Ho2 O28 2.293949 1_555
Ho2 O30 2.311191 1_455
Ho2 O32 2.315037 1_554
Ho2 O22 2.383927 1_454
Ho2 O18 2.394191 1_555
Ho2 O23 2.452363 1_554
Ho2 O19 2.579652 1_555
Ho3 O35 2.277880 1_555
Ho3 O34 2.293949 1_555
Ho3 O31 2.311191 1_555
Ho3 O11 2.315037 1_555
Ho3 O21 2.383927 1_555
Ho3 O9 2.394191 1_555
Ho3 O20 2.452363 1_555
Ho3 O6 2.579652 1_555
H0 O8 0.982626 1_554
H1 O35 0.982626 1_555
H2 O0 0.982626 1_555
H3 O27 0.982626 1_556
O0 Rb0 3.038101 1_455
O1 S0 1.491036 1_555
O1 Rb1 3.305435 1_555
O2 S0 1.470866 1_554
O2 Rb3 2.920305 1_555
O3 S7 1.496223 1_555
O3 Rb3 3.061508 1_655
O4 S1 1.487465 1_555
O4 Rb0 3.139091 1_555
O5 S0 1.487465 1_555
O5 Rb1 3.139091 1_555
O6 S2 1.485526 1_555
O6 Rb3 3.064400 1_555
O7 S1 1.491036 1_555
O7 Rb0 3.305435 1_555
O8 Rb1 3.038101 1_555
O9 S2 1.503845 1_555
O9 Rb0 2.970447 1_545
O10 S6 1.470866 1_555
O10 Rb1 2.920305 1_555
O11 S1 1.496223 1_555
O11 Rb1 3.061508 1_555
O12 S2 1.491503 1_555
O12 Rb2 3.062975 1_545
O13 S3 1.488384 1_545
O13 Rb3 3.107419 1_555
O14 S2 1.488384 1_565
O14 Rb2 3.107419 1_555
O15 S3 1.491503 1_555
O15 Rb3 3.062975 1_565
O16 S4 1.485526 1_555
O16 Rb1 3.064400 1_655
O17 S4 1.503845 1_555
O17 Rb2 2.970447 1_546
O18 S3 1.503845 1_555
O18 Rb1 2.970447 1_564
O19 S3 1.485526 1_555
O19 Rb2 3.064400 1_455
O20 S4 1.491503 1_555
O20 Rb0 3.062975 1_545
O21 S5 1.488384 1_545
O21 Rb1 3.107419 1_555
O22 S4 1.488384 1_565
O22 Rb0 3.107419 1_555
O23 S5 1.491503 1_555
O23 Rb1 3.062975 1_565
O24 S6 1.496223 1_555
O24 Rb2 3.061508 1_555
O25 S1 1.470866 1_555
O25 Rb2 2.920305 1_555
O26 S5 1.503845 1_555
O26 Rb3 2.970447 1_565
O27 Rb2 3.038101 1_555
O28 S6 1.491036 1_555
O28 Rb3 3.305435 1_555
O29 S5 1.485526 1_555
O29 Rb0 3.064400 1_555
O30 S7 1.487465 1_555
O30 Rb2 3.139091 1_555
O31 S6 1.487465 1_555
O31 Rb3 3.139091 1_555
O32 S0 1.496223 1_555
O32 Rb0 3.061508 1_455
O33 S7 1.470866 1_556
O33 Rb0 2.920305 1_555
O34 S7 1.491036 1_555
O34 Rb2 3.305435 1_555
O35 Rb3 3.038101 1_655
