# generated using pymatgen
data_Sr5As5HO18
_symmetry_space_group_name_H-M   'P 1'
_cell_length_a   7.26478700
_cell_length_b   7.26845500
_cell_length_c   33.62024204
_cell_angle_alpha   81.52906155
_cell_angle_beta   90.00000000
_cell_angle_gamma   90.00000000
_symmetry_Int_Tables_number   1
_chemical_formula_structural   Sr5As5HO18
_chemical_formula_sum   'Sr20 As20 H4 O72'
_cell_volume   1755.90877466
_cell_formula_units_Z   4
loop_
 _symmetry_equiv_pos_site_id
 _symmetry_equiv_pos_as_xyz
  1  'x, y, z'
loop_
 _atom_site_type_symbol
 _atom_site_label
 _atom_site_symmetry_multiplicity
 _atom_site_fract_x
 _atom_site_fract_y
 _atom_site_fract_z
 _atom_site_occupancy
  Sr  Sr0  1  0.84808200  0.16851200  0.24582400  1
  Sr  Sr1  1  0.65191800  0.16851200  0.74582400  1
  Sr  Sr2  1  0.15191800  0.83148800  0.75417600  1
  Sr  Sr3  1  0.34808200  0.83148800  0.25417600  1
  Sr  Sr4  1  0.59817100  0.66405900  0.44390000  1
  Sr  Sr5  1  0.90182900  0.66405900  0.94390000  1
  Sr  Sr6  1  0.40182900  0.33594100  0.55610000  1
  Sr  Sr7  1  0.09817100  0.33594100  0.05610000  1
  Sr  Sr8  1  0.15853200  0.32091800  0.44559300  1
  Sr  Sr9  1  0.34146800  0.32091800  0.94559300  1
  Sr  Sr10  1  0.84146800  0.67908200  0.55440700  1
  Sr  Sr11  1  0.65853200  0.67908200  0.05440700  1
  Sr  Sr12  1  0.11437100  0.99058800  0.35485000  1
  Sr  Sr13  1  0.38562900  0.99058800  0.85485000  1
  Sr  Sr14  1  0.88562900  0.00941200  0.64515000  1
  Sr  Sr15  1  0.61437100  0.00941200  0.14515000  1
  Sr  Sr16  1  0.77453700  0.45796500  0.34358800  1
  Sr  Sr17  1  0.72546300  0.45796500  0.84358800  1
  Sr  Sr18  1  0.22546300  0.54203500  0.65641200  1
  Sr  Sr19  1  0.27453700  0.54203500  0.15641200  1
  As  As0  1  0.65705400  0.20299500  0.45796100  1
  As  As1  1  0.84294600  0.20299500  0.95796100  1
  As  As2  1  0.34294600  0.79700500  0.54203900  1
  As  As3  1  0.15705400  0.79700500  0.04203900  1
  As  As4  1  0.90423600  0.18807400  0.53930900  1
  As  As5  1  0.59576400  0.18807400  0.03930900  1
  As  As6  1  0.09576400  0.81192600  0.46069100  1
  As  As7  1  0.40423600  0.81192600  0.96069100  1
  As  As8  1  0.33962100  0.30717600  0.26642600  1
  As  As9  1  0.16037900  0.30717600  0.76642600  1
  As  As10  1  0.66037900  0.69282400  0.73357400  1
  As  As11  1  0.83962100  0.69282400  0.23357400  1
  As  As12  1  0.29521400  0.49406900  0.34814000  1
  As  As13  1  0.20478600  0.49406900  0.84814000  1
  As  As14  1  0.70478600  0.50593100  0.65186000  1
  As  As15  1  0.79521400  0.50593100  0.15186000  1
  As  As16  1  0.67234000  0.91360400  0.34299400  1
  As  As17  1  0.82766000  0.91360400  0.84299400  1
  As  As18  1  0.32766000  0.08639600  0.65700600  1
  As  As19  1  0.17234000  0.08639600  0.15700600  1
  H  H0  1  0.50675500  0.01536500  0.39481600  1
  H  H1  1  0.99324500  0.01536500  0.89481600  1
  H  H2  1  0.49324500  0.98463500  0.60518400  1
  H  H3  1  0.00675500  0.98463500  0.10518400  1
  O  O0  1  0.56720600  0.02238400  0.43779900  1
  O  O1  1  0.93279400  0.02238400  0.93779900  1
  O  O2  1  0.43279400  0.97761600  0.56220100  1
  O  O3  1  0.06720600  0.97761600  0.06220100  1
  O  O4  1  0.79821500  0.35805200  0.42918600  1
  O  O5  1  0.70178500  0.35805200  0.92918600  1
  O  O6  1  0.20178500  0.64194800  0.57081400  1
  O  O7  1  0.29821500  0.64194800  0.07081400  1
  O  O8  1  0.48920300  0.32871000  0.47765800  1
  O  O9  1  0.01079700  0.32871000  0.97765800  1
  O  O10  1  0.51079700  0.67129000  0.52234200  1
  O  O11  1  0.98920300  0.67129000  0.02234200  1
  O  O12  1  0.79519900  0.08896500  0.49870400  1
  O  O13  1  0.70480100  0.08896500  0.99870400  1
  O  O14  1  0.20480100  0.91103500  0.50129600  1
  O  O15  1  0.29519900  0.91103500  0.00129600  1
  O  O16  1  0.09732600  0.29854800  0.52002300  1
  O  O17  1  0.40267400  0.29854800  0.02002300  1
  O  O18  1  0.90267400  0.70145200  0.47997700  1
  O  O19  1  0.59732600  0.70145200  0.97997700  1
  O  O20  1  0.93186500  0.98997900  0.57240100  1
  O  O21  1  0.56813500  0.98997900  0.07240100  1
  O  O22  1  0.06813500  0.01002100  0.42759900  1
  O  O23  1  0.43186500  0.01002100  0.92759900  1
  O  O24  1  0.75931900  0.33606400  0.55845500  1
  O  O25  1  0.74068100  0.33606400  0.05845500  1
  O  O26  1  0.24068100  0.66393600  0.44154500  1
  O  O27  1  0.25931900  0.66393600  0.94154500  1
  O  O28  1  0.12001900  0.34670700  0.36643000  1
  O  O29  1  0.37998100  0.34670700  0.86643000  1
  O  O30  1  0.87998100  0.65329300  0.63357000  1
  O  O31  1  0.62001900  0.65329300  0.13357000  1
  O  O32  1  0.46288800  0.49249500  0.38352300  1
  O  O33  1  0.03711200  0.49249500  0.88352300  1
  O  O34  1  0.53711200  0.50750500  0.61647700  1
  O  O35  1  0.96288800  0.50750500  0.11647700  1
  O  O36  1  0.20411000  0.69857400  0.32579900  1
  O  O37  1  0.29589000  0.69857400  0.82579900  1
  O  O38  1  0.79589000  0.30142600  0.67420100  1
  O  O39  1  0.70411000  0.30142600  0.17420100  1
  O  O40  1  0.43003400  0.39364400  0.31134100  1
  O  O41  1  0.06996600  0.39364400  0.81134100  1
  O  O42  1  0.56996600  0.60635600  0.68865900  1
  O  O43  1  0.93003400  0.60635600  0.18865900  1
  O  O44  1  0.30477400  0.50534200  0.23368300  1
  O  O45  1  0.19522600  0.50534200  0.73368300  1
  O  O46  1  0.69522600  0.49465800  0.76631700  1
  O  O47  1  0.80477400  0.49465800  0.26631700  1
  O  O48  1  0.50066400  0.15959600  0.25323100  1
  O  O49  1  0.99933600  0.15959600  0.75323100  1
  O  O50  1  0.49933600  0.84040400  0.74676900  1
  O  O51  1  0.00066400  0.84040400  0.24676900  1
  O  O52  1  0.15479600  0.17528500  0.28438300  1
  O  O53  1  0.34520400  0.17528500  0.78438300  1
  O  O54  1  0.84520400  0.82471500  0.71561700  1
  O  O55  1  0.65479600  0.82471500  0.21561700  1
  O  O56  1  0.79718600  0.11216800  0.32738100  1
  O  O57  1  0.70281400  0.11216800  0.82738100  1
  O  O58  1  0.20281400  0.88783200  0.67261900  1
  O  O59  1  0.29718600  0.88783200  0.17261900  1
  O  O60  1  0.61454900  0.79004300  0.30616800  1
  O  O61  1  0.88545100  0.79004300  0.80616800  1
  O  O62  1  0.38545100  0.20995700  0.69383200  1
  O  O63  1  0.11454900  0.20995700  0.19383200  1
  O  O64  1  0.80489600  0.77297000  0.37735000  1
  O  O65  1  0.69510400  0.77297000  0.87735000  1
  O  O66  1  0.19510400  0.22703000  0.62265000  1
  O  O67  1  0.30489600  0.22703000  0.12265000  1
  O  O68  1  0.46720600  0.97183800  0.36804900  1
  O  O69  1  0.03279400  0.97183800  0.86804900  1
  O  O70  1  0.53279400  0.02816200  0.63195100  1
  O  O71  1  0.96720600  0.02816200  0.13195100  1
loop_
_geom_bond_atom_site_label_1
_geom_bond_atom_site_label_2
_geom_bond_distance
_geom_bond_site_symmetry_2
As0 O0 1.694416 1_555
As0 O4 1.713630 1_555
As0 O8 1.714261 1_555
As0 O12 1.798886 1_555
As1 O1 1.694416 1_555
As1 O5 1.713630 1_555
As1 O9 1.714261 1_655
As1 O13 1.798886 1_555
As2 O2 1.694416 1_555
As2 O6 1.713630 1_555
As2 O10 1.714261 1_555
As2 O14 1.798886 1_555
As3 O3 1.694416 1_555
As3 O7 1.713630 1_555
As3 O11 1.714261 1_455
As3 O15 1.798886 1_555
As4 O20 1.696845 1_545
As4 O16 1.696918 1_655
As4 O24 1.698158 1_555
As4 O12 1.816526 1_555
As5 O21 1.696845 1_545
As5 O17 1.696918 1_555
As5 O25 1.698158 1_555
As5 O13 1.816526 1_554
As6 O22 1.696845 1_565
As6 O18 1.696918 1_455
As6 O26 1.698158 1_555
As6 O14 1.816526 1_555
As7 O23 1.696845 1_565
As7 O19 1.696918 1_555
As7 O27 1.698158 1_555
As7 O15 1.816526 1_556
As8 O48 1.690089 1_555
As8 O44 1.698060 1_555
As8 O52 1.707585 1_555
As8 O40 1.840188 1_555
As9 O49 1.690089 1_455
As9 O45 1.698060 1_555
As9 O53 1.707585 1_555
As9 O41 1.840188 1_555
As10 O50 1.690089 1_555
As10 O46 1.698060 1_555
As10 O54 1.707585 1_555
As10 O42 1.840188 1_555
As11 O51 1.690089 1_655
As11 O47 1.698060 1_555
As11 O55 1.707585 1_555
As11 O43 1.840188 1_555
As12 O36 1.697873 1_555
As12 O32 1.701482 1_555
As12 O28 1.717912 1_555
As12 O40 1.813506 1_555
As13 O37 1.697873 1_555
As13 O33 1.701482 1_555
As13 O29 1.717912 1_555
As13 O41 1.813506 1_555
As14 O38 1.697873 1_555
As14 O34 1.701482 1_555
As14 O30 1.717912 1_555
As14 O42 1.813506 1_555
As15 O39 1.697873 1_555
As15 O35 1.701482 1_555
As15 O31 1.717912 1_555
As15 O43 1.813506 1_555
As16 O60 1.686217 1_555
As16 O56 1.719864 1_565
As16 O64 1.720039 1_555
As16 O68 1.792937 1_555
As17 O61 1.686217 1_555
As17 O57 1.719864 1_565
As17 O65 1.720039 1_555
As17 O69 1.792937 1_655
As18 O62 1.686217 1_555
As18 O58 1.719864 1_545
As18 O66 1.720039 1_555
As18 O70 1.792937 1_555
As19 O63 1.686217 1_555
As19 O59 1.719864 1_545
As19 O67 1.720039 1_555
As19 O71 1.792937 1_455
H0 O68 1.037480 1_545
H0 O0 1.518387 1_555
H1 O69 1.037480 1_645
H1 O1 1.518387 1_555
H2 O70 1.037480 1_565
H2 O2 1.518387 1_555
H3 O71 1.037480 1_465
H3 O3 1.518387 1_555
O0 Sr4 2.592016 1_545
O1 Sr5 2.592016 1_545
O2 Sr6 2.592016 1_565
O3 Sr7 2.592016 1_565
O4 Sr8 2.680527 1_655
O4 Sr4 2.761874 1_555
O4 Sr16 2.867601 1_555
O5 Sr9 2.680527 1_555
O5 Sr5 2.761874 1_555
O5 Sr17 2.867601 1_555
O6 Sr10 2.680527 1_455
O6 Sr6 2.761874 1_555
O6 Sr18 2.867601 1_555
O7 Sr11 2.680527 1_555
O7 Sr7 2.761874 1_555
O7 Sr19 2.867601 1_555
O8 Sr8 2.637077 1_555
O8 Sr4 2.653492 1_555
O8 Sr6 2.720577 1_555
O9 Sr9 2.637077 1_555
O9 Sr5 2.653492 1_455
O9 Sr7 2.720577 1_556
O10 Sr10 2.637077 1_555
O10 Sr6 2.653492 1_555
O10 Sr4 2.720577 1_555
O11 Sr11 2.637077 1_555
O11 Sr7 2.653492 1_655
O11 Sr5 2.720577 1_554
O16 Sr8 2.523105 1_555
O16 Sr6 2.556514 1_555
O17 Sr9 2.523105 1_554
O17 Sr7 2.556514 1_555
O18 Sr10 2.523105 1_555
O18 Sr4 2.556514 1_555
O19 Sr11 2.523105 1_556
O19 Sr5 2.556514 1_555
O20 Sr14 2.493328 1_565
O20 Sr10 2.511263 1_555
O21 Sr15 2.493328 1_565
O21 Sr11 2.511263 1_555
O22 Sr12 2.493328 1_545
O22 Sr8 2.511263 1_555
O23 Sr13 2.493328 1_545
O23 Sr9 2.511263 1_555
O24 Sr10 2.547709 1_555
O24 Sr6 2.598299 1_555
O25 Sr11 2.547709 1_555
O25 Sr7 2.598299 1_655
O26 Sr8 2.547709 1_555
O26 Sr4 2.598299 1_555
O27 Sr9 2.547709 1_555
O27 Sr5 2.598299 1_455
O28 Sr8 2.655167 1_555
O28 Sr12 2.673976 1_545
O28 Sr16 2.712951 1_455
O29 Sr9 2.655167 1_555
O29 Sr13 2.673976 1_545
O29 Sr17 2.712951 1_555
O30 Sr10 2.655167 1_555
O30 Sr14 2.673976 1_565
O30 Sr18 2.712951 1_655
O31 Sr11 2.655167 1_555
O31 Sr15 2.673976 1_565
O31 Sr19 2.712951 1_555
O32 Sr16 2.662873 1_555
O32 Sr4 2.717927 1_555
O33 Sr17 2.662873 1_455
O33 Sr5 2.717927 1_455
O34 Sr18 2.662873 1_555
O34 Sr6 2.717927 1_555
O35 Sr19 2.662873 1_655
O35 Sr7 2.717927 1_655
O36 Sr12 2.548466 1_555
O36 Sr3 2.672131 1_555
O37 Sr13 2.548466 1_555
O37 Sr2 2.672131 1_555
O38 Sr14 2.548466 1_555
O38 Sr1 2.672131 1_555
O39 Sr15 2.548466 1_555
O39 Sr0 2.672131 1_555
O40 Sr16 2.794100 1_555
O41 Sr17 2.794100 1_455
O42 Sr18 2.794100 1_555
O43 Sr19 2.794100 1_655
O44 Sr19 2.581508 1_555
O44 Sr3 2.583507 1_555
O45 Sr18 2.581508 1_555
O45 Sr2 2.583507 1_555
O46 Sr17 2.581508 1_555
O46 Sr1 2.583507 1_555
O47 Sr16 2.581508 1_555
O47 Sr0 2.583507 1_555
O48 Sr0 2.536064 1_555
O48 Sr3 2.625806 1_545
O49 Sr1 2.536064 1_555
O49 Sr2 2.625806 1_645
O50 Sr2 2.536064 1_555
O50 Sr1 2.625806 1_565
O51 Sr3 2.536064 1_555
O51 Sr0 2.625806 1_465
O52 Sr12 2.562062 1_545
O52 Sr0 2.581997 1_455
O52 Sr3 3.161508 1_545
O53 Sr13 2.562062 1_545
O53 Sr1 2.581997 1_555
O53 Sr2 3.161508 1_545
O54 Sr14 2.562062 1_565
O54 Sr2 2.581997 1_655
O54 Sr1 3.161508 1_565
O55 Sr15 2.562062 1_565
O55 Sr3 2.581997 1_555
O55 Sr0 3.161508 1_565
O56 Sr12 2.589030 1_645
O56 Sr16 2.654182 1_555
O56 Sr0 2.737148 1_555
O57 Sr13 2.589030 1_545
O57 Sr17 2.654182 1_555
O57 Sr1 2.737148 1_555
O58 Sr14 2.589030 1_465
O58 Sr18 2.654182 1_555
O58 Sr2 2.737148 1_555
O59 Sr15 2.589030 1_565
O59 Sr19 2.654182 1_555
O59 Sr3 2.737148 1_555
O60 Sr3 2.595858 1_555
O60 Sr16 2.804447 1_555
O61 Sr2 2.595858 1_655
O61 Sr17 2.804447 1_555
O62 Sr1 2.595858 1_555
O62 Sr18 2.804447 1_555
O63 Sr0 2.595858 1_455
O63 Sr19 2.804447 1_555
O64 Sr16 2.710167 1_555
O64 Sr4 2.714104 1_555
O64 Sr12 2.788611 1_655
O65 Sr17 2.710167 1_555
O65 Sr5 2.714104 1_555
O65 Sr13 2.788611 1_555
O66 Sr18 2.710167 1_555
O66 Sr6 2.714104 1_555
O66 Sr14 2.788611 1_455
O67 Sr19 2.710167 1_555
O67 Sr7 2.714104 1_555
O67 Sr15 2.788611 1_555
O68 Sr12 2.601544 1_555
O69 Sr13 2.601544 1_555
O70 Sr14 2.601544 1_555
O71 Sr15 2.601544 1_555
