# generated using pymatgen
data_Rb2Pd
_symmetry_space_group_name_H-M   'P 1'
_cell_length_a   5.75192667
_cell_length_b   5.75192667
_cell_length_c   5.86598502
_cell_angle_alpha   61.39783404
_cell_angle_beta   61.39783404
_cell_angle_gamma   60.46441818
_symmetry_Int_Tables_number   1
_chemical_formula_structural   Rb2Pd
_chemical_formula_sum   'Rb2 Pd1'
_cell_volume   140.56431782
_cell_formula_units_Z   1
loop_
 _symmetry_equiv_pos_site_id
 _symmetry_equiv_pos_as_xyz
  1  'x, y, z'
loop_
 _atom_site_type_symbol
 _atom_site_label
 _atom_site_symmetry_multiplicity
 _atom_site_fract_x
 _atom_site_fract_y
 _atom_site_fract_z
 _atom_site_occupancy
  Rb  Rb0  1  0.24942400  0.24942400  0.25540500  1
  Rb  Rb1  1  0.75057600  0.75057600  0.74459500  1
  Pd  Pd0  1  0.00000000  0.00000000  0.00000000  1
loop_
_geom_bond_atom_site_label_1
_geom_bond_atom_site_label_2
_geom_bond_distance
_geom_bond_site_symmetry_2
Rb0 Rb1 4.081494 1_455
Rb0 Rb1 4.081494 1_545
Rb0 Rb1 4.129289 1_445
Rb0 Rb1 4.153277 1_554
Rb0 Rb1 4.162704 1_454
Rb0 Rb1 4.162704 1_544
Pd0 Rb0 3.536438 1_555
Pd0 Rb1 3.536438 1_444
Pd0 Rb1 3.563704 1_454
Pd0 Rb1 3.563704 1_544
Pd0 Rb0 3.563704 1_455
Pd0 Rb0 3.563704 1_545
Pd0 Rb0 3.636483 1_554
Pd0 Rb1 3.636483 1_445
