# generated using pymatgen
data_Na3CoBAsO7
_symmetry_space_group_name_H-M   'P 1'
_cell_length_a   5.29219981
_cell_length_b   11.39417501
_cell_length_c   11.38827346
_cell_angle_alpha   106.53478349
_cell_angle_beta   90.82388486
_cell_angle_gamma   89.10633947
_symmetry_Int_Tables_number   1
_chemical_formula_structural   Na3CoBAsO7
_chemical_formula_sum   'Na12 Co4 B4 As4 O28'
_cell_volume   658.20261324
_cell_formula_units_Z   4
loop_
 _symmetry_equiv_pos_site_id
 _symmetry_equiv_pos_as_xyz
  1  'x, y, z'
loop_
 _atom_site_type_symbol
 _atom_site_label
 _atom_site_symmetry_multiplicity
 _atom_site_fract_x
 _atom_site_fract_y
 _atom_site_fract_z
 _atom_site_occupancy
  Na  Na0  1  0.76062500  0.16586300  0.08445100  1
  Na  Na1  1  0.75804900  0.66547600  0.58469500  1
  Na  Na2  1  0.23931000  0.83410300  0.91546000  1
  Na  Na3  1  0.24204600  0.33449800  0.41536900  1
  Na  Na4  1  0.24497900  0.12224600  0.87757800  1
  Na  Na5  1  0.24217700  0.62248400  0.37746000  1
  Na  Na6  1  0.24448900  0.37246800  0.12804000  1
  Na  Na7  1  0.24342400  0.87288000  0.62738800  1
  Na  Na8  1  0.75557400  0.62750000  0.87206000  1
  Na  Na9  1  0.75651700  0.12720800  0.37259900  1
  Na  Na10  1  0.75491700  0.87777400  0.12248700  1
  Na  Na11  1  0.75808000  0.37747800  0.62251300  1
  Co  Co0  1  0.77640800  0.04179000  0.70832900  1
  Co  Co1  1  0.22344900  0.95817400  0.29170600  1
  Co  Co2  1  0.77588000  0.54141800  0.20866200  1
  Co  Co3  1  0.22398700  0.45857800  0.79120900  1
  B  B0  1  0.73885900  0.40624000  0.34348200  1
  B  B1  1  0.73793500  0.90680100  0.84333600  1
  B  B2  1  0.26137200  0.59382400  0.65653600  1
  B  B3  1  0.26193900  0.09316300  0.15670800  1
  As  As0  1  0.71279000  0.33738900  0.91281700  1
  As  As1  1  0.71400400  0.83698100  0.41310800  1
  As  As2  1  0.28701100  0.66258100  0.08709600  1
  As  As3  1  0.28610900  0.16300700  0.58691700  1
  O  O0  1  0.31355600  0.16524200  0.08500200  1
  O  O1  1  0.31173100  0.66567700  0.58447100  1
  O  O2  1  0.68640300  0.83469000  0.91500300  1
  O  O3  1  0.68852300  0.33437500  0.41552200  1
  O  O4  1  0.97592700  0.43639500  0.31168000  1
  O  O5  1  0.97535600  0.93832800  0.81346500  1
  O  O6  1  0.02424500  0.56369300  0.68833500  1
  O  O7  1  0.02449300  0.06176000  0.18664100  1
  O  O8  1  0.54463800  0.46224900  0.28918700  1
  O  O9  1  0.54457700  0.96153000  0.78724700  1
  O  O10  1  0.45550900  0.53777400  0.71081300  1
  O  O11  1  0.45525300  0.03837300  0.21275400  1
  O  O12  1  0.39077100  0.35619800  0.89279400  1
  O  O13  1  0.39183200  0.85685700  0.39476300  1
  O  O14  1  0.60909000  0.64386000  0.10711900  1
  O  O15  1  0.60828800  0.14304100  0.60516700  1
  O  O16  1  0.13083700  0.58089000  0.16849400  1
  O  O17  1  0.13064700  0.08192400  0.66916900  1
  O  O18  1  0.86911900  0.41900300  0.83143100  1
  O  O19  1  0.86934500  0.91824400  0.33099300  1
  O  O20  1  0.79091400  0.18377100  0.87040300  1
  O  O21  1  0.79144300  0.68325000  0.37081000  1
  O  O22  1  0.78926200  0.37937200  0.06666900  1
  O  O23  1  0.79365600  0.87934900  0.56654500  1
  O  O24  1  0.21058100  0.62061000  0.93326500  1
  O  O25  1  0.20634800  0.12066300  0.43349500  1
  O  O26  1  0.20877500  0.81618300  0.12961600  1
  O  O27  1  0.20895100  0.31677600  0.62914300  1
loop_
_geom_bond_atom_site_label_1
_geom_bond_atom_site_label_2
_geom_bond_distance
_geom_bond_site_symmetry_2
Na0 O7 2.323516 1_655
Na0 O0 2.366203 1_555
Na0 O22 2.505013 1_555
Na0 O20 2.510931 1_554
Na0 O11 2.864637 1_555
Na0 O0 2.926040 1_655
Na1 O6 2.324434 1_655
Na1 O1 2.361935 1_555
Na1 O21 2.509891 1_555
Na1 O23 2.513741 1_555
Na1 O10 2.841113 1_555
Na1 O1 2.930271 1_655
Na2 O5 2.323262 1_455
Na2 O2 2.366304 1_555
Na2 O24 2.504963 1_555
Na2 O26 2.512307 1_556
Na2 O9 2.863162 1_555
Na2 O2 2.925931 1_455
Na3 O4 2.325375 1_455
Na3 O3 2.362800 1_555
Na3 O27 2.508287 1_555
Na3 O25 2.513257 1_555
Na3 O8 2.842124 1_555
Na3 O3 2.929402 1_455
Na4 O0 2.296498 1_556
Na4 O17 2.357331 1_555
Na4 O9 2.410319 1_545
Na4 O5 2.480536 1_445
Na4 O20 2.499389 1_455
Na4 O12 2.743834 1_555
Na5 O1 2.292552 1_555
Na5 O16 2.358283 1_555
Na5 O8 2.411751 1_555
Na5 O21 2.479570 1_455
Na5 O4 2.490209 1_455
Na5 O13 2.749466 1_555
Na6 O0 2.295313 1_555
Na6 O16 2.356765 1_555
Na6 O8 2.415748 1_555
Na6 O4 2.471930 1_455
Na6 O22 2.505122 1_455
Na6 O12 2.753805 1_554
Na7 O1 2.294582 1_555
Na7 O17 2.361085 1_565
Na7 O9 2.407226 1_555
Na7 O23 2.475349 1_455
Na7 O5 2.492644 1_455
Na7 O13 2.729195 1_555
Na8 O2 2.295081 1_555
Na8 O18 2.357265 1_555
Na8 O10 2.416039 1_555
Na8 O6 2.472951 1_655
Na8 O24 2.503475 1_655
Na8 O14 2.751861 1_556
Na9 O3 2.293942 1_555
Na9 O19 2.360450 1_545
Na9 O11 2.407966 1_555
Na9 O25 2.475916 1_655
Na9 O7 2.491315 1_655
Na9 O15 2.728753 1_555
Na10 O2 2.297032 1_554
Na10 O19 2.358355 1_555
Na10 O11 2.409550 1_565
Na10 O7 2.481009 1_665
Na10 O26 2.498497 1_655
Na10 O14 2.743098 1_555
Na11 O3 2.292412 1_555
Na11 O18 2.357450 1_555
Na11 O10 2.412636 1_555
Na11 O27 2.480043 1_655
Na11 O6 2.491087 1_655
Na11 O15 2.750280 1_555
Co0 O9 1.919333 1_545
Co0 O17 2.022222 1_655
Co0 O15 2.052366 1_555
Co0 O20 2.080866 1_555
Co0 O23 2.083064 1_545
Co0 O5 2.158765 1_545
Co1 O11 1.919046 1_565
Co1 O19 2.021282 1_455
Co1 O13 2.052618 1_555
Co1 O26 2.081079 1_555
Co1 O25 2.083427 1_565
Co1 O7 2.159200 1_565
Co2 O8 1.920907 1_555
Co2 O16 2.026938 1_655
Co2 O14 2.045887 1_555
Co2 O22 2.080571 1_555
Co2 O21 2.080745 1_555
Co2 O4 2.157092 1_555
Co3 O10 1.921152 1_555
Co3 O18 2.027037 1_455
Co3 O12 2.045707 1_555
Co3 O27 2.079837 1_555
Co3 O24 2.080845 1_555
Co3 O6 2.155924 1_555
B0 O3 1.345365 1_555
B0 O4 1.385862 1_555
B0 O8 1.425465 1_555
B1 O2 1.345619 1_555
B1 O5 1.385435 1_555
B1 O9 1.425489 1_555
B2 O1 1.345508 1_555
B2 O6 1.386044 1_555
B2 O10 1.425299 1_555
B3 O0 1.345779 1_555
B3 O7 1.385307 1_555
B3 O11 1.425435 1_555
As0 O18 1.716073 1_555
As0 O20 1.723344 1_555
As0 O22 1.723683 1_556
As0 O12 1.734196 1_555
As1 O19 1.716504 1_555
As1 O23 1.723109 1_555
As1 O21 1.723730 1_555
As1 O13 1.733954 1_555
As2 O16 1.716377 1_555
As2 O26 1.723303 1_555
As2 O24 1.723410 1_554
As2 O14 1.734361 1_555
As3 O17 1.716483 1_555
As3 O25 1.723087 1_555
As3 O27 1.723804 1_555
As3 O15 1.733989 1_555
