# generated using pymatgen
data_Li2Mg2(WO4)3
_symmetry_space_group_name_H-M   'P 1'
_cell_length_a   5.21146400
_cell_length_b   10.66440300
_cell_length_c   20.79452082
_cell_angle_alpha   59.42090521
_cell_angle_beta   90.00000000
_cell_angle_gamma   90.00000000
_symmetry_Int_Tables_number   1
_chemical_formula_structural   Li2Mg2(WO4)3
_chemical_formula_sum   'Li8 Mg8 W12 O48'
_cell_volume   994.97435993
_cell_formula_units_Z   4
loop_
 _symmetry_equiv_pos_site_id
 _symmetry_equiv_pos_as_xyz
  1  'x, y, z'
loop_
 _atom_site_type_symbol
 _atom_site_label
 _atom_site_symmetry_multiplicity
 _atom_site_fract_x
 _atom_site_fract_y
 _atom_site_fract_z
 _atom_site_occupancy
  Li  Li0  1  0.00335300  0.54702600  0.69920400  1
  Li  Li1  1  0.00324200  0.54710300  0.02984500  1
  Li  Li2  1  0.99675800  0.54710300  0.52984500  1
  Li  Li3  1  0.99664700  0.54702600  0.19920400  1
  Li  Li4  1  0.64423300  0.00005300  0.75088900  1
  Li  Li5  1  0.50465500  0.45105200  0.79902700  1
  Li  Li6  1  0.49534500  0.45105200  0.29902700  1
  Li  Li7  1  0.35576700  0.00005300  0.25088900  1
  Mg  Mg0  1  0.14497200  0.00109200  0.74968800  1
  Mg  Mg1  1  0.00203600  0.89433100  0.02747400  1
  Mg  Mg2  1  0.99796400  0.89433100  0.52747400  1
  Mg  Mg3  1  0.85502800  0.00109200  0.24968800  1
  Mg  Mg4  1  0.50259000  0.45619900  0.47292600  1
  Mg  Mg5  1  0.50195500  0.10354500  0.47211100  1
  Mg  Mg6  1  0.49741000  0.45619900  0.97292600  1
  Mg  Mg7  1  0.49804500  0.10354500  0.97211100  1
  W  W0  1  0.03256800  0.19302200  0.05774800  1
  W  W1  1  0.02824100  0.62933600  0.34327900  1
  W  W2  1  0.03074400  0.18551700  0.34287800  1
  W  W3  1  0.97175900  0.62933600  0.84327900  1
  W  W4  1  0.96925600  0.18551700  0.84287800  1
  W  W5  1  0.96743200  0.19302200  0.55774800  1
  W  W6  1  0.53215100  0.80826800  0.44151300  1
  W  W7  1  0.52767700  0.36912100  0.15706200  1
  W  W8  1  0.52965800  0.81594400  0.15719700  1
  W  W9  1  0.47034200  0.81594400  0.65719700  1
  W  W10  1  0.47232300  0.36912100  0.65706200  1
  W  W11  1  0.46784900  0.80826800  0.94151300  1
  O  O0  1  0.18888300  0.76224100  0.62456800  1
  O  O1  1  0.19596700  0.48762500  0.62661600  1
  O  O2  1  0.18981900  0.75127300  0.00375200  1
  O  O3  1  0.17077800  0.59099800  0.78488700  1
  O  O4  1  0.17221800  0.33759000  0.78696900  1
  O  O5  1  0.16822000  0.06608800  0.92632200  1
  O  O6  1  0.17354800  0.58403300  0.92426700  1
  O  O7  1  0.17274600  0.34490900  0.53625200  1
  O  O8  1  0.16583700  0.07662500  0.53625700  1
  O  O9  1  0.10207600  0.08708900  0.29498500  1
  O  O10  1  0.10004000  0.82384600  0.29462100  1
  O  O11  1  0.10247800  0.09320500  0.15637300  1
  O  O12  1  0.89752200  0.09320500  0.65637300  1
  O  O13  1  0.89792400  0.08708900  0.79498500  1
  O  O14  1  0.89996000  0.82384600  0.79462100  1
  O  O15  1  0.83416300  0.07662500  0.03625700  1
  O  O16  1  0.82725400  0.34490900  0.03625200  1
  O  O17  1  0.83178000  0.06608800  0.42632200  1
  O  O18  1  0.82645200  0.58403300  0.42426700  1
  O  O19  1  0.82922200  0.59099800  0.28488700  1
  O  O20  1  0.82778200  0.33759000  0.28696900  1
  O  O21  1  0.81018100  0.75127300  0.50375200  1
  O  O22  1  0.81111700  0.76224100  0.12456800  1
  O  O23  1  0.80403300  0.48762500  0.12661600  1
  O  O24  1  0.68836400  0.51021600  0.87565200  1
  O  O25  1  0.68621000  0.23864200  0.87559000  1
  O  O26  1  0.68224600  0.25426200  0.49506300  1
  O  O27  1  0.67149200  0.66314600  0.71432800  1
  O  O28  1  0.67493500  0.40740800  0.71561400  1
  O  O29  1  0.66513000  0.41071000  0.57399600  1
  O  O30  1  0.66962600  0.93669000  0.57367900  1
  O  O31  1  0.66955400  0.92455900  0.96318500  1
  O  O32  1  0.66105200  0.65145200  0.96159100  1
  O  O33  1  0.61273700  0.17597200  0.20572300  1
  O  O34  1  0.61059400  0.91268800  0.20513100  1
  O  O35  1  0.61687100  0.90712600  0.34373700  1
  O  O36  1  0.38312900  0.90712600  0.84373700  1
  O  O37  1  0.38726300  0.17597200  0.70572300  1
  O  O38  1  0.38940600  0.91268800  0.70513100  1
  O  O39  1  0.33044600  0.92455900  0.46318500  1
  O  O40  1  0.33894800  0.65145200  0.46159100  1
  O  O41  1  0.33487000  0.41071000  0.07399600  1
  O  O42  1  0.33037400  0.93669000  0.07367900  1
  O  O43  1  0.32850800  0.66314600  0.21432800  1
  O  O44  1  0.32506500  0.40740800  0.21561400  1
  O  O45  1  0.31775400  0.25426200  0.99506300  1
  O  O46  1  0.31163600  0.51021600  0.37565200  1
  O  O47  1  0.31379000  0.23864200  0.37559000  1
loop_
_geom_bond_atom_site_label_1
_geom_bond_atom_site_label_2
_geom_bond_distance
_geom_bond_site_symmetry_2
Li0 O1 2.158744 1_555
Li0 O28 2.178487 1_455
Li0 O4 2.224048 1_555
Li0 O0 2.233163 1_555
Li0 O3 2.237386 1_555
Li0 O27 2.240487 1_455
Li1 O23 2.056898 1_455
Li1 O41 2.141681 1_555
Li1 O2 2.186018 1_555
Li1 O32 2.196816 1_454
Li1 O6 2.209769 1_554
Li1 O16 2.283892 1_455
Li2 O1 2.056898 1_655
Li2 O29 2.141681 1_555
Li2 O21 2.186018 1_555
Li2 O40 2.196816 1_655
Li2 O18 2.209769 1_555
Li2 O7 2.283892 1_655
Li3 O23 2.158744 1_555
Li3 O44 2.178487 1_655
Li3 O20 2.224048 1_555
Li3 O22 2.233163 1_555
Li3 O19 2.237386 1_555
Li3 O43 2.240487 1_655
Li4 O13 2.077559 1_555
Li4 O14 2.096566 1_545
Li4 O37 2.098192 1_555
Li4 O38 2.106912 1_545
Li4 O12 2.146065 1_555
Li4 O36 2.148173 1_545
Li5 O28 2.198667 1_555
Li5 O4 2.199357 1_555
Li5 O24 2.208268 1_555
Li5 O25 2.211750 1_555
Li5 O3 2.212443 1_555
Li5 O27 2.218280 1_555
Li6 O44 2.198667 1_555
Li6 O20 2.199357 1_555
Li6 O46 2.208268 1_555
Li6 O47 2.211750 1_555
Li6 O19 2.212443 1_555
Li6 O43 2.218280 1_555
Li7 O9 2.077559 1_555
Li7 O10 2.096566 1_545
Li7 O33 2.098192 1_555
Li7 O34 2.106912 1_545
Li7 O11 2.146065 1_555
Li7 O35 2.148173 1_545
Mg0 O37 2.042940 1_555
Mg0 O38 2.063684 1_545
Mg0 O13 2.065152 1_455
Mg0 O14 2.068670 1_445
Mg0 O36 2.091748 1_545
Mg0 O12 2.110419 1_455
Mg1 O22 2.038867 1_455
Mg1 O2 2.072267 1_555
Mg1 O31 2.110674 1_454
Mg1 O42 2.120558 1_555
Mg1 O5 2.146958 1_564
Mg1 O15 2.222466 1_465
Mg2 O0 2.038867 1_655
Mg2 O21 2.072267 1_555
Mg2 O39 2.110674 1_655
Mg2 O30 2.120558 1_555
Mg2 O17 2.146958 1_565
Mg2 O8 2.222466 1_665
Mg3 O33 2.042940 1_555
Mg3 O34 2.063684 1_545
Mg3 O9 2.065152 1_655
Mg3 O10 2.068670 1_645
Mg3 O35 2.091748 1_545
Mg3 O11 2.110419 1_655
Mg4 O46 2.056254 1_555
Mg4 O18 2.080263 1_555
Mg4 O29 2.081504 1_555
Mg4 O7 2.123052 1_555
Mg4 O40 2.149250 1_555
Mg4 O26 2.172002 1_555
Mg5 O47 2.030669 1_555
Mg5 O17 2.099447 1_555
Mg5 O26 2.115315 1_555
Mg5 O8 2.130817 1_555
Mg5 O30 2.137011 1_545
Mg5 O39 2.199379 1_545
Mg6 O24 2.056254 1_555
Mg6 O6 2.080263 1_555
Mg6 O41 2.081504 1_556
Mg6 O16 2.123052 1_556
Mg6 O32 2.149250 1_555
Mg6 O45 2.172002 1_555
Mg7 O25 2.030669 1_555
Mg7 O5 2.099447 1_555
Mg7 O45 2.115315 1_555
Mg7 O15 2.130817 1_556
Mg7 O42 2.137011 1_546
Mg7 O31 2.199379 1_545
O0 W9 1.826274 1_555
O1 W10 1.805024 1_555
O2 W11 1.828531 1_554
O3 W3 1.795097 1_455
O4 W4 1.783868 1_455
O5 W4 1.859995 1_455
O6 W3 1.829667 1_455
O7 W5 1.797693 1_455
O8 W5 1.836868 1_455
O9 W2 1.815347 1_555
O10 W1 1.825147 1_555
O11 W0 1.802964 1_555
O12 W5 1.802964 1_555
O13 W4 1.815347 1_555
O14 W3 1.825147 1_555
O15 W0 1.836868 1_655
O16 W0 1.797693 1_655
O17 W2 1.859995 1_655
O18 W1 1.829667 1_655
O19 W1 1.795097 1_655
O20 W2 1.783868 1_655
O21 W6 1.828531 1_555
O22 W8 1.826274 1_555
O23 W7 1.805024 1_555
O24 W3 1.837958 1_555
O25 W4 1.830757 1_555
O26 W5 1.862360 1_555
O27 W9 1.787705 1_555
O28 W10 1.808293 1_555
O29 W10 1.846754 1_555
O30 W9 1.864819 1_555
O31 W11 1.847905 1_555
O32 W11 1.809542 1_555
O33 W7 1.828275 1_555
O34 W8 1.811690 1_555
O35 W6 1.805376 1_555
O36 W11 1.805376 1_555
O37 W10 1.828275 1_555
O38 W9 1.811690 1_555
O39 W6 1.847905 1_555
O40 W6 1.809542 1_555
O41 W7 1.846754 1_555
O42 W8 1.864819 1_555
O43 W8 1.787705 1_555
O44 W7 1.808293 1_555
O45 W0 1.862360 1_556
O46 W1 1.837958 1_555
O47 W2 1.830757 1_555
