# generated using pymatgen
data_H4CN2O
_symmetry_space_group_name_H-M   'P 1'
_cell_length_a   7.30734600
_cell_length_b   7.30734600
_cell_length_c   18.25229100
_cell_angle_alpha   90.00000000
_cell_angle_beta   90.00000000
_cell_angle_gamma   90.00000000
_symmetry_Int_Tables_number   1
_chemical_formula_structural   H4CN2O
_chemical_formula_sum   'H48 C12 N24 O12'
_cell_volume   974.62315976
_cell_formula_units_Z   12
loop_
 _symmetry_equiv_pos_site_id
 _symmetry_equiv_pos_as_xyz
  1  'x, y, z'
loop_
 _atom_site_type_symbol
 _atom_site_label
 _atom_site_symmetry_multiplicity
 _atom_site_fract_x
 _atom_site_fract_y
 _atom_site_fract_z
 _atom_site_occupancy
  H  H0  1  0.38441200  0.56944800  0.67422000  1
  H  H1  1  0.61558800  0.43055200  0.17422000  1
  H  H2  1  0.06944800  0.11558800  0.42422000  1
  H  H3  1  0.93055200  0.88441200  0.92422000  1
  H  H4  1  0.43055200  0.61558800  0.82578000  1
  H  H5  1  0.56944800  0.38441200  0.32578000  1
  H  H6  1  0.11558800  0.06944800  0.57578000  1
  H  H7  1  0.88441200  0.93055200  0.07578000  1
  H  H8  1  0.80173300  0.17384900  0.83547200  1
  H  H9  1  0.19826700  0.82615100  0.33547200  1
  H  H10  1  0.67384900  0.69826700  0.58547200  1
  H  H11  1  0.32615100  0.30173300  0.08547200  1
  H  H12  1  0.82615100  0.19826700  0.66452800  1
  H  H13  1  0.17384900  0.80173300  0.16452800  1
  H  H14  1  0.69826700  0.67384900  0.41452800  1
  H  H15  1  0.30173300  0.32615100  0.91452800  1
  H  H16  1  0.66054500  0.30075900  0.89622600  1
  H  H17  1  0.33945500  0.69924100  0.39622600  1
  H  H18  1  0.80075900  0.83945500  0.64622600  1
  H  H19  1  0.19924100  0.16054500  0.14622600  1
  H  H20  1  0.69924100  0.33945500  0.60377400  1
  H  H21  1  0.30075900  0.66054500  0.10377400  1
  H  H22  1  0.83945500  0.80075900  0.35377400  1
  H  H23  1  0.16054500  0.19924100  0.85377400  1
  H  H24  1  0.73831600  0.73971100  0.91928500  1
  H  H25  1  0.26168400  0.26028900  0.41928500  1
  H  H26  1  0.23971100  0.76168400  0.66928500  1
  H  H27  1  0.76028900  0.23831600  0.16928500  1
  H  H28  1  0.26028900  0.26168400  0.58071500  1
  H  H29  1  0.73971100  0.73831600  0.08071500  1
  H  H30  1  0.76168400  0.23971100  0.33071500  1
  H  H31  1  0.23831600  0.76028900  0.83071500  1
  H  H32  1  0.56005500  0.88645100  0.99416400  1
  H  H33  1  0.43994500  0.11354900  0.49416400  1
  H  H34  1  0.38645100  0.93994500  0.74416400  1
  H  H35  1  0.61354900  0.06005500  0.24416400  1
  H  H36  1  0.11354900  0.43994500  0.50583600  1
  H  H37  1  0.88645100  0.56005500  0.00583600  1
  H  H38  1  0.93994500  0.38645100  0.25583600  1
  H  H39  1  0.06005500  0.61354900  0.75583600  1
  H  H40  1  0.83244500  0.86832800  0.84481400  1
  H  H41  1  0.16755500  0.13167200  0.34481400  1
  H  H42  1  0.36832800  0.66755500  0.59481400  1
  H  H43  1  0.63167200  0.33244500  0.09481400  1
  H  H44  1  0.13167200  0.16755500  0.65518600  1
  H  H45  1  0.86832800  0.83244500  0.15518600  1
  H  H46  1  0.66755500  0.36832800  0.40518600  1
  H  H47  1  0.33244500  0.63167200  0.90518600  1
  C  C0  1  0.04221700  0.95778300  0.75000000  1
  C  C1  1  0.95778300  0.04221700  0.25000000  1
  C  C2  1  0.45778300  0.45778300  0.50000000  1
  C  C3  1  0.54221700  0.54221700  0.00000000  1
  C  C4  1  0.68419300  0.03026100  0.92088200  1
  C  C5  1  0.31580700  0.96973900  0.42088200  1
  C  C6  1  0.53026100  0.81580700  0.67088200  1
  C  C7  1  0.46973900  0.18419300  0.17088200  1
  C  C8  1  0.96973900  0.31580700  0.57911800  1
  C  C9  1  0.03026100  0.68419300  0.07911800  1
  C  C10  1  0.81580700  0.53026100  0.32911800  1
  C  C11  1  0.18419300  0.46973900  0.82911800  1
  N  N0  1  0.56351900  0.01466100  0.97137000  1
  N  N1  1  0.43648100  0.98533900  0.47137000  1
  N  N2  1  0.51466100  0.93648100  0.72137000  1
  N  N3  1  0.48533900  0.06351900  0.22137000  1
  N  N4  1  0.98533900  0.43648100  0.52863000  1
  N  N5  1  0.01466100  0.56351900  0.02863000  1
  N  N6  1  0.93648100  0.51466100  0.27863000  1
  N  N7  1  0.06351900  0.48533900  0.77863000  1
  N  N8  1  0.72690900  0.18194600  0.88340800  1
  N  N9  1  0.27309100  0.81805400  0.38340800  1
  N  N10  1  0.68194600  0.77309100  0.63340800  1
  N  N11  1  0.31805400  0.22690900  0.13340800  1
  N  N12  1  0.81805400  0.27309100  0.61659200  1
  N  N13  1  0.18194600  0.72690900  0.11659200  1
  N  N14  1  0.77309100  0.68194600  0.36659200  1
  N  N15  1  0.22690900  0.31805400  0.86659200  1
  N  N16  1  0.80420600  0.87035200  0.90017300  1
  N  N17  1  0.19579400  0.12964800  0.40017300  1
  N  N18  1  0.37035200  0.69579400  0.65017300  1
  N  N19  1  0.62964800  0.30420600  0.15017300  1
  N  N20  1  0.12964800  0.19579400  0.59982700  1
  N  N21  1  0.87035200  0.80420600  0.09982700  1
  N  N22  1  0.69579400  0.37035200  0.34982700  1
  N  N23  1  0.30420600  0.62964800  0.84982700  1
  O  O0  1  0.13669500  0.92466500  0.81022900  1
  O  O1  1  0.86330500  0.07533500  0.31022900  1
  O  O2  1  0.42466500  0.36330500  0.56022900  1
  O  O3  1  0.57533500  0.63669500  0.06022900  1
  O  O4  1  0.07533500  0.86330500  0.68977100  1
  O  O5  1  0.92466500  0.13669500  0.18977100  1
  O  O6  1  0.36330500  0.42466500  0.43977100  1
  O  O7  1  0.63669500  0.57533500  0.93977100  1
  O  O8  1  0.91918600  0.08081400  0.75000000  1
  O  O9  1  0.08081400  0.91918600  0.25000000  1
  O  O10  1  0.58081400  0.58081400  0.50000000  1
  O  O11  1  0.41918600  0.41918600  0.00000000  1
loop_
_geom_bond_atom_site_label_1
_geom_bond_atom_site_label_2
_geom_bond_distance
_geom_bond_site_symmetry_2
H0 N18 1.027423 1_555
H1 N19 1.027423 1_555
H2 N17 1.027423 1_555
H3 N16 1.027423 1_555
H4 N23 1.027423 1_555
H5 N22 1.027423 1_555
H6 N20 1.027423 1_555
H7 N21 1.027423 1_555
H8 N8 1.033429 1_555
H9 N9 1.033429 1_555
H10 N10 1.033429 1_555
H11 N11 1.033429 1_555
H12 N12 1.033429 1_555
H13 N13 1.033429 1_555
H14 N14 1.033429 1_555
H15 N15 1.033429 1_555
H16 N8 1.021613 1_555
H17 N9 1.021613 1_555
H18 N10 1.021613 1_555
H19 N11 1.021613 1_555
H20 N12 1.021613 1_555
H21 N13 1.021613 1_555
H22 N14 1.021613 1_555
H23 N15 1.021613 1_555
H24 N16 1.124654 1_555
H24 O7 1.460823 1_555
H25 N17 1.124654 1_555
H25 O6 1.460823 1_555
H26 N18 1.124654 1_555
H26 O4 1.460823 1_555
H27 N19 1.124654 1_555
H27 O5 1.460823 1_555
H28 N20 1.124654 1_555
H28 O2 1.460823 1_555
H29 N21 1.124654 1_555
H29 O3 1.460823 1_555
H30 N22 1.124654 1_555
H30 O1 1.460823 1_555
H31 N23 1.124654 1_555
H31 O0 1.460823 1_555
H32 N0 1.025411 1_565
H33 N1 1.025411 1_545
H34 N2 1.025411 1_555
H35 N3 1.025411 1_555
H36 N4 1.025411 1_455
H37 N5 1.025411 1_655
H38 N6 1.025411 1_555
H39 N7 1.025411 1_555
H40 N16 1.031390 1_555
H41 N17 1.031390 1_555
H42 N18 1.031390 1_555
H43 N19 1.031390 1_555
H44 N20 1.031390 1_555
H45 N21 1.031390 1_555
H46 N22 1.031390 1_555
H47 N23 1.031390 1_555
C0 O8 1.271421 1_465
C0 O4 1.320490 1_555
C0 O0 1.320490 1_555
C1 O9 1.271421 1_645
C1 O1 1.320490 1_555
C1 O5 1.320490 1_555
C2 O10 1.271421 1_555
C2 O2 1.320490 1_555
C2 O6 1.320490 1_555
C3 O11 1.271421 1_555
C3 O3 1.320490 1_555
C3 O7 1.320490 1_554
C4 N0 1.280539 1_555
C4 N8 1.339348 1_555
C4 N16 1.509099 1_545
C5 N1 1.280539 1_555
C5 N9 1.339348 1_555
C5 N17 1.509099 1_565
C6 N2 1.280539 1_555
C6 N10 1.339348 1_555
C6 N18 1.509099 1_555
C7 N3 1.280539 1_555
C7 N11 1.339348 1_555
C7 N19 1.509099 1_555
C8 N4 1.280539 1_555
C8 N12 1.339348 1_555
C8 N20 1.509099 1_655
C9 N5 1.280539 1_555
C9 N13 1.339348 1_555
C9 N21 1.509099 1_455
C10 N6 1.280539 1_555
C10 N14 1.339348 1_555
C10 N22 1.509099 1_555
C11 N7 1.280539 1_555
C11 N15 1.339348 1_555
C11 N23 1.509099 1_555
