# generated using pymatgen
data_CrCo3O8
_symmetry_space_group_name_H-M   'P 1'
_cell_length_a   5.77396577
_cell_length_b   5.77396577
_cell_length_c   5.77396527
_cell_angle_alpha   58.97964680
_cell_angle_beta   58.97964680
_cell_angle_gamma   58.97964346
_symmetry_Int_Tables_number   1
_chemical_formula_structural   CrCo3O8
_chemical_formula_sum   'Cr1 Co3 O8'
_cell_volume   132.94706701
_cell_formula_units_Z   1
loop_
 _symmetry_equiv_pos_site_id
 _symmetry_equiv_pos_as_xyz
  1  'x, y, z'
loop_
 _atom_site_type_symbol
 _atom_site_label
 _atom_site_symmetry_multiplicity
 _atom_site_fract_x
 _atom_site_fract_y
 _atom_site_fract_z
 _atom_site_occupancy
  Cr  Cr0  1  0.50000000  0.50000000  0.50000000  1
  Co  Co0  1  0.50000000  0.00000000  0.50000000  1
  Co  Co1  1  0.00000000  0.50000000  0.50000000  1
  Co  Co2  1  0.50000000  0.50000000  0.00000000  1
  O  O0  1  0.26568200  0.26568200  0.26568200  1
  O  O1  1  0.26127600  0.26127600  0.70242900  1
  O  O2  1  0.70242900  0.26127600  0.26127600  1
  O  O3  1  0.26127600  0.70242900  0.26127600  1
  O  O4  1  0.73872400  0.29757100  0.73872400  1
  O  O5  1  0.29757100  0.73872400  0.73872400  1
  O  O6  1  0.73872400  0.73872400  0.29757100  1
  O  O7  1  0.73431800  0.73431800  0.73431800  1
loop_
_geom_bond_atom_site_label_1
_geom_bond_atom_site_label_2
_geom_bond_distance
_geom_bond_site_symmetry_2
Cr0 O5 1.950187 1_555
Cr0 O4 1.950187 1_555
Cr0 O3 1.950187 1_555
Cr0 O2 1.950187 1_555
Cr0 O6 1.950188 1_555
Cr0 O1 1.950188 1_555
Co0 O1 1.885624 1_555
Co0 O6 1.885624 1_545
Co0 O2 1.885625 1_555
Co0 O5 1.885625 1_545
Co0 O7 1.903288 1_545
Co0 O0 1.903288 1_555
Co1 O1 1.885624 1_555
Co1 O6 1.885624 1_455
Co1 O3 1.885625 1_555
Co1 O4 1.885625 1_455
Co1 O7 1.903288 1_455
Co1 O0 1.903288 1_555
Co2 O3 1.885624 1_555
Co2 O2 1.885624 1_555
Co2 O5 1.885624 1_554
Co2 O4 1.885624 1_554
Co2 O7 1.903288 1_554
Co2 O0 1.903288 1_555
