# generated using pymatgen
data_Fe4O3F5
_symmetry_space_group_name_H-M   'P 1'
_cell_length_a   4.82253900
_cell_length_b   6.20052101
_cell_length_c   9.63412363
_cell_angle_alpha   89.64999111
_cell_angle_beta   87.54427985
_cell_angle_gamma   89.79415866
_symmetry_Int_Tables_number   1
_chemical_formula_structural   Fe4O3F5
_chemical_formula_sum   'Fe8 O6 F10'
_cell_volume   287.81048109
_cell_formula_units_Z   2
loop_
 _symmetry_equiv_pos_site_id
 _symmetry_equiv_pos_as_xyz
  1  'x, y, z'
loop_
 _atom_site_type_symbol
 _atom_site_label
 _atom_site_symmetry_multiplicity
 _atom_site_fract_x
 _atom_site_fract_y
 _atom_site_fract_z
 _atom_site_occupancy
  Fe  Fe0  1  0.01591900  0.00601500  0.98259600  1
  Fe  Fe1  1  0.95078900  0.48825100  0.01161800  1
  Fe  Fe2  1  0.02889200  0.00174600  0.48686700  1
  Fe  Fe3  1  0.98983800  0.49855200  0.50615300  1
  Fe  Fe4  1  0.48010600  0.26148300  0.25753300  1
  Fe  Fe5  1  0.47743400  0.74070400  0.25488200  1
  Fe  Fe6  1  0.53682600  0.25178500  0.76397100  1
  Fe  Fe7  1  0.50535100  0.75024100  0.74686500  1
  O  O0  1  0.80802400  0.26063000  0.90393500  1
  O  O1  1  0.68085500  0.50205900  0.16012600  1
  O  O2  1  0.69195200  0.50265700  0.65266900  1
  O  O3  1  0.32460000  0.00035600  0.33527000  1
  O  O4  1  0.28375300  0.50120300  0.35645100  1
  O  O5  1  0.33674100  0.99626900  0.83221500  1
  F  F0  1  0.79687800  0.25839500  0.40263200  1
  F  F1  1  0.79780500  0.74269500  0.40442200  1
  F  F2  1  0.80011900  0.73478700  0.89762300  1
  F  F3  1  0.70292900  0.99490900  0.15043100  1
  F  F4  1  0.71360900  0.99953800  0.64416200  1
  F  F5  1  0.29706900  0.50455500  0.85288700  1
  F  F6  1  0.19651400  0.74116600  0.60241300  1
  F  F7  1  0.18655200  0.73667000  0.09224400  1
  F  F8  1  0.19667100  0.26077100  0.60230700  1
  F  F9  1  0.20077200  0.26456500  0.09973100  1
loop_
_geom_bond_atom_site_label_1
_geom_bond_atom_site_label_2
_geom_bond_distance
_geom_bond_site_symmetry_2
Fe0 O0 2.027568 1_455
Fe0 O5 2.074779 1_545
Fe1 O1 1.894742 1_555
Fe1 O0 1.904816 1_554
Fe2 O3 1.997095 1_555
Fe3 O2 1.970599 1_555
Fe3 O4 1.978412 1_655
Fe4 O3 1.921102 1_555
Fe4 O4 1.985965 1_555
Fe4 O1 1.989595 1_555
Fe5 O3 1.921681 1_565
Fe5 O1 1.978548 1_555
Fe5 O4 1.987245 1_555
Fe6 O0 1.919459 1_555
Fe6 O5 1.953800 1_545
Fe6 O2 2.012067 1_555
Fe7 O5 1.900942 1_555
Fe7 O2 1.981704 1_555
F0 Fe3 2.045888 1_555
F0 Fe4 2.114393 1_555
F0 Fe2 2.119474 1_655
F1 Fe3 2.039467 1_555
F1 Fe2 2.134756 1_665
F1 Fe5 2.157281 1_555
F2 Fe1 2.027503 1_556
F2 Fe7 2.076947 1_555
F2 Fe0 2.164241 1_665
F3 Fe5 2.139807 1_555
F3 Fe0 2.165131 1_664
F3 Fe4 2.205565 1_565
F4 Fe7 2.069884 1_555
F4 Fe2 2.100210 1_665
F4 Fe6 2.105605 1_565
F5 Fe7 2.068088 1_555
F5 Fe6 2.108471 1_555
F5 Fe1 2.217654 1_456
F6 Fe3 2.055115 1_455
F6 Fe7 2.082627 1_555
F6 Fe2 2.132832 1_565
F7 Fe1 2.090828 1_455
F7 Fe5 2.147703 1_555
F7 Fe0 2.150643 1_564
F8 Fe3 2.019592 1_455
F8 Fe2 2.139949 1_555
F8 Fe6 2.310207 1_555
F9 Fe1 2.039353 1_455
F9 Fe4 2.073949 1_555
F9 Fe0 2.181021 1_554
