# generated using pymatgen
data_Li2Fe3NiO8
_symmetry_space_group_name_H-M   'P 1'
_cell_length_a   5.93093189
_cell_length_b   5.93093189
_cell_length_c   5.93093198
_cell_angle_alpha   59.37598474
_cell_angle_beta   59.37598474
_cell_angle_gamma   59.37598750
_symmetry_Int_Tables_number   1
_chemical_formula_structural   Li2Fe3NiO8
_chemical_formula_sum   'Li2 Fe3 Ni1 O8'
_cell_volume   145.42583921
_cell_formula_units_Z   1
loop_
 _symmetry_equiv_pos_site_id
 _symmetry_equiv_pos_as_xyz
  1  'x, y, z'
loop_
 _atom_site_type_symbol
 _atom_site_label
 _atom_site_symmetry_multiplicity
 _atom_site_fract_x
 _atom_site_fract_y
 _atom_site_fract_z
 _atom_site_occupancy
  Li  Li0  1  0.87979900  0.87979900  0.87979900  1
  Li  Li1  1  0.49993600  0.49993600  0.49993600  1
  Fe  Fe0  1  0.99364400  0.50240700  0.50240700  1
  Fe  Fe1  1  0.50240700  0.99364400  0.50240700  1
  Fe  Fe2  1  0.50240700  0.50240700  0.99364400  1
  Ni  Ni0  1  0.12039000  0.12039000  0.12039000  1
  O  O0  1  0.74503700  0.74503700  0.74503700  1
  O  O1  1  0.74716400  0.74716400  0.29300900  1
  O  O2  1  0.74716400  0.29300900  0.74716400  1
  O  O3  1  0.29300900  0.74716400  0.74716400  1
  O  O4  1  0.71230300  0.25049200  0.25049200  1
  O  O5  1  0.25049200  0.71230300  0.25049200  1
  O  O6  1  0.25049200  0.25049200  0.71230300  1
  O  O7  1  0.25575500  0.25575500  0.25575500  1
loop_
_geom_bond_atom_site_label_1
_geom_bond_atom_site_label_2
_geom_bond_distance
_geom_bond_site_symmetry_2
Li0 O0 1.966972 1_555
Li0 O1 1.986429 1_556
Li0 O2 1.986429 1_565
Li0 O3 1.986429 1_655
Li1 O1 2.080844 1_555
Li1 O3 2.080844 1_555
Li1 O2 2.080844 1_555
Li1 O6 2.096877 1_555
Li1 O4 2.096877 1_555
Li1 O5 2.096877 1_555
Fe0 O2 1.907247 1_555
Fe0 O1 1.907248 1_555
Fe0 O5 1.954714 1_655
Fe0 O6 1.954714 1_655
Fe0 O0 2.025331 1_555
Fe0 O7 2.059887 1_655
Fe1 O3 1.907247 1_555
Fe1 O1 1.907248 1_555
Fe1 O4 1.954714 1_565
Fe1 O6 1.954714 1_565
Fe1 O0 2.025331 1_555
Fe1 O7 2.059887 1_565
Fe2 O2 1.907248 1_555
Fe2 O3 1.907248 1_555
Fe2 O4 1.954714 1_556
Fe2 O5 1.954714 1_556
Fe2 O0 2.025331 1_555
Fe2 O7 2.059887 1_556
Ni0 O6 1.962146 1_554
Ni0 O4 1.962146 1_455
Ni0 O5 1.962146 1_545
Ni0 O7 1.975773 1_555
