# generated using pymatgen
data_LiCoPO4
_symmetry_space_group_name_H-M   'P 1'
_cell_length_a   9.99400680
_cell_length_b   9.99400680
_cell_length_c   22.71320600
_cell_angle_alpha   90.00000000
_cell_angle_beta   90.00000000
_cell_angle_gamma   120.00000527
_symmetry_Int_Tables_number   1
_chemical_formula_structural   LiCoPO4
_chemical_formula_sum   'Li24 Co24 P24 O96'
_cell_volume   1964.66418975
_cell_formula_units_Z   24
loop_
 _symmetry_equiv_pos_site_id
 _symmetry_equiv_pos_as_xyz
  1  'x, y, z'
loop_
 _atom_site_type_symbol
 _atom_site_label
 _atom_site_symmetry_multiplicity
 _atom_site_fract_x
 _atom_site_fract_y
 _atom_site_fract_z
 _atom_site_occupancy
  Li  Li0  1  0.00774200  0.94772200  0.41873000  1
  Li  Li1  1  0.06213100  0.56170100  0.91698400  1
  Li  Li2  1  0.06125200  0.51547500  0.25637700  1
  Li  Li3  1  0.02442700  0.48080600  0.58719000  1
  Li  Li4  1  0.45637900  0.97557300  0.92052400  1
  Li  Li5  1  0.45422400  0.93874800  0.58971100  1
  Li  Li6  1  0.05227800  0.06001900  0.08539600  1
  Li  Li7  1  0.49957000  0.93786900  0.25031700  1
  Li  Li8  1  0.06001900  0.00774200  0.25206300  1
  Li  Li9  1  0.43829900  0.50043000  0.58365000  1
  Li  Li10  1  0.48452500  0.54577600  0.92304400  1
  Li  Li11  1  0.51919400  0.54362100  0.25385700  1
  Li  Li12  1  0.48080600  0.45637900  0.75385700  1
  Li  Li13  1  0.51547500  0.45422400  0.42304400  1
  Li  Li14  1  0.56170100  0.49957000  0.08365000  1
  Li  Li15  1  0.93998100  0.99225800  0.75206300  1
  Li  Li16  1  0.50043000  0.06213100  0.75031700  1
  Li  Li17  1  0.94772200  0.93998100  0.58539600  1
  Li  Li18  1  0.54577600  0.06125200  0.08971100  1
  Li  Li19  1  0.54362100  0.02442700  0.42052400  1
  Li  Li20  1  0.97557300  0.51919400  0.08719000  1
  Li  Li21  1  0.93874800  0.48452500  0.75637700  1
  Li  Li22  1  0.93786900  0.43829900  0.41698400  1
  Li  Li23  1  0.99225800  0.05227800  0.91873000  1
  Co  Co0  1  0.14693700  0.83432400  0.67948300  1
  Co  Co1  1  0.18938500  0.88496800  0.01069200  1
  Co  Co2  1  0.17672300  0.78933100  0.37595200  1
  Co  Co3  1  0.11503200  0.30441700  0.67735800  1
  Co  Co4  1  0.32973400  0.67330500  0.82001300  1
  Co  Co5  1  0.32669500  0.65642900  0.48668000  1
  Co  Co6  1  0.34357100  0.67026600  0.15334700  1
  Co  Co7  1  0.16567600  0.31261300  0.34615000  1
  Co  Co8  1  0.21066900  0.38739200  0.04261800  1
  Co  Co9  1  0.61260800  0.82327700  0.70928500  1
  Co  Co10  1  0.30441700  0.18938500  0.84402500  1
  Co  Co11  1  0.31261300  0.14693700  0.51281600  1
  Co  Co12  1  0.68738700  0.85306300  0.01281600  1
  Co  Co13  1  0.69558300  0.81061500  0.34402500  1
  Co  Co14  1  0.38739200  0.17672300  0.20928500  1
  Co  Co15  1  0.78933100  0.61260800  0.54261800  1
  Co  Co16  1  0.83432400  0.68738700  0.84615000  1
  Co  Co17  1  0.65642900  0.32973400  0.65334700  1
  Co  Co18  1  0.67330500  0.34357100  0.98668000  1
  Co  Co19  1  0.67026600  0.32669500  0.32001300  1
  Co  Co20  1  0.88496800  0.69558300  0.17735800  1
  Co  Co21  1  0.82327700  0.21066900  0.87595200  1
  Co  Co22  1  0.81061500  0.11503200  0.51069200  1
  Co  Co23  1  0.85306300  0.16567600  0.17948300  1
  P  P0  1  0.17193100  0.85627400  0.81304700  1
  P  P1  1  0.13195600  0.77892200  0.50903200  1
  P  P2  1  0.21797700  0.88135700  0.14633500  1
  P  P3  1  0.11864300  0.33662000  0.81300200  1
  P  P4  1  0.32820800  0.68739700  0.00959300  1
  P  P5  1  0.14372600  0.31565700  0.47971400  1
  P  P6  1  0.31260300  0.64081100  0.67626000  1
  P  P7  1  0.35918900  0.67179200  0.34292700  1
  P  P8  1  0.22107800  0.35303400  0.17569900  1
  P  P9  1  0.64696600  0.86804400  0.84236600  1
  P  P10  1  0.33662000  0.21797700  0.97966900  1
  P  P11  1  0.31565700  0.17193100  0.64638000  1
  P  P12  1  0.68434300  0.82806900  0.14638000  1
  P  P13  1  0.66338000  0.78202300  0.47966900  1
  P  P14  1  0.35303400  0.13195600  0.34236600  1
  P  P15  1  0.77892200  0.64696600  0.67569900  1
  P  P16  1  0.64081100  0.32820800  0.84292700  1
  P  P17  1  0.68739700  0.35918900  0.17626000  1
  P  P18  1  0.85627400  0.68434300  0.97971400  1
  P  P19  1  0.67179200  0.31260300  0.50959300  1
  P  P20  1  0.88135700  0.66338000  0.31300200  1
  P  P21  1  0.78202300  0.11864300  0.64633500  1
  P  P22  1  0.86804400  0.22107800  0.00903200  1
  P  P23  1  0.82806900  0.14372600  0.31304700  1
  O  O0  1  0.01552400  0.70731100  0.79851400  1
  O  O1  1  0.13437200  0.97397500  0.84276900  1
  O  O2  1  0.01239200  0.67872600  0.55697500  1
  O  O3  1  0.13299600  0.93379400  0.49835200  1
  O  O4  1  0.18052800  0.99030000  0.18303700  1
  O  O5  1  0.06620800  0.72805200  0.13193900  1
  O  O6  1  0.08425800  0.68007500  0.45158400  1
  O  O7  1  0.26056500  0.92333700  0.75413800  1
  O  O8  1  0.29350400  0.96107700  0.08711100  1
  O  O9  1  0.15736400  0.64028100  0.67431300  1
  O  O10  1  0.20617500  0.70967500  0.97562900  1
  O  O11  1  0.27704500  0.82387400  0.85412500  1
  O  O12  1  0.20874800  0.65657200  0.31665800  1
  O  O13  1  0.29519900  0.81281400  0.52836100  1
  O  O14  1  0.03892300  0.33242700  0.75377700  1
  O  O15  1  0.33475900  0.85286500  0.18166300  1
  O  O16  1  0.14713500  0.48189400  0.84833000  1
  O  O17  1  0.00970000  0.19022800  0.84970400  1
  O  O18  1  0.07666300  0.33722900  0.42080500  1
  O  O19  1  0.02602500  0.16039700  0.50943500  1
  O  O20  1  0.26192900  0.63066300  0.07264400  1
  O  O21  1  0.06620600  0.19920200  0.16501800  1
  O  O22  1  0.17612600  0.45317100  0.52079200  1
  O  O23  1  0.18718600  0.48238500  0.19502800  1
  O  O24  1  0.36873400  0.73807100  0.40597800  1
  O  O25  1  0.29032500  0.49650100  0.64229500  1
  O  O26  1  0.36933700  0.63126600  0.73931100  1
  O  O27  1  0.34342800  0.55217600  0.98332400  1
  O  O28  1  0.44782400  0.79125200  0.64999100  1
  O  O29  1  0.48291600  0.84263600  0.00764600  1
  O  O30  1  0.35971900  0.51708400  0.34098000  1
  O  O31  1  0.16039700  0.13437200  0.67610200  1
  O  O32  1  0.19022800  0.18052800  0.01637100  1
  O  O33  1  0.27194800  0.33815600  0.79860600  1
  O  O34  1  0.31992500  0.40418300  0.11825100  1
  O  O35  1  0.50349900  0.79382500  0.30896200  1
  O  O36  1  0.19920200  0.13299600  0.33168500  1
  O  O37  1  0.29268900  0.30821300  0.46518100  1
  O  O38  1  0.32127400  0.33366600  0.22364200  1
  O  O39  1  0.51761500  0.70480100  0.86169400  1
  O  O40  1  0.59581700  0.91574200  0.78491700  1
  O  O41  1  0.54682900  0.72295500  0.18745900  1
  O  O42  1  0.33242700  0.29350400  0.92044400  1
  O  O43  1  0.66633400  0.98760800  0.89030800  1
  O  O44  1  0.51810600  0.66524100  0.51499700  1
  O  O45  1  0.33722900  0.26056500  0.58747100  1
  O  O46  1  0.66184400  0.93379200  0.46527200  1
  O  O47  1  0.69178700  0.98447600  0.13184700  1
  O  O48  1  0.30821300  0.01552400  0.63184700  1
  O  O49  1  0.33815600  0.06620800  0.96527200  1
  O  O50  1  0.66277100  0.73943500  0.08747100  1
  O  O51  1  0.48189400  0.33475900  0.01499700  1
  O  O52  1  0.33366600  0.01239200  0.39030800  1
  O  O53  1  0.66757300  0.70649600  0.42044400  1
  O  O54  1  0.45317100  0.27704500  0.68745900  1
  O  O55  1  0.40418300  0.08425800  0.28491700  1
  O  O56  1  0.48238500  0.29519900  0.36169400  1
  O  O57  1  0.67872600  0.66633400  0.72364200  1
  O  O58  1  0.70731100  0.69178700  0.96518100  1
  O  O59  1  0.80079800  0.86700400  0.83168500  1
  O  O60  1  0.49650100  0.20617500  0.80896200  1
  O  O61  1  0.68007500  0.59581700  0.61825100  1
  O  O62  1  0.72805200  0.66184400  0.29860600  1
  O  O63  1  0.80977200  0.81947200  0.51637100  1
  O  O64  1  0.83960300  0.86562800  0.17610200  1
  O  O65  1  0.64028100  0.48291600  0.84098000  1
  O  O66  1  0.51708400  0.15736400  0.50764600  1
  O  O67  1  0.55217600  0.20874800  0.14999100  1
  O  O68  1  0.65657200  0.44782400  0.48332400  1
  O  O69  1  0.63066300  0.36873400  0.23931100  1
  O  O70  1  0.70967500  0.50349900  0.14229500  1
  O  O71  1  0.63126600  0.26192900  0.90597800  1
  O  O72  1  0.81281400  0.51761500  0.69502800  1
  O  O73  1  0.82387400  0.54682900  0.02079200  1
  O  O74  1  0.93379400  0.80079800  0.66501800  1
  O  O75  1  0.73807100  0.36933700  0.57264400  1
  O  O76  1  0.97397500  0.83960300  0.00943500  1
  O  O77  1  0.92333700  0.66277100  0.92080500  1
  O  O78  1  0.99030000  0.80977200  0.34970400  1
  O  O79  1  0.85286500  0.51810600  0.34833000  1
  O  O80  1  0.66524100  0.14713500  0.68166300  1
  O  O81  1  0.96107700  0.66757300  0.25377700  1
  O  O82  1  0.70480100  0.18718600  0.02836100  1
  O  O83  1  0.79125200  0.34342800  0.81665800  1
  O  O84  1  0.72295500  0.17612600  0.35412500  1
  O  O85  1  0.79382500  0.29032500  0.47562900  1
  O  O86  1  0.84263600  0.35971900  0.17431300  1
  O  O87  1  0.70649600  0.03892300  0.58711100  1
  O  O88  1  0.73943500  0.07666300  0.25413800  1
  O  O89  1  0.91574200  0.31992500  0.95158400  1
  O  O90  1  0.93379200  0.27194800  0.63193900  1
  O  O91  1  0.81947200  0.00970000  0.68303700  1
  O  O92  1  0.86700400  0.06620600  0.99835200  1
  O  O93  1  0.98760800  0.32127400  0.05697500  1
  O  O94  1  0.86562800  0.02602500  0.34276900  1
  O  O95  1  0.98447600  0.29268900  0.29851400  1
loop_
_geom_bond_atom_site_label_1
_geom_bond_atom_site_label_2
_geom_bond_distance
_geom_bond_site_symmetry_2
Li0 O78 2.036861 1_455
Li0 O3 2.243026 1_555
Li1 O10 1.976039 1_555
Li1 O77 2.086385 1_455
Li1 O16 2.113531 1_555
Li1 O89 2.249772 1_455
Li2 O12 1.989311 1_555
Li2 O23 2.012777 1_555
Li2 O95 2.180304 1_455
Li2 O81 2.199594 1_455
Li3 O90 2.078404 1_455
Li3 O2 2.153113 1_555
Li3 O22 2.251199 1_555
Li3 O9 2.470553 1_555
Li3 O75 2.520356 1_455
Li4 O49 2.078393 1_565
Li4 O43 2.153120 1_555
Li4 O11 2.251214 1_555
Li4 O29 2.470531 1_556
Li4 O71 2.520356 1_565
Li5 O28 1.989292 1_555
Li5 O13 2.012797 1_555
Li5 O48 2.180303 1_565
Li5 O87 2.199584 1_565
Li6 O32 2.036846 1_555
Li6 O21 2.243031 1_555
Li7 O35 1.976036 1_555
Li7 O88 2.086393 1_565
Li7 O15 2.113531 1_555
Li7 O55 2.249772 1_565
Li8 O4 2.036868 1_545
Li8 O36 2.243029 1_555
Li9 O25 1.976043 1_555
Li9 O45 2.086394 1_555
Li9 O44 2.113514 1_555
Li9 O61 2.249780 1_555
Li10 O27 1.989300 1_555
Li10 O39 2.012800 1_555
Li10 O58 2.180305 1_555
Li10 O42 2.199585 1_555
Li11 O62 2.078404 1_555
Li11 O38 2.153113 1_555
Li11 O41 2.251199 1_555
Li11 O30 2.470555 1_555
Li11 O69 2.520356 1_555
Li12 O33 2.078404 1_555
Li12 O57 2.153113 1_555
Li12 O54 2.251199 1_555
Li12 O65 2.470555 1_555
Li12 O26 2.520356 1_555
Li13 O68 1.989300 1_555
Li13 O56 2.012800 1_555
Li13 O37 2.180305 1_555
Li13 O53 2.199585 1_555
Li14 O70 1.976043 1_555
Li14 O50 2.086394 1_555
Li14 O51 2.113514 1_555
Li14 O34 2.249780 1_555
Li15 O91 2.036868 1_565
Li15 O59 2.243029 1_555
Li16 O60 1.976036 1_555
Li16 O7 2.086393 1_545
Li16 O80 2.113531 1_555
Li16 O40 2.249772 1_545
Li17 O63 2.036846 1_555
Li17 O74 2.243031 1_555
Li18 O67 1.989292 1_555
Li18 O82 2.012797 1_555
Li18 O47 2.180303 1_545
Li18 O8 2.199584 1_545
Li19 O46 2.078393 1_545
Li19 O52 2.153120 1_555
Li19 O84 2.251214 1_555
Li19 O66 2.470531 1_555
Li19 O24 2.520356 1_545
Li20 O5 2.078404 1_655
Li20 O93 2.153113 1_555
Li20 O73 2.251199 1_555
Li20 O86 2.470553 1_555
Li20 O20 2.520356 1_655
Li21 O83 1.989311 1_555
Li21 O72 2.012777 1_555
Li21 O0 2.180304 1_655
Li21 O14 2.199594 1_655
Li22 O85 1.976039 1_555
Li22 O18 2.086385 1_655
Li22 O79 2.113531 1_555
Li22 O6 2.249772 1_655
Li23 O17 2.036861 1_655
Li23 O92 2.243026 1_555
Co0 O7 1.986451 1_555
Co0 O9 1.996870 1_555
Co0 O74 2.010977 1_455
Co0 O48 2.032023 1_565
Co1 O49 1.965365 1_564
Co1 O76 1.965939 1_455
Co1 O8 1.970426 1_555
Co1 O10 2.006351 1_554
Co2 O6 1.997042 1_555
Co2 O52 2.009863 1_565
Co2 O12 2.025148 1_555
Co2 O78 2.061300 1_455
Co2 O24 2.322288 1_555
Co3 O90 1.965353 1_455
Co3 O31 1.965939 1_555
Co3 O14 1.970426 1_555
Co3 O25 2.006356 1_555
Co4 O26 1.964522 1_555
Co4 O16 1.977974 1_555
Co4 O39 1.982422 1_555
Co4 O11 1.983520 1_555
Co5 O24 1.964522 1_555
Co5 O44 1.977974 1_555
Co5 O13 1.982422 1_555
Co5 O22 1.983520 1_555
Co6 O20 1.964544 1_555
Co6 O15 1.977967 1_555
Co6 O23 1.982421 1_555
Co6 O41 1.983520 1_555
Co7 O18 1.986454 1_555
Co7 O30 1.996876 1_555
Co7 O36 2.010978 1_555
Co7 O95 2.032023 1_455
Co8 O34 1.997062 1_555
Co8 O93 2.009866 1_455
Co8 O27 2.025148 1_554
Co8 O32 2.061294 1_555
Co8 O20 2.322288 1_555
Co9 O40 1.997042 1_555
Co9 O57 2.009867 1_555
Co9 O28 2.025148 1_555
Co9 O91 2.061300 1_565
Co9 O26 2.322288 1_555
Co10 O33 1.965353 1_555
Co10 O1 1.965939 1_545
Co10 O42 1.970426 1_555
Co10 O60 2.006360 1_555
Co11 O45 1.986449 1_555
Co11 O66 1.996880 1_555
Co11 O3 2.010974 1_545
Co11 O37 2.032011 1_555
Co12 O50 1.986449 1_555
Co12 O29 1.996880 1_555
Co12 O92 2.010974 1_564
Co12 O58 2.032011 1_554
Co13 O62 1.965353 1_555
Co13 O94 1.965939 1_565
Co13 O53 1.970426 1_555
Co13 O35 2.006360 1_555
Co14 O55 1.997042 1_555
Co14 O38 2.009867 1_555
Co14 O67 2.025148 1_555
Co14 O4 2.061300 1_545
Co14 O69 2.322288 1_555
Co15 O61 1.997062 1_555
Co15 O2 2.009866 1_655
Co15 O68 2.025148 1_555
Co15 O63 2.061294 1_555
Co15 O75 2.322288 1_555
Co16 O77 1.986454 1_555
Co16 O65 1.996876 1_555
Co16 O59 2.010978 1_555
Co16 O0 2.032023 1_655
Co17 O75 1.964544 1_555
Co17 O80 1.977967 1_555
Co17 O72 1.982421 1_555
Co17 O54 1.983520 1_555
Co18 O71 1.964522 1_555
Co18 O51 1.977974 1_556
Co18 O82 1.982422 1_556
Co18 O73 1.983520 1_556
Co19 O69 1.964522 1_555
Co19 O79 1.977974 1_555
Co19 O56 1.982422 1_555
Co19 O84 1.983520 1_555
Co20 O5 1.965353 1_655
Co20 O64 1.965939 1_555
Co20 O81 1.970426 1_555
Co20 O70 2.006356 1_555
Co21 O89 1.997042 1_555
Co21 O43 2.009863 1_545
Co21 O83 2.025148 1_555
Co21 O17 2.061300 1_655
Co21 O71 2.322288 1_555
Co22 O46 1.965365 1_545
Co22 O19 1.965939 1_655
Co22 O87 1.970426 1_555
Co22 O85 2.006351 1_555
Co23 O88 1.986451 1_555
Co23 O86 1.996870 1_555
Co23 O21 2.010977 1_655
Co23 O47 2.032023 1_545
O0 P0 1.562558 1_555
O1 P0 1.556236 1_555
O2 P1 1.555572 1_555
O3 P1 1.561577 1_555
O4 P2 1.558180 1_555
O5 P2 1.559185 1_555
O6 P1 1.560385 1_555
O7 P0 1.558989 1_555
O8 P2 1.553258 1_555
O9 P6 1.549449 1_555
O10 P4 1.550367 1_556
O11 P0 1.555344 1_555
O12 P7 1.552731 1_555
O13 P1 1.554511 1_555
O14 P3 1.553277 1_555
O15 P2 1.555459 1_555
O16 P3 1.555459 1_555
O17 P3 1.558180 1_555
O18 P5 1.558992 1_555
O19 P5 1.556226 1_555
O20 P4 1.560628 1_555
O21 P8 1.561581 1_555
O22 P5 1.555344 1_555
O23 P8 1.554511 1_555
O24 P7 1.560628 1_555
O25 P6 1.550370 1_555
O26 P6 1.560628 1_555
O27 P4 1.552731 1_556
O28 P6 1.552731 1_555
O29 P4 1.549444 1_555
O30 P7 1.549439 1_555
O31 P11 1.556236 1_555
O32 P10 1.558180 1_554
O33 P3 1.559185 1_555
O34 P8 1.560385 1_555
O35 P7 1.550373 1_555
O36 P14 1.561581 1_555
O37 P5 1.562558 1_555
O38 P8 1.555572 1_555
O39 P9 1.554505 1_555
O40 P9 1.560404 1_555
O41 P12 1.555358 1_555
O42 P10 1.553277 1_555
O43 P9 1.555556 1_555
O44 P13 1.555459 1_555
O45 P11 1.558987 1_555
O46 P13 1.559190 1_555
O47 P12 1.562558 1_555
O48 P11 1.562558 1_555
O49 P10 1.559190 1_555
O50 P12 1.558987 1_555
O51 P10 1.555459 1_554
O52 P14 1.555556 1_555
O53 P13 1.553277 1_555
O54 P11 1.555358 1_555
O55 P14 1.560404 1_555
O56 P14 1.554505 1_555
O57 P15 1.555572 1_555
O58 P18 1.562558 1_555
O59 P9 1.561581 1_555
O60 P16 1.550373 1_555
O61 P15 1.560385 1_555
O62 P20 1.559185 1_555
O63 P13 1.558180 1_555
O64 P12 1.556236 1_555
O65 P16 1.549439 1_555
O66 P19 1.549444 1_555
O67 P17 1.552731 1_555
O68 P19 1.552731 1_555
O69 P17 1.560628 1_555
O70 P17 1.550370 1_555
O71 P16 1.560628 1_555
O72 P15 1.554511 1_555
O73 P18 1.555344 1_554
O74 P15 1.561581 1_555
O75 P19 1.560628 1_555
O76 P18 1.556226 1_554
O77 P18 1.558992 1_555
O78 P20 1.558180 1_555
O79 P20 1.555459 1_555
O80 P21 1.555459 1_555
O81 P20 1.553277 1_555
O82 P22 1.554511 1_555
O83 P16 1.552731 1_555
O84 P23 1.555344 1_555
O85 P19 1.550367 1_555
O86 P17 1.549449 1_555
O87 P21 1.553258 1_555
O88 P23 1.558989 1_555
O89 P22 1.560385 1_556
O90 P21 1.559185 1_555
O91 P21 1.558180 1_555
O92 P22 1.561577 1_556
O93 P22 1.555572 1_555
O94 P23 1.556236 1_555
O95 P23 1.562558 1_555
