# generated using pymatgen
data_Li4Mn2Fe3Cu3O16
_symmetry_space_group_name_H-M   'P 1'
_cell_length_a   5.85727726
_cell_length_b   5.86602310
_cell_length_c   9.42063509
_cell_angle_alpha   89.98708867
_cell_angle_beta   90.14618379
_cell_angle_gamma   120.08143481
_symmetry_Int_Tables_number   1
_chemical_formula_structural   Li4Mn2Fe3Cu3O16
_chemical_formula_sum   'Li4 Mn2 Fe3 Cu3 O16'
_cell_volume   280.08617063
_cell_formula_units_Z   1
loop_
 _symmetry_equiv_pos_site_id
 _symmetry_equiv_pos_as_xyz
  1  'x, y, z'
loop_
 _atom_site_type_symbol
 _atom_site_label
 _atom_site_symmetry_multiplicity
 _atom_site_fract_x
 _atom_site_fract_y
 _atom_site_fract_z
 _atom_site_occupancy
  Li  Li0  1  0.32141800  0.66068700  0.89917100  1
  Li  Li1  1  0.00357500  0.00194400  0.99413800  1
  Li  Li2  1  0.01577600  0.00792300  0.49119500  1
  Li  Li3  1  0.66342800  0.33172500  0.39720000  1
  Mn  Mn0  1  0.33751700  0.66884000  0.48485000  1
  Mn  Mn1  1  0.66404000  0.33193300  0.98498900  1
  Fe  Fe0  1  0.66186800  0.83091000  0.21320100  1
  Fe  Fe1  1  0.83011400  0.65998000  0.71293900  1
  Fe  Fe2  1  0.83009600  0.17009200  0.71292200  1
  Cu  Cu0  1  0.17124200  0.82965500  0.21259700  1
  Cu  Cu1  1  0.17086700  0.34147000  0.21213300  1
  Cu  Cu2  1  0.34181900  0.17091600  0.71158800  1
  O  O0  1  0.16432700  0.82445200  0.59403100  1
  O  O1  1  0.04294000  0.52174500  0.34896000  1
  O  O2  1  0.32230800  0.66100100  0.10786000  1
  O  O3  1  0.01478600  0.00758900  0.30128700  1
  O  O4  1  0.01184000  0.00586600  0.80441000  1
  O  O5  1  0.16437800  0.33976300  0.59403100  1
  O  O6  1  0.48201600  0.96080800  0.34839900  1
  O  O7  1  0.48215200  0.52131600  0.34857200  1
  O  O8  1  0.33527400  0.16733800  0.09462900  1
  O  O9  1  0.66460500  0.83233900  0.59603500  1
  O  O10  1  0.51845800  0.48167500  0.85010300  1
  O  O11  1  0.51843900  0.03692600  0.85009000  1
  O  O12  1  0.65890200  0.32950900  0.60448300  1
  O  O13  1  0.82570100  0.66120900  0.09542100  1
  O  O14  1  0.95660700  0.47828300  0.84729100  1
  O  O15  1  0.82550600  0.16440500  0.09531400  1
loop_
_geom_bond_atom_site_label_1
_geom_bond_atom_site_label_2
_geom_bond_distance
_geom_bond_site_symmetry_2
Li0 O14 1.911174 1_455
Li0 O2 1.965975 1_556
Li0 O11 1.966103 1_565
Li0 O10 1.966266 1_555
Li1 O4 1.787968 1_555
Li1 O8 1.927076 1_556
Li1 O15 1.976473 1_456
Li1 O13 1.976759 1_446
Li2 O3 1.789047 1_555
Li2 O5 1.945092 1_555
Li2 O0 1.946253 1_545
Li2 O9 2.037968 1_445
Li3 O6 1.937749 1_545
Li3 O7 1.937825 1_555
Li3 O12 1.952937 1_555
Li3 O1 1.977714 1_655
Mn0 O9 1.958483 1_555
Mn0 O6 1.963026 1_555
Mn0 O0 1.963221 1_555
Mn0 O5 1.963335 1_555
Mn0 O7 1.963608 1_555
Mn0 O1 1.963976 1_555
Mn1 O11 1.962912 1_555
Mn1 O8 1.962940 1_556
Mn1 O10 1.964237 1_555
Mn1 O15 1.966373 1_556
Mn1 O13 1.967785 1_556
Mn1 O14 1.972916 1_555
Fe0 O3 1.969715 1_665
Fe0 O2 1.984213 1_555
Fe0 O15 2.025807 1_565
Fe0 O13 2.026450 1_555
Fe0 O7 2.030266 1_555
Fe0 O6 2.030891 1_555
Fe1 O4 1.955350 1_665
Fe1 O12 1.963265 1_555
Fe1 O14 2.018201 1_555
Fe1 O0 2.033509 1_655
Fe1 O9 2.037534 1_555
Fe1 O10 2.047779 1_555
Fe2 O4 1.956291 1_655
Fe2 O12 1.964155 1_555
Fe2 O14 2.018193 1_555
Fe2 O5 2.033690 1_655
Fe2 O9 2.036629 1_545
Fe2 O11 2.048029 1_555
Cu0 O3 1.894861 1_565
Cu0 O2 1.902026 1_555
Cu0 O1 2.029920 1_555
Cu0 O6 2.031439 1_555
Cu0 O8 2.044152 1_565
Cu0 O13 2.067726 1_455
Cu1 O3 1.893506 1_555
Cu1 O2 1.897881 1_555
Cu1 O1 2.034982 1_555
Cu1 O7 2.037115 1_555
Cu1 O8 2.046483 1_555
Cu1 O15 2.065155 1_455
Cu2 O4 1.889448 1_555
Cu2 O12 1.899995 1_555
Cu2 O11 2.048951 1_555
Cu2 O10 2.049329 1_555
Cu2 O5 2.076835 1_555
Cu2 O0 2.077220 1_545
