# generated using pymatgen
data_Zr32N17O39
_symmetry_space_group_name_H-M   'P 1'
_cell_length_a   8.90022500
_cell_length_b   8.90171455
_cell_length_c   14.58841529
_cell_angle_alpha   90.01026060
_cell_angle_beta   90.00107613
_cell_angle_gamma   110.04736034
_symmetry_Int_Tables_number   1
_chemical_formula_structural   Zr32N17O39
_chemical_formula_sum   'Zr32 N17 O39'
_cell_volume   1085.76977392
_cell_formula_units_Z   1
loop_
 _symmetry_equiv_pos_site_id
 _symmetry_equiv_pos_as_xyz
  1  'x, y, z'
loop_
 _atom_site_type_symbol
 _atom_site_label
 _atom_site_symmetry_multiplicity
 _atom_site_fract_x
 _atom_site_fract_y
 _atom_site_fract_z
 _atom_site_occupancy
  Zr  Zr0  1  0.89178700  0.61968400  0.89677500  1
  Zr  Zr1  1  0.00395400  0.99302000  0.99996900  1
  Zr  Zr2  1  0.78810500  0.28860000  0.75000000  1
  Zr  Zr3  1  0.50238200  0.50353700  0.99979100  1
  Zr  Zr4  1  0.36096100  0.14729200  0.86254800  1
  Zr  Zr5  1  0.54867100  0.50493100  0.75022800  1
  Zr  Zr6  1  0.64550800  0.86029500  0.86311300  1
  Zr  Zr7  1  0.11565400  0.38830100  0.89422500  1
  Zr  Zr8  1  0.36031200  0.14705000  0.63716000  1
  Zr  Zr9  1  0.89019700  0.61568500  0.60726300  1
  Zr  Zr10  1  0.00394900  0.04719600  0.75034000  1
  Zr  Zr11  1  0.26867800  0.77511000  0.97985700  1
  Zr  Zr12  1  0.77626200  0.27626200  0.47844200  1
  Zr  Zr13  1  0.64706600  0.86079800  0.63723400  1
  Zr  Zr14  1  0.39057700  0.11603500  0.39298800  1
  Zr  Zr15  1  0.78782200  0.28862100  0.25001600  1
  Zr  Zr16  1  0.00235600  0.00208700  0.49997800  1
  Zr  Zr17  1  0.50266200  0.50269600  0.50000800  1
  Zr  Zr18  1  0.28933100  0.78911500  0.75016200  1
  Zr  Zr19  1  0.11623400  0.39043800  0.60692800  1
  Zr  Zr20  1  0.86006900  0.64638900  0.36207600  1
  Zr  Zr21  1  0.04724500  0.00460600  0.24986100  1
  Zr  Zr22  1  0.27569200  0.77598500  0.52147700  1
  Zr  Zr23  1  0.77647300  0.27458800  0.02138200  1
  Zr  Zr24  1  0.61612300  0.89059200  0.39296900  1
  Zr  Zr25  1  0.14702800  0.36033100  0.36263600  1
  Zr  Zr26  1  0.86404800  0.65043300  0.13380800  1
  Zr  Zr27  1  0.39115400  0.11826800  0.10641900  1
  Zr  Zr28  1  0.50542100  0.54748100  0.24965100  1
  Zr  Zr29  1  0.14525500  0.35914600  0.13657800  1
  Zr  Zr30  1  0.28718500  0.78729000  0.25006500  1
  Zr  Zr31  1  0.61714200  0.88996200  0.10567000  1
  N  N0  1  0.86665500  0.36663100  0.88665700  1
  N  N1  1  0.75327100  0.03464800  0.74947700  1
  N  N2  1  0.53406900  0.25405900  0.74960000  1
  N  N3  1  0.22956200  0.00296600  0.74949900  1
  N  N4  1  0.86605900  0.36546700  0.61316200  1
  N  N5  1  0.50317500  0.72952100  0.74974700  1
  N  N6  1  0.64350100  0.14357700  0.36006000  1
  N  N7  1  0.14446400  0.64278900  0.85839700  1
  N  N8  1  0.64362000  0.14375900  0.14014900  1
  N  N9  1  0.14407700  0.64385100  0.64017000  1
  N  N10  1  0.72879700  0.50171800  0.25081800  1
  N  N11  1  0.36533600  0.86537700  0.38667400  1
  N  N12  1  0.00301600  0.22976400  0.25047600  1
  N  N13  1  0.25400300  0.53404700  0.25007500  1
  N  N14  1  0.03426600  0.75416500  0.25094500  1
  N  N15  1  0.36733000  0.86753300  0.11358400  1
  N  N16  1  0.01802500  0.75231300  0.01615600  1
  O  O0  1  0.75044400  0.01716100  0.98379200  1
  O  O1  1  0.51800700  0.25063600  0.98324800  1
  O  O2  1  0.25451900  0.01399800  0.98407700  1
  O  O3  1  0.64639400  0.61356000  0.88002100  1
  O  O4  1  0.80888600  0.55317000  0.74905100  1
  O  O5  1  0.89867500  0.86828400  0.86356300  1
  O  O6  1  0.75104700  0.01771300  0.51616200  1
  O  O7  1  0.11368600  0.14465200  0.87971700  1
  O  O8  1  0.50968000  0.74973100  0.98383400  1
  O  O9  1  0.36829500  0.40074800  0.86643900  1
  O  O10  1  0.90051200  0.86812000  0.63307100  1
  O  O11  1  0.51763200  0.25111100  0.51612600  1
  O  O12  1  0.25014100  0.00953600  0.51624700  1
  O  O13  1  0.64567100  0.61370800  0.61997100  1
  O  O14  1  0.36813900  0.40064200  0.63313300  1
  O  O15  1  0.93216500  0.43191600  0.37244600  1
  O  O16  1  0.43091800  0.93176200  0.87139000  1
  O  O17  1  0.05378900  0.30940400  0.75015700  1
  O  O18  1  0.75000800  0.50950900  0.48380400  1
  O  O19  1  0.11340600  0.14603600  0.62014900  1
  O  O20  1  0.50939000  0.75020400  0.51618200  1
  O  O21  1  0.14606800  0.11340600  0.37983800  1
  O  O22  1  0.93072900  0.42996600  0.12893600  1
  O  O23  1  0.43219700  0.93222400  0.62752700  1
  O  O24  1  0.31020100  0.05389900  0.25021200  1
  O  O25  1  0.40062900  0.36790800  0.36670800  1
  O  O26  1  0.00959700  0.24996700  0.48365000  1
  O  O27  1  0.61307300  0.64603000  0.37976700  1
  O  O28  1  0.86767600  0.90081400  0.36698800  1
  O  O29  1  0.25093400  0.51762500  0.48390500  1
  O  O30  1  0.40072500  0.36838500  0.13339800  1
  O  O31  1  0.14608100  0.11329500  0.12069700  1
  O  O32  1  0.74630100  0.50495600  0.01738100  1
  O  O33  1  0.86664800  0.90306800  0.13606800  1
  O  O34  1  0.01774400  0.75113100  0.48392800  1
  O  O35  1  0.55347400  0.80959600  0.25002100  1
  O  O36  1  0.61421900  0.64658800  0.12020400  1
  O  O37  1  0.00963800  0.25136200  0.01620600  1
  O  O38  1  0.25129700  0.51733100  0.01632000  1
loop_
_geom_bond_atom_site_label_1
_geom_bond_atom_site_label_2
_geom_bond_distance
_geom_bond_site_symmetry_2
N0 Zr2 2.147612 1_555
N0 Zr7 2.160464 1_655
N0 Zr23 2.174444 1_556
N0 Zr0 2.191001 1_555
N1 Zr2 2.173940 1_555
N1 Zr10 2.195346 1_655
N1 Zr13 2.228409 1_545
N1 Zr6 2.248855 1_545
N2 Zr2 2.174850 1_555
N2 Zr5 2.192061 1_555
N2 Zr8 2.231369 1_555
N2 Zr4 2.233562 1_555
N3 Zr18 2.145040 1_545
N3 Zr8 2.159309 1_555
N3 Zr4 2.169612 1_555
N3 Zr10 2.174692 1_555
N4 Zr2 2.147008 1_555
N4 Zr19 2.162447 1_655
N4 Zr9 2.164887 1_555
N4 Zr12 2.167068 1_555
N5 Zr18 2.143844 1_555
N5 Zr13 2.162077 1_555
N5 Zr6 2.164088 1_555
N5 Zr5 2.171630 1_555
N6 Zr15 2.181274 1_555
N6 Zr12 2.194574 1_555
N6 Zr14 2.231575 1_555
N6 Zr24 2.232833 1_545
N7 Zr18 2.168324 1_555
N7 Zr11 2.203561 1_555
N7 Zr7 2.252346 1_555
N7 Zr0 2.257478 1_455
N8 Zr15 2.177957 1_555
N8 Zr23 2.193878 1_555
N8 Zr27 2.234502 1_555
N8 Zr31 2.246603 1_545
N9 Zr18 2.184320 1_555
N9 Zr22 2.193193 1_555
N9 Zr19 2.236429 1_555
N9 Zr9 2.238430 1_455
N10 Zr15 2.134867 1_555
N10 Zr20 2.150703 1_555
N10 Zr28 2.161949 1_555
N10 Zr26 2.241363 1_555
N11 Zr30 2.146309 1_555
N11 Zr14 2.166531 1_565
N11 Zr24 2.167351 1_555
N11 Zr22 2.168522 1_555
N12 Zr15 2.151928 1_455
N12 Zr25 2.156129 1_555
N12 Zr29 2.165906 1_555
N12 Zr21 2.170978 1_555
N13 Zr30 2.170860 1_555
N13 Zr28 2.199563 1_555
N13 Zr25 2.232885 1_555
N13 Zr29 2.251257 1_555
N14 Zr30 2.167766 1_555
N14 Zr21 2.192503 1_565
N14 Zr20 2.221125 1_455
N14 Zr26 2.260134 1_455
N15 Zr30 2.152794 1_555
N15 Zr31 2.166171 1_555
N15 Zr27 2.170990 1_565
N15 Zr11 2.181234 1_554
N16 Zr0 2.186113 1_454
N16 Zr26 2.189747 1_455
N16 Zr1 2.201542 1_554
N16 Zr11 2.233400 1_554
O0 Zr31 2.220534 1_546
O0 Zr6 2.241984 1_545
O0 Zr23 2.289353 1_556
O0 Zr1 2.350568 1_645
O1 Zr27 2.231725 1_556
O1 Zr4 2.240142 1_555
O1 Zr23 2.304442 1_556
O1 Zr3 2.315204 1_555
O2 Zr4 2.163044 1_555
O2 Zr11 2.173800 1_545
O2 Zr27 2.179740 1_556
O2 Zr1 2.185503 1_545
O3 Zr5 2.167821 1_555
O3 Zr0 2.179712 1_555
O3 Zr3 2.189753 1_555
O3 Zr6 2.212914 1_555
O4 Zr9 2.199160 1_555
O4 Zr5 2.206036 1_555
O4 Zr0 2.288935 1_555
O4 Zr2 2.298346 1_555
O5 Zr6 2.229875 1_555
O5 Zr0 2.245685 1_555
O5 Zr10 2.262862 1_665
O5 Zr1 2.314436 1_655
O6 Zr24 2.240536 1_545
O6 Zr13 2.245412 1_545
O6 Zr16 2.300274 1_655
O6 Zr12 2.301423 1_555
O7 Zr10 2.165007 1_555
O7 Zr7 2.173245 1_555
O7 Zr4 2.207121 1_555
O7 Zr1 2.224947 1_545
O8 Zr6 2.171786 1_555
O8 Zr3 2.182632 1_555
O8 Zr31 2.193797 1_556
O8 Zr11 2.233280 1_555
O9 Zr4 2.235369 1_555
O9 Zr7 2.249858 1_555
O9 Zr5 2.300311 1_555
O9 Zr3 2.301440 1_555
O10 Zr13 2.235049 1_555
O10 Zr9 2.248981 1_555
O10 Zr16 2.296397 1_665
O10 Zr10 2.303951 1_665
O11 Zr14 2.240199 1_555
O11 Zr8 2.246711 1_555
O11 Zr17 2.300724 1_555
O11 Zr12 2.301673 1_555
O12 Zr22 2.168868 1_545
O12 Zr8 2.178901 1_555
O12 Zr16 2.196356 1_555
O12 Zr14 2.209681 1_555
O13 Zr5 2.172890 1_555
O13 Zr9 2.178274 1_555
O13 Zr17 2.190044 1_555
O13 Zr13 2.209653 1_555
O14 Zr8 2.235265 1_555
O14 Zr19 2.245294 1_555
O14 Zr17 2.299017 1_555
O14 Zr5 2.310471 1_555
O15 Zr25 2.217878 1_655
O15 Zr12 2.217886 1_555
O15 Zr20 2.218013 1_555
O15 Zr15 2.311518 1_555
O16 Zr6 2.213599 1_555
O16 Zr4 2.214580 1_565
O16 Zr11 2.270210 1_555
O16 Zr18 2.286948 1_555
O17 Zr19 2.218308 1_555
O17 Zr10 2.221476 1_555
O17 Zr7 2.224404 1_555
O17 Zr2 2.307732 1_455
O18 Zr12 2.168940 1_555
O18 Zr20 2.186386 1_555
O18 Zr17 2.194166 1_555
O18 Zr9 2.210148 1_555
O19 Zr19 2.175698 1_555
O19 Zr10 2.177949 1_555
O19 Zr16 2.196145 1_555
O19 Zr8 2.208424 1_555
O20 Zr22 2.170749 1_555
O20 Zr13 2.182091 1_555
O20 Zr17 2.196113 1_555
O20 Zr24 2.209536 1_555
O21 Zr21 2.173082 1_555
O21 Zr14 2.176740 1_555
O21 Zr16 2.195789 1_555
O21 Zr25 2.209484 1_555
O22 Zr29 2.209219 1_655
O22 Zr23 2.226452 1_555
O22 Zr26 2.237695 1_555
O22 Zr15 2.285737 1_555
O23 Zr13 2.217018 1_555
O23 Zr8 2.219183 1_565
O23 Zr22 2.222397 1_555
O23 Zr18 2.308837 1_555
O24 Zr14 2.210048 1_555
O24 Zr27 2.228292 1_555
O24 Zr21 2.228413 1_555
O24 Zr30 2.311082 1_545
O25 Zr25 2.235671 1_555
O25 Zr14 2.246062 1_555
O25 Zr17 2.301736 1_555
O25 Zr28 2.306547 1_555
O26 Zr12 2.169483 1_455
O26 Zr25 2.180548 1_555
O26 Zr16 2.198290 1_555
O26 Zr19 2.210022 1_555
O27 Zr28 2.171123 1_555
O27 Zr24 2.176370 1_555
O27 Zr17 2.193591 1_555
O27 Zr20 2.212337 1_555
O28 Zr24 2.241626 1_555
O28 Zr20 2.243644 1_555
O28 Zr16 2.296086 1_665
O28 Zr21 2.305613 1_665
O29 Zr19 2.238375 1_555
O29 Zr25 2.248742 1_555
O29 Zr22 2.300084 1_555
O29 Zr17 2.301417 1_555
O30 Zr27 2.233604 1_555
O30 Zr29 2.247357 1_555
O30 Zr28 2.294923 1_555
O30 Zr3 2.306447 1_554
O31 Zr21 2.162797 1_555
O31 Zr27 2.176424 1_555
O31 Zr29 2.203200 1_555
O31 Zr1 2.217899 1_544
O32 Zr23 2.158322 1_555
O32 Zr26 2.174587 1_555
O32 Zr3 2.181775 1_554
O32 Zr0 2.215722 1_554
O33 Zr31 2.227986 1_555
O33 Zr26 2.241294 1_555
O33 Zr21 2.271490 1_665
O33 Zr1 2.325178 1_654
O34 Zr9 2.245486 1_455
O34 Zr20 2.258521 1_455
O34 Zr22 2.295945 1_555
O34 Zr16 2.296440 1_565
O35 Zr24 2.214357 1_555
O35 Zr28 2.223274 1_555
O35 Zr31 2.233867 1_555
O35 Zr30 2.309511 1_555
O36 Zr28 2.167280 1_555
O36 Zr31 2.168097 1_555
O36 Zr3 2.197321 1_554
O36 Zr26 2.220916 1_555
O37 Zr23 2.156188 1_455
O37 Zr29 2.160202 1_555
O37 Zr7 2.180638 1_554
O37 Zr1 2.295053 1_544
O38 Zr7 2.235578 1_554
O38 Zr29 2.245258 1_555
O38 Zr3 2.292444 1_554
O38 Zr11 2.308570 1_554
