# generated using pymatgen
data_EuHfO3
_symmetry_space_group_name_H-M   'P 1'
_cell_length_a   4.09768332
_cell_length_b   4.09766316
_cell_length_c   4.09771369
_cell_angle_alpha   89.99898543
_cell_angle_beta   89.99935178
_cell_angle_gamma   90.00050728
_symmetry_Int_Tables_number   1
_chemical_formula_structural   EuHfO3
_chemical_formula_sum   'Eu1 Hf1 O3'
_cell_volume   68.80440725
_cell_formula_units_Z   1
loop_
 _symmetry_equiv_pos_site_id
 _symmetry_equiv_pos_as_xyz
  1  'x, y, z'
loop_
 _atom_site_type_symbol
 _atom_site_label
 _atom_site_symmetry_multiplicity
 _atom_site_fract_x
 _atom_site_fract_y
 _atom_site_fract_z
 _atom_site_occupancy
  Eu  Eu0  1  0.99999900  0.99999900  0.00000200  1
  Hf  Hf0  1  0.50000000  0.50000100  0.50000000  1
  O  O0  1  0.99999900  0.50000100  0.49999900  1
  O  O1  1  0.50000100  0.00000000  0.50000000  1
  O  O2  1  0.50000100  0.49999900  -0.00000000  1
loop_
_geom_bond_atom_site_label_1
_geom_bond_atom_site_label_2
_geom_bond_distance
_geom_bond_site_symmetry_2
Eu0 O0 2.897463 1_555
Eu0 O2 2.897474 1_555
Eu0 O1 2.897482 1_565
Eu0 O2 2.897486 1_665
Eu0 O0 2.897492 1_564
Eu0 O2 2.897500 1_565
Eu0 O1 2.897506 1_664
Eu0 O2 2.897511 1_655
Eu0 O0 2.897526 1_565
Eu0 O1 2.897527 1_665
Eu0 O1 2.897527 1_564
Eu0 O0 2.897532 1_554
Hf0 O1 2.048827 1_565
Hf0 O1 2.048836 1_555
Hf0 O0 2.048838 1_555
Hf0 O0 2.048846 1_455
Hf0 O2 2.048857 1_556
Hf0 O2 2.048857 1_555
