# generated using pymatgen
data_Li3MnFe2(BO3)3
_symmetry_space_group_name_H-M   'P 1'
_cell_length_a   3.08122880
_cell_length_b   8.10410614
_cell_length_c   14.05523100
_cell_angle_alpha   89.85240333
_cell_angle_beta   90.00000000
_cell_angle_gamma   90.00000000
_symmetry_Int_Tables_number   1
_chemical_formula_structural   Li3MnFe2(BO3)3
_chemical_formula_sum   'Li6 Mn2 Fe4 B6 O18'
_cell_volume   350.96646040
_cell_formula_units_Z   2
loop_
 _symmetry_equiv_pos_site_id
 _symmetry_equiv_pos_as_xyz
  1  'x, y, z'
loop_
 _atom_site_type_symbol
 _atom_site_label
 _atom_site_symmetry_multiplicity
 _atom_site_fract_x
 _atom_site_fract_y
 _atom_site_fract_z
 _atom_site_occupancy
  Li  Li0  1  0.50000000  0.70617741  0.99482311  1
  Li  Li1  1  0.50000000  0.65943606  0.35597315  1
  Li  Li2  1  0.50000000  0.63756081  0.64993817  1
  Li  Li3  1  0.50000000  0.20540675  0.49167463  1
  Li  Li4  1  0.50000000  0.15541258  0.85560724  1
  Li  Li5  1  0.50000000  0.13462507  0.15142701  1
  Mn  Mn0  1  0.00000000  0.36775686  0.00624060  1
  Mn  Mn1  1  -0.00000000  0.30774373  0.68063217  1
  Fe  Fe0  1  -0.00000000  0.86210081  0.50136486  1
  Fe  Fe1  1  -0.00000000  0.82229022  0.81738413  1
  Fe  Fe2  1  -0.00000000  0.81562074  0.18036001  1
  Fe  Fe3  1  0.00000000  0.32164990  0.31810500  1
  B  B0  1  0.50000000  0.99652436  0.66490491  1
  B  B1  1  -0.00000000  0.99931083  0.99876696  1
  B  B2  1  0.50000000  0.00026018  0.33306229  1
  B  B3  1  0.50000000  0.50030770  0.16972784  1
  B  B4  1  -0.00000000  0.50191296  0.49986358  1
  B  B5  1  0.50000000  0.50323687  0.83348716  1
  O  O0  1  0.50000000  0.98949287  0.43113951  1
  O  O1  1  0.50000000  0.97903839  0.76280573  1
  O  O2  1  0.50000000  0.86065734  0.60606123  1
  O  O3  1  0.50000000  0.85852433  0.27851048  1
  O  O4  1  0.00000000  0.84384579  0.95797629  1
  O  O5  1  0.50000000  0.65607045  0.12923048  1
  O  O6  1  0.50000000  0.65417844  0.78766551  1
  O  O7  1  -0.00000000  0.64098590  0.44229461  1
  O  O8  1  -0.00000000  0.51762265  0.59726438  1
  O  O9  1  0.50000000  0.49578299  0.93141290  1
  O  O10  1  0.50000000  0.48075952  0.26720328  1
  O  O11  1  0.50000000  0.36154514  0.11184685  1
  O  O12  1  0.50000000  0.35927815  0.78147401  1
  O  O13  1  0.00000000  0.34686367  0.45830425  1
  O  O14  1  0.50000000  0.15334505  0.62479099  1
  O  O15  1  0.50000000  0.15306574  0.28925724  1
  O  O16  1  -0.00000000  0.13808661  0.94227290  1
  O  O17  1  0.00000000  0.01352410  0.09714655  1
loop_
_geom_bond_atom_site_label_1
_geom_bond_atom_site_label_2
_geom_bond_distance
_geom_bond_site_symmetry_2
Li0 O9 1.925973 1_555
Li0 O5 1.931254 1_556
Li0 O4 1.970651 1_555
Li0 O4 1.970651 1_655
Li1 O10 1.913834 1_555
Li1 O3 1.944094 1_555
Li1 O7 1.966452 1_655
Li1 O7 1.966452 1_555
Li2 O2 1.908778 1_555
Li2 O6 1.940814 1_555
Li2 O8 1.967251 1_555
Li2 O8 1.967251 1_655
Li3 O14 1.916902 1_555
Li3 O0 1.947653 1_545
Li3 O13 1.976082 1_555
Li3 O13 1.976082 1_655
Li4 O1 1.937519 1_545
Li4 O12 1.951001 1_555
Li4 O16 1.968784 1_555
Li4 O16 1.968784 1_655
Li5 O11 1.919914 1_555
Li5 O15 1.943375 1_555
Li5 O17 1.980550 1_555
Li5 O17 1.980550 1_655
Mn0 O16 2.069131 1_554
Mn0 O9 2.133183 1_454
Mn0 O9 2.133183 1_554
Mn0 O11 2.139824 1_455
Mn0 O11 2.139824 1_555
Mn1 O8 2.062943 1_555
Mn1 O12 2.135383 1_555
Mn1 O12 2.135383 1_455
Mn1 O14 2.135467 1_455
Mn1 O14 2.135467 1_555
Fe0 O7 1.976871 1_555
Fe0 O0 2.099601 1_455
Fe0 O0 2.099601 1_555
Fe0 O2 2.130480 1_455
Fe0 O2 2.130480 1_555
Fe1 O4 1.984210 1_555
Fe1 O6 2.099291 1_455
Fe1 O6 2.099291 1_555
Fe1 O1 2.137897 1_555
Fe1 O1 2.137897 1_455
Fe2 O17 1.982557 1_565
Fe2 O3 2.097606 1_455
Fe2 O3 2.097606 1_555
Fe2 O5 2.136961 1_555
Fe2 O5 2.136961 1_455
Fe3 O13 1.981622 1_555
Fe3 O15 2.099360 1_455
Fe3 O15 2.099360 1_555
Fe3 O10 2.131489 1_455
Fe3 O10 2.131489 1_555
B0 O2 1.378804 1_555
B0 O1 1.382933 1_555
B0 O14 1.389013 1_565
B1 O16 1.375042 1_565
B1 O4 1.385562 1_555
B1 O17 1.387833 1_566
B2 O0 1.381033 1_545
B2 O15 1.381544 1_555
B2 O3 1.382680 1_545
B3 O10 1.378763 1_555
B3 O5 1.383377 1_555
B3 O11 1.389658 1_555
B4 O8 1.375224 1_555
B4 O7 1.385744 1_555
B4 O13 1.387035 1_555
B5 O9 1.377538 1_555
B5 O12 1.378378 1_555
B5 O6 1.380961 1_555
