# generated using pymatgen
data_Dy2WO6
_symmetry_space_group_name_H-M   'P 1'
_cell_length_a   9.89402125
_cell_length_b   9.89402125
_cell_length_c   5.40824738
_cell_angle_alpha   75.81729011
_cell_angle_beta   75.81729011
_cell_angle_gamma   68.40722751
_symmetry_Int_Tables_number   1
_chemical_formula_structural   Dy2WO6
_chemical_formula_sum   'Dy8 W4 O24'
_cell_volume   470.17073954
_cell_formula_units_Z   4
loop_
 _symmetry_equiv_pos_site_id
 _symmetry_equiv_pos_as_xyz
  1  'x, y, z'
loop_
 _atom_site_type_symbol
 _atom_site_label
 _atom_site_symmetry_multiplicity
 _atom_site_fract_x
 _atom_site_fract_y
 _atom_site_fract_z
 _atom_site_occupancy
  Dy  Dy0  1  0.94403300  0.71501200  0.38279800  1
  Dy  Dy1  1  0.71501200  0.94403300  0.88279800  1
  Dy  Dy2  1  0.36603800  0.63396200  0.25000000  1
  Dy  Dy3  1  0.89456800  0.10543200  0.25000000  1
  Dy  Dy4  1  0.10543200  0.89456800  0.75000000  1
  Dy  Dy5  1  0.63396200  0.36603800  0.75000000  1
  Dy  Dy6  1  0.28498800  0.05596700  0.11720200  1
  Dy  Dy7  1  0.05596700  0.28498800  0.61720200  1
  W  W0  1  0.80035900  0.50582600  0.06640300  1
  W  W1  1  0.50582600  0.80035900  0.56640300  1
  W  W2  1  0.49417400  0.19964100  0.43359700  1
  W  W3  1  0.19964100  0.49417400  0.93359700  1
  O  O0  1  0.89262400  0.92452100  0.07818200  1
  O  O1  1  0.92452100  0.89262400  0.57818200  1
  O  O2  1  0.52656900  0.93914800  0.26135800  1
  O  O3  1  0.78430400  0.68363100  0.14714400  1
  O  O4  1  0.93914800  0.52656900  0.76135800  1
  O  O5  1  0.68363100  0.78430400  0.64714400  1
  O  O6  1  0.82395800  0.37977600  0.38513300  1
  O  O7  1  0.37977600  0.82395800  0.88513300  1
  O  O8  1  0.61132800  0.54455000  0.02033100  1
  O  O9  1  0.31207100  0.84027700  0.42102500  1
  O  O10  1  0.54455000  0.61132800  0.52033100  1
  O  O11  1  0.84027700  0.31207100  0.92102500  1
  O  O12  1  0.15972300  0.68792900  0.07897500  1
  O  O13  1  0.45545000  0.38867200  0.47966900  1
  O  O14  1  0.68792900  0.15972300  0.57897500  1
  O  O15  1  0.38867200  0.45545000  0.97966900  1
  O  O16  1  0.62022400  0.17604200  0.11486700  1
  O  O17  1  0.17604200  0.62022400  0.61486700  1
  O  O18  1  0.31636900  0.21569600  0.35285600  1
  O  O19  1  0.06085200  0.47343100  0.23864200  1
  O  O20  1  0.21569600  0.31636900  0.85285600  1
  O  O21  1  0.47343100  0.06085200  0.73864200  1
  O  O22  1  0.07547900  0.10737600  0.42181800  1
  O  O23  1  0.10737600  0.07547900  0.92181800  1
loop_
_geom_bond_atom_site_label_1
_geom_bond_atom_site_label_2
_geom_bond_distance
_geom_bond_site_symmetry_2
Dy0 O1 2.191399 1_555
Dy0 O0 2.287095 1_555
Dy0 O12 2.324315 1_655
Dy0 O3 2.400056 1_555
Dy0 O4 2.411943 1_555
Dy0 O19 2.468820 1_655
Dy0 O5 2.554828 1_555
Dy0 O17 2.640950 1_655
Dy1 O0 2.191399 1_556
Dy1 O1 2.287095 1_555
Dy1 O14 2.324315 1_565
Dy1 O5 2.400056 1_555
Dy1 O2 2.411943 1_556
Dy1 O21 2.468820 1_565
Dy1 O3 2.554828 1_556
Dy1 O16 2.640950 1_566
Dy2 O12 2.277818 1_555
Dy2 O9 2.277818 1_555
Dy2 O7 2.384320 1_554
Dy2 O17 2.384320 1_555
Dy2 O13 2.386709 1_555
Dy2 O8 2.386709 1_555
Dy2 O15 2.474050 1_554
Dy2 O10 2.474050 1_555
Dy3 O0 2.217402 1_545
Dy3 O22 2.217402 1_655
Dy3 O11 2.347655 1_554
Dy3 O14 2.347655 1_555
Dy3 O23 2.374556 1_654
Dy3 O1 2.374556 1_545
Dy3 O16 2.777797 1_555
Dy3 O6 2.777797 1_555
Dy4 O1 2.217402 1_455
Dy4 O23 2.217402 1_565
Dy4 O9 2.347655 1_555
Dy4 O12 2.347655 1_556
Dy4 O22 2.374556 1_565
Dy4 O0 2.374556 1_456
Dy4 O7 2.777797 1_555
Dy4 O17 2.777797 1_555
Dy5 O14 2.277818 1_555
Dy5 O11 2.277818 1_555
Dy5 O16 2.384320 1_556
Dy5 O6 2.384320 1_555
Dy5 O15 2.386709 1_555
Dy5 O10 2.386709 1_555
Dy5 O13 2.474050 1_555
Dy5 O8 2.474050 1_556
Dy6 O23 2.191399 1_554
Dy6 O22 2.287095 1_555
Dy6 O9 2.324315 1_545
Dy6 O18 2.400056 1_555
Dy6 O21 2.411943 1_554
Dy6 O2 2.468820 1_545
Dy6 O20 2.554828 1_554
Dy6 O7 2.640950 1_544
Dy7 O22 2.191399 1_555
Dy7 O23 2.287095 1_555
Dy7 O11 2.324315 1_455
Dy7 O20 2.400056 1_555
Dy7 O19 2.411943 1_555
Dy7 O4 2.468820 1_455
Dy7 O18 2.554828 1_555
Dy7 O6 2.640950 1_455
O2 W1 1.892310 1_555
O3 W0 1.856741 1_555
O4 W0 1.892310 1_556
O5 W1 1.856741 1_555
O6 W0 1.873689 1_555
O7 W1 1.873689 1_555
O8 W0 1.833300 1_555
O9 W1 2.116194 1_555
O10 W1 1.833300 1_555
O11 W0 2.116194 1_556
O12 W3 2.116194 1_554
O13 W2 1.833300 1_555
O14 W2 2.116194 1_555
O15 W3 1.833300 1_555
O16 W2 1.873689 1_555
O17 W3 1.873689 1_555
O18 W2 1.856741 1_555
O19 W3 1.892310 1_554
O20 W3 1.856741 1_555
O21 W2 1.892310 1_555
