# generated using pymatgen
data_HfP2O7
_symmetry_space_group_name_H-M   'P 1'
_cell_length_a   8.38818345
_cell_length_b   8.38818345
_cell_length_c   8.38818345
_cell_angle_alpha   90.00000000
_cell_angle_beta   90.00000000
_cell_angle_gamma   90.00000000
_symmetry_Int_Tables_number   1
_chemical_formula_structural   HfP2O7
_chemical_formula_sum   'Hf4 P8 O28'
_cell_volume   590.20618974
_cell_formula_units_Z   4
loop_
 _symmetry_equiv_pos_site_id
 _symmetry_equiv_pos_as_xyz
  1  'x, y, z'
loop_
 _atom_site_type_symbol
 _atom_site_label
 _atom_site_symmetry_multiplicity
 _atom_site_fract_x
 _atom_site_fract_y
 _atom_site_fract_z
 _atom_site_occupancy
  Hf  Hf0  1  -0.00000000  -0.00000000  0.00000000  1
  Hf  Hf1  1  -0.00000000  0.50000000  0.50000000  1
  Hf  Hf2  1  0.50000000  -0.00000000  0.50000000  1
  Hf  Hf3  1  0.50000000  0.50000000  0.00000000  1
  P  P0  1  0.10789530  0.89210470  0.39210470  1
  P  P1  1  0.10789530  0.60789530  0.89210470  1
  P  P2  1  0.39210470  0.10789530  0.89210470  1
  P  P3  1  0.39210470  0.39210470  0.39210470  1
  P  P4  1  0.60789530  0.60789530  0.60789530  1
  P  P5  1  0.60789530  0.89210470  0.10789530  1
  P  P6  1  0.89210470  0.10789530  0.60789530  1
  P  P7  1  0.89210470  0.39210470  0.10789530  1
  O  O0  1  -0.00000000  -0.00000000  0.50000000  1
  O  O1  1  -0.00000000  0.50000000  0.00000000  1
  O  O2  1  0.05722643  0.72241662  0.42066340  1
  O  O3  1  0.05722643  0.77758338  0.92066340  1
  O  O4  1  0.07933660  0.94277357  0.22241662  1
  O  O5  1  0.07933660  0.55722643  0.72241662  1
  O  O6  1  0.22241662  0.07933660  0.94277357  1
  O  O7  1  0.22241662  0.42066340  0.44277357  1
  O  O8  1  0.27758338  0.57933660  0.94277357  1
  O  O9  1  0.27758338  0.92066340  0.44277357  1
  O  O10  1  0.42066340  0.05722643  0.72241662  1
  O  O11  1  0.42066340  0.44277357  0.22241662  1
  O  O12  1  0.44277357  0.27758338  0.92066340  1
  O  O13  1  0.44277357  0.22241662  0.42066340  1
  O  O14  1  0.50000000  0.50000000  0.50000000  1
  O  O15  1  0.50000000  -0.00000000  0.00000000  1
  O  O16  1  0.55722643  0.72241662  0.07933660  1
  O  O17  1  0.55722643  0.77758338  0.57933660  1
  O  O18  1  0.57933660  0.55722643  0.77758338  1
  O  O19  1  0.57933660  0.94277357  0.27758338  1
  O  O20  1  0.72241662  0.07933660  0.55722643  1
  O  O21  1  0.72241662  0.42066340  0.05722643  1
  O  O22  1  0.77758338  0.57933660  0.55722643  1
  O  O23  1  0.77758338  0.92066340  0.05722643  1
  O  O24  1  0.92066340  0.05722643  0.77758338  1
  O  O25  1  0.92066340  0.44277357  0.27758338  1
  O  O26  1  0.94277357  0.22241662  0.07933660  1
  O  O27  1  0.94277357  0.27758338  0.57933660  1
loop_
_geom_bond_atom_site_label_1
_geom_bond_atom_site_label_2
_geom_bond_distance
_geom_bond_site_symmetry_2
Hf0 O23 2.038144 1_445
Hf0 O3 2.038144 1_544
Hf0 O24 2.038144 1_454
Hf0 O26 2.038144 1_455
Hf0 O6 2.038144 1_554
Hf0 O4 2.038144 1_545
Hf1 O22 2.038144 1_455
Hf1 O5 2.038144 1_555
Hf1 O2 2.038144 1_555
Hf1 O7 2.038144 1_555
Hf1 O27 2.038144 1_455
Hf1 O25 2.038144 1_455
Hf2 O17 2.038144 1_545
Hf2 O10 2.038144 1_555
Hf2 O20 2.038144 1_555
Hf2 O19 2.038144 1_545
Hf2 O9 2.038144 1_545
Hf2 O13 2.038144 1_555
Hf3 O16 2.038144 1_555
Hf3 O21 2.038144 1_555
Hf3 O18 2.038144 1_554
Hf3 O8 2.038144 1_554
Hf3 O12 2.038144 1_554
Hf3 O11 2.038144 1_555
O0 P6 1.567585 1_455
O0 P0 1.567585 1_545
O1 P1 1.567585 1_554
O1 P7 1.567585 1_455
O2 P0 1.504668 1_555
O3 P1 1.504668 1_555
O4 P0 1.504668 1_555
O5 P1 1.504668 1_555
O6 P2 1.504668 1_555
O7 P3 1.504668 1_555
O8 P1 1.504668 1_555
O9 P0 1.504668 1_555
O10 P2 1.504668 1_555
O11 P3 1.504668 1_555
O12 P2 1.504668 1_555
O13 P3 1.504668 1_555
O14 P4 1.567585 1_555
O14 P3 1.567585 1_555
O15 P2 1.567585 1_554
O15 P5 1.567585 1_545
O16 P5 1.504668 1_555
O17 P4 1.504668 1_555
O18 P4 1.504668 1_555
O19 P5 1.504668 1_555
O20 P6 1.504668 1_555
O21 P7 1.504668 1_555
O22 P4 1.504668 1_555
O23 P5 1.504668 1_555
O24 P6 1.504668 1_555
O25 P7 1.504668 1_555
O26 P7 1.504668 1_555
O27 P6 1.504668 1_555
