# generated using pymatgen
data_VFe(PO4)2
_symmetry_space_group_name_H-M   'P 1'
_cell_length_a   5.91667000
_cell_length_b   4.91267500
_cell_length_c   10.04818244
_cell_angle_alpha   89.84783348
_cell_angle_beta   90.00000000
_cell_angle_gamma   90.00000000
_symmetry_Int_Tables_number   1
_chemical_formula_structural   VFe(PO4)2
_chemical_formula_sum   'V2 Fe2 P4 O16'
_cell_volume   292.06624121
_cell_formula_units_Z   2
loop_
 _symmetry_equiv_pos_site_id
 _symmetry_equiv_pos_as_xyz
  1  'x, y, z'
loop_
 _atom_site_type_symbol
 _atom_site_label
 _atom_site_symmetry_multiplicity
 _atom_site_fract_x
 _atom_site_fract_y
 _atom_site_fract_z
 _atom_site_occupancy
  V  V0  1  0.25000000  0.52301300  0.77162000  1
  V  V1  1  0.75000000  0.47698700  0.22838000  1
  Fe  Fe0  1  0.75000000  0.02944500  0.72739600  1
  Fe  Fe1  1  0.25000000  0.97055500  0.27260400  1
  P  P0  1  0.75000000  0.58488600  0.90118700  1
  P  P1  1  0.25000000  0.08583100  0.59620500  1
  P  P2  1  0.75000000  0.91416900  0.40379500  1
  P  P3  1  0.25000000  0.41511400  0.09881300  1
  O  O0  1  0.25000000  0.35771700  0.94967300  1
  O  O1  1  0.75000000  0.27824700  0.87675400  1
  O  O2  1  0.95179400  0.73400100  0.82820100  1
  O  O3  1  0.54820600  0.73400100  0.82820100  1
  O  O4  1  0.04702400  0.23416400  0.66994000  1
  O  O5  1  0.45297600  0.23416400  0.66994000  1
  O  O6  1  0.25000000  0.78255900  0.62422400  1
  O  O7  1  0.75000000  0.85540000  0.55254500  1
  O  O8  1  0.25000000  0.14460000  0.44745500  1
  O  O9  1  0.75000000  0.21744100  0.37577600  1
  O  O10  1  0.95297600  0.76583600  0.33006000  1
  O  O11  1  0.54702400  0.76583600  0.33006000  1
  O  O12  1  0.45179400  0.26599900  0.17179900  1
  O  O13  1  0.04820600  0.26599900  0.17179900  1
  O  O14  1  0.25000000  0.72175300  0.12324600  1
  O  O15  1  0.75000000  0.64228300  0.05032700  1
loop_
_geom_bond_atom_site_label_1
_geom_bond_atom_site_label_2
_geom_bond_distance
_geom_bond_site_symmetry_2
Fe0 O1 1.938053 1_555
Fe0 O7 1.955983 1_545
Fe0 O4 2.104786 1_655
Fe0 O5 2.104786 1_555
Fe0 O2 2.133145 1_545
Fe0 O3 2.133145 1_545
Fe1 O14 1.938053 1_555
Fe1 O8 1.955983 1_565
Fe1 O11 2.104786 1_555
Fe1 O10 2.104786 1_455
Fe1 O12 2.133145 1_565
Fe1 O13 2.133145 1_565
O0 P3 1.525619 1_556
O0 V0 1.962807 1_555
O1 P0 1.526936 1_555
O2 P0 1.580233 1_555
O2 V0 2.124568 1_655
O3 P0 1.580233 1_555
O3 V0 2.124568 1_555
O4 P1 1.589052 1_555
O4 V0 2.123076 1_555
O5 P1 1.589052 1_555
O5 V0 2.123076 1_555
O6 P1 1.515510 1_565
O6 V0 1.951744 1_555
O7 P2 1.521543 1_555
O8 P1 1.521543 1_555
O9 P2 1.515510 1_545
O9 V1 1.951744 1_555
O10 P2 1.589052 1_555
O10 V1 2.123076 1_555
O11 P2 1.589052 1_555
O11 V1 2.123076 1_555
O12 P3 1.580233 1_555
O12 V1 2.124568 1_555
O13 P3 1.580233 1_555
O13 V1 2.124568 1_455
O14 P3 1.526936 1_555
O15 P0 1.525619 1_554
O15 V1 1.962807 1_555
