# generated using pymatgen
data_Re5H4(CO)20
_symmetry_space_group_name_H-M   'P 1'
_cell_length_a   19.67540800
_cell_length_b   9.94408600
_cell_length_c   21.70882780
_cell_angle_alpha   78.96855584
_cell_angle_beta   90.00000000
_cell_angle_gamma   90.00000000
_symmetry_Int_Tables_number   1
_chemical_formula_structural   Re5H4(CO)20
_chemical_formula_sum   'Re20 H16 C80 O80'
_cell_volume   4168.93545851
_cell_formula_units_Z   4
loop_
 _symmetry_equiv_pos_site_id
 _symmetry_equiv_pos_as_xyz
  1  'x, y, z'
loop_
 _atom_site_type_symbol
 _atom_site_label
 _atom_site_symmetry_multiplicity
 _atom_site_fract_x
 _atom_site_fract_y
 _atom_site_fract_z
 _atom_site_occupancy
  Re  Re0  1  0.60911000  0.20809800  0.71659400  1
  Re  Re1  1  0.10911000  0.79190200  0.78340600  1
  Re  Re2  1  0.39089000  0.79190200  0.28340600  1
  Re  Re3  1  0.89089000  0.20809800  0.21659400  1
  Re  Re4  1  0.48556800  0.15249900  0.83251500  1
  Re  Re5  1  0.98556800  0.84750100  0.66748500  1
  Re  Re6  1  0.51443200  0.84750100  0.16748500  1
  Re  Re7  1  0.01443200  0.15249900  0.33251500  1
  Re  Re8  1  0.43305800  0.83993000  0.83196700  1
  Re  Re9  1  0.93305800  0.16007000  0.66803300  1
  Re  Re10  1  0.56694200  0.16007000  0.16803300  1
  Re  Re11  1  0.06694200  0.83993000  0.33196700  1
  Re  Re12  1  0.43321100  0.81924500  0.69000000  1
  Re  Re13  1  0.93321100  0.18075500  0.81000000  1
  Re  Re14  1  0.56678900  0.18075500  0.31000000  1
  Re  Re15  1  0.06678900  0.81924500  0.19000000  1
  Re  Re16  1  0.58291000  0.94045200  0.63966600  1
  Re  Re17  1  0.08291000  0.05954800  0.86033400  1
  Re  Re18  1  0.41709000  0.05954800  0.36033400  1
  Re  Re19  1  0.91709000  0.94045200  0.13966600  1
  H  H0  1  0.52640200  0.16439700  0.75540000  1
  H  H1  1  0.02640200  0.83560300  0.74460000  1
  H  H2  1  0.47359800  0.83560300  0.24460000  1
  H  H3  1  0.97359800  0.16439700  0.25540000  1
  H  H4  1  0.46364000  0.00911100  0.79226000  1
  H  H5  1  0.96364000  0.99088900  0.70774000  1
  H  H6  1  0.53636000  0.99088900  0.20774000  1
  H  H7  1  0.03636000  0.00911100  0.29226000  1
  H  H8  1  0.52026100  0.87691800  0.70218900  1
  H  H9  1  0.02026100  0.12308200  0.79781100  1
  H  H10  1  0.47973900  0.12308200  0.29781100  1
  H  H11  1  0.97973900  0.87691800  0.20218900  1
  H  H12  1  0.57173400  0.04866000  0.69964400  1
  H  H13  1  0.07173400  0.95134000  0.80035600  1
  H  H14  1  0.42826600  0.95134000  0.30035600  1
  H  H15  1  0.92826600  0.04866000  0.19964400  1
  C  C0  1  0.66932700  0.08673200  0.77756900  1
  C  C1  1  0.16932700  0.91326800  0.72243100  1
  C  C2  1  0.33067300  0.91326800  0.22243100  1
  C  C3  1  0.83067300  0.08673200  0.27756900  1
  C  C4  1  0.63309800  0.36579300  0.75352800  1
  C  C5  1  0.13309800  0.63420700  0.74647200  1
  C  C6  1  0.36690200  0.63420700  0.24647200  1
  C  C7  1  0.86690200  0.36579300  0.25352800  1
  C  C8  1  0.68401100  0.25912700  0.65849100  1
  C  C9  1  0.18401100  0.74087300  0.84150900  1
  C  C10  1  0.31598900  0.74087300  0.34150900  1
  C  C11  1  0.81598900  0.25912700  0.15849100  1
  C  C12  1  0.54676500  0.31946800  0.65394100  1
  C  C13  1  0.04676500  0.68053200  0.84605900  1
  C  C14  1  0.45323500  0.68053200  0.34605900  1
  C  C15  1  0.95323500  0.31946800  0.15394100  1
  C  C16  1  0.55514500  0.04278200  0.88885500  1
  C  C17  1  0.05514500  0.95721800  0.61114500  1
  C  C18  1  0.44485500  0.95721800  0.11114500  1
  C  C19  1  0.94485500  0.04278200  0.38885500  1
  C  C20  1  0.41866100  0.13333600  0.89957300  1
  C  C21  1  0.91866100  0.86666400  0.60042700  1
  C  C22  1  0.58133900  0.86666400  0.10042700  1
  C  C23  1  0.08133900  0.13333600  0.39957300  1
  C  C24  1  0.51750500  0.31871200  0.85821300  1
  C  C25  1  0.01750500  0.68128800  0.64178700  1
  C  C26  1  0.48249500  0.68128800  0.14178700  1
  C  C27  1  0.98249500  0.31871200  0.35821300  1
  C  C28  1  0.41640000  0.26294800  0.77623900  1
  C  C29  1  0.91640000  0.73705200  0.72376100  1
  C  C30  1  0.58360000  0.73705200  0.22376100  1
  C  C31  1  0.08360000  0.26294800  0.27623900  1
  C  C32  1  0.52904600  0.77482500  0.82824400  1
  C  C33  1  0.02904600  0.22517500  0.67175600  1
  C  C34  1  0.47095400  0.22517500  0.17175600  1
  C  C35  1  0.97095400  0.77482500  0.32824400  1
  C  C36  1  0.39837200  0.65252000  0.84175200  1
  C  C37  1  0.89837200  0.34748000  0.65824800  1
  C  C38  1  0.60162800  0.34748000  0.15824800  1
  C  C39  1  0.10162800  0.65252000  0.34175200  1
  C  C40  1  0.43680600  0.81916700  0.92156600  1
  C  C41  1  0.93680600  0.18083300  0.57843400  1
  C  C42  1  0.56319400  0.18083300  0.07843400  1
  C  C43  1  0.06319400  0.81916700  0.42156600  1
  C  C44  1  0.34122100  0.92452400  0.82041500  1
  C  C45  1  0.84122100  0.07547600  0.67958500  1
  C  C46  1  0.65877900  0.07547600  0.17958500  1
  C  C47  1  0.15877900  0.92452400  0.32041500  1
  C  C48  1  0.47683700  0.63773700  0.71404100  1
  C  C49  1  0.97683700  0.36226300  0.78595900  1
  C  C50  1  0.52316300  0.36226300  0.28595900  1
  C  C51  1  0.02316300  0.63773700  0.21404100  1
  C  C52  1  0.41839000  0.80918300  0.60372500  1
  C  C53  1  0.91839000  0.19081700  0.89627500  1
  C  C54  1  0.58161000  0.19081700  0.39627500  1
  C  C55  1  0.08161000  0.80918300  0.10372500  1
  C  C56  1  0.34314100  0.74222100  0.70981100  1
  C  C57  1  0.84314100  0.25777900  0.79018900  1
  C  C58  1  0.65685900  0.25777900  0.29018900  1
  C  C59  1  0.15685900  0.74222100  0.20981100  1
  C  C60  1  0.39534600  0.00891400  0.67852500  1
  C  C61  1  0.89534600  0.99108600  0.82147500  1
  C  C62  1  0.60465400  0.99108600  0.32147500  1
  C  C63  1  0.10465400  0.00891400  0.17852500  1
  C  C64  1  0.65046500  0.83040600  0.69787300  1
  C  C65  1  0.15046500  0.16959400  0.80212700  1
  C  C66  1  0.34953500  0.16959400  0.30212700  1
  C  C67  1  0.84953500  0.83040600  0.19787300  1
  C  C68  1  0.65842100  0.01885600  0.58639400  1
  C  C69  1  0.15842100  0.98114400  0.91360600  1
  C  C70  1  0.34157900  0.98114400  0.41360600  1
  C  C71  1  0.84157900  0.01885600  0.08639400  1
  C  C72  1  0.57816000  0.78790600  0.59540700  1
  C  C73  1  0.07816000  0.21209400  0.90459300  1
  C  C74  1  0.42184000  0.21209400  0.40459300  1
  C  C75  1  0.92184000  0.78790600  0.09540700  1
  C  C76  1  0.51743300  0.05509300  0.58117100  1
  C  C77  1  0.01743300  0.94490700  0.91882900  1
  C  C78  1  0.48256700  0.94490700  0.41882900  1
  C  C79  1  0.98256700  0.05509300  0.08117100  1
  O  O0  1  0.70476100  0.01666400  0.81221800  1
  O  O1  1  0.20476100  0.98333600  0.68778200  1
  O  O2  1  0.29523900  0.98333600  0.18778200  1
  O  O3  1  0.79523900  0.01666400  0.31221800  1
  O  O4  1  0.64886700  0.46058600  0.77412800  1
  O  O5  1  0.14886700  0.53941400  0.72587200  1
  O  O6  1  0.35113300  0.53941400  0.22587200  1
  O  O7  1  0.85113300  0.46058600  0.27412800  1
  O  O8  1  0.72836000  0.29776000  0.62419400  1
  O  O9  1  0.22836000  0.70224000  0.87580600  1
  O  O10  1  0.27164000  0.70224000  0.37580600  1
  O  O11  1  0.77164000  0.29776000  0.12419400  1
  O  O12  1  0.51179100  0.38426400  0.61702800  1
  O  O13  1  0.01179100  0.61573600  0.88297200  1
  O  O14  1  0.48820900  0.61573600  0.38297200  1
  O  O15  1  0.98820900  0.38426400  0.11702800  1
  O  O16  1  0.59517400  0.98293900  0.92230000  1
  O  O17  1  0.09517400  0.01706100  0.57770000  1
  O  O18  1  0.40482600  0.01706100  0.07770000  1
  O  O19  1  0.90482600  0.98293900  0.42230000  1
  O  O20  1  0.37631300  0.12662500  0.93739100  1
  O  O21  1  0.87631300  0.87337500  0.56260900  1
  O  O22  1  0.62368700  0.87337500  0.06260900  1
  O  O23  1  0.12368700  0.12662500  0.43739100  1
  O  O24  1  0.53512100  0.41685500  0.87536200  1
  O  O25  1  0.03512100  0.58314500  0.62463800  1
  O  O26  1  0.46487900  0.58314500  0.12463800  1
  O  O27  1  0.96487900  0.41685500  0.37536200  1
  O  O28  1  0.37697800  0.33160400  0.74572000  1
  O  O29  1  0.87697800  0.66839600  0.75428000  1
  O  O30  1  0.62302200  0.66839600  0.25428000  1
  O  O31  1  0.12302200  0.33160400  0.24572000  1
  O  O32  1  0.58505000  0.74054500  0.82582600  1
  O  O33  1  0.08505000  0.25945500  0.67417400  1
  O  O34  1  0.41495000  0.25945500  0.17417400  1
  O  O35  1  0.91495000  0.74054500  0.32582600  1
  O  O36  1  0.37810700  0.54065100  0.84802100  1
  O  O37  1  0.87810700  0.45934900  0.65197900  1
  O  O38  1  0.62189300  0.45934900  0.15197900  1
  O  O39  1  0.12189300  0.54065100  0.34802100  1
  O  O40  1  0.43942200  0.80299800  0.97628500  1
  O  O41  1  0.93942200  0.19700200  0.52371500  1
  O  O42  1  0.56057800  0.19700200  0.02371500  1
  O  O43  1  0.06057800  0.80299800  0.47628500  1
  O  O44  1  0.28965700  0.98121300  0.81145800  1
  O  O45  1  0.78965700  0.01878700  0.68854200  1
  O  O46  1  0.71034300  0.01878700  0.18854200  1
  O  O47  1  0.21034300  0.98121300  0.31145800  1
  O  O48  1  0.50443500  0.53408100  0.72983400  1
  O  O49  1  0.00443500  0.46591900  0.77016600  1
  O  O50  1  0.49556500  0.46591900  0.27016600  1
  O  O51  1  0.99556500  0.53408100  0.22983400  1
  O  O52  1  0.40696900  0.80112000  0.55185000  1
  O  O53  1  0.90696900  0.19888000  0.94815000  1
  O  O54  1  0.59303100  0.19888000  0.44815000  1
  O  O55  1  0.09303100  0.80112000  0.05185000  1
  O  O56  1  0.28996300  0.69245400  0.72155000  1
  O  O57  1  0.78996300  0.30754600  0.77845000  1
  O  O58  1  0.71003700  0.30754600  0.27845000  1
  O  O59  1  0.21003700  0.69245400  0.22155000  1
  O  O60  1  0.37392100  0.11941400  0.67012100  1
  O  O61  1  0.87392100  0.88058600  0.82987900  1
  O  O62  1  0.62607900  0.88058600  0.32987900  1
  O  O63  1  0.12607900  0.11941400  0.17012100  1
  O  O64  1  0.69204800  0.76872000  0.72855800  1
  O  O65  1  0.19204800  0.23128000  0.77144200  1
  O  O66  1  0.30795200  0.23128000  0.27144200  1
  O  O67  1  0.80795200  0.76872000  0.22855800  1
  O  O68  1  0.70317300  0.06208800  0.55349400  1
  O  O69  1  0.20317300  0.93791200  0.94650600  1
  O  O70  1  0.29682700  0.93791200  0.44650600  1
  O  O71  1  0.79682700  0.06208800  0.05349400  1
  O  O72  1  0.57692500  0.69370000  0.57099100  1
  O  O73  1  0.07692500  0.30630000  0.92900900  1
  O  O74  1  0.42307500  0.30630000  0.42900900  1
  O  O75  1  0.92307500  0.69370000  0.07099100  1
  O  O76  1  0.48010500  0.12178900  0.54707900  1
  O  O77  1  0.98010500  0.87821100  0.95292100  1
  O  O78  1  0.51989500  0.87821100  0.45292100  1
  O  O79  1  0.01989500  0.12178900  0.04707900  1
loop_
_geom_bond_atom_site_label_1
_geom_bond_atom_site_label_2
_geom_bond_distance
_geom_bond_site_symmetry_2
H0 Re4 1.840169 1_555
H0 Re0 1.845695 1_555
H1 Re5 1.840169 1_455
H1 Re1 1.845695 1_555
H2 Re6 1.840169 1_555
H2 Re2 1.845695 1_555
H3 Re7 1.840169 1_655
H3 Re3 1.845695 1_555
H4 Re8 1.838591 1_545
H4 Re4 1.860044 1_555
H5 Re9 1.838591 1_565
H5 Re5 1.860044 1_555
H6 Re10 1.838591 1_565
H6 Re6 1.860044 1_555
H7 Re11 1.838591 1_545
H7 Re7 1.860044 1_555
H8 Re12 1.841330 1_555
H8 Re16 1.852745 1_555
H9 Re13 1.841330 1_455
H9 Re17 1.852745 1_555
H10 Re14 1.841330 1_555
H10 Re18 1.852745 1_555
H11 Re15 1.841330 1_655
H11 Re19 1.852745 1_555
H12 Re0 1.847473 1_555
H12 Re16 1.854105 1_545
H13 Re1 1.847473 1_555
H13 Re17 1.854105 1_565
H14 Re2 1.847473 1_555
H14 Re18 1.854105 1_565
H15 Re3 1.847473 1_555
H15 Re19 1.854105 1_545
C0 O0 1.156181 1_555
C0 Re0 2.000271 1_555
C1 O1 1.156181 1_555
C1 Re1 2.000271 1_555
C2 O2 1.156181 1_555
C2 Re2 2.000271 1_555
C3 O3 1.156181 1_555
C3 Re3 2.000271 1_555
C4 O4 1.160227 1_555
C4 Re0 1.950857 1_555
C5 O5 1.160227 1_555
C5 Re1 1.950857 1_555
C6 O6 1.160227 1_555
C6 Re2 1.950857 1_555
C7 O7 1.160227 1_555
C7 Re3 1.950857 1_555
C8 O8 1.163563 1_555
C8 Re0 1.943028 1_555
C9 O9 1.163563 1_555
C9 Re1 1.943028 1_555
C10 O10 1.163563 1_555
C10 Re2 1.943028 1_555
C11 O11 1.163563 1_555
C11 Re3 1.943028 1_555
C12 O12 1.154658 1_555
C12 Re0 2.001170 1_555
C13 O13 1.154658 1_555
C13 Re1 2.001170 1_555
C14 O14 1.154658 1_555
C14 Re2 2.001170 1_555
C15 O15 1.154658 1_555
C15 Re3 2.001170 1_555
C16 O16 1.155950 1_545
C16 Re4 2.012371 1_555
C17 O17 1.155950 1_565
C17 Re5 2.012371 1_455
C18 O18 1.155950 1_565
C18 Re6 2.012371 1_555
C19 O19 1.155950 1_545
C19 Re7 2.012371 1_655
C20 O20 1.162647 1_555
C20 Re4 1.944821 1_555
C21 O21 1.162647 1_555
C21 Re5 1.944821 1_555
C22 O22 1.162647 1_555
C22 Re6 1.944821 1_555
C23 O23 1.162647 1_555
C23 Re7 1.944821 1_555
C24 O24 1.161997 1_555
C24 Re4 1.947002 1_555
C25 O25 1.161997 1_555
C25 Re5 1.947002 1_455
C26 O26 1.161997 1_555
C26 Re6 1.947002 1_555
C27 O27 1.161997 1_555
C27 Re7 1.947002 1_655
C28 O28 1.154806 1_555
C28 Re4 2.009324 1_555
C29 O29 1.154806 1_555
C29 Re5 2.009324 1_555
C30 O30 1.154806 1_555
C30 Re6 2.009324 1_555
C31 O31 1.154806 1_555
C31 Re7 2.009324 1_555
C32 O32 1.157580 1_555
C32 Re8 2.003127 1_555
C33 O33 1.157580 1_555
C33 Re9 2.003127 1_455
C34 O34 1.157580 1_555
C34 Re10 2.003127 1_555
C35 O35 1.157580 1_555
C35 Re11 2.003127 1_655
C36 O36 1.164935 1_555
C36 Re8 1.957667 1_555
C37 O37 1.164935 1_555
C37 Re9 1.957667 1_555
C38 O38 1.164935 1_555
C38 Re10 1.957667 1_555
C39 O39 1.164935 1_555
C39 Re11 1.957667 1_555
C40 O40 1.168965 1_555
C40 Re8 1.917746 1_555
C41 O41 1.168965 1_555
C41 Re9 1.917746 1_555
C42 O42 1.168965 1_555
C42 Re10 1.917746 1_555
C43 O43 1.168965 1_555
C43 Re11 1.917746 1_555
C44 O44 1.158852 1_555
C44 Re8 1.988665 1_555
C45 O45 1.158852 1_555
C45 Re9 1.988665 1_555
C46 O46 1.158852 1_555
C46 Re10 1.988665 1_555
C47 O47 1.158852 1_555
C47 Re11 1.988665 1_555
C48 O48 1.157423 1_555
C48 Re12 1.976472 1_555
C49 O49 1.157423 1_655
C49 Re13 1.976472 1_555
C50 O50 1.157423 1_555
C50 Re14 1.976472 1_555
C51 O51 1.157423 1_455
C51 Re15 1.976472 1_555
C52 O52 1.166054 1_555
C52 Re12 1.916932 1_555
C53 O53 1.166054 1_555
C53 Re13 1.916932 1_555
C54 O54 1.166054 1_555
C54 Re14 1.916932 1_555
C55 O55 1.166054 1_555
C55 Re15 1.916932 1_555
C56 O56 1.164617 1_555
C56 Re12 1.945795 1_555
C57 O57 1.164617 1_555
C57 Re13 1.945795 1_555
C58 O58 1.164617 1_555
C58 Re14 1.945795 1_555
C59 O59 1.164617 1_555
C59 Re15 1.945795 1_555
C60 O60 1.158307 1_555
C60 Re12 1.998651 1_545
C61 O61 1.158307 1_555
C61 Re13 1.998651 1_565
C62 O62 1.158307 1_555
C62 Re14 1.998651 1_565
C63 O63 1.158307 1_555
C63 Re15 1.998651 1_545
C64 O64 1.154567 1_555
C64 Re16 2.007916 1_555
C65 O65 1.154567 1_555
C65 Re17 2.007916 1_555
C66 O66 1.154567 1_555
C66 Re18 2.007916 1_555
C67 O67 1.154567 1_555
C67 Re19 2.007916 1_555
C68 O68 1.163068 1_555
C68 Re16 1.951299 1_545
C69 O69 1.163068 1_555
C69 Re17 1.951299 1_565
C70 O70 1.163068 1_555
C70 Re18 1.951299 1_565
C71 O71 1.163068 1_555
C71 Re19 1.951299 1_545
C72 O72 1.161525 1_555
C72 Re16 1.946983 1_555
C73 O73 1.161525 1_555
C73 Re17 1.946983 1_555
C74 O74 1.161525 1_555
C74 Re18 1.946983 1_555
C75 O75 1.161525 1_555
C75 Re19 1.946983 1_555
C76 O76 1.157229 1_555
C76 Re16 2.004449 1_545
C77 O77 1.157229 1_455
C77 Re17 2.004449 1_565
C78 O78 1.157229 1_555
C78 Re18 2.004449 1_565
C79 O79 1.157229 1_655
C79 Re19 2.004449 1_545
