# generated using pymatgen
data_Li3Fe2P2(CO7)2
_symmetry_space_group_name_H-M   'P 1'
_cell_length_a   6.47359400
_cell_length_b   8.38309900
_cell_length_c   10.27637444
_cell_angle_alpha   85.05604966
_cell_angle_beta   90.00000000
_cell_angle_gamma   90.00000000
_symmetry_Int_Tables_number   1
_chemical_formula_structural   Li3Fe2P2(CO7)2
_chemical_formula_sum   'Li6 Fe4 P4 C4 O28'
_cell_volume   555.61141527
_cell_formula_units_Z   2
loop_
 _symmetry_equiv_pos_site_id
 _symmetry_equiv_pos_as_xyz
  1  'x, y, z'
loop_
 _atom_site_type_symbol
 _atom_site_label
 _atom_site_symmetry_multiplicity
 _atom_site_fract_x
 _atom_site_fract_y
 _atom_site_fract_z
 _atom_site_occupancy
  Li  Li0  1  0.49614100  0.88934300  0.61262500  1
  Li  Li1  1  0.50385900  0.88934300  0.11262500  1
  Li  Li2  1  0.79455300  0.28529200  0.62582500  1
  Li  Li3  1  0.20544700  0.28529200  0.12582500  1
  Li  Li4  1  0.99812800  0.09811200  0.88029300  1
  Li  Li5  1  0.00187200  0.09811200  0.38029300  1
  Fe  Fe0  1  0.00374200  0.67053900  0.59894000  1
  Fe  Fe1  1  0.99625800  0.67053900  0.09894000  1
  Fe  Fe2  1  0.50273900  0.33335700  0.90069200  1
  Fe  Fe3  1  0.49726100  0.33335700  0.40069200  1
  P  P0  1  0.50685800  0.57748400  0.63827000  1
  P  P1  1  0.49314200  0.57748400  0.13827000  1
  P  P2  1  0.99797400  0.42068800  0.86440600  1
  P  P3  1  0.00202600  0.42068800  0.36440600  1
  C  C0  1  0.99186200  0.96177500  0.64629900  1
  C  C1  1  0.00813800  0.96177500  0.14629900  1
  C  C2  1  0.50008400  0.04326500  0.85048600  1
  C  C3  1  0.49991600  0.04326500  0.35048600  1
  O  O0  1  0.99949500  0.92878600  0.52481500  1
  O  O1  1  0.49775800  0.90708100  0.80874400  1
  O  O2  1  0.00050500  0.92878600  0.02481500  1
  O  O3  1  0.00945900  0.83897100  0.73167200  1
  O  O4  1  0.50224200  0.90708100  0.30874400  1
  O  O5  1  0.99054100  0.83897100  0.23167200  1
  O  O6  1  0.31541500  0.68045200  0.59887700  1
  O  O7  1  0.69041700  0.69251000  0.60614100  1
  O  O8  1  0.30958300  0.69251000  0.10614100  1
  O  O9  1  0.68458500  0.68045200  0.09887700  1
  O  O10  1  0.00251600  0.57368500  0.93501000  1
  O  O11  1  0.50080400  0.52347400  0.78624800  1
  O  O12  1  0.99748400  0.57368500  0.43501000  1
  O  O13  1  0.49919600  0.52347400  0.28624800  1
  O  O14  1  0.99030400  0.46387100  0.71377500  1
  O  O15  1  0.52813400  0.42096800  0.56831500  1
  O  O16  1  0.00969600  0.46387100  0.21377500  1
  O  O17  1  0.47186600  0.42096800  0.06831500  1
  O  O18  1  0.81101400  0.30859600  0.90222300  1
  O  O19  1  0.18335200  0.30686800  0.90616400  1
  O  O20  1  0.81664800  0.30686800  0.40616400  1
  O  O21  1  0.18898600  0.30859600  0.40222300  1
  O  O22  1  0.51025800  0.17060300  0.76609700  1
  O  O23  1  0.96743100  0.10170700  0.68385600  1
  O  O24  1  0.48974200  0.17060300  0.26609700  1
  O  O25  1  0.49239700  0.07368500  0.97284300  1
  O  O26  1  0.03256900  0.10170700  0.18385600  1
  O  O27  1  0.50760300  0.07368500  0.47284300  1
loop_
_geom_bond_atom_site_label_1
_geom_bond_atom_site_label_2
_geom_bond_distance
_geom_bond_site_symmetry_2
Li0 O27 2.018518 1_565
Li0 O1 2.033638 1_555
Li0 O7 2.080347 1_555
Li0 O6 2.120830 1_555
Li1 O25 2.018518 1_564
Li1 O4 2.033638 1_555
Li1 O8 2.080347 1_555
Li1 O9 2.120830 1_555
Li2 O23 1.954092 1_555
Li2 O15 2.121700 1_555
Li2 O14 2.212929 1_555
Li2 O20 2.253506 1_555
Li2 O22 2.480020 1_555
Li3 O26 1.954092 1_555
Li3 O17 2.121700 1_555
Li3 O16 2.212929 1_555
Li3 O19 2.253506 1_554
Li3 O24 2.480020 1_555
Li4 O2 1.964050 1_646
Li4 O23 2.026055 1_555
Li4 O19 2.156666 1_655
Li4 O18 2.167963 1_555
Li5 O0 1.964050 1_445
Li5 O26 2.026055 1_555
Li5 O20 2.156666 1_455
Li5 O21 2.167963 1_555
Fe0 O12 1.932495 1_455
Fe0 O14 2.012311 1_455
Fe0 O6 2.019353 1_555
Fe0 O7 2.038604 1_455
Fe0 O3 2.046346 1_555
Fe0 O0 2.232396 1_455
Fe1 O10 1.932495 1_654
Fe1 O16 2.012311 1_655
Fe1 O9 2.019353 1_555
Fe1 O8 2.038604 1_655
Fe1 O5 2.046346 1_555
Fe1 O2 2.232396 1_655
Fe2 O11 1.897452 1_555
Fe2 O17 1.940264 1_556
Fe2 O18 2.006335 1_555
Fe2 O22 2.025409 1_555
Fe2 O19 2.079715 1_555
Fe2 O25 2.239361 1_555
Fe3 O13 1.897452 1_555
Fe3 O15 1.940264 1_555
Fe3 O21 2.006335 1_555
Fe3 O24 2.025409 1_555
Fe3 O20 2.079715 1_555
Fe3 O27 2.239361 1_555
C0 O23 1.275964 1_565
C0 O3 1.298778 1_655
C0 O0 1.302678 1_555
C1 O26 1.275964 1_565
C1 O5 1.298778 1_455
C1 O2 1.302678 1_555
C2 O1 1.253790 1_545
C2 O25 1.305296 1_555
C2 O22 1.317711 1_555
C3 O4 1.253790 1_545
C3 O27 1.305296 1_555
C3 O24 1.317711 1_555
O6 P0 1.544238 1_555
O7 P0 1.547897 1_555
O8 P1 1.547897 1_555
O9 P1 1.544238 1_555
O10 P2 1.527326 1_455
O11 P0 1.549297 1_555
O12 P3 1.527326 1_655
O13 P1 1.549297 1_555
O14 P2 1.559823 1_555
O15 P0 1.555609 1_555
O16 P3 1.559823 1_555
O17 P1 1.555609 1_555
O18 P2 1.560741 1_555
O19 P2 1.569761 1_455
O20 P3 1.569761 1_655
O21 P3 1.560741 1_555
