# generated using pymatgen
data_V3(OF3)2
_symmetry_space_group_name_H-M   'P 1'
_cell_length_a   5.19876100
_cell_length_b   7.19950954
_cell_length_c   7.63119153
_cell_angle_alpha   101.33639239
_cell_angle_beta   90.89760802
_cell_angle_gamma   90.32740580
_symmetry_Int_Tables_number   1
_chemical_formula_structural   V3(OF3)2
_chemical_formula_sum   'V6 O4 F12'
_cell_volume   280.00611706
_cell_formula_units_Z   2
loop_
 _symmetry_equiv_pos_site_id
 _symmetry_equiv_pos_as_xyz
  1  'x, y, z'
loop_
 _atom_site_type_symbol
 _atom_site_label
 _atom_site_symmetry_multiplicity
 _atom_site_fract_x
 _atom_site_fract_y
 _atom_site_fract_z
 _atom_site_occupancy
  V  V0  1  0.72026200  0.33915900  0.18248500  1
  V  V1  1  0.25926800  0.67637500  0.31215800  1
  V  V2  1  0.23675500  0.17114800  0.32406800  1
  V  V3  1  0.76324500  0.82885200  0.67593200  1
  V  V4  1  0.74073200  0.32362500  0.68784200  1
  V  V5  1  0.27973800  0.66084100  0.81751500  1
  O  O0  1  0.15108200  0.94169900  0.32564600  1
  O  O1  1  0.39704000  0.42290300  0.29993000  1
  O  O2  1  0.60296000  0.57709700  0.70007000  1
  O  O3  1  0.84891800  0.05830100  0.67435400  1
  F  F0  1  0.39398300  0.67777600  0.06837800  1
  F  F1  1  0.03675500  0.19331200  0.10828800  1
  F  F2  1  0.92392900  0.57253300  0.19985700  1
  F  F3  1  0.55318500  0.09173800  0.19157400  1
  F  F4  1  0.58200600  0.78662000  0.44224600  1
  F  F5  1  0.90972800  0.31023200  0.43289200  1
  F  F6  1  0.09027200  0.68976800  0.56710800  1
  F  F7  1  0.41799400  0.21338000  0.55775400  1
  F  F8  1  0.44681500  0.90826200  0.80842600  1
  F  F9  1  0.07607100  0.42746700  0.80014300  1
  F  F10  1  0.96324500  0.80668800  0.89171200  1
  F  F11  1  0.60601700  0.32222400  0.93162200  1
loop_
_geom_bond_atom_site_label_1
_geom_bond_atom_site_label_2
_geom_bond_distance
_geom_bond_site_symmetry_2
O0 V2 1.710830 1_565
O0 V1 1.978028 1_555
O1 V1 1.949862 1_555
O1 V0 1.958744 1_555
O1 V2 2.032805 1_555
O2 V4 1.949862 1_555
O2 V5 1.958744 1_555
O2 V3 2.032805 1_555
O3 V3 1.710830 1_545
O3 V4 1.978028 1_555
F0 V5 1.975923 1_554
F0 V1 1.999886 1_555
F1 V2 1.967126 1_555
F1 V0 1.986353 1_455
F2 V0 1.961981 1_555
F2 V1 2.004751 1_655
F3 V2 1.972544 1_555
F3 V0 1.991258 1_555
F4 V3 1.972640 1_555
F4 V1 2.013317 1_555
F5 V2 2.078356 1_655
F5 V4 2.132418 1_555
F5 V0 2.182878 1_555
F6 V3 2.078356 1_455
F6 V1 2.132418 1_555
F6 V5 2.182878 1_555
F7 V2 1.972640 1_555
F7 V4 2.013317 1_555
F8 V3 1.972544 1_555
F8 V5 1.991258 1_555
F9 V5 1.961981 1_555
F9 V4 2.004751 1_455
F10 V3 1.967126 1_555
F10 V5 1.986353 1_655
F11 V0 1.975923 1_556
F11 V4 1.999886 1_555
