# generated using pymatgen
data_NbO2F
_symmetry_space_group_name_H-M   'P 1'
_cell_length_a   5.56282000
_cell_length_b   5.67911826
_cell_length_c   13.83828891
_cell_angle_alpha   92.79826589
_cell_angle_beta   89.18523678
_cell_angle_gamma   118.47534343
_symmetry_Int_Tables_number   1
_chemical_formula_structural   NbO2F
_chemical_formula_sum   'Nb6 O12 F6'
_cell_volume   383.81061366
_cell_formula_units_Z   6
loop_
 _symmetry_equiv_pos_site_id
 _symmetry_equiv_pos_as_xyz
  1  'x, y, z'
loop_
 _atom_site_type_symbol
 _atom_site_label
 _atom_site_symmetry_multiplicity
 _atom_site_fract_x
 _atom_site_fract_y
 _atom_site_fract_z
 _atom_site_occupancy
  Nb  Nb0  1  0.32252800  0.66116400  0.58330500  1
  Nb  Nb1  1  0.97185800  0.98353100  0.75045400  1
  Nb  Nb2  1  0.62178800  0.29294200  0.91764500  1
  Nb  Nb3  1  0.67747200  0.33883600  0.41669500  1
  Nb  Nb4  1  0.37821200  0.70705800  0.08235500  1
  Nb  Nb5  1  0.02814200  0.01646900  0.24954600  1
  O  O0  1  0.66812900  0.83396700  0.66615600  1
  O  O1  1  0.66647400  0.83399100  0.16875300  1
  O  O2  1  0.00000000  0.50000000  0.50000000  1
  O  O3  1  0.17248000  0.83611600  0.66614300  1
  O  O4  1  0.82752000  0.16388400  0.33385700  1
  O  O5  1  0.84568800  0.17624200  0.83291900  1
  O  O6  1  0.15431200  0.82375800  0.16708100  1
  O  O7  1  0.50000000  0.50000000  0.00000000  1
  O  O8  1  0.50000000  0.50000000  0.50000000  1
  O  O9  1  0.33187100  0.16603300  0.33384400  1
  O  O10  1  0.33352600  0.16600900  0.83124700  1
  O  O11  1  0.50000000  0.00000000  0.00000000  1
  F  F0  1  0.00000000  0.50000000  0.00000000  1
  F  F1  1  0.83282900  0.66737200  0.33378900  1
  F  F2  1  0.83598700  0.66778200  0.83388100  1
  F  F3  1  0.50000000  0.00000000  0.50000000  1
  F  F4  1  0.16401300  0.33221800  0.16611900  1
  F  F5  1  0.16717100  0.33262800  0.66621100  1
loop_
_geom_bond_atom_site_label_1
_geom_bond_atom_site_label_2
_geom_bond_distance
_geom_bond_site_symmetry_2
Nb0 O3 1.910595 1_555
Nb0 O2 1.943092 1_555
Nb0 O8 1.966611 1_555
Nb0 O0 2.031600 1_555
Nb1 O0 1.878251 1_555
Nb1 O5 1.892196 1_565
Nb1 O3 2.016472 1_655
Nb1 O10 2.081918 1_665
Nb2 O10 1.840812 1_555
Nb2 O11 1.901036 1_556
Nb2 O7 1.935822 1_556
Nb2 O5 2.008719 1_555
Nb3 O4 1.910595 1_555
Nb3 O2 1.943092 1_655
Nb3 O8 1.966611 1_555
Nb3 O9 2.031600 1_555
Nb4 O1 1.840812 1_555
Nb4 O11 1.901036 1_565
Nb4 O7 1.935822 1_555
Nb4 O6 2.008719 1_555
Nb5 O9 1.878251 1_555
Nb5 O6 1.892196 1_545
Nb5 O4 2.016472 1_455
Nb5 O1 2.081918 1_445
F0 Nb4 2.164782 1_555
F0 Nb2 2.164782 1_454
F1 Nb3 2.046348 1_555
F1 Nb5 2.146089 1_665
F2 Nb1 2.001130 1_555
F2 Nb2 2.253433 1_555
F3 Nb3 2.092652 1_555
F3 Nb0 2.092652 1_545
F4 Nb5 2.001130 1_555
F4 Nb4 2.253433 1_555
F5 Nb0 2.046348 1_555
F5 Nb1 2.146089 1_445
