# generated using pymatgen
data_LiAlVO4
_symmetry_space_group_name_H-M   'P 1'
_cell_length_a   8.72828982
_cell_length_b   8.72828982
_cell_length_c   8.72829028
_cell_angle_alpha   107.53585362
_cell_angle_beta   107.53585362
_cell_angle_gamma   107.53586006
_symmetry_Int_Tables_number   1
_chemical_formula_structural   LiAlVO4
_chemical_formula_sum   'Li6 Al6 V6 O24'
_cell_volume   545.47757736
_cell_formula_units_Z   6
loop_
 _symmetry_equiv_pos_site_id
 _symmetry_equiv_pos_as_xyz
  1  'x, y, z'
loop_
 _atom_site_type_symbol
 _atom_site_label
 _atom_site_symmetry_multiplicity
 _atom_site_fract_x
 _atom_site_fract_y
 _atom_site_fract_z
 _atom_site_occupancy
  Li  Li0  1  0.46833600  0.07009400  0.23793200  1
  Li  Li1  1  0.76206800  0.53166400  0.92990600  1
  Li  Li2  1  0.92990600  0.76206800  0.53166400  1
  Li  Li3  1  0.07009400  0.23793200  0.46833600  1
  Li  Li4  1  0.23793200  0.46833600  0.07009400  1
  Li  Li5  1  0.53166400  0.92990600  0.76206800  1
  Al  Al0  1  0.78422500  0.38240800  0.56122300  1
  Al  Al1  1  0.43877700  0.21577500  0.61759200  1
  Al  Al2  1  0.61759200  0.43877700  0.21577500  1
  Al  Al3  1  0.38240800  0.56122300  0.78422500  1
  Al  Al4  1  0.56122300  0.78422500  0.38240800  1
  Al  Al5  1  0.21577500  0.61759200  0.43877700  1
  V  V0  1  0.88887600  0.13323300  0.71940100  1
  V  V1  1  0.86676700  0.28059900  0.11112400  1
  V  V2  1  0.28059900  0.11112400  0.86676700  1
  V  V3  1  0.71940100  0.88887600  0.13323300  1
  V  V4  1  0.13323300  0.71940100  0.88887600  1
  V  V5  1  0.11112400  0.86676700  0.28059900  1
  O  O0  1  0.97455000  0.28229800  0.95485400  1
  O  O1  1  0.71770200  0.04514600  0.02545000  1
  O  O2  1  0.90796900  0.25237000  0.58359000  1
  O  O3  1  0.74763000  0.41641000  0.09203100  1
  O  O4  1  0.94996600  0.61101500  0.66934100  1
  O  O5  1  0.64963600  0.31473000  0.33741300  1
  O  O6  1  0.41641000  0.09203100  0.74763000  1
  O  O7  1  0.66258700  0.35036400  0.68527000  1
  O  O8  1  0.33065900  0.05003400  0.38898500  1
  O  O9  1  0.38898500  0.33065900  0.05003400  1
  O  O10  1  0.68527000  0.66258700  0.35036400  1
  O  O11  1  0.04514600  0.02545000  0.71770200  1
  O  O12  1  0.95485400  0.97455000  0.28229800  1
  O  O13  1  0.31473000  0.33741300  0.64963600  1
  O  O14  1  0.61101500  0.66934100  0.94996600  1
  O  O15  1  0.66934100  0.94996600  0.61101500  1
  O  O16  1  0.33741300  0.64963600  0.31473000  1
  O  O17  1  0.58359000  0.90796900  0.25237000  1
  O  O18  1  0.35036400  0.68527000  0.66258700  1
  O  O19  1  0.05003400  0.38898500  0.33065900  1
  O  O20  1  0.25237000  0.58359000  0.90796900  1
  O  O21  1  0.09203100  0.74763000  0.41641000  1
  O  O22  1  0.28229800  0.95485400  0.97455000  1
  O  O23  1  0.02545000  0.71770200  0.04514600  1
loop_
_geom_bond_atom_site_label_1
_geom_bond_atom_site_label_2
_geom_bond_distance
_geom_bond_site_symmetry_2
Li0 O5 1.958562 1_555
Li0 O17 1.979692 1_545
Li0 O8 2.044510 1_555
Li0 O22 2.075127 1_544
Li1 O7 1.958562 1_555
Li1 O3 1.979692 1_556
Li1 O14 2.044510 1_555
Li1 O23 2.075127 1_656
Li2 O10 1.958562 1_555
Li2 O21 1.979692 1_655
Li2 O4 2.044510 1_555
Li2 O11 2.075127 1_665
Li3 O13 1.958562 1_555
Li3 O2 1.979692 1_455
Li3 O19 2.044510 1_555
Li3 O12 2.075127 1_445
Li4 O16 1.958562 1_555
Li4 O20 1.979692 1_554
Li4 O9 2.044510 1_555
Li4 O0 2.075127 1_454
Li5 O18 1.958562 1_555
Li5 O6 1.979692 1_565
Li5 O15 2.044510 1_555
Li5 O1 2.075127 1_566
Al0 O5 1.746027 1_555
Al0 O7 1.753266 1_555
Al0 O2 1.799475 1_555
Al0 O4 1.807737 1_555
Al1 O7 1.746027 1_555
Al1 O13 1.753266 1_555
Al1 O6 1.799475 1_555
Al1 O8 1.807737 1_555
Al2 O10 1.746027 1_555
Al2 O5 1.753266 1_555
Al2 O3 1.799475 1_555
Al2 O9 1.807737 1_555
Al3 O13 1.746027 1_555
Al3 O18 1.753266 1_555
Al3 O20 1.799475 1_555
Al3 O14 1.807737 1_555
Al4 O16 1.746027 1_555
Al4 O10 1.753266 1_555
Al4 O17 1.799475 1_555
Al4 O15 1.807737 1_555
Al5 O18 1.746027 1_555
Al5 O16 1.753266 1_555
Al5 O21 1.799475 1_555
Al5 O19 1.807737 1_555
O0 V0 1.830792 1_555
O0 V1 1.876884 1_556
O1 V1 1.830792 1_555
O1 V3 1.876884 1_545
O2 V0 1.808776 1_555
O3 V1 1.808776 1_555
O4 V4 1.809440 1_655
O6 V2 1.808776 1_555
O8 V5 1.809440 1_545
O9 V2 1.809440 1_554
O11 V2 1.830792 1_555
O11 V0 1.876884 1_455
O12 V3 1.830792 1_555
O12 V5 1.876884 1_655
O14 V3 1.809440 1_556
O15 V0 1.809440 1_565
O17 V3 1.808776 1_555
O19 V1 1.809440 1_455
O20 V4 1.808776 1_555
O21 V5 1.808776 1_555
O22 V4 1.830792 1_555
O22 V2 1.876884 1_565
O23 V5 1.830792 1_555
O23 V4 1.876884 1_554
