# generated using pymatgen
data_LiFePO4
_symmetry_space_group_name_H-M   'P 1'
_cell_length_a   4.79931505
_cell_length_b   10.41440300
_cell_length_c   6.24350106
_cell_angle_alpha   90.00005873
_cell_angle_beta   89.98375489
_cell_angle_gamma   90.00028080
_symmetry_Int_Tables_number   1
_chemical_formula_structural   LiFePO4
_chemical_formula_sum   'Li4 Fe4 P4 O16'
_cell_volume   312.06266404
_cell_formula_units_Z   4
loop_
 _symmetry_equiv_pos_site_id
 _symmetry_equiv_pos_as_xyz
  1  'x, y, z'
loop_
 _atom_site_type_symbol
 _atom_site_label
 _atom_site_symmetry_multiplicity
 _atom_site_fract_x
 _atom_site_fract_y
 _atom_site_fract_z
 _atom_site_occupancy
  Li  Li0  1  0.49499900  0.21285700  0.75000100  1
  Li  Li1  1  0.99499400  0.28714200  0.25000300  1
  Li  Li2  1  0.00500600  0.71285700  0.74999700  1
  Li  Li3  1  0.50500100  0.78714200  0.25000000  1
  Fe  Fe0  1  0.99999900  0.99999900  0.49999400  1
  Fe  Fe1  1  0.49999400  0.50000000  0.00000800  1
  Fe  Fe2  1  0.00000300  0.00000200  0.99999900  1
  Fe  Fe3  1  0.50000800  0.50000500  0.49999900  1
  P  P0  1  0.42043900  0.09598800  0.24997400  1
  P  P1  1  0.92044800  0.40400900  0.74997400  1
  P  P2  1  0.07955200  0.59599000  0.25002600  1
  P  P3  1  0.57956000  0.90401100  0.75002600  1
  O  O0  1  0.71201700  0.04474200  0.74997200  1
  O  O1  1  0.21202000  0.45526300  0.24997600  1
  O  O2  1  0.78797800  0.54473700  0.75002400  1
  O  O3  1  0.28798300  0.95525800  0.25002700  1
  O  O4  1  0.74594800  0.08770500  0.24995700  1
  O  O5  1  0.24596200  0.41228700  0.74996200  1
  O  O6  1  0.75403800  0.58771300  0.25003700  1
  O  O7  1  0.25405100  0.91229500  0.75004100  1
  O  O8  1  0.30207700  0.16010900  0.04577200  1
  O  O9  1  0.30220000  0.16009100  0.45431900  1
  O  O10  1  0.80218700  0.33990400  0.95431600  1
  O  O11  1  0.80208400  0.33989500  0.54577100  1
  O  O12  1  0.19781000  0.66009600  0.04568700  1
  O  O13  1  0.19791700  0.66010400  0.45422800  1
  O  O14  1  0.69780200  0.83990800  0.54568100  1
  O  O15  1  0.69792200  0.83989100  0.95422800  1
loop_
_geom_bond_atom_site_label_1
_geom_bond_atom_site_label_2
_geom_bond_distance
_geom_bond_site_symmetry_2
Li0 O0 2.037199 1_555
Li0 O9 2.137096 1_555
Li0 O8 2.137331 1_556
Li0 O11 2.355271 1_555
Li0 O10 2.356371 1_555
Li0 O5 2.396298 1_555
Li1 O1 2.037264 1_655
Li1 O10 2.137132 1_554
Li1 O11 2.137304 1_555
Li1 O8 2.355245 1_655
Li1 O9 2.356461 1_655
Li1 O4 2.396372 1_555
Li2 O2 2.037260 1_455
Li2 O12 2.137139 1_556
Li2 O13 2.137312 1_555
Li2 O15 2.355254 1_455
Li2 O14 2.356455 1_455
Li2 O7 2.396379 1_555
Li3 O3 2.037208 1_555
Li3 O14 2.137095 1_555
Li3 O15 2.137337 1_554
Li3 O13 2.355261 1_555
Li3 O12 2.356367 1_555
Li3 O6 2.396289 1_555
Fe0 O3 2.135849 1_655
Fe0 O0 2.135898 1_565
Fe0 O4 2.181531 1_565
Fe0 O7 2.181570 1_655
Fe0 O14 2.228075 1_555
Fe0 O9 2.228086 1_665
Fe1 O1 2.135812 1_555
Fe1 O2 2.135916 1_554
Fe1 O6 2.181501 1_555
Fe1 O5 2.181544 1_554
Fe1 O12 2.228078 1_555
Fe1 O10 2.228116 1_554
Fe2 O3 2.136695 1_546
Fe2 O0 2.136700 1_455
Fe2 O7 2.180678 1_545
Fe2 O4 2.180679 1_456
Fe2 O8 2.227990 1_556
Fe2 O15 2.228041 1_445
Fe3 O2 2.136620 1_555
Fe3 O1 2.136689 1_555
Fe3 O6 2.180648 1_555
Fe3 O5 2.180739 1_555
Fe3 O13 2.227990 1_555
Fe3 O11 2.228030 1_555
O0 P3 1.597554 1_545
O1 P2 1.597542 1_555
O2 P1 1.597556 1_555
O3 P0 1.597542 1_565
O4 P0 1.564600 1_555
O5 P1 1.564621 1_455
O6 P2 1.564620 1_655
O7 P3 1.564601 1_555
O8 P0 1.547416 1_555
O9 P0 1.547588 1_555
O10 P1 1.547619 1_555
O11 P1 1.547390 1_555
O12 P2 1.547603 1_555
O13 P2 1.547387 1_555
O14 P3 1.547594 1_555
O15 P3 1.547412 1_555
