# generated using pymatgen
data_Li2NiSn(PO4)2
_symmetry_space_group_name_H-M   'P 1'
_cell_length_a   6.37191200
_cell_length_b   4.83134600
_cell_length_c   10.85358108
_cell_angle_alpha   89.11933205
_cell_angle_beta   90.00000000
_cell_angle_gamma   90.00000000
_symmetry_Int_Tables_number   1
_chemical_formula_structural   Li2NiSn(PO4)2
_chemical_formula_sum   'Li4 Ni2 Sn2 P4 O16'
_cell_volume   334.08706487
_cell_formula_units_Z   2
loop_
 _symmetry_equiv_pos_site_id
 _symmetry_equiv_pos_as_xyz
  1  'x, y, z'
loop_
 _atom_site_type_symbol
 _atom_site_label
 _atom_site_symmetry_multiplicity
 _atom_site_fract_x
 _atom_site_fract_y
 _atom_site_fract_z
 _atom_site_occupancy
  Li  Li0  1  0.00000000  0.00000000  0.00000000  1
  Li  Li1  1  0.50000000  0.00000000  0.00000000  1
  Li  Li2  1  0.00000000  0.50000000  0.50000000  1
  Li  Li3  1  0.50000000  0.50000000  0.50000000  1
  Ni  Ni0  1  0.25000000  0.53094100  0.78554100  1
  Ni  Ni1  1  0.75000000  0.46905900  0.21445900  1
  Sn  Sn0  1  0.75000000  0.01596300  0.72507400  1
  Sn  Sn1  1  0.25000000  0.98403700  0.27492600  1
  P  P0  1  0.75000000  0.57220300  0.92689400  1
  P  P1  1  0.25000000  0.13278800  0.60713500  1
  P  P2  1  0.75000000  0.86721200  0.39286500  1
  P  P3  1  0.25000000  0.42779700  0.07310600  1
  O  O0  1  0.25000000  0.29305400  0.94314900  1
  O  O1  1  0.75000000  0.25357700  0.93042400  1
  O  O2  1  0.94750800  0.69436100  0.85648600  1
  O  O3  1  0.55249200  0.69436100  0.85648600  1
  O  O4  1  0.44139100  0.27898000  0.67091700  1
  O  O5  1  0.05860900  0.27898000  0.67091700  1
  O  O6  1  0.25000000  0.81610200  0.62046600  1
  O  O7  1  0.75000000  0.75812900  0.52851600  1
  O  O8  1  0.25000000  0.24187100  0.47148400  1
  O  O9  1  0.75000000  0.18389800  0.37953400  1
  O  O10  1  0.94139100  0.72102000  0.32908300  1
  O  O11  1  0.55860900  0.72102000  0.32908300  1
  O  O12  1  0.44750800  0.30563900  0.14351400  1
  O  O13  1  0.05249200  0.30563900  0.14351400  1
  O  O14  1  0.25000000  0.74642300  0.06957600  1
  O  O15  1  0.75000000  0.70694600  0.05685100  1
loop_
_geom_bond_atom_site_label_1
_geom_bond_atom_site_label_2
_geom_bond_distance
_geom_bond_site_symmetry_2
Li0 O1 2.140165 1_454
Li0 O14 2.140165 1_545
Li0 O2 2.188449 1_444
Li0 O13 2.188449 1_555
Li0 O0 2.212708 1_554
Li0 O15 2.212708 1_445
Li1 O1 2.140165 1_554
Li1 O14 2.140165 1_545
Li1 O3 2.188449 1_544
Li1 O12 2.188449 1_555
Li1 O15 2.212708 1_545
Li1 O0 2.212708 1_554
Li2 O8 2.049517 1_555
Li2 O7 2.049517 1_455
Li2 O10 2.158721 1_455
Li2 O5 2.158721 1_555
Li2 O6 2.576978 1_555
Li2 O9 2.576978 1_455
Li3 O8 2.049517 1_555
Li3 O7 2.049517 1_555
Li3 O11 2.158721 1_555
Li3 O4 2.158721 1_555
Li3 O6 2.576978 1_555
Li3 O9 2.576978 1_555
Ni0 O0 2.046138 1_555
Ni0 O4 2.136207 1_555
Ni0 O5 2.136207 1_555
Ni0 O2 2.224869 1_455
Ni0 O3 2.224869 1_555
Ni0 O6 2.243265 1_555
Ni1 O15 2.046138 1_555
Ni1 O10 2.136207 1_555
Ni1 O11 2.136207 1_555
Ni1 O12 2.224869 1_555
Ni1 O13 2.224869 1_655
Ni1 O9 2.243265 1_555
O0 P3 1.562537 1_556
O1 P0 1.539280 1_555
O1 Sn0 2.522701 1_555
O2 P0 1.581853 1_555
O2 Sn0 2.442174 1_565
O3 P0 1.581853 1_555
O3 Sn0 2.442174 1_565
O4 P1 1.574919 1_555
O4 Sn0 2.409177 1_555
O5 P1 1.574919 1_555
O5 Sn0 2.409177 1_455
O6 P1 1.534630 1_565
O7 P2 1.556136 1_555
O7 Sn0 2.486894 1_565
O8 P1 1.556136 1_555
O8 Sn1 2.486894 1_545
O9 P2 1.534630 1_545
O10 P2 1.574919 1_555
O10 Sn1 2.409177 1_655
O11 P2 1.574919 1_555
O11 Sn1 2.409177 1_555
O12 P3 1.581853 1_555
O12 Sn1 2.442174 1_545
O13 P3 1.581853 1_555
O13 Sn1 2.442174 1_545
O14 P3 1.539280 1_555
O14 Sn1 2.522701 1_555
O15 P0 1.562537 1_554
