# generated using pymatgen
data_Na(Bi3O5)4
_symmetry_space_group_name_H-M   'P 1'
_cell_length_a   8.90589695
_cell_length_b   8.90589695
_cell_length_c   8.90589695
_cell_angle_alpha   109.47122063
_cell_angle_beta   109.47122063
_cell_angle_gamma   109.47122063
_symmetry_Int_Tables_number   1
_chemical_formula_structural   Na(Bi3O5)4
_chemical_formula_sum   'Na1 Bi12 O20'
_cell_volume   543.76481892
_cell_formula_units_Z   1
loop_
 _symmetry_equiv_pos_site_id
 _symmetry_equiv_pos_as_xyz
  1  'x, y, z'
loop_
 _atom_site_type_symbol
 _atom_site_label
 _atom_site_symmetry_multiplicity
 _atom_site_fract_x
 _atom_site_fract_y
 _atom_site_fract_z
 _atom_site_occupancy
  Na  Na0  1  0.00000000  0.00000000  0.00000000  1
  Bi  Bi0  1  0.82811900  0.31681100  0.14106100  1
  Bi  Bi1  1  0.48869200  0.17188100  0.31294200  1
  Bi  Bi2  1  0.85893900  0.17575000  0.68705800  1
  Bi  Bi3  1  0.31294200  0.48869200  0.17188100  1
  Bi  Bi4  1  0.68705800  0.85893900  0.17575000  1
  Bi  Bi5  1  0.82425000  0.68318900  0.51130800  1
  Bi  Bi6  1  0.17188100  0.31294200  0.48869200  1
  Bi  Bi7  1  0.68318900  0.51130800  0.82425000  1
  Bi  Bi8  1  0.31681100  0.14106100  0.82811900  1
  Bi  Bi9  1  0.51130800  0.82425000  0.68318900  1
  Bi  Bi10  1  0.14106100  0.82811900  0.31681100  1
  Bi  Bi11  1  0.17575000  0.68705800  0.85893900  1
  O  O0  1  0.34462100  0.00000000  0.00000000  1
  O  O1  1  0.73351700  0.10915200  0.36462700  1
  O  O2  1  0.89084800  0.62436500  0.25547400  1
  O  O3  1  0.63111000  0.37563500  0.26648300  1
  O  O4  1  0.27448200  0.27448200  0.27448200  1
  O  O5  1  0.72551800  0.00000000  0.00000000  1
  O  O6  1  0.74452600  0.36889000  0.63537300  1
  O  O7  1  0.00000000  0.34462100  0.00000000  1
  O  O8  1  0.37563500  0.26648300  0.63111000  1
  O  O9  1  0.62436500  0.25547400  0.89084800  1
  O  O10  1  0.36462700  0.73351700  0.10915200  1
  O  O11  1  0.63537300  0.74452600  0.36889000  1
  O  O12  1  0.65537900  0.65537900  0.65537900  1
  O  O13  1  0.26648300  0.63111000  0.37563500  1
  O  O14  1  0.00000000  0.00000000  0.72551800  1
  O  O15  1  0.00000000  0.72551800  0.00000000  1
  O  O16  1  0.10915200  0.36462700  0.73351700  1
  O  O17  1  0.36889000  0.63537300  0.74452600  1
  O  O18  1  0.25547400  0.89084800  0.62436500  1
  O  O19  1  0.00000000  0.00000000  0.34462100  1
loop_
_geom_bond_atom_site_label_1
_geom_bond_atom_site_label_2
_geom_bond_distance
_geom_bond_site_symmetry_2
Na0 O5 2.444508 1_455
Na0 O14 2.444508 1_554
Na0 O4 2.444508 1_555
Na0 O15 2.444508 1_545
Bi0 O9 2.094935 1_554
Bi0 O7 2.284620 1_655
Bi0 O5 2.350929 1_555
Bi0 O2 2.364840 1_555
Bi0 O3 2.475834 1_555
Bi1 O3 2.094939 1_555
Bi1 O0 2.284620 1_555
Bi1 O4 2.350929 1_555
Bi1 O1 2.364839 1_555
Bi1 O6 2.475837 1_555
Bi2 O16 2.094939 1_655
Bi2 O7 2.284620 1_656
Bi2 O14 2.350929 1_655
Bi2 O6 2.364834 1_555
Bi2 O1 2.475834 1_555
Bi3 O13 2.094939 1_555
Bi3 O7 2.284620 1_555
Bi3 O4 2.350929 1_555
Bi3 O10 2.364839 1_555
Bi3 O11 2.475837 1_555
Bi4 O1 2.094939 1_565
Bi4 O19 2.284620 1_665
Bi4 O5 2.350929 1_565
Bi4 O11 2.364834 1_555
Bi4 O10 2.475834 1_555
Bi5 O11 2.094945 1_555
Bi5 O12 2.284620 1_555
Bi5 O14 2.350929 1_665
Bi5 O3 2.364839 1_555
Bi5 O2 2.475843 1_555
Bi6 O8 2.094939 1_555
Bi6 O19 2.284620 1_555
Bi6 O4 2.350929 1_555
Bi6 O16 2.364839 1_555
Bi6 O17 2.475837 1_555
Bi7 O6 2.094945 1_555
Bi7 O12 2.284620 1_555
Bi7 O15 2.350929 1_656
Bi7 O8 2.364839 1_555
Bi7 O9 2.475843 1_555
Bi8 O18 2.094935 1_545
Bi8 O0 2.284620 1_556
Bi8 O14 2.350929 1_555
Bi8 O9 2.364840 1_555
Bi8 O8 2.475834 1_555
Bi9 O17 2.094945 1_555
Bi9 O12 2.284620 1_555
Bi9 O5 2.350929 1_566
Bi9 O13 2.364839 1_555
Bi9 O18 2.475843 1_555
Bi10 O2 2.094935 1_455
Bi10 O19 2.284620 1_565
Bi10 O15 2.350929 1_555
Bi10 O18 2.364840 1_555
Bi10 O13 2.475834 1_555
Bi11 O10 2.094939 1_556
Bi11 O0 2.284620 1_566
Bi11 O15 2.350929 1_556
Bi11 O17 2.364834 1_555
Bi11 O16 2.475834 1_555
