# generated using pymatgen
data_Ba3YF9
_symmetry_space_group_name_H-M   'P 1'
_cell_length_a   6.08865200
_cell_length_b   10.31785500
_cell_length_c   15.81337200
_cell_angle_alpha   90.00000000
_cell_angle_beta   90.00000000
_cell_angle_gamma   90.00000000
_symmetry_Int_Tables_number   1
_chemical_formula_structural   Ba3YF9
_chemical_formula_sum   'Ba12 Y4 F36'
_cell_volume   993.42494350
_cell_formula_units_Z   4
loop_
 _symmetry_equiv_pos_site_id
 _symmetry_equiv_pos_as_xyz
  1  'x, y, z'
loop_
 _atom_site_type_symbol
 _atom_site_label
 _atom_site_symmetry_multiplicity
 _atom_site_fract_x
 _atom_site_fract_y
 _atom_site_fract_z
 _atom_site_occupancy
  Ba  Ba0  1  0.75000000  0.05394500  0.90888700  1
  Ba  Ba1  1  0.75000000  0.16639100  0.47276300  1
  Ba  Ba2  1  0.25000000  0.24155500  0.67154300  1
  Ba  Ba3  1  0.75000000  0.25844500  0.17154300  1
  Ba  Ba4  1  0.25000000  0.33360900  0.97276300  1
  Ba  Ba5  1  0.25000000  0.44605500  0.40888700  1
  Ba  Ba6  1  0.75000000  0.55394500  0.59111300  1
  Ba  Ba7  1  0.75000000  0.66639100  0.02723700  1
  Ba  Ba8  1  0.25000000  0.74155500  0.82845700  1
  Ba  Ba9  1  0.75000000  0.75844500  0.32845700  1
  Ba  Ba10  1  0.25000000  0.83360900  0.52723700  1
  Ba  Ba11  1  0.25000000  0.94605500  0.09111300  1
  Y  Y0  1  0.25000000  0.03823100  0.31700100  1
  Y  Y1  1  0.75000000  0.46176900  0.81700100  1
  Y  Y2  1  0.25000000  0.53823100  0.18299900  1
  Y  Y3  1  0.75000000  0.96176900  0.68299900  1
  F  F0  1  0.49606000  0.04523200  0.59632000  1
  F  F1  1  0.00394000  0.04523200  0.59632000  1
  F  F2  1  0.00813200  0.07128300  0.21971500  1
  F  F3  1  0.49186800  0.07128300  0.21971500  1
  F  F4  1  0.75000000  0.15785500  0.73716500  1
  F  F5  1  0.25000000  0.21070400  0.83663400  1
  F  F6  1  0.49740200  0.14537200  0.03708800  1
  F  F7  1  0.00259800  0.14537200  0.03708800  1
  F  F8  1  0.25000000  0.18897500  0.41234600  1
  F  F9  1  0.75000000  0.31102500  0.91234600  1
  F  F10  1  0.99740200  0.35462800  0.53708800  1
  F  F11  1  0.50259800  0.35462800  0.53708800  1
  F  F12  1  0.75000000  0.28929600  0.33663400  1
  F  F13  1  0.25000000  0.34214500  0.23716500  1
  F  F14  1  0.99186800  0.42871700  0.71971500  1
  F  F15  1  0.50813200  0.42871700  0.71971500  1
  F  F16  1  0.99606000  0.45476800  0.09632000  1
  F  F17  1  0.50394000  0.45476800  0.09632000  1
  F  F18  1  0.49606000  0.54523200  0.90368000  1
  F  F19  1  0.00394000  0.54523200  0.90368000  1
  F  F20  1  0.00813200  0.57128300  0.28028500  1
  F  F21  1  0.49186800  0.57128300  0.28028500  1
  F  F22  1  0.75000000  0.65785500  0.76283500  1
  F  F23  1  0.25000000  0.71070400  0.66336600  1
  F  F24  1  0.49740200  0.64537200  0.46291200  1
  F  F25  1  0.00259800  0.64537200  0.46291200  1
  F  F26  1  0.25000000  0.68897500  0.08765400  1
  F  F27  1  0.75000000  0.81102500  0.58765400  1
  F  F28  1  0.99740200  0.85462800  0.96291200  1
  F  F29  1  0.50259800  0.85462800  0.96291200  1
  F  F30  1  0.75000000  0.78929600  0.16336600  1
  F  F31  1  0.25000000  0.84214500  0.26283500  1
  F  F32  1  0.50813200  0.92871700  0.78028500  1
  F  F33  1  0.99186800  0.92871700  0.78028500  1
  F  F34  1  0.99606000  0.95476800  0.40368000  1
  F  F35  1  0.50394000  0.95476800  0.40368000  1
loop_
_geom_bond_atom_site_label_1
_geom_bond_atom_site_label_2
_geom_bond_distance
_geom_bond_site_symmetry_2
Ba0 F9 2.653078 1_555
Ba0 F28 2.688535 1_545
Ba0 F29 2.688535 1_545
Ba0 F6 2.713884 1_556
Ba0 F7 2.713884 1_656
Ba0 F33 2.823798 1_545
Ba0 F32 2.823798 1_545
Ba0 F4 2.919490 1_555
Ba1 F12 2.498411 1_555
Ba1 F10 2.660058 1_555
Ba1 F11 2.660058 1_555
Ba1 F0 2.787630 1_555
Ba1 F1 2.787630 1_655
Ba1 F35 2.864540 1_545
Ba1 F34 2.864540 1_545
Ba1 F8 3.199219 1_555
Ba1 F8 3.199219 1_655
Ba2 F15 2.603773 1_555
Ba2 F14 2.603773 1_455
Ba2 F5 2.629980 1_555
Ba2 F1 2.786161 1_555
Ba2 F0 2.786161 1_555
Ba2 F10 2.871790 1_455
Ba2 F11 2.871790 1_555
Ba3 F2 2.603773 1_655
Ba3 F3 2.603773 1_555
Ba3 F12 2.629980 1_555
Ba3 F16 2.786161 1_555
Ba3 F17 2.786161 1_555
Ba3 F6 2.871790 1_555
Ba3 F7 2.871790 1_655
Ba4 F5 2.498411 1_555
Ba4 F6 2.660058 1_556
Ba4 F7 2.660058 1_556
Ba4 F16 2.787630 1_456
Ba4 F17 2.787630 1_556
Ba4 F18 2.864540 1_555
Ba4 F19 2.864540 1_555
Ba4 F9 3.199219 1_455
Ba4 F9 3.199219 1_555
Ba5 F8 2.653078 1_555
Ba5 F25 2.688535 1_555
Ba5 F24 2.688535 1_555
Ba5 F10 2.713884 1_455
Ba5 F11 2.713884 1_555
Ba5 F21 2.823798 1_555
Ba5 F20 2.823798 1_555
Ba5 F13 2.919490 1_555
Ba6 F27 2.653078 1_555
Ba6 F10 2.688535 1_555
Ba6 F11 2.688535 1_555
Ba6 F24 2.713884 1_555
Ba6 F25 2.713884 1_655
Ba6 F14 2.823798 1_555
Ba6 F15 2.823798 1_555
Ba6 F22 2.919490 1_555
Ba7 F30 2.498411 1_555
Ba7 F28 2.660058 1_554
Ba7 F29 2.660058 1_554
Ba7 F18 2.787630 1_554
Ba7 F19 2.787630 1_654
Ba7 F16 2.864540 1_555
Ba7 F17 2.864540 1_555
Ba7 F26 3.199219 1_655
Ba7 F26 3.199219 1_555
Ba8 F32 2.603773 1_555
Ba8 F33 2.603773 1_455
Ba8 F23 2.629980 1_555
Ba8 F19 2.786161 1_555
Ba8 F18 2.786161 1_555
Ba8 F28 2.871790 1_455
Ba8 F29 2.871790 1_555
Ba9 F21 2.603773 1_555
Ba9 F20 2.603773 1_655
Ba9 F30 2.629980 1_555
Ba9 F34 2.786161 1_555
Ba9 F35 2.786161 1_555
Ba9 F24 2.871790 1_555
Ba9 F25 2.871790 1_655
Ba10 F23 2.498411 1_555
Ba10 F24 2.660058 1_555
Ba10 F25 2.660058 1_555
Ba10 F34 2.787630 1_455
Ba10 F35 2.787630 1_555
Ba10 F0 2.864540 1_565
Ba10 F1 2.864540 1_565
Ba10 F27 3.199219 1_455
Ba10 F27 3.199219 1_555
Ba11 F26 2.653078 1_555
Ba11 F6 2.688535 1_565
Ba11 F7 2.688535 1_565
Ba11 F28 2.713884 1_454
Ba11 F29 2.713884 1_554
Ba11 F2 2.823798 1_565
Ba11 F3 2.823798 1_565
Ba11 F31 2.919490 1_555
F0 Y3 2.238519 1_545
F1 Y3 2.238519 1_445
F2 Y0 2.156787 1_555
F3 Y0 2.156787 1_555
F4 Y3 2.197034 1_545
F8 Y0 2.166187 1_555
F9 Y1 2.166187 1_555
F13 Y2 2.197034 1_555
F14 Y1 2.156787 1_555
F15 Y1 2.156787 1_555
F16 Y2 2.238519 1_655
F17 Y2 2.238519 1_555
F18 Y1 2.238519 1_555
F19 Y1 2.238519 1_455
F20 Y2 2.156787 1_555
F21 Y2 2.156787 1_555
F22 Y1 2.197034 1_555
F26 Y2 2.166187 1_555
F27 Y3 2.166187 1_555
F31 Y0 2.197034 1_565
F32 Y3 2.156787 1_555
F33 Y3 2.156787 1_555
F34 Y0 2.238519 1_665
F35 Y0 2.238519 1_565
