# generated using pymatgen
data_Ce2Dy2O7
_symmetry_space_group_name_H-M   'P 1'
_cell_length_a   3.84547200
_cell_length_b   3.84547200
_cell_length_c   10.87889700
_cell_angle_alpha   90.00000000
_cell_angle_beta   90.00000000
_cell_angle_gamma   90.00000000
_symmetry_Int_Tables_number   1
_chemical_formula_structural   Ce2Dy2O7
_chemical_formula_sum   'Ce2 Dy2 O7'
_cell_volume   160.87337456
_cell_formula_units_Z   1
loop_
 _symmetry_equiv_pos_site_id
 _symmetry_equiv_pos_as_xyz
  1  'x, y, z'
loop_
 _atom_site_type_symbol
 _atom_site_label
 _atom_site_symmetry_multiplicity
 _atom_site_fract_x
 _atom_site_fract_y
 _atom_site_fract_z
 _atom_site_occupancy
  Ce  Ce0  1  0.50000000  0.00000000  0.37416000  1
  Ce  Ce1  1  0.00000000  0.50000000  0.62584000  1
  Dy  Dy0  1  0.50000000  0.00000000  0.85989800  1
  Dy  Dy1  1  0.00000000  0.50000000  0.14010200  1
  O  O0  1  0.50000000  0.50000000  0.00000000  1
  O  O1  1  0.50000000  0.50000000  0.25905000  1
  O  O2  1  0.00000000  0.00000000  0.23357500  1
  O  O3  1  0.50000000  0.50000000  0.50000000  1
  O  O4  1  0.00000000  0.00000000  0.50000000  1
  O  O5  1  0.50000000  0.50000000  0.74095000  1
  O  O6  1  0.00000000  0.00000000  0.76642500  1
loop_
_geom_bond_atom_site_label_1
_geom_bond_atom_site_label_2
_geom_bond_distance
_geom_bond_site_symmetry_2
Ce0 O1 2.294579 1_555
Ce0 O1 2.294579 1_545
Ce0 O3 2.360313 1_545
Ce0 O4 2.360313 1_655
Ce0 O3 2.360313 1_555
Ce0 O4 2.360313 1_555
Ce0 O2 2.456829 1_655
Ce0 O2 2.456829 1_555
Ce1 O5 2.294579 1_455
Ce1 O5 2.294579 1_555
Ce1 O3 2.360313 1_455
Ce1 O4 2.360313 1_565
Ce1 O3 2.360313 1_555
Ce1 O4 2.360313 1_555
Ce1 O6 2.456829 1_555
Ce1 O6 2.456829 1_565
Dy0 O6 2.175078 1_655
Dy0 O6 2.175078 1_555
Dy0 O5 2.317630 1_545
Dy0 O5 2.317630 1_555
Dy0 O0 2.453561 1_546
Dy0 O0 2.453561 1_556
Dy1 O2 2.175078 1_555
Dy1 O2 2.175078 1_565
Dy1 O1 2.317630 1_455
Dy1 O1 2.317630 1_555
Dy1 O0 2.453561 1_455
Dy1 O0 2.453561 1_555
