# generated using pymatgen
data_Mn3Sn3(TeO8)2
_symmetry_space_group_name_H-M   'P 1'
_cell_length_a   6.33440618
_cell_length_b   6.33440618
_cell_length_c   9.32224822
_cell_angle_alpha   88.66555484
_cell_angle_beta   88.66555484
_cell_angle_gamma   59.10536903
_symmetry_Int_Tables_number   1
_chemical_formula_structural   Mn3Sn3(TeO8)2
_chemical_formula_sum   'Mn3 Sn3 Te2 O16'
_cell_volume   320.86421778
_cell_formula_units_Z   1
loop_
 _symmetry_equiv_pos_site_id
 _symmetry_equiv_pos_as_xyz
  1  'x, y, z'
loop_
 _atom_site_type_symbol
 _atom_site_label
 _atom_site_symmetry_multiplicity
 _atom_site_fract_x
 _atom_site_fract_y
 _atom_site_fract_z
 _atom_site_occupancy
  Mn  Mn0  1  0.83122800  0.83122800  0.79620300  1
  Mn  Mn1  1  0.16826800  0.66210600  0.29685800  1
  Mn  Mn2  1  0.66210600  0.16826800  0.29685800  1
  Sn  Sn0  1  0.33780600  0.83299300  0.79373600  1
  Sn  Sn1  1  0.83299300  0.33780600  0.79373600  1
  Sn  Sn2  1  0.16782000  0.16782000  0.29226200  1
  Te  Te0  1  0.67093700  0.67093700  0.51075200  1
  Te  Te1  1  0.33776000  0.33776000  0.01788600  1
  O  O0  1  0.36404700  0.82177400  0.40051900  1
  O  O1  1  0.52460900  0.52460900  0.64699900  1
  O  O2  1  0.66009300  0.66009300  0.90303900  1
  O  O3  1  0.00360200  0.00360200  0.70144000  1
  O  O4  1  0.99614900  0.99614900  0.21185700  1
  O  O5  1  0.82177400  0.36404700  0.40051900  1
  O  O6  1  0.51713800  0.94937500  0.64392100  1
  O  O7  1  0.94937500  0.51713800  0.64392100  1
  O  O8  1  0.18162800  0.18162800  0.89976000  1
  O  O9  1  0.82245200  0.82245200  0.39874800  1
  O  O10  1  0.04567000  0.47114900  0.14431600  1
  O  O11  1  0.47114900  0.04567000  0.14431600  1
  O  O12  1  0.33624100  0.33624100  0.39060900  1
  O  O13  1  0.18467200  0.63885700  0.90157100  1
  O  O14  1  0.47205800  0.47205800  0.15304000  1
  O  O15  1  0.63885700  0.18467200  0.90157100  1
loop_
_geom_bond_atom_site_label_1
_geom_bond_atom_site_label_2
_geom_bond_distance
_geom_bond_site_symmetry_2
Mn0 O3 2.073475 1_665
Mn0 O2 2.109124 1_555
Mn0 O15 2.169624 1_565
Mn0 O13 2.169624 1_655
Mn0 O6 2.255391 1_555
Mn0 O7 2.255391 1_555
Mn1 O12 1.964834 1_555
Mn1 O4 1.971536 1_455
Mn1 O9 2.096546 1_455
Mn1 O14 2.127399 1_555
Mn1 O0 2.210005 1_555
Mn1 O10 2.276971 1_555
Mn2 O12 1.964834 1_555
Mn2 O4 1.971536 1_545
Mn2 O9 2.096546 1_545
Mn2 O14 2.127399 1_555
Mn2 O5 2.210005 1_555
Mn2 O11 2.276971 1_555
O0 Te0 1.971760 1_555
O0 Sn2 2.127384 1_565
O1 Te0 2.025864 1_555
O1 Sn1 2.182345 1_555
O1 Sn0 2.182345 1_555
O2 Sn1 2.038210 1_555
O2 Sn0 2.038210 1_555
O3 Sn1 2.020382 1_455
O3 Sn0 2.020382 1_545
O4 Sn2 2.053566 1_665
O5 Te0 1.971760 1_555
O5 Sn2 2.127384 1_655
O6 Te0 1.970321 1_555
O6 Sn0 2.126630 1_555
O7 Te0 1.970321 1_555
O7 Sn1 2.126630 1_555
O8 Te1 2.067561 1_556
O8 Sn0 2.155265 1_545
O8 Sn1 2.155265 1_455
O9 Te0 1.945522 1_555
O10 Te1 1.966153 1_555
O10 Sn2 2.142948 1_555
O11 Te1 1.966153 1_555
O11 Sn2 2.142948 1_555
O12 Sn2 2.092079 1_555
O13 Te1 1.951185 1_556
O13 Sn0 2.141427 1_555
O14 Te1 1.969222 1_555
O15 Te1 1.951185 1_556
O15 Sn1 2.141427 1_555
