# generated using pymatgen
data_Li2VBO4
_symmetry_space_group_name_H-M   'P 1'
_cell_length_a   4.71815700
_cell_length_b   5.86864500
_cell_length_c   10.89453200
_cell_angle_alpha   90.00001502
_cell_angle_beta   90.00024766
_cell_angle_gamma   89.99969569
_symmetry_Int_Tables_number   1
_chemical_formula_structural   Li2VBO4
_chemical_formula_sum   'Li8 V4 B4 O16'
_cell_volume   301.66075003
_cell_formula_units_Z   4
loop_
 _symmetry_equiv_pos_site_id
 _symmetry_equiv_pos_as_xyz
  1  'x, y, z'
loop_
 _atom_site_type_symbol
 _atom_site_label
 _atom_site_symmetry_multiplicity
 _atom_site_fract_x
 _atom_site_fract_y
 _atom_site_fract_z
 _atom_site_occupancy
  Li  Li0  1  0.98994500  0.25428500  0.17082600  1
  Li  Li1  1  0.98995100  0.25429700  0.67083400  1
  Li  Li2  1  0.48994500  0.24571400  0.32917300  1
  Li  Li3  1  0.48995100  0.24570000  0.82916600  1
  Li  Li4  1  0.98994600  0.74571300  0.17082600  1
  Li  Li5  1  0.98995200  0.74570100  0.67083300  1
  Li  Li6  1  0.48994500  0.75428300  0.32917300  1
  Li  Li7  1  0.48995100  0.75429700  0.82916600  1
  V  V0  1  0.98328700  0.99999900  0.93187400  1
  V  V1  1  0.48328900  0.49999400  0.56813100  1
  V  V2  1  0.98319700  0.00000400  0.43194900  1
  V  V3  1  0.48319400  0.50000200  0.06804900  1
  B  B0  1  0.50406700  0.00000000  0.08864800  1
  B  B1  1  0.50404700  0.99999600  0.58866700  1
  B  B2  1  0.00407000  0.50000100  0.41135100  1
  B  B3  1  0.00404500  0.49999800  0.91133200  1
  O  O0  1  0.81984600  0.99999900  0.09056400  1
  O  O1  1  0.81982000  0.99999900  0.59062000  1
  O  O2  1  0.31984900  0.49999800  0.40943900  1
  O  O3  1  0.31982300  0.49999800  0.90938000  1
  O  O4  1  0.40696600  0.99999800  0.45527600  1
  O  O5  1  0.40692200  0.99999800  0.95524000  1
  O  O6  1  0.90696600  0.49999900  0.04472400  1
  O  O7  1  0.90692100  0.49999800  0.54476100  1
  O  O8  1  0.90306600  0.28869500  0.34655500  1
  O  O9  1  0.90297900  0.28868300  0.84651300  1
  O  O10  1  0.40306700  0.21130400  0.15344400  1
  O  O11  1  0.40295200  0.21134700  0.65348600  1
  O  O12  1  0.40306800  0.78869400  0.15344400  1
  O  O13  1  0.40295300  0.78864900  0.65348700  1
  O  O14  1  0.90306900  0.71130600  0.34655600  1
  O  O15  1  0.90295300  0.71135100  0.84651300  1
loop_
_geom_bond_atom_site_label_1
_geom_bond_atom_site_label_2
_geom_bond_distance
_geom_bond_site_symmetry_2
Li0 O0 1.906753 1_545
Li0 O8 1.968264 1_555
Li0 O10 1.974529 1_655
Li0 O6 2.029789 1_555
Li1 O1 1.906632 1_545
Li1 O9 1.967811 1_555
Li1 O11 1.973907 1_655
Li1 O7 2.029568 1_555
Li2 O2 1.906754 1_555
Li2 O10 1.968260 1_555
Li2 O8 1.974525 1_555
Li2 O4 2.029810 1_545
Li3 O3 1.906622 1_555
Li3 O11 1.967826 1_555
Li3 O9 1.974057 1_555
Li3 O5 2.029583 1_545
Li4 O0 1.906748 1_555
Li4 O14 1.968272 1_555
Li4 O12 1.974532 1_655
Li4 O6 2.029793 1_555
Li5 O1 1.906622 1_555
Li5 O15 1.967828 1_555
Li5 O13 1.973906 1_655
Li5 O7 2.029572 1_555
Li6 O2 1.906766 1_555
Li6 O12 1.968260 1_555
Li6 O14 1.974535 1_555
Li6 O4 2.029803 1_555
Li7 O3 1.906634 1_555
Li7 O13 1.967813 1_555
Li7 O15 1.973906 1_555
Li7 O5 2.029576 1_555
B0 O0 1.490041 1_545
B0 O10 1.504386 1_555
B0 O12 1.504398 1_545
B0 O5 1.523974 1_544
B1 O1 1.490018 1_555
B1 O13 1.504861 1_555
B1 O11 1.504872 1_565
B1 O4 1.523707 1_555
B2 O2 1.490041 1_555
B2 O14 1.504385 1_455
B2 O8 1.504403 1_455
B2 O7 1.524005 1_455
B3 O3 1.490042 1_555
B3 O9 1.504657 1_455
B3 O15 1.504876 1_455
B3 O6 1.523718 1_456
O0 V0 1.893041 1_554
O1 V2 1.892729 1_565
O2 V1 1.893052 1_555
O3 V3 1.892691 1_556
O4 V2 2.015494 1_465
O5 V0 2.014920 1_455
O6 V3 2.015507 1_555
O7 V1 2.014914 1_555
O8 V2 1.969476 1_555
O9 V0 1.969431 1_545
O10 V3 1.969518 1_555
O11 V1 1.969245 1_555
O12 V3 1.969483 1_555
O13 V1 1.969286 1_555
O14 V2 1.969507 1_565
O15 V0 1.969276 1_555
