# generated using pymatgen
data_Na6Co2C4SO16
_symmetry_space_group_name_H-M   'P 1'
_cell_length_a   9.74452847
_cell_length_b   9.74552969
_cell_length_c   9.73397859
_cell_angle_alpha   60.06942537
_cell_angle_beta   60.06845195
_cell_angle_gamma   60.13728880
_symmetry_Int_Tables_number   1
_chemical_formula_structural   Na6Co2C4SO16
_chemical_formula_sum   'Na12 Co4 C8 S2 O32'
_cell_volume   655.00247361
_cell_formula_units_Z   2
loop_
 _symmetry_equiv_pos_site_id
 _symmetry_equiv_pos_as_xyz
  1  'x, y, z'
loop_
 _atom_site_type_symbol
 _atom_site_label
 _atom_site_symmetry_multiplicity
 _atom_site_fract_x
 _atom_site_fract_y
 _atom_site_fract_z
 _atom_site_occupancy
  Na  Na0  1  0.28351817  0.71656563  0.28370270  1
  Na  Na1  1  0.71600241  0.28332811  0.28425404  1
  Na  Na2  1  0.71614475  0.71666579  0.28432192  1
  Na  Na3  1  0.53399761  0.96573765  0.53370396  1
  Na  Na4  1  0.28434745  0.28322067  0.71599681  1
  Na  Na5  1  0.28430842  0.71621992  0.71582069  1
  Na  Na6  1  0.96565255  0.96677933  0.53400319  1
  Na  Na7  1  0.96569158  0.53378008  0.53417931  1
  Na  Na8  1  0.71600239  0.28426235  0.71629604  1
  Na  Na9  1  0.53399759  0.96667189  0.96574596  1
  Na  Na10  1  0.53385525  0.53333421  0.96567808  1
  Na  Na11  1  0.96648183  0.53343437  0.96629730  1
  Co  Co0  1  0.12500000  0.62500000  0.12500000  1
  Co  Co1  1  0.12500000  0.12500000  0.12500000  1
  Co  Co2  1  0.62500000  0.12500000  0.12500000  1
  Co  Co3  1  0.12500000  0.12500000  0.62500000  1
  C  C0  1  0.90627516  0.90630774  0.28064059  1
  C  C1  1  0.34322781  0.96874865  0.34389842  1
  C  C2  1  0.34344786  0.34331646  0.34416170  1
  C  C3  1  0.96849215  0.34401977  0.34430824  1
  C  C4  1  0.28150785  0.90598023  0.90569176  1
  C  C5  1  0.90677219  0.28125135  0.90610158  1
  C  C6  1  0.90655214  0.90668354  0.90583830  1
  C  C7  1  0.34372484  0.34369226  0.96935941  1
  S  S0  1  0.74991643  0.75003051  0.74999092  1
  S  S1  1  0.50008357  0.49996949  0.50000908  1
  O  O0  1  0.02435312  0.92947131  0.28321645  1
  O  O1  1  0.92960863  0.76264363  0.28330729  1
  O  O2  1  0.76265250  0.02383480  0.28280527  1
  O  O3  1  0.48589420  0.32250640  0.22431561  1
  O  O4  1  0.93589482  0.68822583  0.68789665  1
  O  O5  1  0.48620043  0.96654359  0.32204716  1
  O  O6  1  0.32185274  0.96665066  0.22419739  1
  O  O7  1  0.68807177  0.93604585  0.68792764  1
  O  O8  1  0.68778618  0.68800003  0.68768793  1
  O  O9  1  0.22389857  0.48552871  0.32328900  1
  O  O10  1  0.32263389  0.22353343  0.48691112  1
  O  O11  1  0.68787229  0.68797245  0.93628438  1
  O  O12  1  0.96669216  0.48746045  0.22591384  1
  O  O13  1  0.22390614  0.96652356  0.48678672  1
  O  O14  1  0.96633977  0.22546309  0.32161530  1
  O  O15  1  0.28413470  0.92815480  0.76216203  1
  O  O16  1  0.96586530  0.32184520  0.48783797  1
  O  O17  1  0.28366023  0.02453691  0.92838470  1
  O  O18  1  0.02609386  0.28347644  0.76321328  1
  O  O19  1  0.28330784  0.76253955  0.02408616  1
  O  O20  1  0.56212771  0.56202755  0.31371562  1
  O  O21  1  0.92736611  0.02646657  0.76308888  1
  O  O22  1  0.02610143  0.76447129  0.92671100  1
  O  O23  1  0.56221382  0.56199997  0.56231207  1
  O  O24  1  0.56192823  0.31395415  0.56207236  1
  O  O25  1  0.92814726  0.28334934  0.02580261  1
  O  O26  1  0.76379957  0.28345641  0.92795284  1
  O  O27  1  0.31410518  0.56177417  0.56210335  1
  O  O28  1  0.76410580  0.92749360  0.02568439  1
  O  O29  1  0.48734750  0.22616520  0.96719473  1
  O  O30  1  0.32039137  0.48735637  0.96669271  1
  O  O31  1  0.22564688  0.32052869  0.96678355  1
loop_
_geom_bond_atom_site_label_1
_geom_bond_atom_site_label_2
_geom_bond_distance
_geom_bond_site_symmetry_2
Na0 O19 2.336959 1_555
Na0 O0 2.338141 1_555
Na0 O6 2.386846 1_555
Na0 O9 2.401889 1_555
Na0 O27 2.446863 1_555
Na0 O20 2.450499 1_555
Na1 O25 2.326487 1_555
Na1 O2 2.342338 1_555
Na1 O14 2.389929 1_555
Na1 O3 2.396817 1_555
Na1 O24 2.442087 1_555
Na1 O20 2.449511 1_555
Na2 O28 2.323438 1_555
Na2 O1 2.330444 1_555
Na2 O5 2.392303 1_555
Na2 O12 2.392638 1_555
Na2 O23 2.444384 1_555
Na2 O20 2.449299 1_555
Na3 O5 2.323680 1_555
Na3 O10 2.324373 1_565
Na3 O15 2.383207 1_555
Na3 O2 2.386579 1_565
Na3 O8 2.443832 1_555
Na3 O7 2.444301 1_555
Na4 O18 2.320557 1_555
Na4 O17 2.330590 1_555
Na4 O10 2.387072 1_555
Na4 O31 2.388250 1_555
Na4 O24 2.442474 1_555
Na4 O27 2.447415 1_555
Na5 O15 2.322695 1_555
Na5 O22 2.323048 1_555
Na5 O30 2.387949 1_555
Na5 O13 2.391633 1_555
Na5 O27 2.442805 1_555
Na5 O23 2.444378 1_555
Na6 O13 2.320557 1_655
Na6 O14 2.330590 1_565
Na6 O21 2.387072 1_565
Na6 O0 2.388250 1_655
Na6 O7 2.442474 1_555
Na6 O4 2.447415 1_555
Na7 O16 2.322695 1_555
Na7 O9 2.323048 1_655
Na7 O1 2.387949 1_555
Na7 O18 2.391633 1_655
Na7 O4 2.442805 1_555
Na7 O8 2.444378 1_555
Na8 O26 2.323680 1_555
Na8 O21 2.324373 1_555
Na8 O16 2.383207 1_555
Na8 O29 2.386579 1_555
Na8 O23 2.443832 1_555
Na8 O24 2.444301 1_555
Na9 O6 2.326487 1_556
Na9 O29 2.342338 1_565
Na9 O17 2.389929 1_565
Na9 O28 2.396817 1_556
Na9 O7 2.442087 1_555
Na9 O11 2.449511 1_555
Na10 O3 2.323438 1_556
Na10 O30 2.330444 1_555
Na10 O26 2.392303 1_555
Na10 O19 2.392638 1_556
Na10 O8 2.444384 1_555
Na10 O11 2.449299 1_555
Na11 O12 2.336959 1_556
Na11 O31 2.338141 1_655
Na11 O25 2.386846 1_556
Na11 O22 2.401889 1_655
Na11 O4 2.446863 1_555
Na11 O11 2.450499 1_555
Co0 O19 2.091497 1_555
Co0 O12 2.091497 1_455
Co0 O1 2.095356 1_455
Co0 O30 2.095356 1_554
Co0 O9 2.106062 1_555
Co0 O22 2.106062 1_554
Co1 O0 2.095245 1_545
Co1 O31 2.095245 1_554
Co1 O25 2.099274 1_455
Co1 O6 2.099274 1_545
Co1 O14 2.102697 1_455
Co1 O17 2.102697 1_554
Co2 O2 2.087756 1_555
Co2 O29 2.087756 1_554
Co2 O28 2.104225 1_545
Co2 O3 2.104225 1_555
Co2 O26 2.104364 1_554
Co2 O5 2.104364 1_545
Co3 O10 2.099541 1_555
Co3 O21 2.099541 1_455
Co3 O16 2.101215 1_455
Co3 O15 2.101215 1_545
Co3 O18 2.102701 1_555
Co3 O13 2.102701 1_545
C0 O1 1.290429 1_555
C0 O0 1.291743 1_655
C0 O2 1.292028 1_565
C1 O5 1.290635 1_555
C1 O13 1.291545 1_555
C1 O6 1.292912 1_555
C2 O9 1.290956 1_555
C2 O3 1.291739 1_555
C2 O10 1.292477 1_555
C3 O14 1.291362 1_555
C3 O16 1.291441 1_555
C3 O12 1.292559 1_555
C4 O17 1.291362 1_565
C4 O15 1.291441 1_555
C4 O19 1.292559 1_556
C5 O26 1.290635 1_555
C5 O18 1.291545 1_655
C5 O25 1.292912 1_556
C6 O22 1.290956 1_655
C6 O28 1.291739 1_556
C6 O21 1.292477 1_565
C7 O30 1.290429 1_555
C7 O31 1.291743 1_555
C7 O29 1.292028 1_555
O4 S0 1.481753 1_555
O7 S0 1.482214 1_555
O8 S0 1.482061 1_555
O11 S0 1.481647 1_555
O20 S1 1.481647 1_555
O23 S1 1.482061 1_555
O24 S1 1.482214 1_555
O27 S1 1.481753 1_555
