# generated using pymatgen
data_LaZnPO
_symmetry_space_group_name_H-M   'P 1'
_cell_length_a   4.04560200
_cell_length_b   4.04560200
_cell_length_c   8.95877500
_cell_angle_alpha   90.00000000
_cell_angle_beta   90.00000000
_cell_angle_gamma   90.00000000
_symmetry_Int_Tables_number   1
_chemical_formula_structural   LaZnPO
_chemical_formula_sum   'La2 Zn2 P2 O2'
_cell_volume   146.62733461
_cell_formula_units_Z   2
loop_
 _symmetry_equiv_pos_site_id
 _symmetry_equiv_pos_as_xyz
  1  'x, y, z'
loop_
 _atom_site_type_symbol
 _atom_site_label
 _atom_site_symmetry_multiplicity
 _atom_site_fract_x
 _atom_site_fract_y
 _atom_site_fract_z
 _atom_site_occupancy
  La  La0  1  0.00000000  0.50000000  0.86123100  1
  La  La1  1  0.50000000  0.00000000  0.13876900  1
  Zn  Zn0  1  0.00000000  0.00000000  0.50000000  1
  Zn  Zn1  1  0.50000000  0.50000000  0.50000000  1
  P  P0  1  0.50000000  0.00000000  0.66392600  1
  P  P1  1  0.00000000  0.50000000  0.33607400  1
  O  O0  1  0.50000000  0.50000000  0.00000000  1
  O  O1  1  0.00000000  0.00000000  0.00000000  1
loop_
_geom_bond_atom_site_label_1
_geom_bond_atom_site_label_2
_geom_bond_distance
_geom_bond_site_symmetry_2
La0 O0 2.374294 1_556
La0 O0 2.374294 1_456
La0 O1 2.374294 1_566
La0 O1 2.374294 1_556
La0 P0 3.362722 1_565
La0 P0 3.362722 1_465
La0 P0 3.362722 1_455
La0 P0 3.362722 1_555
La1 O1 2.374294 1_655
La1 O1 2.374294 1_555
La1 O0 2.374294 1_545
La1 O0 2.374294 1_555
La1 P1 3.362722 1_645
La1 P1 3.362722 1_555
La1 P1 3.362722 1_545
La1 P1 3.362722 1_655
P0 Zn1 2.499688 1_555
P0 Zn1 2.499688 1_545
P0 Zn0 2.499688 1_655
P0 Zn0 2.499688 1_555
P1 Zn1 2.499688 1_455
P1 Zn1 2.499688 1_555
P1 Zn0 2.499688 1_565
P1 Zn0 2.499688 1_555
