# generated using pymatgen
data_V2O3
_symmetry_space_group_name_H-M   'P 1'
_cell_length_a   5.10431304
_cell_length_b   5.10587254
_cell_length_c   5.57163063
_cell_angle_alpha   63.35851999
_cell_angle_beta   88.29094875
_cell_angle_gamma   119.20065984
_symmetry_Int_Tables_number   1
_chemical_formula_structural   V2O3
_chemical_formula_sum   'V4 O6'
_cell_volume   107.39249813
_cell_formula_units_Z   2
loop_
 _symmetry_equiv_pos_site_id
 _symmetry_equiv_pos_as_xyz
  1  'x, y, z'
loop_
 _atom_site_type_symbol
 _atom_site_label
 _atom_site_symmetry_multiplicity
 _atom_site_fract_x
 _atom_site_fract_y
 _atom_site_fract_z
 _atom_site_occupancy
  V  V0  1  0.84715600  0.70315800  0.44860000  1
  V  V1  1  0.65315100  0.29774300  0.04703500  1
  V  V2  1  0.15672100  0.30405500  0.54733200  1
  V  V3  1  0.35085500  0.70962600  0.94892000  1
  O  O0  1  0.43703700  0.18900800  0.74804300  1
  O  O1  1  0.56680300  0.81814300  0.24817600  1
  O  O2  1  0.25603900  0.20856800  0.24301300  1
  O  O3  1  0.74799000  0.79894800  0.75265300  1
  O  O4  1  0.05412400  0.50647100  0.74261800  1
  O  O5  1  0.94981800  0.50094700  0.25316500  1
loop_
_geom_bond_atom_site_label_1
_geom_bond_atom_site_label_2
_geom_bond_distance
_geom_bond_site_symmetry_2
O0 V3 1.974957 1_545
O0 V2 1.992308 1_555
O0 V0 2.135170 1_555
O0 V1 2.154460 1_556
O1 V1 1.975601 1_565
O1 V0 1.991630 1_555
O1 V2 2.134655 1_555
O1 V3 2.155048 1_554
O2 V1 2.007448 1_555
O2 V0 2.068469 1_445
O2 V2 2.073849 1_555
O2 V3 2.109352 1_554
O3 V3 2.007833 1_555
O3 V2 2.067440 1_665
O3 V0 2.073348 1_555
O3 V1 2.110236 1_556
O4 V2 2.007205 1_555
O4 V1 2.060349 1_456
O4 V3 2.081189 1_555
O4 V0 2.114518 1_455
O5 V0 2.007079 1_555
O5 V3 2.060129 1_654
O5 V1 2.080359 1_555
O5 V2 2.115135 1_655
