# generated using pymatgen
data_LiFeO2
_symmetry_space_group_name_H-M   'P 1'
_cell_length_a   2.97574272
_cell_length_b   2.97574272
_cell_length_c   10.07951000
_cell_angle_alpha   90.00000000
_cell_angle_beta   90.00000000
_cell_angle_gamma   120.00001604
_symmetry_Int_Tables_number   1
_chemical_formula_structural   LiFeO2
_chemical_formula_sum   'Li2 Fe2 O4'
_cell_volume   77.29666234
_cell_formula_units_Z   2
loop_
 _symmetry_equiv_pos_site_id
 _symmetry_equiv_pos_as_xyz
  1  'x, y, z'
loop_
 _atom_site_type_symbol
 _atom_site_label
 _atom_site_symmetry_multiplicity
 _atom_site_fract_x
 _atom_site_fract_y
 _atom_site_fract_z
 _atom_site_occupancy
  Li  Li0  1  0.33333300  0.66666700  0.23995300  1
  Li  Li1  1  0.66666700  0.33333300  0.73995300  1
  Fe  Fe0  1  0.33333300  0.66666700  0.49981000  1
  Fe  Fe1  1  0.66666700  0.33333300  0.99981000  1
  O  O0  1  0.33333300  0.66666700  0.88749300  1
  O  O1  1  0.00000000  0.00000000  0.11386000  1
  O  O2  1  0.00000000  0.00000000  0.61386000  1
  O  O3  1  0.66666700  0.33333300  0.38749300  1
loop_
_geom_bond_atom_site_label_1
_geom_bond_atom_site_label_2
_geom_bond_distance
_geom_bond_site_symmetry_2
Li0 O1 2.137055 1_565
Li0 O1 2.137057 1_665
Li0 O1 2.137057 1_555
Li0 O3 2.272275 1_455
Li0 O3 2.272275 1_565
Li0 O3 2.272279 1_555
Li1 O2 2.137055 1_655
Li1 O2 2.137057 1_555
Li1 O2 2.137057 1_665
Li1 O0 2.272275 1_655
Li1 O0 2.272275 1_545
Li1 O0 2.272279 1_555
Fe0 O3 2.057505 1_455
Fe0 O3 2.057505 1_565
Fe0 O3 2.057509 1_555
Fe0 O2 2.067168 1_565
Fe0 O2 2.067170 1_665
Fe0 O2 2.067170 1_555
Fe1 O0 2.057505 1_545
Fe1 O0 2.057505 1_655
Fe1 O0 2.057509 1_555
Fe1 O1 2.067168 1_656
Fe1 O1 2.067170 1_666
Fe1 O1 2.067170 1_556
