# generated using pymatgen
data_Li2MnVP2(O4F)2
_symmetry_space_group_name_H-M   'P 1'
_cell_length_a   6.91230200
_cell_length_b   7.42397916
_cell_length_c   7.98124446
_cell_angle_alpha   87.10317879
_cell_angle_beta   88.37071626
_cell_angle_gamma   62.85340842
_symmetry_Int_Tables_number   1
_chemical_formula_structural   Li2MnVP2(O4F)2
_chemical_formula_sum   'Li4 Mn2 V2 P4 O16 F4'
_cell_volume   363.98186392
_cell_formula_units_Z   2
loop_
 _symmetry_equiv_pos_site_id
 _symmetry_equiv_pos_as_xyz
  1  'x, y, z'
loop_
 _atom_site_type_symbol
 _atom_site_label
 _atom_site_symmetry_multiplicity
 _atom_site_fract_x
 _atom_site_fract_y
 _atom_site_fract_z
 _atom_site_occupancy
  Li  Li0  1  0.74406800  0.81228500  0.82592000  1
  Li  Li1  1  0.24622200  0.81175500  0.32545700  1
  Li  Li2  1  0.75377800  0.18824500  0.67454300  1
  Li  Li3  1  0.25593200  0.18771500  0.17408000  1
  Mn  Mn0  1  0.50000000  0.00000000  0.50000000  1
  Mn  Mn1  1  0.00000000  0.50000000  0.50000000  1
  V  V0  1  0.00000000  0.00000000  0.00000000  1
  V  V1  1  0.50000000  0.50000000  0.00000000  1
  P  P0  1  0.28187200  0.23871500  0.83738900  1
  P  P1  1  0.78117200  0.23558700  0.34025400  1
  P  P2  1  0.21882800  0.76441300  0.65974600  1
  P  P3  1  0.71812800  0.76128500  0.16261100  1
  O  O0  1  0.40779100  0.61249100  0.76717400  1
  O  O1  1  0.27806900  0.91847700  0.55884100  1
  O  O2  1  0.22123300  0.08719000  0.93951200  1
  O  O3  1  0.32895800  0.34561000  0.98214500  1
  O  O4  1  0.09224400  0.38852600  0.72811000  1
  O  O5  1  0.83791300  0.33843000  0.48256300  1
  O  O6  1  0.01043300  0.88810900  0.76780900  1
  O  O7  1  0.50828900  0.88362100  0.26775800  1
  O  O8  1  0.49171100  0.11637900  0.73224200  1
  O  O9  1  0.98956700  0.11189100  0.23219100  1
  O  O10  1  0.16208700  0.66157000  0.51743700  1
  O  O11  1  0.90775600  0.61147400  0.27189000  1
  O  O12  1  0.67104200  0.65439000  0.01785500  1
  O  O13  1  0.77876700  0.91281000  0.06048800  1
  O  O14  1  0.72193100  0.08152300  0.44115900  1
  O  O15  1  0.59220900  0.38750900  0.23282600  1
  F  F0  1  0.76579700  0.26213900  0.89967300  1
  F  F1  1  0.72972800  0.73703400  0.60941700  1
  F  F2  1  0.27027200  0.26296600  0.39058300  1
  F  F3  1  0.23420300  0.73786100  0.10032700  1
loop_
_geom_bond_atom_site_label_1
_geom_bond_atom_site_label_2
_geom_bond_distance
_geom_bond_site_symmetry_2
Li0 O12 2.071235 1_556
Li0 O13 2.109385 1_556
Li0 O6 2.189252 1_655
Li0 O8 2.237957 1_565
Li1 O10 2.073042 1_555
Li1 O1 2.116005 1_555
Li1 O7 2.141936 1_555
Li1 O9 2.228570 1_465
Li2 O5 2.073042 1_555
Li2 O14 2.116005 1_555
Li2 O8 2.141936 1_555
Li2 O6 2.228570 1_645
Li3 O3 2.071235 1_554
Li3 O2 2.109385 1_554
Li3 O9 2.189252 1_455
Li3 O7 2.237957 1_545
Mn0 O1 1.928137 1_545
Mn0 O14 1.928137 1_555
Mn0 O8 2.072725 1_555
Mn0 O7 2.072725 1_545
Mn1 O11 1.959141 1_455
Mn1 O4 1.959141 1_555
Mn1 O5 1.991365 1_455
Mn1 O10 1.991365 1_555
O0 P2 1.528043 1_555
O0 V1 1.995372 1_556
O1 P2 1.562055 1_555
O2 P0 1.556805 1_555
O2 V0 1.954565 1_556
O3 P0 1.555719 1_555
O3 V1 1.998643 1_556
O4 P0 1.533763 1_555
O5 P1 1.553404 1_555
O6 P2 1.569860 1_555
O6 V0 2.054946 1_566
O7 P3 1.561628 1_555
O8 P0 1.561628 1_555
O9 P1 1.569860 1_555
O9 V0 2.054946 1_655
O10 P2 1.553404 1_555
O11 P3 1.533763 1_555
O12 P3 1.555719 1_555
O12 V1 1.998643 1_555
O13 P3 1.556805 1_555
O13 V0 1.954565 1_665
O14 P1 1.562055 1_555
O15 P1 1.528043 1_555
O15 V1 1.995372 1_555
F0 Li2 1.919925 1_555
F0 V0 2.022510 1_656
F0 V1 2.057592 1_556
F1 Li0 1.861620 1_555
F1 Mn0 2.042817 1_565
F1 Mn1 2.100481 1_655
F2 Li3 1.861620 1_555
F2 Mn0 2.042817 1_555
F2 Mn1 2.100481 1_555
F3 Li1 1.919925 1_555
F3 V0 2.022510 1_565
F3 V1 2.057592 1_555
