# generated using pymatgen
data_Li3Mn2SnO6
_symmetry_space_group_name_H-M   'P 1'
_cell_length_a   3.07176617
_cell_length_b   13.65721904
_cell_length_c   6.09273132
_cell_angle_alpha   77.98259202
_cell_angle_beta   90.01786884
_cell_angle_gamma   90.00105513
_symmetry_Int_Tables_number   1
_chemical_formula_structural   Li3Mn2SnO6
_chemical_formula_sum   'Li6 Mn4 Sn2 O12'
_cell_volume   249.99928066
_cell_formula_units_Z   2
loop_
 _symmetry_equiv_pos_site_id
 _symmetry_equiv_pos_as_xyz
  1  'x, y, z'
loop_
 _atom_site_type_symbol
 _atom_site_label
 _atom_site_symmetry_multiplicity
 _atom_site_fract_x
 _atom_site_fract_y
 _atom_site_fract_z
 _atom_site_occupancy
  Li  Li0  1  0.99999400  0.66647400  0.16686200  1
  Li  Li1  1  0.49999500  0.16656900  0.16679800  1
  Li  Li2  1  0.00000100  0.99848100  0.49217400  1
  Li  Li3  1  0.50000400  0.49850000  0.49225500  1
  Li  Li4  1  0.99998500  0.33514000  0.84086300  1
  Li  Li5  1  0.49998600  0.83503800  0.84082300  1
  Mn  Mn0  1  0.49995800  0.49653900  0.01510100  1
  Mn  Mn1  1  0.50000600  0.83668000  0.31837500  1
  Mn  Mn2  1  0.00003000  0.99646600  0.01491100  1
  Mn  Mn3  1  0.00000300  0.33662700  0.31859200  1
  Sn  Sn0  1  0.00004700  0.66667700  0.66671800  1
  Sn  Sn1  1  0.49998700  0.16662400  0.66686700  1
  O  O0  1  0.00018000  0.50930400  0.76604500  1
  O  O1  1  0.50019700  0.00916800  0.76601200  1
  O  O2  1  0.99978300  0.82411800  0.56700700  1
  O  O3  1  0.49978700  0.32393700  0.56734900  1
  O  O4  1  0.00017600  0.83160300  0.09528500  1
  O  O5  1  0.50016600  0.33159000  0.09532100  1
  O  O6  1  0.99982600  0.50176900  0.23821900  1
  O  O7  1  0.49984800  0.00173800  0.23792200  1
  O  O8  1  0.99982400  0.16162300  0.43346900  1
  O  O9  1  0.49987500  0.66176500  0.43329000  1
  O  O10  1  0.00014800  0.17168200  0.89999000  1
  O  O11  1  0.50019500  0.67189000  0.89975500  1
loop_
_geom_bond_atom_site_label_1
_geom_bond_atom_site_label_2
_geom_bond_distance
_geom_bond_site_symmetry_2
Li0 O6 2.200371 1_555
Li0 O4 2.206033 1_655
Li0 O9 2.225297 1_655
Li0 O9 2.226498 1_555
Li0 O11 2.226948 1_554
Li0 O11 2.228498 1_654
Li1 O7 2.202082 1_555
Li1 O5 2.204595 1_555
Li1 O8 2.225862 1_555
Li1 O10 2.226227 1_554
Li1 O8 2.227284 1_455
Li1 O10 2.227573 1_654
Li2 O7 2.175284 1_465
Li2 O7 2.175301 1_565
Li2 O8 2.181824 1_465
Li2 O1 2.294565 1_465
Li2 O1 2.294671 1_565
Li2 O2 2.329467 1_455
Li3 O6 2.174295 1_555
Li3 O6 2.174386 1_455
Li3 O9 2.183406 1_555
Li3 O0 2.294734 1_555
Li3 O0 2.294758 1_655
Li3 O3 2.332121 1_555
Li4 O5 2.175621 1_556
Li4 O5 2.175725 1_656
Li4 O10 2.185960 1_655
Li4 O3 2.294625 1_655
Li4 O3 2.294740 1_555
Li4 O0 2.326801 1_655
Li5 O4 2.175818 1_556
Li5 O4 2.175960 1_656
Li5 O11 2.181838 1_555
Li5 O2 2.295138 1_555
Li5 O2 2.295272 1_455
Li5 O1 2.326346 1_565
Mn0 O6 2.061525 1_555
Mn0 O6 2.062762 1_455
Mn0 O0 2.139680 1_554
Mn0 O0 2.141333 1_654
Mn0 O5 2.203463 1_555
Mn0 O11 2.351203 1_554
Mn1 O4 2.060966 1_555
Mn1 O4 2.062377 1_655
Mn1 O2 2.138076 1_555
Mn1 O2 2.139733 1_455
Mn1 O7 2.204929 1_565
Mn1 O9 2.345281 1_555
Mn2 O7 2.061075 1_565
Mn2 O7 2.062541 1_465
Mn2 O1 2.139196 1_464
Mn2 O1 2.140607 1_564
Mn2 O4 2.202325 1_555
Mn2 O10 2.349216 1_564
Mn3 O5 2.061623 1_455
Mn3 O5 2.063003 1_555
Mn3 O3 2.138501 1_555
Mn3 O3 2.140128 1_455
Mn3 O6 2.206044 1_455
Mn3 O8 2.346424 1_455
O0 Sn0 2.108080 1_555
O1 Sn1 2.109085 1_555
O2 Sn0 2.109147 1_655
O3 Sn1 2.107381 1_555
O8 Sn1 2.103817 1_555
O8 Sn1 2.103899 1_655
O9 Sn0 2.103712 1_555
O9 Sn0 2.103834 1_655
O10 Sn1 2.102813 1_555
O10 Sn1 2.102886 1_455
O11 Sn0 2.102853 1_655
O11 Sn0 2.102868 1_555
