# generated using pymatgen
data_VOF2
_symmetry_space_group_name_H-M   'P 1'
_cell_length_a   5.17174500
_cell_length_b   5.19499897
_cell_length_c   9.35071710
_cell_angle_alpha   89.21604663
_cell_angle_beta   106.00113504
_cell_angle_gamma   119.18429098
_symmetry_Int_Tables_number   1
_chemical_formula_structural   VOF2
_chemical_formula_sum   'V4 O4 F8'
_cell_volume   208.64469722
_cell_formula_units_Z   4
loop_
 _symmetry_equiv_pos_site_id
 _symmetry_equiv_pos_as_xyz
  1  'x, y, z'
loop_
 _atom_site_type_symbol
 _atom_site_label
 _atom_site_symmetry_multiplicity
 _atom_site_fract_x
 _atom_site_fract_y
 _atom_site_fract_z
 _atom_site_occupancy
  V  V0  1  0.00000000  0.00000000  0.00000000  1
  V  V1  1  0.55407200  0.26605900  0.75030800  1
  V  V2  1  0.00000000  0.50000000  0.50000000  1
  V  V3  1  0.44592800  0.73394100  0.24969200  1
  O  O0  1  0.82655000  0.20893100  0.87077500  1
  O  O1  1  0.25551900  0.54859500  0.37227600  1
  O  O2  1  0.74448100  0.45140500  0.62772400  1
  O  O3  1  0.17345000  0.79106900  0.12922500  1
  F  F0  1  0.16574600  0.27734500  0.62746400  1
  F  F1  1  0.35846400  0.39060100  0.12876700  1
  F  F2  1  0.64507700  0.11650000  0.36976300  1
  F  F3  1  0.24934800  0.03267900  0.87005300  1
  F  F4  1  0.75065200  0.96732100  0.12994700  1
  F  F5  1  0.35492300  0.88350000  0.63023700  1
  F  F6  1  0.64153600  0.60939900  0.87123300  1
  F  F7  1  0.83425400  0.72265500  0.37253600  1
loop_
_geom_bond_atom_site_label_1
_geom_bond_atom_site_label_2
_geom_bond_distance
_geom_bond_site_symmetry_2
O0 V1 1.693031 1_555
O0 V0 1.938795 1_656
O1 V3 1.696504 1_555
O1 V2 1.942404 1_555
O2 V1 1.696504 1_555
O2 V2 1.942404 1_655
O3 V3 1.693031 1_555
O3 V0 1.938795 1_565
F0 V2 1.964504 1_555
F0 V1 2.048761 1_555
F1 V3 1.910745 1_555
F1 V0 2.042476 1_555
F2 V3 1.923122 1_545
F2 V2 2.022162 1_655
F3 V0 1.952687 1_556
F3 V1 2.068721 1_555
F4 V0 1.952687 1_665
F4 V3 2.068721 1_555
F5 V1 1.923122 1_565
F5 V2 2.022162 1_555
F6 V1 1.910745 1_555
F6 V0 2.042476 1_666
F7 V2 1.964504 1_655
F7 V3 2.048761 1_555
