# generated using pymatgen
data_Li6Fe3Sb(PO4)6
_symmetry_space_group_name_H-M   'P 1'
_cell_length_a   8.63900100
_cell_length_b   8.76982418
_cell_length_c   8.81254577
_cell_angle_alpha   60.84361262
_cell_angle_beta   60.99083367
_cell_angle_gamma   61.51053694
_symmetry_Int_Tables_number   1
_chemical_formula_structural   Li6Fe3Sb(PO4)6
_chemical_formula_sum   'Li6 Fe3 Sb1 P6 O24'
_cell_volume   483.92003522
_cell_formula_units_Z   1
loop_
 _symmetry_equiv_pos_site_id
 _symmetry_equiv_pos_as_xyz
  1  'x, y, z'
loop_
 _atom_site_type_symbol
 _atom_site_label
 _atom_site_symmetry_multiplicity
 _atom_site_fract_x
 _atom_site_fract_y
 _atom_site_fract_z
 _atom_site_occupancy
  Li  Li0  1  0.02915800  0.01535500  0.00738800  1
  Li  Li1  1  0.72969000  0.15566500  0.35184500  1
  Li  Li2  1  0.47195500  0.49759500  0.48839800  1
  Li  Li3  1  0.31071200  0.83916600  0.63832200  1
  Li  Li4  1  0.64333700  0.31257300  0.83566400  1
  Li  Li5  1  0.83606800  0.63838300  0.31296300  1
  Fe  Fe0  1  0.14678700  0.14932100  0.14056800  1
  Fe  Fe1  1  0.34927900  0.36080500  0.35325800  1
  Fe  Fe2  1  0.64746900  0.65348200  0.65342400  1
  Sb  Sb0  1  0.85405800  0.84997800  0.85162900  1
  P  P0  1  0.05258700  0.75196300  0.44070200  1
  P  P1  1  0.44433700  0.05060300  0.74860400  1
  P  P2  1  0.74870700  0.44463600  0.04990900  1
  P  P3  1  0.24700200  0.54295900  0.95428400  1
  P  P4  1  0.54833900  0.96018600  0.24555900  1
  P  P5  1  0.95275700  0.24230000  0.53657200  1
  O  O0  1  0.13097200  0.26026100  0.51051700  1
  O  O1  1  0.27715700  0.53294000  0.11398200  1
  O  O2  1  0.05506200  0.92490800  0.26541200  1
  O  O3  1  0.55788100  0.11132600  0.27713600  1
  O  O4  1  0.23870200  0.60155300  0.43290100  1
  O  O5  1  0.00083200  0.81026600  0.61090500  1
  O  O6  1  0.26186700  0.07883500  0.90928200  1
  O  O7  1  0.46637200  0.22497100  0.58147400  1
  O  O8  1  0.59755400  0.43348000  0.23983300  1
  O  O9  1  0.17321700  0.39372900  0.00058400  1
  O  O10  1  0.09638600  0.74744400  0.89916800  1
  O  O11  1  0.38501000  0.02216300  0.18359300  1
  O  O12  1  0.61110200  0.99225800  0.81797500  1
  O  O13  1  0.90934200  0.25967100  0.07267100  1
  O  O14  1  0.81159500  0.61030800  0.00239200  1
  O  O15  1  0.41444100  0.54887500  0.77143500  1
  O  O16  1  0.54835600  0.77769300  0.41158400  1
  O  O17  1  0.74939100  0.90100400  0.09135300  1
  O  O18  1  0.97137500  0.18392200  0.38924700  1
  O  O19  1  0.77623100  0.41280700  0.55382600  1
  O  O20  1  0.46553400  0.89651000  0.69650500  1
  O  O21  1  0.90337300  0.09178300  0.74307600  1
  O  O22  1  0.69069800  0.47378200  0.89677100  1
  O  O23  1  0.89530400  0.69353900  0.47029300  1
loop_
_geom_bond_atom_site_label_1
_geom_bond_atom_site_label_2
_geom_bond_distance
_geom_bond_site_symmetry_2
Li0 O6 2.002982 1_554
Li0 O2 2.101523 1_545
Li0 O13 2.121538 1_455
Li1 O8 2.075983 1_555
Li1 O3 2.129674 1_555
Li1 O13 2.180369 1_555
Li1 O7 2.248077 1_555
Li1 O18 2.402106 1_555
Li1 O2 2.564237 1_645
Li2 O4 1.974757 1_555
Li2 O7 2.133573 1_555
Li2 O8 2.145828 1_555
Li2 O15 2.519592 1_555
Li2 O16 2.533962 1_555
Li2 O19 2.642480 1_555
Li3 O20 1.965406 1_555
Li3 O16 2.124399 1_555
Li3 O15 2.143240 1_555
Li3 O10 2.202378 1_555
Li4 O22 1.990860 1_555
Li4 O19 2.080710 1_555
Li4 O15 2.135049 1_555
Li4 O21 2.252440 1_555
Li5 O23 1.998988 1_555
Li5 O16 2.113853 1_555
Li5 O19 2.122745 1_555
Li5 O17 2.251564 1_555
Fe0 O11 1.943746 1_555
Fe0 O9 1.945619 1_555
Fe0 O18 2.044361 1_455
Fe0 O6 2.049599 1_554
Fe0 O13 2.057850 1_455
Fe0 O2 2.060102 1_545
Fe1 O0 2.028713 1_555
Fe1 O1 2.094925 1_555
Fe1 O8 2.147022 1_555
Fe1 O4 2.175391 1_555
Fe1 O7 2.230759 1_555
Fe1 O3 2.231733 1_555
Fe2 O23 2.031206 1_555
Fe2 O22 2.035732 1_555
Fe2 O20 2.042283 1_555
Fe2 O15 2.185743 1_555
Fe2 O16 2.253855 1_555
Fe2 O19 2.254115 1_555
O0 P5 1.516952 1_455
O1 P3 1.506477 1_554
O2 P0 1.550183 1_555
O3 P4 1.525447 1_545
O4 P0 1.512516 1_555
O5 P0 1.609301 1_555
O5 Sb0 1.979662 1_455
O6 P1 1.534788 1_555
O7 P1 1.534632 1_555
O8 P2 1.535769 1_555
O9 P3 1.519480 1_554
O10 P3 1.638015 1_555
O10 Sb0 2.013559 1_455
O11 P4 1.520205 1_545
O12 P1 1.599155 1_565
O12 Sb0 1.948068 1_555
O13 P2 1.550070 1_555
O14 P2 1.587777 1_555
O14 Sb0 1.964541 1_554
O15 P3 1.555961 1_555
O16 P4 1.555766 1_555
O17 P4 1.634276 1_555
O17 Sb0 2.040403 1_554
O18 P5 1.529757 1_555
O19 P5 1.551104 1_555
O20 P1 1.535402 1_565
O21 P5 1.636997 1_555
O21 Sb0 2.020757 1_545
O22 P2 1.528187 1_556
O23 P0 1.538532 1_655
