# generated using pymatgen
data_BaLa2O4
_symmetry_space_group_name_H-M   'P 1'
_cell_length_a   7.41197912
_cell_length_b   7.41197912
_cell_length_c   7.43124712
_cell_angle_alpha   60.08572867
_cell_angle_beta   60.08571963
_cell_angle_gamma   90.00000000
_symmetry_Int_Tables_number   1
_chemical_formula_structural   BaLa2O4
_chemical_formula_sum   'Ba2 La4 O8'
_cell_volume   289.42540741
_cell_formula_units_Z   2
loop_
 _symmetry_equiv_pos_site_id
 _symmetry_equiv_pos_as_xyz
  1  'x, y, z'
loop_
 _atom_site_type_symbol
 _atom_site_label
 _atom_site_symmetry_multiplicity
 _atom_site_fract_x
 _atom_site_fract_y
 _atom_site_fract_z
 _atom_site_occupancy
  Ba  Ba0  1  0.37500000  0.12500000  0.75000000  1
  Ba  Ba1  1  0.62500000  0.87500000  0.25000000  1
  La  La0  1  -0.00000000  -0.00000000  0.50000000  1
  La  La1  1  -0.00000000  0.50000000  0.00000000  1
  La  La2  1  0.50000000  0.50000000  0.00000000  1
  La  La3  1  -0.00000000  0.50000000  0.50000000  1
  O  O0  1  0.23050931  0.26672321  0.03841919  1
  O  O1  1  0.80514340  0.26949069  0.46158081  1
  O  O2  1  0.23327679  0.26892950  0.46158081  1
  O  O3  1  0.76892950  0.30514340  0.96158081  1
  O  O4  1  0.23107050  0.69485660  0.03841919  1
  O  O5  1  0.76672321  0.73107050  0.53841919  1
  O  O6  1  0.19485660  0.73050931  0.53841919  1
  O  O7  1  0.76949069  0.73327679  0.96158081  1
loop_
_geom_bond_atom_site_label_1
_geom_bond_atom_site_label_2
_geom_bond_distance
_geom_bond_site_symmetry_2
Ba0 O0 2.607748 1_556
Ba0 O2 2.607748 1_555
Ba0 O1 2.607753 1_555
Ba0 O4 2.607754 1_546
Ba1 O7 2.607748 1_554
Ba1 O5 2.607748 1_555
Ba1 O6 2.607753 1_555
Ba1 O3 2.607754 1_564
La0 O7 2.446276 1_445
La0 O0 2.446276 1_555
La0 O2 2.446296 1_555
La0 O5 2.446296 1_445
La0 O6 2.449439 1_545
La0 O1 2.449439 1_455
La1 O6 2.446277 1_554
La1 O1 2.446277 1_455
La1 O0 2.446290 1_555
La1 O7 2.446290 1_454
La1 O3 2.449434 1_454
La1 O4 2.449434 1_555
La2 O5 2.446276 1_554
La2 O2 2.446276 1_555
La2 O4 2.446291 1_555
La2 O3 2.446291 1_554
La2 O7 2.449444 1_554
La2 O0 2.449444 1_555
La3 O4 2.446277 1_555
La3 O3 2.446277 1_455
La3 O6 2.446285 1_555
La3 O1 2.446285 1_455
La3 O5 2.449439 1_455
La3 O2 2.449439 1_555
