# generated using pymatgen
data_Li8MnFe7(BO3)8
_symmetry_space_group_name_H-M   'P 1'
_cell_length_a   5.22953500
_cell_length_b   9.05502357
_cell_length_c   10.39205364
_cell_angle_alpha   88.77532063
_cell_angle_beta   89.38510378
_cell_angle_gamma   89.90841554
_symmetry_Int_Tables_number   1
_chemical_formula_structural   Li8MnFe7(BO3)8
_chemical_formula_sum   'Li8 Mn1 Fe7 B8 O24'
_cell_volume   491.95955919
_cell_formula_units_Z   1
loop_
 _symmetry_equiv_pos_site_id
 _symmetry_equiv_pos_as_xyz
  1  'x, y, z'
loop_
 _atom_site_type_symbol
 _atom_site_label
 _atom_site_symmetry_multiplicity
 _atom_site_fract_x
 _atom_site_fract_y
 _atom_site_fract_z
 _atom_site_occupancy
  Li  Li0  1  0.15260900  0.17429400  0.66740200  1
  Li  Li1  1  0.18355100  0.16189100  0.16686000  1
  Li  Li2  1  0.31943300  0.33009900  0.41531600  1
  Li  Li3  1  0.33620400  0.32263300  0.91425600  1
  Li  Li4  1  0.65294700  0.67388600  0.66837800  1
  Li  Li5  1  0.68364400  0.66297800  0.16579000  1
  Li  Li6  1  0.82162900  0.83227600  0.41622900  1
  Li  Li7  1  0.83537300  0.82455300  0.91613300  1
  Mn  Mn0  1  0.32803800  0.66482600  0.38447100  1
  Fe  Fe0  1  0.18080100  0.49759500  0.13226100  1
  Fe  Fe1  1  0.15835100  0.84311500  0.63239000  1
  Fe  Fe2  1  0.33983800  0.99560200  0.88490000  1
  Fe  Fe3  1  0.66061600  0.34062500  0.63321900  1
  Fe  Fe4  1  0.68066300  0.00036600  0.13329500  1
  Fe  Fe5  1  0.82435500  0.16843300  0.38403700  1
  Fe  Fe6  1  0.83854400  0.49711800  0.88456000  1
  B  B0  1  0.16913000  0.83193900  0.12528700  1
  B  B1  1  0.16324800  0.50138400  0.62787900  1
  B  B2  1  0.33372300  0.99933600  0.37679000  1
  B  B3  1  0.32765500  0.66486400  0.87574900  1
  B  B4  1  0.67007800  0.33203100  0.12454800  1
  B  B5  1  0.66286900  0.00216500  0.62670800  1
  B  B6  1  0.83620000  0.49643900  0.37429300  1
  B  B7  1  0.82878200  0.16555600  0.87513300  1
  O  O0  1  0.09601200  0.48035100  0.34370700  1
  O  O1  1  0.08964300  0.17146600  0.86157400  1
  O  O2  1  0.17794800  0.78999200  0.84768500  1
  O  O3  1  0.19324100  0.87639600  0.41975500  1
  O  O4  1  0.21419400  0.13400000  0.36096900  1
  O  O5  1  0.21175500  0.53232800  0.91567600  1
  O  O6  1  0.27934000  0.36469000  0.61422800  1
  O  O7  1  0.29083900  0.96597300  0.09667600  1
  O  O8  1  0.30324800  0.62984300  0.59901000  1
  O  O9  1  0.31120500  0.70843600  0.16410400  1
  O  O10  1  0.40670100  0.31973900  0.11195900  1
  O  O11  1  0.40826400  0.01302800  0.66548200  1
  O  O12  1  0.59531600  0.98459000  0.34701800  1
  O  O13  1  0.59054700  0.67176500  0.86235700  1
  O  O14  1  0.67774300  0.28993300  0.84579100  1
  O  O15  1  0.69421400  0.37382200  0.41624300  1
  O  O16  1  0.72140600  0.63367200  0.36188100  1
  O  O17  1  0.71108000  0.03352000  0.91683700  1
  O  O18  1  0.78871800  0.46713300  0.09602000  1
  O  O19  1  0.77705000  0.86405900  0.61546200  1
  O  O20  1  0.80604000  0.12885900  0.59633500  1
  O  O21  1  0.81377200  0.20959100  0.16388300  1
  O  O22  1  0.90554700  0.82134000  0.11357000  1
  O  O23  1  0.90729200  0.51086500  0.66549400  1
loop_
_geom_bond_atom_site_label_1
_geom_bond_atom_site_label_2
_geom_bond_distance
_geom_bond_site_symmetry_2
Li0 O6 1.916237 1_555
Li0 O11 1.978551 1_555
Li0 O20 2.010862 1_455
Li0 O1 2.040672 1_555
Li1 O10 1.920016 1_555
Li1 O21 1.981170 1_455
Li1 O7 2.009310 1_545
Li1 O4 2.035572 1_555
Li2 O0 1.933978 1_555
Li2 O4 1.956417 1_555
Li2 O15 2.000304 1_555
Li2 O6 2.105505 1_555
Li3 O14 1.940117 1_555
Li3 O1 1.971998 1_555
Li3 O5 2.006546 1_555
Li3 O10 2.090852 1_556
Li4 O19 1.909028 1_555
Li4 O23 1.985922 1_555
Li4 O8 2.016433 1_555
Li4 O13 2.038311 1_555
Li5 O22 1.912054 1_555
Li5 O9 1.990244 1_555
Li5 O18 2.003950 1_555
Li5 O16 2.060910 1_555
Li6 O12 1.947016 1_555
Li6 O16 1.969919 1_555
Li6 O3 1.985504 1_655
Li6 O19 2.106844 1_555
Li7 O2 1.947763 1_655
Li7 O13 1.979818 1_555
Li7 O17 1.999882 1_565
Li7 O22 2.087793 1_556
Mn0 O3 2.078873 1_555
Mn0 O16 2.087365 1_555
Mn0 O0 2.118926 1_555
Mn0 O8 2.247568 1_555
Mn0 O9 2.318113 1_555
Fe0 O10 2.009198 1_555
Fe0 O9 2.062888 1_555
Fe0 O18 2.108302 1_455
Fe0 O0 2.239200 1_555
Fe0 O5 2.270052 1_554
Fe1 O19 2.011952 1_455
Fe1 O11 2.057232 1_565
Fe1 O8 2.107674 1_555
Fe1 O3 2.229350 1_555
Fe1 O2 2.281758 1_555
Fe2 O17 2.004494 1_565
Fe2 O1 2.071287 1_565
Fe2 O2 2.091763 1_555
Fe2 O7 2.223507 1_556
Fe2 O11 2.306417 1_565
Fe3 O6 2.016748 1_555
Fe3 O23 2.047107 1_555
Fe3 O20 2.103036 1_555
Fe3 O14 2.249319 1_555
Fe3 O15 2.273360 1_555
Fe4 O22 2.013935 1_545
Fe4 O21 2.051725 1_555
Fe4 O7 2.102720 1_545
Fe4 O12 2.262280 1_545
Fe4 O17 2.266943 1_554
Fe5 O15 2.012893 1_555
Fe5 O4 2.074020 1_655
Fe5 O12 2.097026 1_545
Fe5 O20 2.228617 1_555
Fe5 O21 2.311370 1_555
Fe6 O5 2.008822 1_655
Fe6 O13 2.054363 1_555
Fe6 O14 2.105636 1_555
Fe6 O18 2.221051 1_556
Fe6 O23 2.301711 1_555
B0 O22 1.388738 1_455
B0 O7 1.396251 1_555
B0 O9 1.396384 1_555
B1 O6 1.387093 1_555
B1 O23 1.393439 1_455
B1 O8 1.400768 1_555
B2 O4 1.376902 1_565
B2 O3 1.397381 1_555
B2 O12 1.406094 1_555
B3 O13 1.381721 1_555
B3 O5 1.398372 1_555
B3 O2 1.403459 1_555
B4 O10 1.389801 1_555
B4 O21 1.394827 1_555
B4 O18 1.397280 1_555
B5 O11 1.390899 1_555
B5 O19 1.391563 1_545
B5 O20 1.399467 1_555
B6 O16 1.383337 1_555
B6 O15 1.396119 1_555
B6 O0 1.400137 1_655
B7 O1 1.370947 1_655
B7 O17 1.403785 1_555
B7 O14 1.404606 1_555
