# generated using pymatgen
data_MnPO4
_symmetry_space_group_name_H-M   'P 1'
_cell_length_a   9.16656600
_cell_length_b   9.22763200
_cell_length_c   9.58989700
_cell_angle_alpha   90.00000000
_cell_angle_beta   90.00000000
_cell_angle_gamma   90.00000000
_symmetry_Int_Tables_number   1
_chemical_formula_structural   MnPO4
_chemical_formula_sum   'Mn8 P8 O32'
_cell_volume   811.16812911
_cell_formula_units_Z   8
loop_
 _symmetry_equiv_pos_site_id
 _symmetry_equiv_pos_as_xyz
  1  'x, y, z'
loop_
 _atom_site_type_symbol
 _atom_site_label
 _atom_site_symmetry_multiplicity
 _atom_site_fract_x
 _atom_site_fract_y
 _atom_site_fract_z
 _atom_site_occupancy
  Mn  Mn0  1  0.60351500  0.06581500  0.21853000  1
  Mn  Mn1  1  0.10351500  0.06581500  0.28147000  1
  Mn  Mn2  1  0.10351500  0.43418500  0.78147000  1
  Mn  Mn3  1  0.60351500  0.43418500  0.71853000  1
  Mn  Mn4  1  0.39648500  0.56581500  0.28147000  1
  Mn  Mn5  1  0.89648500  0.56581500  0.21853000  1
  Mn  Mn6  1  0.89648500  0.93418500  0.71853000  1
  Mn  Mn7  1  0.39648500  0.93418500  0.78147000  1
  P  P0  1  0.18207700  0.12845600  0.60799700  1
  P  P1  1  0.68207700  0.12845600  0.89200300  1
  P  P2  1  0.18207700  0.37154400  0.10799700  1
  P  P3  1  0.68207700  0.37154400  0.39200300  1
  P  P4  1  0.31792300  0.62845600  0.60799700  1
  P  P5  1  0.81792300  0.62845600  0.89200300  1
  P  P6  1  0.31792300  0.87154400  0.10799700  1
  P  P7  1  0.81792300  0.87154400  0.39200300  1
  O  O0  1  0.42083500  0.99534300  0.15400500  1
  O  O1  1  0.92083500  0.99534300  0.34599500  1
  O  O2  1  0.33390900  0.09993400  0.67233600  1
  O  O3  1  0.83390900  0.09993400  0.82766400  1
  O  O4  1  0.19690900  0.13216300  0.44757000  1
  O  O5  1  0.69690900  0.13216300  0.05243000  1
  O  O6  1  0.12547800  0.22288700  0.15534600  1
  O  O7  1  0.62547800  0.22288700  0.34465400  1
  O  O8  1  0.12547800  0.27711300  0.65534600  1
  O  O9  1  0.62547800  0.27711300  0.84465400  1
  O  O10  1  0.19690900  0.36783700  0.94757000  1
  O  O11  1  0.69690900  0.36783700  0.55243000  1
  O  O12  1  0.33390900  0.40006600  0.17233600  1
  O  O13  1  0.83390900  0.40006600  0.32766400  1
  O  O14  1  0.42083500  0.50465700  0.65400500  1
  O  O15  1  0.92083500  0.50465700  0.84599500  1
  O  O16  1  0.07916500  0.49534300  0.15400500  1
  O  O17  1  0.57916500  0.49534300  0.34599500  1
  O  O18  1  0.16609100  0.59993400  0.67233600  1
  O  O19  1  0.66609100  0.59993400  0.82766400  1
  O  O20  1  0.30309100  0.63216300  0.44757000  1
  O  O21  1  0.80309100  0.63216300  0.05243000  1
  O  O22  1  0.37452200  0.72288700  0.15534600  1
  O  O23  1  0.87452200  0.72288700  0.34465400  1
  O  O24  1  0.37452200  0.77711300  0.65534600  1
  O  O25  1  0.87452200  0.77711300  0.84465400  1
  O  O26  1  0.30309100  0.86783700  0.94757000  1
  O  O27  1  0.80309100  0.86783700  0.55243000  1
  O  O28  1  0.16609100  0.90006600  0.17233600  1
  O  O29  1  0.66609100  0.90006600  0.32766400  1
  O  O30  1  0.07916500  0.00465700  0.65400500  1
  O  O31  1  0.57916500  0.00465700  0.84599500  1
loop_
_geom_bond_atom_site_label_1
_geom_bond_atom_site_label_2
_geom_bond_distance
_geom_bond_site_symmetry_2
Mn0 O7 1.898481 1_555
Mn0 O0 1.899970 1_545
Mn0 O5 1.909192 1_555
Mn0 O29 1.940011 1_545
Mn1 O6 1.898481 1_555
Mn1 O1 1.899970 1_445
Mn1 O4 1.909192 1_555
Mn1 O28 1.940011 1_545
Mn2 O8 1.898481 1_555
Mn2 O15 1.899970 1_455
Mn2 O10 1.909192 1_555
Mn2 O18 1.940011 1_555
Mn3 O9 1.898481 1_555
Mn3 O14 1.899970 1_555
Mn3 O11 1.909192 1_555
Mn3 O19 1.940011 1_555
Mn4 O22 1.898481 1_555
Mn4 O17 1.899970 1_555
Mn4 O20 1.909192 1_555
Mn4 O12 1.940011 1_555
Mn5 O23 1.898481 1_555
Mn5 O16 1.899970 1_655
Mn5 O21 1.909192 1_555
Mn5 O13 1.940011 1_555
Mn6 O25 1.898481 1_555
Mn6 O30 1.899970 1_665
Mn6 O27 1.909192 1_555
Mn6 O3 1.940011 1_565
Mn7 O24 1.898481 1_555
Mn7 O31 1.899970 1_565
Mn7 O26 1.909192 1_555
Mn7 O2 1.940011 1_565
O0 P6 1.545830 1_555
O1 P7 1.545830 1_555
O2 P0 1.544995 1_555
O3 P1 1.544995 1_555
O4 P0 1.544853 1_555
O5 P1 1.544853 1_554
O6 P2 1.535271 1_555
O7 P3 1.535271 1_555
O8 P0 1.535271 1_555
O9 P1 1.535271 1_555
O10 P2 1.544853 1_556
O11 P3 1.544853 1_555
O12 P2 1.544995 1_555
O13 P3 1.544995 1_555
O14 P4 1.545830 1_555
O15 P5 1.545830 1_555
O16 P2 1.545830 1_555
O17 P3 1.545830 1_555
O18 P4 1.544995 1_555
O19 P5 1.544995 1_555
O20 P4 1.544853 1_555
O21 P5 1.544853 1_554
O22 P6 1.535271 1_555
O23 P7 1.535271 1_555
O24 P4 1.535271 1_555
O25 P5 1.535271 1_555
O26 P6 1.544853 1_556
O27 P7 1.544853 1_555
O28 P6 1.544995 1_555
O29 P7 1.544995 1_555
O30 P0 1.545830 1_555
O31 P1 1.545830 1_555
