# generated using pymatgen
data_Fe2OF3
_symmetry_space_group_name_H-M   'P 1'
_cell_length_a   4.83951627
_cell_length_b   4.83951627
_cell_length_c   12.44821500
_cell_angle_alpha   90.00000000
_cell_angle_beta   90.00000000
_cell_angle_gamma   91.94272711
_symmetry_Int_Tables_number   1
_chemical_formula_structural   Fe2OF3
_chemical_formula_sum   'Fe8 O4 F12'
_cell_volume   291.38104128
_cell_formula_units_Z   4
loop_
 _symmetry_equiv_pos_site_id
 _symmetry_equiv_pos_as_xyz
  1  'x, y, z'
loop_
 _atom_site_type_symbol
 _atom_site_label
 _atom_site_symmetry_multiplicity
 _atom_site_fract_x
 _atom_site_fract_y
 _atom_site_fract_z
 _atom_site_occupancy
  Fe  Fe0  1  0.97838500  0.97838500  0.62497400  1
  Fe  Fe1  1  0.97838500  0.97838500  0.87502600  1
  Fe  Fe2  1  0.02161500  0.02161500  0.12497400  1
  Fe  Fe3  1  0.02161500  0.02161500  0.37502600  1
  Fe  Fe4  1  0.47542000  0.47542000  0.25000000  1
  Fe  Fe5  1  0.52458000  0.52458000  0.75000000  1
  Fe  Fe6  1  0.50000000  0.50000000  0.50000000  1
  Fe  Fe7  1  0.50000000  0.50000000  0.00000000  1
  O  O0  1  0.31994900  0.31994900  0.12171100  1
  O  O1  1  0.31994900  0.31994900  0.37828900  1
  O  O2  1  0.68005100  0.68005100  0.62171100  1
  O  O3  1  0.68005100  0.68005100  0.87828900  1
  F  F0  1  0.78545200  0.20366600  0.75000000  1
  F  F1  1  0.79202600  0.20797400  0.00000000  1
  F  F2  1  0.79633400  0.21454800  0.25000000  1
  F  F3  1  0.79202600  0.20797400  0.50000000  1
  F  F4  1  0.29485300  0.29485300  0.62749600  1
  F  F5  1  0.29485300  0.29485300  0.87250400  1
  F  F6  1  0.70514700  0.70514700  0.12749600  1
  F  F7  1  0.70514700  0.70514700  0.37250400  1
  F  F8  1  0.20797400  0.79202600  0.00000000  1
  F  F9  1  0.21454800  0.79633400  0.25000000  1
  F  F10  1  0.20366600  0.78545200  0.75000000  1
  F  F11  1  0.20797400  0.79202600  0.50000000  1
loop_
_geom_bond_atom_site_label_1
_geom_bond_atom_site_label_2
_geom_bond_distance
_geom_bond_site_symmetry_2
Fe0 O2 2.007334 1_555
Fe1 O3 2.007334 1_555
Fe2 O0 2.007334 1_555
Fe3 O1 2.007334 1_555
Fe4 O0 1.908966 1_555
Fe4 O1 1.908966 1_555
Fe5 O2 1.908966 1_555
Fe5 O3 1.908966 1_555
Fe6 O2 1.939726 1_555
Fe6 O1 1.939726 1_555
Fe7 O3 1.939726 1_554
Fe7 O0 1.939726 1_555
F0 Fe5 2.034417 1_555
F0 Fe1 2.133470 1_545
F0 Fe0 2.133470 1_545
F1 Fe7 2.032253 1_555
F1 Fe2 2.129812 1_655
F1 Fe1 2.129812 1_544
F2 Fe4 2.034417 1_555
F2 Fe2 2.133470 1_655
F2 Fe3 2.133470 1_655
F3 Fe6 2.032253 1_555
F3 Fe3 2.129812 1_655
F3 Fe0 2.129812 1_545
F4 Fe6 2.103188 1_555
F4 Fe0 2.129143 1_445
F4 Fe5 2.171115 1_555
F5 Fe7 2.103188 1_556
F5 Fe1 2.129143 1_445
F5 Fe5 2.171115 1_555
F6 Fe7 2.103188 1_555
F6 Fe2 2.129143 1_665
F6 Fe4 2.171115 1_555
F7 Fe6 2.103188 1_555
F7 Fe3 2.129143 1_665
F7 Fe4 2.171115 1_555
F8 Fe7 2.032253 1_555
F8 Fe2 2.129812 1_565
F8 Fe1 2.129812 1_454
F9 Fe4 2.034417 1_555
F9 Fe2 2.133470 1_565
F9 Fe3 2.133470 1_565
F10 Fe5 2.034417 1_555
F10 Fe0 2.133470 1_455
F10 Fe1 2.133470 1_455
F11 Fe6 2.032253 1_555
F11 Fe3 2.129812 1_565
F11 Fe0 2.129812 1_455
