# generated using pymatgen
data_K3H3Pd
_symmetry_space_group_name_H-M   'P 1'
_cell_length_a   10.90940800
_cell_length_b   10.90940800
_cell_length_c   10.37252500
_cell_angle_alpha   90.00000000
_cell_angle_beta   90.00000000
_cell_angle_gamma   90.00000000
_symmetry_Int_Tables_number   1
_chemical_formula_structural   K3H3Pd
_chemical_formula_sum   'K24 H24 Pd8'
_cell_volume   1234.48796012
_cell_formula_units_Z   8
loop_
 _symmetry_equiv_pos_site_id
 _symmetry_equiv_pos_as_xyz
  1  'x, y, z'
loop_
 _atom_site_type_symbol
 _atom_site_label
 _atom_site_symmetry_multiplicity
 _atom_site_fract_x
 _atom_site_fract_y
 _atom_site_fract_z
 _atom_site_occupancy
  K  K0  1  0.20580100  0.79419900  0.50000000  1
  K  K1  1  0.79419900  0.20580100  0.50000000  1
  K  K2  1  0.29419900  0.29419900  0.00000000  1
  K  K3  1  0.70580100  0.70580100  0.00000000  1
  K  K4  1  0.79939300  0.79939300  0.50000000  1
  K  K5  1  0.20060700  0.20060700  0.50000000  1
  K  K6  1  0.70060700  0.29939300  0.00000000  1
  K  K7  1  0.29939300  0.70060700  0.00000000  1
  K  K8  1  0.24910100  0.50352200  0.29221800  1
  K  K9  1  0.75089900  0.49647800  0.29221800  1
  K  K10  1  0.25089900  0.00352200  0.79221800  1
  K  K11  1  0.74910100  0.99647800  0.79221800  1
  K  K12  1  0.75089900  0.49647800  0.70778200  1
  K  K13  1  0.24910100  0.50352200  0.70778200  1
  K  K14  1  0.74910100  0.99647800  0.20778200  1
  K  K15  1  0.25089900  0.00352200  0.20778200  1
  K  K16  1  0.50352200  0.24910100  0.29221800  1
  K  K17  1  0.49647800  0.75089900  0.29221800  1
  K  K18  1  0.00352200  0.25089900  0.79221800  1
  K  K19  1  0.99647800  0.74910100  0.79221800  1
  K  K20  1  0.49647800  0.75089900  0.70778200  1
  K  K21  1  0.50352200  0.24910100  0.70778200  1
  K  K22  1  0.99647800  0.74910100  0.20778200  1
  K  K23  1  0.00352200  0.25089900  0.20778200  1
  H  H0  1  0.24643400  0.75356600  0.24424900  1
  H  H1  1  0.75356600  0.24643400  0.24424900  1
  H  H2  1  0.25356600  0.25356600  0.74424900  1
  H  H3  1  0.74643400  0.74643400  0.74424900  1
  H  H4  1  0.75356600  0.24643400  0.75575100  1
  H  H5  1  0.24643400  0.75356600  0.75575100  1
  H  H6  1  0.74643400  0.74643400  0.25575100  1
  H  H7  1  0.25356600  0.25356600  0.25575100  1
  H  H8  1  0.39070300  0.60929700  0.50000000  1
  H  H9  1  0.60929700  0.39070300  0.50000000  1
  H  H10  1  0.10929700  0.10929700  0.00000000  1
  H  H11  1  0.89070300  0.89070300  0.00000000  1
  H  H12  1  0.50000000  0.50000000  0.16293600  1
  H  H13  1  0.00000000  0.00000000  0.66293600  1
  H  H14  1  0.50000000  0.50000000  0.83706400  1
  H  H15  1  0.00000000  0.00000000  0.33706400  1
  H  H16  1  0.00045300  0.34626900  0.50000000  1
  H  H17  1  0.99954700  0.65373100  0.50000000  1
  H  H18  1  0.49954700  0.84626900  0.00000000  1
  H  H19  1  0.50045300  0.15373100  0.00000000  1
  H  H20  1  0.34626900  0.00045300  0.50000000  1
  H  H21  1  0.65373100  0.99954700  0.50000000  1
  H  H22  1  0.84626900  0.49954700  0.00000000  1
  H  H23  1  0.15373100  0.50045300  0.00000000  1
  Pd  Pd0  1  0.50000000  0.50000000  0.50000000  1
  Pd  Pd1  1  0.00000000  0.00000000  0.00000000  1
  Pd  Pd2  1  0.50000000  0.50000000  0.00000000  1
  Pd  Pd3  1  0.00000000  0.00000000  0.50000000  1
  Pd  Pd4  1  0.00000000  0.50000000  0.50000000  1
  Pd  Pd5  1  0.50000000  0.00000000  0.00000000  1
  Pd  Pd6  1  0.50000000  0.00000000  0.50000000  1
  Pd  Pd7  1  0.00000000  0.50000000  0.00000000  1
loop_
_geom_bond_atom_site_label_1
_geom_bond_atom_site_label_2
_geom_bond_distance
_geom_bond_site_symmetry_2
K0 Pd3 3.175146 1_565
K1 Pd3 3.175146 1_655
K2 Pd2 3.175146 1_555
K3 Pd2 3.175146 1_555
K4 Pd3 3.095011 1_665
K5 Pd3 3.095011 1_555
K6 Pd2 3.095011 1_555
K7 Pd2 3.095011 1_555
K8 Pd4 3.468647 1_555
K9 Pd4 3.468647 1_655
K10 Pd5 3.468647 1_556
K11 Pd5 3.468647 1_566
K12 Pd4 3.468647 1_655
K13 Pd4 3.468647 1_555
K14 Pd5 3.468647 1_565
K15 Pd5 3.468647 1_555
K16 Pd6 3.468647 1_555
K17 Pd6 3.468647 1_565
K18 Pd7 3.468647 1_556
K19 Pd7 3.468647 1_656
K20 Pd6 3.468647 1_565
K21 Pd6 3.468647 1_555
K22 Pd7 3.468647 1_655
K23 Pd7 3.468647 1_555
H0 K7 2.661975 1_555
H0 K0 2.725850 1_555
H0 K22 2.753412 1_455
H0 K15 2.753412 1_565
H0 K8 2.772991 1_555
H0 K17 2.772991 1_555
H1 K6 2.661975 1_555
H1 K1 2.725850 1_555
H1 K14 2.753412 1_545
H1 K23 2.753412 1_655
H1 K16 2.772991 1_555
H1 K9 2.772991 1_555
H2 K5 2.661975 1_555
H2 K2 2.725850 1_556
H2 K13 2.753412 1_555
H2 K21 2.753412 1_555
H2 K18 2.772991 1_555
H2 K10 2.772991 1_555
H3 K4 2.661975 1_555
H3 K3 2.725850 1_556
H3 K12 2.753412 1_555
H3 K20 2.753412 1_555
H3 K19 2.772991 1_555
H3 K11 2.772991 1_555
H4 K6 2.661975 1_556
H4 K1 2.725850 1_555
H4 K11 2.753412 1_545
H4 K18 2.753412 1_655
H4 K21 2.772991 1_555
H4 K12 2.772991 1_555
H5 K7 2.661975 1_556
H5 K0 2.725850 1_555
H5 K19 2.753412 1_455
H5 K10 2.753412 1_565
H5 K13 2.772991 1_555
H5 K20 2.772991 1_555
H6 K4 2.661975 1_555
H6 K3 2.725850 1_555
H6 K9 2.753412 1_555
H6 K17 2.753412 1_555
H6 K22 2.772991 1_555
H6 K14 2.772991 1_555
H7 K5 2.661975 1_555
H7 K2 2.725850 1_555
H7 K16 2.753412 1_555
H7 K8 2.753412 1_555
H7 K15 2.772991 1_555
H7 K23 2.772991 1_555
H8 Pd0 1.686260 1_555
H8 K0 2.852711 1_555
H8 K17 2.891879 1_555
H8 K8 2.891879 1_555
H8 K20 2.891879 1_555
H8 K13 2.891879 1_555
H9 Pd0 1.686260 1_555
H9 K1 2.852711 1_555
H9 K12 2.891879 1_555
H9 K21 2.891879 1_555
H9 K9 2.891879 1_555
H9 K16 2.891879 1_555
H10 Pd1 1.686260 1_555
H10 K2 2.852711 1_555
H10 K10 2.891879 1_554
H10 K23 2.891879 1_555
H10 K15 2.891879 1_555
H10 K18 2.891879 1_554
H11 Pd1 1.686260 1_665
H11 K3 2.852711 1_555
H11 K11 2.891879 1_554
H11 K14 2.891879 1_555
H11 K19 2.891879 1_554
H11 K22 2.891879 1_555
H12 Pd2 1.690058 1_555
H12 K16 3.048237 1_555
H12 K17 3.048237 1_555
H12 K8 3.048237 1_555
H12 K9 3.048237 1_555
H13 Pd3 1.690058 1_555
H13 K11 3.048237 1_445
H13 K19 3.048237 1_445
H13 K10 3.048237 1_555
H13 K18 3.048237 1_555
H14 Pd2 1.690058 1_556
H14 K13 3.048237 1_555
H14 K20 3.048237 1_555
H14 K12 3.048237 1_555
H14 K21 3.048237 1_555
H15 Pd3 1.690058 1_555
H15 K23 3.048237 1_555
H15 K14 3.048237 1_445
H15 K15 3.048237 1_555
H15 K22 3.048237 1_445
H16 Pd4 1.677121 1_555
H16 K5 2.700581 1_555
H16 K1 2.722372 1_455
H17 Pd4 1.677121 1_655
H17 K4 2.700581 1_555
H17 K0 2.722372 1_655
H18 Pd5 1.677121 1_565
H18 K7 2.700581 1_555
H18 K3 2.722372 1_555
H19 Pd5 1.677121 1_555
H19 K6 2.700581 1_555
H19 K2 2.722372 1_555
H20 Pd6 1.677121 1_555
H20 K5 2.700581 1_555
H20 K0 2.722372 1_545
H21 Pd6 1.677121 1_565
H21 K4 2.700581 1_555
H21 K1 2.722372 1_565
H22 Pd7 1.677121 1_655
H22 K6 2.700581 1_555
H22 K3 2.722372 1_555
H23 Pd7 1.677121 1_555
H23 K7 2.700581 1_555
H23 K2 2.722372 1_555
