# generated using pymatgen
data_Li4Fe3CoO8
_symmetry_space_group_name_H-M   'P 1'
_cell_length_a   5.09634400
_cell_length_b   5.59536083
_cell_length_c   6.49713955
_cell_angle_alpha   90.25012630
_cell_angle_beta   90.15667173
_cell_angle_gamma   90.25595670
_symmetry_Int_Tables_number   1
_chemical_formula_structural   Li4Fe3CoO8
_chemical_formula_sum   'Li4 Fe3 Co1 O8'
_cell_volume   185.26735845
_cell_formula_units_Z   1
loop_
 _symmetry_equiv_pos_site_id
 _symmetry_equiv_pos_as_xyz
  1  'x, y, z'
loop_
 _atom_site_type_symbol
 _atom_site_label
 _atom_site_symmetry_multiplicity
 _atom_site_fract_x
 _atom_site_fract_y
 _atom_site_fract_z
 _atom_site_occupancy
  Li  Li0  1  0.99376900  0.08124100  0.62463800  1
  Li  Li1  1  0.49667700  0.41720700  0.12438400  1
  Li  Li2  1  0.99566200  0.58414300  0.87680600  1
  Li  Li3  1  0.49536800  0.91745900  0.37504500  1
  Fe  Fe0  1  0.99421800  0.08225700  0.12354400  1
  Fe  Fe1  1  0.49980400  0.41781100  0.62832000  1
  Fe  Fe2  1  0.99817500  0.58402600  0.37361200  1
  Co  Co0  1  0.49555000  0.91563700  0.87217600  1
  O  O0  1  0.37146600  0.07327000  0.11097300  1
  O  O1  1  0.39004300  0.09039200  0.63985700  1
  O  O2  1  0.89084400  0.41018700  0.13400900  1
  O  O3  1  0.87564600  0.42642900  0.61559500  1
  O  O4  1  0.37462500  0.57259500  0.38622800  1
  O  O5  1  0.39574900  0.59331800  0.86917700  1
  O  O6  1  0.89085600  0.91027000  0.36413300  1
  O  O7  1  0.86794600  0.92375900  0.88150300  1
loop_
_geom_bond_atom_site_label_1
_geom_bond_atom_site_label_2
_geom_bond_distance
_geom_bond_site_symmetry_2
Li0 O7 1.996616 1_545
Li0 O6 2.007849 1_545
Li0 O1 2.022107 1_655
Li0 O3 2.026707 1_555
Li1 O5 1.999767 1_554
Li1 O4 2.008673 1_555
Li1 O2 2.010177 1_555
Li1 O0 2.026218 1_555
Li2 O3 2.002376 1_555
Li2 O2 2.009905 1_556
Li2 O7 2.011536 1_555
Li2 O5 2.040141 1_655
Li3 O6 2.017558 1_555
Li3 O4 2.024425 1_555
Li3 O0 2.028427 1_565
Li3 O1 2.044447 1_565
Fe0 O7 1.910710 1_544
Fe0 O2 1.912256 1_555
Fe0 O6 1.913133 1_545
Fe0 O0 1.925415 1_655
Fe1 O4 1.908518 1_555
Fe1 O1 1.914973 1_555
Fe1 O3 1.917830 1_555
Fe1 O5 1.920994 1_555
Fe2 O6 1.909169 1_555
Fe2 O2 1.909483 1_555
Fe2 O3 1.910992 1_555
Fe2 O4 1.921407 1_655
Co0 O5 1.871656 1_555
Co0 O1 1.880614 1_565
Co0 O0 1.892985 1_566
Co0 O7 1.898994 1_555
