# generated using pymatgen
data_Li3VSiCO7
_symmetry_space_group_name_H-M   'P 1'
_cell_length_a   6.48682902
_cell_length_b   10.12094134
_cell_length_c   8.39574445
_cell_angle_alpha   85.21155712
_cell_angle_beta   90.00066453
_cell_angle_gamma   89.99006966
_symmetry_Int_Tables_number   1
_chemical_formula_structural   Li3VSiCO7
_chemical_formula_sum   'Li12 V4 Si4 C4 O28'
_cell_volume   549.28039875
_cell_formula_units_Z   4
loop_
 _symmetry_equiv_pos_site_id
 _symmetry_equiv_pos_as_xyz
  1  'x, y, z'
loop_
 _atom_site_type_symbol
 _atom_site_label
 _atom_site_symmetry_multiplicity
 _atom_site_fract_x
 _atom_site_fract_y
 _atom_site_fract_z
 _atom_site_occupancy
  Li  Li0  1  0.25000200  0.38756000  0.10871700  1
  Li  Li1  1  0.24996000  0.88707800  0.10870400  1
  Li  Li2  1  0.75002500  0.11292400  0.89120500  1
  Li  Li3  1  0.74991100  0.61327300  0.89113500  1
  Li  Li4  1  0.03617800  0.12224000  0.29186700  1
  Li  Li5  1  0.03671200  0.62173100  0.29207300  1
  Li  Li6  1  0.46334900  0.12201200  0.29212600  1
  Li  Li7  1  0.46340300  0.62173600  0.29203700  1
  Li  Li8  1  0.53631800  0.37747300  0.70785100  1
  Li  Li9  1  0.53641000  0.87757100  0.70795200  1
  Li  Li10  1  0.96362100  0.37753200  0.70777900  1
  Li  Li11  1  0.96358400  0.87753700  0.70798200  1
  V  V0  1  0.74998700  0.90324700  0.31990500  1
  V  V1  1  0.25006400  0.59660500  0.68007700  1
  V  V2  1  0.75000200  0.40336400  0.31980400  1
  V  V3  1  0.24990200  0.09668300  0.68033000  1
  Si  Si0  1  0.25005900  0.35701200  0.42048700  1
  Si  Si1  1  0.24999700  0.85707400  0.42048500  1
  Si  Si2  1  0.74993800  0.14290400  0.57957100  1
  Si  Si3  1  0.75007100  0.64259200  0.57962800  1
  C  C0  1  0.75014200  0.35022800  0.02961900  1
  C  C1  1  0.74996600  0.84996000  0.02989400  1
  C  C2  1  0.25000200  0.15034800  0.97018800  1
  C  C3  1  0.24998500  0.65017000  0.97011900  1
  O  O0  1  0.25015400  0.18340900  0.11484300  1
  O  O1  1  0.24998400  0.68297900  0.11490800  1
  O  O2  1  0.74995100  0.31667500  0.88516200  1
  O  O3  1  0.74994100  0.81705100  0.88510700  1
  O  O4  1  0.74969900  0.47307000  0.06464400  1
  O  O5  1  0.74995100  0.97273700  0.06546700  1
  O  O6  1  0.24995600  0.02753400  0.93476300  1
  O  O7  1  0.24999600  0.52741000  0.93441200  1
  O  O8  1  0.75078600  0.26028800  0.15120900  1
  O  O9  1  0.75001800  0.75982300  0.15104900  1
  O  O10  1  0.24989200  0.24037100  0.84885100  1
  O  O11  1  0.24998700  0.74035700  0.84904200  1
  O  O12  1  0.24981700  0.19377300  0.44931300  1
  O  O13  1  0.24998700  0.69387900  0.44958500  1
  O  O14  1  0.75004900  0.30611500  0.55098300  1
  O  O15  1  0.75001600  0.80578800  0.55037200  1
  O  O16  1  0.74985200  0.08172400  0.40522200  1
  O  O17  1  0.75000900  0.58114000  0.40545300  1
  O  O18  1  0.25007400  0.41842400  0.59473200  1
  O  O19  1  0.25000300  0.91814400  0.59484200  1
  O  O20  1  0.05597800  0.41049500  0.30475500  1
  O  O21  1  0.05578300  0.91006100  0.30475000  1
  O  O22  1  0.44438000  0.41019600  0.30481400  1
  O  O23  1  0.44420300  0.91000200  0.30475200  1
  O  O24  1  0.55569500  0.09004300  0.69532500  1
  O  O25  1  0.55582400  0.58987000  0.69538500  1
  O  O26  1  0.94416000  0.08994100  0.69531500  1
  O  O27  1  0.94426500  0.58984700  0.69540800  1
loop_
_geom_bond_atom_site_label_1
_geom_bond_atom_site_label_2
_geom_bond_distance
_geom_bond_site_symmetry_2
Li0 O7 1.949147 1_554
Li0 O0 2.062544 1_555
Li0 O20 2.100149 1_555
Li0 O22 2.101413 1_555
Li1 O6 1.951120 1_564
Li1 O1 2.061979 1_555
Li1 O21 2.100882 1_555
Li1 O23 2.101073 1_555
Li2 O5 1.951163 1_546
Li2 O2 2.058538 1_555
Li2 O26 2.099681 1_555
Li2 O24 2.100217 1_555
Li3 O4 1.946921 1_556
Li3 O3 2.058818 1_555
Li3 O25 2.099342 1_555
Li3 O27 2.100243 1_555
Li4 O12 2.086178 1_555
Li4 O0 2.089389 1_555
Li4 O16 2.111581 1_455
Li4 O21 2.144888 1_545
Li4 O8 2.549029 1_455
Li5 O1 2.087362 1_555
Li5 O13 2.087477 1_555
Li5 O17 2.113942 1_455
Li5 O20 2.135300 1_555
Li5 O9 2.556676 1_455
Li6 O12 2.085055 1_555
Li6 O0 2.087906 1_555
Li6 O16 2.111143 1_555
Li6 O23 2.143125 1_545
Li6 O8 2.561128 1_555
Li7 O1 2.087609 1_555
Li7 O13 2.088116 1_555
Li7 O17 2.113383 1_555
Li7 O22 2.138292 1_555
Li7 O9 2.556524 1_555
Li8 O14 2.082508 1_555
Li8 O2 2.088517 1_555
Li8 O18 2.110802 1_555
Li8 O25 2.147213 1_555
Li8 O10 2.550622 1_555
Li9 O3 2.086517 1_555
Li9 O15 2.087648 1_555
Li9 O19 2.111096 1_555
Li9 O24 2.147839 1_565
Li9 O11 2.551497 1_555
Li10 O14 2.081807 1_555
Li10 O2 2.089397 1_555
Li10 O18 2.111784 1_655
Li10 O27 2.146313 1_555
Li10 O10 2.550074 1_655
Li11 O3 2.086909 1_555
Li11 O15 2.087660 1_555
Li11 O19 2.111472 1_655
Li11 O26 2.147150 1_565
Li11 O11 2.550752 1_655
C0 O2 1.286478 1_554
C0 O4 1.301251 1_555
C0 O8 1.309806 1_555
C1 O3 1.286935 1_554
C1 O5 1.302022 1_555
C1 O9 1.308427 1_555
C2 O0 1.286385 1_556
C2 O6 1.302003 1_555
C2 O10 1.308798 1_555
C3 O1 1.286610 1_556
C3 O7 1.302202 1_555
C3 O11 1.308277 1_555
O4 V2 2.198787 1_555
O5 V0 2.192519 1_555
O6 V3 2.191656 1_555
O7 V1 2.190987 1_555
O8 V2 2.107772 1_555
O9 V0 2.111981 1_555
O10 V3 2.111921 1_555
O11 V1 2.115116 1_555
O12 Si0 1.649655 1_555
O12 V3 2.099829 1_555
O13 Si1 1.649360 1_555
O13 V1 2.096661 1_555
O14 Si2 1.649249 1_555
O14 V2 2.101661 1_555
O15 Si3 1.649455 1_555
O15 V0 2.097211 1_555
O16 Si2 1.636280 1_555
O16 V0 1.998005 1_545
O17 Si3 1.636177 1_555
O17 V2 1.992595 1_555
O18 Si0 1.636537 1_555
O18 V1 1.995309 1_555
O19 Si1 1.635838 1_555
O19 V3 1.999215 1_565
O20 Si0 1.653497 1_555
O20 V2 1.989772 1_455
O21 Si1 1.652779 1_555
O21 V0 1.988564 1_455
O22 Si0 1.653725 1_555
O22 V2 1.987332 1_555
O23 Si1 1.652724 1_555
O23 V0 1.988441 1_555
O24 Si2 1.652820 1_555
O24 V3 1.988385 1_555
O25 Si3 1.652468 1_555
O25 V1 1.988360 1_555
O26 Si2 1.652794 1_555
O26 V3 1.988106 1_655
O27 Si3 1.652219 1_555
O27 V1 1.988658 1_655
