# generated using pymatgen
data_Na2CrO4
_symmetry_space_group_name_H-M   'P 1'
_cell_length_a   9.71780863
_cell_length_b   9.71780863
_cell_length_c   9.71780917
_cell_angle_alpha   107.55987964
_cell_angle_beta   107.55987964
_cell_angle_gamma   107.55988068
_symmetry_Int_Tables_number   1
_chemical_formula_structural   Na2CrO4
_chemical_formula_sum   'Na12 Cr6 O24'
_cell_volume   752.29904096
_cell_formula_units_Z   6
loop_
 _symmetry_equiv_pos_site_id
 _symmetry_equiv_pos_as_xyz
  1  'x, y, z'
loop_
 _atom_site_type_symbol
 _atom_site_label
 _atom_site_symmetry_multiplicity
 _atom_site_fract_x
 _atom_site_fract_y
 _atom_site_fract_z
 _atom_site_occupancy
  Na  Na0  1  0.94074000  0.11227100  0.70576900  1
  Na  Na1  1  0.88772900  0.29423100  0.05926000  1
  Na  Na2  1  0.77470200  0.37765500  0.60396600  1
  Na  Na3  1  0.29423100  0.05926000  0.88772900  1
  Na  Na4  1  0.62234500  0.39603500  0.22529800  1
  Na  Na5  1  0.39603400  0.22529800  0.62234500  1
  Na  Na6  1  0.60396500  0.77470200  0.37765500  1
  Na  Na7  1  0.37765500  0.60396600  0.77470200  1
  Na  Na8  1  0.70576900  0.94074000  0.11227100  1
  Na  Na9  1  0.22529800  0.62234500  0.39603400  1
  Na  Na10  1  0.11227100  0.70576900  0.94074000  1
  Na  Na11  1  0.05926000  0.88772900  0.29423100  1
  Cr  Cr0  1  0.44747200  0.03989700  0.26543400  1
  Cr  Cr1  1  0.96010300  0.73456600  0.55252800  1
  Cr  Cr2  1  0.73456600  0.55252800  0.96010300  1
  Cr  Cr3  1  0.26543400  0.44747200  0.03989700  1
  Cr  Cr4  1  0.03989700  0.26543400  0.44747200  1
  Cr  Cr5  1  0.55252800  0.96010300  0.73456600  1
  O  O0  1  0.91373600  0.19927900  0.25635000  1
  O  O1  1  0.93877800  0.26072500  0.55834700  1
  O  O2  1  0.74365000  0.08626400  0.80072100  1
  O  O3  1  0.44165300  0.06122200  0.73927500  1
  O  O4  1  0.51574700  0.17756200  0.45117300  1
  O  O5  1  0.85348400  0.53695600  0.86905400  1
  O  O6  1  0.46304400  0.13094600  0.14651600  1
  O  O7  1  0.73927500  0.44165300  0.06122200  1
  O  O8  1  0.82243800  0.54882700  0.48425300  1
  O  O9  1  0.54882700  0.48425300  0.82243800  1
  O  O10  1  0.80072100  0.74365000  0.08626400  1
  O  O11  1  0.13094600  0.14651600  0.46304400  1
  O  O12  1  0.86905400  0.85348400  0.53695600  1
  O  O13  1  0.19927900  0.25635000  0.91373600  1
  O  O14  1  0.45117300  0.51574700  0.17756200  1
  O  O15  1  0.17756200  0.45117300  0.51574700  1
  O  O16  1  0.26072500  0.55834700  0.93877800  1
  O  O17  1  0.53695600  0.86905400  0.85348400  1
  O  O18  1  0.14651600  0.46304400  0.13094600  1
  O  O19  1  0.48425300  0.82243800  0.54882700  1
  O  O20  1  0.55834700  0.93877800  0.26072500  1
  O  O21  1  0.25635000  0.91373600  0.19927900  1
  O  O22  1  0.06122200  0.73927500  0.44165300  1
  O  O23  1  0.08626400  0.80072100  0.74365000  1
loop_
_geom_bond_atom_site_label_1
_geom_bond_atom_site_label_2
_geom_bond_distance
_geom_bond_site_symmetry_2
Na0 O12 2.294527 1_545
Na0 O1 2.319742 1_555
Na0 O13 2.337345 1_655
Na0 O2 2.344915 1_555
Na1 O18 2.294526 1_655
Na1 O7 2.319742 1_555
Na1 O2 2.337345 1_554
Na1 O0 2.344915 1_555
Na2 O1 2.290374 1_555
Na2 O5 2.303749 1_555
Na2 O8 2.315863 1_555
Na2 O4 2.317096 1_555
Na3 O6 2.294527 1_556
Na3 O3 2.319742 1_555
Na3 O23 2.337345 1_545
Na3 O13 2.344915 1_555
Na4 O7 2.290372 1_555
Na4 O6 2.303757 1_555
Na4 O14 2.315855 1_555
Na4 O8 2.317096 1_555
Na5 O3 2.290374 1_555
Na5 O11 2.303749 1_555
Na5 O4 2.315863 1_555
Na5 O9 2.317096 1_555
Na6 O20 2.290372 1_555
Na6 O12 2.303757 1_555
Na6 O19 2.315855 1_555
Na6 O14 2.317095 1_555
Na7 O16 2.290374 1_555
Na7 O17 2.303749 1_555
Na7 O9 2.315863 1_555
Na7 O15 2.317096 1_555
Na8 O17 2.294527 1_554
Na8 O20 2.319742 1_555
Na8 O0 2.337345 1_565
Na8 O10 2.344915 1_555
Na9 O22 2.290374 1_555
Na9 O18 2.303749 1_555
Na9 O15 2.315863 1_555
Na9 O19 2.317096 1_555
Na10 O5 2.294526 1_455
Na10 O16 2.319742 1_555
Na10 O21 2.337345 1_556
Na10 O23 2.344915 1_555
Na11 O11 2.294527 1_565
Na11 O22 2.319742 1_555
Na11 O10 2.337345 1_455
Na11 O21 2.344915 1_555
Cr0 O20 1.664367 1_545
Cr0 O4 1.665117 1_555
Cr0 O6 1.668213 1_555
Cr0 O21 1.672083 1_545
Cr1 O22 1.664367 1_655
Cr1 O8 1.665117 1_555
Cr1 O12 1.668213 1_555
Cr1 O23 1.672083 1_655
Cr2 O7 1.664367 1_556
Cr2 O9 1.665117 1_555
Cr2 O5 1.668213 1_555
Cr2 O10 1.672083 1_556
Cr3 O16 1.664367 1_554
Cr3 O14 1.665117 1_555
Cr3 O18 1.668213 1_555
Cr3 O13 1.672083 1_554
Cr4 O1 1.664367 1_455
Cr4 O15 1.665117 1_555
Cr4 O11 1.668213 1_555
Cr4 O0 1.672083 1_455
Cr5 O3 1.664367 1_565
Cr5 O19 1.665117 1_555
Cr5 O17 1.668213 1_555
Cr5 O2 1.672083 1_565
