# generated using pymatgen
data_Li8Mn3V(PO4)6
_symmetry_space_group_name_H-M   'P 1'
_cell_length_a   8.41823600
_cell_length_b   8.47486421
_cell_length_c   9.28255826
_cell_angle_alpha   91.14458314
_cell_angle_beta   116.15480698
_cell_angle_gamma   119.35912317
_symmetry_Int_Tables_number   1
_chemical_formula_structural   Li8Mn3V(PO4)6
_chemical_formula_sum   'Li8 Mn3 V1 P6 O24'
_cell_volume   493.93661891
_cell_formula_units_Z   1
loop_
 _symmetry_equiv_pos_site_id
 _symmetry_equiv_pos_as_xyz
  1  'x, y, z'
loop_
 _atom_site_type_symbol
 _atom_site_label
 _atom_site_symmetry_multiplicity
 _atom_site_fract_x
 _atom_site_fract_y
 _atom_site_fract_z
 _atom_site_occupancy
  Li  Li0  1  0.19669000  0.26518700  0.86480800  1
  Li  Li1  1  0.63636100  0.94384600  0.90407100  1
  Li  Li2  1  0.92790000  0.66090500  0.85345800  1
  Li  Li3  1  0.32949200  0.79690500  0.59052700  1
  Li  Li4  1  0.66960300  0.20224900  0.40821700  1
  Li  Li5  1  0.07270900  0.33976100  0.14770300  1
  Li  Li6  1  0.36602600  0.05593200  0.09819200  1
  Li  Li7  1  0.80307100  0.73427000  0.13249400  1
  Mn  Mn0  1  0.28435400  0.14818100  0.43765600  1
  Mn  Mn1  1  0.71162400  0.84998700  0.56182400  1
  Mn  Mn2  1  0.68891400  0.35039500  0.03137800  1
  V  V0  1  0.31108200  0.64905600  0.96683500  1
  P  P0  1  0.21453900  0.94852100  0.75448700  1
  P  P1  1  0.49474800  0.55076900  0.75196700  1
  P  P2  1  0.80838400  0.25646800  0.76218100  1
  P  P3  1  0.19140800  0.74558600  0.23787700  1
  P  P4  1  0.50627500  0.45142800  0.24415500  1
  P  P5  1  0.78364300  0.04767300  0.24791700  1
  O  O0  1  0.36009000  0.14845800  0.89540500  1
  O  O1  1  0.34058900  0.50539600  0.82018900  1
  O  O2  1  0.31854000  0.83221400  0.81762400  1
  O  O3  1  0.69672000  0.56536600  0.89646500  1
  O  O4  1  0.74564600  0.21314700  0.90355300  1
  O  O5  1  0.56795700  0.75074500  0.72636500  1
  O  O6  1  0.20725400  0.96678100  0.58907600  1
  O  O7  1  0.38194600  0.39752100  0.59110900  1
  O  O8  1  0.98639000  0.47088500  0.82244000  1
  O  O9  1  0.89206600  0.13252100  0.75602000  1
  O  O10  1  0.61799200  0.20857500  0.59258900  1
  O  O11  1  0.99956300  0.85260500  0.74410200  1
  O  O12  1  0.99705300  0.14525900  0.25391100  1
  O  O13  1  0.38257100  0.79288500  0.40752800  1
  O  O14  1  0.10677400  0.86752600  0.24676400  1
  O  O15  1  0.01438700  0.52900700  0.17779700  1
  O  O16  1  0.62135300  0.60593000  0.40444100  1
  O  O17  1  0.80013700  0.02934900  0.41654200  1
  O  O18  1  0.42456700  0.25126900  0.26716300  1
  O  O19  1  0.25537100  0.78892200  0.09927200  1
  O  O20  1  0.30743600  0.44542900  0.09961600  1
  O  O21  1  0.67680100  0.16050700  0.18932600  1
  O  O22  1  0.66418300  0.49482700  0.17978200  1
  O  O23  1  0.63779100  0.84775800  0.10717500  1
loop_
_geom_bond_atom_site_label_1
_geom_bond_atom_site_label_2
_geom_bond_distance
_geom_bond_site_symmetry_2
Li0 O9 1.924700 1_455
Li0 O1 1.959872 1_555
Li0 O0 1.988100 1_555
Li0 O20 2.152296 1_556
Li1 O5 1.965068 1_555
Li1 O4 2.000179 1_565
Li1 O23 2.066076 1_556
Li1 O2 2.071753 1_555
Li2 O11 1.917946 1_555
Li2 O3 1.937808 1_555
Li2 O8 1.950048 1_555
Li2 O19 2.325095 1_656
Li3 O13 1.941178 1_555
Li3 O5 2.081120 1_555
Li3 O6 2.138452 1_555
Li3 O2 2.171422 1_555
Li4 O10 1.948176 1_555
Li4 O21 2.087618 1_555
Li4 O18 2.150102 1_555
Li4 O17 2.206611 1_555
Li5 O12 1.919320 1_455
Li5 O15 1.940750 1_555
Li5 O20 1.991015 1_555
Li5 O4 2.318002 1_454
Li6 O18 1.964276 1_555
Li6 O19 1.982580 1_545
Li6 O21 2.022587 1_555
Li6 O0 2.043333 1_554
Li7 O14 1.914973 1_655
Li7 O22 1.959364 1_555
Li7 O23 1.987242 1_555
Li7 O3 2.130637 1_554
Mn0 O7 2.077262 1_555
Mn0 O6 2.161588 1_545
Mn0 O14 2.245378 1_545
Mn0 O12 2.249909 1_455
Mn0 O10 2.284454 1_555
Mn0 O18 2.313452 1_555
Mn1 O16 2.085460 1_555
Mn1 O17 2.131118 1_565
Mn1 O11 2.251425 1_555
Mn1 O13 2.262498 1_555
Mn1 O9 2.266560 1_565
Mn1 O5 2.277130 1_555
Mn2 O22 1.968419 1_555
Mn2 O4 1.994506 1_554
Mn2 O15 2.052724 1_655
Mn2 O0 2.091101 1_554
Mn2 O21 2.194299 1_555
Mn2 O3 2.222187 1_554
O0 P0 1.595668 1_545
O1 P1 1.574158 1_555
O1 V0 1.981271 1_555
O2 P0 1.580662 1_555
O2 V0 2.097325 1_555
O3 P1 1.575390 1_555
O4 P2 1.604984 1_555
O5 P1 1.558710 1_555
O6 P0 1.523503 1_555
O7 P1 1.510379 1_555
O8 P2 1.552672 1_555
O8 V0 2.046933 1_655
O9 P2 1.536768 1_555
O10 P2 1.524478 1_555
O11 P0 1.531577 1_655
O12 P5 1.538747 1_555
O13 P3 1.529192 1_555
O14 P3 1.533873 1_555
O15 P3 1.563670 1_555
O16 P4 1.508095 1_555
O17 P5 1.527324 1_555
O18 P4 1.547936 1_555
O19 P3 1.586159 1_555
O19 V0 2.032605 1_554
O20 P4 1.593265 1_555
O20 V0 2.136489 1_554
O21 P5 1.565906 1_555
O22 P4 1.577666 1_555
O23 P5 1.594506 1_565
O23 V0 2.075892 1_554
