# generated using pymatgen
data_Li8Mn7Nb(PO4)12
_symmetry_space_group_name_H-M   'P 1'
_cell_length_a   8.56229500
_cell_length_b   8.78615605
_cell_length_c   12.26730095
_cell_angle_alpha   90.06534199
_cell_angle_beta   90.46961642
_cell_angle_gamma   90.90212654
_symmetry_Int_Tables_number   1
_chemical_formula_structural   Li8Mn7Nb(PO4)12
_chemical_formula_sum   'Li8 Mn7 Nb1 P12 O48'
_cell_volume   922.71875084
_cell_formula_units_Z   1
loop_
 _symmetry_equiv_pos_site_id
 _symmetry_equiv_pos_as_xyz
  1  'x, y, z'
loop_
 _atom_site_type_symbol
 _atom_site_label
 _atom_site_symmetry_multiplicity
 _atom_site_fract_x
 _atom_site_fract_y
 _atom_site_fract_z
 _atom_site_occupancy
  Li  Li0  1  0.21770800  0.72203400  0.18147400  1
  Li  Li1  1  0.21955000  0.78097800  0.81882400  1
  Li  Li2  1  0.27876100  0.22290100  0.31654500  1
  Li  Li3  1  0.27970400  0.27570200  0.68398600  1
  Li  Li4  1  0.71929700  0.72757300  0.31481900  1
  Li  Li5  1  0.72173800  0.78491700  0.68303300  1
  Li  Li6  1  0.77944200  0.22223400  0.18255500  1
  Li  Li7  1  0.78369400  0.27624100  0.82724000  1
  Mn  Mn0  1  0.25024700  0.96258800  0.61234800  1
  Mn  Mn1  1  0.25090700  0.53841500  0.38693900  1
  Mn  Mn2  1  0.25147500  0.03813800  0.11261700  1
  Mn  Mn3  1  0.25170100  0.46290500  0.88893300  1
  Mn  Mn4  1  0.74884800  0.53916500  0.11280600  1
  Mn  Mn5  1  0.74971100  0.96377300  0.88890700  1
  Mn  Mn6  1  0.74796600  0.03571400  0.38606500  1
  Nb  Nb0  1  0.75312500  0.46040600  0.61407900  1
  P  P0  1  0.04049100  0.24380300  0.49549800  1
  P  P1  1  0.46479400  0.75055300  0.00112700  1
  P  P2  1  0.53391300  0.25432400  0.00109900  1
  P  P3  1  0.97075700  0.75029500  0.49679600  1
  P  P4  1  0.10504500  0.39484500  0.14251700  1
  P  P5  1  0.10601000  0.10467800  0.85743300  1
  P  P6  1  0.39074100  0.60606600  0.65109900  1
  P  P7  1  0.39501600  0.89735300  0.35080400  1
  P  P8  1  0.60263500  0.09847400  0.64699900  1
  P  P9  1  0.60026000  0.39648600  0.35082500  1
  P  P10  1  0.90037200  0.60598000  0.85317000  1
  P  P11  1  0.89467000  0.89664600  0.14465400  1
  O  O0  1  0.06411000  0.63966900  0.42806400  1
  O  O1  1  0.06244700  0.85629800  0.57363300  1
  O  O2  1  0.07770600  0.89735600  0.15529900  1
  O  O3  1  0.08105400  0.60149900  0.84019000  1
  O  O4  1  0.14131700  0.16544600  0.58161600  1
  O  O5  1  0.14232900  0.33428900  0.41625000  1
  O  O6  1  0.15267800  0.43408400  0.02489800  1
  O  O7  1  0.15505600  0.06458600  0.97424900  1
  O  O8  1  0.15882600  0.23149000  0.17624500  1
  O  O9  1  0.16009600  0.26913300  0.82374300  1
  O  O10  1  0.17743600  0.51389200  0.21990300  1
  O  O11  1  0.17396900  0.98771100  0.77900500  1
  O  O12  1  0.32468800  0.01744300  0.27018000  1
  O  O13  1  0.32503700  0.48312200  0.73112000  1
  O  O14  1  0.34170100  0.76663700  0.68370000  1
  O  O15  1  0.34185300  0.73540300  0.31796800  1
  O  O16  1  0.34412000  0.55885600  0.53681200  1
  O  O17  1  0.34422000  0.94260600  0.46430500  1
  O  O18  1  0.35591700  0.83862300  0.08055400  1
  O  O19  1  0.35422400  0.66088700  0.92017300  1
  O  O20  1  0.42185900  0.10128000  0.65752200  1
  O  O21  1  0.41941300  0.39898700  0.34605900  1
  O  O22  1  0.43909200  0.14477000  0.07425500  1
  O  O23  1  0.43857100  0.36008300  0.92611000  1
  O  O24  1  0.55802600  0.64389400  0.07386800  1
  O  O25  1  0.55849500  0.85753100  0.92722300  1
  O  O26  1  0.57567200  0.60128000  0.65953400  1
  O  O27  1  0.57724100  0.89955800  0.34172500  1
  O  O28  1  0.63946000  0.34272400  0.08404700  1
  O  O29  1  0.63958200  0.17082300  0.92139800  1
  O  O30  1  0.65435500  0.06122900  0.53290700  1
  O  O31  1  0.65129200  0.42903300  0.47416600  1
  O  O32  1  0.65358200  0.23768700  0.31929700  1
  O  O33  1  0.65839600  0.26574800  0.67889300  1
  O  O34  1  0.67424200  0.52188400  0.28310100  1
  O  O35  1  0.67451100  0.98605100  0.72882000  1
  O  O36  1  0.82546400  0.01435600  0.22323100  1
  O  O37  1  0.83149200  0.48064500  0.77061300  1
  O  O38  1  0.84189100  0.73290200  0.17749800  1
  O  O39  1  0.84565300  0.76181700  0.81500900  1
  O  O40  1  0.84736800  0.56101300  0.96494100  1
  O  O41  1  0.84703000  0.93543600  0.02818100  1
  O  O42  1  0.86027600  0.65664400  0.57856800  1
  O  O43  1  0.85694700  0.83016100  0.42094800  1
  O  O44  1  0.92386400  0.10474900  0.84735100  1
  O  O45  1  0.92392800  0.39533200  0.15269000  1
  O  O46  1  0.93833800  0.13703500  0.42675200  1
  O  O47  1  0.93659300  0.35513100  0.56419900  1
loop_
_geom_bond_atom_site_label_1
_geom_bond_atom_site_label_2
_geom_bond_distance
_geom_bond_site_symmetry_2
Li0 O10 1.915804 1_555
Li0 O15 1.978332 1_555
Li0 O2 1.991455 1_555
Li0 O18 1.992776 1_555
Li1 O11 1.926502 1_555
Li1 O14 1.972187 1_555
Li1 O3 1.977065 1_555
Li1 O19 2.001635 1_555
Li2 O12 1.939205 1_555
Li2 O5 1.968531 1_555
Li2 O21 1.976845 1_555
Li2 O8 1.999053 1_555
Li3 O13 1.943672 1_555
Li3 O4 1.963714 1_555
Li3 O20 1.999884 1_555
Li3 O9 2.004646 1_555
Li4 O34 1.881549 1_555
Li4 O43 1.958377 1_555
Li4 O27 1.983707 1_555
Li4 O38 1.992332 1_555
Li5 O35 1.904191 1_555
Li5 O39 1.940981 1_555
Li5 O26 2.044505 1_555
Li5 O42 2.093619 1_555
Li6 O36 1.939510 1_555
Li6 O45 1.981718 1_555
Li6 O32 2.006824 1_555
Li6 O28 2.009158 1_555
Li7 O29 1.924696 1_555
Li7 O44 1.955643 1_555
Li7 O37 1.964626 1_555
Li7 O33 2.106114 1_555
Mn0 O1 1.903296 1_555
Mn0 O20 1.969734 1_565
Mn0 O17 2.001023 1_555
Mn0 O4 2.058373 1_565
Mn0 O14 2.092385 1_555
Mn0 O11 2.163419 1_555
Mn1 O0 1.913396 1_555
Mn1 O21 1.974838 1_555
Mn1 O16 2.005030 1_555
Mn1 O5 2.040739 1_555
Mn1 O15 2.071112 1_555
Mn1 O10 2.148137 1_555
Mn2 O7 1.897552 1_554
Mn2 O22 1.909410 1_555
Mn2 O2 1.993534 1_545
Mn2 O18 2.020117 1_545
Mn2 O12 2.036309 1_555
Mn2 O8 2.043064 1_555
Mn3 O6 1.892710 1_556
Mn3 O23 1.902302 1_555
Mn3 O19 1.971852 1_555
Mn3 O3 2.004649 1_555
Mn3 O9 2.024312 1_555
Mn3 O13 2.047169 1_555
Mn4 O24 1.944213 1_555
Mn4 O28 1.980641 1_555
Mn4 O40 2.014811 1_554
Mn4 O38 2.026281 1_555
Mn4 O45 2.032910 1_555
Mn4 O34 2.194273 1_555
Mn5 O41 1.912989 1_556
Mn5 O25 1.933481 1_555
Mn5 O44 1.993330 1_565
Mn5 O35 2.072117 1_555
Mn5 O29 2.101416 1_565
Mn5 O39 2.167862 1_555
Mn6 O46 1.907496 1_555
Mn6 O27 1.947880 1_545
Mn6 O30 1.991478 1_555
Mn6 O43 2.088980 1_545
Mn6 O36 2.119071 1_555
Mn6 O32 2.123834 1_555
Nb0 O31 1.936215 1_555
Nb0 O47 1.938540 1_555
Nb0 O42 1.990663 1_555
Nb0 O37 2.035575 1_555
Nb0 O33 2.045765 1_555
Nb0 O26 2.055008 1_555
O0 P3 1.525844 1_455
O1 P3 1.528097 1_455
O2 P11 1.571486 1_455
O3 P10 1.557632 1_455
O4 P0 1.529949 1_555
O5 P0 1.526864 1_555
O6 P4 1.540591 1_555
O7 P5 1.532945 1_555
O8 P4 1.569160 1_555
O9 P5 1.567326 1_555
O10 P4 1.532030 1_555
O11 P5 1.531707 1_565
O12 P7 1.570582 1_545
O13 P6 1.561823 1_555
O14 P6 1.531905 1_555
O15 P7 1.539301 1_555
O16 P6 1.510388 1_555
O17 P7 1.516575 1_555
O18 P1 1.566231 1_555
O19 P1 1.569236 1_556
O20 P8 1.554865 1_555
O21 P9 1.549592 1_555
O22 P2 1.542841 1_555
O23 P2 1.545842 1_556
O24 P1 1.524959 1_555
O25 P1 1.529440 1_556
O26 P6 1.587186 1_555
O27 P7 1.564962 1_555
O28 P2 1.554477 1_555
O29 P2 1.531845 1_556
O30 P8 1.508561 1_555
O31 P9 1.595712 1_555
O32 P9 1.525263 1_555
O33 P8 1.585738 1_555
O34 P9 1.514631 1_555
O35 P8 1.540508 1_565
O36 P11 1.541519 1_545
O37 P10 1.597930 1_555
O38 P11 1.555697 1_555
O39 P10 1.526911 1_555
O40 P10 1.499281 1_555
O41 P11 1.523146 1_555
O42 P3 1.603463 1_555
O43 P3 1.521809 1_555
O44 P5 1.563483 1_655
O45 P4 1.556882 1_655
O46 P0 1.522006 1_655
O47 P0 1.579952 1_655
