# generated using pymatgen
data_Li5MnP2(O4F)2
_symmetry_space_group_name_H-M   'P 1'
_cell_length_a   9.99408792
_cell_length_b   9.99408792
_cell_length_c   6.56721700
_cell_angle_alpha   90.00000000
_cell_angle_beta   90.00000000
_cell_angle_gamma   119.99999945
_symmetry_Int_Tables_number   1
_chemical_formula_structural   Li5MnP2(O4F)2
_chemical_formula_sum   'Li15 Mn3 P6 O24 F6'
_cell_volume   568.06539249
_cell_formula_units_Z   3
loop_
 _symmetry_equiv_pos_site_id
 _symmetry_equiv_pos_as_xyz
  1  'x, y, z'
loop_
 _atom_site_type_symbol
 _atom_site_label
 _atom_site_symmetry_multiplicity
 _atom_site_fract_x
 _atom_site_fract_y
 _atom_site_fract_z
 _atom_site_occupancy
  Li  Li0  1  0.49959700  0.50052000  0.50184300  1
  Li  Li1  1  0.66666700  0.33333300  0.56021400  1
  Li  Li2  1  0.66666700  0.33333300  0.94484600  1
  Li  Li3  1  0.33333300  0.66666700  0.44906200  1
  Li  Li4  1  0.33333300  0.66666700  0.06563300  1
  Li  Li5  1  0.49948000  0.99907800  0.50184300  1
  Li  Li6  1  0.00092200  0.50040300  0.50184300  1
  Li  Li7  1  0.79831200  0.14843400  0.73495800  1
  Li  Li8  1  0.65367900  0.80240300  0.27359100  1
  Li  Li9  1  0.14872400  0.34632100  0.27359100  1
  Li  Li10  1  0.00000000  0.00000000  0.98395000  1
  Li  Li11  1  0.00000000  0.00000000  0.49010000  1
  Li  Li12  1  0.85156600  0.64987800  0.73495800  1
  Li  Li13  1  0.35012200  0.20168800  0.73495800  1
  Li  Li14  1  0.19759700  0.85127600  0.27359100  1
  Mn  Mn0  1  0.50010300  0.50038700  0.00384300  1
  Mn  Mn1  1  0.49961300  0.99971600  0.00384300  1
  Mn  Mn2  1  0.00028400  0.49989700  0.00384300  1
  P  P0  1  0.36836100  0.19168600  0.26022000  1
  P  P1  1  0.82332400  0.63163900  0.26022000  1
  P  P2  1  0.63162000  0.80931200  0.74962300  1
  P  P3  1  0.80831400  0.17667600  0.26022000  1
  P  P4  1  0.17769200  0.36838000  0.74962300  1
  P  P5  1  0.19068800  0.82230800  0.74962300  1
  O  O0  1  0.34988800  0.40598300  0.77210400  1
  O  O1  1  0.45183300  0.29501300  0.06809600  1
  O  O2  1  0.44609300  0.28142200  0.45421600  1
  O  O3  1  0.65174100  0.59593600  0.23529000  1
  O  O4  1  0.40406400  0.05580500  0.23529000  1
  O  O5  1  0.83532900  0.55390700  0.45421600  1
  O  O6  1  0.84318000  0.54816700  0.06809600  1
  O  O7  1  0.59401700  0.94390500  0.77210400  1
  O  O8  1  0.70498700  0.15682000  0.06809600  1
  O  O9  1  0.71857800  0.16467100  0.45421600  1
  O  O10  1  0.55679100  0.72004800  0.55470100  1
  O  O11  1  0.54733800  0.70560900  0.94101400  1
  O  O12  1  0.94419500  0.34825900  0.23529000  1
  O  O13  1  0.05609500  0.65011200  0.77210400  1
  O  O14  1  0.87064100  0.06447800  0.25586000  1
  O  O15  1  0.80675100  0.87358700  0.75781100  1
  O  O16  1  0.15827100  0.45266200  0.94101400  1
  O  O17  1  0.16325700  0.44320900  0.55470100  1
  O  O18  1  0.06683600  0.19324900  0.75781100  1
  O  O19  1  0.93552200  0.80616200  0.25586000  1
  O  O20  1  0.19383800  0.12935900  0.25586000  1
  O  O21  1  0.12641300  0.93316400  0.75781100  1
  O  O22  1  0.27995200  0.83674300  0.55470100  1
  O  O23  1  0.29439100  0.84172900  0.94101400  1
  F  F0  1  0.35929600  0.51329200  0.24103700  1
  F  F1  1  0.64155400  0.48655700  0.76971300  1
  F  F2  1  0.51344300  0.15499700  0.76971300  1
  F  F3  1  0.48670800  0.84600400  0.24103700  1
  F  F4  1  0.84500300  0.35844600  0.76971300  1
  F  F5  1  0.15399600  0.64070400  0.24103700  1
loop_
_geom_bond_atom_site_label_1
_geom_bond_atom_site_label_2
_geom_bond_distance
_geom_bond_site_symmetry_2
Li0 O10 2.001675 1_555
Li0 O2 2.001899 1_555
Li0 O3 2.199022 1_555
Li0 O0 2.206310 1_555
Li1 O9 2.114133 1_555
Li1 O5 2.114140 1_555
Li1 O2 2.114142 1_555
Li2 O8 2.142291 1_556
Li2 O6 2.142297 1_556
Li2 O1 2.142300 1_556
Li3 O22 2.135857 1_555
Li3 O17 2.135864 1_555
Li3 O10 2.135866 1_555
Li4 O23 2.136168 1_554
Li4 O16 2.136174 1_554
Li4 O11 2.136178 1_554
Li5 O22 2.001677 1_555
Li5 O9 2.001897 1_565
Li5 O4 2.199017 1_565
Li5 O7 2.206315 1_555
Li6 O17 2.001684 1_555
Li6 O5 2.001890 1_455
Li6 O12 2.199023 1_455
Li6 O13 2.206309 1_555
Li7 O9 2.046912 1_555
Li7 O7 2.057426 1_545
Li7 O8 2.396152 1_556
Li7 O18 2.494624 1_655
Li8 O10 2.055772 1_555
Li8 O3 2.069179 1_555
Li8 O11 2.409880 1_554
Li8 O14 2.428198 1_565
Li9 O17 2.055772 1_555
Li9 O12 2.069179 1_455
Li9 O16 2.409880 1_554
Li9 O20 2.428205 1_555
Li10 O21 2.256489 1_545
Li10 O18 2.256489 1_555
Li10 O15 2.256489 1_445
Li10 O14 2.471525 1_456
Li10 O20 2.471531 1_556
Li10 O19 2.471532 1_446
Li11 O14 2.299157 1_455
Li11 O20 2.299163 1_555
Li11 O19 2.299164 1_445
Li11 O21 2.444827 1_545
Li11 O18 2.444827 1_555
Li11 O15 2.444827 1_445
Li12 O5 2.046912 1_555
Li12 O13 2.057426 1_655
Li12 O6 2.396152 1_556
Li12 O15 2.494624 1_555
Li13 O2 2.046912 1_555
Li13 O0 2.057426 1_555
Li13 O1 2.396152 1_556
Li13 O21 2.494624 1_545
Li14 O22 2.055772 1_555
Li14 O4 2.069179 1_565
Li14 O23 2.409880 1_554
Li14 O19 2.428195 1_455
Mn0 O11 1.905651 1_554
Mn0 O1 1.906167 1_555
Mn0 O0 2.010883 1_554
Mn0 O3 2.017842 1_555
Mn1 O23 1.905651 1_554
Mn1 O8 1.906167 1_565
Mn1 O7 2.010883 1_554
Mn1 O4 2.017842 1_565
Mn2 O16 1.905651 1_554
Mn2 O6 1.906166 1_455
Mn2 O13 2.010883 1_554
Mn2 O12 2.017842 1_455
O0 P4 1.574143 1_555
O1 P0 1.578855 1_555
O2 P0 1.527814 1_555
O3 P1 1.575702 1_555
O4 P0 1.575712 1_555
O5 P1 1.527817 1_555
O6 P1 1.578859 1_555
O7 P2 1.574143 1_555
O8 P3 1.578853 1_555
O9 P3 1.527812 1_555
O10 P2 1.525326 1_555
O11 P2 1.578126 1_555
O12 P3 1.575706 1_555
O13 P5 1.574143 1_555
O14 P3 1.531224 1_555
O15 P2 1.534493 1_555
O16 P4 1.578126 1_555
O17 P4 1.525326 1_555
O18 P4 1.534493 1_555
O19 P1 1.531209 1_555
O20 P0 1.531205 1_555
O21 P5 1.534493 1_555
O22 P5 1.525326 1_555
O23 P5 1.578126 1_555
F0 Li9 1.935813 1_555
F0 Li4 2.035088 1_555
F0 Mn0 2.145901 1_555
F0 Li3 2.163568 1_555
F0 Li0 2.257203 1_555
F1 Li12 1.922427 1_555
F1 Li2 2.028577 1_555
F1 Mn0 2.139424 1_556
F1 Li1 2.164534 1_555
F1 Li0 2.307574 1_555
F2 Li13 1.922427 1_555
F2 Li2 2.028572 1_555
F2 Mn1 2.139424 1_546
F2 Li1 2.164529 1_555
F2 Li5 2.307567 1_545
F3 Li8 1.935813 1_555
F3 Li4 2.035083 1_555
F3 Mn1 2.145901 1_555
F3 Li3 2.163563 1_555
F3 Li5 2.257209 1_555
F4 Li7 1.922427 1_555
F4 Li2 2.028569 1_555
F4 Mn2 2.139424 1_656
F4 Li1 2.164526 1_555
F4 Li6 2.307570 1_655
F5 Li14 1.935813 1_555
F5 Li4 2.035080 1_555
F5 Mn2 2.145901 1_555
F5 Li3 2.163560 1_555
F5 Li6 2.257206 1_555
