# generated using pymatgen
data_Li3V4(OF3)3
_symmetry_space_group_name_H-M   'P 1'
_cell_length_a   5.22852800
_cell_length_b   5.52710580
_cell_length_c   17.28596906
_cell_angle_alpha   87.52335496
_cell_angle_beta   98.25199942
_cell_angle_gamma   117.99787498
_symmetry_Int_Tables_number   1
_chemical_formula_structural   Li3V4(OF3)3
_chemical_formula_sum   'Li6 V8 O6 F18'
_cell_volume   436.34333631
_cell_formula_units_Z   2
loop_
 _symmetry_equiv_pos_site_id
 _symmetry_equiv_pos_as_xyz
  1  'x, y, z'
loop_
 _atom_site_type_symbol
 _atom_site_label
 _atom_site_symmetry_multiplicity
 _atom_site_fract_x
 _atom_site_fract_y
 _atom_site_fract_z
 _atom_site_occupancy
  Li  Li0  1  0.34240800  0.60033600  0.05893100  1
  Li  Li1  1  0.56602400  0.69594100  0.42484900  1
  Li  Li2  1  0.79948500  0.84064500  0.79634800  1
  Li  Li3  1  0.84121500  0.35843300  0.31203400  1
  Li  Li4  1  0.66488600  0.38033100  0.94467100  1
  Li  Li5  1  0.28753900  0.05140300  0.55132600  1
  V  V0  1  0.49591100  0.73171500  0.24345300  1
  V  V1  1  0.74204000  0.84927500  0.62844100  1
  V  V2  1  0.27451800  0.66357000  0.86857900  1
  V  V3  1  0.00235200  0.49096900  0.49285800  1
  V  V4  1  0.71772700  0.37619900  0.12493400  1
  V  V5  1  0.50360100  0.25060100  0.74735200  1
  V  V6  1  0.03196800  0.02844900  0.00364300  1
  V  V7  1  0.21406300  0.09758200  0.38040500  1
  O  O0  1  0.55612500  0.59058700  0.15677000  1
  O  O1  1  0.55309400  0.56522100  0.69209200  1
  O  O2  1  0.07778500  0.34374600  0.40617700  1
  O  O3  1  0.50990000  0.95229100  0.81275200  1
  O  O4  1  0.98246100  0.79002400  0.43869300  1
  O  O5  1  0.43452300  0.24888900  0.03013200  1
  F  F0  1  0.91641900  0.97665500  0.28198800  1
  F  F1  1  0.45053400  0.72548800  0.52718800  1
  F  F2  1  0.44035100  0.90417800  0.34286200  1
  F  F3  1  0.93535000  0.17137700  0.08985700  1
  F  F4  1  0.57221600  0.79366900  0.97127900  1
  F  F5  1  0.04242100  0.51209100  0.22078300  1
  F  F6  1  0.00547100  0.18196400  0.56542800  1
  F  F7  1  0.01163000  0.68608900  0.05772100  1
  F  F8  1  0.01708100  0.35390500  0.94209100  1
  F  F9  1  0.48874100  0.05529800  0.18985800  1
  F  F10  1  0.94306400  0.46355800  0.78650200  1
  F  F11  1  0.97162100  0.68401800  0.59070900  1
  F  F12  1  0.54800100  0.07733200  0.64893400  1
  F  F13  1  0.04093900  0.85416700  0.90343900  1
  F  F14  1  0.54758800  0.26327700  0.47529000  1
  F  F15  1  0.51244100  0.43400500  0.31766400  1
  F  F16  1  0.47179100  0.43394400  0.84830200  1
  F  F17  1  0.06422300  0.04071800  0.72317600  1
loop_
_geom_bond_atom_site_label_1
_geom_bond_atom_site_label_2
_geom_bond_distance
_geom_bond_site_symmetry_2
Li0 O0 1.902107 1_555
Li0 O5 2.298652 1_555
Li1 O4 1.966390 1_555
Li1 O2 2.358472 1_555
Li2 O3 1.941464 1_555
Li2 O1 2.225807 1_555
Li3 O2 1.920902 1_655
Li4 O5 1.938381 1_556
Li5 O4 2.368583 1_445
O0 V0 1.849259 1_555
O0 V4 1.884333 1_555
O1 V1 1.832474 1_555
O1 V5 1.873027 1_555
O2 V7 1.900272 1_555
O2 V3 1.907646 1_555
O3 V2 1.832041 1_555
O3 V5 1.968968 1_565
O4 V3 1.902436 1_655
O4 V7 1.908084 1_665
O5 V6 1.867639 1_555
O5 V4 1.948862 1_555
F0 V0 1.993351 1_555
F0 V7 2.030890 1_665
F0 Li3 2.410257 1_565
F1 Li1 1.986189 1_555
F1 V1 2.052609 1_555
F1 V3 2.083034 1_555
F1 Li5 2.398681 1_565
F2 Li1 2.016613 1_555
F2 V7 2.105113 1_565
F2 V0 2.119125 1_555
F2 Li3 2.498985 1_565
F3 V6 1.947504 1_655
F3 V4 2.100166 1_555
F3 Li0 2.432312 1_655
F4 Li0 2.014562 1_556
F4 V2 2.087508 1_555
F4 V6 2.126805 1_666
F5 Li3 1.959030 1_455
F5 V4 2.072273 1_455
F5 V0 2.078753 1_555
F6 Li5 1.967944 1_555
F6 V3 2.079890 1_555
F6 V1 2.084332 1_445
F7 Li0 1.993630 1_555
F7 V6 2.037776 1_565
F7 V4 2.124689 1_455
F8 Li4 1.921188 1_455
F8 V6 2.077544 1_556
F8 V2 2.120369 1_555
F8 Li0 2.429825 1_556
F9 V0 1.992017 1_545
F9 V4 2.014627 1_555
F10 V2 1.967082 1_655
F10 V5 2.050923 1_555
F11 V1 2.001552 1_555
F11 Li5 2.090297 1_665
F11 V3 2.102444 1_655
F12 Li5 1.974846 1_555
F12 V1 2.021394 1_545
F12 V5 2.080432 1_555
F13 V6 2.034771 1_566
F13 Li2 2.068507 1_455
F13 V2 2.106753 1_555
F14 Li5 1.957715 1_555
F14 V3 2.084701 1_655
F14 V7 2.092667 1_555
F14 Li1 2.473001 1_555
F15 Li3 1.965854 1_555
F15 V0 2.068798 1_555
F15 V7 2.157645 1_555
F15 Li1 2.304198 1_555
F16 Li4 1.907236 1_555
F16 V2 2.041768 1_555
F16 V5 2.119910 1_555
F16 Li2 2.333733 1_555
F17 Li2 1.919180 1_445
F17 V5 2.015481 1_555
F17 V1 2.079275 1_445
