# generated using pymatgen
data_Li3MnV(PO4)3
_symmetry_space_group_name_H-M   'P 1'
_cell_length_a   9.13325437
_cell_length_b   8.37246573
_cell_length_c   8.45998726
_cell_angle_alpha   59.72789297
_cell_angle_beta   63.00874092
_cell_angle_gamma   89.27465527
_symmetry_Int_Tables_number   1
_chemical_formula_structural   Li3MnV(PO4)3
_chemical_formula_sum   'Li6 Mn2 V2 P6 O24'
_cell_volume   477.81052380
_cell_formula_units_Z   2
loop_
 _symmetry_equiv_pos_site_id
 _symmetry_equiv_pos_as_xyz
  1  'x, y, z'
loop_
 _atom_site_type_symbol
 _atom_site_label
 _atom_site_symmetry_multiplicity
 _atom_site_fract_x
 _atom_site_fract_y
 _atom_site_fract_z
 _atom_site_occupancy
  Li  Li0  1  0.14164100  0.73336900  0.19531300  1
  Li  Li1  1  0.14416800  0.34050600  0.92979500  1
  Li  Li2  1  0.58957900  0.78891600  0.67848100  1
  Li  Li3  1  0.86183500  0.67589600  0.05847000  1
  Li  Li4  1  0.90102800  0.94304600  0.35871400  1
  Li  Li5  1  0.87092300  0.25255100  0.81082200  1
  Mn  Mn0  1  0.56107300  0.85850500  0.29201600  1
  Mn  Mn1  1  0.43801600  0.14572500  0.69659500  1
  V  V0  1  0.04171500  0.34130700  0.31388000  1
  V  V1  1  0.96332400  0.65073200  0.69271500  1
  P  P0  1  0.25102600  0.05205900  0.20579200  1
  P  P1  1  0.25408900  0.45385100  0.50024800  1
  P  P2  1  0.23612200  0.74677000  0.80787200  1
  P  P3  1  0.75765000  0.25703500  0.19727900  1
  P  P4  1  0.75304000  0.53452800  0.50999700  1
  P  P5  1  0.74936100  0.96164200  0.77534500  1
  O  O0  1  0.10645100  0.85174600  0.35981600  1
  O  O1  1  0.26038500  0.14629100  0.99000500  1
  O  O2  1  0.17461600  0.17825100  0.29864300  1
  O  O3  1  0.18140800  0.47666800  0.35474400  1
  O  O4  1  0.10367700  0.45460800  0.69332400  1
  O  O5  1  0.09597100  0.78600400  0.74732800  1
  O  O6  1  0.41643600  0.03524500  0.19757900  1
  O  O7  1  0.27865800  0.24981500  0.60788000  1
  O  O8  1  0.41314500  0.61448900  0.37015400  1
  O  O9  1  0.17069600  0.52772900  0.00050200  1
  O  O10  1  0.25148500  0.87168900  0.88895600  1
  O  O11  1  0.40862800  0.77440200  0.62943900  1
  O  O12  1  0.58995500  0.20015000  0.39750900  1
  O  O13  1  0.75760400  0.13238800  0.11274300  1
  O  O14  1  0.81332600  0.47562300  0.01764700  1
  O  O15  1  0.58927500  0.38432300  0.62028100  1
  O  O16  1  0.73582200  0.74294000  0.41720900  1
  O  O17  1  0.57274500  0.97339500  0.79331000  1
  O  O18  1  0.90615700  0.21665600  0.25212600  1
  O  O19  1  0.90261300  0.53771900  0.31031600  1
  O  O20  1  0.81997600  0.49687600  0.66229700  1
  O  O21  1  0.80830200  0.83942900  0.67678000  1
  O  O22  1  0.74167700  0.86964100  0.98746800  1
  O  O23  1  0.87860600  0.16911800  0.62279000  1
loop_
_geom_bond_atom_site_label_1
_geom_bond_atom_site_label_2
_geom_bond_distance
_geom_bond_site_symmetry_2
Li0 O10 1.925622 1_554
Li0 O0 1.999744 1_555
Li0 O3 2.018054 1_555
Li0 O19 2.225211 1_455
Li1 O1 1.908449 1_555
Li1 O4 1.946103 1_555
Li1 O9 1.990017 1_556
Li1 O18 2.249947 1_456
Li2 O11 1.896456 1_555
Li2 O21 2.039324 1_555
Li2 O17 2.173514 1_555
Li2 O16 2.232229 1_555
Li3 O22 1.940972 1_554
Li3 O14 1.966902 1_555
Li3 O19 2.059334 1_555
Li3 O5 2.201242 1_654
Li4 O16 1.969468 1_555
Li4 O18 1.986142 1_565
Li4 O0 2.019118 1_655
Li4 O21 2.075317 1_555
Li5 O13 1.908779 1_556
Li5 O20 1.973577 1_555
Li5 O23 2.010256 1_555
Li5 O4 2.201490 1_655
Mn0 O6 2.071131 1_565
Mn0 O8 2.081788 1_555
Mn0 O13 2.215196 1_565
Mn0 O11 2.230166 1_555
Mn0 O16 2.251076 1_555
Mn0 O22 2.296038 1_554
Mn1 O7 1.934198 1_555
Mn1 O17 1.985974 1_545
Mn1 O12 2.049868 1_555
Mn1 O15 2.067828 1_555
Mn1 O10 2.152378 1_545
Mn1 O1 2.269325 1_555
O0 P0 1.595357 1_565
O0 V1 2.099545 1_455
O1 P0 1.539598 1_556
O2 P0 1.593994 1_555
O2 V0 1.829517 1_555
O3 P1 1.579186 1_555
O3 V0 1.965625 1_555
O4 P1 1.590186 1_555
O4 V1 2.069714 1_455
O5 P2 1.556788 1_555
O5 V1 2.008552 1_455
O6 P0 1.488674 1_555
O7 P1 1.550870 1_555
O8 P1 1.495426 1_555
O9 P2 1.583254 1_554
O9 V0 1.972883 1_555
O10 P2 1.548718 1_555
O11 P2 1.520806 1_555
O12 P3 1.513983 1_555
O13 P3 1.534064 1_555
O14 P3 1.560584 1_555
O14 V1 2.037648 1_554
O15 P4 1.512318 1_555
O16 P4 1.552353 1_555
O17 P5 1.556705 1_555
O18 P3 1.603368 1_555
O18 V0 2.016068 1_655
O19 P4 1.606647 1_555
O19 V0 2.061813 1_655
O20 P4 1.560077 1_555
O20 V1 2.030366 1_555
O21 P5 1.571919 1_555
O21 V1 2.102538 1_555
O22 P5 1.520552 1_555
O23 P5 1.576477 1_545
O23 V0 1.961966 1_655
