# generated using pymatgen
data_Li4Fe3Sn3(TeO8)2
_symmetry_space_group_name_H-M   'P 1'
_cell_length_a   6.27779357
_cell_length_b   6.27779357
_cell_length_c   10.14802100
_cell_angle_alpha   89.38862146
_cell_angle_beta   89.38862146
_cell_angle_gamma   59.57139573
_symmetry_Int_Tables_number   1
_chemical_formula_structural   Li4Fe3Sn3(TeO8)2
_chemical_formula_sum   'Li4 Fe3 Sn3 Te2 O16'
_cell_volume   344.82702982
_cell_formula_units_Z   1
loop_
 _symmetry_equiv_pos_site_id
 _symmetry_equiv_pos_as_xyz
  1  'x, y, z'
loop_
 _atom_site_type_symbol
 _atom_site_label
 _atom_site_symmetry_multiplicity
 _atom_site_fract_x
 _atom_site_fract_y
 _atom_site_fract_z
 _atom_site_occupancy
  Li  Li0  1  0.32651000  0.32651000  0.89833900  1
  Li  Li1  1  0.00295200  0.00295200  0.98989400  1
  Li  Li2  1  0.00123600  0.00123600  0.49609300  1
  Li  Li3  1  0.66483200  0.66483200  0.40667300  1
  Fe  Fe0  1  0.16535100  0.16535100  0.20998300  1
  Fe  Fe1  1  0.33458200  0.82759000  0.71146000  1
  Fe  Fe2  1  0.82759000  0.33458200  0.71146000  1
  Sn  Sn0  1  0.16866000  0.65996300  0.21487000  1
  Sn  Sn1  1  0.65996300  0.16866000  0.21487000  1
  Sn  Sn2  1  0.82977800  0.82977800  0.71476800  1
  Te  Te0  1  0.32057200  0.32057200  0.48897500  1
  Te  Te1  1  0.65010200  0.65010200  0.98195600  1
  O  O0  1  0.15822300  0.69018100  0.60540100  1
  O  O1  1  0.48596400  0.48596400  0.33313900  1
  O  O2  1  0.33576200  0.33576200  0.10523500  1
  O  O3  1  0.99677700  0.99677700  0.31590800  1
  O  O4  1  0.00176600  0.00176600  0.80937900  1
  O  O5  1  0.69018100  0.15822300  0.60540100  1
  O  O6  1  0.04072700  0.48163200  0.34867500  1
  O  O7  1  0.48163200  0.04072700  0.34867500  1
  O  O8  1  0.84665700  0.84665700  0.10416300  1
  O  O9  1  0.15577900  0.15577900  0.59427100  1
  O  O10  1  0.50743600  0.96061200  0.83160600  1
  O  O11  1  0.96061200  0.50743600  0.83160600  1
  O  O12  1  0.66169400  0.66169400  0.60977200  1
  O  O13  1  0.31720000  0.82502200  0.09157700  1
  O  O14  1  0.51623300  0.51623300  0.84334300  1
  O  O15  1  0.82502200  0.31720000  0.09157700  1
loop_
_geom_bond_atom_site_label_1
_geom_bond_atom_site_label_2
_geom_bond_distance
_geom_bond_site_symmetry_2
Li0 O10 2.097401 1_545
Li0 O11 2.097401 1_455
Li0 O2 2.103242 1_556
Li0 O14 2.134757 1_555
Li1 O4 1.832074 1_555
Li1 O15 1.997774 1_456
Li1 O13 1.997774 1_546
Li1 O8 2.048598 1_446
Li2 O3 1.829764 1_445
Li2 O9 1.967197 1_555
Li2 O5 2.010636 1_455
Li2 O0 2.010636 1_545
Li3 O12 2.060916 1_555
Li3 O1 2.095616 1_555
Li3 O6 2.115059 1_655
Li3 O7 2.115059 1_565
Fe0 O3 2.116890 1_445
Fe0 O2 2.128296 1_555
Fe0 O15 2.210105 1_455
Fe0 O13 2.210105 1_545
Fe0 O6 2.235629 1_555
Fe0 O7 2.235629 1_555
Fe1 O0 2.034928 1_555
Fe1 O12 2.044000 1_555
Fe1 O4 2.052600 1_565
Fe1 O10 2.080702 1_555
Fe1 O9 2.133716 1_565
Fe1 O14 2.152009 1_555
Fe2 O5 2.034928 1_555
Fe2 O12 2.044000 1_555
Fe2 O4 2.052600 1_655
Fe2 O11 2.080702 1_555
Fe2 O9 2.133716 1_655
Fe2 O14 2.152009 1_555
O0 Sn2 2.095912 1_455
O0 Te0 2.335803 1_555
O1 Sn1 2.102527 1_555
O1 Sn0 2.102527 1_555
O1 Te0 2.383054 1_555
O2 Sn0 2.083594 1_555
O2 Sn1 2.083594 1_555
O3 Sn1 2.097169 1_565
O3 Sn0 2.097169 1_655
O4 Sn2 2.116229 1_445
O5 Sn2 2.095912 1_545
O5 Te0 2.335803 1_555
O6 Te0 2.087869 1_555
O6 Sn0 2.144104 1_555
O7 Te0 2.087869 1_555
O7 Sn1 2.144104 1_555
O8 Sn1 2.083904 1_565
O8 Sn0 2.083904 1_655
O8 Te1 2.488123 1_554
O9 Te0 2.078279 1_555
O10 Sn2 2.112201 1_555
O10 Te1 2.264326 1_555
O11 Sn2 2.112201 1_555
O11 Te1 2.264326 1_555
O12 Sn2 2.130257 1_555
O13 Sn0 2.105927 1_555
O13 Te1 2.112547 1_554
O14 Te1 2.038890 1_555
O15 Sn1 2.105927 1_555
O15 Te1 2.112547 1_554
