# generated using pymatgen
data_Li4Cr5FeO12
_symmetry_space_group_name_H-M   'P 1'
_cell_length_a   5.15336214
_cell_length_b   5.15336214
_cell_length_c   10.13639778
_cell_angle_alpha   89.90609668
_cell_angle_beta   89.90609668
_cell_angle_gamma   120.19938047
_symmetry_Int_Tables_number   1
_chemical_formula_structural   Li4Cr5FeO12
_chemical_formula_sum   'Li4 Cr5 Fe1 O12'
_cell_volume   232.65758088
_cell_formula_units_Z   1
loop_
 _symmetry_equiv_pos_site_id
 _symmetry_equiv_pos_as_xyz
  1  'x, y, z'
loop_
 _atom_site_type_symbol
 _atom_site_label
 _atom_site_symmetry_multiplicity
 _atom_site_fract_x
 _atom_site_fract_y
 _atom_site_fract_z
 _atom_site_occupancy
  Li  Li0  1  0.85066000  0.34729200  0.24971700  1
  Li  Li1  1  0.65270800  0.14934000  0.75028300  1
  Li  Li2  1  0.34729200  0.85066000  0.24971700  1
  Li  Li3  1  0.14934000  0.65270800  0.75028300  1
  Cr  Cr0  1  0.83469100  0.16530900  0.50000000  1
  Cr  Cr1  1  0.33481500  0.66518500  0.00000000  1
  Cr  Cr2  1  0.66518500  0.33481500  0.00000000  1
  Cr  Cr3  1  0.16530900  0.83469100  0.50000000  1
  Cr  Cr4  1  0.50000000  0.50000000  0.50000000  1
  Fe  Fe0  1  0.00000000  0.00000000  0.00000000  1
  O  O0  1  0.99061500  0.33690600  0.89291400  1
  O  O1  1  0.66309400  0.00938500  0.10708600  1
  O  O2  1  0.83516100  0.49196000  0.60538100  1
  O  O3  1  0.49196000  0.83516100  0.60538100  1
  O  O4  1  0.50804000  0.16483900  0.39461900  1
  O  O5  1  0.83025200  0.83025200  0.40666600  1
  O  O6  1  0.16483900  0.50804000  0.39461900  1
  O  O7  1  0.33690600  0.99061500  0.89291400  1
  O  O8  1  0.67625300  0.67625300  0.90377100  1
  O  O9  1  0.00938500  0.66309400  0.10708600  1
  O  O10  1  0.32374700  0.32374700  0.09622900  1
  O  O11  1  0.16974800  0.16974800  0.59333400  1
loop_
_geom_bond_atom_site_label_1
_geom_bond_atom_site_label_2
_geom_bond_distance
_geom_bond_site_symmetry_2
Li0 O9 2.014218 1_655
Li0 O6 2.031613 1_655
Li0 O1 2.091979 1_555
Li0 O4 2.115592 1_555
Li1 O7 2.014218 1_545
Li1 O3 2.031613 1_545
Li1 O0 2.091979 1_555
Li1 O2 2.115592 1_555
Li2 O1 2.014218 1_565
Li2 O4 2.031613 1_565
Li2 O9 2.091979 1_555
Li2 O6 2.115592 1_555
Li3 O0 2.014218 1_455
Li3 O2 2.031613 1_455
Li3 O7 2.091979 1_555
Li3 O3 2.115592 1_555
Cr0 O5 1.960268 1_545
Cr0 O11 1.960268 1_655
Cr0 O4 1.994115 1_555
Cr0 O2 1.994115 1_555
Cr0 O3 2.029773 1_545
Cr0 O6 2.029773 1_655
Cr1 O10 1.985937 1_555
Cr1 O8 1.985937 1_554
Cr1 O7 1.991656 1_554
Cr1 O9 1.991656 1_555
Cr1 O1 2.044509 1_565
Cr1 O0 2.044509 1_454
Cr2 O10 1.985937 1_555
Cr2 O8 1.985937 1_554
Cr2 O1 1.991656 1_555
Cr2 O0 1.991656 1_554
Cr2 O7 2.044509 1_544
Cr2 O9 2.044509 1_655
Cr3 O5 1.960268 1_455
Cr3 O11 1.960268 1_565
Cr3 O6 1.994115 1_555
Cr3 O3 1.994115 1_555
Cr3 O2 2.029773 1_455
Cr3 O4 2.029773 1_565
Cr4 O5 1.939986 1_555
Cr4 O11 1.939986 1_555
Cr4 O2 2.050334 1_555
Cr4 O6 2.050334 1_555
Cr4 O3 2.050334 1_555
Cr4 O4 2.050334 1_555
Fe0 O10 1.931024 1_555
Fe0 O8 1.931024 1_444
Fe0 O9 2.067228 1_545
Fe0 O7 2.067228 1_544
Fe0 O0 2.067228 1_454
Fe0 O1 2.067228 1_455
