# generated using pymatgen
data_Rb2InCl5O
_symmetry_space_group_name_H-M   'P 1'
_cell_length_a   7.36771252
_cell_length_b   10.32665673
_cell_length_c   13.66516992
_cell_angle_alpha   90.00000000
_cell_angle_beta   90.00000000
_cell_angle_gamma   90.00000000
_symmetry_Int_Tables_number   1
_chemical_formula_structural   Rb2InCl5O
_chemical_formula_sum   'Rb8 In4 Cl20 O4'
_cell_volume   1039.69857552
_cell_formula_units_Z   4
loop_
 _symmetry_equiv_pos_site_id
 _symmetry_equiv_pos_as_xyz
  1  'x, y, z'
loop_
 _atom_site_type_symbol
 _atom_site_label
 _atom_site_symmetry_multiplicity
 _atom_site_fract_x
 _atom_site_fract_y
 _atom_site_fract_z
 _atom_site_occupancy
  Rb  Rb0  1  0.19353034  0.48793553  0.36494664  1
  Rb  Rb1  1  0.30646966  0.01206447  0.86494664  1
  Rb  Rb2  1  0.80646966  0.98793553  0.63505336  1
  Rb  Rb3  1  0.69353034  0.51206447  0.13505336  1
  Rb  Rb4  1  0.80646966  0.51206447  0.63505336  1
  Rb  Rb5  1  0.69353034  0.98793553  0.13505336  1
  Rb  Rb6  1  0.19353034  0.01206447  0.36494664  1
  Rb  Rb7  1  0.30646966  0.48793553  0.86494664  1
  In  In0  1  0.23017126  0.75000000  0.12294798  1
  In  In1  1  0.26982874  0.75000000  0.62294798  1
  In  In2  1  0.76982874  0.25000000  0.87705202  1
  In  In3  1  0.73017126  0.25000000  0.37705202  1
  Cl  Cl0  1  0.93880205  0.75000000  0.24365100  1
  Cl  Cl1  1  0.56119795  0.75000000  0.74365100  1
  Cl  Cl2  1  0.06119795  0.25000000  0.75634900  1
  Cl  Cl3  1  0.43880205  0.25000000  0.25634900  1
  Cl  Cl4  1  0.43349723  0.75000000  0.26358905  1
  Cl  Cl5  1  0.06650277  0.75000000  0.76358905  1
  Cl  Cl6  1  0.56650277  0.25000000  0.73641095  1
  Cl  Cl7  1  0.93349723  0.25000000  0.23641095  1
  Cl  Cl8  1  0.46202957  0.75000000  0.99257752  1
  Cl  Cl9  1  0.03797043  0.75000000  0.49257752  1
  Cl  Cl10  1  0.53797043  0.25000000  0.00742248  1
  Cl  Cl11  1  0.96202957  0.25000000  0.50742248  1
  Cl  Cl12  1  0.18615260  0.51238119  0.10881629  1
  Cl  Cl13  1  0.31384740  0.98761881  0.60881629  1
  Cl  Cl14  1  0.81384740  0.01238119  0.89118371  1
  Cl  Cl15  1  0.68615260  0.48761881  0.39118371  1
  Cl  Cl16  1  0.81384740  0.48761881  0.89118371  1
  Cl  Cl17  1  0.68615260  0.01238119  0.39118371  1
  Cl  Cl18  1  0.18615260  0.98761881  0.10881629  1
  Cl  Cl19  1  0.31384740  0.51238119  0.60881629  1
  O  O0  1  0.94791174  0.75000000  0.06841280  1
  O  O1  1  0.55208826  0.75000000  0.56841280  1
  O  O2  1  0.05208826  0.25000000  0.93158720  1
  O  O3  1  0.44791174  0.25000000  0.43158720  1
loop_
_geom_bond_atom_site_label_1
_geom_bond_atom_site_label_2
_geom_bond_distance
_geom_bond_site_symmetry_2
In0 O0 2.209103 1_455
In1 O1 2.209103 1_555
In2 O2 2.209103 1_655
In3 O3 2.209103 1_555
Cl0 O0 2.395600 1_555
Cl0 In0 2.707219 1_655
Cl0 Rb3 3.391915 1_555
Cl0 Rb5 3.391915 1_555
Cl0 Rb0 3.686926 1_655
Cl0 Rb6 3.686926 1_665
Cl1 O1 2.395600 1_555
Cl1 In1 2.707219 1_555
Cl1 Rb2 3.391915 1_555
Cl1 Rb4 3.391915 1_555
Cl1 Rb7 3.686926 1_555
Cl1 Rb1 3.686926 1_565
Cl2 O2 2.395600 1_555
Cl2 In2 2.707219 1_455
Cl2 Rb7 3.391915 1_555
Cl2 Rb1 3.391915 1_555
Cl2 Rb4 3.686926 1_455
Cl2 Rb2 3.686926 1_445
Cl3 O3 2.395600 1_555
Cl3 In3 2.707219 1_555
Cl3 Rb0 3.391915 1_555
Cl3 Rb6 3.391915 1_555
Cl3 Rb5 3.686926 1_545
Cl3 Rb3 3.686926 1_555
Cl4 In0 2.436757 1_555
Cl4 Rb0 3.516824 1_555
Cl4 Rb6 3.516824 1_565
Cl4 Rb3 3.576712 1_555
Cl4 Rb5 3.576712 1_555
Cl5 In1 2.436757 1_555
Cl5 Rb7 3.516824 1_555
Cl5 Rb1 3.516824 1_565
Cl5 Rb2 3.576712 1_455
Cl5 Rb4 3.576712 1_455
Cl6 In2 2.436757 1_555
Cl6 Rb4 3.516824 1_555
Cl6 Rb2 3.516824 1_545
Cl6 Rb7 3.576712 1_555
Cl6 Rb1 3.576712 1_555
Cl7 In3 2.436757 1_555
Cl7 Rb5 3.516824 1_545
Cl7 Rb3 3.516824 1_555
Cl7 Rb6 3.576712 1_655
Cl7 Rb0 3.576712 1_655
Cl8 In0 2.468205 1_556
Cl8 Rb7 3.417493 1_555
Cl8 Rb1 3.417493 1_565
Cl8 Rb5 3.568901 1_556
Cl8 Rb3 3.568901 1_556
Cl9 In1 2.468205 1_555
Cl9 Rb0 3.417493 1_555
Cl9 Rb6 3.417493 1_565
Cl9 Rb4 3.568901 1_455
Cl9 Rb2 3.568901 1_455
Cl10 In2 2.468205 1_554
Cl10 Rb3 3.417493 1_555
Cl10 Rb5 3.417493 1_545
Cl10 Rb1 3.568901 1_554
Cl10 Rb7 3.568901 1_554
Cl11 In3 2.468205 1_555
Cl11 Rb4 3.417493 1_555
Cl11 Rb2 3.417493 1_545
Cl11 Rb6 3.568901 1_655
Cl11 Rb0 3.568901 1_655
Cl12 In0 2.482669 1_555
Cl12 Rb7 3.457634 1_554
Cl12 Rb0 3.509578 1_555
Cl12 Rb3 3.647166 1_455
Cl12 Rb3 3.755369 1_555
Cl13 In1 2.482669 1_555
Cl13 Rb6 3.457634 1_565
Cl13 Rb1 3.509578 1_565
Cl13 Rb2 3.647166 1_555
Cl13 Rb2 3.755369 1_455
Cl14 In2 2.482669 1_555
Cl14 Rb5 3.457634 1_546
Cl14 Rb2 3.509578 1_545
Cl14 Rb1 3.647166 1_655
Cl14 Rb1 3.755369 1_555
Cl15 In3 2.482669 1_555
Cl15 Rb4 3.457634 1_555
Cl15 Rb3 3.509578 1_555
Cl15 Rb0 3.647166 1_555
Cl15 Rb0 3.755369 1_655
Cl16 In2 2.482669 1_555
Cl16 Rb3 3.457634 1_556
Cl16 Rb4 3.509578 1_555
Cl16 Rb7 3.647166 1_655
Cl16 Rb7 3.755369 1_555
Cl17 In3 2.482669 1_555
Cl17 Rb2 3.457634 1_545
Cl17 Rb5 3.509578 1_545
Cl17 Rb6 3.647166 1_555
Cl17 Rb6 3.755369 1_655
Cl18 In0 2.482669 1_555
Cl18 Rb1 3.457634 1_564
Cl18 Rb6 3.509578 1_565
Cl18 Rb5 3.647166 1_455
Cl18 Rb5 3.755369 1_555
Cl19 In1 2.482669 1_555
Cl19 Rb0 3.457634 1_555
Cl19 Rb7 3.509578 1_555
Cl19 Rb4 3.647166 1_555
Cl19 Rb4 3.755369 1_455
O0 Rb5 3.221674 1_555
O0 Rb3 3.221674 1_555
O1 Rb2 3.221674 1_555
O1 Rb4 3.221674 1_555
O2 Rb1 3.221674 1_555
O2 Rb7 3.221674 1_555
O3 Rb6 3.221674 1_555
O3 Rb0 3.221674 1_555
