# generated using pymatgen
data_Li3Cr3SiO8
_symmetry_space_group_name_H-M   'P 1'
_cell_length_a   5.03114947
_cell_length_b   5.15313097
_cell_length_c   11.60741366
_cell_angle_alpha   90.00002732
_cell_angle_beta   90.00000466
_cell_angle_gamma   71.89910483
_symmetry_Int_Tables_number   1
_chemical_formula_structural   Li3Cr3SiO8
_chemical_formula_sum   'Li6 Cr6 Si2 O16'
_cell_volume   286.04275600
_cell_formula_units_Z   2
loop_
 _symmetry_equiv_pos_site_id
 _symmetry_equiv_pos_as_xyz
  1  'x, y, z'
loop_
 _atom_site_type_symbol
 _atom_site_label
 _atom_site_symmetry_multiplicity
 _atom_site_fract_x
 _atom_site_fract_y
 _atom_site_fract_z
 _atom_site_occupancy
  Li  Li0  1  0.99999800  0.00000200  0.25000100  1
  Li  Li1  1  0.00000200  0.99999900  0.75000000  1
  Li  Li2  1  0.49999900  0.00000300  0.11818400  1
  Li  Li3  1  0.50000000  0.00000000  0.61817900  1
  Li  Li4  1  0.50000100  0.00000100  0.38181700  1
  Li  Li5  1  0.49999900  0.00000000  0.88182100  1
  Cr  Cr0  1  0.49999700  0.49999700  0.24999700  1
  Cr  Cr1  1  0.00000700  0.50001100  0.62225100  1
  Cr  Cr2  1  0.00000100  0.50001000  0.87774600  1
  Cr  Cr3  1  0.50000800  0.49998600  0.74999900  1
  Cr  Cr4  1  0.99998900  0.50000800  0.12225100  1
  Cr  Cr5  1  0.99999500  0.49998800  0.37774700  1
  Si  Si0  1  0.49999900  0.50000200  0.00000400  1
  Si  Si1  1  0.49999700  0.50000500  0.49999600  1
  O  O0  1  0.27205000  0.29419400  0.00000100  1
  O  O1  1  0.27205300  0.29419400  0.50000100  1
  O  O2  1  0.72794700  0.70581200  0.49999900  1
  O  O3  1  0.72794400  0.70580700  0.00000200  1
  O  O4  1  0.23290000  0.27128300  0.24999900  1
  O  O5  1  0.23289700  0.27127900  0.75000000  1
  O  O6  1  0.76710600  0.72871800  0.25000200  1
  O  O7  1  0.76710500  0.72871400  0.75000100  1
  O  O8  1  0.28207400  0.70778900  0.11603300  1
  O  O9  1  0.28208400  0.70776600  0.61603400  1
  O  O10  1  0.71792100  0.29221900  0.11603700  1
  O  O11  1  0.71791900  0.29222700  0.61603000  1
  O  O12  1  0.28207700  0.70778700  0.38396700  1
  O  O13  1  0.28209100  0.70775800  0.88396700  1
  O  O14  1  0.71792000  0.29221900  0.38396500  1
  O  O15  1  0.71792200  0.29222600  0.88397000  1
loop_
_geom_bond_atom_site_label_1
_geom_bond_atom_site_label_2
_geom_bond_distance
_geom_bond_site_symmetry_2
Li0 O6 2.084477 1_545
Li0 O4 2.084503 1_655
Li0 O10 2.317674 1_555
Li0 O14 2.317676 1_555
Li0 O12 2.317689 1_645
Li0 O8 2.317693 1_645
Li1 O5 2.084471 1_565
Li1 O7 2.084501 1_455
Li1 O9 2.317737 1_555
Li1 O15 2.317750 1_465
Li1 O11 2.317759 1_465
Li1 O13 2.317779 1_555
Li2 O3 2.101192 1_545
Li2 O0 2.101192 1_555
Li2 O10 2.120406 1_555
Li2 O8 2.120408 1_545
Li2 O4 2.221207 1_555
Li2 O6 2.221259 1_545
Li3 O2 2.101157 1_545
Li3 O1 2.101160 1_555
Li3 O11 2.120444 1_555
Li3 O9 2.120464 1_545
Li3 O5 2.221261 1_555
Li3 O7 2.221289 1_545
Li4 O2 2.101174 1_545
Li4 O1 2.101203 1_555
Li4 O14 2.120404 1_555
Li4 O12 2.120404 1_545
Li4 O6 2.221226 1_545
Li4 O4 2.221240 1_555
Li5 O3 2.101176 1_546
Li5 O0 2.101177 1_556
Li5 O15 2.120454 1_555
Li5 O13 2.120470 1_545
Li5 O5 2.221259 1_555
Li5 O7 2.221275 1_545
Cr0 O10 2.009196 1_555
Cr0 O8 2.009257 1_555
Cr0 O14 2.009266 1_555
Cr0 O12 2.009300 1_555
Cr0 O4 2.044270 1_555
Cr0 O6 2.044348 1_555
Cr1 O7 2.025514 1_455
Cr1 O5 2.025542 1_555
Cr1 O9 2.027193 1_555
Cr1 O1 2.027258 1_555
Cr1 O2 2.027285 1_455
Cr1 O11 2.027354 1_455
Cr2 O7 2.025462 1_455
Cr2 O5 2.025526 1_555
Cr2 O13 2.027225 1_555
Cr2 O3 2.027303 1_456
Cr2 O0 2.027305 1_556
Cr2 O15 2.027316 1_455
Cr3 O11 2.009216 1_555
Cr3 O15 2.009242 1_555
Cr3 O13 2.009243 1_555
Cr3 O9 2.009245 1_555
Cr3 O5 2.044301 1_555
Cr3 O7 2.044326 1_555
Cr4 O6 2.025499 1_555
Cr4 O4 2.025561 1_655
Cr4 O3 2.027219 1_555
Cr4 O10 2.027284 1_555
Cr4 O0 2.027292 1_655
Cr4 O8 2.027328 1_655
Cr5 O6 2.025502 1_555
Cr5 O4 2.025507 1_655
Cr5 O14 2.027239 1_555
Cr5 O1 2.027285 1_655
Cr5 O2 2.027291 1_555
Cr5 O12 2.027385 1_655
O0 Si0 1.787685 1_555
O1 Si1 1.787676 1_555
O2 Si1 1.787685 1_555
O3 Si0 1.787656 1_555
O8 Si0 1.852835 1_555
O9 Si1 1.852834 1_555
O10 Si0 1.852856 1_555
O11 Si1 1.852854 1_555
O12 Si1 1.852816 1_555
O13 Si0 1.852805 1_556
O14 Si1 1.852846 1_555
O15 Si0 1.852851 1_556
