# generated using pymatgen
data_Li3NbS4
_symmetry_space_group_name_H-M   'P 1'
_cell_length_a   7.55800900
_cell_length_b   8.78194800
_cell_length_c   10.30763700
_cell_angle_alpha   90.00000000
_cell_angle_beta   90.00000000
_cell_angle_gamma   90.00000000
_symmetry_Int_Tables_number   1
_chemical_formula_structural   Li3NbS4
_chemical_formula_sum   'Li12 Nb4 S16'
_cell_volume   684.15953138
_cell_formula_units_Z   4
loop_
 _symmetry_equiv_pos_site_id
 _symmetry_equiv_pos_as_xyz
  1  'x, y, z'
loop_
 _atom_site_type_symbol
 _atom_site_label
 _atom_site_symmetry_multiplicity
 _atom_site_fract_x
 _atom_site_fract_y
 _atom_site_fract_z
 _atom_site_occupancy
  Li  Li0  1  0.16121300  0.75927600  0.57404600  1
  Li  Li1  1  0.16121300  0.75927600  0.92595400  1
  Li  Li2  1  0.02671400  0.90811100  0.25000000  1
  Li  Li3  1  0.47328600  0.40811100  0.75000000  1
  Li  Li4  1  0.33878700  0.25927600  0.07404600  1
  Li  Li5  1  0.33878700  0.25927600  0.42595400  1
  Li  Li6  1  0.66121300  0.74072400  0.57404600  1
  Li  Li7  1  0.66121300  0.74072400  0.92595400  1
  Li  Li8  1  0.52671400  0.59188900  0.25000000  1
  Li  Li9  1  0.97328600  0.09188900  0.75000000  1
  Li  Li10  1  0.83878700  0.24072400  0.07404600  1
  Li  Li11  1  0.83878700  0.24072400  0.42595400  1
  Nb  Nb0  1  0.12916500  0.49557700  0.25000000  1
  Nb  Nb1  1  0.37083500  0.99557700  0.75000000  1
  Nb  Nb2  1  0.62916500  0.00442300  0.25000000  1
  Nb  Nb3  1  0.87083500  0.50442300  0.75000000  1
  S  S0  1  0.86894300  0.61927600  0.25000000  1
  S  S1  1  0.20374200  0.04993000  0.56828600  1
  S  S2  1  0.20374200  0.04993000  0.93171400  1
  S  S3  1  0.08501500  0.23513300  0.25000000  1
  S  S4  1  0.41498500  0.73513300  0.75000000  1
  S  S5  1  0.29625800  0.54993000  0.06828600  1
  S  S6  1  0.29625800  0.54993000  0.43171400  1
  S  S7  1  0.63105700  0.11927600  0.75000000  1
  S  S8  1  0.36894300  0.88072400  0.25000000  1
  S  S9  1  0.70374200  0.45007000  0.56828600  1
  S  S10  1  0.70374200  0.45007000  0.93171400  1
  S  S11  1  0.58501500  0.26486700  0.25000000  1
  S  S12  1  0.91498500  0.76486700  0.75000000  1
  S  S13  1  0.79625800  0.95007000  0.06828600  1
  S  S14  1  0.79625800  0.95007000  0.43171400  1
  S  S15  1  0.13105700  0.38072400  0.75000000  1
loop_
_geom_bond_atom_site_label_1
_geom_bond_atom_site_label_2
_geom_bond_distance
_geom_bond_site_symmetry_2
Li0 S6 2.564006 1_555
Li0 S1 2.573353 1_565
Li0 S12 2.599059 1_455
Li0 S4 2.648229 1_555
Li1 S5 2.564006 1_556
Li1 S2 2.573353 1_565
Li1 S12 2.599059 1_455
Li1 S4 2.648229 1_555
Li2 S14 2.584162 1_455
Li2 S13 2.584162 1_455
Li2 S8 2.597728 1_555
Li2 S0 2.802839 1_455
Li2 S3 2.905498 1_565
Li3 S9 2.584162 1_555
Li3 S10 2.584162 1_555
Li3 S15 2.597728 1_555
Li3 S7 2.802839 1_555
Li3 S4 2.905498 1_555
Li4 S2 2.564006 1_554
Li4 S5 2.573353 1_555
Li4 S11 2.599059 1_555
Li4 S3 2.648229 1_555
Li5 S1 2.564006 1_555
Li5 S6 2.573353 1_555
Li5 S11 2.599059 1_555
Li5 S3 2.648229 1_555
Li6 S14 2.564006 1_555
Li6 S9 2.573353 1_555
Li6 S4 2.599059 1_555
Li6 S12 2.648229 1_555
Li7 S13 2.564006 1_556
Li7 S10 2.573353 1_555
Li7 S4 2.599059 1_555
Li7 S12 2.648229 1_555
Li8 S6 2.584162 1_555
Li8 S5 2.584162 1_555
Li8 S0 2.597728 1_555
Li8 S8 2.802839 1_555
Li8 S11 2.905498 1_555
Li9 S1 2.584162 1_655
Li9 S2 2.584162 1_655
Li9 S7 2.597728 1_555
Li9 S15 2.802839 1_655
Li9 S12 2.905498 1_545
Li10 S10 2.564006 1_554
Li10 S13 2.573353 1_545
Li10 S3 2.599059 1_655
Li10 S11 2.648229 1_555
Li11 S9 2.564006 1_555
Li11 S14 2.573353 1_545
Li11 S3 2.599059 1_655
Li11 S11 2.648229 1_555
Nb0 S0 2.246827 1_455
Nb0 S5 2.308900 1_555
Nb0 S6 2.308900 1_555
Nb0 S3 2.311419 1_555
Nb1 S7 2.246827 1_565
Nb1 S1 2.308900 1_565
Nb1 S2 2.308900 1_565
Nb1 S4 2.311419 1_555
Nb2 S8 2.246827 1_545
Nb2 S14 2.308900 1_545
Nb2 S13 2.308900 1_545
Nb2 S11 2.311419 1_555
Nb3 S15 2.246827 1_655
Nb3 S10 2.308900 1_555
Nb3 S9 2.308900 1_555
Nb3 S12 2.311419 1_555
