# generated using pymatgen
data_Li4Ti2Cr3Sn3O16
_symmetry_space_group_name_H-M   'P 1'
_cell_length_a   6.10770610
_cell_length_b   6.10770610
_cell_length_c   9.65523241
_cell_angle_alpha   89.38890560
_cell_angle_beta   89.38890560
_cell_angle_gamma   60.16061779
_symmetry_Int_Tables_number   1
_chemical_formula_structural   Li4Ti2Cr3Sn3O16
_chemical_formula_sum   'Li4 Ti2 Cr3 Sn3 O16'
_cell_volume   312.40448802
_cell_formula_units_Z   1
loop_
 _symmetry_equiv_pos_site_id
 _symmetry_equiv_pos_as_xyz
  1  'x, y, z'
loop_
 _atom_site_type_symbol
 _atom_site_label
 _atom_site_symmetry_multiplicity
 _atom_site_fract_x
 _atom_site_fract_y
 _atom_site_fract_z
 _atom_site_occupancy
  Li  Li0  1  0.67110600  0.67110600  0.88939200  1
  Li  Li1  1  0.98869500  0.98869500  0.99099500  1
  Li  Li2  1  0.99216900  0.99216900  0.50060900  1
  Li  Li3  1  0.33454800  0.33454800  0.39887100  1
  Ti  Ti0  1  0.67547300  0.67547300  0.49993500  1
  Ti  Ti1  1  0.34315000  0.34315000  0.98326100  1
  Cr  Cr0  1  0.82916300  0.82916300  0.21428700  1
  Cr  Cr1  1  0.65970600  0.17240500  0.71387300  1
  Cr  Cr2  1  0.17240500  0.65970600  0.71387300  1
  Sn  Sn0  1  0.83023700  0.33832200  0.21437000  1
  Sn  Sn1  1  0.33832200  0.83023700  0.21437000  1
  Sn  Sn2  1  0.17053200  0.17053200  0.71394800  1
  O  O0  1  0.83077300  0.33415700  0.59368600  1
  O  O1  1  0.51711000  0.51711000  0.34578200  1
  O  O2  1  0.67071100  0.67071100  0.09808800  1
  O  O3  1  0.99399000  0.99399000  0.31517800  1
  O  O4  1  0.99589800  0.99589800  0.80689400  1
  O  O5  1  0.33415700  0.83077300  0.59368600  1
  O  O6  1  0.95770400  0.52581100  0.34392100  1
  O  O7  1  0.52581100  0.95770400  0.34392100  1
  O  O8  1  0.16263900  0.16263900  0.09264900  1
  O  O9  1  0.82968900  0.82968900  0.59980300  1
  O  O10  1  0.48567500  0.04317900  0.84463800  1
  O  O11  1  0.04317900  0.48567500  0.84463800  1
  O  O12  1  0.33873500  0.33873500  0.60425700  1
  O  O13  1  0.66696700  0.16485000  0.09648900  1
  O  O14  1  0.47983400  0.47983400  0.83935400  1
  O  O15  1  0.16485000  0.66696700  0.09648900  1
loop_
_geom_bond_atom_site_label_1
_geom_bond_atom_site_label_2
_geom_bond_distance
_geom_bond_site_symmetry_2
Li0 O2 2.014961 1_556
Li0 O10 2.015432 1_565
Li0 O11 2.015432 1_655
Li0 O14 2.084506 1_555
Li1 O4 1.778230 1_555
Li1 O13 1.983214 1_566
Li1 O15 1.983214 1_656
Li1 O8 2.094851 1_666
Li2 O3 1.790246 1_555
Li2 O9 1.956116 1_555
Li2 O5 2.028400 1_655
Li2 O0 2.028400 1_565
Li3 O12 1.984089 1_555
Li3 O1 1.990535 1_555
Li3 O7 2.069030 1_545
Li3 O6 2.069030 1_455
Cr0 O3 2.006554 1_555
Cr0 O2 2.027382 1_555
Cr0 O6 2.034639 1_555
Cr0 O7 2.034639 1_555
Cr0 O15 2.105157 1_655
Cr0 O13 2.105157 1_565
Cr1 O4 2.000239 1_545
Cr1 O12 2.008677 1_555
Cr1 O10 2.032691 1_555
Cr1 O14 2.041521 1_555
Cr1 O0 2.095512 1_555
Cr1 O9 2.129455 1_545
Cr2 O4 2.000239 1_455
Cr2 O12 2.008677 1_555
Cr2 O11 2.032691 1_555
Cr2 O14 2.041521 1_555
Cr2 O5 2.095512 1_555
Cr2 O9 2.129455 1_455
O0 Ti0 2.018709 1_555
O0 Sn2 2.148522 1_655
O1 Sn0 2.087932 1_555
O1 Sn1 2.087932 1_555
O1 Ti0 2.253616 1_555
O2 Sn0 2.082689 1_555
O2 Sn1 2.082689 1_555
O3 Sn0 2.062651 1_565
O3 Sn1 2.062651 1_655
O4 Sn2 2.042543 1_665
O5 Ti0 2.018709 1_555
O5 Sn2 2.148522 1_565
O6 Sn0 2.102511 1_555
O6 Ti0 2.117081 1_555
O7 Sn1 2.102511 1_555
O7 Ti0 2.117081 1_555
O8 Sn0 2.112456 1_455
O8 Sn1 2.112456 1_545
O8 Ti1 2.169442 1_554
O9 Ti0 1.904146 1_555
O10 Ti1 2.084762 1_555
O10 Sn2 2.107867 1_555
O11 Ti1 2.084762 1_555
O11 Sn2 2.107867 1_555
O12 Sn2 2.058246 1_555
O13 Ti1 2.042083 1_554
O13 Sn0 2.124564 1_555
O14 Ti1 1.992114 1_555
O15 Ti1 2.042083 1_554
O15 Sn1 2.124564 1_555
