# generated using pymatgen
data_Li3P3(WO6)2
_symmetry_space_group_name_H-M   'P 1'
_cell_length_a   9.06925200
_cell_length_b   8.70716700
_cell_length_c   15.12459742
_cell_angle_alpha   55.14715072
_cell_angle_beta   90.00000000
_cell_angle_gamma   90.00000000
_symmetry_Int_Tables_number   1
_chemical_formula_structural   Li3P3(WO6)2
_chemical_formula_sum   'Li12 P12 W8 O48'
_cell_volume   980.11165686
_cell_formula_units_Z   4
loop_
 _symmetry_equiv_pos_site_id
 _symmetry_equiv_pos_as_xyz
  1  'x, y, z'
loop_
 _atom_site_type_symbol
 _atom_site_label
 _atom_site_symmetry_multiplicity
 _atom_site_fract_x
 _atom_site_fract_y
 _atom_site_fract_z
 _atom_site_occupancy
  Li  Li0  1  0.51351000  0.58537000  0.34811100  1
  Li  Li1  1  0.08675400  0.22862400  0.68571400  1
  Li  Li2  1  0.78270900  0.64419500  0.17852300  1
  Li  Li3  1  0.28270900  0.35580500  0.32147700  1
  Li  Li4  1  0.58675400  0.77137600  0.81428600  1
  Li  Li5  1  0.01351000  0.41463000  0.15188900  1
  Li  Li6  1  0.98649000  0.58537000  0.84811100  1
  Li  Li7  1  0.41324600  0.22862400  0.18571400  1
  Li  Li8  1  0.71729100  0.64419500  0.67852300  1
  Li  Li9  1  0.21729100  0.35580500  0.82147700  1
  Li  Li10  1  0.91324600  0.77137600  0.31428600  1
  Li  Li11  1  0.48649000  0.41463000  0.65188900  1
  P  P0  1  0.25187300  0.46593200  0.49012600  1
  P  P1  1  0.38025700  0.04524100  0.84426600  1
  P  P2  1  0.10913100  0.73373600  0.15137600  1
  P  P3  1  0.60913100  0.26626400  0.34862400  1
  P  P4  1  0.88025700  0.95475900  0.65573400  1
  P  P5  1  0.75187300  0.53406800  0.00987400  1
  P  P6  1  0.24812700  0.46593200  0.99012600  1
  P  P7  1  0.11974300  0.04524100  0.34426600  1
  P  P8  1  0.39086900  0.73373600  0.65137600  1
  P  P9  1  0.89086900  0.26626400  0.84862400  1
  P  P10  1  0.61974300  0.95475900  0.15573400  1
  P  P11  1  0.74812700  0.53406800  0.50987400  1
  W  W0  1  0.03060700  0.86215400  0.89429900  1
  W  W1  1  0.46365100  0.64774200  0.10827900  1
  W  W2  1  0.96365100  0.35225800  0.39172100  1
  W  W3  1  0.53060700  0.13784600  0.60570100  1
  W  W4  1  0.46939300  0.86215400  0.39429900  1
  W  W5  1  0.03634900  0.64774200  0.60827900  1
  W  W6  1  0.53634900  0.35225800  0.89172100  1
  W  W7  1  0.96939300  0.13784600  0.10570100  1
  O  O0  1  0.86984200  0.50702100  0.44875700  1
  O  O1  1  0.88462600  0.05858400  0.89511000  1
  O  O2  1  0.66872600  0.35208400  0.59897000  1
  O  O3  1  0.57680600  0.74984900  0.19283000  1
  O  O4  1  0.36151700  0.32880500  0.58002600  1
  O  O5  1  0.99659900  0.63424300  0.24809700  1
  O  O6  1  0.21118200  0.06454200  0.81975000  1
  O  O7  1  0.40621600  0.90522900  0.96390600  1
  O  O8  1  0.26088800  0.63319600  0.19103300  1
  O  O9  1  0.18654900  0.37014100  0.43820100  1
  O  O10  1  0.47224200  0.99448100  0.77768300  1
  O  O11  1  0.04479100  0.69460700  0.06972300  1
  O  O12  1  0.54479100  0.30539300  0.43027700  1
  O  O13  1  0.97224200  0.00551900  0.72231700  1
  O  O14  1  0.68654900  0.62985900  0.06179900  1
  O  O15  1  0.76088800  0.36680400  0.30896700  1
  O  O16  1  0.90621600  0.09477100  0.53609400  1
  O  O17  1  0.71118200  0.93545800  0.68025000  1
  O  O18  1  0.49659900  0.36575700  0.25190300  1
  O  O19  1  0.86151700  0.67119500  0.91997400  1
  O  O20  1  0.07680600  0.25015100  0.30717000  1
  O  O21  1  0.16872600  0.64791600  0.90103000  1
  O  O22  1  0.38462600  0.94141600  0.60489000  1
  O  O23  1  0.36984200  0.49297900  0.05124300  1
  O  O24  1  0.63015800  0.50702100  0.94875700  1
  O  O25  1  0.61537400  0.05858400  0.39511000  1
  O  O26  1  0.83127400  0.35208400  0.09897000  1
  O  O27  1  0.92319400  0.74984900  0.69283000  1
  O  O28  1  0.13848300  0.32880500  0.08002600  1
  O  O29  1  0.50340100  0.63424300  0.74809700  1
  O  O30  1  0.28881800  0.06454200  0.31975000  1
  O  O31  1  0.09378400  0.90522900  0.46390600  1
  O  O32  1  0.23911200  0.63319600  0.69103300  1
  O  O33  1  0.31345100  0.37014100  0.93820100  1
  O  O34  1  0.02775800  0.99448100  0.27768300  1
  O  O35  1  0.45520900  0.69460700  0.56972300  1
  O  O36  1  0.95520900  0.30539300  0.93027700  1
  O  O37  1  0.52775800  0.00551900  0.22231700  1
  O  O38  1  0.81345100  0.62985900  0.56179900  1
  O  O39  1  0.73911200  0.36680400  0.80896700  1
  O  O40  1  0.59378400  0.09477100  0.03609400  1
  O  O41  1  0.78881800  0.93545800  0.18025000  1
  O  O42  1  0.00340100  0.36575700  0.75190300  1
  O  O43  1  0.63848300  0.67119500  0.41997400  1
  O  O44  1  0.42319400  0.25015100  0.80717000  1
  O  O45  1  0.33127400  0.64791600  0.40103000  1
  O  O46  1  0.11537400  0.94141600  0.10489000  1
  O  O47  1  0.13015800  0.49297900  0.55124300  1
loop_
_geom_bond_atom_site_label_1
_geom_bond_atom_site_label_2
_geom_bond_distance
_geom_bond_site_symmetry_2
Li0 O43 1.988153 1_555
Li0 O3 2.012971 1_555
Li0 O12 2.026125 1_555
Li0 O45 2.041310 1_555
Li1 O13 1.982326 1_455
Li1 O6 2.028300 1_555
Li1 O47 2.058884 1_555
Li1 O42 2.089390 1_555
Li2 O14 2.035843 1_555
Li2 O15 2.078191 1_555
Li2 O3 2.146573 1_555
Li2 O5 2.184832 1_555
Li2 O41 2.551694 1_555
Li3 O9 2.035843 1_555
Li3 O8 2.078191 1_555
Li3 O20 2.146573 1_555
Li3 O18 2.184832 1_555
Li3 O30 2.551694 1_555
Li4 O10 1.982326 1_555
Li4 O17 2.028300 1_555
Li4 O24 2.058884 1_555
Li4 O29 2.089390 1_555
Li5 O28 1.988153 1_555
Li5 O20 2.012971 1_555
Li5 O11 2.026125 1_555
Li5 O26 2.041310 1_455
Li6 O19 1.988153 1_555
Li6 O27 2.012971 1_555
Li6 O36 2.026125 1_555
Li6 O21 2.041310 1_655
Li7 O37 1.982326 1_555
Li7 O30 2.028300 1_555
Li7 O23 2.058884 1_555
Li7 O18 2.089390 1_555
Li8 O38 2.035843 1_555
Li8 O39 2.078191 1_555
Li8 O27 2.146573 1_555
Li8 O29 2.184832 1_555
Li8 O17 2.551694 1_555
Li9 O33 2.035843 1_555
Li9 O32 2.078191 1_555
Li9 O44 2.146573 1_555
Li9 O42 2.184832 1_555
Li9 O6 2.551694 1_555
Li10 O34 1.982326 1_655
Li10 O41 2.028300 1_555
Li10 O0 2.058884 1_555
Li10 O5 2.089390 1_555
Li11 O4 1.988153 1_555
Li11 O44 2.012971 1_555
Li11 O35 2.026125 1_555
Li11 O2 2.041310 1_555
O0 P11 1.541832 1_555
O0 W2 2.147670 1_555
O1 P9 1.521307 1_555
O1 W0 2.168464 1_645
O2 P11 1.550737 1_555
O2 W3 2.200489 1_555
O3 P10 1.582914 1_555
O3 W1 2.185946 1_555
O4 P0 1.551669 1_555
O4 W3 2.128174 1_555
O5 P2 1.575948 1_655
O5 W2 2.177277 1_555
O6 P1 1.563898 1_555
O6 W0 2.188099 1_545
O7 P1 1.514812 1_565
O7 W1 2.114360 1_556
O8 P2 1.555715 1_555
O8 W1 2.187007 1_555
O9 P0 1.553088 1_555
O9 W2 2.174876 1_455
O10 P1 1.553748 1_565
O10 W3 2.212081 1_565
O11 P2 1.569273 1_555
O11 W0 2.181841 1_554
O12 P3 1.569273 1_555
O12 W3 2.181841 1_555
O13 P4 1.553748 1_545
O13 W0 2.212081 1_645
O14 P5 1.553088 1_555
O14 W1 2.174876 1_555
O15 P3 1.555715 1_555
O15 W2 2.187007 1_555
O16 P4 1.514812 1_545
O16 W2 2.114360 1_555
O17 P4 1.563898 1_555
O17 W3 2.188099 1_565
O18 P3 1.575948 1_555
O18 W1 2.177277 1_555
O19 P5 1.551669 1_556
O19 W0 2.128174 1_655
O20 P7 1.582914 1_555
O20 W2 2.185946 1_455
O21 P6 1.550737 1_555
O21 W0 2.200489 1_555
O22 P8 1.521307 1_555
O22 W3 2.168464 1_565
O23 P6 1.541832 1_554
O23 W1 2.147670 1_555
O24 P5 1.541832 1_556
O24 W6 2.147670 1_555
O25 P3 1.521307 1_555
O25 W4 2.168464 1_545
O26 P5 1.550737 1_555
O26 W7 2.200489 1_555
O27 P4 1.582914 1_555
O27 W5 2.185946 1_655
O28 P6 1.551669 1_554
O28 W7 2.128174 1_455
O29 P8 1.575948 1_555
O29 W6 2.177277 1_555
O30 P7 1.563898 1_555
O30 W4 2.188099 1_545
O31 P7 1.514812 1_565
O31 W5 2.114360 1_555
O32 P8 1.555715 1_555
O32 W5 2.187007 1_555
O33 P6 1.553088 1_555
O33 W6 2.174876 1_555
O34 P7 1.553748 1_565
O34 W7 2.212081 1_465
O35 P8 1.569273 1_555
O35 W4 2.181841 1_555
O36 P9 1.569273 1_555
O36 W7 2.181841 1_556
O37 P10 1.553748 1_545
O37 W4 2.212081 1_545
O38 P11 1.553088 1_555
O38 W5 2.174876 1_655
O39 P9 1.555715 1_555
O39 W6 2.187007 1_555
O40 P10 1.514812 1_545
O40 W6 2.114360 1_554
O41 P10 1.563898 1_555
O41 W7 2.188099 1_565
O42 P9 1.575948 1_455
O42 W5 2.177277 1_555
O43 P11 1.551669 1_555
O43 W4 2.128174 1_555
O44 P1 1.582914 1_555
O44 W6 2.185946 1_555
O45 P0 1.550737 1_555
O45 W4 2.200489 1_555
O46 P2 1.521307 1_555
O46 W7 2.168464 1_465
O47 P0 1.541832 1_555
O47 W5 2.147670 1_555
