# generated using pymatgen
data_Li4Cu3Ni3(TeO8)2
_symmetry_space_group_name_H-M   'P 1'
_cell_length_a   5.90431540
_cell_length_b   5.90431540
_cell_length_c   9.70895398
_cell_angle_alpha   89.30872682
_cell_angle_beta   89.30872682
_cell_angle_gamma   60.29303961
_symmetry_Int_Tables_number   1
_chemical_formula_structural   Li4Cu3Ni3(TeO8)2
_chemical_formula_sum   'Li4 Cu3 Ni3 Te2 O16'
_cell_volume   293.95087128
_cell_formula_units_Z   1
loop_
 _symmetry_equiv_pos_site_id
 _symmetry_equiv_pos_as_xyz
  1  'x, y, z'
loop_
 _atom_site_type_symbol
 _atom_site_label
 _atom_site_symmetry_multiplicity
 _atom_site_fract_x
 _atom_site_fract_y
 _atom_site_fract_z
 _atom_site_occupancy
  Li  Li0  1  0.66236400  0.66236400  0.08880100  1
  Li  Li1  1  0.00537200  0.00537200  0.01355400  1
  Li  Li2  1  0.00138600  0.00138600  0.51592700  1
  Li  Li3  1  0.32679600  0.32679600  0.58704000  1
  Cu  Cu0  1  0.33999500  0.82587800  0.78803800  1
  Cu  Cu1  1  0.82587800  0.33999500  0.78803800  1
  Cu  Cu2  1  0.16864500  0.16864500  0.28827000  1
  Ni  Ni0  1  0.82927300  0.82927300  0.78729600  1
  Ni  Ni1  1  0.16973000  0.65919200  0.28748800  1
  Ni  Ni2  1  0.65919200  0.16973000  0.28748800  1
  Te  Te0  1  0.66628300  0.66628300  0.51571700  1
  Te  Te1  1  0.33651100  0.33651100  0.01877200  1
  O  O0  1  0.33879200  0.83058600  0.41069500  1
  O  O1  1  0.51129200  0.51129200  0.63821700  1
  O  O2  1  0.65671600  0.65671600  0.88248300  1
  O  O3  1  0.00884600  0.00884600  0.70808600  1
  O  O4  1  0.00545300  0.00545300  0.20412200  1
  O  O5  1  0.83058600  0.33879200  0.41069500  1
  O  O6  1  0.51538100  0.96146000  0.64915700  1
  O  O7  1  0.96146000  0.51538100  0.64915700  1
  O  O8  1  0.17642900  0.17642900  0.91059200  1
  O  O9  1  0.83204000  0.83204000  0.41217400  1
  O  O10  1  0.03210100  0.48426200  0.14705800  1
  O  O11  1  0.48426200  0.03210100  0.14705800  1
  O  O12  1  0.32529700  0.32529700  0.38296700  1
  O  O13  1  0.17073700  0.66615500  0.91157300  1
  O  O14  1  0.48223700  0.48223700  0.15010000  1
  O  O15  1  0.66615500  0.17073700  0.91157300  1
loop_
_geom_bond_atom_site_label_1
_geom_bond_atom_site_label_2
_geom_bond_distance
_geom_bond_site_symmetry_2
Li0 O14 1.925328 1_555
Li0 O10 1.982822 1_655
Li0 O11 1.982822 1_565
Li0 O2 2.004766 1_554
Li1 O4 1.850228 1_555
Li1 O8 2.000420 1_554
Li1 O13 2.007833 1_544
Li1 O15 2.007833 1_454
Li2 O3 1.868279 1_555
Li2 O0 2.003517 1_545
Li2 O5 2.003517 1_455
Li2 O9 2.013378 1_445
Li3 O1 1.955083 1_555
Li3 O6 1.964876 1_545
Li3 O7 1.964876 1_455
Li3 O12 1.981608 1_555
Cu0 O2 1.871755 1_555
Cu0 O3 1.874931 1_565
Cu0 O13 2.050482 1_555
Cu0 O6 2.072001 1_555
Cu0 O8 2.164011 1_565
Cu0 O1 2.180955 1_555
Cu1 O2 1.871755 1_555
Cu1 O3 1.874931 1_655
Cu1 O15 2.050482 1_555
Cu1 O7 2.072001 1_555
Cu1 O8 2.164011 1_655
Cu1 O1 2.180955 1_555
Cu2 O12 1.856127 1_555
Cu2 O4 1.866128 1_555
Cu2 O0 2.095291 1_545
Cu2 O5 2.095291 1_455
Cu2 O10 2.116198 1_555
Cu2 O11 2.116198 1_555
Ni0 O2 1.978253 1_555
Ni0 O3 1.978519 1_665
Ni0 O7 2.108030 1_555
Ni0 O6 2.108030 1_555
Ni0 O15 2.134084 1_565
Ni0 O13 2.134084 1_655
Ni1 O12 1.941967 1_555
Ni1 O4 1.946599 1_565
Ni1 O14 2.083017 1_555
Ni1 O9 2.106460 1_455
Ni1 O10 2.116267 1_555
Ni1 O0 2.123814 1_555
Ni2 O12 1.941967 1_555
Ni2 O4 1.946599 1_655
Ni2 O14 2.083017 1_555
Ni2 O9 2.106460 1_545
Ni2 O11 2.116267 1_555
Ni2 O5 2.123814 1_555
O0 Te0 1.970834 1_555
O1 Te0 1.966444 1_555
O5 Te0 1.970834 1_555
O6 Te0 1.999333 1_555
O7 Te0 1.999333 1_555
O8 Te1 1.955303 1_556
O9 Te0 1.956551 1_555
O10 Te1 1.990209 1_555
O11 Te1 1.990209 1_555
O13 Te1 1.979143 1_556
O14 Te1 1.973088 1_555
O15 Te1 1.979143 1_556
