# generated using pymatgen
data_LiAgF2
_symmetry_space_group_name_H-M   'P 1'
_cell_length_a   3.03508861
_cell_length_b   3.03508861
_cell_length_c   6.09283487
_cell_angle_alpha   89.03485777
_cell_angle_beta   89.03485777
_cell_angle_gamma   60.62304474
_symmetry_Int_Tables_number   1
_chemical_formula_structural   LiAgF2
_chemical_formula_sum   'Li1 Ag1 F2'
_cell_volume   48.89929575
_cell_formula_units_Z   1
loop_
 _symmetry_equiv_pos_site_id
 _symmetry_equiv_pos_as_xyz
  1  'x, y, z'
loop_
 _atom_site_type_symbol
 _atom_site_label
 _atom_site_symmetry_multiplicity
 _atom_site_fract_x
 _atom_site_fract_y
 _atom_site_fract_z
 _atom_site_occupancy
  Li  Li0  1  0.50000000  0.50000000  0.50000000  1
  Ag  Ag0  1  0.00000000  0.00000000  0.00000000  1
  F  F0  1  0.17169600  0.17169600  0.31898800  1
  F  F1  1  0.82830400  0.82830400  0.68101200  1
loop_
_geom_bond_atom_site_label_1
_geom_bond_atom_site_label_2
_geom_bond_distance
_geom_bond_site_symmetry_2
Ag0 F0 2.157576 1_555
Ag0 F1 2.157576 1_444
F0 Li0 2.061613 1_555
F0 Li0 2.081732 1_545
F0 Li0 2.081732 1_455
F1 Li0 2.061613 1_555
F1 Li0 2.081732 1_655
F1 Li0 2.081732 1_565
