# generated using pymatgen
data_BaYF5
_symmetry_space_group_name_H-M   'P 1'
_cell_length_a   20.47084800
_cell_length_b   6.08254600
_cell_length_c   9.53887195
_cell_angle_alpha   56.83349819
_cell_angle_beta   90.00000000
_cell_angle_gamma   90.00000000
_symmetry_Int_Tables_number   1
_chemical_formula_structural   BaYF5
_chemical_formula_sum   'Ba8 Y8 F40'
_cell_volume   994.23135145
_cell_formula_units_Z   8
loop_
 _symmetry_equiv_pos_site_id
 _symmetry_equiv_pos_as_xyz
  1  'x, y, z'
loop_
 _atom_site_type_symbol
 _atom_site_label
 _atom_site_symmetry_multiplicity
 _atom_site_fract_x
 _atom_site_fract_y
 _atom_site_fract_z
 _atom_site_occupancy
  Ba  Ba0  1  0.54965800  0.37587000  0.76539100  1
  Ba  Ba1  1  0.27551600  0.80843300  0.46800500  1
  Ba  Ba2  1  0.04965800  0.62413000  0.73460900  1
  Ba  Ba3  1  0.77551600  0.19156700  0.03199500  1
  Ba  Ba4  1  0.22448400  0.80843300  0.96800500  1
  Ba  Ba5  1  0.95034200  0.37587000  0.26539100  1
  Ba  Ba6  1  0.72448400  0.19156700  0.53199500  1
  Ba  Ba7  1  0.45034200  0.62413000  0.23460900  1
  Y  Y0  1  0.36954600  0.30381600  0.97320900  1
  Y  Y1  1  0.86954600  0.69618400  0.52679100  1
  Y  Y2  1  0.09886900  0.05650100  0.15077600  1
  Y  Y3  1  0.59886900  0.94349900  0.34922400  1
  Y  Y4  1  0.40113100  0.05650100  0.65077600  1
  Y  Y5  1  0.90113100  0.94349900  0.84922400  1
  Y  Y6  1  0.13045400  0.30381600  0.47320900  1
  Y  Y7  1  0.63045400  0.69618400  0.02679100  1
  F  F0  1  0.11686200  0.13093300  0.90377800  1
  F  F1  1  0.36620500  0.46364800  0.51841500  1
  F  F2  1  0.15646200  0.56103900  0.55481600  1
  F  F3  1  0.92468800  0.36754300  0.74533200  1
  F  F4  1  0.58607400  0.93546100  0.12120500  1
  F  F5  1  0.34072900  0.92080700  0.18582800  1
  F  F6  1  0.28408700  0.31115600  0.83511700  1
  F  F7  1  0.19954100  0.90196200  0.20929500  1
  F  F8  1  0.96798400  0.79569000  0.42327300  1
  F  F9  1  0.50508900  0.76197400  0.43956800  1
  F  F10  1  0.78408700  0.68884400  0.66488300  1
  F  F11  1  0.00508900  0.23802600  0.06043200  1
  F  F12  1  0.46798400  0.20431000  0.07672700  1
  F  F13  1  0.69954100  0.09803800  0.29070500  1
  F  F14  1  0.42468800  0.63245700  0.75466800  1
  F  F15  1  0.65646200  0.43896100  0.94518400  1
  F  F16  1  0.84072900  0.07919300  0.31417200  1
  F  F17  1  0.08607400  0.06453900  0.37879500  1
  F  F18  1  0.86620500  0.53635200  0.98158500  1
  F  F19  1  0.61686200  0.86906700  0.59622200  1
  F  F20  1  0.38313800  0.13093300  0.40377800  1
  F  F21  1  0.13379500  0.46364800  0.01841500  1
  F  F22  1  0.91392600  0.93546100  0.62120500  1
  F  F23  1  0.15927100  0.92080700  0.68582800  1
  F  F24  1  0.34353800  0.56103900  0.05481600  1
  F  F25  1  0.57531200  0.36754300  0.24533200  1
  F  F26  1  0.30045900  0.90196200  0.70929500  1
  F  F27  1  0.53201600  0.79569000  0.92327300  1
  F  F28  1  0.99491100  0.76197400  0.93956800  1
  F  F29  1  0.21591300  0.31115600  0.33511700  1
  F  F30  1  0.49491100  0.23802600  0.56043200  1
  F  F31  1  0.03201600  0.20431000  0.57672700  1
  F  F32  1  0.80045900  0.09803800  0.79070500  1
  F  F33  1  0.71591300  0.68884400  0.16488300  1
  F  F34  1  0.65927100  0.07919300  0.81417200  1
  F  F35  1  0.41392600  0.06453900  0.87879500  1
  F  F36  1  0.07531200  0.63245700  0.25466800  1
  F  F37  1  0.84353800  0.43896100  0.44518400  1
  F  F38  1  0.63379500  0.53635200  0.48158500  1
  F  F39  1  0.88313800  0.86906700  0.09622200  1
loop_
_geom_bond_atom_site_label_1
_geom_bond_atom_site_label_2
_geom_bond_distance
_geom_bond_site_symmetry_2
Ba0 F30 2.752248 1_555
Ba0 F34 2.754840 1_555
Ba0 F9 2.832159 1_555
Ba0 F19 2.863444 1_555
Ba0 F38 2.890820 1_555
Ba0 F15 2.930680 1_555
Ba0 F14 2.969207 1_555
Ba0 F27 3.006177 1_545
Ba0 F4 3.050141 1_546
Ba0 F12 3.051749 1_556
Ba0 F35 3.199251 1_555
Ba1 F1 2.640547 1_555
Ba1 F7 2.701197 1_555
Ba1 F26 2.704541 1_555
Ba1 F5 2.735197 1_555
Ba1 F2 2.743416 1_555
Ba1 F20 2.786049 1_565
Ba1 F29 2.864407 1_565
Ba1 F6 3.138989 1_555
Ba2 F28 2.752248 1_455
Ba2 F23 2.754840 1_555
Ba2 F11 2.832159 1_556
Ba2 F0 2.863444 1_555
Ba2 F21 2.890820 1_556
Ba2 F2 2.930680 1_555
Ba2 F3 2.969207 1_455
Ba2 F31 3.006177 1_565
Ba2 F17 3.050141 1_565
Ba2 F8 3.051749 1_455
Ba2 F22 3.199251 1_455
Ba3 F18 2.640547 1_554
Ba3 F13 2.701197 1_555
Ba3 F32 2.704541 1_554
Ba3 F16 2.735197 1_555
Ba3 F15 2.743416 1_554
Ba3 F39 2.786049 1_545
Ba3 F33 2.864407 1_545
Ba3 F10 3.138989 1_554
Ba4 F21 2.640547 1_556
Ba4 F26 2.701197 1_555
Ba4 F7 2.704541 1_556
Ba4 F23 2.735197 1_555
Ba4 F24 2.743416 1_556
Ba4 F0 2.786049 1_565
Ba4 F6 2.864407 1_565
Ba4 F29 3.138989 1_556
Ba5 F11 2.752248 1_655
Ba5 F16 2.754840 1_555
Ba5 F28 2.832159 1_554
Ba5 F39 2.863444 1_555
Ba5 F18 2.890820 1_554
Ba5 F37 2.930680 1_555
Ba5 F36 2.969207 1_655
Ba5 F8 3.006177 1_545
Ba5 F22 3.050141 1_545
Ba5 F31 3.051749 1_655
Ba5 F17 3.199251 1_655
Ba6 F38 2.640547 1_555
Ba6 F32 2.701197 1_555
Ba6 F13 2.704541 1_555
Ba6 F34 2.735197 1_555
Ba6 F37 2.743416 1_555
Ba6 F19 2.786049 1_545
Ba6 F10 2.864407 1_545
Ba6 F33 3.138989 1_555
Ba7 F9 2.752248 1_555
Ba7 F5 2.754840 1_555
Ba7 F30 2.832159 1_555
Ba7 F20 2.863444 1_555
Ba7 F1 2.890820 1_555
Ba7 F24 2.930680 1_555
Ba7 F25 2.969207 1_555
Ba7 F12 3.006177 1_565
Ba7 F35 3.050141 1_564
Ba7 F27 3.051749 1_554
Ba7 F4 3.199251 1_555
F0 Y2 2.173627 1_556
F1 Y4 2.194799 1_555
F2 Y6 2.160993 1_555
F3 Y1 2.248631 1_555
F3 Y5 2.251785 1_545
F4 Y3 2.217693 1_555
F4 Y7 2.277901 1_555
F5 Y0 2.172321 1_564
F6 Y0 2.175600 1_555
F7 Y2 2.206385 1_565
F8 Y1 2.179019 1_555
F9 Y3 2.146191 1_555
F10 Y1 2.175600 1_555
F11 Y2 2.146191 1_555
F12 Y0 2.179019 1_554
F13 Y3 2.206385 1_545
F14 Y0 2.248631 1_555
F14 Y4 2.251785 1_565
F15 Y7 2.160993 1_556
F16 Y1 2.172321 1_545
F17 Y2 2.217693 1_555
F17 Y6 2.277901 1_555
F18 Y5 2.194799 1_555
F19 Y3 2.173627 1_555
F20 Y4 2.173627 1_555
F21 Y2 2.194799 1_555
F22 Y5 2.217693 1_555
F22 Y1 2.277901 1_555
F23 Y6 2.172321 1_565
F24 Y0 2.160993 1_554
F25 Y7 2.248631 1_555
F25 Y3 2.251785 1_545
F26 Y4 2.206385 1_565
F27 Y7 2.179019 1_556
F28 Y5 2.146191 1_555
F29 Y6 2.175600 1_555
F30 Y4 2.146191 1_555
F31 Y6 2.179019 1_555
F32 Y5 2.206385 1_545
F33 Y7 2.175600 1_555
F34 Y7 2.172321 1_546
F35 Y4 2.217693 1_555
F35 Y0 2.277901 1_555
F36 Y6 2.248631 1_555
F36 Y2 2.251785 1_565
F37 Y1 2.160993 1_555
F38 Y3 2.194799 1_555
F39 Y5 2.173627 1_554
