# generated using pymatgen
data_Fe4O7F
_symmetry_space_group_name_H-M   'P 1'
_cell_length_a   4.61929100
_cell_length_b   4.62045800
_cell_length_c   12.00803491
_cell_angle_alpha   89.96766386
_cell_angle_beta   90.00000000
_cell_angle_gamma   90.00000000
_symmetry_Int_Tables_number   1
_chemical_formula_structural   Fe4O7F
_chemical_formula_sum   'Fe8 O14 F2'
_cell_volume   256.29033091
_cell_formula_units_Z   2
loop_
 _symmetry_equiv_pos_site_id
 _symmetry_equiv_pos_as_xyz
  1  'x, y, z'
loop_
 _atom_site_type_symbol
 _atom_site_label
 _atom_site_symmetry_multiplicity
 _atom_site_fract_x
 _atom_site_fract_y
 _atom_site_fract_z
 _atom_site_occupancy
  Fe  Fe0  1  0.99204600  0.25487600  0.81770900  1
  Fe  Fe1  1  0.99538900  0.24858400  0.06315500  1
  Fe  Fe2  1  0.01839000  0.27238100  0.31133500  1
  Fe  Fe3  1  0.99019900  0.25353500  0.55777200  1
  Fe  Fe4  1  0.49538900  0.75141600  0.93684500  1
  Fe  Fe5  1  0.49019900  0.74646500  0.44222800  1
  Fe  Fe6  1  0.51839000  0.72761900  0.68866500  1
  Fe  Fe7  1  0.49204600  0.74512400  0.18229100  1
  O  O0  1  0.80139200  0.44366400  0.94185300  1
  O  O1  1  0.80548700  0.45081300  0.43236200  1
  O  O2  1  0.81646100  0.42692400  0.68863500  1
  O  O3  1  0.80917800  0.44547300  0.18746200  1
  O  O4  1  0.30917800  0.55452700  0.81253800  1
  O  O5  1  0.30139200  0.55633600  0.05814700  1
  O  O6  1  0.31646100  0.57307600  0.31136500  1
  O  O7  1  0.30548700  0.54918700  0.56763800  1
  O  O8  1  0.69143900  0.93666400  0.81276500  1
  O  O9  1  0.68791000  0.94250800  0.06092000  1
  O  O10  1  0.69276800  0.93792700  0.56481300  1
  O  O11  1  0.18791000  0.05749200  0.93908000  1
  O  O12  1  0.19143900  0.06333600  0.18723500  1
  O  O13  1  0.19276800  0.06207300  0.43518700  1
  F  F0  1  0.69934300  0.95488400  0.31146700  1
  F  F1  1  0.19934300  0.04511600  0.68853300  1
loop_
_geom_bond_atom_site_label_1
_geom_bond_atom_site_label_2
_geom_bond_distance
_geom_bond_site_symmetry_2
Fe0 O2 1.921108 1_555
Fe0 O0 1.939130 1_555
Fe0 O11 1.942401 1_655
Fe0 O4 2.016599 1_655
Fe0 O8 2.023252 1_545
Fe1 O0 1.932794 1_554
Fe1 O12 1.941979 1_655
Fe1 O11 1.947234 1_654
Fe1 O3 1.948615 1_555
Fe1 O9 2.004522 1_545
Fe1 O5 2.005868 1_655
Fe2 O1 1.939153 1_455
Fe2 O3 1.945457 1_455
Fe2 O12 1.947877 1_555
Fe2 O13 1.950196 1_555
Fe2 O6 1.956037 1_555
Fe3 O2 1.938206 1_555
Fe3 O1 1.955797 1_555
Fe3 O13 1.956129 1_655
Fe3 O7 2.000356 1_655
Fe3 O10 2.005285 1_545
Fe4 O5 1.932794 1_556
Fe4 O8 1.941979 1_555
Fe4 O9 1.947234 1_556
Fe4 O4 1.948615 1_555
Fe4 O11 2.004522 1_565
Fe4 O0 2.005868 1_555
Fe5 O6 1.938206 1_555
Fe5 O7 1.955797 1_555
Fe5 O10 1.956129 1_555
Fe5 O1 2.000356 1_555
Fe5 O13 2.005285 1_565
Fe6 O7 1.939153 1_555
Fe6 O4 1.945457 1_555
Fe6 O8 1.947877 1_555
Fe6 O10 1.950196 1_555
Fe6 O2 1.956037 1_555
Fe7 O6 1.921108 1_555
Fe7 O5 1.939130 1_555
Fe7 O9 1.942401 1_555
Fe7 O3 2.016599 1_555
Fe7 O12 2.023252 1_565
F0 Fe7 2.064950 1_555
F0 Fe2 2.079432 1_665
F0 Fe5 2.079534 1_555
F1 Fe0 2.064950 1_455
F1 Fe6 2.079432 1_545
F1 Fe3 2.079534 1_455
