# generated using pymatgen
data_Li3CrB4O9
_symmetry_space_group_name_H-M   'P 1'
_cell_length_a   8.54380300
_cell_length_b   5.89267600
_cell_length_c   6.70440179
_cell_angle_alpha   76.61829052
_cell_angle_beta   90.00000000
_cell_angle_gamma   90.00000000
_symmetry_Int_Tables_number   1
_chemical_formula_structural   Li3CrB4O9
_chemical_formula_sum   'Li6 Cr2 B8 O18'
_cell_volume   328.37464779
_cell_formula_units_Z   2
loop_
 _symmetry_equiv_pos_site_id
 _symmetry_equiv_pos_as_xyz
  1  'x, y, z'
loop_
 _atom_site_type_symbol
 _atom_site_label
 _atom_site_symmetry_multiplicity
 _atom_site_fract_x
 _atom_site_fract_y
 _atom_site_fract_z
 _atom_site_occupancy
  Li  Li0  1  0.43560500  0.76208100  0.16008000  1
  Li  Li1  1  0.06439500  0.76208100  0.16008000  1
  Li  Li2  1  0.75000000  0.58569100  0.50187500  1
  Li  Li3  1  0.25000000  0.41430900  0.49812500  1
  Li  Li4  1  0.93560500  0.23791900  0.83992000  1
  Li  Li5  1  0.56439500  0.23791900  0.83992000  1
  Cr  Cr0  1  0.75000000  0.75164300  0.88701200  1
  Cr  Cr1  1  0.25000000  0.24835700  0.11298800  1
  B  B0  1  0.75000000  0.99838000  0.23128300  1
  B  B1  1  0.25000000  0.86394400  0.45883600  1
  B  B2  1  0.45741900  0.71727600  0.71674100  1
  B  B3  1  0.04258100  0.71727600  0.71674100  1
  B  B4  1  0.95741900  0.28272400  0.28325900  1
  B  B5  1  0.54258100  0.28272400  0.28325900  1
  B  B6  1  0.75000000  0.13605600  0.54116400  1
  B  B7  1  0.25000000  0.00162000  0.76871700  1
  O  O0  1  0.39586000  0.85433700  0.84279000  1
  O  O1  1  0.10414000  0.85433700  0.84279000  1
  O  O2  1  0.75000000  0.93341800  0.45373800  1
  O  O3  1  0.25000000  0.91982800  0.23602900  1
  O  O4  1  0.38945100  0.70955700  0.53210900  1
  O  O5  1  0.11054900  0.70955700  0.53210900  1
  O  O6  1  0.75000000  0.78836000  0.15517800  1
  O  O7  1  0.91107500  0.58294500  0.77824500  1
  O  O8  1  0.58892500  0.58294500  0.77824500  1
  O  O9  1  0.08892500  0.41705500  0.22175500  1
  O  O10  1  0.41107500  0.41705500  0.22175500  1
  O  O11  1  0.25000000  0.21164000  0.84482200  1
  O  O12  1  0.88945100  0.29044300  0.46789100  1
  O  O13  1  0.61054900  0.29044300  0.46789100  1
  O  O14  1  0.75000000  0.08017200  0.76397100  1
  O  O15  1  0.25000000  0.06658200  0.54626200  1
  O  O16  1  0.89586000  0.14566300  0.15721000  1
  O  O17  1  0.60414000  0.14566300  0.15721000  1
loop_
_geom_bond_atom_site_label_1
_geom_bond_atom_site_label_2
_geom_bond_distance
_geom_bond_site_symmetry_2
Li0 O3 1.963952 1_555
Li0 O10 1.989817 1_555
Li0 O0 2.097787 1_554
Li0 O4 2.472884 1_555
Li1 O3 1.963952 1_555
Li1 O9 1.989817 1_555
Li1 O1 2.097787 1_554
Li1 O5 2.472884 1_555
Li2 O2 1.999159 1_555
Li2 O12 2.163755 1_555
Li2 O13 2.163755 1_555
Li2 O7 2.305106 1_555
Li2 O8 2.305106 1_555
Li2 O6 2.354606 1_555
Li3 O15 1.999159 1_555
Li3 O5 2.163755 1_555
Li3 O4 2.163755 1_555
Li3 O10 2.305106 1_555
Li3 O9 2.305106 1_555
Li3 O11 2.354606 1_555
Li4 O14 1.963952 1_555
Li4 O7 1.989817 1_555
Li4 O16 2.097787 1_556
Li4 O12 2.472884 1_555
Li5 O14 1.963952 1_555
Li5 O8 1.989817 1_555
Li5 O17 2.097787 1_556
Li5 O13 2.472884 1_555
Cr0 O6 1.859916 1_556
Cr0 O14 1.920692 1_565
Cr0 O7 1.936338 1_555
Cr0 O8 1.936338 1_555
Cr1 O11 1.859916 1_554
Cr1 O3 1.920692 1_545
Cr1 O10 1.936338 1_555
Cr1 O9 1.936338 1_555
B0 O6 1.443688 1_555
B0 O2 1.451423 1_555
B0 O17 1.534070 1_565
B0 O16 1.534070 1_565
B1 O15 1.446842 1_565
B1 O3 1.453324 1_555
B1 O4 1.510511 1_555
B1 O5 1.510511 1_555
B2 O4 1.377539 1_555
B2 O8 1.381274 1_555
B2 O0 1.399651 1_555
B3 O5 1.377539 1_555
B3 O7 1.381274 1_455
B3 O1 1.399651 1_555
B4 O12 1.377539 1_555
B4 O9 1.381274 1_655
B4 O16 1.399651 1_555
B5 O13 1.377539 1_555
B5 O10 1.381274 1_555
B5 O17 1.399651 1_555
B6 O2 1.446842 1_545
B6 O14 1.453324 1_555
B6 O13 1.510511 1_555
B6 O12 1.510511 1_555
B7 O11 1.443688 1_555
B7 O15 1.451423 1_555
B7 O1 1.534070 1_545
B7 O0 1.534070 1_545
