# generated using pymatgen
data_Li2Mn3TeO8
_symmetry_space_group_name_H-M   'P 1'
_cell_length_a   6.06526562
_cell_length_b   6.06526562
_cell_length_c   9.89478300
_cell_angle_alpha   90.00000000
_cell_angle_beta   90.00000000
_cell_angle_gamma   119.99999587
_symmetry_Int_Tables_number   1
_chemical_formula_structural   Li2Mn3TeO8
_chemical_formula_sum   'Li4 Mn6 Te2 O16'
_cell_volume   315.23655601
_cell_formula_units_Z   2
loop_
 _symmetry_equiv_pos_site_id
 _symmetry_equiv_pos_as_xyz
  1  'x, y, z'
loop_
 _atom_site_type_symbol
 _atom_site_label
 _atom_site_symmetry_multiplicity
 _atom_site_fract_x
 _atom_site_fract_y
 _atom_site_fract_z
 _atom_site_occupancy
  Li  Li0  1  0.33333300  0.66666700  0.91204600  1
  Li  Li1  1  0.00000000  0.00000000  0.98163400  1
  Li  Li2  1  0.00000000  0.00000000  0.48163400  1
  Li  Li3  1  0.66666700  0.33333300  0.41204600  1
  Mn  Mn0  1  0.17071000  0.82929000  0.21119500  1
  Mn  Mn1  1  0.17071000  0.34142000  0.21119500  1
  Mn  Mn2  1  0.65858000  0.82929000  0.21119500  1
  Mn  Mn3  1  0.34142000  0.17071000  0.71119500  1
  Mn  Mn4  1  0.82929000  0.65858000  0.71119500  1
  Mn  Mn5  1  0.82929000  0.17071000  0.71119500  1
  Te  Te0  1  0.33333300  0.66666700  0.48292300  1
  Te  Te1  1  0.66666700  0.33333300  0.98292300  1
  O  O0  1  0.17333000  0.82667000  0.58921700  1
  O  O1  1  0.03853100  0.51926600  0.35721900  1
  O  O2  1  0.33333300  0.66666700  0.11419800  1
  O  O3  1  0.00000000  0.00000000  0.29012700  1
  O  O4  1  0.00000000  0.00000000  0.79012700  1
  O  O5  1  0.17333000  0.34666000  0.58921700  1
  O  O6  1  0.48073400  0.96146900  0.35721900  1
  O  O7  1  0.48073400  0.51926600  0.35721900  1
  O  O8  1  0.34666000  0.17333000  0.08921700  1
  O  O9  1  0.65334000  0.82667000  0.58921700  1
  O  O10  1  0.51926600  0.48073400  0.85721900  1
  O  O11  1  0.51926600  0.03853100  0.85721900  1
  O  O12  1  0.66666700  0.33333300  0.61419800  1
  O  O13  1  0.82667000  0.65334000  0.08921700  1
  O  O14  1  0.96146900  0.48073400  0.85721900  1
  O  O15  1  0.82667000  0.17333000  0.08921700  1
loop_
_geom_bond_atom_site_label_1
_geom_bond_atom_site_label_2
_geom_bond_distance
_geom_bond_site_symmetry_2
Li0 O2 2.000250 1_556
Li0 O14 2.027218 1_455
Li0 O11 2.027218 1_565
Li0 O10 2.027228 1_555
Li1 O4 1.894920 1_555
Li1 O15 2.109225 1_456
Li1 O8 2.109225 1_556
Li1 O13 2.109225 1_446
Li2 O3 1.894920 1_555
Li2 O0 2.109225 1_545
Li2 O9 2.109225 1_445
Li2 O5 2.109225 1_555
Li3 O12 2.000250 1_555
Li3 O6 2.027218 1_545
Li3 O1 2.027218 1_655
Li3 O7 2.027228 1_555
Mn0 O3 1.956055 1_565
Mn0 O2 1.959545 1_555
Mn0 O13 2.173248 1_455
Mn0 O8 2.173248 1_565
Mn0 O6 2.181447 1_555
Mn0 O1 2.181447 1_555
Mn1 O3 1.956056 1_555
Mn1 O2 1.959550 1_555
Mn1 O8 2.173248 1_555
Mn1 O15 2.173248 1_455
Mn1 O7 2.181447 1_555
Mn1 O1 2.181451 1_555
Mn2 O3 1.956056 1_665
Mn2 O2 1.959550 1_555
Mn2 O13 2.173248 1_555
Mn2 O15 2.173248 1_565
Mn2 O7 2.181447 1_555
Mn2 O6 2.181451 1_555
Mn3 O4 1.956056 1_555
Mn3 O12 1.959550 1_555
Mn3 O5 2.173248 1_555
Mn3 O0 2.173248 1_545
Mn3 O10 2.181447 1_555
Mn3 O11 2.181451 1_555
Mn4 O4 1.956056 1_665
Mn4 O12 1.959550 1_555
Mn4 O9 2.173248 1_555
Mn4 O0 2.173248 1_655
Mn4 O10 2.181447 1_555
Mn4 O14 2.181451 1_555
Mn5 O4 1.956055 1_655
Mn5 O12 1.959545 1_555
Mn5 O9 2.173248 1_545
Mn5 O5 2.173248 1_655
Mn5 O14 2.181447 1_555
Mn5 O11 2.181447 1_555
O0 Te0 1.982819 1_555
O1 Te0 1.986183 1_555
O5 Te0 1.982824 1_555
O6 Te0 1.986183 1_555
O7 Te0 1.986183 1_555
O8 Te1 1.982824 1_554
O9 Te0 1.982824 1_555
O10 Te1 1.986183 1_555
O11 Te1 1.986183 1_555
O13 Te1 1.982824 1_554
O14 Te1 1.986183 1_555
O15 Te1 1.982819 1_554
