# generated using pymatgen
data_Fe3(OF2)2
_symmetry_space_group_name_H-M   'P 1'
_cell_length_a   10.86820875
_cell_length_b   10.86820875
_cell_length_c   3.10776000
_cell_angle_alpha   90.00000000
_cell_angle_beta   90.00000000
_cell_angle_gamma   144.25425370
_symmetry_Int_Tables_number   1
_chemical_formula_structural   Fe3(OF2)2
_chemical_formula_sum   'Fe6 O4 F8'
_cell_volume   214.44557894
_cell_formula_units_Z   2
loop_
 _symmetry_equiv_pos_site_id
 _symmetry_equiv_pos_as_xyz
  1  'x, y, z'
loop_
 _atom_site_type_symbol
 _atom_site_label
 _atom_site_symmetry_multiplicity
 _atom_site_fract_x
 _atom_site_fract_y
 _atom_site_fract_z
 _atom_site_occupancy
  Fe  Fe0  1  0.67498400  0.32501600  0.00000000  1
  Fe  Fe1  1  0.17150500  0.82849500  0.50000000  1
  Fe  Fe2  1  0.32501600  0.67498400  0.00000000  1
  Fe  Fe3  1  0.50000000  0.50000000  0.50000000  1
  Fe  Fe4  1  0.82849500  0.17150500  0.50000000  1
  Fe  Fe5  1  0.00000000  0.00000000  0.00000000  1
  O  O0  1  0.27020300  0.72979700  0.50000000  1
  O  O1  1  0.72979700  0.27020300  0.50000000  1
  O  O2  1  0.70155400  0.70155400  0.00000000  1
  O  O3  1  0.29844600  0.29844600  0.00000000  1
  F  F0  1  0.95599100  0.63413700  0.00000000  1
  F  F1  1  0.04400900  0.36586300  0.00000000  1
  F  F2  1  0.36586300  0.04400900  0.00000000  1
  F  F3  1  0.39523900  0.60476100  0.50000000  1
  F  F4  1  0.63413700  0.95599100  0.00000000  1
  F  F5  1  0.60476100  0.39523900  0.50000000  1
  F  F6  1  0.93468600  0.06531400  0.50000000  1
  F  F7  1  0.06531400  0.93468600  0.50000000  1
loop_
_geom_bond_atom_site_label_1
_geom_bond_atom_site_label_2
_geom_bond_distance
_geom_bond_site_symmetry_2
Fe0 O1 1.923632 1_555
Fe0 O1 1.923632 1_554
Fe1 O0 2.041806 1_555
Fe2 O0 1.923632 1_554
Fe2 O0 1.923632 1_555
Fe3 O2 2.054854 1_555
Fe3 O2 2.054854 1_556
Fe3 O3 2.054854 1_555
Fe3 O3 2.054854 1_556
Fe4 O1 2.041806 1_555
Fe5 O2 1.990945 1_445
Fe5 O3 1.990945 1_555
F0 Fe0 1.989748 1_555
F0 Fe1 2.081223 1_654
F0 Fe1 2.081223 1_655
F1 Fe2 1.989748 1_555
F1 Fe4 2.081223 1_454
F1 Fe4 2.081223 1_455
F2 Fe0 1.989748 1_555
F2 Fe1 2.081223 1_545
F2 Fe1 2.081223 1_544
F3 Fe2 2.127199 1_556
F3 Fe2 2.127199 1_555
F3 Fe3 2.167234 1_555
F4 Fe2 1.989748 1_555
F4 Fe4 2.081223 1_565
F4 Fe4 2.081223 1_564
F5 Fe0 2.127199 1_556
F5 Fe0 2.127199 1_555
F5 Fe3 2.167234 1_555
F6 Fe5 2.059181 1_656
F6 Fe5 2.059181 1_655
F6 Fe4 2.196817 1_555
F7 Fe5 2.059181 1_566
F7 Fe5 2.059181 1_565
F7 Fe1 2.196817 1_555
