# generated using pymatgen
data_Ta7(P2O7)8
_symmetry_space_group_name_H-M   'P 1'
_cell_length_a   11.78461149
_cell_length_b   11.78461149
_cell_length_c   11.78461123
_cell_angle_alpha   60.29423094
_cell_angle_beta   60.29423094
_cell_angle_gamma   60.29422940
_symmetry_Int_Tables_number   1
_chemical_formula_structural   Ta7(P2O7)8
_chemical_formula_sum   'Ta7 P16 O56'
_cell_volume   1164.96518169
_cell_formula_units_Z   1
loop_
 _symmetry_equiv_pos_site_id
 _symmetry_equiv_pos_as_xyz
  1  'x, y, z'
loop_
 _atom_site_type_symbol
 _atom_site_label
 _atom_site_symmetry_multiplicity
 _atom_site_fract_x
 _atom_site_fract_y
 _atom_site_fract_z
 _atom_site_occupancy
  Ta  Ta0  1  0.00000000  0.00000000  0.50000000  1
  Ta  Ta1  1  0.00000000  0.50000000  0.00000000  1
  Ta  Ta2  1  0.50000000  0.00000000  0.50000000  1
  Ta  Ta3  1  0.50000000  0.00000000  0.00000000  1
  Ta  Ta4  1  0.50000000  0.50000000  0.50000000  1
  Ta  Ta5  1  0.00000000  0.50000000  0.50000000  1
  Ta  Ta6  1  0.50000000  0.50000000  0.00000000  1
  P  P0  1  0.69624900  0.19879900  0.40896400  1
  P  P1  1  0.30274600  0.07964400  0.81035000  1
  P  P2  1  0.92035600  0.18965000  0.69725400  1
  P  P3  1  0.80120100  0.59103600  0.30375100  1
  P  P4  1  0.59103600  0.30375100  0.80120100  1
  P  P5  1  0.19463700  0.19463700  0.19463700  1
  P  P6  1  0.81035000  0.30274600  0.07964400  1
  P  P7  1  0.69512700  0.69512700  0.69512700  1
  P  P8  1  0.30487300  0.30487300  0.30487300  1
  P  P9  1  0.18965000  0.69725400  0.92035600  1
  P  P10  1  0.80536300  0.80536300  0.80536300  1
  P  P11  1  0.40896400  0.69624900  0.19879900  1
  P  P12  1  0.19879900  0.40896400  0.69624900  1
  P  P13  1  0.07964400  0.81035000  0.30274600  1
  P  P14  1  0.69725400  0.92035600  0.18965000  1
  P  P15  1  0.30375100  0.80120100  0.59103600  1
  O  O0  1  0.74337400  0.26300600  0.24860000  1
  O  O1  1  0.62344700  0.09819600  0.45679100  1
  O  O2  1  0.81981200  0.12448400  0.45971700  1
  O  O3  1  0.38767700  0.03995100  0.67459600  1
  O  O4  1  0.95978900  0.12715900  0.58650700  1
  O  O5  1  0.87551600  0.54028300  0.18018800  1
  O  O6  1  0.59462800  0.32013700  0.46461700  1
  O  O7  1  0.90180400  0.54320900  0.37655300  1
  O  O8  1  0.41349300  0.04021100  0.87284100  1
  O  O9  1  0.96767600  0.09183300  0.81552300  1
  O  O10  1  0.18447700  0.03232400  0.90816700  1
  O  O11  1  0.96004900  0.32540400  0.61232300  1
  O  O12  1  0.67986300  0.53538300  0.40537200  1
  O  O13  1  0.26300600  0.24860000  0.74337400  1
  O  O14  1  0.75140000  0.25662600  0.73699400  1
  O  O15  1  0.73699400  0.75140000  0.25662600  1
  O  O16  1  0.54028300  0.18018800  0.87551600  1
  O  O17  1  0.53538300  0.40537200  0.67986300  1
  O  O18  1  0.31936100  0.09518600  0.12256900  1
  O  O19  1  0.81969200  0.59371000  0.62497300  1
  O  O20  1  0.90816700  0.18447700  0.03232400  1
  O  O21  1  0.54320900  0.37655300  0.90180400  1
  O  O22  1  0.12256900  0.31936100  0.09518600  1
  O  O23  1  0.67459600  0.38767700  0.03995100  1
  O  O24  1  0.62497300  0.81969200  0.59371000  1
  O  O25  1  0.59371000  0.62497300  0.81969200  1
  O  O26  1  0.09518600  0.12256900  0.31936100  1
  O  O27  1  0.87284100  0.41349300  0.04021100  1
  O  O28  1  0.75020000  0.75020000  0.75020000  1
  O  O29  1  0.25662600  0.73699400  0.75140000  1
  O  O30  1  0.24980000  0.24980000  0.24980000  1
  O  O31  1  0.90481400  0.87743100  0.68063900  1
  O  O32  1  0.12715900  0.58650700  0.95978900  1
  O  O33  1  0.40629000  0.37502700  0.18030800  1
  O  O34  1  0.32540400  0.61232300  0.96004900  1
  O  O35  1  0.37502700  0.18030800  0.40629000  1
  O  O36  1  0.87743100  0.68063900  0.90481400  1
  O  O37  1  0.45679100  0.62344700  0.09819600  1
  O  O38  1  0.09183300  0.81552300  0.96767600  1
  O  O39  1  0.68063900  0.90481400  0.87743100  1
  O  O40  1  0.18030800  0.40629000  0.37502700  1
  O  O41  1  0.46461700  0.59462800  0.32013700  1
  O  O42  1  0.45971700  0.81981200  0.12448400  1
  O  O43  1  0.24860000  0.74337400  0.26300600  1
  O  O44  1  0.32013700  0.46461700  0.59462800  1
  O  O45  1  0.81552300  0.96767600  0.09183300  1
  O  O46  1  0.03995100  0.67459600  0.38767700  1
  O  O47  1  0.03232400  0.90816700  0.18447700  1
  O  O48  1  0.09819600  0.45679100  0.62344700  1
  O  O49  1  0.58650700  0.95978900  0.12715900  1
  O  O50  1  0.40537200  0.67986300  0.53538300  1
  O  O51  1  0.61232300  0.96004900  0.32540400  1
  O  O52  1  0.12448400  0.45971700  0.81981200  1
  O  O53  1  0.04021100  0.87284100  0.41349300  1
  O  O54  1  0.18018800  0.87551600  0.54028300  1
  O  O55  1  0.37655300  0.90180400  0.54320900  1
loop_
_geom_bond_atom_site_label_1
_geom_bond_atom_site_label_2
_geom_bond_distance
_geom_bond_site_symmetry_2
O0 P0 1.552893 1_555
O0 P6 1.640535 1_555
O1 P0 1.525086 1_555
O1 Ta2 2.016202 1_555
O2 P0 1.524859 1_555
O2 Ta0 2.026813 1_655
O3 P1 1.571834 1_555
O3 Ta2 1.962255 1_555
O4 P2 1.572863 1_555
O4 Ta0 1.959819 1_655
O5 P3 1.524859 1_555
O5 Ta1 2.026813 1_655
O6 P0 1.537152 1_555
O6 Ta4 1.995662 1_555
O7 P3 1.525086 1_555
O7 Ta5 2.016202 1_655
O8 P1 1.572863 1_555
O8 Ta3 1.959819 1_556
O9 P2 1.457123 1_555
O10 P1 1.457123 1_555
O11 P2 1.571834 1_555
O11 Ta5 1.962255 1_655
O12 P3 1.537152 1_555
O12 Ta4 1.995662 1_555
O13 P12 1.552893 1_555
O13 P1 1.640535 1_555
O14 P4 1.552893 1_555
O14 P2 1.640535 1_555
O15 P3 1.552893 1_555
O15 P14 1.640535 1_555
O16 P4 1.524859 1_555
O16 Ta3 2.026813 1_556
O17 P4 1.537152 1_555
O17 Ta4 1.995662 1_555
O18 P5 1.515676 1_555
O18 Ta3 2.016934 1_555
O19 P7 1.518043 1_555
O19 Ta5 2.021967 1_655
O20 P6 1.457123 1_555
O21 P4 1.525086 1_555
O21 Ta6 2.016202 1_556
O22 P5 1.515676 1_555
O22 Ta1 2.016934 1_555
O23 P6 1.571834 1_555
O23 Ta6 1.962255 1_555
O24 P7 1.518043 1_555
O24 Ta2 2.021967 1_565
O25 P7 1.518043 1_555
O25 Ta6 2.021967 1_556
O26 P5 1.515676 1_555
O26 Ta0 2.016934 1_555
O27 P6 1.572863 1_555
O27 Ta1 1.959819 1_655
O28 P7 1.586209 1_555
O28 P10 1.588801 1_555
O29 P15 1.552893 1_555
O29 P9 1.640535 1_555
O30 P8 1.586209 1_555
O30 P5 1.588801 1_555
O31 P10 1.515676 1_555
O31 Ta0 2.016934 1_665
O32 P9 1.572863 1_555
O32 Ta1 1.959819 1_556
O33 P8 1.518043 1_555
O33 Ta6 2.021967 1_555
O34 P9 1.571834 1_555
O34 Ta6 1.962255 1_556
O35 P8 1.518043 1_555
O35 Ta2 2.021967 1_555
O36 P10 1.515676 1_555
O36 Ta1 2.016934 1_656
O37 P11 1.525086 1_555
O37 Ta6 2.016202 1_555
O38 P9 1.457123 1_555
O39 P10 1.515676 1_555
O39 Ta3 2.016934 1_566
O40 P8 1.518043 1_555
O40 Ta5 2.021967 1_555
O41 P11 1.537152 1_555
O41 Ta4 1.995662 1_555
O42 P11 1.524859 1_555
O42 Ta3 2.026813 1_565
O43 P11 1.552893 1_555
O43 P13 1.640535 1_555
O44 P12 1.537152 1_555
O44 Ta4 1.995662 1_555
O45 P14 1.457123 1_555
O46 P13 1.571834 1_555
O46 Ta5 1.962255 1_555
O47 P13 1.457123 1_555
O48 P12 1.525086 1_555
O48 Ta5 2.016202 1_555
O49 P14 1.572863 1_555
O49 Ta3 1.959819 1_565
O50 P15 1.537152 1_555
O50 Ta4 1.995662 1_555
O51 P14 1.571834 1_555
O51 Ta2 1.962255 1_565
O52 P12 1.524859 1_555
O52 Ta1 2.026813 1_556
O53 P13 1.572863 1_555
O53 Ta0 1.959819 1_565
O54 P15 1.524859 1_555
O54 Ta0 2.026813 1_565
O55 P15 1.525086 1_555
O55 Ta2 2.016202 1_565
