# generated using pymatgen
data_Sb5O7F
_symmetry_space_group_name_H-M   'P 1'
_cell_length_a   12.92777700
_cell_length_b   6.79025100
_cell_length_c   13.58973731
_cell_angle_alpha   61.80154885
_cell_angle_beta   90.00000000
_cell_angle_gamma   90.00000000
_symmetry_Int_Tables_number   1
_chemical_formula_structural   Sb5O7F
_chemical_formula_sum   'Sb20 O28 F4'
_cell_volume   1051.36256213
_cell_formula_units_Z   4
loop_
 _symmetry_equiv_pos_site_id
 _symmetry_equiv_pos_as_xyz
  1  'x, y, z'
loop_
 _atom_site_type_symbol
 _atom_site_label
 _atom_site_symmetry_multiplicity
 _atom_site_fract_x
 _atom_site_fract_y
 _atom_site_fract_z
 _atom_site_occupancy
  Sb  Sb0  1  0.25699200  0.13813600  0.91652900  1
  Sb  Sb1  1  0.23290000  0.82568600  0.26005200  1
  Sb  Sb2  1  0.26544100  0.53289100  0.56499200  1
  Sb  Sb3  1  0.94935400  0.82938600  0.42213400  1
  Sb  Sb4  1  0.04866100  0.13267500  0.10127700  1
  Sb  Sb5  1  0.54866100  0.86732500  0.39872300  1
  Sb  Sb6  1  0.44935400  0.17061400  0.07786600  1
  Sb  Sb7  1  0.76544100  0.46710900  0.93500800  1
  Sb  Sb8  1  0.73290000  0.17431400  0.23994800  1
  Sb  Sb9  1  0.75699200  0.86186400  0.58347100  1
  Sb  Sb10  1  0.24300800  0.13813600  0.41652900  1
  Sb  Sb11  1  0.26710000  0.82568600  0.76005200  1
  Sb  Sb12  1  0.23455900  0.53289100  0.06499200  1
  Sb  Sb13  1  0.55064600  0.82938600  0.92213400  1
  Sb  Sb14  1  0.45133900  0.13267500  0.60127700  1
  Sb  Sb15  1  0.95133900  0.86732500  0.89872300  1
  Sb  Sb16  1  0.05064600  0.17061400  0.57786600  1
  Sb  Sb17  1  0.73455900  0.46710900  0.43500800  1
  Sb  Sb18  1  0.76710000  0.17431400  0.73994800  1
  Sb  Sb19  1  0.74300800  0.86186400  0.08347100  1
  O  O0  1  0.39362900  0.02247900  0.99039600  1
  O  O1  1  0.61294300  0.54810900  0.49240400  1
  O  O2  1  0.17362300  0.99375200  0.05833000  1
  O  O3  1  0.83012200  0.61064600  0.49989300  1
  O  O4  1  0.64965800  0.89374300  0.27644200  1
  O  O5  1  0.37078200  0.98171700  0.21579900  1
  O  O6  1  0.75441800  0.16992900  0.08439000  1
  O  O7  1  0.25441800  0.83007100  0.41561000  1
  O  O8  1  0.87078200  0.01828300  0.28420100  1
  O  O9  1  0.14965800  0.10625700  0.22355800  1
  O  O10  1  0.33012200  0.38935400  0.00010700  1
  O  O11  1  0.67362300  0.00624800  0.44167000  1
  O  O12  1  0.11294300  0.45189100  0.00759600  1
  O  O13  1  0.89362900  0.97752100  0.50960400  1
  O  O14  1  0.10637100  0.02247900  0.49039600  1
  O  O15  1  0.88705700  0.54810900  0.99240400  1
  O  O16  1  0.32637700  0.99375200  0.55833000  1
  O  O17  1  0.66987800  0.61064600  0.99989300  1
  O  O18  1  0.85034200  0.89374300  0.77644200  1
  O  O19  1  0.12921800  0.98171700  0.71579900  1
  O  O20  1  0.74558200  0.16992900  0.58439000  1
  O  O21  1  0.24558200  0.83007100  0.91561000  1
  O  O22  1  0.62921800  0.01828300  0.78420100  1
  O  O23  1  0.35034200  0.10625700  0.72355800  1
  O  O24  1  0.16987800  0.38935400  0.50010700  1
  O  O25  1  0.82637700  0.00624800  0.94167000  1
  O  O26  1  0.38705700  0.45189100  0.50759600  1
  O  O27  1  0.60637100  0.97752100  0.00960400  1
  F  F0  1  0.96451500  0.22395200  0.77792100  1
  F  F1  1  0.46451500  0.77604800  0.72207900  1
  F  F2  1  0.53548500  0.22395200  0.27792100  1
  F  F3  1  0.03548500  0.77604800  0.22207900  1
loop_
_geom_bond_atom_site_label_1
_geom_bond_atom_site_label_2
_geom_bond_distance
_geom_bond_site_symmetry_2
O0 Sb0 1.999905 1_555
O0 Sb6 2.018349 1_556
O1 Sb17 1.946338 1_555
O1 Sb5 2.098045 1_555
O2 Sb0 2.012660 1_564
O2 Sb4 2.088199 1_565
O2 Sb1 2.539300 1_555
O3 Sb17 2.016412 1_555
O3 Sb3 2.053143 1_555
O3 Sb9 2.631491 1_555
O4 Sb8 2.034866 1_565
O4 Sb5 2.053460 1_555
O5 Sb6 1.979503 1_565
O5 Sb1 2.014787 1_555
O6 Sb7 2.083761 1_554
O6 Sb19 2.102949 1_545
O6 Sb8 2.146327 1_555
O7 Sb2 2.083761 1_555
O7 Sb10 2.102949 1_565
O7 Sb1 2.146327 1_555
O8 Sb3 1.979503 1_545
O8 Sb8 2.014787 1_555
O9 Sb1 2.034866 1_545
O9 Sb4 2.053460 1_555
O10 Sb12 2.016412 1_555
O10 Sb6 2.053143 1_555
O10 Sb0 2.631491 1_554
O11 Sb9 2.012660 1_545
O11 Sb5 2.088199 1_545
O11 Sb8 2.539300 1_555
O12 Sb12 1.946338 1_555
O12 Sb4 2.098045 1_555
O13 Sb9 1.999905 1_555
O13 Sb3 2.018349 1_555
O14 Sb10 1.999905 1_555
O14 Sb16 2.018349 1_555
O15 Sb7 1.946338 1_555
O15 Sb15 2.098045 1_555
O16 Sb10 2.012660 1_565
O16 Sb14 2.088199 1_565
O16 Sb11 2.539300 1_555
O17 Sb7 2.016412 1_555
O17 Sb13 2.053143 1_555
O17 Sb19 2.631491 1_556
O18 Sb18 2.034866 1_565
O18 Sb15 2.053460 1_555
O19 Sb16 1.979503 1_565
O19 Sb11 2.014787 1_555
O20 Sb17 2.083761 1_555
O20 Sb9 2.102949 1_545
O20 Sb18 2.146327 1_555
O21 Sb12 2.083761 1_556
O21 Sb0 2.102949 1_565
O21 Sb11 2.146327 1_555
O22 Sb13 1.979503 1_545
O22 Sb18 2.014787 1_555
O23 Sb11 2.034866 1_545
O23 Sb14 2.053460 1_555
O24 Sb2 2.016412 1_555
O24 Sb16 2.053143 1_555
O24 Sb10 2.631491 1_555
O25 Sb19 2.012660 1_546
O25 Sb15 2.088199 1_545
O25 Sb18 2.539300 1_555
O26 Sb2 1.946338 1_555
O26 Sb14 2.098045 1_555
O27 Sb19 1.999905 1_555
O27 Sb13 2.018349 1_554
F0 Sb15 2.197991 1_545
F0 Sb18 2.656631 1_555
F1 Sb14 2.197991 1_565
F1 Sb11 2.656631 1_555
F2 Sb5 2.197991 1_545
F2 Sb8 2.656631 1_555
F3 Sb4 2.197991 1_565
F3 Sb1 2.656631 1_555
