# generated using pymatgen
data_Li4Fe3Co5O16
_symmetry_space_group_name_H-M   'P 1'
_cell_length_a   2.93107000
_cell_length_b   5.16083000
_cell_length_c   19.18296567
_cell_angle_alpha   86.02151244
_cell_angle_beta   90.00000000
_cell_angle_gamma   90.00000000
_symmetry_Int_Tables_number   1
_chemical_formula_structural   Li4Fe3Co5O16
_chemical_formula_sum   'Li4 Fe3 Co5 O16'
_cell_volume   289.47672786
_cell_formula_units_Z   1
loop_
 _symmetry_equiv_pos_site_id
 _symmetry_equiv_pos_as_xyz
  1  'x, y, z'
loop_
 _atom_site_type_symbol
 _atom_site_label
 _atom_site_symmetry_multiplicity
 _atom_site_fract_x
 _atom_site_fract_y
 _atom_site_fract_z
 _atom_site_occupancy
  Li  Li0  1  0.00000000  0.24979400  0.74648700  1
  Li  Li1  1  0.00000000  0.50000000  0.00000000  1
  Li  Li2  1  0.00000000  0.75020600  0.25351300  1
  Li  Li3  1  0.00000000  0.00000000  0.50000000  1
  Fe  Fe0  1  0.00000000  0.87646400  0.87128900  1
  Fe  Fe1  1  0.50000000  0.00000000  0.00000000  1
  Fe  Fe2  1  0.00000000  0.12353600  0.12871100  1
  Co  Co0  1  0.50000000  0.25261500  0.25434100  1
  Co  Co1  1  0.00000000  0.37458200  0.37718600  1
  Co  Co2  1  0.50000000  0.50000000  0.50000000  1
  Co  Co3  1  0.00000000  0.62541800  0.62281400  1
  Co  Co4  1  0.50000000  0.74738500  0.74565900  1
  O  O0  1  0.50000000  0.27927200  0.06412500  1
  O  O1  1  0.00000000  0.39946700  0.20159600  1
  O  O2  1  0.00000000  0.35405600  0.55329300  1
  O  O3  1  0.00000000  0.60053300  0.79840400  1
  O  O4  1  0.50000000  0.52385300  0.31398600  1
  O  O5  1  0.50000000  0.47614700  0.68601400  1
  O  O6  1  0.50000000  0.72072800  0.93587500  1
  O  O7  1  0.00000000  0.64594400  0.44670700  1
  O  O8  1  0.00000000  0.84130700  0.05840100  1
  O  O9  1  0.50000000  0.77432600  0.55869300  1
  O  O10  1  0.50000000  0.02116500  0.80539400  1
  O  O11  1  0.50000000  0.97883500  0.19460600  1
  O  O12  1  0.00000000  0.89375800  0.69204200  1
  O  O13  1  0.00000000  0.15869300  0.94159900  1
  O  O14  1  0.00000000  0.10624200  0.30795800  1
  O  O15  1  0.50000000  0.22567400  0.44130700  1
loop_
_geom_bond_atom_site_label_1
_geom_bond_atom_site_label_2
_geom_bond_distance
_geom_bond_site_symmetry_2
Li0 O3 2.125674 1_555
Li0 O10 2.152185 1_455
Li0 O10 2.152185 1_555
Li0 O5 2.161039 1_555
Li0 O5 2.161039 1_455
Li0 O12 2.175613 1_545
Li1 O8 2.152100 1_555
Li1 O13 2.152100 1_554
Li1 O6 2.182694 1_554
Li1 O6 2.182694 1_454
Li1 O0 2.182694 1_455
Li1 O0 2.182694 1_555
Li2 O1 2.125674 1_555
Li2 O11 2.152185 1_555
Li2 O11 2.152185 1_455
Li2 O4 2.161039 1_455
Li2 O4 2.161039 1_555
Li2 O14 2.175613 1_565
Li3 O15 2.142415 1_555
Li3 O15 2.142415 1_455
Li3 O9 2.142415 1_545
Li3 O9 2.142415 1_445
Li3 O2 2.154783 1_555
Li3 O7 2.154783 1_545
Fe0 O10 2.042629 1_565
Fe0 O10 2.042629 1_465
Fe0 O6 2.047093 1_555
Fe0 O6 2.047093 1_455
Fe0 O13 2.052617 1_565
Fe0 O3 2.063728 1_555
Fe1 O0 1.958688 1_555
Fe1 O6 1.958688 1_544
Fe1 O8 1.986529 1_545
Fe1 O8 1.986529 1_645
Fe1 O13 1.986529 1_654
Fe1 O13 1.986529 1_554
Fe2 O11 2.042629 1_445
Fe2 O11 2.042629 1_545
Fe2 O0 2.047093 1_455
Fe2 O0 2.047093 1_555
Fe2 O8 2.052617 1_545
Fe2 O1 2.063728 1_555
Co0 O4 1.868380 1_555
Co0 O11 1.879925 1_545
Co0 O1 1.907751 1_655
Co0 O1 1.907751 1_555
Co0 O14 1.915332 1_655
Co0 O14 1.915332 1_555
Co1 O14 1.984089 1_555
Co1 O7 1.999743 1_555
Co1 O4 2.020266 1_555
Co1 O4 2.020266 1_455
Co1 O15 2.029822 1_455
Co1 O15 2.029822 1_555
Co2 O9 1.869011 1_555
Co2 O15 1.869011 1_555
Co2 O2 1.911381 1_655
Co2 O2 1.911381 1_555
Co2 O7 1.911381 1_655
Co2 O7 1.911381 1_555
Co3 O12 1.984089 1_555
Co3 O2 1.999743 1_555
Co3 O5 2.020266 1_455
Co3 O5 2.020266 1_555
Co3 O9 2.029822 1_455
Co3 O9 2.029822 1_555
Co4 O5 1.868380 1_555
Co4 O10 1.879925 1_565
Co4 O3 1.907751 1_655
Co4 O3 1.907751 1_555
Co4 O12 1.915332 1_555
Co4 O12 1.915332 1_655
