# generated using pymatgen
data_LiMn3O5
_symmetry_space_group_name_H-M   'P 1'
_cell_length_a   2.94221000
_cell_length_b   9.98285300
_cell_length_c   13.37413800
_cell_angle_alpha   90.00000000
_cell_angle_beta   90.00000000
_cell_angle_gamma   90.00000000
_symmetry_Int_Tables_number   1
_chemical_formula_structural   LiMn3O5
_chemical_formula_sum   'Li4 Mn12 O20'
_cell_volume   392.82049939
_cell_formula_units_Z   4
loop_
 _symmetry_equiv_pos_site_id
 _symmetry_equiv_pos_as_xyz
  1  'x, y, z'
loop_
 _atom_site_type_symbol
 _atom_site_label
 _atom_site_symmetry_multiplicity
 _atom_site_fract_x
 _atom_site_fract_y
 _atom_site_fract_z
 _atom_site_occupancy
  Li  Li0  1  0.50000000  0.72594100  0.86416200  1
  Li  Li1  1  0.50000000  0.77405900  0.36416200  1
  Li  Li2  1  0.50000000  0.22594100  0.63583800  1
  Li  Li3  1  0.50000000  0.27405900  0.13583800  1
  Mn  Mn0  1  0.00000000  0.50000000  0.00000000  1
  Mn  Mn1  1  0.50000000  0.50000000  0.50000000  1
  Mn  Mn2  1  0.00000000  0.49373800  0.29117100  1
  Mn  Mn3  1  0.50000000  0.73745900  0.11727700  1
  Mn  Mn4  1  0.50000000  0.76254100  0.61727700  1
  Mn  Mn5  1  0.00000000  0.00626200  0.79117100  1
  Mn  Mn6  1  0.00000000  0.00000000  0.50000000  1
  Mn  Mn7  1  0.50000000  0.00000000  0.00000000  1
  Mn  Mn8  1  0.00000000  0.99373800  0.20882900  1
  Mn  Mn9  1  0.50000000  0.23745900  0.38272300  1
  Mn  Mn10  1  0.50000000  0.26254100  0.88272300  1
  Mn  Mn11  1  0.00000000  0.50626200  0.70882900  1
  O  O0  1  0.00000000  0.62289300  0.16386200  1
  O  O1  1  0.00000000  0.63721900  0.56343900  1
  O  O2  1  0.50000000  0.58684000  0.36235000  1
  O  O3  1  0.50000000  0.62698900  0.74534500  1
  O  O4  1  0.50000000  0.62601500  0.98152300  1
  O  O5  1  0.50000000  0.87398500  0.48152300  1
  O  O6  1  0.50000000  0.87301100  0.24534500  1
  O  O7  1  0.50000000  0.91316000  0.86235000  1
  O  O8  1  0.00000000  0.86278100  0.06343900  1
  O  O9  1  0.00000000  0.87710700  0.66386200  1
  O  O10  1  0.00000000  0.12289300  0.33613800  1
  O  O11  1  0.00000000  0.13721900  0.93656100  1
  O  O12  1  0.50000000  0.08684000  0.13765000  1
  O  O13  1  0.50000000  0.12698900  0.75465500  1
  O  O14  1  0.50000000  0.12601500  0.51847700  1
  O  O15  1  0.50000000  0.37398500  0.01847700  1
  O  O16  1  0.50000000  0.37301100  0.25465500  1
  O  O17  1  0.50000000  0.41316000  0.63765000  1
  O  O18  1  0.00000000  0.36278100  0.43656100  1
  O  O19  1  0.00000000  0.37710700  0.83613800  1
loop_
_geom_bond_atom_site_label_1
_geom_bond_atom_site_label_2
_geom_bond_distance
_geom_bond_site_symmetry_2
Li0 O4 1.859772 1_555
Li0 O7 1.869137 1_555
Li0 O3 1.871084 1_555
Li1 O5 1.859772 1_555
Li1 O2 1.869137 1_555
Li1 O6 1.871084 1_555
Li2 O14 1.859772 1_555
Li2 O17 1.869137 1_555
Li2 O13 1.871084 1_555
Li3 O15 1.859772 1_555
Li3 O12 1.869137 1_555
Li3 O16 1.871084 1_555
Mn0 O4 1.951346 1_554
Mn0 O15 1.951346 1_455
Mn0 O15 1.951346 1_555
Mn0 O4 1.951346 1_454
Mn0 O19 2.511538 1_554
Mn0 O0 2.511538 1_555
Mn1 O2 2.034854 1_555
Mn1 O17 2.034854 1_555
Mn1 O18 2.181847 1_655
Mn1 O1 2.181847 1_655
Mn1 O1 2.181847 1_555
Mn1 O18 2.181847 1_555
Mn2 O16 1.963457 1_455
Mn2 O16 1.963457 1_555
Mn2 O2 1.983482 1_555
Mn2 O2 1.983482 1_455
Mn2 O0 2.135743 1_555
Mn2 O18 2.343085 1_555
Mn3 O0 1.964780 1_555
Mn3 O0 1.964780 1_655
Mn3 O8 2.061015 1_555
Mn3 O8 2.061015 1_655
Mn3 O4 2.129342 1_554
Mn3 O6 2.182847 1_555
Mn4 O9 1.964780 1_555
Mn4 O9 1.964780 1_655
Mn4 O1 2.061015 1_655
Mn4 O1 2.061015 1_555
Mn4 O5 2.129342 1_555
Mn4 O3 2.182847 1_555
Mn5 O13 1.963457 1_455
Mn5 O13 1.963457 1_555
Mn5 O7 1.983482 1_445
Mn5 O7 1.983482 1_545
Mn5 O9 2.135743 1_545
Mn5 O11 2.343085 1_555
Mn6 O14 1.951346 1_555
Mn6 O5 1.951346 1_445
Mn6 O5 1.951346 1_545
Mn6 O14 1.951346 1_455
Mn6 O9 2.511538 1_545
Mn6 O10 2.511538 1_555
Mn7 O12 2.034854 1_555
Mn7 O7 2.034854 1_544
Mn7 O8 2.181847 1_545
Mn7 O8 2.181847 1_645
Mn7 O11 2.181847 1_654
Mn7 O11 2.181847 1_554
Mn8 O6 1.963457 1_555
Mn8 O6 1.963457 1_455
Mn8 O12 1.983482 1_565
Mn8 O12 1.983482 1_465
Mn8 O10 2.135743 1_565
Mn8 O8 2.343085 1_555
Mn9 O10 1.964780 1_555
Mn9 O10 1.964780 1_655
Mn9 O18 2.061015 1_555
Mn9 O18 2.061015 1_655
Mn9 O14 2.129342 1_555
Mn9 O16 2.182847 1_555
Mn10 O19 1.964780 1_555
Mn10 O19 1.964780 1_655
Mn10 O11 2.061015 1_555
Mn10 O11 2.061015 1_655
Mn10 O15 2.129342 1_556
Mn10 O13 2.182847 1_555
Mn11 O3 1.963457 1_455
Mn11 O3 1.963457 1_555
Mn11 O17 1.983482 1_455
Mn11 O17 1.983482 1_555
Mn11 O19 2.135743 1_555
Mn11 O1 2.343085 1_555
