# generated using pymatgen
data_LiCuCO3
_symmetry_space_group_name_H-M   'P 1'
_cell_length_a   3.21461400
_cell_length_b   4.80913700
_cell_length_c   17.13574469
_cell_angle_alpha   86.78338970
_cell_angle_beta   90.00000000
_cell_angle_gamma   90.00000000
_symmetry_Int_Tables_number   1
_chemical_formula_structural   LiCuCO3
_chemical_formula_sum   'Li4 Cu4 C4 O12'
_cell_volume   264.49301696
_cell_formula_units_Z   4
loop_
 _symmetry_equiv_pos_site_id
 _symmetry_equiv_pos_as_xyz
  1  'x, y, z'
loop_
 _atom_site_type_symbol
 _atom_site_label
 _atom_site_symmetry_multiplicity
 _atom_site_fract_x
 _atom_site_fract_y
 _atom_site_fract_z
 _atom_site_occupancy
  Li  Li0  1  0.20219300  0.84605900  0.08284900  1
  Li  Li1  1  0.24657400  0.19053300  0.45741800  1
  Li  Li2  1  0.79780700  0.84605900  0.58284900  1
  Li  Li3  1  0.75342600  0.19053300  0.95741800  1
  Cu  Cu0  1  0.06029500  0.28680900  0.27729300  1
  Cu  Cu1  1  0.55931400  0.68956400  0.23477500  1
  Cu  Cu2  1  0.93970500  0.28680900  0.77729300  1
  Cu  Cu3  1  0.44068600  0.68956400  0.73477500  1
  C  C0  1  0.71731200  0.30743400  0.12298100  1
  C  C1  1  0.18689400  0.71228700  0.38294700  1
  C  C2  1  0.28268800  0.30743400  0.62298100  1
  C  C3  1  0.81310600  0.71228700  0.88294700  1
  O  O0  1  0.59628300  0.18526000  0.06201700  1
  O  O1  1  0.91098500  0.15840100  0.17766100  1
  O  O2  1  0.65123500  0.57573300  0.12921300  1
  O  O3  1  0.12172200  0.44474800  0.37588100  1
  O  O4  1  0.34441800  0.86328700  0.32355000  1
  O  O5  1  0.09954800  0.82039800  0.44719400  1
  O  O6  1  0.40371700  0.18526000  0.56201700  1
  O  O7  1  0.08901500  0.15840100  0.67766100  1
  O  O8  1  0.34876500  0.57573300  0.62921300  1
  O  O9  1  0.87827800  0.44474800  0.87588100  1
  O  O10  1  0.65558200  0.86328700  0.82355000  1
  O  O11  1  0.90045200  0.82039800  0.94719400  1
loop_
_geom_bond_atom_site_label_1
_geom_bond_atom_site_label_2
_geom_bond_distance
_geom_bond_site_symmetry_2
Li0 O2 2.071006 1_555
Li0 O0 2.080386 1_565
Li0 O2 2.311328 1_455
Li0 O1 2.458871 1_465
Li0 O11 2.528204 1_454
Li0 O0 2.552822 1_465
Li1 O3 1.848294 1_555
Li1 O5 1.859456 1_545
Li1 O6 1.861009 1_555
Li2 O8 2.071006 1_555
Li2 O6 2.080386 1_565
Li2 O8 2.311328 1_655
Li2 O7 2.458871 1_665
Li2 O5 2.528204 1_655
Li2 O6 2.552822 1_665
Li3 O9 1.848294 1_555
Li3 O11 1.859456 1_545
Li3 O0 1.861009 1_556
Cu0 O3 1.901028 1_555
Cu0 O1 1.909136 1_455
Cu0 O4 2.330186 1_545
Cu1 O4 1.905770 1_555
Cu1 O2 1.941695 1_555
Cu2 O9 1.901028 1_555
Cu2 O7 1.909136 1_655
Cu2 O10 2.330186 1_545
Cu3 O10 1.905770 1_555
Cu3 O8 1.941695 1_555
C0 O0 1.287163 1_555
C0 O1 1.305324 1_555
C0 O2 1.317887 1_555
C1 O5 1.274918 1_555
C1 O3 1.315848 1_555
C1 O4 1.317859 1_555
C2 O6 1.287163 1_555
C2 O7 1.305324 1_555
C2 O8 1.317887 1_555
C3 O11 1.274918 1_555
C3 O9 1.315848 1_555
C3 O10 1.317859 1_555
