# generated using pymatgen
data_Mn6O7F5
_symmetry_space_group_name_H-M   'P 1'
_cell_length_a   5.58187935
_cell_length_b   5.58187935
_cell_length_c   7.32999819
_cell_angle_alpha   72.55314175
_cell_angle_beta   72.55314175
_cell_angle_gamma   71.35577586
_symmetry_Int_Tables_number   1
_chemical_formula_structural   Mn6O7F5
_chemical_formula_sum   'Mn6 O7 F5'
_cell_volume   201.11864950
_cell_formula_units_Z   1
loop_
 _symmetry_equiv_pos_site_id
 _symmetry_equiv_pos_as_xyz
  1  'x, y, z'
loop_
 _atom_site_type_symbol
 _atom_site_label
 _atom_site_symmetry_multiplicity
 _atom_site_fract_x
 _atom_site_fract_y
 _atom_site_fract_z
 _atom_site_occupancy
  Mn  Mn0  1  0.30164100  0.30164100  0.17290600  1
  Mn  Mn1  1  0.66233400  0.66233400  0.32683900  1
  Mn  Mn2  1  0.35182600  0.35182600  0.68262400  1
  Mn  Mn3  1  0.68549200  0.68549200  0.81949700  1
  Mn  Mn4  1  0.00249700  0.00249700  0.50532000  1
  Mn  Mn5  1  0.99455700  0.99455700  0.99940400  1
  O  O0  1  0.96520500  0.35280000  0.33452700  1
  O  O1  1  0.64978300  0.04470100  0.66719000  1
  O  O2  1  0.77075700  0.77075700  0.03312600  1
  O  O3  1  0.21703000  0.21703000  0.97662400  1
  O  O4  1  0.57766000  0.57766000  0.62113700  1
  O  O5  1  0.04470100  0.64978300  0.66719000  1
  O  O6  1  0.35280000  0.96520500  0.33452700  1
  F  F0  1  0.11928200  0.11928200  0.70526400  1
  F  F1  1  0.42220700  0.42220700  0.35997200  1
  F  F2  1  0.89874400  0.89874400  0.29224400  1
  F  F3  1  0.67672200  0.30676100  0.00080500  1
  F  F4  1  0.30676100  0.67672200  0.00080500  1
loop_
_geom_bond_atom_site_label_1
_geom_bond_atom_site_label_2
_geom_bond_distance
_geom_bond_site_symmetry_2
Mn0 O3 1.863771 1_554
Mn0 O6 1.880853 1_545
Mn0 O0 1.880853 1_455
Mn1 O6 1.994399 1_555
Mn1 O0 1.994399 1_555
Mn1 O4 2.005086 1_555
Mn1 O2 2.009768 1_555
Mn2 O4 1.927666 1_555
Mn2 O1 1.974412 1_555
Mn2 O5 1.974412 1_555
Mn2 O3 2.047861 1_555
Mn3 O5 1.960101 1_655
Mn3 O1 1.960101 1_565
Mn3 O2 1.985876 1_556
Mn3 O4 2.029738 1_555
Mn4 O1 1.951868 1_455
Mn4 O5 1.951868 1_545
Mn4 O6 1.965235 1_545
Mn4 O0 1.965235 1_455
Mn5 O2 1.951844 1_556
Mn5 O3 1.961994 1_665
F0 Mn5 2.031663 1_445
F0 Mn2 2.053355 1_555
F0 Mn4 2.101269 1_555
F1 Mn0 2.045058 1_555
F1 Mn1 2.100096 1_555
F1 Mn2 2.210538 1_555
F2 Mn5 1.996423 1_554
F2 Mn1 2.063769 1_555
F2 Mn4 2.099855 1_665
F3 Mn5 2.051234 1_544
F3 Mn0 2.099641 1_555
F3 Mn3 2.140135 1_554
F4 Mn5 2.051234 1_454
F4 Mn0 2.099641 1_555
F4 Mn3 2.140135 1_554
