# generated using pymatgen
data_Fe3Cu2Sn(PO4)6
_symmetry_space_group_name_H-M   'P 1'
_cell_length_a   8.41117864
_cell_length_b   8.41117812
_cell_length_c   8.41117849
_cell_angle_alpha   61.27722253
_cell_angle_beta   61.27721523
_cell_angle_gamma   61.27721931
_symmetry_Int_Tables_number   1
_chemical_formula_structural   Fe3Cu2Sn(PO4)6
_chemical_formula_sum   'Fe3 Cu2 Sn1 P6 O24'
_cell_volume   432.86303659
_cell_formula_units_Z   1
loop_
 _symmetry_equiv_pos_site_id
 _symmetry_equiv_pos_as_xyz
  1  'x, y, z'
loop_
 _atom_site_type_symbol
 _atom_site_label
 _atom_site_symmetry_multiplicity
 _atom_site_fract_x
 _atom_site_fract_y
 _atom_site_fract_z
 _atom_site_occupancy
  Fe  Fe0  1  0.14518447  0.14518447  0.14518447  1
  Fe  Fe1  1  0.35475934  0.35475934  0.35475934  1
  Fe  Fe2  1  0.64422324  0.64422324  0.64422324  1
  Cu  Cu0  1  0.00422300  0.00422300  0.00422300  1
  Cu  Cu1  1  0.49924013  0.49924013  0.49924013  1
  Sn  Sn0  1  0.85707291  0.85707291  0.85707291  1
  P  P0  1  0.74785851  0.44954460  0.04967379  1
  P  P1  1  0.04967379  0.74785851  0.44954460  1
  P  P2  1  0.44954460  0.04967379  0.74785851  1
  P  P3  1  0.25434988  0.54256393  0.95189161  1
  P  P4  1  0.54256393  0.95189161  0.25434988  1
  P  P5  1  0.95189161  0.25434988  0.54256393  1
  O  O0  1  0.10689378  0.32424214  0.50063850  1
  O  O1  1  0.32424214  0.50063850  0.10689378  1
  O  O2  1  0.06381486  0.90690366  0.25235467  1
  O  O3  1  0.50063850  0.10689378  0.32424214  1
  O  O4  1  0.01308905  0.81855291  0.60405558  1
  O  O5  1  0.24763188  0.59060208  0.43699460  1
  O  O6  1  0.25235467  0.06381486  0.90690366  1
  O  O7  1  0.43699460  0.24763188  0.59060208  1
  O  O8  1  0.17964089  0.39028135  0.99477651  1
  O  O9  1  0.59060208  0.43699460  0.24763188  1
  O  O10  1  0.09456800  0.74429481  0.94119219  1
  O  O11  1  0.39028135  0.99477651  0.17964089  1
  O  O12  1  0.60405558  0.01308905  0.81855291  1
  O  O13  1  0.90690366  0.25235467  0.06381486  1
  O  O14  1  0.40835841  0.56006886  0.75168538  1
  O  O15  1  0.81855291  0.60405558  0.01308905  1
  O  O16  1  0.56006886  0.75168538  0.40835841  1
  O  O17  1  0.74429481  0.94119219  0.09456800  1
  O  O18  1  0.75168538  0.40835841  0.56006886  1
  O  O19  1  0.99477651  0.17964089  0.39028135  1
  O  O20  1  0.49762552  0.88882599  0.68232397  1
  O  O21  1  0.94119219  0.09456800  0.74429481  1
  O  O22  1  0.68232397  0.49762552  0.88882599  1
  O  O23  1  0.88882599  0.68232397  0.49762552  1
loop_
_geom_bond_atom_site_label_1
_geom_bond_atom_site_label_2
_geom_bond_distance
_geom_bond_site_symmetry_2
Fe0 O19 1.910394 1_455
Fe0 O8 1.910394 1_554
Fe0 O11 1.910394 1_545
Fe0 O6 2.070478 1_554
Fe0 O2 2.070478 1_545
Fe0 O13 2.070479 1_455
Fe1 O3 1.915964 1_555
Fe1 O0 1.915964 1_555
Fe1 O1 1.915964 1_555
Fe1 O5 2.056027 1_555
Fe1 O9 2.056027 1_555
Fe1 O7 2.056027 1_555
Fe2 O20 1.916145 1_555
Fe2 O23 1.916145 1_555
Fe2 O22 1.916146 1_555
Fe2 O18 2.065221 1_555
Fe2 O14 2.065221 1_555
Fe2 O16 2.065221 1_555
Cu0 O13 2.060650 1_455
Cu0 O6 2.060650 1_554
Cu0 O2 2.060650 1_545
Cu0 O10 2.183679 1_544
Cu0 O17 2.183679 1_445
Cu0 O21 2.183680 1_454
Cu1 O9 2.111541 1_555
Cu1 O7 2.111541 1_555
Cu1 O5 2.111542 1_555
Cu1 O14 2.112577 1_555
Cu1 O16 2.112577 1_555
Cu1 O18 2.112577 1_555
O0 P5 1.505070 1_455
O1 P3 1.505070 1_554
O2 P1 1.544482 1_555
O3 P4 1.505070 1_545
O4 P1 1.523085 1_555
O4 Sn0 1.981416 1_455
O5 P1 1.543238 1_555
O6 P2 1.544482 1_555
O7 P2 1.543238 1_555
O8 P3 1.509076 1_555
O9 P0 1.543238 1_555
O10 P3 1.571972 1_555
O10 Sn0 2.069540 1_455
O11 P4 1.509076 1_555
O12 P2 1.523085 1_555
O12 Sn0 1.981416 1_545
O13 P0 1.544482 1_555
O14 P3 1.543970 1_555
O15 P0 1.523085 1_555
O15 Sn0 1.981416 1_554
O16 P4 1.543970 1_555
O17 P4 1.571972 1_555
O17 Sn0 2.069540 1_554
O18 P5 1.543970 1_555
O19 P5 1.509076 1_555
O20 P2 1.508120 1_565
O21 P5 1.571972 1_555
O21 Sn0 2.069540 1_545
O22 P0 1.508121 1_556
O23 P1 1.508121 1_655
