# generated using pymatgen
data_Li8CrO6
_symmetry_space_group_name_H-M   'P 1'
_cell_length_a   5.40626623
_cell_length_b   5.88013588
_cell_length_c   9.36307041
_cell_angle_alpha   105.40345557
_cell_angle_beta   90.03362319
_cell_angle_gamma   62.61977568
_symmetry_Int_Tables_number   1
_chemical_formula_structural   Li8CrO6
_chemical_formula_sum   'Li16 Cr2 O12'
_cell_volume   252.22758674
_cell_formula_units_Z   2
loop_
 _symmetry_equiv_pos_site_id
 _symmetry_equiv_pos_as_xyz
  1  'x, y, z'
loop_
 _atom_site_type_symbol
 _atom_site_label
 _atom_site_symmetry_multiplicity
 _atom_site_fract_x
 _atom_site_fract_y
 _atom_site_fract_z
 _atom_site_occupancy
  Li  Li0  1  0.48795300  0.02380600  0.17045600  1
  Li  Li1  1  0.98783500  0.02416900  0.67068400  1
  Li  Li2  1  0.01212700  0.97584700  0.32930600  1
  Li  Li3  1  0.51208900  0.97617300  0.82953600  1
  Li  Li4  1  0.99198400  0.35214200  0.24460800  1
  Li  Li5  1  0.49249400  0.35187300  0.74487300  1
  Li  Li6  1  0.98140400  0.64709300  0.11829000  1
  Li  Li7  1  0.48070100  0.64803400  0.61863600  1
  Li  Li8  1  0.03937900  0.64832000  0.45016600  1
  Li  Li9  1  0.53908000  0.64784500  0.95033500  1
  Li  Li10  1  0.46096100  0.35213200  0.04962800  1
  Li  Li11  1  0.96058900  0.35168700  0.54980100  1
  Li  Li12  1  0.51931900  0.35189900  0.38135900  1
  Li  Li13  1  0.01856100  0.35292900  0.88169100  1
  Li  Li14  1  0.50754100  0.64814500  0.25510700  1
  Li  Li15  1  0.00800600  0.64790600  0.75540300  1
  Cr  Cr0  1  0.49994600  0.99994600  0.50005500  1
  Cr  Cr1  1  0.00005100  0.00003600  0.00004900  1
  O  O0  1  0.77580700  0.76717200  0.31304700  1
  O  O1  1  0.27461400  0.76872700  0.81352800  1
  O  O2  1  0.18487000  0.23213200  0.04422400  1
  O  O3  1  0.68509900  0.23274300  0.54431700  1
  O  O4  1  0.24215000  0.23200100  0.38562100  1
  O  O5  1  0.74173800  0.23255500  0.88482200  1
  O  O6  1  0.25828900  0.76745000  0.11518300  1
  O  O7  1  0.75780500  0.76799000  0.61438600  1
  O  O8  1  0.31487200  0.76724700  0.45569200  1
  O  O9  1  0.81517500  0.76788900  0.95577400  1
  O  O10  1  0.72541300  0.23129400  0.18646200  1
  O  O11  1  0.22415000  0.23282500  0.68696000  1
loop_
_geom_bond_atom_site_label_1
_geom_bond_atom_site_label_2
_geom_bond_distance
_geom_bond_site_symmetry_2
Li0 O10 2.121875 1_555
Li0 O2 2.122033 1_555
Li0 O4 2.126001 1_555
Li0 O9 2.320171 1_544
Li0 O6 2.321222 1_545
Li0 O0 2.321484 1_545
Li1 O5 2.118983 1_555
Li1 O11 2.122026 1_655
Li1 O3 2.122523 1_555
Li1 O1 2.317638 1_645
Li1 O8 2.322131 1_645
Li1 O7 2.322503 1_545
Li2 O6 2.119001 1_555
Li2 O0 2.122156 1_455
Li2 O8 2.122730 1_555
Li2 O10 2.317522 1_465
Li2 O3 2.322221 1_465
Li2 O4 2.322358 1_565
Li3 O1 2.121738 1_555
Li3 O9 2.121990 1_555
Li3 O7 2.125717 1_555
Li3 O2 2.320220 1_566
Li3 O5 2.321288 1_565
Li3 O11 2.321602 1_565
Li4 O10 1.900996 1_555
Li4 O4 1.919909 1_655
Li4 O2 1.930716 1_655
Li4 O0 2.068567 1_555
Li5 O11 1.902686 1_555
Li5 O5 1.908330 1_555
Li5 O3 1.932295 1_555
Li5 O1 2.077757 1_555
Li6 O9 1.900787 1_554
Li6 O0 1.912008 1_555
Li6 O6 1.930767 1_655
Li6 O2 2.068311 1_655
Li7 O8 1.900327 1_555
Li7 O1 1.913637 1_555
Li7 O7 1.931405 1_555
Li7 O3 2.069958 1_555
Li8 O7 1.902468 1_455
Li8 O8 1.910149 1_555
Li8 O0 1.930203 1_455
Li8 O4 2.075150 1_555
Li9 O6 1.904071 1_556
Li9 O9 1.918008 1_555
Li9 O1 1.933144 1_555
Li9 O5 2.069789 1_555
Li10 O5 1.903778 1_554
Li10 O2 1.917825 1_555
Li10 O10 1.933240 1_555
Li10 O6 2.069923 1_555
Li11 O4 1.902138 1_655
Li11 O3 1.910233 1_555
Li11 O11 1.930466 1_655
Li11 O7 2.075060 1_555
Li12 O3 1.900242 1_555
Li12 O10 1.913771 1_555
Li12 O4 1.931502 1_555
Li12 O8 2.070242 1_555
Li13 O2 1.901063 1_556
Li13 O11 1.911760 1_555
Li13 O5 1.930548 1_455
Li13 O9 2.068314 1_455
Li14 O0 1.902261 1_555
Li14 O6 1.908152 1_555
Li14 O8 1.932686 1_555
Li14 O10 2.077742 1_555
Li15 O1 1.901042 1_555
Li15 O7 1.919963 1_455
Li15 O9 1.930521 1_455
Li15 O11 2.068814 1_555
Cr0 O7 1.993653 1_555
Cr0 O4 1.994509 1_565
Cr0 O8 2.000685 1_555
Cr0 O3 2.001503 1_565
Cr0 O11 2.003218 1_565
Cr0 O0 2.003970 1_555
Cr1 O10 1.996298 1_455
Cr1 O2 1.996472 1_555
Cr1 O1 1.996857 1_544
Cr1 O9 1.997004 1_444
Cr1 O6 2.001716 1_545
Cr1 O5 2.002299 1_454
