# generated using pymatgen
data_ZrH16C5N2O3F4
_symmetry_space_group_name_H-M   'P 1'
_cell_length_a   9.72300042
_cell_length_b   9.72300042
_cell_length_c   15.29861500
_cell_angle_alpha   90.00000000
_cell_angle_beta   90.00000000
_cell_angle_gamma   119.34647390
_symmetry_Int_Tables_number   1
_chemical_formula_structural   ZrH16C5N2O3F4
_chemical_formula_sum   'Zr4 H64 C20 N8 O12 F16'
_cell_volume   1260.68283127
_cell_formula_units_Z   4
loop_
 _symmetry_equiv_pos_site_id
 _symmetry_equiv_pos_as_xyz
  1  'x, y, z'
loop_
 _atom_site_type_symbol
 _atom_site_label
 _atom_site_symmetry_multiplicity
 _atom_site_fract_x
 _atom_site_fract_y
 _atom_site_fract_z
 _atom_site_occupancy
  Zr  Zr0  1  0.40953400  0.40038100  0.60399500  1
  Zr  Zr1  1  0.59961900  0.59046600  0.39600500  1
  Zr  Zr2  1  0.90953400  0.90038100  0.89600500  1
  Zr  Zr3  1  0.09961900  0.09046600  0.10399500  1
  H  H0  1  0.36201200  0.32149100  0.79025100  1
  H  H1  1  0.67850900  0.63798800  0.20974900  1
  H  H2  1  0.86201200  0.82149100  0.70974900  1
  H  H3  1  0.17850900  0.13798800  0.29025100  1
  H  H4  1  0.20072100  0.18314400  0.74981000  1
  H  H5  1  0.81685600  0.79927900  0.25019000  1
  H  H6  1  0.70072100  0.68314400  0.75019000  1
  H  H7  1  0.31685600  0.29927900  0.24981000  1
  H  H8  1  0.53576800  0.51586800  0.90828300  1
  H  H9  1  0.48413200  0.46423200  0.09171700  1
  H  H10  1  0.03576800  0.01586800  0.59171700  1
  H  H11  1  0.98413200  0.96423200  0.40828300  1
  H  H12  1  0.41057200  0.50899000  0.84714900  1
  H  H13  1  0.49101000  0.58942800  0.15285100  1
  H  H14  1  0.91057200  0.00899000  0.65285100  1
  H  H15  1  0.99101000  0.08942800  0.34714900  1
  H  H16  1  0.03238900  0.30835800  0.62134100  1
  H  H17  1  0.69164200  0.96761100  0.37865900  1
  H  H18  1  0.53238900  0.80835800  0.87865900  1
  H  H19  1  0.19164200  0.46761100  0.12134100  1
  H  H20  1  0.94373000  0.32329500  0.52267800  1
  H  H21  1  0.67670500  0.05627000  0.47732200  1
  H  H22  1  0.44373000  0.82329500  0.97732200  1
  H  H23  1  0.17670500  0.55627000  0.02267800  1
  H  H24  1  0.84801400  0.31055100  0.62408000  1
  H  H25  1  0.68944900  0.15198600  0.37592000  1
  H  H26  1  0.34801400  0.81055100  0.87592000  1
  H  H27  1  0.18944900  0.65198600  0.12408000  1
  H  H28  1  0.02755500  0.73135200  0.56723900  1
  H  H29  1  0.26864800  0.97244500  0.43276100  1
  H  H30  1  0.52755500  0.23135200  0.93276100  1
  H  H31  1  0.76864800  0.47244500  0.06723900  1
  H  H32  1  0.85645600  0.57494100  0.61694100  1
  H  H33  1  0.42505900  0.14354400  0.38305900  1
  H  H34  1  0.35645600  0.07494100  0.88305900  1
  H  H35  1  0.92505900  0.64354400  0.11694100  1
  H  H36  1  0.90413800  0.55582500  0.50766500  1
  H  H37  1  0.44417500  0.09586200  0.49233500  1
  H  H38  1  0.40413800  0.05582500  0.99233500  1
  H  H39  1  0.94417500  0.59586200  0.00766500  1
  H  H40  1  0.49976100  0.79200000  0.58558800  1
  H  H41  1  0.20800000  0.50023900  0.41441200  1
  H  H42  1  0.99976100  0.29200000  0.91441200  1
  H  H43  1  0.70800000  0.00023900  0.08558800  1
  H  H44  1  0.50966900  0.84973500  0.69710200  1
  H  H45  1  0.15026500  0.49033100  0.30289800  1
  H  H46  1  0.00966900  0.34973500  0.80289800  1
  H  H47  1  0.65026500  0.99033100  0.19710200  1
  H  H48  1  0.49453100  0.96910000  0.61303300  1
  H  H49  1  0.03090000  0.50546900  0.38696700  1
  H  H50  1  0.99453100  0.46910000  0.88696700  1
  H  H51  1  0.53090000  0.00546900  0.11303300  1
  H  H52  1  0.09266600  0.76327100  0.70202100  1
  H  H53  1  0.23672900  0.90733400  0.29797900  1
  H  H54  1  0.59266600  0.26327100  0.79797900  1
  H  H55  1  0.73672900  0.40733400  0.20202100  1
  H  H56  1  0.23640400  0.94846100  0.65714200  1
  H  H57  1  0.05153900  0.76359600  0.34285800  1
  H  H58  1  0.73640400  0.44846100  0.84285800  1
  H  H59  1  0.55153900  0.26359600  0.15714200  1
  H  H60  1  0.27879900  0.87278300  0.75310100  1
  H  H61  1  0.12721700  0.72120100  0.24689900  1
  H  H62  1  0.77879900  0.37278300  0.74689900  1
  H  H63  1  0.62721700  0.22120100  0.25310100  1
  C  C0  1  0.20548900  0.60601500  0.61416900  1
  C  C1  1  0.39398500  0.79451100  0.38583100  1
  C  C2  1  0.70548900  0.10601500  0.88583200  1
  C  C3  1  0.89398500  0.29451100  0.11416800  1
  C  C4  1  0.96351100  0.35801200  0.59200300  1
  C  C5  1  0.64198800  0.03648900  0.40799700  1
  C  C6  1  0.46351100  0.85801200  0.90799700  1
  C  C7  1  0.14198800  0.53648900  0.09200300  1
  C  C8  1  0.95505200  0.60334300  0.57215100  1
  C  C9  1  0.39665700  0.04494800  0.42784900  1
  C  C10  1  0.45505200  0.10334300  0.92784900  1
  C  C11  1  0.89665700  0.54494800  0.07215100  1
  C  C12  1  0.45712800  0.84714900  0.63285900  1
  C  C13  1  0.15285100  0.54287200  0.36714100  1
  C  C14  1  0.95712800  0.34714900  0.86714100  1
  C  C15  1  0.65285100  0.04287200  0.13285900  1
  C  C16  1  0.21823100  0.83996700  0.68953900  1
  C  C17  1  0.16003300  0.78176900  0.31046100  1
  C  C18  1  0.71823100  0.33996700  0.81046100  1
  C  C19  1  0.66003300  0.28176900  0.18953900  1
  N  N0  1  0.04729700  0.52953100  0.60111600  1
  N  N1  1  0.47046900  0.95270300  0.39888400  1
  N  N2  1  0.54729700  0.02953100  0.89888400  1
  N  N3  1  0.97046900  0.45270300  0.10111600  1
  N  N4  1  0.28485400  0.76073300  0.63736200  1
  N  N5  1  0.23926700  0.71514600  0.36263800  1
  N  N6  1  0.78485400  0.26073300  0.86263800  1
  N  N7  1  0.73926700  0.21514600  0.13736200  1
  O  O0  1  0.28181300  0.53075700  0.60385100  1
  O  O1  1  0.46924300  0.71818700  0.39614900  1
  O  O2  1  0.78181300  0.03075700  0.89614900  1
  O  O3  1  0.96924300  0.21818700  0.10385100  1
  O  O4  1  0.30499900  0.27526800  0.73477400  1
  O  O5  1  0.72473200  0.69500100  0.26522600  1
  O  O6  1  0.80499900  0.77526800  0.76522600  1
  O  O7  1  0.22473200  0.19500100  0.23477400  1
  O  O8  1  0.43127100  0.43978300  0.88416500  1
  O  O9  1  0.56021700  0.56872900  0.11583500  1
  O  O10  1  0.93127100  0.93978300  0.61583500  1
  O  O11  1  0.06021700  0.06872900  0.38416500  1
  F  F0  1  0.53848300  0.54569300  0.70589600  1
  F  F1  1  0.45430700  0.46151700  0.29410400  1
  F  F2  1  0.03848300  0.04569300  0.79410400  1
  F  F3  1  0.95430700  0.96151700  0.20589600  1
  F  F4  1  0.20371300  0.20248100  0.57761400  1
  F  F5  1  0.79751900  0.79628700  0.42238600  1
  F  F6  1  0.70371300  0.70248100  0.92238600  1
  F  F7  1  0.29751900  0.29628700  0.07761400  1
  F  F8  1  0.53531900  0.29050300  0.60139800  1
  F  F9  1  0.70949700  0.46468100  0.39860200  1
  F  F10  1  0.03531900  0.79050300  0.89860200  1
  F  F11  1  0.20949700  0.96468100  0.10139800  1
  F  F12  1  0.60291800  0.60321600  0.53915600  1
  F  F13  1  0.39678400  0.39708200  0.46084400  1
  F  F14  1  0.10291800  0.10321600  0.96084400  1
  F  F15  1  0.89678400  0.89708200  0.03915600  1
loop_
_geom_bond_atom_site_label_1
_geom_bond_atom_site_label_2
_geom_bond_distance
_geom_bond_site_symmetry_2
H0 O4 0.992676 1_555
H1 O5 0.992676 1_555
H2 O6 0.992676 1_555
H3 O7 0.992676 1_555
H4 O4 0.996517 1_555
H5 O5 0.996517 1_555
H6 O6 0.996517 1_555
H7 O7 0.996517 1_555
H8 O8 0.989435 1_555
H9 O9 0.989435 1_555
H10 O10 0.989435 1_445
H11 O11 0.989435 1_665
H12 O8 0.972999 1_555
H13 O9 0.972999 1_555
H14 O10 0.972999 1_545
H15 O11 0.972999 1_655
C0 O0 1.281919 1_555
C0 N0 1.355548 1_555
C0 N4 1.358870 1_555
C1 O1 1.281919 1_555
C1 N1 1.355548 1_555
C1 N5 1.358870 1_555
C2 O2 1.281917 1_555
C2 N2 1.355545 1_555
C2 N6 1.358874 1_555
C3 O3 1.281917 1_555
C3 N3 1.355545 1_555
C3 N7 1.358874 1_555
C4 H16 1.095420 1_655
C4 H24 1.098592 1_555
C4 H20 1.100964 1_555
C4 N0 1.460342 1_655
C5 H17 1.095420 1_545
C5 H25 1.098592 1_555
C5 H21 1.100964 1_555
C5 N1 1.460342 1_545
C6 H18 1.095420 1_555
C6 H26 1.098592 1_555
C6 H22 1.100964 1_555
C6 N2 1.460342 1_565
C7 H19 1.095420 1_555
C7 H27 1.098592 1_555
C7 H23 1.100964 1_555
C7 N3 1.460342 1_455
C8 H28 1.091648 1_655
C8 H32 1.097868 1_555
C8 H36 1.098915 1_555
C8 N0 1.465184 1_655
C9 H29 1.091648 1_545
C9 H33 1.097868 1_555
C9 H37 1.098915 1_555
C9 N1 1.465184 1_545
C10 H30 1.091648 1_555
C10 H34 1.097868 1_555
C10 H38 1.098915 1_555
C10 N2 1.465184 1_555
C11 H31 1.091648 1_555
C11 H35 1.097868 1_555
C11 H39 1.098915 1_555
C11 N3 1.465184 1_555
C12 H40 1.095541 1_555
C12 H48 1.098882 1_555
C12 H44 1.102256 1_555
C12 N4 1.461820 1_555
C13 H41 1.095541 1_555
C13 H49 1.098882 1_555
C13 H45 1.102256 1_555
C13 N5 1.461820 1_555
C14 H42 1.095541 1_555
C14 H50 1.098882 1_555
C14 H46 1.102256 1_655
C14 N6 1.461820 1_555
C15 H43 1.095541 1_555
C15 H51 1.098882 1_555
C15 H47 1.102256 1_545
C15 N7 1.461820 1_555
C16 H52 1.091192 1_555
C16 H56 1.098616 1_555
C16 H60 1.100008 1_555
C16 N4 1.462685 1_555
C17 H53 1.091192 1_555
C17 H57 1.098616 1_555
C17 H61 1.100008 1_555
C17 N5 1.462685 1_555
C18 H54 1.091192 1_555
C18 H58 1.098616 1_555
C18 H62 1.100008 1_555
C18 N6 1.462685 1_555
C19 H55 1.091192 1_555
C19 H59 1.098616 1_555
C19 H63 1.100008 1_555
C19 N7 1.462685 1_555
O0 Zr0 2.166120 1_555
O1 Zr1 2.166120 1_555
O2 Zr2 2.166120 1_545
O3 Zr3 2.166120 1_655
O4 Zr0 2.303021 1_555
O5 Zr1 2.303021 1_555
O6 Zr2 2.303021 1_555
O7 Zr3 2.303021 1_555
F0 H6 1.633159 1_555
F0 Zr0 2.064496 1_555
F1 H7 1.633159 1_555
F1 Zr1 2.064496 1_555
F2 H4 1.633159 1_555
F2 Zr2 2.064496 1_445
F3 H5 1.633159 1_555
F3 Zr3 2.064496 1_665
F4 Zr0 2.023811 1_555
F5 Zr1 2.023811 1_555
F6 Zr2 2.023811 1_555
F7 Zr3 2.023811 1_555
F8 Zr0 1.979742 1_555
F9 Zr1 1.979742 1_555
F10 Zr2 1.979742 1_455
F11 Zr3 1.979742 1_565
F12 Zr0 2.184974 1_555
F12 Zr1 2.192864 1_555
F13 Zr1 2.184974 1_555
F13 Zr0 2.192864 1_555
F14 Zr2 2.184974 1_445
F14 Zr3 2.192864 1_556
F15 Zr3 2.184974 1_665
F15 Zr2 2.192864 1_554
