# generated using pymatgen
data_Li3Co2Cu3O10
_symmetry_space_group_name_H-M   'P 1'
_cell_length_a   5.02856404
_cell_length_b   5.26543349
_cell_length_c   7.44476366
_cell_angle_alpha   108.86127332
_cell_angle_beta   99.67487045
_cell_angle_gamma   102.50922787
_symmetry_Int_Tables_number   1
_chemical_formula_structural   Li3Co2Cu3O10
_chemical_formula_sum   'Li3 Co2 Cu3 O10'
_cell_volume   175.95573517
_cell_formula_units_Z   1
loop_
 _symmetry_equiv_pos_site_id
 _symmetry_equiv_pos_as_xyz
  1  'x, y, z'
loop_
 _atom_site_type_symbol
 _atom_site_label
 _atom_site_symmetry_multiplicity
 _atom_site_fract_x
 _atom_site_fract_y
 _atom_site_fract_z
 _atom_site_occupancy
  Li  Li0  1  0.21549000  0.91220000  0.40450700  1
  Li  Li1  1  0.50000000  0.50000000  0.50000000  1
  Li  Li2  1  0.78451000  0.08780000  0.59549300  1
  Co  Co0  1  0.11181200  0.69325100  0.69364900  1
  Co  Co1  1  0.88818800  0.30674900  0.30635100  1
  Cu  Cu0  1  0.00000000  0.50000000  0.00000000  1
  Cu  Cu1  1  0.69721200  0.88245300  0.90302300  1
  Cu  Cu2  1  0.30278800  0.11754700  0.09697700  1
  O  O0  1  0.05180700  0.04096500  0.83456500  1
  O  O1  1  0.31849800  0.73357500  0.95303800  1
  O  O2  1  0.10934300  0.33080700  0.54549600  1
  O  O3  1  0.21110800  0.46921800  0.22722700  1
  O  O4  1  0.44529100  0.85749800  0.65768100  1
  O  O5  1  0.55470900  0.14250200  0.34231900  1
  O  O6  1  0.78889200  0.53078200  0.77277300  1
  O  O7  1  0.89065700  0.66919300  0.45450400  1
  O  O8  1  0.68150200  0.26642500  0.04696200  1
  O  O9  1  0.94819300  0.95903500  0.16543500  1
loop_
_geom_bond_atom_site_label_1
_geom_bond_atom_site_label_2
_geom_bond_distance
_geom_bond_site_symmetry_2
Li0 O7 2.012657 1_455
Li0 O5 2.080123 1_565
Li0 O9 2.158372 1_455
Li0 O4 2.175768 1_555
Li0 O3 2.271668 1_555
Li0 O2 2.333887 1_565
Li1 O4 1.975159 1_555
Li1 O5 1.975159 1_555
Li1 O7 2.104289 1_555
Li1 O2 2.104289 1_555
Li1 O6 2.225790 1_555
Li1 O3 2.225790 1_555
Li2 O2 2.012657 1_655
Li2 O4 2.080123 1_545
Li2 O0 2.158372 1_655
Li2 O5 2.175768 1_555
Li2 O6 2.271668 1_555
Li2 O7 2.333887 1_545
Co0 O4 1.817722 1_555
Co0 O2 1.866267 1_555
Co0 O7 1.884200 1_455
Co0 O0 1.909855 1_565
Co0 O6 1.939375 1_455
Co0 O1 1.954255 1_555
Co1 O5 1.817722 1_555
Co1 O7 1.866267 1_555
Co1 O2 1.884200 1_655
Co1 O9 1.909855 1_545
Co1 O3 1.939375 1_655
Co1 O8 1.954255 1_555
Cu0 O3 1.913923 1_555
Cu0 O6 1.913923 1_454
Cu0 O1 1.952650 1_554
Cu0 O8 1.952650 1_455
Cu0 O0 2.425418 1_554
Cu0 O9 2.425418 1_455
Cu1 O8 1.984693 1_566
Cu1 O6 1.985131 1_555
Cu1 O4 1.988268 1_555
Cu1 O9 2.003362 1_556
Cu1 O0 2.017821 1_665
Cu1 O1 2.039659 1_555
Cu2 O1 1.984693 1_544
Cu2 O3 1.985131 1_555
Cu2 O5 1.988268 1_555
Cu2 O0 2.003362 1_554
Cu2 O9 2.017821 1_445
Cu2 O8 2.039659 1_555
