# generated using pymatgen
data_Ho2Ge2O7
_symmetry_space_group_name_H-M   'P 1'
_cell_length_a   6.80559900
_cell_length_b   6.82756056
_cell_length_c   12.40479516
_cell_angle_alpha   94.87181208
_cell_angle_beta   91.76006918
_cell_angle_gamma   91.87294693
_symmetry_Int_Tables_number   1
_chemical_formula_structural   Ho2Ge2O7
_chemical_formula_sum   'Ho8 Ge8 O28'
_cell_volume   573.68283644
_cell_formula_units_Z   4
loop_
 _symmetry_equiv_pos_site_id
 _symmetry_equiv_pos_as_xyz
  1  'x, y, z'
loop_
 _atom_site_type_symbol
 _atom_site_label
 _atom_site_symmetry_multiplicity
 _atom_site_fract_x
 _atom_site_fract_y
 _atom_site_fract_z
 _atom_site_occupancy
  Ho  Ho0  1  0.05146400  0.33150100  0.11252500  1
  Ho  Ho1  1  0.11350800  0.09212400  0.35706000  1
  Ho  Ho2  1  0.31600800  0.83242200  0.11477000  1
  Ho  Ho3  1  0.37261000  0.21293000  0.63111400  1
  Ho  Ho4  1  0.62739000  0.78707000  0.36888600  1
  Ho  Ho5  1  0.68399200  0.16757800  0.88523000  1
  Ho  Ho6  1  0.88649200  0.90787600  0.64294000  1
  Ho  Ho7  1  0.94853600  0.66849900  0.88747500  1
  Ge  Ge0  1  0.13935200  0.62293400  0.37718500  1
  Ge  Ge1  1  0.16465100  0.14269300  0.88398000  1
  Ge  Ge2  1  0.38663500  0.72545900  0.59858100  1
  Ge  Ge3  1  0.51497600  0.33804300  0.16761100  1
  Ge  Ge4  1  0.48502400  0.66195700  0.83238900  1
  Ge  Ge5  1  0.61336500  0.27454100  0.40141900  1
  Ge  Ge6  1  0.83534900  0.85730700  0.11602000  1
  Ge  Ge7  1  0.86064800  0.37706600  0.62281500  1
  O  O0  1  0.00553700  0.66681400  0.07994500  1
  O  O1  1  0.98860800  0.97552400  0.81513600  1
  O  O2  1  0.04573700  0.21850000  0.57355400  1
  O  O3  1  0.06549500  0.40229600  0.30278500  1
  O  O4  1  0.24496600  0.09334400  0.01434200  1
  O  O5  1  0.22312700  0.91238600  0.62728800  1
  O  O6  1  0.28803900  0.79606900  0.31129800  1
  O  O7  1  0.29780400  0.55778400  0.48608500  1
  O  O8  1  0.28544400  0.71106800  0.91479200  1
  O  O9  1  0.36602600  0.21030100  0.81060200  1
  O  O10  1  0.34194300  0.49679400  0.11917500  1
  O  O11  1  0.38823900  0.13560000  0.21836600  1
  O  O12  1  0.40265900  0.15703000  0.44987800  1
  O  O13  1  0.39914500  0.54551300  0.69545100  1
  O  O14  1  0.60085500  0.45448700  0.30454900  1
  O  O15  1  0.59734100  0.84297000  0.55012200  1
  O  O16  1  0.61176100  0.86440000  0.78163400  1
  O  O17  1  0.65805700  0.50320600  0.88082500  1
  O  O18  1  0.63397400  0.78969900  0.18939800  1
  O  O19  1  0.71455600  0.28893200  0.08520800  1
  O  O20  1  0.70219600  0.44221600  0.51391500  1
  O  O21  1  0.71196100  0.20393100  0.68870200  1
  O  O22  1  0.77687300  0.08761400  0.37271200  1
  O  O23  1  0.75503400  0.90665600  0.98565800  1
  O  O24  1  0.93450500  0.59770400  0.69721500  1
  O  O25  1  0.95426300  0.78150000  0.42644600  1
  O  O26  1  0.01139200  0.02447600  0.18486400  1
  O  O27  1  0.99446300  0.33318600  0.92005500  1
loop_
_geom_bond_atom_site_label_1
_geom_bond_atom_site_label_2
_geom_bond_distance
_geom_bond_site_symmetry_2
Ho0 O10 2.239828 1_555
Ho0 O19 2.312681 1_455
Ho0 O26 2.360290 1_555
Ho0 O3 2.366932 1_555
Ho0 O0 2.387135 1_555
Ho0 O4 2.400769 1_555
Ho0 O27 2.408128 1_454
Ho1 O26 2.231431 1_555
Ho1 O12 2.260894 1_555
Ho1 O22 2.304576 1_455
Ho1 O3 2.306228 1_555
Ho1 O6 2.412952 1_545
Ho1 O25 2.574935 1_445
Ho1 O11 2.606148 1_555
Ho1 O2 2.806775 1_555
Ho2 O10 2.309182 1_555
Ho2 O4 2.314219 1_565
Ho2 O18 2.364071 1_555
Ho2 O11 2.370804 1_565
Ho2 O0 2.373693 1_555
Ho2 O6 2.483815 1_555
Ho2 O8 2.547841 1_554
Ho2 O26 2.620671 1_565
Ho3 O9 2.229921 1_555
Ho3 O5 2.256516 1_545
Ho3 O12 2.264833 1_555
Ho3 O2 2.317873 1_555
Ho3 O13 2.341431 1_555
Ho3 O21 2.400669 1_555
Ho4 O18 2.229921 1_555
Ho4 O22 2.256516 1_565
Ho4 O15 2.264833 1_555
Ho4 O25 2.317873 1_555
Ho4 O14 2.341431 1_555
Ho4 O6 2.400669 1_555
Ho5 O17 2.309182 1_555
Ho5 O23 2.314219 1_545
Ho5 O9 2.364071 1_555
Ho5 O16 2.370804 1_545
Ho5 O27 2.373693 1_555
Ho5 O21 2.483815 1_555
Ho5 O19 2.547841 1_556
Ho5 O1 2.620671 1_545
Ho6 O1 2.231431 1_555
Ho6 O15 2.260894 1_555
Ho6 O5 2.304576 1_655
Ho6 O24 2.306228 1_555
Ho6 O21 2.412952 1_565
Ho6 O2 2.574935 1_665
Ho6 O16 2.606148 1_555
Ho6 O25 2.806775 1_555
Ho7 O17 2.239828 1_555
Ho7 O8 2.312681 1_655
Ho7 O1 2.360290 1_555
Ho7 O24 2.366932 1_555
Ho7 O27 2.387135 1_555
Ho7 O23 2.400769 1_555
Ho7 O0 2.408128 1_656
Ge0 O3 1.749167 1_555
Ge0 O25 1.776577 1_455
Ge0 O6 1.796109 1_555
Ge0 O7 1.797092 1_555
Ge1 O9 1.739673 1_555
Ge1 O4 1.754318 1_556
Ge1 O1 1.774711 1_445
Ge1 O27 1.806869 1_455
Ge2 O5 1.741802 1_555
Ge2 O15 1.766642 1_555
Ge2 O13 1.792197 1_555
Ge2 O7 1.804175 1_555
Ge3 O19 1.749006 1_555
Ge3 O10 1.753031 1_555
Ge3 O11 1.775963 1_555
Ge3 O14 1.881078 1_555
Ge4 O8 1.749006 1_555
Ge4 O17 1.753031 1_555
Ge4 O16 1.775963 1_555
Ge4 O13 1.881078 1_555
Ge5 O22 1.741802 1_555
Ge5 O12 1.766642 1_555
Ge5 O14 1.792197 1_555
Ge5 O20 1.804175 1_555
Ge6 O18 1.739673 1_555
Ge6 O23 1.754318 1_554
Ge6 O26 1.774711 1_665
Ge6 O0 1.806869 1_655
Ge7 O24 1.749167 1_555
Ge7 O2 1.776577 1_655
Ge7 O21 1.796109 1_555
Ge7 O20 1.797092 1_555
