# generated using pymatgen
data_Li4Cu2Ni3Sb3O16
_symmetry_space_group_name_H-M   'P 1'
_cell_length_a   6.06382606
_cell_length_b   6.06382606
_cell_length_c   9.66925854
_cell_angle_alpha   87.86813451
_cell_angle_beta   87.86813451
_cell_angle_gamma   59.62215622
_symmetry_Int_Tables_number   1
_chemical_formula_structural   Li4Cu2Ni3Sb3O16
_chemical_formula_sum   'Li4 Cu2 Ni3 Sb3 O16'
_cell_volume   306.44434692
_cell_formula_units_Z   1
loop_
 _symmetry_equiv_pos_site_id
 _symmetry_equiv_pos_as_xyz
  1  'x, y, z'
loop_
 _atom_site_type_symbol
 _atom_site_label
 _atom_site_symmetry_multiplicity
 _atom_site_fract_x
 _atom_site_fract_y
 _atom_site_fract_z
 _atom_site_occupancy
  Li  Li0  1  0.67031500  0.67031500  0.11432000  1
  Li  Li1  1  0.97406800  0.97406800  0.01406200  1
  Li  Li2  1  0.98681700  0.98681700  0.49622100  1
  Li  Li3  1  0.32859100  0.32859100  0.59758900  1
  Cu  Cu0  1  0.67486500  0.67486500  0.50497500  1
  Cu  Cu1  1  0.35151800  0.35151800  0.02509800  1
  Ni  Ni0  1  0.82910400  0.82910400  0.78417200  1
  Ni  Ni1  1  0.17413500  0.66305500  0.28673000  1
  Ni  Ni2  1  0.66305500  0.17413500  0.28673000  1
  Sb  Sb0  1  0.33588700  0.82888400  0.78556500  1
  Sb  Sb1  1  0.82888400  0.33588700  0.78556500  1
  Sb  Sb2  1  0.17332200  0.17332200  0.28640700  1
  O  O0  1  0.33165100  0.84138300  0.40036400  1
  O  O1  1  0.51203000  0.51203000  0.66482800  1
  O  O2  1  0.65964100  0.65964100  0.89979200  1
  O  O3  1  0.00163000  0.00163000  0.68138000  1
  O  O4  1  0.00546200  0.00546200  0.19420700  1
  O  O5  1  0.84138300  0.33165100  0.40036400  1
  O  O6  1  0.50908700  0.96324900  0.65953500  1
  O  O7  1  0.96324900  0.50908700  0.65953500  1
  O  O8  1  0.15258000  0.15258000  0.89736500  1
  O  O9  1  0.83684600  0.83684600  0.39270100  1
  O  O10  1  0.04394500  0.48132800  0.15461000  1
  O  O11  1  0.48132800  0.04394500  0.15461000  1
  O  O12  1  0.33190800  0.33190800  0.39483200  1
  O  O13  1  0.16899000  0.67390800  0.90197600  1
  O  O14  1  0.48590200  0.48590200  0.16669700  1
  O  O15  1  0.67390800  0.16899000  0.90197600  1
loop_
_geom_bond_atom_site_label_1
_geom_bond_atom_site_label_2
_geom_bond_distance
_geom_bond_site_symmetry_2
Li0 O14 1.984418 1_555
Li0 O11 2.001148 1_565
Li0 O10 2.001148 1_655
Li0 O2 2.082168 1_554
Li1 O4 1.786779 1_665
Li1 O15 1.939094 1_564
Li1 O13 1.939094 1_654
Li1 O8 2.149427 1_664
Li2 O3 1.803768 1_665
Li2 O9 1.904682 1_555
Li2 O0 2.015119 1_655
Li2 O5 2.015119 1_565
Li3 O12 1.959324 1_555
Li3 O6 1.990540 1_545
Li3 O7 1.990540 1_455
Li3 O1 2.063087 1_555
Cu0 O9 1.981204 1_555
Cu0 O5 2.080696 1_555
Cu0 O0 2.080696 1_555
Cu0 O6 2.146327 1_555
Cu0 O7 2.146327 1_555
Cu0 O1 2.257871 1_555
Cu1 O14 2.010042 1_555
Cu1 O11 2.020162 1_555
Cu1 O10 2.020162 1_555
Cu1 O15 2.049515 1_554
Cu1 O13 2.049515 1_554
Cu1 O8 2.475758 1_554
Ni0 O3 2.032003 1_665
Ni0 O2 2.063681 1_555
Ni0 O6 2.093866 1_555
Ni0 O7 2.093866 1_555
Ni0 O15 2.136378 1_565
Ni0 O13 2.136378 1_655
Ni1 O4 1.984823 1_565
Ni1 O14 1.987600 1_555
Ni1 O12 2.003812 1_555
Ni1 O9 2.021899 1_455
Ni1 O0 2.121320 1_555
Ni1 O10 2.128189 1_555
Ni2 O4 1.984823 1_655
Ni2 O14 1.987600 1_555
Ni2 O12 2.003812 1_555
Ni2 O9 2.021899 1_545
Ni2 O5 2.121320 1_555
Ni2 O11 2.128189 1_555
O0 Sb2 2.036305 1_565
O1 Sb1 2.047888 1_555
O1 Sb0 2.047888 1_555
O2 Sb1 2.041200 1_555
O2 Sb0 2.041200 1_555
O3 Sb0 2.036263 1_545
O3 Sb1 2.036263 1_455
O4 Sb2 2.012417 1_555
O5 Sb2 2.036305 1_655
O6 Sb0 1.987029 1_555
O7 Sb1 1.987029 1_555
O8 Sb1 2.029454 1_455
O8 Sb0 2.029454 1_545
O10 Sb2 2.035473 1_555
O11 Sb2 2.035473 1_555
O12 Sb2 2.008462 1_555
O13 Sb0 1.993184 1_555
O15 Sb1 1.993184 1_555
