# generated using pymatgen
data_Cr2Fe3Te(PO4)6
_symmetry_space_group_name_H-M   'P 1'
_cell_length_a   8.58342043
_cell_length_b   8.58342043
_cell_length_c   8.58342046
_cell_angle_alpha   61.29078245
_cell_angle_beta   61.29078245
_cell_angle_gamma   61.29077976
_symmetry_Int_Tables_number   1
_chemical_formula_structural   Cr2Fe3Te(PO4)6
_chemical_formula_sum   'Cr2 Fe3 Te1 P6 O24'
_cell_volume   460.13862007
_cell_formula_units_Z   1
loop_
 _symmetry_equiv_pos_site_id
 _symmetry_equiv_pos_as_xyz
  1  'x, y, z'
loop_
 _atom_site_type_symbol
 _atom_site_label
 _atom_site_symmetry_multiplicity
 _atom_site_fract_x
 _atom_site_fract_y
 _atom_site_fract_z
 _atom_site_occupancy
  Cr  Cr0  1  0.99693600  0.99693600  0.99693600  1
  Cr  Cr1  1  0.50138500  0.50138500  0.50138500  1
  Fe  Fe0  1  0.85202800  0.85202800  0.85202800  1
  Fe  Fe1  1  0.64750400  0.64750400  0.64750400  1
  Fe  Fe2  1  0.35408700  0.35408700  0.35408700  1
  Te  Te0  1  0.14755500  0.14755500  0.14755500  1
  P  P0  1  0.94541900  0.25360300  0.55816100  1
  P  P1  1  0.55816100  0.94541900  0.25360300  1
  P  P2  1  0.74223500  0.45768000  0.04882400  1
  P  P3  1  0.45768000  0.04882400  0.74223500  1
  P  P4  1  0.04882400  0.74223500  0.45768000  1
  P  P5  1  0.25360300  0.55816100  0.94541900  1
  O  O0  1  0.89710700  0.66911800  0.50263700  1
  O  O1  1  0.66911800  0.50263700  0.89710700  1
  O  O2  1  0.93393500  0.09546300  0.75289800  1
  O  O3  1  0.50263700  0.89710700  0.66911800  1
  O  O4  1  0.97465800  0.17835100  0.41071500  1
  O  O5  1  0.74932900  0.40831800  0.57164300  1
  O  O6  1  0.75289800  0.93393500  0.09546300  1
  O  O7  1  0.57164300  0.74932900  0.40831800  1
  O  O8  1  0.82208600  0.60524000  0.00481700  1
  O  O9  1  0.40831800  0.57164300  0.74932900  1
  O  O10  1  0.89804400  0.25525800  0.05736100  1
  O  O11  1  0.60524000  0.00481700  0.82208600  1
  O  O12  1  0.41071500  0.97465800  0.17835100  1
  O  O13  1  0.09546300  0.75289800  0.93393500  1
  O  O14  1  0.59161700  0.44021200  0.24834500  1
  O  O15  1  0.17835100  0.41071500  0.97465800  1
  O  O16  1  0.44021200  0.24834500  0.59161700  1
  O  O17  1  0.25525800  0.05736100  0.89804400  1
  O  O18  1  0.24834500  0.59161700  0.44021200  1
  O  O19  1  0.00481700  0.82208600  0.60524000  1
  O  O20  1  0.50199200  0.10873900  0.31670100  1
  O  O21  1  0.05736100  0.89804400  0.25525800  1
  O  O22  1  0.31670100  0.50199200  0.10873900  1
  O  O23  1  0.10873900  0.31670100  0.50199200  1
loop_
_geom_bond_atom_site_label_1
_geom_bond_atom_site_label_2
_geom_bond_distance
_geom_bond_site_symmetry_2
Cr0 O13 2.083818 1_655
Cr0 O2 2.083818 1_565
Cr0 O6 2.083818 1_556
Cr0 O10 2.186222 1_566
Cr0 O21 2.186222 1_656
Cr0 O17 2.186222 1_665
Cr1 O5 2.160546 1_555
Cr1 O9 2.160546 1_555
Cr1 O7 2.160546 1_555
Cr1 O18 2.163735 1_555
Cr1 O14 2.163735 1_555
Cr1 O16 2.163735 1_555
Fe0 O11 1.950224 1_565
Fe0 O19 1.950224 1_655
Fe0 O8 1.950224 1_556
Fe0 O13 2.170901 1_655
Fe0 O6 2.170901 1_556
Fe0 O2 2.170901 1_565
Fe1 O3 1.942034 1_555
Fe1 O1 1.942034 1_555
Fe1 O0 1.942034 1_555
Fe1 O5 2.101547 1_555
Fe1 O7 2.101547 1_555
Fe1 O9 2.101547 1_555
Fe2 O20 1.959316 1_555
Fe2 O22 1.959316 1_555
Fe2 O23 1.959316 1_555
Fe2 O18 2.133690 1_555
Fe2 O16 2.133690 1_555
Fe2 O14 2.133690 1_555
O0 P4 1.519334 1_655
O1 P2 1.519334 1_556
O2 P0 1.560968 1_555
O3 P3 1.519334 1_565
O4 P0 1.551255 1_555
O4 Te0 2.085838 1_655
O5 P0 1.556589 1_555
O6 P1 1.560968 1_555
O7 P1 1.556589 1_555
O8 P2 1.530455 1_555
O9 P5 1.556589 1_555
O10 P2 1.597556 1_555
O10 Te0 2.245854 1_655
O11 P3 1.530455 1_555
O12 P1 1.551255 1_555
O12 Te0 2.085837 1_565
O13 P5 1.560968 1_555
O14 P2 1.561794 1_555
O15 P5 1.551255 1_555
O15 Te0 2.085838 1_556
O16 P3 1.561794 1_555
O17 P3 1.597556 1_555
O17 Te0 2.245854 1_556
O18 P4 1.561794 1_555
O19 P4 1.530455 1_555
O20 P1 1.523212 1_545
O21 P4 1.597556 1_555
O21 Te0 2.245854 1_565
O22 P5 1.523212 1_554
O23 P0 1.523212 1_455
