# generated using pymatgen
data_SiH10C2N4(OF3)2
_symmetry_space_group_name_H-M   'P 1'
_cell_length_a   8.29000100
_cell_length_b   9.22598800
_cell_length_c   12.73360200
_cell_angle_alpha   90.00000000
_cell_angle_beta   90.00000000
_cell_angle_gamma   90.00000000
_symmetry_Int_Tables_number   1
_chemical_formula_structural   SiH10C2N4(OF3)2
_chemical_formula_sum   'Si4 H40 C8 N16 O8 F24'
_cell_volume   973.90980865
_cell_formula_units_Z   4
loop_
 _symmetry_equiv_pos_site_id
 _symmetry_equiv_pos_as_xyz
  1  'x, y, z'
loop_
 _atom_site_type_symbol
 _atom_site_label
 _atom_site_symmetry_multiplicity
 _atom_site_fract_x
 _atom_site_fract_y
 _atom_site_fract_z
 _atom_site_occupancy
  Si  Si0  1  0.00000000  0.50000000  0.50000000  1
  Si  Si1  1  0.50000000  0.00000000  0.50000000  1
  Si  Si2  1  0.50000000  0.50000000  0.00000000  1
  Si  Si3  1  0.00000000  0.00000000  0.00000000  1
  H  H0  1  0.58699800  0.73451200  0.66553700  1
  H  H1  1  0.91300200  0.23451200  0.33446300  1
  H  H2  1  0.08699800  0.26548800  0.83446300  1
  H  H3  1  0.41300200  0.76548800  0.16553700  1
  H  H4  1  0.41300200  0.26548800  0.33446300  1
  H  H5  1  0.08699800  0.76548800  0.66553700  1
  H  H6  1  0.91300200  0.73451200  0.16553700  1
  H  H7  1  0.58699800  0.23451200  0.83446300  1
  H  H8  1  0.74531300  0.61000600  0.65193100  1
  H  H9  1  0.75468700  0.11000600  0.34806900  1
  H  H10  1  0.24531300  0.38999400  0.84806900  1
  H  H11  1  0.25468700  0.88999400  0.15193100  1
  H  H12  1  0.25468700  0.38999400  0.34806900  1
  H  H13  1  0.24531300  0.88999400  0.65193100  1
  H  H14  1  0.75468700  0.61000600  0.15193100  1
  H  H15  1  0.74531300  0.11000600  0.84806900  1
  H  H16  1  0.66954600  0.37185600  0.59478600  1
  H  H17  1  0.83045400  0.87185600  0.40521400  1
  H  H18  1  0.16954600  0.62814400  0.90521400  1
  H  H19  1  0.33045400  0.12814400  0.09478600  1
  H  H20  1  0.33045400  0.62814400  0.40521400  1
  H  H21  1  0.16954600  0.12814400  0.59478600  1
  H  H22  1  0.83045400  0.37185600  0.09478600  1
  H  H23  1  0.66954600  0.87185600  0.90521400  1
  H  H24  1  0.46749000  0.31814900  0.60195900  1
  H  H25  1  0.03251000  0.81814900  0.39804100  1
  H  H26  1  0.96749000  0.68185100  0.89804100  1
  H  H27  1  0.53251000  0.18185100  0.10195900  1
  H  H28  1  0.53251000  0.68185100  0.39804100  1
  H  H29  1  0.96749000  0.18185100  0.60195900  1
  H  H30  1  0.03251000  0.31814900  0.10195900  1
  H  H31  1  0.46749000  0.81814900  0.89804100  1
  H  H32  1  0.28438600  0.50299000  0.62455800  1
  H  H33  1  0.21561400  0.00299000  0.37544200  1
  H  H34  1  0.78438600  0.49701000  0.87544200  1
  H  H35  1  0.71561400  0.99701000  0.12455800  1
  H  H36  1  0.71561400  0.49701000  0.37544200  1
  H  H37  1  0.78438600  0.99701000  0.62455800  1
  H  H38  1  0.21561400  0.50299000  0.12455800  1
  H  H39  1  0.28438600  0.00299000  0.87544200  1
  C  C0  1  0.51496800  0.52902400  0.64616900  1
  C  C1  1  0.98503200  0.02902400  0.35383100  1
  C  C2  1  0.01496800  0.47097600  0.85383100  1
  C  C3  1  0.48503200  0.97097600  0.14616900  1
  C  C4  1  0.48503200  0.47097600  0.35383100  1
  C  C5  1  0.01496800  0.97097600  0.64616900  1
  C  C6  1  0.98503200  0.52902400  0.14616900  1
  C  C7  1  0.51496800  0.02902400  0.85383100  1
  N  N0  1  0.62573400  0.62946900  0.66574000  1
  N  N1  1  0.87426600  0.12946900  0.33426000  1
  N  N2  1  0.12573400  0.37053100  0.83426000  1
  N  N3  1  0.37426600  0.87053100  0.16574000  1
  N  N4  1  0.37426600  0.37053100  0.33426000  1
  N  N5  1  0.12573400  0.87053100  0.66574000  1
  N  N6  1  0.87426600  0.62946900  0.16574000  1
  N  N7  1  0.62573400  0.12946900  0.83426000  1
  N  N8  1  0.55295200  0.39574400  0.61543500  1
  N  N9  1  0.94704800  0.89574400  0.38456500  1
  N  N10  1  0.05295200  0.60425600  0.88456500  1
  N  N11  1  0.44704800  0.10425600  0.11543500  1
  N  N12  1  0.44704800  0.60425600  0.38456500  1
  N  N13  1  0.05295200  0.10425600  0.61543500  1
  N  N14  1  0.94704800  0.39574400  0.11543500  1
  N  N15  1  0.55295200  0.89574400  0.88456500  1
  O  O0  1  0.36369300  0.56896000  0.66135900  1
  O  O1  1  0.13630700  0.06896000  0.33864100  1
  O  O2  1  0.86369300  0.43104000  0.83864100  1
  O  O3  1  0.63630700  0.93104000  0.16135900  1
  O  O4  1  0.63630700  0.43104000  0.33864100  1
  O  O5  1  0.86369300  0.93104000  0.66135900  1
  O  O6  1  0.13630700  0.56896000  0.16135900  1
  O  O7  1  0.36369300  0.06896000  0.83864100  1
  F  F0  1  0.96858200  0.59555900  0.61352600  1
  F  F1  1  0.53141800  0.09555900  0.38647400  1
  F  F2  1  0.46858200  0.40444100  0.88647400  1
  F  F3  1  0.03141800  0.90444100  0.11352600  1
  F  F4  1  0.03141800  0.40444100  0.38647400  1
  F  F5  1  0.46858200  0.90444100  0.61352600  1
  F  F6  1  0.53141800  0.59555900  0.11352600  1
  F  F7  1  0.96858200  0.09555900  0.88647400  1
  F  F8  1  0.12168900  0.63613800  0.45329200  1
  F  F9  1  0.37831100  0.13613800  0.54670800  1
  F  F10  1  0.62168900  0.36386200  0.04670800  1
  F  F11  1  0.87831100  0.86386200  0.95329200  1
  F  F12  1  0.87831100  0.36386200  0.54670800  1
  F  F13  1  0.62168900  0.86386200  0.45329200  1
  F  F14  1  0.37831100  0.63613800  0.95329200  1
  F  F15  1  0.12168900  0.13613800  0.04670800  1
  F  F16  1  0.16551800  0.41600100  0.55655400  1
  F  F17  1  0.33448200  0.91600100  0.44344600  1
  F  F18  1  0.66551800  0.58399900  0.94344600  1
  F  F19  1  0.83448200  0.08399900  0.05655400  1
  F  F20  1  0.83448200  0.58399900  0.44344600  1
  F  F21  1  0.66551800  0.08399900  0.55655400  1
  F  F22  1  0.33448200  0.41600100  0.05655400  1
  F  F23  1  0.16551800  0.91600100  0.94344600  1
loop_
_geom_bond_atom_site_label_1
_geom_bond_atom_site_label_2
_geom_bond_distance
_geom_bond_site_symmetry_2
H0 N0 1.020946 1_555
H1 N1 1.020946 1_555
H2 N2 1.020946 1_555
H3 N3 1.020946 1_555
H4 N4 1.020946 1_555
H5 N5 1.020946 1_555
H6 N6 1.020946 1_555
H7 N7 1.020946 1_555
H8 N0 1.022672 1_555
H9 N1 1.022672 1_555
H10 N2 1.022672 1_555
H11 N3 1.022672 1_555
H12 N4 1.022672 1_555
H13 N5 1.022672 1_555
H14 N6 1.022672 1_555
H15 N7 1.022672 1_555
H16 N8 1.025648 1_555
H17 N9 1.025648 1_555
H18 N10 1.025648 1_555
H19 N11 1.025648 1_555
H20 N12 1.025648 1_555
H21 N13 1.025648 1_555
H22 N14 1.025648 1_555
H23 N15 1.025648 1_555
H24 N8 1.021709 1_555
H25 N9 1.021709 1_455
H26 N10 1.021709 1_655
H27 N11 1.021709 1_555
H28 N12 1.021709 1_555
H29 N13 1.021709 1_655
H30 N14 1.021709 1_455
H31 N15 1.021709 1_555
H32 O0 1.011080 1_555
H33 O1 1.011080 1_555
H34 O2 1.011080 1_555
H35 O3 1.011080 1_555
H36 O4 1.011080 1_555
H37 O5 1.011080 1_555
H38 O6 1.011080 1_555
H39 O7 1.011080 1_555
C0 O0 1.321309 1_555
C0 N0 1.328183 1_555
C0 N8 1.328279 1_555
C1 O1 1.321309 1_655
C1 N1 1.328183 1_555
C1 N9 1.328279 1_545
C2 O2 1.321309 1_455
C2 N2 1.328183 1_555
C2 N10 1.328279 1_555
C3 O3 1.321309 1_555
C3 N3 1.328183 1_555
C3 N11 1.328279 1_565
C4 O4 1.321309 1_555
C4 N4 1.328183 1_555
C4 N12 1.328279 1_555
C5 O5 1.321309 1_455
C5 N5 1.328183 1_555
C5 N13 1.328279 1_565
C6 O6 1.321309 1_655
C6 N6 1.328183 1_555
C6 N14 1.328279 1_555
C7 O7 1.321309 1_555
C7 N7 1.328183 1_555
C7 N15 1.328279 1_545
F0 Si0 1.713139 1_655
F1 Si1 1.713139 1_555
F2 Si2 1.713139 1_556
F3 Si3 1.713139 1_565
F4 Si0 1.713139 1_555
F5 Si1 1.713139 1_565
F6 Si2 1.713139 1_555
F7 Si3 1.713139 1_656
F8 Si0 1.717259 1_555
F9 Si1 1.717259 1_555
F10 Si2 1.717259 1_555
F11 Si3 1.717259 1_666
F12 Si0 1.717259 1_655
F13 Si1 1.717259 1_565
F14 Si2 1.717259 1_556
F15 Si3 1.717259 1_555
F16 H32 1.537853 1_555
F16 Si0 1.732617 1_555
F17 H33 1.537853 1_565
F17 Si1 1.732617 1_565
F18 H34 1.537853 1_555
F18 Si2 1.732617 1_556
F19 H35 1.537853 1_545
F19 Si3 1.732617 1_655
F20 H36 1.537853 1_555
F20 Si0 1.732617 1_655
F21 H37 1.537853 1_545
F21 Si1 1.732617 1_555
F22 H38 1.537853 1_555
F22 Si2 1.732617 1_555
F23 H39 1.537853 1_565
F23 Si3 1.732617 1_566
