# generated using pymatgen
data_Li4V3P8O29
_symmetry_space_group_name_H-M   'P 1'
_cell_length_a   9.80016488
_cell_length_b   9.81272716
_cell_length_c   13.96723913
_cell_angle_alpha   90.04357973
_cell_angle_beta   89.81601921
_cell_angle_gamma   59.93348720
_symmetry_Int_Tables_number   1
_chemical_formula_structural   Li4V3P8O29
_chemical_formula_sum   'Li8 V6 P16 O58'
_cell_volume   1162.43579179
_cell_formula_units_Z   2
loop_
 _symmetry_equiv_pos_site_id
 _symmetry_equiv_pos_as_xyz
  1  'x, y, z'
loop_
 _atom_site_type_symbol
 _atom_site_label
 _atom_site_symmetry_multiplicity
 _atom_site_fract_x
 _atom_site_fract_y
 _atom_site_fract_z
 _atom_site_occupancy
  Li  Li0  1  0.77268585  0.90797979  0.55889388  1
  Li  Li1  1  0.90421889  0.32320792  0.55808053  1
  Li  Li2  1  0.76937132  0.31984899  0.06173065  1
  Li  Li3  1  0.32383204  0.90461598  0.06088076  1
  Li  Li4  1  0.31970155  0.76957234  0.56012710  1
  Li  Li5  1  0.22577531  0.67756513  0.94217106  1
  Li  Li6  1  0.22896966  0.09312937  0.43894647  1
  Li  Li7  1  0.09172453  0.23083596  0.93992445  1
  V  V0  1  0.56605179  0.43002888  0.25530060  1
  V  V1  1  0.43431523  0.56506920  0.74918942  1
  V  V2  1  0.57000421  0.00262926  0.75482778  1
  V  V3  1  0.43934613  -0.00093571  0.24819142  1
  V  V4  1  0.99863411  0.57216195  0.24933245  1
  V  V5  1  0.99831408  0.43740362  0.74899968  1
  P  P0  1  0.91512366  0.77049893  0.84354621  1
  P  P1  1  0.77123364  0.91420964  0.34234220  1
  P  P2  1  0.91259419  0.31953553  0.34110244  1
  P  P3  1  0.66765279  0.66212093  0.12812618  1
  P  P4  1  0.66576986  0.66888935  0.62811860  1
  P  P5  1  0.76930486  0.31834225  0.84344210  1
  P  P6  1  0.68517298  0.22971545  0.65870503  1
  P  P7  1  0.31850345  0.91195919  0.84130477  1
  P  P8  1  0.68832177  0.08491265  0.15573702  1
  P  P9  1  0.31725165  0.77181137  0.34295045  1
  P  P10  1  0.23120191  0.68132440  0.15968288  1
  P  P11  1  0.32840357  0.33474268  0.37195543  1
  P  P12  1  0.32947126  0.33515530  0.87236082  1
  P  P13  1  0.08509883  0.68533137  0.65718067  1
  P  P14  1  0.23224172  0.08861562  0.65867940  1
  P  P15  1  0.08812175  0.23188881  0.15769086  1
  O  O0  1  0.99415894  0.76402876  0.56987348  1
  O  O1  1  0.91504221  0.74472093  0.33208775  1
  O  O2  1  0.76658361  0.00057444  0.06828021  1
  O  O3  1  0.74429087  0.91425554  0.83570173  1
  O  O4  1  0.90380306  0.62033366  0.82378404  1
  O  O5  1  0.81505055  0.66274441  0.17423103  1
  O  O6  1  0.90551944  0.47843505  0.32423575  1
  O  O7  1  0.99930773  0.24162482  0.06848754  1
  O  O8  1  0.91768983  0.33862598  0.83593835  1
  O  O9  1  0.66992163  0.81760605  0.66942780  1
  O  O10  1  0.61910832  0.90259399  0.32108180  1
  O  O11  1  0.81470194  0.51545154  0.66915021  1
  O  O12  1  0.66832532  0.65815979  0.02209317  1
  O  O13  1  0.67161415  0.66423922  0.52122699  1
  O  O14  1  0.66970696  0.51093647  0.17051077  1
  O  O15  1  0.47924054  0.90241949  0.82288643  1
  O  O16  1  0.51443178  0.81319210  0.16698816  1
  O  O17  1  0.74457422  0.34224395  0.33673785  1
  O  O18  1  0.78912996  0.20613887  0.75416952  1
  O  O19  1  0.77030591  0.23550217  0.57235522  1
  O  O20  1  0.76361999  0.24742099  0.93599488  1
  O  O21  1  0.61963438  0.47867714  0.82198102  1
  O  O22  1  0.51306803  0.67416831  0.66723537  1
  O  O23  1  0.66049886  0.25718348  0.16343493  1
  O  O24  1  0.47860597  0.61878834  0.32206303  1
  O  O25  1  0.33843383  0.91817762  0.33756975  1
  O  O26  1  0.78955452  0.00637452  0.25315539  1
  O  O27  1  0.76118219  0.99201001  0.43434078  1
  O  O28  1  0.24171686  0.00021202  0.56849239  1
  O  O29  1  0.66229322  0.08268930  0.66181618  1
  O  O30  1  0.52356876  0.37842231  0.67629880  1
  O  O31  1  0.33525745  0.74751104  0.84067452  1
  O  O32  1  0.47866755  0.33543947  0.32693164  1
  O  O33  1  0.38372673  0.52188637  0.17745463  1
  O  O34  1  0.24220144  0.75796095  0.06971601  1
  O  O35  1  0.24591922  0.76123367  0.43385809  1
  O  O36  1  0.20910418  0.79217416  0.25063050  1
  O  O37  1  0.25334988  0.66349904  0.65998127  1
  O  O38  1  0.48029409  0.18479241  0.82651068  1
  O  O39  1  0.52596712  0.09577458  0.17672267  1
  O  O40  1  0.32806800  0.48498077  0.83362748  1
  O  O41  1  0.32761886  0.32986276  0.97904864  1
  O  O42  1  0.32901948  0.33531434  0.47784956  1
  O  O43  1  0.18278699  0.48148643  0.32530303  1
  O  O44  1  0.38375014  0.09492907  0.67740186  1
  O  O45  1  0.32917758  0.18342123  0.33154012  1
  O  O46  1  0.08666081  0.65816125  0.16335722  1
  O  O47  1  0.00108111  0.79187232  0.75066157  1
  O  O48  1  0.00415531  0.76106808  0.93110573  1
  O  O49  1  0.09592673  0.52342429  0.67769653  1
  O  O50  1  0.18377818  0.32807662  0.83046297  1
  O  O51  1  0.09659225  0.38224998  0.17583530  1
  O  O52  1  0.25474396  0.08276925  0.15851363  1
  O  O53  1  0.24206963  0.00142583  0.93189473  1
  O  O54  1  0.20876275  0.00114533  0.75029946  1
  O  O55  1  0.08440860  0.25453504  0.65922227  1
  O  O56  1  0.00003011  0.24096951  0.43058441  1
  O  O57  1  0.00118572  0.20859576  0.24975784  1
loop_
_geom_bond_atom_site_label_1
_geom_bond_atom_site_label_2
_geom_bond_distance
_geom_bond_site_symmetry_2
Li0 O27 1.905083 1_555
Li0 O0 1.913158 1_555
Li0 O29 2.074573 1_565
Li0 O9 2.251931 1_555
Li1 O19 1.906062 1_555
Li1 O56 1.982887 1_655
Li1 O55 2.095997 1_655
Li1 O11 2.250211 1_555
Li2 O20 1.905609 1_554
Li2 O7 1.986021 1_555
Li2 O23 2.045351 1_555
Li2 O14 2.220227 1_555
Li3 O34 1.969618 1_555
Li3 O53 2.009809 1_564
Li3 O52 2.044144 1_565
Li3 O16 2.197955 1_555
Li4 O35 1.925405 1_555
Li4 O28 1.996424 1_565
Li4 O37 2.031248 1_555
Li4 O22 2.224471 1_555
Li5 O48 1.905680 1_555
Li5 O34 1.987160 1_556
Li5 O31 2.088439 1_555
Li5 O40 2.227612 1_555
Li6 O56 1.972984 1_555
Li6 O28 2.002670 1_555
Li6 O25 2.060137 1_545
Li6 O45 2.205532 1_555
Li7 O53 1.981458 1_555
Li7 O7 1.987241 1_456
Li7 O8 2.085138 1_455
Li7 O50 2.217593 1_555
O0 P13 1.482046 1_655
O1 P1 1.556441 1_555
O1 V4 1.864218 1_555
O2 P8 1.456613 1_555
O3 P0 1.561990 1_555
O3 V2 1.864158 1_565
O4 P0 1.556655 1_555
O4 V5 1.869785 1_555
O5 P3 1.586249 1_555
O5 V4 1.881079 1_555
O6 P2 1.543977 1_555
O6 V4 1.899848 1_555
O7 P15 1.497618 1_655
O8 P5 1.566642 1_555
O8 V5 1.949702 1_555
O9 P4 1.588246 1_555
O9 V2 1.971234 1_565
O10 P1 1.580151 1_555
O10 V3 1.837969 1_565
O11 P4 1.590726 1_555
O11 V5 1.923963 1_555
O12 P3 1.481376 1_555
O13 P4 1.493681 1_555
O14 P3 1.588464 1_555
O14 V0 1.966363 1_555
O15 P7 1.551116 1_555
O15 V2 1.879945 1_565
O16 P3 1.584314 1_555
O16 V3 1.949661 1_565
O17 P2 1.548466 1_555
O17 V0 1.897607 1_555
O18 P5 1.608336 1_555
O18 P6 1.625539 1_555
O19 P6 1.481561 1_555
O20 P5 1.482657 1_555
O21 P5 1.551723 1_555
O21 V1 1.876489 1_555
O22 P4 1.567717 1_555
O22 V1 1.968789 1_555
O23 P8 1.575181 1_555
O23 V0 1.948286 1_555
O24 P9 1.567642 1_555
O24 V0 1.853772 1_555
O25 P9 1.552538 1_555
O25 V3 1.986595 1_565
O26 P1 1.601528 1_545
O26 P8 1.635161 1_555
O27 P1 1.471738 1_555
O28 P14 1.504915 1_555
O29 P6 1.567739 1_555
O29 V2 1.956752 1_555
O30 P6 1.542479 1_555
O30 V1 1.882082 1_555
O31 P7 1.538017 1_555
O31 V1 2.006812 1_555
O32 P11 1.602574 1_555
O32 V0 1.840724 1_555
O33 P10 1.550274 1_555
O33 V0 1.894078 1_555
O34 P10 1.495980 1_555
O35 P9 1.476106 1_555
O36 P10 1.613629 1_555
O36 P9 1.619536 1_555
O37 P13 1.553295 1_555
O37 V1 1.982495 1_555
O38 P12 1.605956 1_555
O38 V2 1.840521 1_555
O39 P8 1.567134 1_555
O39 V3 1.849562 1_555
O40 P12 1.560559 1_555
O40 V1 1.976403 1_555
O41 P12 1.491447 1_555
O42 P11 1.479098 1_555
O43 P11 1.575734 1_555
O43 V4 1.891925 1_455
O44 P14 1.539972 1_555
O44 V2 1.918130 1_555
O45 P11 1.584606 1_555
O45 V3 1.955813 1_555
O46 P10 1.543700 1_555
O46 V4 1.903344 1_455
O47 P13 1.613752 1_555
O47 P0 1.614665 1_455
O48 P0 1.480413 1_455
O49 P13 1.565074 1_555
O49 V5 1.850330 1_455
O50 P12 1.578170 1_555
O50 V5 1.952035 1_455
O51 P15 1.539601 1_555
O51 V4 1.909554 1_455
O52 P15 1.553598 1_555
O52 V3 2.010884 1_555
O53 P7 1.505350 1_545
O54 P7 1.614186 1_545
O54 P14 1.620159 1_555
O55 P14 1.544731 1_555
O55 V5 1.994237 1_455
O56 P2 1.495679 1_455
O57 P2 1.615659 1_455
O57 P15 1.618722 1_555
