# generated using pymatgen
data_LiV2OF5
_symmetry_space_group_name_H-M   'P 1'
_cell_length_a   5.21383129
_cell_length_b   5.21294201
_cell_length_c   13.96445701
_cell_angle_alpha   90.00380861
_cell_angle_beta   89.99324286
_cell_angle_gamma   120.00000754
_symmetry_Int_Tables_number   1
_chemical_formula_structural   LiV2OF5
_chemical_formula_sum   'Li3 V6 O3 F15'
_cell_volume   328.69607402
_cell_formula_units_Z   3
loop_
 _symmetry_equiv_pos_site_id
 _symmetry_equiv_pos_as_xyz
  1  'x, y, z'
loop_
 _atom_site_type_symbol
 _atom_site_label
 _atom_site_symmetry_multiplicity
 _atom_site_fract_x
 _atom_site_fract_y
 _atom_site_fract_z
 _atom_site_occupancy
  Li  Li0  1  0.34709300  0.67726200  0.87397800  1
  Li  Li1  1  0.99682800  0.98620300  0.20735200  1
  Li  Li2  1  0.65612900  0.33675200  0.54056900  1
  V  V0  1  0.30980200  0.66593000  0.17463200  1
  V  V1  1  0.97389100  0.99874000  0.99670900  1
  V  V2  1  0.33471100  0.64215200  0.66335300  1
  V  V3  1  0.69139900  0.35915500  0.32997100  1
  V  V4  1  0.02308000  0.02373500  0.50808500  1
  V  V5  1  0.66737100  0.31064600  0.84130900  1
  O  O0  1  0.00091700  0.62436700  0.25245900  1
  O  O1  1  0.29014800  0.33234000  0.58579000  1
  O  O2  1  0.70867700  0.04325100  0.91907600  1
  F  F0  1  0.24870600  0.95150700  0.09150000  1
  F  F1  1  0.38182600  0.96414300  0.75815900  1
  F  F2  1  0.02453800  0.69392400  0.58423000  1
  F  F3  1  0.63954100  0.99721300  0.25080800  1
  F  F4  1  0.66096700  0.97409100  0.58802600  1
  F  F5  1  0.65898000  0.72877200  0.09291900  1
  F  F6  1  0.01202300  0.39674900  0.75755200  1
  F  F7  1  0.73675800  0.67396600  0.42634000  1
  F  F8  1  0.05116700  0.32124900  0.09092700  1
  F  F9  1  0.60440900  0.59709300  0.75967000  1
  F  F10  1  0.97965600  0.67235200  0.92143600  1
  F  F11  1  0.35932900  0.35353600  0.25475200  1
  F  F12  1  0.33586600  0.30877300  0.91750400  1
  F  F13  1  0.36944400  0.08443800  0.42481900  1
  F  F14  1  0.93674600  0.28165600  0.42407800  1
loop_
_geom_bond_atom_site_label_1
_geom_bond_atom_site_label_2
_geom_bond_distance
_geom_bond_site_symmetry_2
Li0 O2 1.998511 1_565
Li1 O0 1.998865 1_655
Li2 O1 1.999055 1_555
O0 V3 1.859025 1_455
O0 V0 1.863442 1_555
O1 V2 1.860123 1_555
O1 V4 1.861304 1_555
O2 V1 1.860763 1_545
O2 V5 1.862571 1_555
F0 V0 2.034673 1_555
F0 V1 2.054054 1_454
F0 Li1 2.147471 1_455
F1 V5 2.034304 1_565
F1 V2 2.053771 1_555
F1 Li0 2.148150 1_555
F2 Li2 1.987899 1_455
F2 V4 2.024839 1_565
F2 V2 2.084678 1_555
F3 Li1 1.987044 1_555
F3 V0 2.025048 1_555
F3 V3 2.084409 1_565
F4 V2 2.012616 1_555
F4 Li2 2.015388 1_565
F4 V4 2.094909 1_665
F5 V0 2.031491 1_555
F5 V1 2.042175 1_554
F5 Li1 2.256948 1_555
F6 V5 1.997885 1_455
F6 V2 2.011199 1_555
F6 Li0 2.297684 1_555
F7 V4 2.033310 1_665
F7 V3 2.042499 1_555
F7 Li2 2.252238 1_555
F8 V0 1.997586 1_555
F8 V1 2.010565 1_444
F8 Li1 2.297715 1_445
F9 V5 2.031676 1_555
F9 V2 2.042622 1_555
F9 Li0 2.254472 1_555
F10 V1 2.012862 1_555
F10 Li0 2.015104 1_655
F10 V5 2.094861 1_555
F11 V3 2.012831 1_555
F11 Li1 2.014459 1_445
F11 V0 2.095538 1_555
F12 Li0 1.987580 1_555
F12 V5 2.025422 1_555
F12 V1 2.084893 1_445
F13 V4 2.035060 1_555
F13 V3 2.053955 1_555
F13 Li2 2.147370 1_555
F14 V4 1.998027 1_655
F14 V3 2.010925 1_555
F14 Li2 2.299778 1_555
