# generated using pymatgen
data_La10Bi8O27
_symmetry_space_group_name_H-M   'P 1'
_cell_length_a   8.21027791
_cell_length_b   10.40948974
_cell_length_c   10.39001449
_cell_angle_alpha   70.89113087
_cell_angle_beta   78.57670711
_cell_angle_gamma   78.58367619
_symmetry_Int_Tables_number   1
_chemical_formula_structural   La10Bi8O27
_chemical_formula_sum   'La10 Bi8 O27'
_cell_volume   813.89347587
_cell_formula_units_Z   1
loop_
 _symmetry_equiv_pos_site_id
 _symmetry_equiv_pos_as_xyz
  1  'x, y, z'
loop_
 _atom_site_type_symbol
 _atom_site_label
 _atom_site_symmetry_multiplicity
 _atom_site_fract_x
 _atom_site_fract_y
 _atom_site_fract_z
 _atom_site_occupancy
  La  La0  1  0.83624446  0.66441430  0.98768166  1
  La  La1  1  0.15862519  0.02371041  0.33608705  1
  La  La2  1  0.34075072  0.67041433  0.96756215  1
  La  La3  1  0.66248633  0.02463605  0.32942333  1
  La  La4  1  0.00237420  0.00556902  0.99237328  1
  La  La5  1  0.49867037  0.00407589  0.99443227  1
  La  La6  1  0.83732736  0.97417193  0.66951260  1
  La  La7  1  0.33593412  0.00697914  0.66001934  1
  La  La8  1  0.66605301  0.33644743  0.99443105  1
  La  La9  1  0.16188552  0.33131818  0.02487103  1
  Bi  Bi0  1  0.49984688  0.31111681  0.68907879  1
  Bi  Bi1  1  0.00030223  0.31040841  0.68764220  1
  Bi  Bi2  1  0.16571092  0.67106230  0.66781189  1
  Bi  Bi3  1  0.66600144  0.67062999  0.66612577  1
  Bi  Bi4  1  0.33899148  0.33345028  0.32803302  1
  Bi  Bi5  1  0.82944772  0.33215796  0.32901359  1
  Bi  Bi6  1  0.50419175  0.68691418  0.30673728  1
  Bi  Bi7  1  -0.00014165  0.68467592  0.30593646  1
  O  O0  1  0.01341266  0.09704969  0.73074144  1
  O  O1  1  0.42683267  0.26659556  0.90268041  1
  O  O2  1  0.98996371  0.26824682  0.90068385  1
  O  O3  1  0.57211289  0.09801179  0.73150158  1
  O  O4  1  0.12942204  0.58150623  0.88730086  1
  O  O5  1  0.37013179  0.11418264  0.40316489  1
  O  O6  1  0.86800916  0.11037870  0.41757386  1
  O  O7  1  0.63444403  0.59359751  0.88585056  1
  O  O8  1  0.72253684  0.36067331  0.74749939  1
  O  O9  1  0.27916193  0.25404304  0.63055275  1
  O  O10  1  0.79423858  0.89939297  0.91976201  1
  O  O11  1  0.89049322  0.72331883  0.72354114  1
  O  O12  1  0.38921622  0.71978396  0.71908256  1
  O  O13  1  0.20317451  0.08045991  0.10021572  1
  O  O14  1  0.29583149  0.92001629  0.89944675  1
  O  O15  1  0.70727813  0.09443511  0.08320904  1
  O  O16  1  0.61260708  0.27573581  0.27485465  1
  O  O17  1  0.10909180  0.27993981  0.27831944  1
  O  O18  1  0.76770057  0.64504231  0.28339893  1
  O  O19  1  0.13776624  0.88968448  0.58006053  1
  O  O20  1  0.37321205  0.42323346  0.10366647  1
  O  O21  1  0.62682830  0.89390660  0.57866296  1
  O  O22  1  0.86293550  0.41634000  0.10952203  1
  O  O23  1  0.46321716  0.89349357  0.28287035  1
  O  O24  1  0.94956201  0.89048015  0.28711232  1
  O  O25  1  0.06492037  0.72690330  0.09720450  1
  O  O26  1  0.52135198  0.72694764  0.09859724  1
loop_
_geom_bond_atom_site_label_1
_geom_bond_atom_site_label_2
_geom_bond_distance
_geom_bond_site_symmetry_2
La0 O10 2.287402 1_555
La0 O22 2.462628 1_556
La0 O7 2.469104 1_555
La0 O4 2.529641 1_655
La0 O11 2.574562 1_555
La0 O25 2.656578 1_656
La0 O26 2.660938 1_556
La0 O18 2.958381 1_556
La1 O13 2.295936 1_555
La1 O5 2.438182 1_555
La1 O19 2.451238 1_545
La1 O6 2.464070 1_455
La1 O17 2.501764 1_555
La1 O24 2.622776 1_445
La1 O23 2.645385 1_545
La2 O12 2.427551 1_555
La2 O14 2.430597 1_555
La2 O7 2.458624 1_555
La2 O26 2.463368 1_556
La2 O25 2.464112 1_556
La2 O20 2.487325 1_556
La2 O4 2.505300 1_555
La3 O15 2.392398 1_555
La3 O16 2.453398 1_555
La3 O5 2.463896 1_555
La3 O21 2.488724 1_545
La3 O6 2.495273 1_555
La3 O24 2.527305 1_545
La3 O23 2.530637 1_545
La4 O14 2.514445 1_545
La4 O13 2.528559 1_556
La4 O15 2.528857 1_456
La4 O10 2.552484 1_445
La4 O0 2.558563 1_555
La4 O2 2.572396 1_455
La4 O25 2.725390 1_546
La4 O24 2.877298 1_446
La5 O14 2.511247 1_545
La5 O10 2.537544 1_545
La5 O13 2.545285 1_556
La5 O15 2.549612 1_556
La5 O1 2.569694 1_555
La5 O3 2.571907 1_555
La5 O26 2.711253 1_546
La5 O23 2.814162 1_546
La6 O3 2.386403 1_565
La6 O0 2.399998 1_665
La6 O10 2.431274 1_555
La6 O11 2.451613 1_555
La6 O21 2.512005 1_555
La6 O6 2.525082 1_565
La6 O19 2.547562 1_655
La7 O14 2.331403 1_545
La7 O9 2.447784 1_555
La7 O5 2.514674 1_555
La7 O21 2.557905 1_545
La7 O19 2.610384 1_545
La7 O3 2.639756 1_555
La7 O0 2.669898 1_555
La7 O12 2.809422 1_545
La8 O15 2.361478 1_556
La8 O8 2.452035 1_555
La8 O7 2.523714 1_555
La8 O20 2.572059 1_556
La8 O22 2.585238 1_556
La8 O1 2.656286 1_555
La8 O2 2.684104 1_555
La8 O16 2.734743 1_556
La9 O1 2.384009 1_554
La9 O2 2.394012 1_454
La9 O13 2.441914 1_555
La9 O17 2.475056 1_555
La9 O20 2.515709 1_555
La9 O4 2.517044 1_554
La9 O22 2.525039 1_455
Bi0 O1 2.099791 1_555
Bi0 O3 2.099907 1_555
Bi0 O8 2.235035 1_555
Bi0 O9 2.259372 1_555
Bi1 O2 2.098501 1_455
Bi1 O0 2.101916 1_555
Bi1 O8 2.245050 1_455
Bi1 O9 2.257457 1_555
Bi2 O19 2.140234 1_555
Bi2 O4 2.146479 1_555
Bi2 O12 2.200203 1_555
Bi2 O11 2.222250 1_455
Bi3 O7 2.138070 1_555
Bi3 O21 2.183607 1_555
Bi3 O12 2.226537 1_555
Bi3 O11 2.259155 1_555
Bi4 O5 2.136789 1_555
Bi4 O20 2.191990 1_555
Bi4 O16 2.214541 1_555
Bi4 O17 2.265096 1_555
Bi5 O22 2.140760 1_555
Bi5 O6 2.170672 1_555
Bi5 O16 2.204153 1_555
Bi5 O17 2.249151 1_655
Bi6 O26 2.045181 1_555
Bi6 O23 2.048501 1_555
Bi6 O18 2.101789 1_555
Bi7 O25 2.047403 1_555
Bi7 O24 2.050792 1_455
Bi7 O18 2.099891 1_455
