# generated using pymatgen
data_Er5Si4
_symmetry_space_group_name_H-M   'P 1'
_cell_length_a   7.59929400
_cell_length_b   7.42021200
_cell_length_c   14.45715413
_cell_angle_alpha   86.51824905
_cell_angle_beta   90.00000000
_cell_angle_gamma   90.00000000
_symmetry_Int_Tables_number   1
_chemical_formula_structural   Er5Si4
_chemical_formula_sum   'Er20 Si16'
_cell_volume   813.71066176
_cell_formula_units_Z   4
loop_
 _symmetry_equiv_pos_site_id
 _symmetry_equiv_pos_as_xyz
  1  'x, y, z'
loop_
 _atom_site_type_symbol
 _atom_site_label
 _atom_site_symmetry_multiplicity
 _atom_site_fract_x
 _atom_site_fract_y
 _atom_site_fract_z
 _atom_site_occupancy
  Er  Er0  1  0.82227600  0.32694900  0.37753400  1
  Er  Er1  1  0.32227600  0.17305100  0.62246600  1
  Er  Er2  1  0.17772400  0.67305100  0.62246600  1
  Er  Er3  1  0.67772400  0.82694900  0.37753400  1
  Er  Er4  1  0.66576100  0.85514300  0.12037700  1
  Er  Er5  1  0.16576100  0.64485700  0.87962300  1
  Er  Er6  1  0.33423900  0.14485700  0.87962300  1
  Er  Er7  1  0.83423900  0.35514300  0.12037700  1
  Er  Er8  1  0.68335800  0.52232300  0.60089300  1
  Er  Er9  1  0.18335800  0.97767700  0.39910700  1
  Er  Er10  1  0.31664200  0.47767700  0.39910700  1
  Er  Er11  1  0.81664200  0.02232300  0.60089300  1
  Er  Er12  1  0.68054700  0.49541800  0.90064300  1
  Er  Er13  1  0.18054700  0.00458200  0.09935700  1
  Er  Er14  1  0.31945300  0.50458200  0.09935700  1
  Er  Er15  1  0.81945300  0.99541800  0.90064300  1
  Er  Er16  1  0.50493100  0.82597300  0.75389300  1
  Er  Er17  1  0.00493100  0.67402700  0.24610700  1
  Er  Er18  1  0.49506900  0.17402700  0.24610700  1
  Er  Er19  1  0.99506900  0.32597300  0.75389300  1
  Si  Si0  1  0.97195800  0.64724100  0.45885300  1
  Si  Si1  1  0.47195800  0.85275900  0.54114700  1
  Si  Si2  1  0.02804200  0.35275900  0.54114700  1
  Si  Si3  1  0.52804200  0.14724100  0.45885300  1
  Si  Si4  1  0.96499400  0.70313600  0.04170800  1
  Si  Si5  1  0.46499400  0.79686400  0.95829200  1
  Si  Si6  1  0.03500600  0.29686400  0.95829200  1
  Si  Si7  1  0.53500600  0.20313600  0.04170800  1
  Si  Si8  1  0.86934700  0.71077000  0.74808700  1
  Si  Si9  1  0.36934700  0.78923000  0.25191300  1
  Si  Si10  1  0.13065300  0.28923000  0.25191300  1
  Si  Si11  1  0.63065300  0.21077000  0.74808700  1
  Si  Si12  1  0.39230900  0.45470700  0.74800900  1
  Si  Si13  1  0.89230900  0.04529300  0.25199100  1
  Si  Si14  1  0.60769100  0.54529300  0.25199100  1
  Si  Si15  1  0.10769100  0.95470700  0.74800900  1
loop_
_geom_bond_atom_site_label_1
_geom_bond_atom_site_label_2
_geom_bond_distance
_geom_bond_site_symmetry_2
Er0 Si3 2.823018 1_555
Er0 Si2 2.851631 1_655
Er0 Si14 2.867249 1_555
Er0 Si13 2.899320 1_555
Er0 Si0 2.943425 1_555
Er0 Si10 2.988331 1_655
Er1 Si2 2.823018 1_555
Er1 Si3 2.851631 1_555
Er1 Si15 2.867249 1_545
Er1 Si12 2.899320 1_555
Er1 Si1 2.943425 1_545
Er1 Si11 2.988331 1_555
Er2 Si1 2.823018 1_555
Er2 Si0 2.851631 1_455
Er2 Si12 2.867249 1_555
Er2 Si15 2.899320 1_555
Er2 Si2 2.943425 1_555
Er2 Si8 2.988331 1_455
Er3 Si0 2.823018 1_555
Er3 Si1 2.851631 1_555
Er3 Si13 2.867249 1_565
Er3 Si14 2.899320 1_555
Er3 Si3 2.943425 1_565
Er3 Si9 2.988331 1_555
Er4 Si4 2.809348 1_555
Er4 Si5 2.851106 1_554
Er4 Si14 2.927454 1_555
Er4 Si7 2.931179 1_565
Er4 Si9 2.969240 1_555
Er4 Si13 2.983507 1_565
Er5 Si5 2.809348 1_555
Er5 Si4 2.851106 1_456
Er5 Si15 2.927454 1_555
Er5 Si6 2.931179 1_555
Er5 Si8 2.969240 1_455
Er5 Si12 2.983507 1_555
Er6 Si6 2.809348 1_555
Er6 Si7 2.851106 1_556
Er6 Si12 2.927454 1_555
Er6 Si5 2.931179 1_545
Er6 Si11 2.969240 1_555
Er6 Si15 2.983507 1_545
Er7 Si7 2.809348 1_555
Er7 Si6 2.851106 1_654
Er7 Si13 2.927454 1_555
Er7 Si4 2.931179 1_555
Er7 Si10 2.969240 1_655
Er7 Si14 2.983507 1_555
Er8 Si8 2.973681 1_555
Er8 Si1 3.013551 1_555
Er8 Si2 3.053223 1_655
Er8 Si11 3.071753 1_555
Er8 Si12 3.088307 1_555
Er8 Si0 3.107211 1_555
Er9 Si9 2.973681 1_555
Er9 Si0 3.013551 1_455
Er9 Si3 3.053223 1_565
Er9 Si10 3.071753 1_565
Er9 Si13 3.088307 1_465
Er9 Si1 3.107211 1_555
Er10 Si10 2.973681 1_555
Er10 Si3 3.013551 1_555
Er10 Si0 3.053223 1_455
Er10 Si9 3.071753 1_555
Er10 Si14 3.088307 1_555
Er10 Si2 3.107211 1_555
Er11 Si11 2.973681 1_555
Er11 Si2 3.013551 1_655
Er11 Si1 3.053223 1_545
Er11 Si8 3.071753 1_545
Er11 Si15 3.088307 1_645
Er11 Si3 3.107211 1_555
Er12 Si5 2.933856 1_555
Er12 Si8 3.008029 1_555
Er12 Si7 3.090120 1_556
Er12 Si12 3.136784 1_555
Er12 Si6 3.157818 1_655
Er12 Si11 3.167821 1_555
Er12 Si4 3.404274 1_556
Er13 Si4 2.933856 1_445
Er13 Si9 3.008029 1_545
Er13 Si6 3.090120 1_554
Er13 Si13 3.136784 1_455
Er13 Si7 3.157818 1_555
Er13 Si10 3.167821 1_555
Er13 Si5 3.404274 1_544
Er14 Si7 2.933856 1_555
Er14 Si10 3.008029 1_555
Er14 Si5 3.090120 1_554
Er14 Si14 3.136784 1_555
Er14 Si4 3.157818 1_455
Er14 Si9 3.167821 1_555
Er14 Si6 3.404274 1_554
Er15 Si6 2.933856 1_665
Er15 Si11 3.008029 1_565
Er15 Si4 3.090120 1_556
Er15 Si15 3.136784 1_655
Er15 Si5 3.157818 1_555
Er15 Si8 3.167821 1_555
Er15 Si7 3.404274 1_566
Er16 Si12 2.890934 1_555
Er16 Si8 2.900955 1_555
Er16 Si5 2.965371 1_555
Er16 Si11 3.007211 1_565
Er16 Si1 3.080257 1_555
Er16 Si15 3.165857 1_555
Er17 Si13 2.890934 1_465
Er17 Si9 2.900955 1_555
Er17 Si4 2.965371 1_455
Er17 Si10 3.007211 1_555
Er17 Si0 3.080257 1_455
Er17 Si14 3.165857 1_455
Er18 Si14 2.890934 1_555
Er18 Si10 2.900955 1_555
Er18 Si7 2.965371 1_555
Er18 Si9 3.007211 1_545
Er18 Si3 3.080257 1_555
Er18 Si13 3.165857 1_555
Er19 Si15 2.890934 1_645
Er19 Si11 2.900955 1_555
Er19 Si6 2.965371 1_655
Er19 Si8 3.007211 1_555
Er19 Si2 3.080257 1_655
Er19 Si12 3.165857 1_655
Si0 Si2 2.460914 1_655
Si1 Si3 2.460914 1_565
Si10 Si13 2.560605 1_455
Si11 Si12 2.560605 1_555
Si14 Si9 2.560605 1_555
Si15 Si8 2.560605 1_455
