# generated using pymatgen
data_Li2MnCr3O8
_symmetry_space_group_name_H-M   'P 1'
_cell_length_a   5.96377098
_cell_length_b   5.96377098
_cell_length_c   5.96377126
_cell_angle_alpha   59.43352045
_cell_angle_beta   59.43352045
_cell_angle_gamma   59.43351481
_symmetry_Int_Tables_number   1
_chemical_formula_structural   Li2MnCr3O8
_chemical_formula_sum   'Li2 Mn1 Cr3 O8'
_cell_volume   148.05194250
_cell_formula_units_Z   1
loop_
 _symmetry_equiv_pos_site_id
 _symmetry_equiv_pos_as_xyz
  1  'x, y, z'
loop_
 _atom_site_type_symbol
 _atom_site_label
 _atom_site_symmetry_multiplicity
 _atom_site_fract_x
 _atom_site_fract_y
 _atom_site_fract_z
 _atom_site_occupancy
  Li  Li0  1  0.87666000  0.87666000  0.87666000  1
  Li  Li1  1  0.50046500  0.50046500  0.50046500  1
  Mn  Mn0  1  0.12015900  0.12015900  0.12015900  1
  Cr  Cr0  1  0.99334200  0.50136700  0.50136700  1
  Cr  Cr1  1  0.50136700  0.99334200  0.50136700  1
  Cr  Cr2  1  0.50136700  0.50136700  0.99334200  1
  O  O0  1  0.73941500  0.73941500  0.73941500  1
  O  O1  1  0.75128100  0.75128100  0.29155600  1
  O  O2  1  0.75128100  0.29155600  0.75128100  1
  O  O3  1  0.29155600  0.75128100  0.75128100  1
  O  O4  1  0.70499800  0.25419700  0.25419700  1
  O  O5  1  0.25419700  0.70499800  0.25419700  1
  O  O6  1  0.25419700  0.25419700  0.70499800  1
  O  O7  1  0.25971400  0.25971400  0.25971400  1
loop_
_geom_bond_atom_site_label_1
_geom_bond_atom_site_label_2
_geom_bond_distance
_geom_bond_site_symmetry_2
Li0 O3 2.011408 1_655
Li0 O2 2.011408 1_565
Li0 O1 2.011408 1_556
Li0 O0 2.013442 1_555
Li1 O4 2.086068 1_555
Li1 O5 2.086068 1_555
Li1 O6 2.086068 1_555
Li1 O2 2.124127 1_555
Li1 O3 2.124127 1_555
Li1 O1 2.124127 1_555
Mn0 O5 2.008019 1_545
Mn0 O4 2.008019 1_455
Mn0 O6 2.008019 1_554
Mn0 O7 2.047331 1_555
Cr0 O1 1.903443 1_555
Cr0 O2 1.903443 1_555
Cr0 O6 1.958640 1_655
Cr0 O5 1.958640 1_655
Cr0 O0 2.000213 1_555
Cr0 O7 2.032957 1_655
Cr1 O1 1.903443 1_555
Cr1 O3 1.903443 1_555
Cr1 O6 1.958640 1_565
Cr1 O4 1.958640 1_565
Cr1 O0 2.000213 1_555
Cr1 O7 2.032957 1_565
Cr2 O3 1.903443 1_555
Cr2 O2 1.903443 1_555
Cr2 O4 1.958640 1_556
Cr2 O5 1.958640 1_556
Cr2 O0 2.000213 1_555
Cr2 O7 2.032957 1_556
