# generated using pymatgen
data_Li2V3O8
_symmetry_space_group_name_H-M   'P 1'
_cell_length_a   8.28942500
_cell_length_b   8.28942500
_cell_length_c   8.28942500
_cell_angle_alpha   90.00000000
_cell_angle_beta   90.00000000
_cell_angle_gamma   90.00000000
_symmetry_Int_Tables_number   1
_chemical_formula_structural   Li2V3O8
_chemical_formula_sum   'Li8 V12 O32'
_cell_volume   569.60424815
_cell_formula_units_Z   4
loop_
 _symmetry_equiv_pos_site_id
 _symmetry_equiv_pos_as_xyz
  1  'x, y, z'
loop_
 _atom_site_type_symbol
 _atom_site_label
 _atom_site_symmetry_multiplicity
 _atom_site_fract_x
 _atom_site_fract_y
 _atom_site_fract_z
 _atom_site_occupancy
  Li  Li0  1  0.99540900  0.99540900  0.99540900  1
  Li  Li1  1  0.00459100  0.49540900  0.50459100  1
  Li  Li2  1  0.25459100  0.25459100  0.25459100  1
  Li  Li3  1  0.24540900  0.74540900  0.75459100  1
  Li  Li4  1  0.50459100  0.00459100  0.49540900  1
  Li  Li5  1  0.49540900  0.50459100  0.00459100  1
  Li  Li6  1  0.75459100  0.24540900  0.74540900  1
  Li  Li7  1  0.74540900  0.75459100  0.24540900  1
  V  V0  1  0.13315800  0.11684200  0.62500000  1
  V  V1  1  0.11684200  0.62500000  0.13315800  1
  V  V2  1  0.12500000  0.36684200  0.88315800  1
  V  V3  1  0.38315800  0.37500000  0.63315800  1
  V  V4  1  0.37500000  0.63315800  0.38315800  1
  V  V5  1  0.36684200  0.88315800  0.12500000  1
  V  V6  1  0.62500000  0.13315800  0.11684200  1
  V  V7  1  0.63315800  0.38315800  0.37500000  1
  V  V8  1  0.61684200  0.87500000  0.86684200  1
  V  V9  1  0.88315800  0.12500000  0.36684200  1
  V  V10  1  0.86684200  0.61684200  0.87500000  1
  V  V11  1  0.87500000  0.86684200  0.61684200  1
  O  O0  1  0.14111800  0.39356300  0.09633000  1
  O  O1  1  0.09633000  0.14111800  0.39356300  1
  O  O2  1  0.13902200  0.36097800  0.63902200  1
  O  O3  1  0.15367000  0.85643700  0.10888200  1
  O  O4  1  0.10888200  0.15367000  0.85643700  1
  O  O5  1  0.14356300  0.60888200  0.34633000  1
  O  O6  1  0.10643700  0.90367000  0.64111800  1
  O  O7  1  0.11097800  0.61097800  0.88902200  1
  O  O8  1  0.39356300  0.09633000  0.14111800  1
  O  O9  1  0.38902200  0.38902200  0.38902200  1
  O  O10  1  0.34633000  0.14356300  0.60888200  1
  O  O11  1  0.35643700  0.39111800  0.84633000  1
  O  O12  1  0.36097800  0.63902200  0.13902200  1
  O  O13  1  0.39111800  0.84633000  0.35643700  1
  O  O14  1  0.35888200  0.60643700  0.59633000  1
  O  O15  1  0.40367000  0.85888200  0.89356300  1
  O  O16  1  0.63902200  0.13902200  0.36097800  1
  O  O17  1  0.60888200  0.34633000  0.14356300  1
  O  O18  1  0.59633000  0.35888200  0.60643700  1
  O  O19  1  0.60643700  0.59633000  0.35888200  1
  O  O20  1  0.64111800  0.10643700  0.90367000  1
  O  O21  1  0.65367000  0.64356300  0.89111800  1
  O  O22  1  0.61097800  0.88902200  0.11097800  1
  O  O23  1  0.64356300  0.89111800  0.65367000  1
  O  O24  1  0.85643700  0.10888200  0.15367000  1
  O  O25  1  0.88902200  0.11097800  0.61097800  1
  O  O26  1  0.84633000  0.35643700  0.39111800  1
  O  O27  1  0.90367000  0.64111800  0.10643700  1
  O  O28  1  0.89111800  0.65367000  0.64356300  1
  O  O29  1  0.89356300  0.40367000  0.85888200  1
  O  O30  1  0.85888200  0.89356300  0.40367000  1
  O  O31  1  0.86097800  0.86097800  0.86097800  1
loop_
_geom_bond_atom_site_label_1
_geom_bond_atom_site_label_2
_geom_bond_distance
_geom_bond_site_symmetry_2
Li0 O31 1.930121 1_555
Li0 O4 1.983164 1_665
Li0 O3 1.983164 1_656
Li0 O24 1.983164 1_566
Li1 O2 1.930121 1_555
Li1 O26 1.983164 1_455
Li1 O28 1.983164 1_455
Li1 O5 1.983164 1_555
Li2 O9 1.930121 1_555
Li2 O0 1.983164 1_555
Li2 O8 1.983164 1_555
Li2 O1 1.983164 1_555
Li3 O7 1.930121 1_555
Li3 O14 1.983164 1_555
Li3 O15 1.983164 1_555
Li3 O6 1.983164 1_555
Li4 O16 1.930121 1_555
Li4 O13 1.983164 1_545
Li4 O10 1.983164 1_555
Li4 O23 1.983164 1_545
Li5 O12 1.930121 1_555
Li5 O11 1.983164 1_554
Li5 O21 1.983164 1_554
Li5 O17 1.983164 1_555
Li6 O25 1.930121 1_555
Li6 O18 1.983164 1_555
Li6 O29 1.983164 1_555
Li6 O20 1.983164 1_555
Li7 O22 1.930121 1_555
Li7 O19 1.983164 1_555
Li7 O27 1.983164 1_555
Li7 O30 1.983164 1_555
O0 V2 1.785907 1_554
O0 V1 1.953012 1_555
O1 V9 1.785907 1_455
O1 V0 1.953012 1_555
O2 V2 2.027665 1_555
O2 V3 2.027665 1_555
O2 V0 2.027665 1_555
O3 V5 1.785907 1_555
O3 V1 1.953012 1_555
O4 V2 1.785907 1_555
O4 V0 1.953012 1_555
O5 V1 1.785907 1_555
O5 V4 1.953012 1_555
O6 V0 1.785907 1_565
O6 V11 1.953012 1_455
O7 V1 2.027665 1_556
O7 V10 2.027665 1_455
O7 V2 2.027665 1_555
O8 V5 1.785907 1_545
O8 V6 1.953012 1_555
O9 V4 2.027665 1_555
O9 V7 2.027665 1_555
O9 V3 2.027665 1_555
O10 V0 1.785907 1_555
O10 V3 1.953012 1_555
O11 V3 1.785907 1_555
O11 V2 1.953012 1_555
O12 V4 2.027665 1_555
O12 V1 2.027665 1_555
O12 V5 2.027665 1_555
O13 V4 1.785907 1_555
O13 V5 1.953012 1_555
O14 V4 1.785907 1_555
O14 V3 1.953012 1_555
O15 V8 1.785907 1_555
O15 V5 1.953012 1_556
O16 V6 2.027665 1_555
O16 V9 2.027665 1_555
O16 V7 2.027665 1_555
O17 V6 1.785907 1_555
O17 V7 1.953012 1_555
O18 V3 1.785907 1_555
O18 V7 1.953012 1_555
O19 V7 1.785907 1_555
O19 V4 1.953012 1_555
O20 V6 1.785907 1_556
O20 V8 1.953012 1_545
O21 V10 1.785907 1_555
O21 V8 1.953012 1_555
O22 V6 2.027665 1_565
O22 V8 2.027665 1_554
O22 V5 2.027665 1_555
O23 V8 1.785907 1_555
O23 V11 1.953012 1_555
O24 V9 1.785907 1_555
O24 V6 1.953012 1_555
O25 V0 2.027665 1_655
O25 V11 2.027665 1_545
O25 V9 2.027665 1_555
O26 V7 1.785907 1_555
O26 V9 1.953012 1_555
O27 V1 1.785907 1_655
O27 V10 1.953012 1_554
O28 V11 1.785907 1_555
O28 V10 1.953012 1_555
O29 V10 1.785907 1_555
O29 V2 1.953012 1_655
O30 V11 1.785907 1_555
O30 V9 1.953012 1_565
O31 V10 2.027665 1_555
O31 V11 2.027665 1_555
O31 V8 2.027665 1_555
