# generated using pymatgen
data_LiMn2(CO3)4
_symmetry_space_group_name_H-M   'P 1'
_cell_length_a   9.74125000
_cell_length_b   7.33148400
_cell_length_c   8.45918118
_cell_angle_alpha   69.76614105
_cell_angle_beta   90.00000000
_cell_angle_gamma   90.00000000
_symmetry_Int_Tables_number   1
_chemical_formula_structural   LiMn2(CO3)4
_chemical_formula_sum   'Li2 Mn4 C8 O24'
_cell_volume   566.85429532
_cell_formula_units_Z   2
loop_
 _symmetry_equiv_pos_site_id
 _symmetry_equiv_pos_as_xyz
  1  'x, y, z'
loop_
 _atom_site_type_symbol
 _atom_site_label
 _atom_site_symmetry_multiplicity
 _atom_site_fract_x
 _atom_site_fract_y
 _atom_site_fract_z
 _atom_site_occupancy
  Li  Li0  1  0.43454100  0.76060700  0.88255100  1
  Li  Li1  1  0.93454100  0.23939300  0.11744900  1
  Mn  Mn0  1  0.35316700  0.28441200  0.18503700  1
  Mn  Mn1  1  0.85316700  0.71558800  0.81496300  1
  Mn  Mn2  1  0.14143000  0.80165100  0.67643900  1
  Mn  Mn3  1  0.64143000  0.19834900  0.32356100  1
  C  C0  1  0.10877800  0.50593200  0.00844700  1
  C  C1  1  0.60877800  0.49406800  0.99155300  1
  C  C2  1  0.47972800  0.50775700  0.38439800  1
  C  C3  1  0.97972800  0.49224300  0.61560200  1
  C  C4  1  0.01629300  0.01376000  0.88665100  1
  C  C5  1  0.51629300  0.98624000  0.11334900  1
  C  C6  1  0.39917900  0.99650500  0.52014400  1
  C  C7  1  0.89917900  0.00349500  0.47985600  1
  O  O0  1  0.15028900  0.36524000  0.13768800  1
  O  O1  1  0.47611200  0.46942300  0.00861300  1
  O  O2  1  0.69644200  0.38724400  0.09943200  1
  O  O3  1  0.19644200  0.61275600  0.90056800  1
  O  O4  1  0.97611200  0.53057700  0.99138700  1
  O  O5  1  0.65028900  0.63476000  0.86231200  1
  O  O6  1  0.96295200  0.36524900  0.54831500  1
  O  O7  1  0.37354600  0.46579700  0.31051800  1
  O  O8  1  0.59882400  0.42642200  0.39061100  1
  O  O9  1  0.09882400  0.57357800  0.60938900  1
  O  O10  1  0.87354600  0.53420300  0.68948200  1
  O  O11  1  0.52783900  0.86435300  0.03961100  1
  O  O12  1  0.46295200  0.63475100  0.45168500  1
  O  O13  1  0.11588900  0.98891600  0.79442400  1
  O  O14  1  0.90202800  0.91447600  0.90720900  1
  O  O15  1  0.40202800  0.08552400  0.09279100  1
  O  O16  1  0.61588900  0.01108400  0.20557600  1
  O  O17  1  0.02783900  0.13564700  0.96038900  1
  O  O18  1  0.35163700  0.87106200  0.65703800  1
  O  O19  1  0.02796400  0.95907900  0.48633000  1
  O  O20  1  0.81351200  0.92746000  0.60209200  1
  O  O21  1  0.31351200  0.07254000  0.39790800  1
  O  O22  1  0.52796400  0.04092100  0.51367000  1
  O  O23  1  0.85163700  0.12893800  0.34296200  1
loop_
_geom_bond_atom_site_label_1
_geom_bond_atom_site_label_2
_geom_bond_distance
_geom_bond_site_symmetry_2
Li0 O11 1.966900 1_556
Li0 O18 1.969407 1_555
Li0 O1 2.069756 1_556
Li0 O5 2.325253 1_555
Li0 O3 2.542336 1_555
Li1 O17 1.966900 1_654
Li1 O23 1.969407 1_555
Li1 O4 2.069756 1_554
Li1 O0 2.325253 1_655
Li1 O2 2.542336 1_555
Mn0 O15 1.936150 1_555
Mn0 O21 1.967197 1_555
Mn0 O7 1.977607 1_555
Mn0 O1 2.025146 1_555
Mn0 O0 2.062308 1_555
Mn1 O14 1.936150 1_555
Mn1 O20 1.967197 1_555
Mn1 O10 1.977607 1_555
Mn1 O4 2.025146 1_555
Mn1 O5 2.062308 1_555
Mn2 O19 1.963705 1_555
Mn2 O13 1.972505 1_555
Mn2 O9 1.986438 1_555
Mn2 O3 1.995871 1_555
Mn2 O18 2.102646 1_555
Mn3 O22 1.963705 1_555
Mn3 O16 1.972505 1_555
Mn3 O8 1.986438 1_555
Mn3 O2 1.995871 1_555
Mn3 O23 2.102646 1_555
C0 O0 1.281672 1_555
C0 O3 1.296544 1_554
C0 O4 1.305971 1_454
C1 O5 1.281672 1_555
C1 O2 1.296544 1_556
C1 O1 1.305971 1_556
C2 O12 1.258617 1_555
C2 O8 1.297150 1_555
C2 O7 1.299258 1_555
C3 O6 1.258617 1_555
C3 O9 1.297150 1_655
C3 O10 1.299258 1_555
C4 O17 1.259298 1_555
C4 O13 1.296686 1_545
C4 O14 1.308234 1_445
C5 O11 1.259298 1_555
C5 O16 1.296686 1_565
C5 O15 1.308234 1_565
C6 O18 1.290200 1_555
C6 O22 1.292494 1_565
C6 O21 1.295233 1_565
C7 O23 1.290200 1_555
C7 O19 1.292494 1_645
C7 O20 1.295233 1_545
