# generated using pymatgen
data_LiCoSiO4
_symmetry_space_group_name_H-M   'P 1'
_cell_length_a   5.02059300
_cell_length_b   6.04423100
_cell_length_c   11.10862500
_cell_angle_alpha   90.00000000
_cell_angle_beta   90.00000000
_cell_angle_gamma   90.00000000
_symmetry_Int_Tables_number   1
_chemical_formula_structural   LiCoSiO4
_chemical_formula_sum   'Li4 Co4 Si4 O16'
_cell_volume   337.09815573
_cell_formula_units_Z   4
loop_
 _symmetry_equiv_pos_site_id
 _symmetry_equiv_pos_as_xyz
  1  'x, y, z'
loop_
 _atom_site_type_symbol
 _atom_site_label
 _atom_site_symmetry_multiplicity
 _atom_site_fract_x
 _atom_site_fract_y
 _atom_site_fract_z
 _atom_site_occupancy
  Li  Li0  1  0.33017600  0.50071600  0.92258400  1
  Li  Li1  1  0.16982400  0.50071600  0.42258400  1
  Li  Li2  1  0.83017600  0.00071600  0.57741600  1
  Li  Li3  1  0.66982400  0.00071600  0.07741600  1
  Co  Co0  1  0.67159900  0.24707800  0.33285400  1
  Co  Co1  1  0.82840100  0.24707800  0.83285400  1
  Co  Co2  1  0.32840100  0.74707800  0.66714600  1
  Co  Co3  1  0.17159900  0.74707800  0.16714600  1
  Si  Si0  1  0.32990400  0.25033100  0.67233700  1
  Si  Si1  1  0.17009600  0.25033100  0.17233700  1
  Si  Si2  1  0.67009600  0.75033100  0.32766300  1
  Si  Si3  1  0.82990400  0.75033100  0.82766300  1
  O  O0  1  0.21865200  0.02384800  0.60638100  1
  O  O1  1  0.28134800  0.02384800  0.10638100  1
  O  O2  1  0.84423100  0.23216200  0.18385700  1
  O  O3  1  0.30296500  0.27134100  0.30785900  1
  O  O4  1  0.19703500  0.27134100  0.80785900  1
  O  O5  1  0.65576900  0.23216200  0.68385700  1
  O  O6  1  0.23963100  0.47427600  0.09268000  1
  O  O7  1  0.26036900  0.47427600  0.59268000  1
  O  O8  1  0.71865200  0.52384800  0.89361900  1
  O  O9  1  0.78134800  0.52384800  0.39361900  1
  O  O10  1  0.80296500  0.77134100  0.19214100  1
  O  O11  1  0.34423100  0.73216200  0.31614300  1
  O  O12  1  0.69703500  0.77134100  0.69214100  1
  O  O13  1  0.15576900  0.73216200  0.81614300  1
  O  O14  1  0.73963100  0.97427600  0.40732000  1
  O  O15  1  0.76036900  0.97427600  0.90732000  1
loop_
_geom_bond_atom_site_label_1
_geom_bond_atom_site_label_2
_geom_bond_distance
_geom_bond_site_symmetry_2
Li0 O6 1.950006 1_556
Li0 O8 1.981681 1_555
Li0 O4 1.998275 1_555
Li0 O13 2.030217 1_555
Li1 O7 1.950006 1_555
Li1 O9 1.981681 1_455
Li1 O3 1.998275 1_555
Li1 O11 2.030217 1_555
Li2 O14 1.950006 1_545
Li2 O0 1.981681 1_655
Li2 O12 1.998275 1_545
Li2 O5 2.030217 1_555
Li3 O15 1.950006 1_544
Li3 O1 1.981681 1_555
Li3 O10 1.998275 1_545
Li3 O2 2.030217 1_555
Co0 O2 1.870521 1_555
Co0 O14 1.876099 1_545
Co0 O3 1.877210 1_555
Co0 O9 1.886192 1_555
Co1 O5 1.870521 1_555
Co1 O15 1.876099 1_545
Co1 O4 1.877210 1_655
Co1 O8 1.886192 1_555
Co2 O13 1.870521 1_555
Co2 O7 1.876099 1_555
Co2 O12 1.877210 1_555
Co2 O0 1.886192 1_565
Co3 O11 1.870521 1_555
Co3 O6 1.876099 1_555
Co3 O10 1.877210 1_455
Co3 O1 1.886192 1_565
O0 Si0 1.650070 1_555
O1 Si1 1.650070 1_555
O2 Si1 1.644703 1_655
O3 Si1 1.651527 1_555
O4 Si0 1.651527 1_555
O5 Si0 1.644703 1_555
O6 Si1 1.654404 1_555
O7 Si0 1.654404 1_555
O8 Si3 1.650070 1_555
O9 Si2 1.650070 1_555
O10 Si2 1.651527 1_555
O11 Si2 1.644703 1_555
O12 Si3 1.651527 1_555
O13 Si3 1.644703 1_455
O14 Si2 1.654404 1_555
O15 Si3 1.654404 1_555
