# generated using pymatgen
data_Be2P2O7
_symmetry_space_group_name_H-M   'P 1'
_cell_length_a   10.57355375
_cell_length_b   10.57355375
_cell_length_c   8.86750497
_cell_angle_alpha   82.56689585
_cell_angle_beta   82.56689585
_cell_angle_gamma   43.82964228
_symmetry_Int_Tables_number   1
_chemical_formula_structural   Be2P2O7
_chemical_formula_sum   'Be12 P12 O42'
_cell_volume   679.84439465
_cell_formula_units_Z   6
loop_
 _symmetry_equiv_pos_site_id
 _symmetry_equiv_pos_as_xyz
  1  'x, y, z'
loop_
 _atom_site_type_symbol
 _atom_site_label
 _atom_site_symmetry_multiplicity
 _atom_site_fract_x
 _atom_site_fract_y
 _atom_site_fract_z
 _atom_site_occupancy
  Be  Be0  1  0.85356700  0.22048500  0.95091200  1
  Be  Be1  1  0.70878100  0.57413500  0.87881200  1
  Be  Be2  1  0.49446400  0.92599600  0.77056800  1
  Be  Be3  1  0.07400400  0.50553600  0.72943200  1
  Be  Be4  1  0.42586500  0.29121900  0.62118800  1
  Be  Be5  1  0.77951500  0.14643300  0.54908800  1
  Be  Be6  1  0.22048500  0.85356700  0.45091200  1
  Be  Be7  1  0.57413500  0.70878100  0.37881200  1
  Be  Be8  1  0.92599600  0.49446400  0.27056800  1
  Be  Be9  1  0.50553600  0.07400400  0.22943200  1
  Be  Be10  1  0.29121900  0.42586500  0.12118800  1
  Be  Be11  1  0.14643300  0.77951500  0.04908800  1
  P  P0  1  0.93732600  0.85167600  0.80709500  1
  P  P1  1  0.26028400  0.22064200  0.97263800  1
  P  P2  1  0.47956100  0.40212800  0.86394800  1
  P  P3  1  0.59787200  0.52043900  0.63605200  1
  P  P4  1  0.77935800  0.73971600  0.52736200  1
  P  P5  1  0.14832400  0.06267400  0.69290500  1
  P  P6  1  0.85167600  0.93732600  0.30709500  1
  P  P7  1  0.22064200  0.26028400  0.47263800  1
  P  P8  1  0.40212800  0.47956100  0.36394800  1
  P  P9  1  0.52043900  0.59787200  0.13605200  1
  P  P10  1  0.73971600  0.77935800  0.02736200  1
  P  P11  1  0.06267400  0.14832400  0.19290500  1
  O  O0  1  0.03776100  0.86814900  0.89877400  1
  O  O1  1  0.79296700  0.87345000  0.92934500  1
  O  O2  1  0.67800900  0.73652800  0.90589300  1
  O  O3  1  0.31873900  0.51392300  0.98620700  1
  O  O4  1  0.66736100  0.27408500  0.92710600  1
  O  O5  1  0.98749700  0.18117200  0.80854100  1
  O  O6  1  0.33709800  0.93638000  0.75582800  1
  O  O7  1  0.09995000  0.39220500  0.88469300  1
  O  O8  1  0.69198500  0.54576100  0.72246400  1
  O  O9  1  0.41985600  0.08427800  0.86549800  1
  O  O10  1  0.44308500  0.55691500  0.75000000  1
  O  O11  1  0.91572200  0.58014400  0.63450200  1
  O  O12  1  0.45423900  0.30801500  0.77753600  1
  O  O13  1  0.60779500  0.90005000  0.61530700  1
  O  O14  1  0.06362000  0.66290200  0.74417200  1
  O  O15  1  0.81882800  0.01250300  0.69145900  1
  O  O16  1  0.72591500  0.33263900  0.57289400  1
  O  O17  1  0.86814900  0.03776100  0.39877400  1
  O  O18  1  0.87345000  0.79296700  0.42934500  1
  O  O19  1  0.48607700  0.68126100  0.51379300  1
  O  O20  1  0.73652800  0.67800900  0.40589300  1
  O  O21  1  0.26347200  0.32199100  0.59410700  1
  O  O22  1  0.51392300  0.31873900  0.48620700  1
  O  O23  1  0.12655000  0.20703300  0.57065500  1
  O  O24  1  0.13185100  0.96223900  0.60122600  1
  O  O25  1  0.27408500  0.66736100  0.42710600  1
  O  O26  1  0.18117200  0.98749700  0.30854100  1
  O  O27  1  0.93638000  0.33709800  0.25582800  1
  O  O28  1  0.39220500  0.09995000  0.38469300  1
  O  O29  1  0.54576100  0.69198500  0.22246400  1
  O  O30  1  0.08427800  0.41985600  0.36549800  1
  O  O31  1  0.55691500  0.44308500  0.25000000  1
  O  O32  1  0.58014400  0.91572200  0.13450200  1
  O  O33  1  0.30801500  0.45423900  0.27753600  1
  O  O34  1  0.90005000  0.60779500  0.11530700  1
  O  O35  1  0.66290200  0.06362000  0.24417200  1
  O  O36  1  0.01250300  0.81882800  0.19145900  1
  O  O37  1  0.33263900  0.72591500  0.07289400  1
  O  O38  1  0.68126100  0.48607700  0.01379300  1
  O  O39  1  0.32199100  0.26347200  0.09410700  1
  O  O40  1  0.20703300  0.12655000  0.07065500  1
  O  O41  1  0.96223900  0.13185100  0.10122600  1
loop_
_geom_bond_atom_site_label_1
_geom_bond_atom_site_label_2
_geom_bond_distance
_geom_bond_site_symmetry_2
Be0 O41 1.579440 1_556
Be0 O5 1.611186 1_555
Be0 O4 1.645848 1_555
Be0 O38 2.068073 1_556
Be1 O8 1.513902 1_555
Be1 O2 1.546696 1_555
Be1 O38 1.548129 1_556
Be2 O9 1.555540 1_565
Be2 O6 1.608332 1_555
Be2 O13 1.613466 1_555
Be2 O2 1.894944 1_555
Be3 O11 1.555540 1_455
Be3 O14 1.608332 1_555
Be3 O7 1.613466 1_555
Be3 O21 1.894944 1_555
Be4 O12 1.513902 1_555
Be4 O21 1.546696 1_555
Be4 O22 1.548129 1_555
Be5 O17 1.579440 1_555
Be5 O15 1.611186 1_555
Be5 O16 1.645848 1_555
Be5 O22 2.068073 1_555
Be6 O24 1.579440 1_555
Be6 O26 1.611186 1_555
Be6 O25 1.645848 1_555
Be6 O19 2.068073 1_555
Be7 O29 1.513902 1_555
Be7 O20 1.546696 1_555
Be7 O19 1.548129 1_555
Be8 O30 1.555540 1_655
Be8 O27 1.608332 1_555
Be8 O34 1.613466 1_555
Be8 O20 1.894944 1_555
Be9 O32 1.555540 1_545
Be9 O35 1.608332 1_555
Be9 O28 1.613466 1_555
Be9 O39 1.894944 1_555
Be10 O33 1.513902 1_555
Be10 O39 1.546696 1_555
Be10 O3 1.548129 1_554
Be11 O0 1.579440 1_554
Be11 O36 1.611186 1_555
Be11 O37 1.645848 1_555
Be11 O3 2.068073 1_554
O0 P0 1.531628 1_455
O1 P10 1.587495 1_556
O1 P0 1.639346 1_555
O2 P10 1.589138 1_556
O3 P2 1.555204 1_555
O4 P2 1.517369 1_555
O5 P5 1.523224 1_655
O6 P5 1.525880 1_565
O7 P1 1.520483 1_555
O8 P3 1.511246 1_555
O9 P1 1.502677 1_555
O10 P3 1.615724 1_555
O10 P2 1.615724 1_555
O11 P4 1.502677 1_555
O12 P2 1.511246 1_555
O13 P4 1.520483 1_555
O14 P0 1.525880 1_455
O15 P0 1.523224 1_545
O16 P3 1.517369 1_555
O17 P6 1.531628 1_545
O18 P4 1.587495 1_555
O18 P6 1.639346 1_555
O19 P3 1.555204 1_555
O20 P4 1.589138 1_555
O21 P7 1.589138 1_555
O22 P8 1.555204 1_555
O23 P7 1.587495 1_555
O23 P5 1.639346 1_555
O24 P5 1.531628 1_565
O25 P8 1.517369 1_555
O26 P11 1.523224 1_565
O27 P11 1.525880 1_655
O28 P7 1.520483 1_555
O29 P9 1.511246 1_555
O30 P7 1.502677 1_555
O31 P9 1.615724 1_555
O31 P8 1.615724 1_555
O32 P10 1.502677 1_555
O33 P8 1.511246 1_555
O34 P10 1.520483 1_555
O35 P6 1.525880 1_545
O36 P6 1.523224 1_455
O37 P9 1.517369 1_555
O38 P9 1.555204 1_555
O39 P1 1.589138 1_554
O40 P1 1.587495 1_554
O40 P11 1.639346 1_555
O41 P11 1.531628 1_655
