# generated using pymatgen
data_Li3Cr3FeO8
_symmetry_space_group_name_H-M   'P 1'
_cell_length_a   5.93695447
_cell_length_b   5.93695447
_cell_length_c   5.96188269
_cell_angle_alpha   60.32773632
_cell_angle_beta   60.32773632
_cell_angle_gamma   59.95128057
_symmetry_Int_Tables_number   1
_chemical_formula_structural   Li3Cr3FeO8
_chemical_formula_sum   'Li3 Cr3 Fe1 O8'
_cell_volume   149.26839116
_cell_formula_units_Z   1
loop_
 _symmetry_equiv_pos_site_id
 _symmetry_equiv_pos_as_xyz
  1  'x, y, z'
loop_
 _atom_site_type_symbol
 _atom_site_label
 _atom_site_symmetry_multiplicity
 _atom_site_fract_x
 _atom_site_fract_y
 _atom_site_fract_z
 _atom_site_occupancy
  Li  Li0  1  0.00000000  0.50000000  0.50000000  1
  Li  Li1  1  0.50000000  0.50000000  0.50000000  1
  Li  Li2  1  0.50000000  0.00000000  0.50000000  1
  Cr  Cr0  1  0.50000000  0.50000000  0.00000000  1
  Cr  Cr1  1  0.00000000  0.50000000  0.00000000  1
  Cr  Cr2  1  0.50000000  0.00000000  0.00000000  1
  Fe  Fe0  1  0.00000000  0.00000000  0.00000000  1
  O  O0  1  0.73313900  0.73313900  0.78465600  1
  O  O1  1  0.27264100  0.74543000  0.21412800  1
  O  O2  1  0.74543000  0.27264100  0.21412800  1
  O  O3  1  0.75995200  0.75995200  0.22346800  1
  O  O4  1  0.24004800  0.24004800  0.77653200  1
  O  O5  1  0.25457000  0.72735900  0.78587200  1
  O  O6  1  0.72735900  0.25457000  0.78587200  1
  O  O7  1  0.26686100  0.26686100  0.21534400  1
loop_
_geom_bond_atom_site_label_1
_geom_bond_atom_site_label_2
_geom_bond_distance
_geom_bond_site_symmetry_2
Li0 O3 2.176089 1_455
Li0 O4 2.176089 1_555
Li0 O0 2.184835 1_455
Li0 O7 2.184835 1_555
Li0 O6 2.195424 1_455
Li0 O1 2.195424 1_555
Li1 O1 2.167756 1_555
Li1 O5 2.167756 1_555
Li1 O2 2.167756 1_555
Li1 O6 2.167756 1_555
Li1 O3 2.197452 1_555
Li1 O4 2.197452 1_555
Li2 O4 2.176089 1_555
Li2 O3 2.176089 1_545
Li2 O0 2.184835 1_545
Li2 O7 2.184835 1_555
Li2 O2 2.195424 1_555
Li2 O5 2.195424 1_545
Cr0 O5 1.934108 1_554
Cr0 O6 1.934108 1_554
Cr0 O1 1.934108 1_555
Cr0 O2 1.934108 1_555
Cr0 O0 1.969723 1_554
Cr0 O7 1.969723 1_555
Cr1 O0 2.032872 1_454
Cr1 O7 2.032872 1_555
Cr1 O3 2.034962 1_455
Cr1 O4 2.034962 1_554
Cr1 O2 2.040268 1_455
Cr1 O5 2.040268 1_554
Cr2 O0 2.032872 1_544
Cr2 O7 2.032872 1_555
Cr2 O4 2.034962 1_554
Cr2 O3 2.034962 1_545
Cr2 O1 2.040268 1_545
Cr2 O6 2.040268 1_554
Fe0 O4 2.027665 1_554
Fe0 O3 2.027665 1_445
Fe0 O2 2.054173 1_455
Fe0 O6 2.054173 1_454
Fe0 O1 2.054173 1_545
Fe0 O5 2.054173 1_544
