# generated using pymatgen
data_BaCa2I6
_symmetry_space_group_name_H-M   'P 1'
_cell_length_a   7.40820000
_cell_length_b   8.25755200
_cell_length_c   27.44080000
_cell_angle_alpha   90.00000000
_cell_angle_beta   90.00000000
_cell_angle_gamma   90.00000000
_symmetry_Int_Tables_number   1
_chemical_formula_structural   BaCa2I6
_chemical_formula_sum   'Ba4 Ca8 I24'
_cell_volume   1678.65243305
_cell_formula_units_Z   4
loop_
 _symmetry_equiv_pos_site_id
 _symmetry_equiv_pos_as_xyz
  1  'x, y, z'
loop_
 _atom_site_type_symbol
 _atom_site_label
 _atom_site_symmetry_multiplicity
 _atom_site_fract_x
 _atom_site_fract_y
 _atom_site_fract_z
 _atom_site_occupancy
  Ba  Ba0  1  0.00000000  0.25000000  0.37830700  1
  Ba  Ba1  1  0.00000000  0.75000000  0.62169300  1
  Ba  Ba2  1  0.50000000  0.25000000  0.87830700  1
  Ba  Ba3  1  0.50000000  0.75000000  0.12169300  1
  Ca  Ca0  1  0.00000000  0.25000000  0.04586200  1
  Ca  Ca1  1  0.00000000  0.75000000  0.28663200  1
  Ca  Ca2  1  0.00000000  0.25000000  0.71336800  1
  Ca  Ca3  1  0.00000000  0.75000000  0.95413800  1
  Ca  Ca4  1  0.50000000  0.25000000  0.21336800  1
  Ca  Ca5  1  0.50000000  0.75000000  0.78663200  1
  Ca  Ca6  1  0.50000000  0.25000000  0.54586200  1
  Ca  Ca7  1  0.50000000  0.75000000  0.45413800  1
  I  I0  1  0.23132100  0.56690100  0.03417100  1
  I  I1  1  0.23132100  0.06690100  0.96582900  1
  I  I2  1  0.24438800  0.55808800  0.21069100  1
  I  I3  1  0.24438800  0.05808800  0.78930900  1
  I  I4  1  0.24355000  0.60585800  0.37142900  1
  I  I5  1  0.24355000  0.10585800  0.62857100  1
  I  I6  1  0.25645000  0.10585800  0.12857100  1
  I  I7  1  0.25645000  0.60585800  0.87142900  1
  I  I8  1  0.25561200  0.05808800  0.28930900  1
  I  I9  1  0.25561200  0.55808800  0.71069100  1
  I  I10  1  0.26867900  0.06690100  0.46582900  1
  I  I11  1  0.26867900  0.56690100  0.53417100  1
  I  I12  1  0.73132100  0.93309900  0.53417100  1
  I  I13  1  0.73132100  0.43309900  0.46582900  1
  I  I14  1  0.74438800  0.44191200  0.28930900  1
  I  I15  1  0.74438800  0.94191200  0.71069100  1
  I  I16  1  0.74355000  0.89414200  0.87142900  1
  I  I17  1  0.74355000  0.39414200  0.12857100  1
  I  I18  1  0.75645000  0.89414200  0.37142900  1
  I  I19  1  0.75645000  0.39414200  0.62857100  1
  I  I20  1  0.75561200  0.94191200  0.21069100  1
  I  I21  1  0.75561200  0.44191200  0.78930900  1
  I  I22  1  0.76867900  0.93309900  0.03417100  1
  I  I23  1  0.76867900  0.43309900  0.96582900  1
loop_
_geom_bond_atom_site_label_1
_geom_bond_atom_site_label_2
_geom_bond_distance
_geom_bond_site_symmetry_2
Ba0 I18 3.453386 1_445
Ba0 I4 3.453386 1_555
Ba0 I10 3.466386 1_555
Ba0 I13 3.466386 1_455
Ba0 I14 3.472951 1_455
Ba0 I8 3.472951 1_555
Ba1 I5 3.453386 1_565
Ba1 I19 3.453386 1_455
Ba1 I12 3.466386 1_455
Ba1 I11 3.466386 1_555
Ba1 I15 3.472951 1_455
Ba1 I9 3.472951 1_555
Ba2 I7 3.453386 1_555
Ba2 I16 3.453386 1_545
Ba2 I23 3.466386 1_555
Ba2 I1 3.466386 1_555
Ba2 I21 3.472951 1_555
Ba2 I3 3.472951 1_555
Ba3 I6 3.453386 1_565
Ba3 I17 3.453386 1_555
Ba3 I22 3.466386 1_555
Ba3 I0 3.466386 1_555
Ba3 I20 3.472951 1_555
Ba3 I2 3.472951 1_555
Ca0 I22 3.144419 1_445
Ca0 I0 3.144419 1_555
Ca0 I23 3.169515 1_454
Ca0 I1 3.169515 1_554
Ca0 I17 3.190168 1_455
Ca0 I6 3.190168 1_555
Ca1 I14 3.172289 1_455
Ca1 I8 3.172289 1_565
Ca1 I4 3.175933 1_555
Ca1 I18 3.175933 1_455
Ca1 I2 3.183038 1_555
Ca1 I20 3.183038 1_455
Ca2 I15 3.172289 1_445
Ca2 I9 3.172289 1_555
Ca2 I5 3.175933 1_555
Ca2 I19 3.175933 1_455
Ca2 I3 3.183038 1_555
Ca2 I21 3.183038 1_455
Ca3 I23 3.144419 1_455
Ca3 I1 3.144419 1_565
Ca3 I0 3.169515 1_556
Ca3 I22 3.169515 1_456
Ca3 I16 3.190168 1_455
Ca3 I7 3.190168 1_555
Ca4 I20 3.172289 1_545
Ca4 I2 3.172289 1_555
Ca4 I6 3.175933 1_555
Ca4 I17 3.175933 1_555
Ca4 I8 3.183038 1_555
Ca4 I14 3.183038 1_555
Ca5 I21 3.172289 1_555
Ca5 I3 3.172289 1_565
Ca5 I7 3.175933 1_555
Ca5 I16 3.175933 1_555
Ca5 I9 3.183038 1_555
Ca5 I15 3.183038 1_555
Ca6 I11 3.144419 1_555
Ca6 I12 3.144419 1_545
Ca6 I13 3.169515 1_555
Ca6 I10 3.169515 1_555
Ca6 I19 3.190168 1_555
Ca6 I5 3.190168 1_555
Ca7 I13 3.144419 1_555
Ca7 I10 3.144419 1_565
Ca7 I11 3.169515 1_555
Ca7 I12 3.169515 1_555
Ca7 I18 3.190168 1_555
Ca7 I4 3.190168 1_555
