# generated using pymatgen
data_Li6MnV3(PO4)6
_symmetry_space_group_name_H-M   'P 1'
_cell_length_a   8.50629900
_cell_length_b   8.84884663
_cell_length_c   12.38912693
_cell_angle_alpha   89.99577998
_cell_angle_beta   87.74725008
_cell_angle_gamma   89.89581811
_symmetry_Int_Tables_number   1
_chemical_formula_structural   Li6MnV3(PO4)6
_chemical_formula_sum   'Li12 Mn2 V6 P12 O48'
_cell_volume   931.81891629
_cell_formula_units_Z   2
loop_
 _symmetry_equiv_pos_site_id
 _symmetry_equiv_pos_as_xyz
  1  'x, y, z'
loop_
 _atom_site_type_symbol
 _atom_site_label
 _atom_site_symmetry_multiplicity
 _atom_site_fract_x
 _atom_site_fract_y
 _atom_site_fract_z
 _atom_site_occupancy
  Li  Li0  1  0.99556200  0.99743400  0.00025300  1
  Li  Li1  1  0.00073600  0.09964200  0.75115400  1
  Li  Li2  1  0.99929700  0.99874600  0.49922000  1
  Li  Li3  1  0.99055400  0.89706000  0.24913000  1
  Li  Li4  1  0.71062500  0.80683800  0.95511800  1
  Li  Li5  1  0.70766100  0.19339800  0.45140600  1
  Li  Li6  1  0.49398200  0.50390700  0.00029300  1
  Li  Li7  1  0.50060700  0.40299700  0.74976000  1
  Li  Li8  1  0.49993900  0.50110400  0.49925600  1
  Li  Li9  1  0.49527300  0.60120600  0.24819300  1
  Li  Li10  1  0.29324100  0.80601800  0.54859800  1
  Li  Li11  1  0.29012100  0.19520300  0.05001200  1
  Mn  Mn0  1  0.71090300  0.00761000  0.14285800  1
  Mn  Mn1  1  0.21013700  0.49678500  0.14750900  1
  V  V0  1  0.78720300  0.49946200  0.85646700  1
  V  V1  1  0.78553800  0.50031200  0.35582400  1
  V  V2  1  0.71617500  0.99658700  0.64196600  1
  V  V3  1  0.28409400  0.99724500  0.85824900  1
  V  V4  1  0.28267800  0.00264600  0.35848400  1
  V  V5  1  0.21386800  0.50025600  0.64432500  1
  P  P0  1  0.99964000  0.79645700  0.75042100  1
  P  P1  1  0.99569200  0.19887100  0.24949300  1
  P  P2  1  0.84437200  0.35496500  0.60439000  1
  P  P3  1  0.84862400  0.64294000  0.10486100  1
  P  P4  1  0.65133200  0.14694600  0.89522000  1
  P  P5  1  0.65068600  0.85225500  0.39760500  1
  P  P6  1  0.50099700  0.70753500  0.75014100  1
  P  P7  1  0.49533400  0.29571700  0.25196900  1
  P  P8  1  0.35052700  0.14711300  0.60299900  1
  P  P9  1  0.35515000  0.85495500  0.10322600  1
  P  P10  1  0.15700500  0.35515900  0.89430900  1
  P  P11  1  0.15613200  0.64552500  0.39639600  1
  O  O0  1  0.98926100  0.41452100  0.89520700  1
  O  O1  1  0.98890100  0.58716700  0.39358500  1
  O  O2  1  0.93246600  0.90632000  0.66469900  1
  O  O3  1  0.92188600  0.08940700  0.16422800  1
  O  O4  1  0.87313300  0.70227200  0.81109000  1
  O  O5  1  0.87184400  0.29605800  0.31030700  1
  O  O6  1  0.85508100  0.17858300  0.58987500  1
  O  O7  1  0.86227100  0.81814400  0.09095100  1
  O  O8  1  0.75047400  0.40409100  0.70748600  1
  O  O9  1  0.75124500  0.05993300  0.97753700  1
  O  O10  1  0.74701500  0.40861700  0.50706000  1
  O  O11  1  0.75545100  0.59437200  0.20854100  1
  O  O12  1  0.74700600  0.93686500  0.48372500  1
  O  O13  1  0.72518600  0.09778500  0.78452700  1
  O  O14  1  0.75075600  0.58855800  0.00887800  1
  O  O15  1  0.72907000  0.90170100  0.28927600  1
  O  O16  1  0.65559400  0.32157000  0.90940900  1
  O  O17  1  0.65366500  0.67751300  0.41204900  1
  O  O18  1  0.61909800  0.80520300  0.68727500  1
  O  O19  1  0.61373700  0.20414400  0.18397100  1
  O  O20  1  0.57196800  0.60076300  0.83674300  1
  O  O21  1  0.56680600  0.40439200  0.33612900  1
  O  O22  1  0.52625800  0.10652700  0.59054100  1
  O  O23  1  0.53299700  0.89802800  0.09115400  1
  O  O24  1  0.47451000  0.10812800  0.90740600  1
  O  O25  1  0.47382500  0.89341000  0.40872500  1
  O  O26  1  0.42992500  0.60007100  0.66453800  1
  O  O27  1  0.41925600  0.40308100  0.16557200  1
  O  O28  1  0.38112900  0.80567500  0.81275000  1
  O  O29  1  0.37943600  0.19619300  0.31540900  1
  O  O30  1  0.34658000  0.32159200  0.58956300  1
  O  O31  1  0.35677600  0.68182000  0.08952400  1
  O  O32  1  0.27472600  0.09558800  0.71265000  1
  O  O33  1  0.25815200  0.40689000  0.98965800  1
  O  O34  1  0.27939300  0.90611800  0.21267400  1
  O  O35  1  0.25157700  0.06271200  0.51813800  1
  O  O36  1  0.24849300  0.40327800  0.78985900  1
  O  O37  1  0.25228400  0.59099700  0.49373400  1
  O  O38  1  0.25683500  0.94106000  0.01868800  1
  O  O39  1  0.25359200  0.60084000  0.29360100  1
  O  O40  1  0.14257800  0.17875000  0.90696800  1
  O  O41  1  0.14443800  0.82173900  0.41168200  1
  O  O42  1  0.12684700  0.70250500  0.68991800  1
  O  O43  1  0.12331300  0.28482600  0.18465100  1
  O  O44  1  0.06748800  0.90592000  0.83662100  1
  O  O45  1  0.06277000  0.08811300  0.33509500  1
  O  O46  1  0.01261300  0.41182200  0.60480500  1
  O  O47  1  0.01861500  0.58344300  0.10442700  1
loop_
_geom_bond_atom_site_label_1
_geom_bond_atom_site_label_2
_geom_bond_distance
_geom_bond_site_symmetry_2
Li0 O9 2.178507 1_564
Li0 O7 2.229641 1_555
Li0 O44 2.245172 1_654
Li0 O3 2.253984 1_565
Li0 O38 2.297003 1_655
Li0 O40 2.316725 1_664
Li1 O44 2.103710 1_545
Li1 O2 2.112747 1_445
Li1 O32 2.360726 1_555
Li1 O13 2.364126 1_455
Li1 O40 2.420455 1_555
Li1 O6 2.491332 1_455
Li2 O45 2.228554 1_665
Li2 O12 2.231357 1_555
Li2 O35 2.241535 1_665
Li2 O41 2.245379 1_655
Li2 O2 2.259418 1_555
Li2 O6 2.276748 1_565
Li3 O3 2.094992 1_565
Li3 O45 2.103626 1_665
Li3 O15 2.260333 1_555
Li3 O7 2.385352 1_555
Li3 O34 2.482035 1_655
Li3 O41 2.533227 1_655
Li4 O14 2.075143 1_556
Li4 O7 2.162664 1_556
Li4 O9 2.285342 1_565
Li4 O23 2.360117 1_556
Li4 O4 2.398483 1_555
Li5 O10 2.057918 1_555
Li5 O6 2.168217 1_555
Li5 O12 2.330873 1_545
Li5 O5 2.375705 1_555
Li5 O22 2.395482 1_555
Li6 O33 2.192172 1_554
Li6 O31 2.225964 1_555
Li6 O20 2.275174 1_554
Li6 O27 2.300531 1_555
Li6 O14 2.316754 1_555
Li6 O16 2.373073 1_554
Li7 O26 2.136163 1_555
Li7 O20 2.155889 1_555
Li7 O8 2.168978 1_555
Li7 O36 2.182237 1_555
Li7 O16 2.524030 1_555
Li7 O30 2.526385 1_555
Li8 O21 2.246877 1_555
Li8 O37 2.254003 1_555
Li8 O10 2.259644 1_555
Li8 O17 2.282565 1_555
Li8 O26 2.284116 1_555
Li8 O30 2.317179 1_555
Li9 O39 2.109965 1_555
Li9 O27 2.143814 1_555
Li9 O21 2.153653 1_555
Li9 O11 2.248794 1_555
Li9 O31 2.437175 1_555
Li9 O17 2.571147 1_555
Li10 O37 2.055440 1_555
Li10 O41 2.160314 1_555
Li10 O35 2.331296 1_565
Li10 O42 2.391113 1_555
Li10 O25 2.399050 1_555
Li10 O26 2.619039 1_555
Li11 O33 2.038580 1_554
Li11 O40 2.216427 1_554
Li11 O43 2.287953 1_555
Li11 O38 2.302017 1_545
Li11 O24 2.439916 1_554
Li11 O27 2.602192 1_555
Mn0 O23 1.929345 1_545
Mn0 O3 1.963923 1_555
Mn0 O19 1.982134 1_555
Mn0 O15 2.052802 1_545
Mn0 O9 2.114796 1_554
Mn0 O7 2.193051 1_545
Mn1 O47 1.894933 1_555
Mn1 O27 1.981853 1_555
Mn1 O43 2.062339 1_555
Mn1 O39 2.077126 1_555
Mn1 O33 2.135497 1_554
Mn1 O31 2.165567 1_555
O0 P10 1.519231 1_655
O0 V0 1.951810 1_555
O1 P11 1.515917 1_655
O1 V1 1.967359 1_555
O2 P0 1.563656 1_555
O2 V2 2.034132 1_555
O3 P1 1.582021 1_555
O4 P0 1.535300 1_555
O4 V0 2.010811 1_555
O5 P1 1.533456 1_555
O5 V1 2.021506 1_555
O6 P2 1.573181 1_555
O6 V2 2.086384 1_545
O7 P3 1.563909 1_555
O8 P2 1.541741 1_555
O8 V0 2.064731 1_555
O9 P4 1.555914 1_555
O10 P2 1.562770 1_555
O10 V1 2.056429 1_555
O11 P3 1.543997 1_555
O11 V1 2.030649 1_555
O12 P5 1.562469 1_555
O12 V2 2.037332 1_555
O13 P4 1.547895 1_555
O13 V2 1.984535 1_545
O14 P3 1.555009 1_555
O14 V0 2.058262 1_554
O15 P5 1.538788 1_555
O16 P4 1.555850 1_555
O16 V0 2.027301 1_555
O17 P5 1.556847 1_555
O17 V1 2.033367 1_555
O18 P6 1.517997 1_555
O18 V2 1.957941 1_555
O19 P7 1.520241 1_555
O20 P6 1.567476 1_555
O20 V0 2.060203 1_555
O21 P7 1.560017 1_555
O21 V1 2.069605 1_555
O22 P8 1.538574 1_555
O22 V2 2.009291 1_545
O23 P9 1.562231 1_555
O24 P4 1.545031 1_555
O24 V3 2.010120 1_545
O25 P5 1.548109 1_555
O25 V4 2.009791 1_565
O26 P6 1.564343 1_555
O26 V5 2.064614 1_555
O27 P7 1.587191 1_555
O28 P6 1.526493 1_555
O28 V3 1.957329 1_555
O29 P7 1.519010 1_555
O29 V4 1.966190 1_555
O30 P8 1.553317 1_555
O30 V5 2.041473 1_555
O31 P9 1.541411 1_555
O32 P8 1.549584 1_555
O32 V3 2.007065 1_545
O33 P10 1.557778 1_555
O34 P9 1.545707 1_555
O34 V4 1.999487 1_565
O35 P8 1.563188 1_555
O35 V4 2.055087 1_555
O36 P10 1.543840 1_555
O36 V5 2.028475 1_555
O37 P11 1.559508 1_555
O37 V5 2.045758 1_555
O38 P9 1.563106 1_555
O38 V3 2.053274 1_554
O39 P11 1.543183 1_555
O40 P10 1.573396 1_555
O40 V3 2.080619 1_545
O41 P11 1.573260 1_555
O41 V4 2.079791 1_565
O42 P0 1.535237 1_455
O42 V5 2.008079 1_555
O43 P1 1.528629 1_455
O44 P0 1.569221 1_455
O44 V3 2.040583 1_555
O45 P1 1.567241 1_455
O45 V4 2.047566 1_555
O46 P2 1.518033 1_455
O46 V5 1.963069 1_555
O47 P3 1.537768 1_455
