# generated using pymatgen
data_Li10CoNi9O20
_symmetry_space_group_name_H-M   'P 1'
_cell_length_a   21.47679949
_cell_length_b   2.79205873
_cell_length_c   5.71465494
_cell_angle_alpha   89.99998936
_cell_angle_beta   82.48703893
_cell_angle_gamma   89.99999273
_symmetry_Int_Tables_number   1
_chemical_formula_structural   Li10CoNi9O20
_chemical_formula_sum   'Li10 Co1 Ni9 O20'
_cell_volume   339.73457271
_cell_formula_units_Z   1
loop_
 _symmetry_equiv_pos_site_id
 _symmetry_equiv_pos_as_xyz
  1  'x, y, z'
loop_
 _atom_site_type_symbol
 _atom_site_label
 _atom_site_symmetry_multiplicity
 _atom_site_fract_x
 _atom_site_fract_y
 _atom_site_fract_z
 _atom_site_occupancy
  Li  Li0  1  0.90114000  0.50000000  0.30371200  1
  Li  Li1  1  0.79820600  0.00000000  0.09983100  1
  Li  Li2  1  0.70031900  0.50000000  0.89893200  1
  Li  Li3  1  0.60009800  0.00000000  0.69981500  1
  Li  Li4  1  0.50000000  0.50000000  0.50000000  1
  Li  Li5  1  0.39990200  0.00000000  0.30018500  1
  Li  Li6  1  0.20179400  0.00000000  0.90016900  1
  Li  Li7  1  0.29968100  0.50000000  0.10106800  1
  Li  Li8  1  0.09886000  0.50000000  0.69628800  1
  Li  Li9  1  0.00000000  0.00000000  0.50000000  1
  Co  Co0  1  0.00000000  0.00000000  0.00000000  1
  Ni  Ni0  1  0.90314100  0.50000000  0.79792100  1
  Ni  Ni1  1  0.80124100  0.00000000  0.60037500  1
  Ni  Ni2  1  0.70033300  0.50000000  0.40014500  1
  Ni  Ni3  1  0.60007600  0.00000000  0.19987500  1
  Ni  Ni4  1  0.39992400  0.00000000  0.80012500  1
  Ni  Ni5  1  0.50000000  0.50000000  0.00000000  1
  Ni  Ni6  1  0.29966700  0.50000000  0.59985500  1
  Ni  Ni7  1  0.19875900  0.00000000  0.39962500  1
  Ni  Ni8  1  0.09685900  0.50000000  0.20207900  1
  O  O0  1  0.00069100  0.50000000  0.77194700  1
  O  O1  1  0.89969700  0.00000000  0.57281400  1
  O  O2  1  0.80145000  0.50000000  0.82939100  1
  O  O3  1  0.90920600  0.00000000  0.02334900  1
  O  O4  1  0.70037000  0.00000000  0.62580000  1
  O  O5  1  0.80080100  0.50000000  0.37188200  1
  O  O6  1  0.60010200  0.50000000  0.97468000  1
  O  O7  1  0.70011700  0.00000000  0.17456100  1
  O  O8  1  0.60000200  0.50000000  0.42506200  1
  O  O9  1  0.50005700  0.00000000  0.77473000  1
  O  O10  1  0.49994300  0.00000000  0.22527000  1
  O  O11  1  0.29988300  0.00000000  0.82543900  1
  O  O12  1  0.39999800  0.50000000  0.57493800  1
  O  O13  1  0.39989800  0.50000000  0.02532000  1
  O  O14  1  0.29963000  0.00000000  0.37420000  1
  O  O15  1  0.19919900  0.50000000  0.62811800  1
  O  O16  1  0.09079400  0.00000000  0.97665100  1
  O  O17  1  0.19855000  0.50000000  0.17060900  1
  O  O18  1  0.10030300  0.00000000  0.42718600  1
  O  O19  1  0.99930900  0.50000000  0.22805300  1
loop_
_geom_bond_atom_site_label_1
_geom_bond_atom_site_label_2
_geom_bond_distance
_geom_bond_site_symmetry_2
Li0 O1 2.074199 1_555
Li0 O1 2.074199 1_565
Li0 O19 2.096122 1_555
Li0 O3 2.115018 1_565
Li0 O3 2.115018 1_555
Li0 O5 2.139179 1_555
Li1 O2 2.077035 1_554
Li1 O2 2.077036 1_544
Li1 O7 2.094049 1_555
Li1 O5 2.095634 1_545
Li1 O5 2.095635 1_555
Li1 O3 2.366782 1_555
Li2 O4 2.093972 1_565
Li2 O4 2.093973 1_555
Li2 O7 2.104316 1_556
Li2 O7 2.104317 1_566
Li2 O6 2.139231 1_555
Li2 O2 2.156309 1_555
Li3 O8 2.101195 1_555
Li3 O8 2.101195 1_545
Li3 O6 2.101479 1_545
Li3 O6 2.101480 1_555
Li3 O9 2.135195 1_555
Li3 O4 2.139711 1_555
Li4 O10 2.101014 1_565
Li4 O9 2.101014 1_555
Li4 O9 2.101015 1_565
Li4 O10 2.101015 1_555
Li4 O12 2.134383 1_555
Li4 O8 2.134383 1_555
Li5 O12 2.101195 1_545
Li5 O12 2.101195 1_555
Li5 O13 2.101479 1_555
Li5 O13 2.101480 1_545
Li5 O10 2.135195 1_555
Li5 O14 2.139711 1_555
Li6 O17 2.077035 1_546
Li6 O17 2.077036 1_556
Li6 O11 2.094049 1_555
Li6 O15 2.095634 1_555
Li6 O15 2.095635 1_545
Li6 O16 2.366782 1_555
Li7 O14 2.093972 1_555
Li7 O14 2.093973 1_565
Li7 O11 2.104316 1_564
Li7 O11 2.104317 1_554
Li7 O13 2.139231 1_555
Li7 O17 2.156309 1_555
Li8 O18 2.074199 1_565
Li8 O18 2.074199 1_555
Li8 O0 2.096122 1_555
Li8 O16 2.115018 1_555
Li8 O16 2.115018 1_565
Li8 O15 2.139179 1_555
Li9 O19 2.090532 1_455
Li9 O0 2.090532 1_545
Li9 O19 2.090532 1_445
Li9 O0 2.090532 1_555
Li9 O18 2.139922 1_555
Li9 O1 2.139922 1_455
Co0 O0 1.908535 1_554
Co0 O19 1.908535 1_445
Co0 O0 1.908535 1_544
Co0 O19 1.908535 1_455
Co0 O16 1.937041 1_554
Co0 O3 1.937041 1_455
Ni0 O1 1.906331 1_565
Ni0 O1 1.906331 1_555
Ni0 O3 1.915546 1_556
Ni0 O3 1.915546 1_566
Ni0 O0 2.080864 1_655
Ni0 O2 2.167828 1_555
Ni1 O5 1.912386 1_555
Ni1 O5 1.912386 1_545
Ni1 O2 1.913968 1_545
Ni1 O2 1.913968 1_555
Ni1 O1 2.099741 1_555
Ni1 O4 2.152215 1_555
Ni2 O4 1.900547 1_555
Ni2 O4 1.900548 1_565
Ni2 O7 1.900619 1_565
Ni2 O7 1.900619 1_555
Ni2 O8 2.140830 1_555
Ni2 O5 2.142605 1_555
Ni3 O8 1.898523 1_545
Ni3 O8 1.898523 1_555
Ni3 O6 1.898645 1_554
Ni3 O6 1.898645 1_544
Ni3 O7 2.134470 1_555
Ni3 O10 2.136412 1_555
Ni4 O12 1.898523 1_555
Ni4 O12 1.898523 1_545
Ni4 O13 1.898645 1_546
Ni4 O13 1.898645 1_556
Ni4 O11 2.134470 1_555
Ni4 O9 2.136412 1_555
Ni5 O9 1.898876 1_564
Ni5 O10 1.898876 1_555
Ni5 O9 1.898877 1_554
Ni5 O10 1.898877 1_565
Ni5 O6 2.135775 1_554
Ni5 O13 2.135775 1_555
Ni6 O14 1.900547 1_565
Ni6 O14 1.900548 1_555
Ni6 O11 1.900619 1_555
Ni6 O11 1.900619 1_565
Ni6 O12 2.140830 1_555
Ni6 O15 2.142605 1_555
Ni7 O15 1.912386 1_545
Ni7 O15 1.912386 1_555
Ni7 O17 1.913968 1_555
Ni7 O17 1.913968 1_545
Ni7 O18 2.099741 1_555
Ni7 O14 2.152215 1_555
Ni8 O18 1.906331 1_555
Ni8 O18 1.906331 1_565
Ni8 O16 1.915546 1_564
Ni8 O16 1.915546 1_554
Ni8 O19 2.080864 1_455
Ni8 O17 2.167828 1_555
