# generated using pymatgen
data_ZrTlCuSe3
_symmetry_space_group_name_H-M   'P 1'
_cell_length_a   7.60187131
_cell_length_b   7.60187131
_cell_length_c   10.17955111
_cell_angle_alpha   90.00000000
_cell_angle_beta   90.00000000
_cell_angle_gamma   150.49192676
_symmetry_Int_Tables_number   1
_chemical_formula_structural   ZrTlCuSe3
_chemical_formula_sum   'Zr2 Tl2 Cu2 Se6'
_cell_volume   289.74544647
_cell_formula_units_Z   2
loop_
 _symmetry_equiv_pos_site_id
 _symmetry_equiv_pos_as_xyz
  1  'x, y, z'
loop_
 _atom_site_type_symbol
 _atom_site_label
 _atom_site_symmetry_multiplicity
 _atom_site_fract_x
 _atom_site_fract_y
 _atom_site_fract_z
 _atom_site_occupancy
  Zr  Zr0  1  -0.00000000  0.00000000  0.50000000  1
  Zr  Zr1  1  -0.00000000  0.00000000  -0.00000000  1
  Tl  Tl0  1  0.74982854  0.25017146  0.25000000  1
  Tl  Tl1  1  0.25017146  0.74982854  0.75000000  1
  Cu  Cu0  1  0.53504761  0.46495239  0.75000000  1
  Cu  Cu1  1  0.46495239  0.53504761  0.25000000  1
  Se  Se0  1  0.37527303  0.62472697  0.05237556  1
  Se  Se1  1  0.62472697  0.37527303  0.94762444  1
  Se  Se2  1  0.62472697  0.37527303  0.55237556  1
  Se  Se3  1  0.37527303  0.62472697  0.44762444  1
  Se  Se4  1  0.93355156  0.06644844  0.75000000  1
  Se  Se5  1  0.06644844  0.93355156  0.25000000  1
loop_
_geom_bond_atom_site_label_1
_geom_bond_atom_site_label_2
_geom_bond_distance
_geom_bond_site_symmetry_2
Cu0 Se2 2.405308 1_555
Cu0 Se1 2.405308 1_555
Cu0 Se4 2.444332 1_565
Cu0 Se4 2.444332 1_455
Cu1 Se3 2.405308 1_555
Cu1 Se0 2.405308 1_555
Cu1 Se5 2.444332 1_545
Cu1 Se5 2.444332 1_655
Se0 Zr1 2.719380 1_555
Se0 Zr1 2.719380 1_665
Se0 Tl0 3.346135 1_455
Se0 Tl0 3.346135 1_565
Se1 Zr1 2.719380 1_666
Se1 Zr1 2.719380 1_556
Se1 Tl1 3.346135 1_655
Se1 Tl1 3.346135 1_545
Se2 Zr0 2.719380 1_665
Se2 Zr0 2.719380 1_555
Se2 Tl1 3.346135 1_655
Se2 Tl1 3.346135 1_545
Se3 Zr0 2.719380 1_555
Se3 Zr0 2.719380 1_665
Se3 Tl0 3.346135 1_455
Se3 Tl0 3.346135 1_565
Se4 Zr1 2.725967 1_656
Se4 Zr0 2.725967 1_655
Se4 Tl1 3.319205 1_655
Se4 Tl1 3.319205 1_545
Se5 Zr1 2.725967 1_565
Se5 Zr0 2.725967 1_565
Se5 Tl0 3.319205 1_455
Se5 Tl0 3.319205 1_565
