# generated using pymatgen
data_Na4Ti11O24
_symmetry_space_group_name_H-M   'P 1'
_cell_length_a   10.50339217
_cell_length_b   10.50339217
_cell_length_c   6.15520938
_cell_angle_alpha   73.95641705
_cell_angle_beta   73.95641705
_cell_angle_gamma   119.97407326
_symmetry_Int_Tables_number   1
_chemical_formula_structural   Na4Ti11O24
_chemical_formula_sum   'Na4 Ti11 O24'
_cell_volume   490.28803128
_cell_formula_units_Z   1
loop_
 _symmetry_equiv_pos_site_id
 _symmetry_equiv_pos_as_xyz
  1  'x, y, z'
loop_
 _atom_site_type_symbol
 _atom_site_label
 _atom_site_symmetry_multiplicity
 _atom_site_fract_x
 _atom_site_fract_y
 _atom_site_fract_z
 _atom_site_occupancy
  Na  Na0  1  0.74246300  0.41937900  0.76885900  1
  Na  Na1  1  0.41937900  0.74246300  0.76885900  1
  Na  Na2  1  0.70914800  0.70914800  0.87434900  1
  Na  Na3  1  0.09193500  0.09193500  0.72820300  1
  Ti  Ti0  1  0.70685100  0.70685100  0.36955000  1
  Ti  Ti1  1  0.87564900  0.03937300  0.35675500  1
  Ti  Ti2  1  0.70999300  0.20819800  0.37376700  1
  Ti  Ti3  1  0.03937300  0.87564900  0.35675500  1
  Ti  Ti4  1  0.37672300  0.03766600  0.87918100  1
  Ti  Ti5  1  0.03840900  0.37584900  0.37255400  1
  Ti  Ti6  1  0.20819800  0.70999300  0.37376700  1
  Ti  Ti7  1  0.53902900  0.37841100  0.39277600  1
  Ti  Ti8  1  0.37841100  0.53902900  0.39277600  1
  Ti  Ti9  1  0.37584900  0.03840900  0.37255400  1
  Ti  Ti10  1  0.03766600  0.37672300  0.87918100  1
  O  O0  1  0.94087000  0.94087000  0.15029000  1
  O  O1  1  0.47656400  0.47656400  0.60113500  1
  O  O2  1  0.67330100  0.82550900  0.55405400  1
  O  O3  1  0.82551000  0.67330100  0.55405400  1
  O  O4  1  0.94237900  0.42935000  0.15753200  1
  O  O5  1  0.47395600  0.98806000  0.59341100  1
  O  O6  1  0.30672600  0.10280900  0.12043300  1
  O  O7  1  0.10280900  0.30672600  0.12043300  1
  O  O8  1  0.98596200  0.98596200  0.51456300  1
  O  O9  1  0.81729600  0.14646700  0.55475800  1
  O  O10  1  0.60547600  0.26157200  0.62308400  1
  O  O11  1  0.14646700  0.81729600  0.55475800  1
  O  O12  1  0.15477200  0.81067100  0.12587000  1
  O  O13  1  0.59962600  0.26945000  0.19579700  1
  O  O14  1  0.26945000  0.59962600  0.19579700  1
  O  O15  1  0.42760700  0.42760700  0.23606200  1
  O  O16  1  0.98806000  0.47395600  0.59341100  1
  O  O17  1  0.42935000  0.94237900  0.15753200  1
  O  O18  1  0.74512700  0.59161000  0.19615300  1
  O  O19  1  0.59161000  0.74512700  0.19615300  1
  O  O20  1  0.31707000  0.11179200  0.62764400  1
  O  O21  1  0.11179200  0.31707000  0.62764400  1
  O  O22  1  0.26157200  0.60547600  0.62308400  1
  O  O23  1  0.81067100  0.15477200  0.12587000  1
loop_
_geom_bond_atom_site_label_1
_geom_bond_atom_site_label_2
_geom_bond_distance
_geom_bond_site_symmetry_2
Na0 O3 2.170476 1_555
Na0 O10 2.185250 1_555
Na0 O16 2.188522 1_555
Na0 O13 2.192990 1_556
Na1 O2 2.170480 1_555
Na1 O22 2.185250 1_555
Na1 O5 2.188522 1_555
Na1 O14 2.192990 1_556
Na2 O2 2.249560 1_555
Na2 O3 2.249564 1_555
Na2 O18 2.262443 1_556
Na2 O19 2.262443 1_556
Na2 O8 2.499289 1_555
Na2 O15 2.535784 1_556
Na3 O8 2.141777 1_445
Na3 O21 2.155263 1_555
Na3 O20 2.155263 1_555
Na3 O0 2.170777 1_446
O0 Ti3 2.026940 1_655
O0 Ti1 2.026940 1_565
O0 Ti0 2.049559 1_555
O1 Ti0 2.018794 1_555
O1 Ti8 2.019819 1_555
O1 Ti7 2.019819 1_555
O2 Ti1 1.825610 1_565
O2 Ti0 1.991776 1_555
O3 Ti3 1.825605 1_655
O3 Ti0 1.991785 1_555
O4 Ti2 1.988722 1_555
O4 Ti5 1.994477 1_655
O4 Ti10 2.090719 1_654
O5 Ti2 2.003010 1_565
O5 Ti9 2.027552 1_565
O5 Ti4 2.110404 1_565
O6 Ti4 1.916921 1_554
O6 Ti9 1.981459 1_555
O6 Ti3 2.196194 1_545
O7 Ti10 1.916921 1_554
O7 Ti5 1.981459 1_555
O7 Ti1 2.196194 1_455
O8 Ti3 1.889734 1_655
O8 Ti1 1.889734 1_565
O9 Ti5 1.982912 1_655
O9 Ti2 1.989132 1_555
O9 Ti1 2.039620 1_555
O10 Ti4 1.999966 1_555
O10 Ti2 2.008407 1_555
O10 Ti7 2.108030 1_555
O11 Ti9 1.982912 1_565
O11 Ti6 1.989132 1_555
O11 Ti3 2.039620 1_555
O12 Ti4 1.978212 1_564
O12 Ti6 1.983862 1_555
O12 Ti3 2.089298 1_555
O13 Ti2 2.003815 1_555
O13 Ti9 2.006235 1_555
O13 Ti7 2.062328 1_555
O14 Ti6 2.003815 1_555
O14 Ti5 2.006235 1_555
O14 Ti8 2.062328 1_555
O15 Ti8 1.876119 1_555
O15 Ti7 1.876119 1_555
O16 Ti6 2.003010 1_655
O16 Ti5 2.027552 1_655
O16 Ti10 2.110404 1_655
O17 Ti6 1.988722 1_555
O17 Ti9 1.994477 1_565
O17 Ti4 2.090719 1_564
O18 Ti7 1.837250 1_555
O18 Ti0 1.931063 1_555
O19 Ti8 1.837250 1_555
O19 Ti0 1.931063 1_555
O20 Ti4 1.937323 1_555
O20 Ti9 2.012254 1_555
O20 Ti7 2.177872 1_555
O21 Ti10 1.937323 1_555
O21 Ti5 2.012254 1_555
O21 Ti8 2.177872 1_555
O22 Ti10 1.999966 1_555
O22 Ti6 2.008407 1_555
O22 Ti8 2.108030 1_555
O23 Ti10 1.978212 1_654
O23 Ti2 1.983862 1_555
O23 Ti1 2.089298 1_555
