# generated using pymatgen
data_Ti3Fe2P6WO24
_symmetry_space_group_name_H-M   'P 1'
_cell_length_a   8.62736186
_cell_length_b   8.62736186
_cell_length_c   8.62736168
_cell_angle_alpha   60.90799090
_cell_angle_beta   60.90799090
_cell_angle_gamma   60.90799013
_symmetry_Int_Tables_number   1
_chemical_formula_structural   Ti3Fe2P6WO24
_chemical_formula_sum   'Ti3 Fe2 P6 W1 O24'
_cell_volume   463.35855063
_cell_formula_units_Z   1
loop_
 _symmetry_equiv_pos_site_id
 _symmetry_equiv_pos_as_xyz
  1  'x, y, z'
loop_
 _atom_site_type_symbol
 _atom_site_label
 _atom_site_symmetry_multiplicity
 _atom_site_fract_x
 _atom_site_fract_y
 _atom_site_fract_z
 _atom_site_occupancy
  Ti  Ti0  1  0.64490500  0.64490500  0.64490500  1
  Ti  Ti1  1  0.85610400  0.85610400  0.85610400  1
  Ti  Ti2  1  0.35519000  0.35519000  0.35519000  1
  Fe  Fe0  1  0.99786800  0.99786800  0.99786800  1
  Fe  Fe1  1  0.50116000  0.50116000  0.50116000  1
  P  P0  1  0.95370800  0.25120700  0.54775000  1
  P  P1  1  0.54775000  0.95370800  0.25120700  1
  P  P2  1  0.25120700  0.54775000  0.95370800  1
  P  P3  1  0.74294500  0.46204800  0.04371400  1
  P  P4  1  0.46204800  0.04371400  0.74294500  1
  P  P5  1  0.04371400  0.74294500  0.46204800  1
  W  W0  1  0.13969900  0.13969900  0.13969900  1
  O  O0  1  0.49888600  0.11769800  0.31403900  1
  O  O1  1  0.31403900  0.49888600  0.11769800  1
  O  O2  1  0.11769800  0.31403900  0.49888600  1
  O  O3  1  0.94239300  0.09066500  0.74174500  1
  O  O4  1  0.98278100  0.18859400  0.39733500  1
  O  O5  1  0.75978800  0.41274000  0.56800000  1
  O  O6  1  0.74174500  0.94239300  0.09066500  1
  O  O7  1  0.56800000  0.75978800  0.41274000  1
  O  O8  1  0.81411300  0.61660200  0.99992000  1
  O  O9  1  0.41274000  0.56800000  0.75978800  1
  O  O10  1  0.89606300  0.26579400  0.05195800  1
  O  O11  1  0.61660200  0.99992000  0.81411300  1
  O  O12  1  0.39733500  0.98278100  0.18859400  1
  O  O13  1  0.09066500  0.74174500  0.94239300  1
  O  O14  1  0.58488400  0.44898900  0.23859900  1
  O  O15  1  0.18859400  0.39733500  0.98278100  1
  O  O16  1  0.44898900  0.23859900  0.58488400  1
  O  O17  1  0.26579400  0.05195800  0.89606300  1
  O  O18  1  0.23859900  0.58488400  0.44898900  1
  O  O19  1  0.99992000  0.81411300  0.61660200  1
  O  O20  1  0.05195800  0.89606300  0.26579400  1
  O  O21  1  0.88617600  0.67293000  0.51301200  1
  O  O22  1  0.67293000  0.51301200  0.88617600  1
  O  O23  1  0.51301200  0.88617600  0.67293000  1
loop_
_geom_bond_atom_site_label_1
_geom_bond_atom_site_label_2
_geom_bond_distance
_geom_bond_site_symmetry_2
Fe0 O3 2.165216 1_565
Fe0 O13 2.165216 1_655
Fe0 O6 2.165216 1_556
Fe0 O20 2.237931 1_656
Fe0 O10 2.237931 1_566
Fe0 O17 2.237931 1_665
Fe1 O14 2.222548 1_555
Fe1 O18 2.222548 1_555
Fe1 O16 2.222548 1_555
Fe1 O9 2.249737 1_555
Fe1 O5 2.249737 1_555
Fe1 O7 2.249737 1_555
O0 P1 1.554606 1_545
O0 Ti2 1.915820 1_555
O1 P2 1.554605 1_554
O1 Ti2 1.915820 1_555
O2 P0 1.554606 1_455
O2 Ti2 1.915820 1_555
O3 P0 1.564437 1_555
O3 Ti1 2.105222 1_545
O4 P0 1.507345 1_555
O4 W0 2.093199 1_655
O5 P0 1.567462 1_555
O5 Ti0 2.038826 1_555
O6 P1 1.564437 1_555
O6 Ti1 2.105221 1_554
O7 P1 1.567462 1_555
O7 Ti0 2.038826 1_555
O8 P3 1.542177 1_556
O8 Ti1 1.933379 1_555
O9 P2 1.567462 1_555
O9 Ti0 2.038826 1_555
O10 P3 1.554397 1_555
O10 W0 2.167367 1_655
O11 P4 1.542177 1_565
O11 Ti1 1.933379 1_555
O12 P1 1.507345 1_555
O12 W0 2.093200 1_565
O13 P2 1.564437 1_555
O13 Ti1 2.105222 1_455
O14 P3 1.560384 1_555
O14 Ti2 2.103124 1_555
O15 P2 1.507345 1_555
O15 W0 2.093200 1_556
O16 P4 1.560384 1_555
O16 Ti2 2.103124 1_555
O17 P4 1.554397 1_555
O17 W0 2.167366 1_556
O18 P5 1.560384 1_555
O18 Ti2 2.103124 1_555
O19 P5 1.542177 1_655
O19 Ti1 1.933379 1_555
O20 P5 1.554397 1_555
O20 W0 2.167367 1_565
O21 P5 1.537664 1_655
O21 Ti0 1.898591 1_555
O22 P3 1.537663 1_556
O22 Ti0 1.898591 1_555
O23 P4 1.537663 1_565
O23 Ti0 1.898591 1_555
