# generated using pymatgen
data_Na3MnO3
_symmetry_space_group_name_H-M   'P 1'
_cell_length_a   5.91026664
_cell_length_b   6.57870561
_cell_length_c   11.58665755
_cell_angle_alpha   90.54809921
_cell_angle_beta   89.38208795
_cell_angle_gamma   65.81208543
_symmetry_Int_Tables_number   1
_chemical_formula_structural   Na3MnO3
_chemical_formula_sum   'Na12 Mn4 O12'
_cell_volume   410.88717511
_cell_formula_units_Z   4
loop_
 _symmetry_equiv_pos_site_id
 _symmetry_equiv_pos_as_xyz
  1  'x, y, z'
loop_
 _atom_site_type_symbol
 _atom_site_label
 _atom_site_symmetry_multiplicity
 _atom_site_fract_x
 _atom_site_fract_y
 _atom_site_fract_z
 _atom_site_occupancy
  Na  Na0  1  0.76481400  0.44869800  0.03268300  1
  Na  Na1  1  0.76490600  0.44882700  0.53271200  1
  Na  Na2  1  0.23508800  0.55119500  0.46728900  1
  Na  Na3  1  0.23518900  0.55130400  0.96732100  1
  Na  Na4  1  0.77005000  0.98029900  0.06120200  1
  Na  Na5  1  0.77012400  0.98011900  0.56126400  1
  Na  Na6  1  0.22988500  0.01987800  0.43873700  1
  Na  Na7  1  0.22995200  0.01970100  0.93880800  1
  Na  Na8  1  0.24023700  0.77435900  0.22287900  1
  Na  Na9  1  0.24028000  0.77429800  0.72295100  1
  Na  Na10  1  0.75972200  0.22569400  0.27705100  1
  Na  Na11  1  0.75976600  0.22564500  0.77712400  1
  Mn  Mn0  1  0.19848000  0.31749800  0.69240600  1
  Mn  Mn1  1  0.80154500  0.68246500  0.30757100  1
  Mn  Mn2  1  0.19817400  0.31788500  0.19217000  1
  Mn  Mn3  1  0.80172800  0.68212700  0.80782900  1
  O  O0  1  0.10017100  0.10724800  0.12577800  1
  O  O1  1  0.10021100  0.10718100  0.62581900  1
  O  O2  1  0.89980700  0.89278800  0.37416700  1
  O  O3  1  0.89984400  0.89274900  0.87422500  1
  O  O4  1  0.47561500  0.32684400  0.11769400  1
  O  O5  1  0.47569400  0.32665500  0.61781400  1
  O  O6  1  0.52432400  0.67334900  0.38217700  1
  O  O7  1  0.52437600  0.67319200  0.88232500  1
  O  O8  1  0.94426700  0.64303700  0.15451300  1
  O  O9  1  0.94439100  0.64270100  0.65477000  1
  O  O10  1  0.05559900  0.35731000  0.34524500  1
  O  O11  1  0.05576100  0.35695400  0.84547400  1
loop_
_geom_bond_atom_site_label_1
_geom_bond_atom_site_label_2
_geom_bond_distance
_geom_bond_site_symmetry_2
Na0 O7 2.370325 1_554
Na0 O4 2.374021 1_555
Na0 O8 2.420958 1_555
Na0 O0 2.565519 1_655
Na0 O11 2.659011 1_654
Na1 O6 2.372228 1_555
Na1 O5 2.375851 1_555
Na1 O9 2.420478 1_555
Na1 O1 2.566178 1_655
Na1 O10 2.660675 1_655
Na2 O5 2.372237 1_555
Na2 O6 2.375944 1_555
Na2 O10 2.420449 1_555
Na2 O2 2.565998 1_455
Na2 O9 2.660822 1_455
Na3 O4 2.370344 1_556
Na3 O7 2.374031 1_555
Na3 O11 2.421026 1_555
Na3 O3 2.565476 1_455
Na3 O8 2.658775 1_456
Na4 O3 2.278569 1_554
Na4 O8 2.312954 1_555
Na4 O4 2.313026 1_565
Na4 O0 2.533567 1_665
Na5 O2 2.279585 1_555
Na5 O5 2.313154 1_565
Na5 O9 2.314861 1_555
Na5 O1 2.533789 1_665
Na6 O1 2.279389 1_555
Na6 O6 2.313172 1_545
Na6 O10 2.314861 1_555
Na6 O2 2.533911 1_445
Na7 O0 2.278473 1_556
Na7 O7 2.312816 1_545
Na7 O11 2.313027 1_555
Na7 O3 2.533534 1_445
Na8 O0 2.308399 1_565
Na8 O8 2.385154 1_455
Na8 O6 2.417322 1_555
Na8 O2 2.518182 1_455
Na9 O1 2.308547 1_565
Na9 O9 2.385203 1_455
Na9 O7 2.418034 1_555
Na9 O3 2.518091 1_455
Na10 O2 2.308574 1_545
Na10 O10 2.385274 1_655
Na10 O4 2.417919 1_555
Na10 O0 2.518135 1_655
Na11 O3 2.308435 1_545
Na11 O11 2.385166 1_655
Na11 O5 2.417378 1_555
Na11 O1 2.518370 1_655
Mn0 O5 1.867167 1_555
Mn0 O1 1.869415 1_555
Mn0 O11 1.924540 1_555
Mn0 O9 2.102771 1_455
Mn1 O6 1.867170 1_555
Mn1 O2 1.869466 1_555
Mn1 O8 1.924450 1_555
Mn1 O10 2.102578 1_655
Mn2 O4 1.867230 1_555
Mn2 O0 1.869339 1_555
Mn2 O10 1.924308 1_555
Mn2 O8 2.102260 1_455
Mn3 O7 1.866807 1_555
Mn3 O3 1.869686 1_555
Mn3 O9 1.924331 1_555
Mn3 O11 2.102552 1_655
