# generated using pymatgen
data_Mn2BeO4
_symmetry_space_group_name_H-M   'P 1'
_cell_length_a   4.63443500
_cell_length_b   5.95877700
_cell_length_c   10.12300200
_cell_angle_alpha   90.00000000
_cell_angle_beta   90.00000000
_cell_angle_gamma   90.00000000
_symmetry_Int_Tables_number   1
_chemical_formula_structural   Mn2BeO4
_chemical_formula_sum   'Mn8 Be4 O16'
_cell_volume   279.55241655
_cell_formula_units_Z   4
loop_
 _symmetry_equiv_pos_site_id
 _symmetry_equiv_pos_as_xyz
  1  'x, y, z'
loop_
 _atom_site_type_symbol
 _atom_site_label
 _atom_site_symmetry_multiplicity
 _atom_site_fract_x
 _atom_site_fract_y
 _atom_site_fract_z
 _atom_site_occupancy
  Mn  Mn0  1  0.50000000  0.00000000  0.50000000  1
  Mn  Mn1  1  0.50000000  0.50000000  0.50000000  1
  Mn  Mn2  1  0.98529200  0.75000000  0.72512000  1
  Mn  Mn3  1  0.48529200  0.25000000  0.77488000  1
  Mn  Mn4  1  0.00000000  0.00000000  0.00000000  1
  Mn  Mn5  1  0.00000000  0.50000000  0.00000000  1
  Mn  Mn6  1  0.51470800  0.75000000  0.22512000  1
  Mn  Mn7  1  0.01470800  0.25000000  0.27488000  1
  Be  Be0  1  0.92281300  0.25000000  0.58777500  1
  Be  Be1  1  0.42281300  0.75000000  0.91222500  1
  Be  Be2  1  0.57718700  0.25000000  0.08777500  1
  Be  Be3  1  0.07718700  0.75000000  0.41222500  1
  O  O0  1  0.24537600  0.75000000  0.56273700  1
  O  O1  1  0.26798100  0.25000000  0.58658400  1
  O  O2  1  0.75732900  0.02811800  0.65366800  1
  O  O3  1  0.75732900  0.47188200  0.65366800  1
  O  O4  1  0.25732900  0.52811800  0.84633200  1
  O  O5  1  0.25732900  0.97188200  0.84633200  1
  O  O6  1  0.76798100  0.75000000  0.91341600  1
  O  O7  1  0.74537600  0.25000000  0.93726300  1
  O  O8  1  0.25462400  0.75000000  0.06273700  1
  O  O9  1  0.23201900  0.25000000  0.08658400  1
  O  O10  1  0.74267100  0.02811800  0.15366800  1
  O  O11  1  0.74267100  0.47188200  0.15366800  1
  O  O12  1  0.24267100  0.52811800  0.34633200  1
  O  O13  1  0.24267100  0.97188200  0.34633200  1
  O  O14  1  0.73201900  0.75000000  0.41341600  1
  O  O15  1  0.75462400  0.25000000  0.43726300  1
loop_
_geom_bond_atom_site_label_1
_geom_bond_atom_site_label_2
_geom_bond_distance
_geom_bond_site_symmetry_2
Mn0 O2 1.967267 1_555
Mn0 O13 1.967267 1_545
Mn0 O0 2.003750 1_545
Mn0 O15 2.003750 1_555
Mn0 O14 2.035594 1_545
Mn0 O1 2.035594 1_555
Mn1 O3 1.967267 1_555
Mn1 O12 1.967267 1_555
Mn1 O0 2.003750 1_555
Mn1 O15 2.003750 1_555
Mn1 O14 2.035594 1_555
Mn1 O1 2.035594 1_555
Mn2 O0 2.038367 1_655
Mn2 O2 2.094225 1_565
Mn2 O3 2.094225 1_555
Mn2 O6 2.155823 1_555
Mn2 O5 2.200711 1_655
Mn2 O4 2.200711 1_655
Mn3 O7 2.038367 1_555
Mn3 O4 2.094225 1_555
Mn3 O5 2.094225 1_545
Mn3 O1 2.155823 1_555
Mn3 O3 2.200711 1_555
Mn3 O2 2.200711 1_555
Mn4 O10 1.967267 1_455
Mn4 O5 1.967267 1_544
Mn4 O8 2.003750 1_545
Mn4 O7 2.003750 1_454
Mn4 O9 2.035594 1_555
Mn4 O6 2.035594 1_444
Mn5 O4 1.967267 1_554
Mn5 O11 1.967267 1_455
Mn5 O8 2.003750 1_555
Mn5 O7 2.003750 1_454
Mn5 O9 2.035594 1_555
Mn5 O6 2.035594 1_454
Mn6 O8 2.038367 1_555
Mn6 O10 2.094225 1_565
Mn6 O11 2.094225 1_555
Mn6 O14 2.155823 1_555
Mn6 O13 2.200711 1_555
Mn6 O12 2.200711 1_555
Mn7 O15 2.038367 1_455
Mn7 O12 2.094225 1_555
Mn7 O13 2.094225 1_545
Mn7 O9 2.155823 1_555
Mn7 O11 2.200711 1_455
Mn7 O10 2.200711 1_455
Be0 O1 1.599704 1_655
Be0 O3 1.667686 1_555
Be0 O2 1.667686 1_555
Be0 O15 1.711437 1_555
Be1 O6 1.599704 1_555
Be1 O5 1.667686 1_555
Be1 O4 1.667686 1_555
Be1 O8 1.711437 1_556
Be2 O9 1.599704 1_555
Be2 O11 1.667686 1_555
Be2 O10 1.667686 1_555
Be2 O7 1.711437 1_554
Be3 O14 1.599704 1_455
Be3 O13 1.667686 1_555
Be3 O12 1.667686 1_555
Be3 O0 1.711437 1_555
