# generated using pymatgen
data_Ba4HfO6
_symmetry_space_group_name_H-M   'P 1'
_cell_length_a   7.47476658
_cell_length_b   7.47476658
_cell_length_c   7.47476726
_cell_angle_alpha   89.51861194
_cell_angle_beta   89.51861194
_cell_angle_gamma   89.51861483
_symmetry_Int_Tables_number   1
_chemical_formula_structural   Ba4HfO6
_chemical_formula_sum   'Ba8 Hf2 O12'
_cell_volume   417.58723400
_cell_formula_units_Z   2
loop_
 _symmetry_equiv_pos_site_id
 _symmetry_equiv_pos_as_xyz
  1  'x, y, z'
loop_
 _atom_site_type_symbol
 _atom_site_label
 _atom_site_symmetry_multiplicity
 _atom_site_fract_x
 _atom_site_fract_y
 _atom_site_fract_z
 _atom_site_occupancy
  Ba  Ba0  1  0.75000000  0.11436300  0.38563700  1
  Ba  Ba1  1  0.61436300  0.25000000  0.88563700  1
  Ba  Ba2  1  0.88563700  0.61436300  0.25000000  1
  Ba  Ba3  1  0.25000000  0.25000000  0.25000000  1
  Ba  Ba4  1  0.75000000  0.75000000  0.75000000  1
  Ba  Ba5  1  0.11436300  0.38563700  0.75000000  1
  Ba  Ba6  1  0.38563700  0.75000000  0.11436300  1
  Ba  Ba7  1  0.25000000  0.88563700  0.61436300  1
  Hf  Hf0  1  0.50000000  0.50000000  0.50000000  1
  Hf  Hf1  1  0.00000000  0.00000000  0.00000000  1
  O  O0  1  0.92673700  0.05759300  0.72997300  1
  O  O1  1  0.94240700  0.27002700  0.07326300  1
  O  O2  1  0.77002700  0.44240700  0.57326300  1
  O  O3  1  0.27002700  0.07326300  0.94240700  1
  O  O4  1  0.42673700  0.22997300  0.55759300  1
  O  O5  1  0.55759300  0.42673700  0.22997300  1
  O  O6  1  0.44240700  0.57326300  0.77002700  1
  O  O7  1  0.57326300  0.77002700  0.44240700  1
  O  O8  1  0.72997300  0.92673700  0.05759300  1
  O  O9  1  0.22997300  0.55759300  0.42673700  1
  O  O10  1  0.05759300  0.72997300  0.92673700  1
  O  O11  1  0.07326300  0.94240700  0.27002700  1
loop_
_geom_bond_atom_site_label_1
_geom_bond_atom_site_label_2
_geom_bond_distance
_geom_bond_site_symmetry_2
Ba0 O2 2.840660 1_555
Ba0 O8 2.840660 1_545
Ba0 O11 2.858114 1_645
Ba0 O4 2.858114 1_555
Ba0 O7 2.929037 1_545
Ba0 O0 2.929037 1_555
Ba0 O5 2.966508 1_555
Ba0 O1 2.966508 1_555
Ba1 O1 2.840660 1_556
Ba1 O4 2.840660 1_555
Ba1 O6 2.858114 1_555
Ba1 O8 2.858114 1_546
Ba1 O3 2.929037 1_555
Ba1 O5 2.929037 1_556
Ba1 O0 2.966508 1_555
Ba1 O2 2.966508 1_555
Ba2 O11 2.840659 1_655
Ba2 O5 2.840659 1_555
Ba2 O2 2.858114 1_555
Ba2 O10 2.858114 1_654
Ba2 O9 2.929037 1_655
Ba2 O1 2.929037 1_555
Ba2 O8 2.966508 1_555
Ba2 O7 2.966508 1_555
Ba3 O11 2.663797 1_545
Ba3 O5 2.663797 1_555
Ba3 O1 2.663798 1_455
Ba3 O9 2.663798 1_555
Ba3 O3 2.663798 1_554
Ba3 O4 2.663798 1_555
Ba4 O0 2.663797 1_565
Ba4 O6 2.663797 1_555
Ba4 O10 2.663798 1_655
Ba4 O2 2.663798 1_555
Ba4 O8 2.663798 1_556
Ba4 O7 2.663798 1_555
Ba5 O0 2.840659 1_455
Ba5 O6 2.840659 1_555
Ba5 O1 2.858114 1_456
Ba5 O9 2.858114 1_555
Ba5 O2 2.929037 1_455
Ba5 O10 2.929037 1_555
Ba5 O3 2.966508 1_555
Ba5 O4 2.966508 1_555
Ba6 O10 2.840660 1_554
Ba6 O7 2.840660 1_555
Ba6 O5 2.858114 1_555
Ba6 O3 2.858114 1_564
Ba6 O8 2.929037 1_555
Ba6 O6 2.929037 1_554
Ba6 O11 2.966508 1_555
Ba6 O9 2.966508 1_555
Ba7 O9 2.840660 1_555
Ba7 O3 2.840660 1_565
Ba7 O0 2.858114 1_465
Ba7 O7 2.858114 1_555
Ba7 O4 2.929037 1_565
Ba7 O11 2.929037 1_555
Ba7 O6 2.966508 1_555
Ba7 O10 2.966508 1_555
Hf0 O7 2.135210 1_555
Hf0 O4 2.135210 1_555
Hf0 O2 2.135210 1_555
Hf0 O9 2.135210 1_555
Hf0 O6 2.135210 1_555
Hf0 O5 2.135210 1_555
Hf1 O3 2.135210 1_554
Hf1 O8 2.135210 1_445
Hf1 O1 2.135210 1_455
Hf1 O10 2.135210 1_544
Hf1 O11 2.135210 1_545
Hf1 O0 2.135210 1_454
