# generated using pymatgen
data_YbSb2
_symmetry_space_group_name_H-M   'P 1'
_cell_length_a   4.34302000
_cell_length_b   4.59649200
_cell_length_c   8.74575278
_cell_angle_alpha   74.76466653
_cell_angle_beta   90.00000000
_cell_angle_gamma   90.00000000
_symmetry_Int_Tables_number   1
_chemical_formula_structural   YbSb2
_chemical_formula_sum   'Yb2 Sb4'
_cell_volume   168.45248292
_cell_formula_units_Z   2
loop_
 _symmetry_equiv_pos_site_id
 _symmetry_equiv_pos_as_xyz
  1  'x, y, z'
loop_
 _atom_site_type_symbol
 _atom_site_label
 _atom_site_symmetry_multiplicity
 _atom_site_fract_x
 _atom_site_fract_y
 _atom_site_fract_z
 _atom_site_occupancy
  Yb  Yb0  1  0.75000000  0.89777600  0.20444800  1
  Yb  Yb1  1  0.25000000  0.10222400  0.79555200  1
  Sb  Sb0  1  0.75000000  0.56172000  0.87656000  1
  Sb  Sb1  1  0.25000000  0.43828000  0.12344000  1
  Sb  Sb2  1  0.75000000  0.25670900  0.48658200  1
  Sb  Sb3  1  0.25000000  0.74329100  0.51341800  1
loop_
_geom_bond_atom_site_label_1
_geom_bond_atom_site_label_2
_geom_bond_distance
_geom_bond_site_symmetry_2
Sb0 Sb1 3.009229 1_656
Sb0 Sb1 3.009229 1_556
Sb0 Yb1 3.234914 1_665
Sb0 Yb1 3.234914 1_555
Sb0 Yb1 3.234914 1_565
Sb0 Yb1 3.234914 1_655
Sb0 Yb0 3.596854 1_556
Sb0 Yb0 3.596854 1_546
Sb1 Yb0 3.234914 1_455
Sb1 Yb0 3.234914 1_545
Sb1 Yb0 3.234914 1_555
Sb1 Yb0 3.234914 1_445
Sb1 Yb1 3.596854 1_554
Sb1 Yb1 3.596854 1_564
Sb2 Sb3 3.169964 1_545
Sb2 Sb3 3.169964 1_645
Sb2 Sb3 3.169964 1_655
Sb2 Sb3 3.169964 1_555
Sb2 Yb0 3.309067 1_545
Sb2 Yb0 3.309067 1_555
Sb2 Yb1 3.393078 1_655
Sb2 Yb1 3.393078 1_555
Sb3 Yb1 3.309067 1_565
Sb3 Yb1 3.309067 1_555
Sb3 Yb0 3.393078 1_555
Sb3 Yb0 3.393078 1_455
