# generated using pymatgen
data_CaLaI5
_symmetry_space_group_name_H-M   'P 1'
_cell_length_a   4.47663400
_cell_length_b   15.54323300
_cell_length_c   19.00277400
_cell_angle_alpha   90.00000000
_cell_angle_beta   90.00000000
_cell_angle_gamma   90.00000000
_symmetry_Int_Tables_number   1
_chemical_formula_structural   CaLaI5
_chemical_formula_sum   'Ca4 La4 I20'
_cell_volume   1322.23895974
_cell_formula_units_Z   4
loop_
 _symmetry_equiv_pos_site_id
 _symmetry_equiv_pos_as_xyz
  1  'x, y, z'
loop_
 _atom_site_type_symbol
 _atom_site_label
 _atom_site_symmetry_multiplicity
 _atom_site_fract_x
 _atom_site_fract_y
 _atom_site_fract_z
 _atom_site_occupancy
  Ca  Ca0  1  0.75000000  0.74622000  0.15567000  1
  Ca  Ca1  1  0.25000000  0.24622000  0.34433000  1
  Ca  Ca2  1  0.75000000  0.75378000  0.65567000  1
  Ca  Ca3  1  0.25000000  0.25378000  0.84433000  1
  La  La0  1  0.75000000  0.23909900  0.09327600  1
  La  La1  1  0.25000000  0.73909900  0.40672400  1
  La  La2  1  0.75000000  0.26090100  0.59327600  1
  La  La3  1  0.25000000  0.76090100  0.90672400  1
  I  I0  1  0.25000000  0.36142200  0.03140900  1
  I  I1  1  0.25000000  0.85741900  0.05525300  1
  I  I2  1  0.25000000  0.61068100  0.15383000  1
  I  I3  1  0.25000000  0.11777200  0.15674700  1
  I  I4  1  0.75000000  0.34433100  0.23788000  1
  I  I5  1  0.25000000  0.84433100  0.26212000  1
  I  I6  1  0.75000000  0.61777200  0.34325300  1
  I  I7  1  0.75000000  0.11068100  0.34617000  1
  I  I8  1  0.75000000  0.35741900  0.44474700  1
  I  I9  1  0.75000000  0.86142200  0.46859100  1
  I  I10  1  0.25000000  0.13857800  0.53140900  1
  I  I11  1  0.25000000  0.64258100  0.55525300  1
  I  I12  1  0.25000000  0.88931900  0.65383000  1
  I  I13  1  0.25000000  0.38222800  0.65674700  1
  I  I14  1  0.75000000  0.15566900  0.73788000  1
  I  I15  1  0.25000000  0.65566900  0.76212000  1
  I  I16  1  0.75000000  0.88222800  0.84325300  1
  I  I17  1  0.75000000  0.38931900  0.84617000  1
  I  I18  1  0.75000000  0.14258100  0.94474700  1
  I  I19  1  0.75000000  0.63857800  0.96859100  1
loop_
_geom_bond_atom_site_label_1
_geom_bond_atom_site_label_2
_geom_bond_distance
_geom_bond_site_symmetry_2
Ca0 I2 3.074009 1_655
Ca0 I2 3.074009 1_555
Ca0 I5 3.380455 1_655
Ca0 I5 3.380455 1_555
Ca0 I1 3.411544 1_655
Ca0 I1 3.411544 1_555
Ca1 I7 3.074009 1_555
Ca1 I7 3.074009 1_455
Ca1 I4 3.380455 1_455
Ca1 I4 3.380455 1_555
Ca1 I8 3.411544 1_455
Ca1 I8 3.411544 1_555
Ca2 I12 3.074009 1_555
Ca2 I12 3.074009 1_655
Ca2 I15 3.380455 1_555
Ca2 I15 3.380455 1_655
Ca2 I11 3.411544 1_655
Ca2 I11 3.411544 1_555
Ca3 I17 3.074009 1_455
Ca3 I17 3.074009 1_555
Ca3 I14 3.380455 1_455
Ca3 I14 3.380455 1_555
Ca3 I18 3.411544 1_455
Ca3 I18 3.411544 1_555
I0 La0 3.163404 1_555
I0 La0 3.163404 1_455
I1 La3 3.196389 1_554
I3 La0 3.165611 1_455
I3 La0 3.165611 1_555
I4 La0 3.197838 1_555
I5 La1 3.197838 1_555
I6 La1 3.165611 1_555
I6 La1 3.165611 1_655
I8 La2 3.196389 1_555
I9 La1 3.163404 1_655
I9 La1 3.163404 1_555
I10 La2 3.163404 1_455
I10 La2 3.163404 1_555
I11 La1 3.196389 1_555
I13 La2 3.165611 1_555
I13 La2 3.165611 1_455
I14 La2 3.197838 1_555
I15 La3 3.197838 1_555
I16 La3 3.165611 1_555
I16 La3 3.165611 1_655
I18 La0 3.196389 1_556
I19 La3 3.163404 1_555
I19 La3 3.163404 1_655
