# generated using pymatgen
data_LiCo6O7
_symmetry_space_group_name_H-M   'P 1'
_cell_length_a   5.20249328
_cell_length_b   5.20249328
_cell_length_c   5.20249331
_cell_angle_alpha   99.27298119
_cell_angle_beta   99.27298119
_cell_angle_gamma   99.27299532
_symmetry_Int_Tables_number   1
_chemical_formula_structural   LiCo6O7
_chemical_formula_sum   'Li1 Co6 O7'
_cell_volume   134.59989467
_cell_formula_units_Z   1
loop_
 _symmetry_equiv_pos_site_id
 _symmetry_equiv_pos_as_xyz
  1  'x, y, z'
loop_
 _atom_site_type_symbol
 _atom_site_label
 _atom_site_symmetry_multiplicity
 _atom_site_fract_x
 _atom_site_fract_y
 _atom_site_fract_z
 _atom_site_occupancy
  Li  Li0  1  0.00000000  0.00000000  0.00000000  1
  Co  Co0  1  0.28287400  0.14029500  0.57063200  1
  Co  Co1  1  0.14029500  0.57063200  0.28287400  1
  Co  Co2  1  0.42936800  0.71712600  0.85970500  1
  Co  Co3  1  0.57063200  0.28287400  0.14029500  1
  Co  Co4  1  0.71712600  0.85970500  0.42936800  1
  Co  Co5  1  0.85970500  0.42936800  0.71712600  1
  O  O0  1  0.07139400  0.77948000  0.63359600  1
  O  O1  1  0.50000000  0.50000000  0.50000000  1
  O  O2  1  0.22052000  0.36640400  0.92860600  1
  O  O3  1  0.92860600  0.22052000  0.36640400  1
  O  O4  1  0.36640400  0.92860600  0.22052000  1
  O  O5  1  0.63359600  0.07139400  0.77948000  1
  O  O6  1  0.77948000  0.63359600  0.07139400  1
loop_
_geom_bond_atom_site_label_1
_geom_bond_atom_site_label_2
_geom_bond_distance
_geom_bond_site_symmetry_2
Li0 O2 2.179109 1_554
Li0 O6 2.179109 1_445
Li0 O3 2.179110 1_455
Li0 O0 2.179110 1_544
Li0 O4 2.179110 1_545
Li0 O5 2.179110 1_454
Co0 O5 2.082233 1_555
Co0 O3 2.111812 1_455
Co0 O4 2.117140 1_545
Co0 O0 2.119001 1_545
Co0 O2 2.137525 1_555
Co0 O1 2.141762 1_555
Co1 O0 2.082233 1_555
Co1 O2 2.111812 1_554
Co1 O3 2.117139 1_455
Co1 O6 2.119001 1_455
Co1 O4 2.137525 1_555
Co1 O1 2.141763 1_555
Co2 O2 2.082233 1_555
Co2 O5 2.111811 1_565
Co2 O6 2.117140 1_556
Co2 O4 2.119001 1_556
Co2 O0 2.137525 1_555
Co2 O1 2.141763 1_555
Co3 O6 2.082233 1_555
Co3 O4 2.111811 1_545
Co3 O2 2.117140 1_554
Co3 O5 2.119001 1_554
Co3 O3 2.137525 1_555
Co3 O1 2.141763 1_555
Co4 O4 2.082233 1_555
Co4 O0 2.111812 1_655
Co4 O5 2.117140 1_565
Co4 O3 2.119001 1_565
Co4 O6 2.137525 1_555
Co4 O1 2.141762 1_555
Co5 O3 2.082233 1_555
Co5 O6 2.111812 1_556
Co5 O0 2.117139 1_655
Co5 O2 2.119001 1_655
Co5 O5 2.137525 1_555
Co5 O1 2.141763 1_555
