# generated using pymatgen
data_Li10Ti2Fe3Ni3O16
_symmetry_space_group_name_H-M   'P 1'
_cell_length_a   5.95613800
_cell_length_b   5.97404066
_cell_length_c   9.82747873
_cell_angle_alpha   89.74338575
_cell_angle_beta   89.49040809
_cell_angle_gamma   60.32075799
_symmetry_Int_Tables_number   1
_chemical_formula_structural   Li10Ti2Fe3Ni3O16
_chemical_formula_sum   'Li10 Ti2 Fe3 Ni3 O16'
_cell_volume   303.79676852
_cell_formula_units_Z   1
loop_
 _symmetry_equiv_pos_site_id
 _symmetry_equiv_pos_as_xyz
  1  'x, y, z'
loop_
 _atom_site_type_symbol
 _atom_site_label
 _atom_site_symmetry_multiplicity
 _atom_site_fract_x
 _atom_site_fract_y
 _atom_site_fract_z
 _atom_site_occupancy
  Li  Li0  1  0.19517700  0.61310600  0.95782200  1
  Li  Li1  1  0.19332800  0.19715900  0.95894100  1
  Li  Li2  1  0.33062500  0.33585900  0.74737100  1
  Li  Li3  1  0.60509500  0.19994700  0.96142900  1
  Li  Li4  1  0.38108200  0.80856200  0.45816100  1
  Li  Li5  1  0.00098800  0.00042800  0.02683300  1
  Li  Li6  1  0.65974300  0.67305700  0.24787200  1
  Li  Li7  1  0.79683100  0.80918500  0.46497100  1
  Li  Li8  1  0.99303900  0.00188200  0.53012500  1
  Li  Li9  1  0.79552100  0.40090600  0.46470600  1
  Ti  Ti0  1  0.34035500  0.32137600  0.48645800  1
  Ti  Ti1  1  0.67746800  0.65595600  0.98528200  1
  Fe  Fe0  1  0.16848400  0.65743500  0.22920800  1
  Fe  Fe1  1  0.16642400  0.16803800  0.22692800  1
  Fe  Fe2  1  0.34340600  0.82666500  0.72853500  1
  Ni  Ni0  1  0.66031600  0.16879600  0.22678100  1
  Ni  Ni1  1  0.83183200  0.83010700  0.72786600  1
  Ni  Ni2  1  0.83146400  0.33869900  0.72712900  1
  O  O0  1  0.17633200  0.65963900  0.60039700  1
  O  O1  1  0.01454100  0.50214600  0.35821700  1
  O  O2  1  0.01012800  0.99584500  0.83509300  1
  O  O3  1  0.48373800  0.49431300  0.35353400  1
  O  O4  1  0.17213000  0.16975400  0.59714300  1
  O  O5  1  0.32699000  0.34002400  0.10918400  1
  O  O6  1  0.00347300  0.99114900  0.33581300  1
  O  O7  1  0.49210000  0.02366100  0.36237400  1
  O  O8  1  0.50602300  0.98013800  0.85552900  1
  O  O9  1  0.65005800  0.17797700  0.59513400  1
  O  O10  1  0.34519600  0.81580900  0.09672800  1
  O  O11  1  0.50735300  0.51360200  0.85388400  1
  O  O12  1  0.65751600  0.67226200  0.60942100  1
  O  O13  1  0.83321500  0.82444500  0.09896200  1
  O  O14  1  0.97778700  0.51195600  0.85811400  1
  O  O15  1  0.82045200  0.34645900  0.09028100  1
loop_
_geom_bond_atom_site_label_1
_geom_bond_atom_site_label_2
_geom_bond_distance
_geom_bond_site_symmetry_2
Li0 O11 1.931595 1_555
Li0 O14 1.950518 1_455
Li0 O5 2.054555 1_556
Li0 O10 2.288303 1_556
Li0 O2 2.323979 1_555
Li0 O13 2.330843 1_456
Li1 O8 1.941489 1_545
Li1 O14 1.944665 1_455
Li1 O5 2.060913 1_556
Li1 O15 2.321988 1_456
Li1 O2 2.335526 1_545
Li1 O10 2.407367 1_546
Li2 O11 2.113675 1_555
Li2 O14 2.118463 1_455
Li2 O8 2.130308 1_545
Li2 O0 2.215960 1_555
Li2 O9 2.220971 1_555
Li2 O4 2.240780 1_555
Li3 O11 1.969765 1_555
Li3 O8 1.986502 1_545
Li3 O5 2.036649 1_556
Li3 O15 2.272777 1_556
Li3 O13 2.385859 1_546
Li3 O2 2.428040 1_645
Li4 O7 1.947859 1_565
Li4 O3 1.955727 1_555
Li4 O12 2.070908 1_555
Li4 O0 2.294694 1_555
Li4 O6 2.302353 1_555
Li4 O4 2.325341 1_565
Li5 O2 1.884553 1_544
Li5 O15 1.901772 1_455
Li5 O13 1.904576 1_445
Li5 O10 1.915840 1_545
Li6 O3 2.096831 1_555
Li6 O1 2.139699 1_655
Li6 O7 2.140165 1_565
Li6 O10 2.213478 1_555
Li6 O13 2.216681 1_555
Li6 O15 2.296265 1_555
Li7 O7 1.915883 1_565
Li7 O1 1.945320 1_655
Li7 O12 2.003406 1_555
Li7 O9 2.313557 1_565
Li7 O6 2.364837 1_655
Li7 O0 2.392017 1_655
Li8 O9 1.882200 1_555
Li8 O0 1.907720 1_645
Li8 O6 1.910386 1_645
Li8 O4 1.911843 1_655
Li9 O1 1.978414 1_655
Li9 O3 1.989473 1_555
Li9 O12 2.001622 1_555
Li9 O9 2.296707 1_555
Li9 O4 2.366617 1_655
Li9 O6 2.475524 1_645
Fe0 O6 2.024377 1_555
Fe0 O5 2.026249 1_555
Fe0 O1 2.029751 1_555
Fe0 O3 2.046049 1_555
Fe0 O10 2.156101 1_555
Fe0 O13 2.163905 1_455
Fe1 O6 2.047143 1_545
Fe1 O5 2.062023 1_555
Fe1 O7 2.158070 1_555
Fe1 O1 2.163611 1_555
Fe1 O10 2.231560 1_545
Fe1 O15 2.246575 1_455
Fe2 O12 1.995765 1_555
Fe2 O2 2.011034 1_555
Fe2 O11 2.039872 1_555
Fe2 O8 2.060944 1_555
Fe2 O0 2.142083 1_555
Fe2 O4 2.199572 1_565
Ni0 O6 2.081498 1_645
Ni0 O5 2.083898 1_555
Ni0 O7 2.087445 1_555
Ni0 O3 2.100593 1_555
Ni0 O13 2.184616 1_545
Ni0 O15 2.191503 1_555
Ni1 O2 2.071000 1_655
Ni1 O12 2.079172 1_555
Ni1 O14 2.090066 1_555
Ni1 O8 2.094638 1_555
Ni1 O0 2.170944 1_655
Ni1 O9 2.228286 1_565
Ni2 O2 2.072572 1_645
Ni2 O12 2.082935 1_555
Ni2 O11 2.083631 1_555
Ni2 O14 2.100732 1_555
Ni2 O4 2.169100 1_655
Ni2 O9 2.198967 1_555
O0 Ti0 2.082695 1_555
O1 Ti0 2.115758 1_555
O3 Ti0 2.084451 1_555
O4 Ti0 1.969309 1_555
O7 Ti0 1.968533 1_555
O8 Ti1 2.112361 1_555
O9 Ti0 1.933690 1_555
O10 Ti1 2.031601 1_554
O11 Ti1 2.074552 1_555
O13 Ti1 2.018659 1_554
O14 Ti1 1.986838 1_555
O15 Ti1 1.909938 1_554
