# generated using pymatgen
data_Li5CoO4
_symmetry_space_group_name_H-M   'P 1'
_cell_length_a   5.08305200
_cell_length_b   9.72075700
_cell_length_c   16.13645100
_cell_angle_alpha   90.00000000
_cell_angle_beta   90.00000000
_cell_angle_gamma   90.00000000
_symmetry_Int_Tables_number   1
_chemical_formula_structural   Li5CoO4
_chemical_formula_sum   'Li40 Co8 O32'
_cell_volume   797.32000879
_cell_formula_units_Z   8
loop_
 _symmetry_equiv_pos_site_id
 _symmetry_equiv_pos_as_xyz
  1  'x, y, z'
loop_
 _atom_site_type_symbol
 _atom_site_label
 _atom_site_symmetry_multiplicity
 _atom_site_fract_x
 _atom_site_fract_y
 _atom_site_fract_z
 _atom_site_occupancy
  Li  Li0  1  0.91886800  0.94037500  0.42969600  1
  Li  Li1  1  0.58113200  0.94037500  0.92969600  1
  Li  Li2  1  0.03032200  0.95631100  0.27284200  1
  Li  Li3  1  0.46967800  0.95631100  0.77284200  1
  Li  Li4  1  0.39886200  0.80406300  0.48143800  1
  Li  Li5  1  0.10113800  0.80406300  0.98143800  1
  Li  Li6  1  0.59536800  0.81446200  0.32128000  1
  Li  Li7  1  0.90463200  0.81446200  0.82128000  1
  Li  Li8  1  0.39523600  0.80883200  0.16581600  1
  Li  Li9  1  0.10476400  0.80883200  0.66581600  1
  Li  Li10  1  0.89523600  0.69116800  0.16581600  1
  Li  Li11  1  0.60476400  0.69116800  0.66581600  1
  Li  Li12  1  0.40463200  0.68553800  0.82128000  1
  Li  Li13  1  0.09536800  0.68553800  0.32128000  1
  Li  Li14  1  0.89886200  0.69593700  0.48143800  1
  Li  Li15  1  0.60113800  0.69593700  0.98143800  1
  Li  Li16  1  0.53032200  0.54368900  0.27284200  1
  Li  Li17  1  0.96967800  0.54368900  0.77284200  1
  Li  Li18  1  0.08113200  0.55962500  0.92969600  1
  Li  Li19  1  0.41886800  0.55962500  0.42969600  1
  Li  Li20  1  0.91886800  0.44037500  0.07030400  1
  Li  Li21  1  0.58113200  0.44037500  0.57030400  1
  Li  Li22  1  0.46967800  0.45631100  0.72715800  1
  Li  Li23  1  0.03032200  0.45631100  0.22715800  1
  Li  Li24  1  0.39886200  0.30406300  0.01856200  1
  Li  Li25  1  0.10113800  0.30406300  0.51856200  1
  Li  Li26  1  0.59536800  0.31446200  0.17872000  1
  Li  Li27  1  0.90463200  0.31446200  0.67872000  1
  Li  Li28  1  0.10476400  0.30883200  0.83418400  1
  Li  Li29  1  0.39523600  0.30883200  0.33418400  1
  Li  Li30  1  0.89523600  0.19116800  0.33418400  1
  Li  Li31  1  0.60476400  0.19116800  0.83418400  1
  Li  Li32  1  0.40463200  0.18553800  0.67872000  1
  Li  Li33  1  0.09536800  0.18553800  0.17872000  1
  Li  Li34  1  0.60113800  0.19593700  0.51856200  1
  Li  Li35  1  0.89886200  0.19593700  0.01856200  1
  Li  Li36  1  0.96967800  0.04368900  0.72715800  1
  Li  Li37  1  0.53032200  0.04368900  0.22715800  1
  Li  Li38  1  0.08113200  0.05962500  0.57030400  1
  Li  Li39  1  0.41886800  0.05962500  0.07030400  1
  Co  Co0  1  0.87529600  0.95289800  0.11594100  1
  Co  Co1  1  0.62470400  0.95289800  0.61594100  1
  Co  Co2  1  0.37529600  0.54710200  0.11594100  1
  Co  Co3  1  0.12470400  0.54710200  0.61594100  1
  Co  Co4  1  0.87529600  0.45289800  0.38405900  1
  Co  Co5  1  0.62470400  0.45289800  0.88405900  1
  Co  Co6  1  0.37529600  0.04710200  0.38405900  1
  Co  Co7  1  0.12470400  0.04710200  0.88405900  1
  O  O0  1  0.21193100  0.97774000  0.15165600  1
  O  O1  1  0.28806900  0.97774000  0.65165600  1
  O  O2  1  0.73189300  0.85354000  0.20859300  1
  O  O3  1  0.76810700  0.85354000  0.70859300  1
  O  O4  1  0.75319800  0.86568500  0.02363900  1
  O  O5  1  0.74680200  0.86568500  0.52363900  1
  O  O6  1  0.26861500  0.86109000  0.87510300  1
  O  O7  1  0.23138500  0.86109000  0.37510300  1
  O  O8  1  0.73138500  0.63891000  0.37510300  1
  O  O9  1  0.76861500  0.63891000  0.87510300  1
  O  O10  1  0.25319800  0.63431500  0.02363900  1
  O  O11  1  0.24680200  0.63431500  0.52363900  1
  O  O12  1  0.23189300  0.64646000  0.20859300  1
  O  O13  1  0.26810700  0.64646000  0.70859300  1
  O  O14  1  0.71193100  0.52226000  0.15165600  1
  O  O15  1  0.78806900  0.52226000  0.65165600  1
  O  O16  1  0.21193100  0.47774000  0.34834400  1
  O  O17  1  0.28806900  0.47774000  0.84834400  1
  O  O18  1  0.76810700  0.35354000  0.79140700  1
  O  O19  1  0.73189300  0.35354000  0.29140700  1
  O  O20  1  0.74680200  0.36568500  0.97636100  1
  O  O21  1  0.75319800  0.36568500  0.47636100  1
  O  O22  1  0.26861500  0.36109000  0.62489700  1
  O  O23  1  0.23138500  0.36109000  0.12489700  1
  O  O24  1  0.76861500  0.13891000  0.62489700  1
  O  O25  1  0.73138500  0.13891000  0.12489700  1
  O  O26  1  0.25319800  0.13431500  0.47636100  1
  O  O27  1  0.24680200  0.13431500  0.97636100  1
  O  O28  1  0.26810700  0.14646000  0.79140700  1
  O  O29  1  0.23189300  0.14646000  0.29140700  1
  O  O30  1  0.78806900  0.02226000  0.84834400  1
  O  O31  1  0.71193100  0.02226000  0.34834400  1
loop_
_geom_bond_atom_site_label_1
_geom_bond_atom_site_label_2
_geom_bond_distance
_geom_bond_site_symmetry_2
Li0 O31 1.860992 1_565
Li0 O5 1.894749 1_555
Li0 O7 1.973197 1_655
Li1 O30 1.860992 1_565
Li1 O4 1.894749 1_556
Li1 O6 1.973197 1_555
Li2 O2 2.091400 1_455
Li2 O31 2.124742 1_465
Li2 O29 2.134501 1_565
Li2 O7 2.150398 1_555
Li2 O0 2.172460 1_555
Li3 O3 2.091400 1_555
Li3 O30 2.124742 1_565
Li3 O28 2.134501 1_565
Li3 O6 2.150398 1_555
Li3 O1 2.172460 1_555
Li4 O11 1.945226 1_555
Li4 O5 1.987581 1_555
Li4 O7 1.994043 1_555
Li5 O10 1.945226 1_556
Li5 O4 1.987581 1_456
Li5 O6 1.994043 1_555
Li6 O2 1.983015 1_555
Li6 O8 2.035794 1_555
Li6 O7 2.093512 1_555
Li6 O31 2.149881 1_565
Li7 O3 1.983015 1_555
Li7 O9 2.035794 1_555
Li7 O6 2.093512 1_655
Li7 O30 2.149881 1_565
Li8 O2 1.895707 1_555
Li8 O0 1.901643 1_555
Li8 O12 1.912359 1_555
Li9 O3 1.895707 1_455
Li9 O1 1.901643 1_555
Li9 O13 1.912359 1_555
Li10 O12 1.895707 1_655
Li10 O14 1.901643 1_555
Li10 O2 1.912359 1_555
Li11 O13 1.895707 1_555
Li11 O15 1.901643 1_555
Li11 O3 1.912359 1_555
Li12 O13 1.983015 1_555
Li12 O6 2.035794 1_555
Li12 O9 2.093512 1_555
Li12 O17 2.149881 1_555
Li13 O12 1.983015 1_555
Li13 O7 2.035794 1_555
Li13 O8 2.093512 1_455
Li13 O16 2.149881 1_555
Li14 O5 1.945226 1_555
Li14 O11 1.987581 1_655
Li14 O8 1.994043 1_555
Li15 O4 1.945226 1_556
Li15 O10 1.987581 1_556
Li15 O9 1.994043 1_555
Li16 O12 2.091400 1_555
Li16 O16 2.124742 1_555
Li16 O19 2.134501 1_555
Li16 O8 2.150398 1_555
Li16 O14 2.172460 1_555
Li17 O13 2.091400 1_655
Li17 O17 2.124742 1_655
Li17 O18 2.134501 1_555
Li17 O9 2.150398 1_555
Li17 O15 2.172460 1_555
Li18 O17 1.860992 1_555
Li18 O10 1.894749 1_556
Li18 O9 1.973197 1_455
Li19 O16 1.860992 1_555
Li19 O11 1.894749 1_555
Li19 O8 1.973197 1_555
Li20 O14 1.860992 1_555
Li20 O20 1.894749 1_554
Li20 O23 1.973197 1_655
Li21 O15 1.860992 1_555
Li21 O21 1.894749 1_555
Li21 O22 1.973197 1_555
Li22 O18 2.091400 1_555
Li22 O15 2.124742 1_555
Li22 O13 2.134501 1_555
Li22 O22 2.150398 1_555
Li22 O17 2.172460 1_555
Li23 O19 2.091400 1_455
Li23 O14 2.124742 1_455
Li23 O12 2.134501 1_555
Li23 O23 2.150398 1_555
Li23 O16 2.172460 1_555
Li24 O27 1.945226 1_554
Li24 O20 1.987581 1_554
Li24 O23 1.994043 1_555
Li25 O26 1.945226 1_555
Li25 O21 1.987581 1_455
Li25 O22 1.994043 1_555
Li26 O19 1.983015 1_555
Li26 O25 2.035794 1_555
Li26 O23 2.093512 1_555
Li26 O14 2.149881 1_555
Li27 O18 1.983015 1_555
Li27 O24 2.035794 1_555
Li27 O22 2.093512 1_655
Li27 O15 2.149881 1_555
Li28 O18 1.895707 1_455
Li28 O17 1.901643 1_555
Li28 O28 1.912359 1_555
Li29 O19 1.895707 1_555
Li29 O16 1.901643 1_555
Li29 O29 1.912359 1_555
Li30 O29 1.895707 1_655
Li30 O31 1.901643 1_555
Li30 O19 1.912359 1_555
Li31 O28 1.895707 1_555
Li31 O30 1.901643 1_555
Li31 O18 1.912359 1_555
Li32 O28 1.983015 1_555
Li32 O22 2.035794 1_555
Li32 O24 2.093512 1_555
Li32 O1 2.149881 1_545
Li33 O29 1.983015 1_555
Li33 O23 2.035794 1_555
Li33 O25 2.093512 1_455
Li33 O0 2.149881 1_545
Li34 O21 1.945226 1_555
Li34 O26 1.987581 1_555
Li34 O24 1.994043 1_555
Li35 O20 1.945226 1_554
Li35 O27 1.987581 1_654
Li35 O25 1.994043 1_555
Li36 O28 2.091400 1_655
Li36 O1 2.124742 1_645
Li36 O3 2.134501 1_545
Li36 O24 2.150398 1_555
Li36 O30 2.172460 1_555
Li37 O29 2.091400 1_555
Li37 O0 2.124742 1_545
Li37 O2 2.134501 1_545
Li37 O25 2.150398 1_555
Li37 O31 2.172460 1_555
Li38 O1 1.860992 1_545
Li38 O26 1.894749 1_555
Li38 O24 1.973197 1_455
Li39 O0 1.860992 1_545
Li39 O27 1.894749 1_554
Li39 O25 1.973197 1_555
Co0 O0 1.821655 1_655
Co0 O4 1.822717 1_555
Co0 O2 1.923387 1_555
Co0 O25 1.955887 1_565
Co1 O1 1.821655 1_555
Co1 O5 1.822717 1_555
Co1 O3 1.923387 1_555
Co1 O24 1.955887 1_565
Co2 O14 1.821655 1_555
Co2 O10 1.822717 1_555
Co2 O12 1.923387 1_555
Co2 O23 1.955887 1_555
Co3 O15 1.821655 1_455
Co3 O11 1.822717 1_555
Co3 O13 1.923387 1_555
Co3 O22 1.955887 1_555
Co4 O16 1.821655 1_655
Co4 O21 1.822717 1_555
Co4 O19 1.923387 1_555
Co4 O8 1.955887 1_555
Co5 O17 1.821655 1_555
Co5 O20 1.822717 1_555
Co5 O18 1.923387 1_555
Co5 O9 1.955887 1_555
Co6 O31 1.821655 1_555
Co6 O26 1.822717 1_555
Co6 O29 1.923387 1_555
Co6 O7 1.955887 1_545
Co7 O30 1.821655 1_455
Co7 O27 1.822717 1_555
Co7 O28 1.923387 1_555
Co7 O6 1.955887 1_545
