# generated using pymatgen
data_Li2VFeO4
_symmetry_space_group_name_H-M   'P 1'
_cell_length_a   5.18353500
_cell_length_b   6.02033921
_cell_length_c   7.89510046
_cell_angle_alpha   101.22310539
_cell_angle_beta   108.73553225
_cell_angle_gamma   90.13294358
_symmetry_Int_Tables_number   1
_chemical_formula_structural   Li2VFeO4
_chemical_formula_sum   'Li6 V3 Fe3 O12'
_cell_volume   228.30412921
_cell_formula_units_Z   3
loop_
 _symmetry_equiv_pos_site_id
 _symmetry_equiv_pos_as_xyz
  1  'x, y, z'
loop_
 _atom_site_type_symbol
 _atom_site_label
 _atom_site_symmetry_multiplicity
 _atom_site_fract_x
 _atom_site_fract_y
 _atom_site_fract_z
 _atom_site_occupancy
  Li  Li0  1  0.99806800  0.08039800  0.83324700  1
  Li  Li1  1  0.99851200  0.24778000  0.49783500  1
  Li  Li2  1  0.00107600  0.58702700  0.83253700  1
  Li  Li3  1  0.00193200  0.91960200  0.16675300  1
  Li  Li4  1  0.99892400  0.41297300  0.16746300  1
  Li  Li5  1  0.00148800  0.75222000  0.50216500  1
  V  V0  1  0.49938100  0.33466000  0.83339400  1
  V  V1  1  0.50061900  0.66534000  0.16660600  1
  V  V2  1  0.50000000  0.50000000  0.50000000  1
  Fe  Fe0  1  0.50131400  0.83575200  0.83279800  1
  Fe  Fe1  1  0.49868600  0.16424800  0.16720200  1
  Fe  Fe2  1  0.50000000  0.00000000  0.50000000  1
  O  O0  1  0.72622100  0.62152000  0.99281000  1
  O  O1  1  0.72890500  0.12158900  0.99709700  1
  O  O2  1  0.72600900  0.45223400  0.32995900  1
  O  O3  1  0.72744900  0.95299400  0.32693000  1
  O  O4  1  0.72442500  0.29426900  0.65972900  1
  O  O5  1  0.73059700  0.80038400  0.66403300  1
  O  O6  1  0.27109500  0.87841100  0.00290300  1
  O  O7  1  0.27377900  0.37848000  0.00719000  1
  O  O8  1  0.26940300  0.19961600  0.33596700  1
  O  O9  1  0.27557500  0.70573100  0.34027100  1
  O  O10  1  0.27255100  0.04700600  0.67307000  1
  O  O11  1  0.27399100  0.54776600  0.67004100  1
loop_
_geom_bond_atom_site_label_1
_geom_bond_atom_site_label_2
_geom_bond_distance
_geom_bond_site_symmetry_2
Li0 O5 2.114588 1_545
Li0 O6 2.167955 1_646
Li0 O1 2.172035 1_555
Li0 O10 2.173068 1_655
Li0 O7 2.217394 1_656
Li0 O4 2.234581 1_555
Li1 O8 2.167809 1_655
Li1 O2 2.169659 1_555
Li1 O4 2.181676 1_555
Li1 O3 2.186969 1_545
Li1 O10 2.188452 1_655
Li1 O11 2.221324 1_655
Li2 O6 2.169394 1_556
Li2 O0 2.175161 1_455
Li2 O11 2.180010 1_555
Li2 O4 2.195371 1_455
Li2 O5 2.204715 1_455
Li2 O7 2.214921 1_556
Li3 O8 2.114588 1_565
Li3 O1 2.167955 1_464
Li3 O6 2.172035 1_555
Li3 O3 2.173068 1_455
Li3 O0 2.217394 1_454
Li3 O9 2.234581 1_555
Li4 O1 2.169394 1_554
Li4 O7 2.175161 1_655
Li4 O2 2.180010 1_555
Li4 O9 2.195371 1_655
Li4 O8 2.204715 1_655
Li4 O0 2.214921 1_554
Li5 O5 2.167809 1_455
Li5 O11 2.169659 1_555
Li5 O9 2.181676 1_555
Li5 O10 2.186969 1_565
Li5 O3 2.188452 1_455
Li5 O2 2.221324 1_455
Fe0 O5 2.034999 1_555
Fe0 O1 2.043101 1_565
Fe0 O6 2.047044 1_556
Fe0 O11 2.048473 1_555
Fe0 O10 2.069935 1_565
Fe0 O0 2.076928 1_555
Fe1 O8 2.034999 1_555
Fe1 O6 2.043101 1_545
Fe1 O1 2.047044 1_554
Fe1 O2 2.048473 1_555
Fe1 O3 2.069935 1_545
Fe1 O7 2.076928 1_555
Fe2 O5 2.041619 1_545
Fe2 O8 2.041619 1_555
Fe2 O3 2.055015 1_545
Fe2 O10 2.055015 1_555
Fe2 O9 2.064108 1_545
Fe2 O4 2.064108 1_555
O0 V0 2.035428 1_555
O0 V1 2.052123 1_556
O1 V0 2.096670 1_555
O2 V2 2.029551 1_555
O2 V1 2.087430 1_555
O3 V1 2.040809 1_555
O4 V2 2.037139 1_555
O4 V0 2.049106 1_555
O5 V2 2.111915 1_555
O6 V1 2.096670 1_555
O7 V1 2.035428 1_555
O7 V0 2.052123 1_554
O8 V2 2.111915 1_555
O9 V2 2.037139 1_555
O9 V1 2.049106 1_555
O10 V0 2.040809 1_555
O11 V2 2.029551 1_555
O11 V0 2.087430 1_555
