# generated using pymatgen
data_Li2MnCu(PO4)2
_symmetry_space_group_name_H-M   'P 1'
_cell_length_a   6.14662100
_cell_length_b   4.77635700
_cell_length_c   10.27759859
_cell_angle_alpha   88.03094777
_cell_angle_beta   90.00000000
_cell_angle_gamma   90.00000000
_symmetry_Int_Tables_number   1
_chemical_formula_structural   Li2MnCu(PO4)2
_chemical_formula_sum   'Li4 Mn2 Cu2 P4 O16'
_cell_volume   301.55626402
_cell_formula_units_Z   2
loop_
 _symmetry_equiv_pos_site_id
 _symmetry_equiv_pos_as_xyz
  1  'x, y, z'
loop_
 _atom_site_type_symbol
 _atom_site_label
 _atom_site_symmetry_multiplicity
 _atom_site_fract_x
 _atom_site_fract_y
 _atom_site_fract_z
 _atom_site_occupancy
  Li  Li0  1  0.00000000  0.00000000  0.00000000  1
  Li  Li1  1  0.50000000  0.00000000  0.00000000  1
  Li  Li2  1  0.00000000  0.50000000  0.50000000  1
  Li  Li3  1  0.50000000  0.50000000  0.50000000  1
  Mn  Mn0  1  0.75000000  0.47937000  0.78105500  1
  Mn  Mn1  1  0.25000000  0.52063000  0.21894500  1
  Cu  Cu0  1  0.25000000  0.94592800  0.71473100  1
  Cu  Cu1  1  0.75000000  0.05407200  0.28526900  1
  P  P0  1  0.25000000  0.41161100  0.90077700  1
  P  P1  1  0.75000000  0.92519900  0.58820100  1
  P  P2  1  0.25000000  0.07480100  0.41179900  1
  P  P3  1  0.75000000  0.58838900  0.09922300  1
  O  O0  1  0.75000000  0.70812100  0.95623100  1
  O  O1  1  0.25000000  0.73764000  0.89254800  1
  O  O2  1  0.04555400  0.28269500  0.83493900  1
  O  O3  1  0.45444600  0.28269500  0.83493900  1
  O  O4  1  0.55001000  0.78361600  0.66017400  1
  O  O5  1  0.94999000  0.78361600  0.66017400  1
  O  O6  1  0.75000000  0.24574100  0.59053100  1
  O  O7  1  0.25000000  0.18980400  0.55262900  1
  O  O8  1  0.75000000  0.81019600  0.44737100  1
  O  O9  1  0.25000000  0.75425900  0.40946900  1
  O  O10  1  0.05001000  0.21638400  0.33982600  1
  O  O11  1  0.44999000  0.21638400  0.33982600  1
  O  O12  1  0.54555400  0.71730500  0.16506100  1
  O  O13  1  0.95444600  0.71730500  0.16506100  1
  O  O14  1  0.75000000  0.26236000  0.10745200  1
  O  O15  1  0.25000000  0.29187900  0.04376900  1
loop_
_geom_bond_atom_site_label_1
_geom_bond_atom_site_label_2
_geom_bond_distance
_geom_bond_site_symmetry_2
Li0 O0 2.133150 1_444
Li0 O15 2.133150 1_555
Li0 O13 2.149896 1_445
Li0 O2 2.149896 1_554
Li0 O1 2.290484 1_544
Li0 O14 2.290484 1_455
Li1 O0 2.133150 1_544
Li1 O15 2.133150 1_555
Li1 O12 2.149896 1_545
Li1 O3 2.149896 1_554
Li1 O1 2.290484 1_544
Li1 O14 2.290484 1_555
Li2 O6 2.150401 1_455
Li2 O9 2.150401 1_555
Li2 O10 2.189247 1_555
Li2 O5 2.189247 1_455
Li2 O8 2.189513 1_455
Li2 O7 2.189513 1_555
Li3 O6 2.150401 1_555
Li3 O9 2.150401 1_555
Li3 O11 2.189247 1_555
Li3 O4 2.189247 1_555
Li3 O8 2.189513 1_555
Li3 O7 2.189513 1_555
Mn0 O3 2.110366 1_555
Mn0 O2 2.110366 1_655
Mn0 O0 2.137836 1_555
Mn0 O4 2.245495 1_555
Mn0 O5 2.245495 1_555
Mn0 O6 2.286843 1_555
Mn1 O13 2.110366 1_455
Mn1 O12 2.110366 1_555
Mn1 O15 2.137836 1_555
Mn1 O10 2.245495 1_555
Mn1 O11 2.245495 1_555
Mn1 O9 2.286843 1_555
Cu0 O7 1.999777 1_565
Cu0 O1 2.050530 1_555
Cu0 O5 2.084662 1_455
Cu0 O4 2.084662 1_555
Cu0 O3 2.414416 1_565
Cu0 O2 2.414416 1_565
Cu1 O8 1.999777 1_545
Cu1 O14 2.050530 1_555
Cu1 O10 2.084662 1_655
Cu1 O11 2.084662 1_555
Cu1 O12 2.414416 1_545
Cu1 O13 2.414416 1_545
O0 P3 1.558545 1_556
O1 P0 1.556621 1_555
O2 P0 1.563591 1_555
O3 P0 1.563591 1_555
O4 P1 1.575182 1_555
O5 P1 1.575182 1_555
O6 P1 1.532033 1_545
O7 P2 1.565666 1_555
O8 P1 1.565666 1_555
O9 P2 1.532033 1_565
O10 P2 1.575182 1_555
O11 P2 1.575182 1_555
O12 P3 1.563591 1_555
O13 P3 1.563591 1_555
O14 P3 1.556621 1_555
O15 P0 1.558545 1_554
