# generated using pymatgen
data_Li2VNi(PO4)2
_symmetry_space_group_name_H-M   'P 1'
_cell_length_a   10.35393693
_cell_length_b   6.03529800
_cell_length_c   4.75579650
_cell_angle_alpha   90.00000000
_cell_angle_beta   90.05053914
_cell_angle_gamma   90.00000000
_symmetry_Int_Tables_number   1
_chemical_formula_structural   Li2VNi(PO4)2
_chemical_formula_sum   'Li4 V2 Ni2 P4 O16'
_cell_volume   297.18530290
_cell_formula_units_Z   2
loop_
 _symmetry_equiv_pos_site_id
 _symmetry_equiv_pos_as_xyz
  1  'x, y, z'
loop_
 _atom_site_type_symbol
 _atom_site_label
 _atom_site_symmetry_multiplicity
 _atom_site_fract_x
 _atom_site_fract_y
 _atom_site_fract_z
 _atom_site_occupancy
  Li  Li0  1  0.00000000  0.00000000  0.00000000  1
  Li  Li1  1  0.00000000  0.50000000  0.00000000  1
  Li  Li2  1  0.50000000  0.00000000  0.50000000  1
  Li  Li3  1  0.50000000  0.50000000  0.50000000  1
  V  V0  1  0.22622800  0.75000000  0.48345500  1
  V  V1  1  0.77377200  0.25000000  0.51654500  1
  Ni  Ni0  1  0.27667100  0.25000000  0.98415600  1
  Ni  Ni1  1  0.72332900  0.75000000  0.01584400  1
  P  P0  1  0.09562300  0.25000000  0.41081400  1
  P  P1  1  0.40947900  0.75000000  0.92040000  1
  P  P2  1  0.59052100  0.25000000  0.07960000  1
  P  P3  1  0.90437700  0.75000000  0.58918600  1
  O  O0  1  0.04472400  0.75000000  0.70536300  1
  O  O1  1  0.10290800  0.25000000  0.73460700  1
  O  O2  1  0.16541400  0.04720700  0.26779000  1
  O  O3  1  0.16541400  0.45279300  0.26779000  1
  O  O4  1  0.33830000  0.54384900  0.78518500  1
  O  O5  1  0.33830000  0.95615100  0.78518500  1
  O  O6  1  0.40750200  0.75000000  0.24355000  1
  O  O7  1  0.45110500  0.25000000  0.20297400  1
  O  O8  1  0.54889500  0.75000000  0.79702600  1
  O  O9  1  0.59249800  0.25000000  0.75645000  1
  O  O10  1  0.66170000  0.04384900  0.21481500  1
  O  O11  1  0.66170000  0.45615100  0.21481500  1
  O  O12  1  0.83458600  0.54720700  0.73221000  1
  O  O13  1  0.83458600  0.95279300  0.73221000  1
  O  O14  1  0.89709200  0.75000000  0.26539300  1
  O  O15  1  0.95527600  0.25000000  0.29463700  1
loop_
_geom_bond_atom_site_label_1
_geom_bond_atom_site_label_2
_geom_bond_distance
_geom_bond_site_symmetry_2
Li0 O15 2.110826 1_455
Li0 O0 2.110826 1_544
Li0 O2 2.152338 1_555
Li0 O13 2.152338 1_444
Li0 O14 2.237690 1_445
Li0 O1 2.237690 1_554
Li1 O15 2.110826 1_455
Li1 O0 2.110826 1_554
Li1 O12 2.152338 1_454
Li1 O3 2.152338 1_555
Li1 O14 2.237690 1_455
Li1 O1 2.237690 1_554
Li2 O8 2.127677 1_545
Li2 O7 2.127677 1_555
Li2 O9 2.163145 1_555
Li2 O6 2.163145 1_545
Li2 O10 2.171772 1_555
Li2 O5 2.171772 1_545
Li3 O8 2.127677 1_555
Li3 O7 2.127677 1_555
Li3 O9 2.163145 1_555
Li3 O6 2.163145 1_555
Li3 O11 2.171772 1_555
Li3 O4 2.171772 1_555
Ni0 O7 2.083642 1_556
Ni0 O5 2.109228 1_545
Ni0 O4 2.109228 1_555
Ni0 O1 2.154440 1_555
Ni0 O3 2.155746 1_556
Ni0 O2 2.155746 1_556
Ni1 O8 2.083642 1_554
Ni1 O10 2.109228 1_565
Ni1 O11 2.109228 1_555
Ni1 O14 2.154440 1_555
Ni1 O12 2.155746 1_554
Ni1 O13 2.155746 1_554
O0 P3 1.554182 1_455
O0 V0 2.156144 1_555
O1 P0 1.541673 1_555
O2 P0 1.575966 1_555
O2 V0 2.159813 1_545
O3 P0 1.575966 1_555
O3 V0 2.159813 1_555
O4 P1 1.582346 1_555
O4 V0 2.225012 1_555
O5 P1 1.582346 1_555
O5 V0 2.225012 1_555
O6 P1 1.536990 1_554
O6 V0 2.197333 1_555
O7 P2 1.558674 1_555
O8 P1 1.558674 1_555
O9 P2 1.536990 1_556
O9 V1 2.197333 1_555
O10 P2 1.582346 1_555
O10 V1 2.225012 1_555
O11 P2 1.582346 1_555
O11 V1 2.225012 1_555
O12 P3 1.575966 1_555
O12 V1 2.159813 1_555
O13 P3 1.575966 1_555
O13 V1 2.159813 1_565
O14 P3 1.541673 1_555
O15 P0 1.554182 1_655
O15 V1 2.156144 1_555
