# generated using pymatgen
data_Li6Ti7Cr5O24
_symmetry_space_group_name_H-M   'P 1'
_cell_length_a   5.94868700
_cell_length_b   5.97691119
_cell_length_c   13.30492806
_cell_angle_alpha   102.81752046
_cell_angle_beta   102.83553082
_cell_angle_gamma   89.83365069
_symmetry_Int_Tables_number   1
_chemical_formula_structural   Li6Ti7Cr5O24
_chemical_formula_sum   'Li6 Ti7 Cr5 O24'
_cell_volume   449.20423116
_cell_formula_units_Z   1
loop_
 _symmetry_equiv_pos_site_id
 _symmetry_equiv_pos_as_xyz
  1  'x, y, z'
loop_
 _atom_site_type_symbol
 _atom_site_label
 _atom_site_symmetry_multiplicity
 _atom_site_fract_x
 _atom_site_fract_y
 _atom_site_fract_z
 _atom_site_occupancy
  Li  Li0  1  0.04146900  0.29035700  0.58248200  1
  Li  Li1  1  0.95853100  0.70964300  0.41751800  1
  Li  Li2  1  0.37624600  0.62444800  0.24940100  1
  Li  Li3  1  0.29171900  0.04386400  0.08287900  1
  Li  Li4  1  0.70828100  0.95613600  0.91712100  1
  Li  Li5  1  0.62375400  0.37555200  0.75059900  1
  Ti  Ti0  1  0.66733700  0.16581300  0.33619400  1
  Ti  Ti1  1  0.16835400  0.16704700  0.33475900  1
  Ti  Ti2  1  0.82718300  0.33322100  0.16572700  1
  Ti  Ti3  1  0.00000000  0.50000000  0.00000000  1
  Ti  Ti4  1  0.17281700  0.66677900  0.83427300  1
  Ti  Ti5  1  0.33266300  0.83418700  0.66380600  1
  Ti  Ti6  1  0.83164600  0.83295300  0.66524100  1
  Cr  Cr0  1  0.50000000  0.50000000  0.50000000  1
  Cr  Cr1  1  0.50000000  0.00000000  0.50000000  1
  Cr  Cr2  1  0.83537800  0.83303800  0.16668900  1
  Cr  Cr3  1  0.50000000  0.50000000  0.00000000  1
  Cr  Cr4  1  0.16462200  0.16696200  0.83331100  1
  O  O0  1  0.27681100  0.75571000  0.51054500  1
  O  O1  1  0.73372800  0.75489100  0.51086100  1
  O  O2  1  0.26627200  0.24510900  0.48913900  1
  O  O3  1  0.72318900  0.24429000  0.48945500  1
  O  O4  1  0.42026200  0.94563300  0.33943900  1
  O  O5  1  0.41999100  0.39209700  0.33960300  1
  O  O6  1  0.91188600  0.38787400  0.32483700  1
  O  O7  1  0.91411900  0.94171400  0.32730000  1
  O  O8  1  0.61307100  0.09345900  0.17622500  1
  O  O9  1  0.06437300  0.09420800  0.17692300  1
  O  O10  1  0.05581000  0.57283600  0.15723400  1
  O  O11  1  0.60802000  0.57564700  0.15973300  1
  O  O12  1  0.75943300  0.27669800  0.00908400  1
  O  O13  1  0.75908700  0.72629600  0.00778700  1
  O  O14  1  0.24056700  0.72330200  0.99091600  1
  O  O15  1  0.24091300  0.27370400  0.99221300  1
  O  O16  1  0.94419000  0.42716400  0.84276600  1
  O  O17  1  0.39198000  0.42435300  0.84026700  1
  O  O18  1  0.93562700  0.90579200  0.82307700  1
  O  O19  1  0.38692900  0.90654100  0.82377500  1
  O  O20  1  0.08588100  0.05828600  0.67270000  1
  O  O21  1  0.08811400  0.61212600  0.67516300  1
  O  O22  1  0.57973800  0.05436700  0.66056100  1
  O  O23  1  0.58000900  0.60790300  0.66039700  1
loop_
_geom_bond_atom_site_label_1
_geom_bond_atom_site_label_2
_geom_bond_distance
_geom_bond_site_symmetry_2
Li0 O2 1.997653 1_555
Li0 O3 2.000785 1_455
Li0 O20 2.007557 1_555
Li0 O21 2.023625 1_555
Li1 O1 1.997653 1_555
Li1 O0 2.000785 1_655
Li1 O7 2.007557 1_555
Li1 O6 2.023625 1_555
Li2 O11 1.995857 1_555
Li2 O10 2.007341 1_555
Li2 O4 2.007999 1_555
Li2 O5 2.008798 1_555
Li3 O15 2.001130 1_554
Li3 O14 2.014559 1_544
Li3 O9 2.016834 1_555
Li3 O8 2.017357 1_555
Li4 O13 2.001130 1_556
Li4 O12 2.014559 1_566
Li4 O18 2.016834 1_555
Li4 O19 2.017357 1_555
Li5 O17 1.995857 1_555
Li5 O16 2.007341 1_555
Li5 O22 2.007999 1_555
Li5 O23 2.008798 1_555
Cr0 O3 2.023397 1_555
Cr0 O0 2.023397 1_555
Cr0 O2 2.024922 1_555
Cr0 O1 2.024922 1_555
Cr0 O5 2.033851 1_555
Cr0 O23 2.033851 1_555
Cr1 O2 2.023133 1_555
Cr1 O1 2.023133 1_545
Cr1 O0 2.024654 1_545
Cr1 O3 2.024654 1_555
Cr1 O22 2.033923 1_555
Cr1 O4 2.033923 1_545
Cr2 O13 2.014860 1_555
Cr2 O11 2.024290 1_555
Cr2 O10 2.031893 1_655
Cr2 O9 2.036296 1_665
Cr2 O7 2.036888 1_555
Cr2 O8 2.040254 1_565
Cr3 O15 2.023485 1_554
Cr3 O13 2.023485 1_555
Cr3 O11 2.025475 1_555
Cr3 O17 2.025475 1_554
Cr3 O14 2.038230 1_554
Cr3 O12 2.038230 1_555
Cr4 O15 2.014860 1_555
Cr4 O17 2.024290 1_555
Cr4 O16 2.031893 1_455
Cr4 O18 2.036296 1_445
Cr4 O20 2.036888 1_555
Cr4 O19 2.040254 1_545
O0 Ti5 1.940091 1_555
O1 Ti6 1.954671 1_555
O2 Ti1 1.954671 1_555
O3 Ti0 1.940091 1_555
O4 Ti0 1.989617 1_565
O4 Ti1 1.996083 1_565
O5 Ti1 1.996136 1_555
O5 Ti0 1.996774 1_555
O6 Ti2 2.015506 1_555
O6 Ti1 2.015738 1_655
O6 Ti0 2.024485 1_555
O7 Ti0 1.989623 1_565
O7 Ti1 1.999198 1_665
O8 Ti2 1.968204 1_555
O8 Ti0 2.026910 1_555
O9 Ti1 2.000228 1_555
O9 Ti2 2.010755 1_455
O10 Ti3 1.991061 1_555
O10 Ti2 2.016165 1_455
O11 Ti2 1.949273 1_555
O12 Ti2 1.983766 1_555
O12 Ti3 2.000838 1_655
O13 Ti3 1.971418 1_655
O14 Ti4 1.983766 1_555
O14 Ti3 2.000838 1_556
O15 Ti3 1.971418 1_556
O16 Ti3 1.991061 1_656
O16 Ti4 2.016165 1_655
O17 Ti4 1.949273 1_555
O18 Ti6 2.000228 1_555
O18 Ti4 2.010755 1_655
O19 Ti4 1.968204 1_555
O19 Ti5 2.026910 1_555
O20 Ti5 1.989623 1_545
O20 Ti6 1.999198 1_445
O21 Ti4 2.015506 1_555
O21 Ti6 2.015738 1_455
O21 Ti5 2.024485 1_555
O22 Ti5 1.989617 1_545
O22 Ti6 1.996083 1_545
O23 Ti6 1.996136 1_555
O23 Ti5 1.996774 1_555
