# generated using pymatgen
data_LiTi2V3O12
_symmetry_space_group_name_H-M   'P 1'
_cell_length_a   8.90754300
_cell_length_b   9.19613239
_cell_length_c   12.53573530
_cell_angle_alpha   90.16353133
_cell_angle_beta   90.53915087
_cell_angle_gamma   90.04130770
_symmetry_Int_Tables_number   1
_chemical_formula_structural   LiTi2V3O12
_chemical_formula_sum   'Li4 Ti8 V12 O48'
_cell_volume   1026.81413195
_cell_formula_units_Z   4
loop_
 _symmetry_equiv_pos_site_id
 _symmetry_equiv_pos_as_xyz
  1  'x, y, z'
loop_
 _atom_site_type_symbol
 _atom_site_label
 _atom_site_symmetry_multiplicity
 _atom_site_fract_x
 _atom_site_fract_y
 _atom_site_fract_z
 _atom_site_occupancy
  Li  Li0  1  0.32677000  0.27555600  0.31091000  1
  Li  Li1  1  0.18408100  0.78109000  0.18457400  1
  Li  Li2  1  0.06525000  0.51101500  0.34376900  1
  Li  Li3  1  0.06125000  0.08925900  0.70100700  1
  Ti  Ti0  1  0.74875200  0.97656700  0.11569900  1
  Ti  Ti1  1  0.73986700  0.47946700  0.38477300  1
  Ti  Ti2  1  0.74004400  0.02674400  0.62312700  1
  Ti  Ti3  1  0.75128300  0.53191700  0.87704300  1
  Ti  Ti4  1  0.25196100  0.46664300  0.11247800  1
  Ti  Ti5  1  0.24816100  0.96763600  0.38440100  1
  Ti  Ti6  1  0.24616100  0.52436300  0.62147900  1
  Ti  Ti7  1  0.26274100  0.02331700  0.88662000  1
  V  V0  1  0.96643700  0.74942700  0.51045000  1
  V  V1  1  0.88816700  0.61863500  0.14721500  1
  V  V2  1  0.89003000  0.88728100  0.86045600  1
  V  V3  1  0.61277800  0.11696900  0.35340600  1
  V  V4  1  0.61115700  0.38837000  0.63932000  1
  V  V5  1  0.53512500  0.25101600  0.99020900  1
  V  V6  1  0.46792800  0.74748900  0.01091100  1
  V  V7  1  0.38409300  0.61265000  0.35897200  1
  V  V8  1  0.38706500  0.88062700  0.64677200  1
  V  V9  1  0.11268200  0.11495000  0.14267800  1
  V  V10  1  0.10716900  0.37815400  0.85310600  1
  V  V11  1  0.03279800  0.24851500  0.48892700  1
  O  O0  1  0.93305400  0.12340300  0.56358000  1
  O  O1  1  0.92546600  0.10785000  0.10720600  1
  O  O2  1  0.93297500  0.34344500  0.39188700  1
  O  O3  1  0.92657900  0.42614800  0.82263400  1
  O  O4  1  0.90297200  0.62544500  0.41386700  1
  O  O5  1  0.87519600  0.80785000  0.15293000  1
  O  O6  1  0.85543500  0.56379500  0.01937100  1
  O  O7  1  0.86834000  0.00161000  0.74755200  1
  O  O8  1  0.83539200  0.71077900  0.82819800  1
  O  O9  1  0.81792100  0.83949200  0.56667400  1
  O  O10  1  0.76850000  0.52973300  0.23597800  1
  O  O11  1  0.72982900  0.02608000  0.26528200  1
  O  O12  1  0.77530100  0.94498400  0.96222200  1
  O  O13  1  0.72839800  0.44204700  0.53725700  1
  O  O14  1  0.68033800  0.34140500  0.93299000  1
  O  O15  1  0.66363700  0.21078000  0.67146500  1
  O  O16  1  0.65261700  0.06420500  0.48208300  1
  O  O17  1  0.64063900  0.50068600  0.74918800  1
  O  O18  1  0.62711300  0.30786900  0.34665400  1
  O  O19  1  0.60621300  0.12975800  0.08287900  1
  O  O20  1  0.57558200  0.83694400  0.10511900  1
  O  O21  1  0.57210100  0.60778500  0.40072000  1
  O  O22  1  0.57109700  0.92930700  0.68031800  1
  O  O23  1  0.57546500  0.62375500  0.94465400  1
  O  O24  1  0.42254100  0.37752100  0.05974800  1
  O  O25  1  0.42523700  0.07866600  0.32393500  1
  O  O26  1  0.42328800  0.40217200  0.59936000  1
  O  O27  1  0.42360100  0.16383800  0.89245600  1
  O  O28  1  0.39283400  0.86799500  0.91524700  1
  O  O29  1  0.36913100  0.69345000  0.65456200  1
  O  O30  1  0.35805300  0.48649600  0.25736800  1
  O  O31  1  0.35730900  0.92930200  0.51501300  1
  O  O32  1  0.32328800  0.78428900  0.31600600  1
  O  O33  1  0.31350100  0.66510200  0.07737700  1
  O  O34  1  0.25670900  0.55616800  0.45358300  1
  O  O35  1  0.22377300  0.06474700  0.03569000  1
  O  O36  1  0.25904400  0.97503600  0.72844400  1
  O  O37  1  0.22721300  0.47360300  0.76722100  1
  O  O38  1  0.18533500  0.16512500  0.42248400  1
  O  O39  1  0.17441600  0.28710600  0.18716000  1
  O  O40  1  0.14509500  0.98567800  0.24208400  1
  O  O41  1  0.14202800  0.42429300  0.98697400  1
  O  O42  1  0.12644100  0.19111800  0.83435100  1
  O  O43  1  0.11099000  0.36458200  0.58284900  1
  O  O44  1  0.07601600  0.57825200  0.18829800  1
  O  O45  1  0.07473300  0.66265600  0.60701600  1
  O  O46  1  0.07660800  0.89765000  0.89700900  1
  O  O47  1  0.07911100  0.87753600  0.44355700  1
loop_
_geom_bond_atom_site_label_1
_geom_bond_atom_site_label_2
_geom_bond_distance
_geom_bond_site_symmetry_2
Li0 O25 2.018815 1_555
Li0 O39 2.054520 1_555
Li0 O30 2.073949 1_555
Li0 O38 2.148067 1_555
Li1 O40 2.044011 1_555
Li1 O32 2.052862 1_555
Li1 O33 2.072493 1_555
Li1 O44 2.099275 1_555
Li2 O4 1.997452 1_455
Li2 O2 2.035396 1_455
Li2 O44 2.049441 1_555
Li2 O34 2.219790 1_555
Li3 O7 1.990585 1_455
Li3 O42 1.995186 1_555
Li3 O36 2.078252 1_545
Li3 O0 2.082546 1_455
O0 V11 1.734717 1_655
O0 Ti2 2.080595 1_555
O1 V9 1.722997 1_655
O1 Ti0 1.986906 1_545
O2 V11 1.737632 1_655
O2 Ti1 2.128920 1_555
O3 V10 1.708441 1_655
O3 Ti3 1.966691 1_555
O4 V0 1.750353 1_555
O4 Ti1 2.007581 1_555
O5 V1 1.745273 1_555
O5 Ti0 1.972419 1_555
O6 V1 1.701208 1_555
O6 Ti3 2.023717 1_554
O7 V2 1.774697 1_545
O7 Ti2 1.939371 1_555
O8 V2 1.739646 1_555
O8 Ti3 1.911630 1_555
O9 V0 1.717162 1_555
O9 Ti2 1.987785 1_565
O10 V1 1.751857 1_555
O10 Ti1 1.942063 1_555
O11 V3 1.738885 1_555
O11 Ti0 1.937277 1_545
O12 V2 1.724780 1_555
O12 Ti0 1.961460 1_556
O13 V4 1.731833 1_555
O13 Ti1 1.946808 1_555
O14 V5 1.702313 1_555
O14 Ti3 1.993589 1_555
O15 V4 1.746243 1_555
O15 Ti2 1.923082 1_555
O16 V3 1.719675 1_555
O16 Ti2 1.956844 1_555
O17 V4 1.737056 1_555
O17 Ti3 1.894701 1_555
O18 V3 1.762420 1_555
O18 Ti1 1.926568 1_555
O19 V5 1.728731 1_554
O19 Ti0 1.939590 1_545
O20 V6 1.721329 1_555
O20 Ti0 2.009456 1_555
O21 V7 1.750491 1_555
O21 Ti1 1.916359 1_555
O22 V8 1.746241 1_555
O22 Ti2 1.898327 1_565
O23 V6 1.706847 1_556
O23 Ti3 1.976641 1_555
O24 V5 1.769561 1_554
O24 Ti4 1.853367 1_555
O25 V3 1.742992 1_555
O25 Ti5 2.032139 1_545
O26 V4 1.747104 1_555
O26 Ti6 1.959058 1_555
O27 V5 1.761116 1_555
O27 Ti7 1.929556 1_555
O28 V6 1.762725 1_556
O28 Ti7 1.873319 1_565
O29 V8 1.731705 1_555
O29 Ti6 1.942931 1_555
O30 V7 1.734238 1_555
O30 Ti4 2.047170 1_555
O31 V8 1.730569 1_555
O31 Ti5 1.929809 1_555
O32 V7 1.753695 1_555
O32 Ti5 2.007480 1_555
O33 V6 1.784403 1_555
O33 Ti4 1.957706 1_555
O34 V7 1.729717 1_555
O34 Ti6 2.128692 1_555
O35 V9 1.735855 1_555
O35 Ti7 1.940625 1_554
O36 V8 1.766551 1_555
O36 Ti7 2.030677 1_565
O37 V10 1.760314 1_555
O37 Ti6 1.895998 1_555
O38 V11 1.774014 1_555
O38 Ti5 1.959842 1_545
O39 V9 1.762862 1_555
O39 Ti4 2.024568 1_555
O40 V9 1.746890 1_565
O40 Ti5 2.006062 1_555
O41 V10 1.754571 1_555
O41 Ti4 1.884876 1_556
O42 V10 1.744147 1_555
O42 Ti7 2.068353 1_555
O43 V11 1.728274 1_555
O43 Ti6 1.955933 1_555
O44 V1 1.785709 1_455
O44 Ti4 2.106616 1_555
O45 V0 1.737040 1_455
O45 Ti6 1.995216 1_555
O46 V2 1.722304 1_455
O46 Ti7 2.025727 1_565
O47 V0 1.765840 1_455
O47 Ti5 1.877942 1_555
