# generated using pymatgen
data_KHgC2N2ClO
_symmetry_space_group_name_H-M   'P 1'
_cell_length_a   4.42658800
_cell_length_b   8.98893500
_cell_length_c   18.21258600
_cell_angle_alpha   90.00000000
_cell_angle_beta   90.00000000
_cell_angle_gamma   90.00000000
_symmetry_Int_Tables_number   1
_chemical_formula_structural   KHgC2N2ClO
_chemical_formula_sum   'K4 Hg4 C8 N8 Cl4 O4'
_cell_volume   724.68447569
_cell_formula_units_Z   4
loop_
 _symmetry_equiv_pos_site_id
 _symmetry_equiv_pos_as_xyz
  1  'x, y, z'
loop_
 _atom_site_type_symbol
 _atom_site_label
 _atom_site_symmetry_multiplicity
 _atom_site_fract_x
 _atom_site_fract_y
 _atom_site_fract_z
 _atom_site_occupancy
  K  K0  1  0.75000000  0.26322600  0.51436600  1
  K  K1  1  0.75000000  0.76322600  0.98563400  1
  K  K2  1  0.25000000  0.73677400  0.48563400  1
  K  K3  1  0.25000000  0.23677400  0.01436600  1
  Hg  Hg0  1  0.25000000  0.51627200  0.75110800  1
  Hg  Hg1  1  0.25000000  0.01627200  0.74889200  1
  Hg  Hg2  1  0.75000000  0.48372800  0.24889200  1
  Hg  Hg3  1  0.75000000  0.98372800  0.25110800  1
  C  C0  1  0.25000000  0.55184300  0.86187400  1
  C  C1  1  0.25000000  0.05184300  0.63812600  1
  C  C2  1  0.75000000  0.44815700  0.13812600  1
  C  C3  1  0.75000000  0.94815700  0.36187400  1
  C  C4  1  0.25000000  0.48280100  0.63992200  1
  C  C5  1  0.25000000  0.98280100  0.86007800  1
  C  C6  1  0.75000000  0.51719900  0.36007800  1
  C  C7  1  0.75000000  0.01719900  0.13992200  1
  N  N0  1  0.25000000  0.57669200  0.92480200  1
  N  N1  1  0.25000000  0.07669200  0.57519800  1
  N  N2  1  0.75000000  0.42330800  0.07519800  1
  N  N3  1  0.75000000  0.92330800  0.42480200  1
  N  N4  1  0.25000000  0.46165600  0.57665100  1
  N  N5  1  0.25000000  0.96165600  0.92334900  1
  N  N6  1  0.75000000  0.53834400  0.42334900  1
  N  N7  1  0.75000000  0.03834400  0.07665100  1
  Cl  Cl0  1  0.75000000  0.26559100  0.77872300  1
  Cl  Cl1  1  0.75000000  0.76559100  0.72127700  1
  Cl  Cl2  1  0.25000000  0.73440900  0.22127700  1
  Cl  Cl3  1  0.25000000  0.23440900  0.27872300  1
  O  O0  1  0.25000000  0.23508000  0.41249100  1
  O  O1  1  0.25000000  0.73508000  0.08750900  1
  O  O2  1  0.75000000  0.76492000  0.58750900  1
  O  O3  1  0.75000000  0.26492000  0.91249100  1
loop_
_geom_bond_atom_site_label_1
_geom_bond_atom_site_label_2
_geom_bond_distance
_geom_bond_site_symmetry_2
K0 O0 2.899175 1_555
K0 O0 2.899175 1_655
K0 N6 2.977186 1_555
K0 N1 2.989581 1_655
K0 N1 2.989581 1_555
K0 N4 3.060549 1_555
K0 N4 3.060549 1_655
K1 O1 2.899175 1_656
K1 O1 2.899175 1_556
K1 N7 2.977186 1_566
K1 N0 2.989581 1_655
K1 N0 2.989581 1_555
K1 N5 3.060549 1_555
K1 N5 3.060549 1_655
K2 O2 2.899175 1_455
K2 O2 2.899175 1_555
K2 N4 2.977186 1_555
K2 N3 2.989581 1_555
K2 N3 2.989581 1_455
K2 N6 3.060549 1_455
K2 N6 3.060549 1_555
K3 O3 2.899175 1_454
K3 O3 2.899175 1_554
K3 N5 2.977186 1_544
K3 N2 2.989581 1_455
K3 N2 2.989581 1_555
K3 N7 3.060549 1_555
K3 N7 3.060549 1_455
C0 N0 1.167645 1_555
C0 Hg0 2.042518 1_555
C1 N1 1.167645 1_555
C1 Hg1 2.042518 1_555
C2 N2 1.167645 1_555
C2 Hg2 2.042518 1_555
C3 N3 1.167645 1_555
C3 Hg3 2.042518 1_555
C4 N4 1.167899 1_555
C4 Hg0 2.047214 1_555
C5 N5 1.167899 1_555
C5 Hg1 2.047214 1_565
C6 N6 1.167899 1_555
C6 Hg2 2.047214 1_555
C7 N7 1.167899 1_555
C7 Hg3 2.047214 1_545
