# generated using pymatgen
data_FeOF
_symmetry_space_group_name_H-M   'P 1'
_cell_length_a   3.08528500
_cell_length_b   9.46383000
_cell_length_c   14.25668376
_cell_angle_alpha   89.95318818
_cell_angle_beta   90.00000000
_cell_angle_gamma   90.00000000
_symmetry_Int_Tables_number   1
_chemical_formula_structural   FeOF
_chemical_formula_sum   'Fe12 O12 F12'
_cell_volume   416.27524910
_cell_formula_units_Z   12
loop_
 _symmetry_equiv_pos_site_id
 _symmetry_equiv_pos_as_xyz
  1  'x, y, z'
loop_
 _atom_site_type_symbol
 _atom_site_label
 _atom_site_symmetry_multiplicity
 _atom_site_fract_x
 _atom_site_fract_y
 _atom_site_fract_z
 _atom_site_occupancy
  Fe  Fe0  1  0.00000000  0.98060800  0.99944100  1
  Fe  Fe1  1  0.00000000  0.99495600  0.33486900  1
  Fe  Fe2  1  0.00000000  0.98337000  0.66175200  1
  Fe  Fe3  1  0.50000000  0.74407200  0.14868400  1
  Fe  Fe4  1  0.50000000  0.77284900  0.49528400  1
  Fe  Fe5  1  0.50000000  0.77405100  0.82915100  1
  Fe  Fe6  1  0.00000000  0.48121500  0.33128600  1
  Fe  Fe7  1  0.00000000  0.49374800  0.00190900  1
  Fe  Fe8  1  0.00000000  0.48317900  0.66511100  1
  Fe  Fe9  1  0.50000000  0.23778300  0.18615900  1
  Fe  Fe10  1  0.50000000  0.27523100  0.50004900  1
  Fe  Fe11  1  0.50000000  0.27529200  0.83455100  1
  O  O0  1  0.50000000  0.91109100  0.59481700  1
  O  O1  1  0.50000000  0.90300600  0.93621300  1
  O  O2  1  0.00000000  0.85205500  0.10757300  1
  O  O3  1  0.00000000  0.84939100  0.76509700  1
  O  O4  1  0.00000000  0.85060500  0.42917700  1
  O  O5  1  0.50000000  0.58921800  0.06623400  1
  O  O6  1  0.50000000  0.40199100  0.26916700  1
  O  O7  1  0.50000000  0.39889800  0.94018900  1
  O  O8  1  0.50000000  0.41108300  0.59940600  1
  O  O9  1  0.00000000  0.34699600  0.43448300  1
  O  O10  1  0.00000000  0.34964000  0.76770000  1
  O  O11  1  0.00000000  0.13949300  0.23971300  1
  F  F0  1  0.50000000  0.89533900  0.27244400  1
  F  F1  1  0.00000000  0.65529500  0.23790400  1
  F  F2  1  0.00000000  0.65944900  0.56279100  1
  F  F3  1  0.00000000  0.65253100  0.89206200  1
  F  F4  1  0.50000000  0.60044300  0.39905400  1
  F  F5  1  0.50000000  0.60299200  0.72764600  1
  F  F6  1  0.00000000  0.33010800  0.10908200  1
  F  F7  1  0.00000000  0.15044400  0.89808800  1
  F  F8  1  0.00000000  0.15631300  0.56577500  1
  F  F9  1  0.50000000  0.10089900  0.06601000  1
  F  F10  1  0.50000000  0.09654700  0.40415900  1
  F  F11  1  0.50000000  0.09981600  0.72696500  1
loop_
_geom_bond_atom_site_label_1
_geom_bond_atom_site_label_2
_geom_bond_distance
_geom_bond_site_symmetry_2
Fe0 O1 1.932033 1_455
Fe0 O1 1.932033 1_555
Fe0 O2 1.963059 1_556
Fe1 O4 1.915984 1_555
Fe1 O11 1.925729 1_565
Fe2 O0 1.938905 1_455
Fe2 O0 1.938905 1_555
Fe2 O3 1.943048 1_555
Fe3 O5 1.879429 1_555
Fe3 O2 1.940782 1_655
Fe3 O2 1.940782 1_555
Fe4 O0 1.930873 1_555
Fe4 O4 1.951502 1_555
Fe4 O4 1.951502 1_655
Fe5 O3 1.928986 1_555
Fe5 O3 1.928986 1_655
Fe5 O1 1.955040 1_555
Fe6 O6 1.930617 1_555
Fe6 O6 1.930617 1_455
Fe6 O9 1.942933 1_555
Fe7 O7 1.990243 1_554
Fe7 O7 1.990243 1_454
Fe7 O5 2.009586 1_555
Fe7 O5 2.009586 1_455
Fe8 O8 1.929716 1_455
Fe8 O8 1.929716 1_555
Fe8 O10 1.932171 1_555
Fe9 O6 1.954102 1_555
Fe9 O11 1.956219 1_555
Fe9 O11 1.956219 1_655
Fe10 O8 1.913746 1_555
Fe10 O9 1.927109 1_555
Fe10 O9 1.927109 1_655
Fe11 O7 1.907736 1_555
Fe11 O10 1.944756 1_555
Fe11 O10 1.944756 1_655
F0 Fe1 2.015431 1_555
F0 Fe1 2.015431 1_655
F0 Fe3 2.273024 1_555
F1 Fe6 2.117300 1_555
F1 Fe3 2.168369 1_555
F1 Fe3 2.168369 1_455
F2 Fe4 2.110942 1_555
F2 Fe4 2.110942 1_455
F2 Fe8 2.215133 1_555
F3 Fe5 2.122521 1_455
F3 Fe5 2.122521 1_555
F3 Fe7 2.169510 1_556
F4 Fe4 2.132607 1_555
F4 Fe6 2.141996 1_555
F4 Fe6 2.141996 1_655
F5 Fe8 2.112333 1_555
F5 Fe8 2.112333 1_655
F5 Fe5 2.172268 1_555
F6 Fe9 2.085452 1_555
F6 Fe9 2.085452 1_455
F6 Fe7 2.174640 1_555
F7 Fe11 2.143492 1_455
F7 Fe11 2.143492 1_555
F7 Fe0 2.160444 1_545
F8 Fe10 2.126647 1_555
F8 Fe10 2.126647 1_455
F8 Fe2 2.132468 1_545
F9 Fe0 2.139673 1_644
F9 Fe0 2.139673 1_544
F9 Fe9 2.148470 1_555
F10 Fe1 2.069179 1_545
F10 Fe1 2.069179 1_645
F10 Fe10 2.175377 1_555
F11 Fe2 2.111933 1_645
F11 Fe2 2.111933 1_545
F11 Fe11 2.261550 1_555
