# generated using pymatgen
data_CaAsH5O6
_symmetry_space_group_name_H-M   'P 1'
_cell_length_a   9.18639750
_cell_length_b   9.18639750
_cell_length_c   6.15526437
_cell_angle_alpha   83.83849581
_cell_angle_beta   83.83849581
_cell_angle_gamma   140.31771365
_symmetry_Int_Tables_number   1
_chemical_formula_structural   CaAsH5O6
_chemical_formula_sum   'Ca2 As2 H10 O12'
_cell_volume   314.65884494
_cell_formula_units_Z   2
loop_
 _symmetry_equiv_pos_site_id
 _symmetry_equiv_pos_as_xyz
  1  'x, y, z'
loop_
 _atom_site_type_symbol
 _atom_site_label
 _atom_site_symmetry_multiplicity
 _atom_site_fract_x
 _atom_site_fract_y
 _atom_site_fract_z
 _atom_site_occupancy
  Ca  Ca0  1  0.45669600  0.11196900  0.87943800  1
  Ca  Ca1  1  0.11196900  0.45669600  0.37943800  1
  As  As0  1  0.87019000  0.51003500  0.08358700  1
  As  As1  1  0.51003500  0.87019000  0.58358700  1
  H  H0  1  0.26601600  0.09421900  0.36662300  1
  H  H1  1  0.20320800  0.17070000  0.70002300  1
  H  H2  1  0.35054200  0.49922100  0.71435700  1
  H  H3  1  0.89908900  0.04733600  0.23951200  1
  H  H4  1  0.17070000  0.20320800  0.20002300  1
  H  H5  1  0.49922100  0.35054200  0.21435700  1
  H  H6  1  0.00126600  0.63466000  0.69505200  1
  H  H7  1  0.09421900  0.26601600  0.86662300  1
  H  H8  1  0.63466000  0.00126600  0.19505200  1
  H  H9  1  0.04733600  0.89908900  0.73951200  1
  O  O0  1  0.33347200  0.18844500  0.20483800  1
  O  O1  1  0.21285500  0.06802600  0.69615200  1
  O  O2  1  0.70851500  0.22838700  0.09282500  1
  O  O3  1  0.69646900  0.15652700  0.58849000  1
  O  O4  1  0.06802600  0.21285500  0.19615200  1
  O  O5  1  0.74328800  0.53947500  0.25661100  1
  O  O6  1  0.86857500  0.58733300  0.79763000  1
  O  O7  1  0.18844500  0.33347200  0.70483800  1
  O  O8  1  0.22838700  0.70851500  0.59282500  1
  O  O9  1  0.58733300  0.86857500  0.29763000  1
  O  O10  1  0.15652700  0.69646900  0.08849000  1
  O  O11  1  0.53947500  0.74328800  0.75661100  1
loop_
_geom_bond_atom_site_label_1
_geom_bond_atom_site_label_2
_geom_bond_distance
_geom_bond_site_symmetry_2
Ca0 O2 2.316489 1_556
Ca0 O1 2.387856 1_555
Ca0 O10 2.410874 1_546
Ca0 O3 2.415477 1_555
Ca0 O0 2.612676 1_556
Ca0 O6 2.706753 1_555
Ca1 O8 2.316489 1_555
Ca1 O4 2.387856 1_555
Ca1 O3 2.410874 1_455
Ca1 O10 2.415477 1_555
Ca1 O7 2.612676 1_555
Ca1 O9 2.706753 1_555
As0 O5 1.687306 1_555
As0 O2 1.714335 1_555
As0 O10 1.716750 1_655
As0 O6 1.831957 1_554
As1 O11 1.687306 1_555
As1 O8 1.714335 1_555
As1 O3 1.716750 1_565
As1 O9 1.831957 1_555
H0 O0 0.990869 1_555
H1 O1 1.015423 1_555
H1 O7 1.604974 1_555
H2 O7 1.042709 1_555
H2 O11 1.529520 1_555
H3 O4 0.991752 1_655
H4 O4 1.015423 1_555
H4 O0 1.604974 1_555
H5 O0 1.042709 1_555
H5 O5 1.529520 1_555
H6 O6 1.016699 1_455
H6 O8 1.630070 1_555
H7 O7 0.990869 1_555
H8 O9 1.016699 1_545
H8 O2 1.630070 1_555
H9 O1 0.991752 1_565
