# generated using pymatgen
data_LiCr3(FeO4)2
_symmetry_space_group_name_H-M   'P 1'
_cell_length_a   6.00355077
_cell_length_b   6.00355077
_cell_length_c   6.00355113
_cell_angle_alpha   59.93276310
_cell_angle_beta   59.93276310
_cell_angle_gamma   59.93275856
_symmetry_Int_Tables_number   1
_chemical_formula_structural   LiCr3(FeO4)2
_chemical_formula_sum   'Li1 Cr3 Fe2 O8'
_cell_volume   152.77304659
_cell_formula_units_Z   1
loop_
 _symmetry_equiv_pos_site_id
 _symmetry_equiv_pos_as_xyz
  1  'x, y, z'
loop_
 _atom_site_type_symbol
 _atom_site_label
 _atom_site_symmetry_multiplicity
 _atom_site_fract_x
 _atom_site_fract_y
 _atom_site_fract_z
 _atom_site_occupancy
  Li  Li0  1  0.75023700  0.75023700  0.75023700  1
  Cr  Cr0  1  0.86583500  0.37804600  0.37804600  1
  Cr  Cr1  1  0.37804600  0.86583500  0.37804600  1
  Cr  Cr2  1  0.37804600  0.37804600  0.86583500  1
  Fe  Fe0  1  0.99995100  0.99995100  0.99995100  1
  Fe  Fe1  1  0.37948800  0.37948800  0.37948800  1
  O  O0  1  0.61423500  0.15983700  0.61423500  1
  O  O1  1  0.61423500  0.61423500  0.15983700  1
  O  O2  1  0.15983700  0.61423500  0.61423500  1
  O  O3  1  0.61206500  0.61206500  0.61206500  1
  O  O4  1  0.13303600  0.13303600  0.13303600  1
  O  O5  1  0.60346300  0.13076800  0.13076800  1
  O  O6  1  0.13076800  0.60346300  0.13076800  1
  O  O7  1  0.13076800  0.13076800  0.60346300  1
loop_
_geom_bond_atom_site_label_1
_geom_bond_atom_site_label_2
_geom_bond_distance
_geom_bond_site_symmetry_2
Li0 O2 2.006122 1_655
Li0 O0 2.006122 1_565
Li0 O1 2.006122 1_556
Li0 O3 2.032939 1_555
Cr0 O3 1.989249 1_555
Cr0 O1 1.995914 1_555
Cr0 O0 1.995914 1_555
Cr0 O4 2.083225 1_655
Cr0 O7 2.083944 1_655
Cr0 O6 2.083944 1_655
Cr1 O3 1.989249 1_555
Cr1 O1 1.995914 1_555
Cr1 O2 1.995914 1_555
Cr1 O4 2.083225 1_565
Cr1 O7 2.083944 1_565
Cr1 O5 2.083944 1_565
Cr2 O3 1.989249 1_555
Cr2 O2 1.995914 1_555
Cr2 O0 1.995914 1_555
Cr2 O4 2.083225 1_556
Cr2 O5 2.083944 1_556
Cr2 O6 2.083944 1_556
Fe0 O6 1.941954 1_656
Fe0 O5 1.941954 1_566
Fe0 O7 1.941954 1_665
Fe0 O4 1.958094 1_666
Fe1 O0 1.994251 1_555
Fe1 O2 1.994251 1_555
Fe1 O1 1.994251 1_555
Fe1 O6 2.116070 1_555
Fe1 O5 2.116070 1_555
Fe1 O7 2.116070 1_555
