# generated using pymatgen
data_Cs2NiO2
_symmetry_space_group_name_H-M   'P 1'
_cell_length_a   7.47145823
_cell_length_b   7.47145823
_cell_length_c   7.47145823
_cell_angle_alpha   145.71602723
_cell_angle_beta   145.71602723
_cell_angle_gamma   49.26875096
_symmetry_Int_Tables_number   1
_chemical_formula_structural   Cs2NiO2
_chemical_formula_sum   'Cs2 Ni1 O2'
_cell_volume   131.73873089
_cell_formula_units_Z   1
loop_
 _symmetry_equiv_pos_site_id
 _symmetry_equiv_pos_as_xyz
  1  'x, y, z'
loop_
 _atom_site_type_symbol
 _atom_site_label
 _atom_site_symmetry_multiplicity
 _atom_site_fract_x
 _atom_site_fract_y
 _atom_site_fract_z
 _atom_site_occupancy
  Cs  Cs0  1  0.34920921  0.34920921  0.00000000  1
  Cs  Cs1  1  0.65079079  0.65079079  -0.00000000  1
  Ni  Ni0  1  -0.00000000  -0.00000000  -0.00000000  1
  O  O0  1  0.12434534  0.12434534  -0.00000000  1
  O  O1  1  0.87565466  0.87565466  0.00000000  1
loop_
_geom_bond_atom_site_label_1
_geom_bond_atom_site_label_2
_geom_bond_distance
_geom_bond_site_symmetry_2
Cs0 O0 3.054305 1_555
Cs0 O1 3.134947 1_556
Cs0 O1 3.134947 1_444
Cs0 O1 3.134947 1_545
Cs0 O1 3.134947 1_455
Cs1 O1 3.054305 1_555
Cs1 O0 3.134947 1_655
Cs1 O0 3.134947 1_666
Cs1 O0 3.134947 1_554
Cs1 O0 3.134947 1_565
Ni0 O1 1.688971 1_445
Ni0 O0 1.688971 1_555
