# generated using pymatgen
data_Li12Mn2Fe3O16
_symmetry_space_group_name_H-M   'P 1'
_cell_length_a   5.81716500
_cell_length_b   5.85858233
_cell_length_c   9.73529637
_cell_angle_alpha   91.61792386
_cell_angle_beta   89.71965537
_cell_angle_gamma   118.89135814
_symmetry_Int_Tables_number   1
_chemical_formula_structural   Li12Mn2Fe3O16
_chemical_formula_sum   'Li12 Mn2 Fe3 O16'
_cell_volume   290.35742153
_cell_formula_units_Z   1
loop_
 _symmetry_equiv_pos_site_id
 _symmetry_equiv_pos_as_xyz
  1  'x, y, z'
loop_
 _atom_site_type_symbol
 _atom_site_label
 _atom_site_symmetry_multiplicity
 _atom_site_fract_x
 _atom_site_fract_y
 _atom_site_fract_z
 _atom_site_occupancy
  Li  Li0  1  0.84979900  0.69569900  0.04087800  1
  Li  Li1  1  0.98836600  0.01669000  0.48721000  1
  Li  Li2  1  0.79321300  0.13951400  0.76848900  1
  Li  Li3  1  0.18118000  0.36171700  0.26372400  1
  Li  Li4  1  0.19364700  0.41858900  0.51750400  1
  Li  Li5  1  0.84606100  0.18457600  0.02302500  1
  Li  Li6  1  0.31504300  0.14666000  0.77094100  1
  Li  Li7  1  0.29200000  0.61238400  0.76708200  1
  Li  Li8  1  0.36164500  0.19099400  0.02201500  1
  Li  Li9  1  0.61139800  0.79493900  0.55887900  1
  Li  Li10  1  0.68548100  0.36267500  0.25465800  1
  Li  Li11  1  0.16005100  0.80384000  0.55964600  1
  Mn  Mn0  1  0.63590500  0.30335500  0.53014000  1
  Mn  Mn1  1  0.33759900  0.67557100  0.01867300  1
  Fe  Fe0  1  0.66153200  0.84750100  0.27823100  1
  Fe  Fe1  1  0.81711300  0.65393000  0.78449600  1
  Fe  Fe2  1  0.17060000  0.85079700  0.28034900  1
  O  O0  1  0.81247600  0.17266800  0.40422600  1
  O  O1  1  0.18716300  0.36386500  0.92128800  1
  O  O2  1  0.49469000  0.01652200  0.63860300  1
  O  O3  1  0.51048800  0.55012600  0.14876700  1
  O  O4  1  0.32467900  0.16910600  0.40789300  1
  O  O5  1  0.65103200  0.82184800  0.90397800  1
  O  O6  1  0.68574200  0.36799700  0.89450800  1
  O  O7  1  0.95160700  0.47356300  0.64539300  1
  O  O8  1  0.33222900  0.69679400  0.38757300  1
  O  O9  1  0.03911600  0.55355400  0.14984900  1
  O  O10  1  0.48722100  0.47311300  0.64615500  1
  O  O11  1  0.17044200  0.81854900  0.90247600  1
  O  O12  1  0.82343300  0.67634100  0.39951700  1
  O  O13  1  0.49673000  0.00129800  0.14835700  1
  O  O14  1  0.95825700  0.94316000  0.67502300  1
  O  O15  1  0.99890500  0.00290700  0.18070000  1
loop_
_geom_bond_atom_site_label_1
_geom_bond_atom_site_label_2
_geom_bond_distance
_geom_bond_site_symmetry_2
Li0 O9 1.994820 1_655
Li0 O3 2.032287 1_555
Li0 O15 2.051642 1_565
Li0 O11 2.132017 1_654
Li0 O5 2.134441 1_554
Li0 O6 2.171525 1_554
Li1 O0 1.867584 1_555
Li1 O14 1.878240 1_545
Li1 O4 1.886037 1_655
Li1 O12 1.920551 1_545
Li2 O2 1.973489 1_555
Li2 O14 2.018071 1_545
Li2 O6 2.096709 1_555
Li2 O7 2.119979 1_555
Li2 O5 2.127919 1_545
Li2 O1 2.490878 1_655
Li3 O15 1.988745 1_455
Li3 O3 2.036192 1_555
Li3 O9 2.037625 1_555
Li3 O8 2.071087 1_555
Li3 O4 2.225124 1_555
Li3 O0 2.336503 1_455
Li4 O8 1.934738 1_555
Li4 O7 2.008647 1_455
Li4 O10 2.014537 1_555
Li4 O4 2.199213 1_555
Li4 O0 2.248495 1_455
Li5 O1 2.011726 1_654
Li5 O6 2.155363 1_554
Li5 O5 2.165722 1_544
Li5 O13 2.170818 1_555
Li5 O9 2.230588 1_655
Li5 O15 2.302088 1_555
Li6 O2 2.008607 1_555
Li6 O14 2.041087 1_445
Li6 O10 2.098833 1_555
Li6 O11 2.146726 1_545
Li6 O6 2.239196 1_555
Li6 O1 2.261394 1_555
Li7 O1 2.000489 1_555
Li7 O10 2.041909 1_555
Li7 O7 2.097187 1_455
Li7 O11 2.102988 1_555
Li7 O5 2.258845 1_555
Li7 O2 2.452706 1_565
Li8 O1 2.019074 1_554
Li8 O13 2.072672 1_555
Li8 O6 2.081172 1_554
Li8 O3 2.191506 1_555
Li8 O11 2.208317 1_544
Li8 O15 2.422969 1_455
Li9 O2 1.880988 1_565
Li9 O10 1.888652 1_555
Li9 O14 2.092268 1_555
Li9 O8 2.195273 1_555
Li9 O12 2.271485 1_555
Li9 O0 2.490347 1_565
Li10 O9 2.084342 1_655
Li10 O13 2.097621 1_555
Li10 O12 2.109370 1_555
Li10 O3 2.111741 1_555
Li10 O0 2.191300 1_555
Li10 O4 2.383601 1_555
Li11 O2 1.884037 1_565
Li11 O7 1.930108 1_455
Li11 O14 2.041322 1_455
Li11 O8 2.175761 1_555
Li11 O12 2.318031 1_455
Li11 O4 2.421457 1_565
Mn0 O2 1.836149 1_555
Mn0 O10 1.941920 1_555
Mn0 O7 1.952789 1_555
Mn0 O0 1.959194 1_555
Mn0 O4 1.976101 1_555
Mn0 O12 2.328519 1_555
Mn1 O1 1.834563 1_554
Mn1 O11 1.943747 1_554
Mn1 O5 1.956993 1_554
Mn1 O3 1.983655 1_555
Mn1 O9 1.996779 1_555
Mn1 O13 2.064187 1_565
Fe0 O3 1.950245 1_555
Fe0 O15 1.971310 1_565
Fe0 O8 1.995245 1_555
Fe0 O0 2.041290 1_565
Fe0 O13 2.059229 1_565
Fe0 O12 2.068094 1_555
Fe1 O6 1.842143 1_555
Fe1 O14 1.852094 1_555
Fe1 O5 2.024100 1_555
Fe1 O7 2.066468 1_555
Fe1 O11 2.125790 1_655
Fe1 O10 2.144544 1_555
Fe2 O15 1.910808 1_465
Fe2 O8 1.915776 1_555
Fe2 O9 1.956819 1_555
Fe2 O4 2.021819 1_565
Fe2 O13 2.109865 1_565
Fe2 O12 2.125682 1_455
