# generated using pymatgen
data_Co3OF5
_symmetry_space_group_name_H-M   'P 1'
_cell_length_a   4.71648538
_cell_length_b   4.71648538
_cell_length_c   9.48302900
_cell_angle_alpha   90.00000000
_cell_angle_beta   90.00000000
_cell_angle_gamma   87.52689191
_symmetry_Int_Tables_number   1
_chemical_formula_structural   Co3OF5
_chemical_formula_sum   'Co6 O2 F10'
_cell_volume   210.75571818
_cell_formula_units_Z   2
loop_
 _symmetry_equiv_pos_site_id
 _symmetry_equiv_pos_as_xyz
  1  'x, y, z'
loop_
 _atom_site_type_symbol
 _atom_site_label
 _atom_site_symmetry_multiplicity
 _atom_site_fract_x
 _atom_site_fract_y
 _atom_site_fract_z
 _atom_site_occupancy
  Co  Co0  1  0.00922900  0.99077100  0.00731600  1
  Co  Co1  1  0.01457900  0.98542100  0.33333300  1
  Co  Co2  1  0.00922900  0.99077100  0.65935000  1
  Co  Co3  1  0.47306900  0.52693100  0.16902400  1
  Co  Co4  1  0.50901300  0.49098700  0.83333300  1
  Co  Co5  1  0.47306900  0.52693100  0.49764200  1
  O  O0  1  0.20305900  0.79694100  0.17061800  1
  O  O1  1  0.20305900  0.79694100  0.49604800  1
  F  F0  1  0.20251400  0.79748600  0.83333300  1
  F  F1  1  0.31055600  0.30683900  0.33333300  1
  F  F2  1  0.30713300  0.30244700  0.00283300  1
  F  F3  1  0.30713300  0.30244700  0.66383300  1
  F  F4  1  0.69755300  0.69286700  0.66383300  1
  F  F5  1  0.69755300  0.69286700  0.00283300  1
  F  F6  1  0.69316100  0.68944400  0.33333300  1
  F  F7  1  0.78792400  0.21207600  0.17064600  1
  F  F8  1  0.81424400  0.18575600  0.83333300  1
  F  F9  1  0.78792400  0.21207600  0.49602100  1
loop_
_geom_bond_atom_site_label_1
_geom_bond_atom_site_label_2
_geom_bond_distance
_geom_bond_site_symmetry_2
Co0 O0 1.999384 1_555
Co0 F0 2.076662 1_554
Co0 F5 2.077305 1_455
Co0 F2 2.077305 1_565
Co0 F8 2.083417 1_464
Co0 F7 2.117526 1_465
Co1 O0 1.973134 1_555
Co1 O1 1.973134 1_555
Co1 F6 2.104641 1_455
Co1 F1 2.104641 1_565
Co1 F7 2.137075 1_465
Co1 F9 2.137081 1_465
Co2 O1 1.999384 1_555
Co2 F0 2.076662 1_555
Co2 F4 2.077305 1_455
Co2 F3 2.077305 1_565
Co2 F8 2.083417 1_465
Co2 F9 2.117519 1_465
Co3 O0 1.761778 1_555
Co3 F6 2.039992 1_555
Co3 F1 2.039992 1_555
Co3 F7 2.054367 1_555
Co3 F2 2.070940 1_555
Co3 F5 2.070940 1_555
Co4 F8 1.991517 1_555
Co4 F0 1.999790 1_555
Co4 F3 2.086647 1_555
Co4 F4 2.086647 1_555
Co4 F5 2.086647 1_556
Co4 F2 2.086647 1_556
Co5 O1 1.761778 1_555
Co5 F6 2.039992 1_555
Co5 F1 2.039992 1_555
Co5 F9 2.054367 1_555
Co5 F4 2.070940 1_555
Co5 F3 2.070940 1_555
