# generated using pymatgen
data_LiSiPCO7
_symmetry_space_group_name_H-M   'P 1'
_cell_length_a   6.03012900
_cell_length_b   4.96868100
_cell_length_c   8.43761999
_cell_angle_alpha   85.27977745
_cell_angle_beta   90.00000000
_cell_angle_gamma   90.00000000
_symmetry_Int_Tables_number   1
_chemical_formula_structural   LiSiPCO7
_chemical_formula_sum   'Li2 Si2 P2 C2 O14'
_cell_volume   251.94876005
_cell_formula_units_Z   2
loop_
 _symmetry_equiv_pos_site_id
 _symmetry_equiv_pos_as_xyz
  1  'x, y, z'
loop_
 _atom_site_type_symbol
 _atom_site_label
 _atom_site_symmetry_multiplicity
 _atom_site_fract_x
 _atom_site_fract_y
 _atom_site_fract_z
 _atom_site_occupancy
  Li  Li0  1  0.47823400  0.76809800  0.80546400  1
  Li  Li1  1  0.97823400  0.23190200  0.19453600  1
  Si  Si0  1  0.24810200  0.21133500  0.66607900  1
  Si  Si1  1  0.74810200  0.78866500  0.33392100  1
  P  P0  1  0.75426200  0.26395000  0.56713900  1
  P  P1  1  0.25426200  0.73605000  0.43286100  1
  C  C0  1  0.25154400  0.27337300  0.93105700  1
  C  C1  1  0.75154400  0.72662700  0.06894300  1
  O  O0  1  0.73466500  0.68673100  0.92722300  1
  O  O1  1  0.25314100  0.03632400  0.86686700  1
  O  O2  1  0.26351000  0.46516300  0.80897300  1
  O  O3  1  0.95677900  0.20290300  0.67279000  1
  O  O4  1  0.55191800  0.19214200  0.67282200  1
  O  O5  1  0.25838000  0.90040400  0.58076800  1
  O  O6  1  0.75161300  0.56890200  0.50711400  1
  O  O7  1  0.25161300  0.43109800  0.49288600  1
  O  O8  1  0.75838000  0.09959600  0.41923200  1
  O  O9  1  0.05191800  0.80785800  0.32717800  1
  O  O10  1  0.45677900  0.79709700  0.32721000  1
  O  O11  1  0.76351000  0.53483700  0.19102700  1
  O  O12  1  0.75314100  0.96367600  0.13313300  1
  O  O13  1  0.23466500  0.31326900  0.07277700  1
loop_
_geom_bond_atom_site_label_1
_geom_bond_atom_site_label_2
_geom_bond_distance
_geom_bond_site_symmetry_2
Li0 O0 1.881922 1_555
Li0 O2 1.983853 1_555
Li0 O1 2.000150 1_565
Li0 O4 2.345442 1_565
Li0 O5 2.362007 1_555
Li1 O13 1.881922 1_655
Li1 O11 1.983853 1_555
Li1 O12 2.000150 1_545
Li1 O9 2.345442 1_645
Li1 O8 2.362007 1_555
C0 O13 1.232297 1_556
C0 O1 1.336296 1_555
C0 O2 1.346423 1_555
C1 O0 1.232297 1_554
C1 O12 1.336296 1_555
C1 O11 1.346423 1_555
O1 Si0 1.839794 1_555
O2 Si0 1.817463 1_555
O3 P0 1.527584 1_555
O3 Si0 1.758016 1_655
O4 P0 1.535865 1_555
O4 Si0 1.835169 1_555
O5 P1 1.546829 1_555
O5 Si0 1.758345 1_565
O6 P0 1.557666 1_555
O6 Si1 1.750900 1_555
O7 P1 1.557666 1_555
O7 Si0 1.750900 1_555
O8 P0 1.546829 1_555
O8 Si1 1.758345 1_545
O9 P1 1.535865 1_555
O9 Si1 1.835169 1_455
O10 P1 1.527584 1_555
O10 Si1 1.758016 1_555
O11 Si1 1.817463 1_555
O12 Si1 1.839794 1_555
