# generated using pymatgen
data_LiMnSiO4
_symmetry_space_group_name_H-M   'P 1'
_cell_length_a   5.57779517
_cell_length_b   5.57772317
_cell_length_c   8.65444800
_cell_angle_alpha   89.99823590
_cell_angle_beta   90.00145778
_cell_angle_gamma   90.02829988
_symmetry_Int_Tables_number   1
_chemical_formula_structural   LiMnSiO4
_chemical_formula_sum   'Li4 Mn4 Si4 O16'
_cell_volume   269.25193769
_cell_formula_units_Z   4
loop_
 _symmetry_equiv_pos_site_id
 _symmetry_equiv_pos_as_xyz
  1  'x, y, z'
loop_
 _atom_site_type_symbol
 _atom_site_label
 _atom_site_symmetry_multiplicity
 _atom_site_fract_x
 _atom_site_fract_y
 _atom_site_fract_z
 _atom_site_occupancy
  Li  Li0  1  0.00026500  0.22682100  0.00043100  1
  Li  Li1  1  0.99970900  0.77310600  0.50039500  1
  Li  Li2  1  0.22682900  0.00027700  0.24955900  1
  Li  Li3  1  0.77311800  0.99971900  0.74958200  1
  Mn  Mn0  1  0.49972900  0.76913200  0.49920800  1
  Mn  Mn1  1  0.76890700  0.49956100  0.75095500  1
  Mn  Mn2  1  0.23126700  0.50003900  0.25080700  1
  Mn  Mn3  1  0.50003900  0.23109400  0.99921200  1
  Si  Si0  1  0.26240100  0.26244600  0.62497900  1
  Si  Si1  1  0.26262900  0.73748400  0.87497200  1
  Si  Si2  1  0.73749900  0.26267200  0.37503200  1
  Si  Si3  1  0.73770700  0.73771600  0.12499700  1
  O  O0  1  0.98402700  0.25953200  0.26761800  1
  O  O1  1  0.98429700  0.74073100  0.23228000  1
  O  O2  1  0.25950700  0.98399400  0.98238000  1
  O  O3  1  0.25923900  0.01578600  0.51771100  1
  O  O4  1  0.74070900  0.98427700  0.01767100  1
  O  O5  1  0.74049200  0.01597900  0.48236500  1
  O  O6  1  0.01578500  0.25923500  0.73226200  1
  O  O7  1  0.01592000  0.74042400  0.76766200  1
  O  O8  1  0.25981900  0.49337000  0.98875200  1
  O  O9  1  0.25923200  0.50644900  0.51136600  1
  O  O10  1  0.49338500  0.25983600  0.26123100  1
  O  O11  1  0.49357500  0.74076200  0.23860700  1
  O  O12  1  0.50637600  0.25919100  0.73861900  1
  O  O13  1  0.50666100  0.74013900  0.76124300  1
  O  O14  1  0.74014400  0.50666900  0.48875000  1
  O  O15  1  0.74073500  0.49355900  0.01135600  1
loop_
_geom_bond_atom_site_label_1
_geom_bond_atom_site_label_2
_geom_bond_distance
_geom_bond_site_symmetry_2
Li0 O4 1.986578 1_445
Li0 O2 1.987897 1_544
Li0 O8 2.077119 1_554
Li0 O15 2.078501 1_455
Li0 O0 2.321322 1_455
Li0 O6 2.329488 1_554
Li1 O3 1.987039 1_665
Li1 O5 1.987944 1_565
Li1 O14 2.076701 1_555
Li1 O9 2.078161 1_655
Li1 O7 2.321977 1_655
Li1 O1 2.328990 1_555
Li2 O1 1.986516 1_445
Li2 O0 1.987859 1_455
Li2 O10 2.077165 1_555
Li2 O11 2.078486 1_545
Li2 O2 2.321248 1_544
Li2 O3 2.329339 1_555
Li3 O6 1.986932 1_665
Li3 O7 1.988023 1_655
Li3 O13 2.076846 1_555
Li3 O12 2.078299 1_565
Li3 O5 2.321533 1_565
Li3 O4 2.328786 1_556
Mn0 O5 1.928360 1_565
Mn0 O3 1.928624 1_565
Mn0 O14 1.987844 1_555
Mn0 O9 1.988801 1_555
Mn0 O11 2.261166 1_555
Mn0 O13 2.273851 1_555
Mn1 O6 1.929018 1_655
Mn1 O7 1.929322 1_655
Mn1 O13 1.987503 1_555
Mn1 O12 1.987784 1_555
Mn1 O15 2.259348 1_556
Mn1 O14 2.275245 1_555
Mn2 O0 1.928912 1_455
Mn2 O1 1.930671 1_455
Mn2 O10 1.985610 1_555
Mn2 O11 1.988134 1_555
Mn2 O9 2.260661 1_555
Mn2 O8 2.273837 1_554
Mn3 O2 1.928465 1_545
Mn3 O4 1.929928 1_546
Mn3 O8 1.986335 1_555
Mn3 O15 1.988649 1_556
Mn3 O12 2.260998 1_555
Mn3 O10 2.273600 1_556
O0 Si2 1.659946 1_555
O1 Si3 1.659538 1_555
O2 Si1 1.659822 1_555
O3 Si0 1.659825 1_555
O4 Si3 1.659592 1_555
O5 Si2 1.660249 1_555
O6 Si0 1.659708 1_555
O7 Si1 1.660227 1_555
O8 Si1 1.680398 1_555
O9 Si0 1.679083 1_555
O10 Si2 1.680525 1_555
O11 Si3 1.679703 1_555
O12 Si0 1.679117 1_555
O13 Si1 1.679820 1_555
O14 Si2 1.679596 1_555
O15 Si3 1.679962 1_555
