# generated using pymatgen
data_Ba2Sm2Fe4O11
_symmetry_space_group_name_H-M   'P 1'
_cell_length_a   8.85215937
_cell_length_b   8.85215937
_cell_length_c   3.94164100
_cell_angle_alpha   90.00000000
_cell_angle_beta   90.00000000
_cell_angle_gamma   125.89175446
_symmetry_Int_Tables_number   1
_chemical_formula_structural   Ba2Sm2Fe4O11
_chemical_formula_sum   'Ba2 Sm2 Fe4 O11'
_cell_volume   250.22350069
_cell_formula_units_Z   1
loop_
 _symmetry_equiv_pos_site_id
 _symmetry_equiv_pos_as_xyz
  1  'x, y, z'
loop_
 _atom_site_type_symbol
 _atom_site_label
 _atom_site_symmetry_multiplicity
 _atom_site_fract_x
 _atom_site_fract_y
 _atom_site_fract_z
 _atom_site_occupancy
  Ba  Ba0  1  0.00000000  0.50000000  0.50000000  1
  Ba  Ba1  1  0.50000000  0.00000000  0.50000000  1
  Sm  Sm0  1  0.22855900  0.22855900  0.50000000  1
  Sm  Sm1  1  0.77144100  0.77144100  0.50000000  1
  Fe  Fe0  1  0.62390000  0.37610000  0.00000000  1
  Fe  Fe1  1  0.87707600  0.12292400  0.00000000  1
  Fe  Fe2  1  0.12292400  0.87707600  0.00000000  1
  Fe  Fe3  1  0.37610000  0.62390000  0.00000000  1
  O  O0  1  0.84416900  0.63829500  0.00000000  1
  O  O1  1  0.15583100  0.36170500  0.00000000  1
  O  O2  1  0.25250000  0.74750000  0.00000000  1
  O  O3  1  0.59030400  0.40969600  0.50000000  1
  O  O4  1  0.11602900  0.88397100  0.50000000  1
  O  O5  1  0.36170500  0.15583100  0.00000000  1
  O  O6  1  0.63829500  0.84416900  0.00000000  1
  O  O7  1  0.74750000  0.25250000  0.00000000  1
  O  O8  1  0.88397100  0.11602900  0.50000000  1
  O  O9  1  0.00000000  0.00000000  0.00000000  1
  O  O10  1  0.40969600  0.59030400  0.50000000  1
loop_
_geom_bond_atom_site_label_1
_geom_bond_atom_site_label_2
_geom_bond_distance
_geom_bond_site_symmetry_2
Ba0 O7 2.817508 1_456
Ba0 O7 2.817508 1_455
Ba0 O2 2.817508 1_556
Ba0 O2 2.817508 1_555
Ba0 O4 2.917978 1_555
Ba0 O8 2.917978 1_455
Ba0 O1 3.043966 1_556
Ba0 O1 3.043966 1_555
Ba0 O0 3.043966 1_456
Ba0 O0 3.043966 1_455
Ba0 O10 3.223766 1_555
Ba0 O3 3.223766 1_455
Ba1 O2 2.817508 1_545
Ba1 O2 2.817508 1_546
Ba1 O7 2.817508 1_555
Ba1 O7 2.817508 1_556
Ba1 O8 2.917978 1_555
Ba1 O4 2.917978 1_545
Ba1 O5 3.043966 1_555
Ba1 O5 3.043966 1_556
Ba1 O6 3.043966 1_546
Ba1 O6 3.043966 1_545
Ba1 O3 3.223766 1_555
Ba1 O10 3.223766 1_545
Fe0 O7 1.948809 1_555
Fe0 O0 1.970438 1_555
Fe0 O5 1.970438 1_555
Fe0 O3 2.040766 1_555
Fe0 O3 2.040766 1_554
Fe1 O9 1.938151 1_655
Fe1 O8 1.973817 1_555
Fe1 O8 1.973817 1_554
Fe1 O7 2.043033 1_555
Fe1 O6 2.107422 1_545
Fe1 O1 2.107422 1_655
Fe2 O9 1.938151 1_565
Fe2 O4 1.973817 1_555
Fe2 O4 1.973817 1_554
Fe2 O2 2.043033 1_555
Fe2 O0 2.107422 1_455
Fe2 O5 2.107422 1_565
Fe3 O2 1.948809 1_555
Fe3 O6 1.970438 1_555
Fe3 O1 1.970438 1_555
Fe3 O10 2.040766 1_554
Fe3 O10 2.040766 1_555
O0 Sm1 2.564660 1_554
O0 Sm1 2.564660 1_555
O1 Sm0 2.564660 1_555
O1 Sm0 2.564660 1_554
O3 Sm1 2.608621 1_555
O3 Sm0 2.608621 1_555
O4 Sm0 2.595027 1_565
O4 Sm1 2.595027 1_455
O5 Sm0 2.564660 1_555
O5 Sm0 2.564660 1_554
O6 Sm1 2.564660 1_554
O6 Sm1 2.564660 1_555
O8 Sm0 2.595027 1_655
O8 Sm1 2.595027 1_545
O9 Sm0 2.696564 1_555
O9 Sm0 2.696564 1_554
O9 Sm1 2.696564 1_444
O9 Sm1 2.696564 1_445
O10 Sm1 2.608621 1_555
O10 Sm0 2.608621 1_555
