# generated using pymatgen
data_Li3Ni2(CO3)4
_symmetry_space_group_name_H-M   'P 1'
_cell_length_a   9.47496400
_cell_length_b   6.88485500
_cell_length_c   8.37218803
_cell_angle_alpha   70.06498515
_cell_angle_beta   90.00000000
_cell_angle_gamma   90.00000000
_symmetry_Int_Tables_number   1
_chemical_formula_structural   Li3Ni2(CO3)4
_chemical_formula_sum   'Li6 Ni4 C8 O24'
_cell_volume   513.42395119
_cell_formula_units_Z   2
loop_
 _symmetry_equiv_pos_site_id
 _symmetry_equiv_pos_as_xyz
  1  'x, y, z'
loop_
 _atom_site_type_symbol
 _atom_site_label
 _atom_site_symmetry_multiplicity
 _atom_site_fract_x
 _atom_site_fract_y
 _atom_site_fract_z
 _atom_site_occupancy
  Li  Li0  1  0.19517300  0.30113000  0.83152600  1
  Li  Li1  1  0.88610000  0.25218400  0.09899000  1
  Li  Li2  1  0.38610000  0.74781600  0.90101000  1
  Li  Li3  1  0.69517300  0.69887000  0.16847400  1
  Li  Li4  1  0.61386500  0.75343600  0.59758700  1
  Li  Li5  1  0.11386500  0.24656400  0.40241300  1
  Ni  Ni0  1  0.38546200  0.29026800  0.20083300  1
  Ni  Ni1  1  0.88546200  0.70973200  0.79916700  1
  Ni  Ni2  1  0.11617000  0.78783600  0.69958700  1
  Ni  Ni3  1  0.61617000  0.21216400  0.30041300  1
  C  C0  1  0.60604400  0.49380100  0.97401700  1
  C  C1  1  0.10604400  0.50619900  0.02598300  1
  C  C2  1  0.49026600  0.51734300  0.39408100  1
  C  C3  1  0.99026600  0.48265700  0.60591900  1
  C  C4  1  0.00449900  0.02092300  0.88791200  1
  C  C5  1  0.50449900  0.97907700  0.11208800  1
  C  C6  1  0.89242200  0.99226200  0.47937500  1
  C  C7  1  0.39242200  0.00773800  0.52062500  1
  O  O0  1  0.15426000  0.37842100  0.16114300  1
  O  O1  1  0.47115500  0.46559600  0.99488200  1
  O  O2  1  0.69411900  0.39903400  0.09710800  1
  O  O3  1  0.19411900  0.60096600  0.90289200  1
  O  O4  1  0.97115500  0.53440400  0.00511800  1
  O  O5  1  0.65426000  0.62157900  0.83885700  1
  O  O6  1  0.98233300  0.36960700  0.51721100  1
  O  O7  1  0.61571000  0.44038700  0.37525000  1
  O  O8  1  0.38091800  0.48140300  0.31501200  1
  O  O9  1  0.88091800  0.51859700  0.68498800  1
  O  O10  1  0.11571000  0.55961300  0.62475000  1
  O  O11  1  0.51764100  0.84474000  0.04050100  1
  O  O12  1  0.48233300  0.63039300  0.48278900  1
  O  O13  1  0.88955800  0.91490200  0.90169700  1
  O  O14  1  0.11339100  0.99802900  0.79848300  1
  O  O15  1  0.61339100  0.00197100  0.20151700  1
  O  O16  1  0.38955800  0.08509800  0.09830300  1
  O  O17  1  0.01764100  0.15526000  0.95949900  1
  O  O18  1  0.34492800  0.88172400  0.65896800  1
  O  O19  1  0.02842300  0.96237700  0.49633500  1
  O  O20  1  0.80636900  0.89530200  0.60012600  1
  O  O21  1  0.30636900  0.10469800  0.39987400  1
  O  O22  1  0.52842300  0.03762300  0.50366500  1
  O  O23  1  0.84492800  0.11827600  0.34103200  1
loop_
_geom_bond_atom_site_label_1
_geom_bond_atom_site_label_2
_geom_bond_distance
_geom_bond_site_symmetry_2
Li0 O17 2.062106 1_555
Li0 O10 2.151748 1_555
Li0 O14 2.329248 1_545
Li0 O3 2.336582 1_555
Li1 O23 1.958205 1_555
Li1 O17 1.973312 1_654
Li1 O4 2.000306 1_555
Li1 O2 2.078557 1_555
Li2 O18 1.958205 1_555
Li2 O11 1.973312 1_556
Li2 O1 2.000306 1_555
Li2 O3 2.078557 1_555
Li3 O11 2.062106 1_555
Li3 O7 2.151748 1_555
Li3 O15 2.329248 1_565
Li3 O2 2.336582 1_555
Li4 O12 1.936424 1_555
Li4 O5 1.949462 1_555
Li4 O22 2.013157 1_565
Li4 O20 2.072551 1_555
Li5 O6 1.936424 1_455
Li5 O0 1.949462 1_555
Li5 O19 2.013157 1_545
Li5 O21 2.072551 1_555
Ni0 O8 1.872202 1_555
Ni0 O21 1.875908 1_555
Ni0 O16 1.886941 1_555
Ni0 O1 1.915757 1_554
Ni0 O0 2.267181 1_555
Ni1 O9 1.872202 1_555
Ni1 O20 1.875908 1_555
Ni1 O13 1.886941 1_555
Ni1 O4 1.915757 1_556
Ni1 O5 2.267181 1_555
Ni2 O10 1.879585 1_555
Ni2 O14 1.896718 1_555
Ni2 O3 1.898583 1_555
Ni2 O19 1.906968 1_555
Ni2 O18 2.254225 1_555
Ni3 O7 1.879585 1_555
Ni3 O15 1.896718 1_555
Ni3 O2 1.898583 1_555
Ni3 O22 1.906968 1_555
Ni3 O23 2.254225 1_555
C0 O5 1.258685 1_555
C0 O1 1.295589 1_555
C0 O2 1.313626 1_556
C1 O0 1.258685 1_555
C1 O4 1.295589 1_455
C1 O3 1.313626 1_554
C2 O12 1.247880 1_555
C2 O8 1.297914 1_555
C2 O7 1.332386 1_555
C3 O6 1.247880 1_555
C3 O9 1.297914 1_555
C3 O10 1.332386 1_655
C4 O17 1.268122 1_555
C4 O13 1.294118 1_445
C4 O14 1.315446 1_545
C5 O11 1.268122 1_555
C5 O16 1.294118 1_565
C5 O15 1.315446 1_565
C6 O23 1.269444 1_565
C6 O20 1.293154 1_555
C6 O19 1.305020 1_655
C7 O18 1.269444 1_545
C7 O21 1.293154 1_555
C7 O22 1.305020 1_555
