# generated using pymatgen
data_LiNiPO4
_symmetry_space_group_name_H-M   'P 1'
_cell_length_a   5.00561200
_cell_length_b   8.90052235
_cell_length_c   8.29652844
_cell_angle_alpha   108.61894216
_cell_angle_beta   89.99936890
_cell_angle_gamma   90.00248075
_symmetry_Int_Tables_number   1
_chemical_formula_structural   LiNiPO4
_chemical_formula_sum   'Li4 Ni4 P4 O16'
_cell_volume   350.28615071
_cell_formula_units_Z   4
loop_
 _symmetry_equiv_pos_site_id
 _symmetry_equiv_pos_as_xyz
  1  'x, y, z'
loop_
 _atom_site_type_symbol
 _atom_site_label
 _atom_site_symmetry_multiplicity
 _atom_site_fract_x
 _atom_site_fract_y
 _atom_site_fract_z
 _atom_site_occupancy
  Li  Li0  1  0.83458300  0.99327100  0.11364100  1
  Li  Li1  1  0.16537500  0.99328000  0.61356700  1
  Li  Li2  1  0.32327500  0.50102300  0.25748000  1
  Li  Li3  1  0.67675500  0.50106500  0.75748500  1
  Ni  Ni0  1  0.81569300  0.73245600  0.33648700  1
  Ni  Ni1  1  0.18446500  0.73260100  0.83665100  1
  Ni  Ni2  1  0.65797200  0.23472900  0.97526300  1
  Ni  Ni3  1  0.34187300  0.23504400  0.47556800  1
  P  P0  1  0.31256600  0.86498900  0.22932300  1
  P  P1  1  0.68745900  0.86497300  0.72927700  1
  P  P2  1  0.82115600  0.37009100  0.36417400  1
  P  P3  1  0.17877400  0.37014300  0.86419900  1
  O  O0  1  0.18090100  0.88485700  0.06853700  1
  O  O1  1  0.81910500  0.88482600  0.56848800  1
  O  O2  1  0.31802000  0.35252500  0.02445600  1
  O  O3  1  0.68201200  0.35254600  0.52446000  1
  O  O4  1  0.62016500  0.84908100  0.20431700  1
  O  O5  1  0.37990300  0.84913500  0.70429600  1
  O  O6  1  0.19988000  0.71589300  0.26699300  1
  O  O7  1  0.80021800  0.71590600  0.76700800  1
  O  O8  1  0.74520400  0.22383600  0.20846900  1
  O  O9  1  0.25471300  0.22386700  0.70849900  1
  O  O10  1  0.71341700  0.51962300  0.32756100  1
  O  O11  1  0.28655000  0.51962000  0.82755800  1
  O  O12  1  0.12743200  0.38482900  0.39398300  1
  O  O13  1  0.87249400  0.38481900  0.89400000  1
  O  O14  1  0.23651300  0.01130600  0.38293800  1
  O  O15  1  0.76352800  0.01126600  0.88292100  1
loop_
_geom_bond_atom_site_label_1
_geom_bond_atom_site_label_2
_geom_bond_distance
_geom_bond_site_symmetry_2
Li0 O0 1.961081 1_655
Li0 O4 1.995319 1_555
Li0 O8 1.999894 1_565
Li0 O15 2.003000 1_564
Li1 O1 1.960949 1_455
Li1 O5 1.995634 1_555
Li1 O9 2.000045 1_565
Li1 O14 2.002430 1_565
Li2 O2 1.963053 1_555
Li2 O6 1.987196 1_555
Li2 O12 2.015163 1_555
Li2 O10 2.029240 1_555
Li3 O3 1.963127 1_555
Li3 O7 1.986983 1_555
Li3 O13 2.015358 1_555
Li3 O11 2.029532 1_555
Ni0 O10 1.940718 1_555
Ni0 O1 1.969143 1_555
Ni0 O4 1.991175 1_555
Ni0 O6 1.999540 1_655
Ni1 O11 1.941400 1_555
Ni1 O0 1.968046 1_556
Ni1 O5 1.991435 1_555
Ni1 O7 2.000135 1_455
Ni2 O15 1.961907 1_555
Ni2 O2 1.971899 1_556
Ni2 O13 1.991774 1_555
Ni2 O8 2.015768 1_556
Ni3 O14 1.963938 1_555
Ni3 O3 1.971328 1_555
Ni3 O12 1.990990 1_555
Ni3 O9 2.014351 1_555
O0 P0 1.547824 1_555
O1 P1 1.547734 1_555
O2 P3 1.552852 1_554
O3 P2 1.552574 1_555
O4 P0 1.554054 1_555
O5 P1 1.553782 1_555
O6 P0 1.562567 1_555
O7 P1 1.562746 1_555
O8 P2 1.560142 1_555
O9 P3 1.560230 1_555
O10 P2 1.553274 1_555
O11 P3 1.552955 1_555
O12 P2 1.551785 1_455
O13 P3 1.551784 1_655
O14 P0 1.550934 1_545
O15 P1 1.550942 1_545
