# generated using pymatgen
data_Li2MnFeO4
_symmetry_space_group_name_H-M   'P 1'
_cell_length_a   3.04173100
_cell_length_b   5.10116400
_cell_length_c   5.14113306
_cell_angle_alpha   72.42666535
_cell_angle_beta   90.00000000
_cell_angle_gamma   90.00000000
_symmetry_Int_Tables_number   1
_chemical_formula_structural   Li2MnFeO4
_chemical_formula_sum   'Li2 Mn1 Fe1 O4'
_cell_volume   76.04887270
_cell_formula_units_Z   1
loop_
 _symmetry_equiv_pos_site_id
 _symmetry_equiv_pos_as_xyz
  1  'x, y, z'
loop_
 _atom_site_type_symbol
 _atom_site_label
 _atom_site_symmetry_multiplicity
 _atom_site_fract_x
 _atom_site_fract_y
 _atom_site_fract_z
 _atom_site_occupancy
  Li  Li0  1  0.00000000  0.00000000  0.00000000  1
  Li  Li1  1  0.50000000  0.50000000  0.00000000  1
  Mn  Mn0  1  0.50000000  0.00000000  0.50000000  1
  Fe  Fe0  1  0.00000000  0.50000000  0.50000000  1
  O  O0  1  0.00000000  0.74775000  0.73695100  1
  O  O1  1  0.50000000  0.25026000  0.72118500  1
  O  O2  1  0.00000000  0.25225000  0.26304900  1
  O  O3  1  0.50000000  0.74974000  0.27881500  1
loop_
_geom_bond_atom_site_label_1
_geom_bond_atom_site_label_2
_geom_bond_distance
_geom_bond_site_symmetry_2
Li0 O0 2.129670 1_544
Li0 O2 2.129670 1_555
Li0 O3 2.211895 1_545
Li0 O1 2.211895 1_454
Li0 O3 2.211895 1_445
Li0 O1 2.211895 1_554
Li1 O0 2.169583 1_554
Li1 O2 2.169583 1_555
Li1 O0 2.169583 1_654
Li1 O2 2.169583 1_655
Li1 O3 2.186414 1_555
Li1 O1 2.186414 1_554
Mn0 O1 1.949218 1_555
Mn0 O3 1.949218 1_545
Mn0 O0 2.122792 1_545
Mn0 O0 2.122792 1_645
Mn0 O2 2.122792 1_655
Mn0 O2 2.122792 1_555
Fe0 O2 2.002724 1_555
Fe0 O0 2.002724 1_555
Fe0 O1 2.086701 1_455
Fe0 O1 2.086701 1_555
Fe0 O3 2.086701 1_455
Fe0 O3 2.086701 1_555
