# generated using pymatgen
data_TbCeO4
_symmetry_space_group_name_H-M   'P 1'
_cell_length_a   5.60429200
_cell_length_b   3.81278800
_cell_length_c   7.63686918
_cell_angle_alpha   85.45137356
_cell_angle_beta   90.00000000
_cell_angle_gamma   90.00000000
_symmetry_Int_Tables_number   1
_chemical_formula_structural   TbCeO4
_chemical_formula_sum   'Tb2 Ce2 O8'
_cell_volume   162.67047937
_cell_formula_units_Z   2
loop_
 _symmetry_equiv_pos_site_id
 _symmetry_equiv_pos_as_xyz
  1  'x, y, z'
loop_
 _atom_site_type_symbol
 _atom_site_label
 _atom_site_symmetry_multiplicity
 _atom_site_fract_x
 _atom_site_fract_y
 _atom_site_fract_z
 _atom_site_occupancy
  Tb  Tb0  1  0.25000000  0.22626700  0.87343400  1
  Tb  Tb1  1  0.75000000  0.77373300  0.12656600  1
  Ce  Ce0  1  0.75000000  0.73278600  0.62494400  1
  Ce  Ce1  1  0.25000000  0.26721400  0.37505600  1
  O  O0  1  0.99427700  0.72215500  0.88153700  1
  O  O1  1  0.50572300  0.72215500  0.88153700  1
  O  O2  1  0.49767800  0.23579100  0.62545100  1
  O  O3  1  0.00232200  0.23579100  0.62545100  1
  O  O4  1  0.50232200  0.76420900  0.37454900  1
  O  O5  1  0.99767800  0.76420900  0.37454900  1
  O  O6  1  0.00572300  0.27784500  0.11846300  1
  O  O7  1  0.49427700  0.27784500  0.11846300  1
loop_
_geom_bond_atom_site_label_1
_geom_bond_atom_site_label_2
_geom_bond_distance
_geom_bond_site_symmetry_2
Ce0 O4 2.358255 1_555
Ce0 O5 2.358255 1_555
Ce0 O3 2.364165 1_655
Ce0 O2 2.364165 1_555
Ce0 O3 2.383062 1_665
Ce0 O2 2.383062 1_565
Ce0 O1 2.388118 1_555
Ce0 O0 2.388118 1_555
Ce1 O3 2.358255 1_555
Ce1 O2 2.358255 1_555
Ce1 O4 2.364165 1_555
Ce1 O5 2.364165 1_455
Ce1 O4 2.383062 1_545
Ce1 O5 2.383062 1_445
Ce1 O6 2.388118 1_555
Ce1 O7 2.388118 1_555
O0 Tb1 2.339400 1_556
O0 Tb0 2.377205 1_655
O0 Tb0 2.394417 1_665
O1 Tb1 2.339400 1_556
O1 Tb0 2.377205 1_555
O1 Tb0 2.394417 1_565
O2 Tb0 2.345986 1_555
O3 Tb0 2.345986 1_555
O4 Tb1 2.345986 1_555
O5 Tb1 2.345986 1_555
O6 Tb0 2.339400 1_554
O6 Tb1 2.377205 1_455
O6 Tb1 2.394417 1_445
O7 Tb0 2.339400 1_554
O7 Tb1 2.377205 1_555
O7 Tb1 2.394417 1_545
