# generated using pymatgen
data_YbNdO2
_symmetry_space_group_name_H-M   'P 1'
_cell_length_a   5.92982281
_cell_length_b   5.92982281
_cell_length_c   5.92982281
_cell_angle_alpha   131.35852880
_cell_angle_beta   131.35852880
_cell_angle_gamma   71.24406751
_symmetry_Int_Tables_number   1
_chemical_formula_structural   YbNdO2
_chemical_formula_sum   'Yb2 Nd2 O4'
_cell_volume   114.99414833
_cell_formula_units_Z   2
loop_
 _symmetry_equiv_pos_site_id
 _symmetry_equiv_pos_as_xyz
  1  'x, y, z'
loop_
 _atom_site_type_symbol
 _atom_site_label
 _atom_site_symmetry_multiplicity
 _atom_site_fract_x
 _atom_site_fract_y
 _atom_site_fract_z
 _atom_site_occupancy
  Yb  Yb0  1  0.75000000  0.25000000  0.50000000  1
  Yb  Yb1  1  0.00000000  0.00000000  0.00000000  1
  Nd  Nd0  1  0.50000000  0.50000000  0.00000000  1
  Nd  Nd1  1  0.25000000  0.75000000  0.50000000  1
  O  O0  1  0.98394015  0.48394015  0.50000000  1
  O  O1  1  0.51605985  0.01605985  0.50000000  1
  O  O2  1  0.76605985  0.76605985  0.00000000  1
  O  O3  1  0.23394015  0.23394015  0.00000000  1
loop_
_geom_bond_atom_site_label_1
_geom_bond_atom_site_label_2
_geom_bond_distance
_geom_bond_site_symmetry_2
Nd0 O1 2.447066 1_565
Nd0 O1 2.447066 1_554
Nd0 O0 2.447066 1_555
Nd0 O0 2.447066 1_454
Nd0 O2 2.564932 1_555
Nd0 O3 2.564932 1_555
Nd1 O2 2.447066 1_455
Nd1 O2 2.447066 1_556
Nd1 O3 2.447066 1_566
Nd1 O3 2.447066 1_555
Nd1 O1 2.564932 1_565
Nd1 O0 2.564932 1_455
O0 Yb0 2.255284 1_555
O0 Yb1 2.447066 1_666
O0 Yb1 2.447066 1_655
O1 Yb0 2.255284 1_555
O1 Yb1 2.447066 1_656
O1 Yb1 2.447066 1_555
O2 Yb1 2.255284 1_665
O2 Yb0 2.447066 1_554
O2 Yb0 2.447066 1_565
O3 Yb1 2.255284 1_555
O3 Yb0 2.447066 1_555
O3 Yb0 2.447066 1_454
