# generated using pymatgen
data_V3Fe2Ni(PO4)6
_symmetry_space_group_name_H-M   'P 1'
_cell_length_a   8.48744154
_cell_length_b   8.48744154
_cell_length_c   8.48744157
_cell_angle_alpha   61.17211407
_cell_angle_beta   61.17211407
_cell_angle_gamma   61.17210887
_symmetry_Int_Tables_number   1
_chemical_formula_structural   V3Fe2Ni(PO4)6
_chemical_formula_sum   'V3 Fe2 Ni1 P6 O24'
_cell_volume   443.73088953
_cell_formula_units_Z   1
loop_
 _symmetry_equiv_pos_site_id
 _symmetry_equiv_pos_as_xyz
  1  'x, y, z'
loop_
 _atom_site_type_symbol
 _atom_site_label
 _atom_site_symmetry_multiplicity
 _atom_site_fract_x
 _atom_site_fract_y
 _atom_site_fract_z
 _atom_site_occupancy
  V  V0  1  0.35671700  0.35671700  0.35671700  1
  V  V1  1  0.14147000  0.14147000  0.14147000  1
  V  V2  1  0.64372700  0.64372700  0.64372700  1
  Fe  Fe0  1  0.99680000  0.99680000  0.99680000  1
  Fe  Fe1  1  0.49897200  0.49897200  0.49897200  1
  Ni  Ni0  1  0.85817300  0.85817300  0.85817300  1
  P  P0  1  0.45856700  0.75216000  0.04340900  1
  P  P1  1  0.75216000  0.04340900  0.45856700  1
  P  P2  1  0.04340900  0.45856700  0.75216000  1
  P  P3  1  0.95783800  0.54187800  0.25116500  1
  P  P4  1  0.25116500  0.95783800  0.54187800  1
  P  P5  1  0.54187800  0.25116500  0.95783800  1
  O  O0  1  0.68900700  0.87978300  0.49574600  1
  O  O1  1  0.87978300  0.49574600  0.68900700  1
  O  O2  1  0.49574600  0.68900700  0.87978300  1
  O  O3  1  0.25777100  0.91163700  0.05867100  1
  O  O4  1  0.61208400  0.81052600  0.01575900  1
  O  O5  1  0.43252800  0.58760500  0.24068700  1
  O  O6  1  0.91163700  0.05867100  0.25777100  1
  O  O7  1  0.58760500  0.24068700  0.43252800  1
  O  O8  1  0.99756300  0.37952000  0.18714900  1
  O  O9  1  0.24068700  0.43252800  0.58760500  1
  O  O10  1  0.94842500  0.73553000  0.09559900  1
  O  O11  1  0.18714900  0.99756300  0.37952000  1
  O  O12  1  0.81052600  0.01575900  0.61208400  1
  O  O13  1  0.05867100  0.25777100  0.91163700  1
  O  O14  1  0.76189600  0.55215000  0.41614500  1
  O  O15  1  0.01575900  0.61208400  0.81052600  1
  O  O16  1  0.41614500  0.76189600  0.55215000  1
  O  O17  1  0.09559900  0.94842500  0.73553000  1
  O  O18  1  0.55215000  0.41614500  0.76189600  1
  O  O19  1  0.37952000  0.18714900  0.99756300  1
  O  O20  1  0.73553000  0.09559900  0.94842500  1
  O  O21  1  0.49211700  0.32586700  0.11533600  1
  O  O22  1  0.11533600  0.49211700  0.32586700  1
  O  O23  1  0.32586700  0.11533600  0.49211700  1
loop_
_geom_bond_atom_site_label_1
_geom_bond_atom_site_label_2
_geom_bond_distance
_geom_bond_site_symmetry_2
Fe0 O20 2.131169 1_565
Fe0 O17 2.131169 1_655
Fe0 O10 2.131169 1_556
Fe0 O3 2.217211 1_656
Fe0 O6 2.217211 1_566
Fe0 O13 2.217211 1_665
Fe1 O16 2.197773 1_555
Fe1 O18 2.197773 1_555
Fe1 O14 2.197773 1_555
Fe1 O7 2.209600 1_555
Fe1 O5 2.209600 1_555
Fe1 O9 2.209600 1_555
Ni0 O15 1.978355 1_655
Ni0 O12 1.978356 1_565
Ni0 O4 1.978356 1_556
Ni0 O20 2.104255 1_565
Ni0 O10 2.104255 1_556
Ni0 O17 2.104255 1_655
O0 P1 1.564508 1_565
O0 V2 1.894623 1_555
O1 P2 1.564508 1_655
O1 V2 1.894623 1_555
O2 P0 1.564508 1_556
O2 V2 1.894623 1_555
O3 P0 1.576373 1_555
O3 V1 2.017316 1_565
O4 P0 1.487838 1_555
O5 P0 1.577550 1_555
O5 V0 1.991957 1_555
O6 P1 1.576373 1_555
O6 V1 2.017316 1_655
O7 P1 1.577550 1_555
O7 V0 1.991957 1_555
O8 P3 1.550837 1_555
O8 V1 1.908722 1_655
O9 P2 1.577550 1_555
O9 V0 1.991957 1_555
O10 P3 1.527569 1_555
O11 P4 1.550837 1_555
O11 V1 1.908722 1_565
O12 P1 1.487838 1_555
O13 P2 1.576373 1_555
O13 V1 2.017316 1_556
O14 P3 1.570431 1_555
O14 V2 2.041786 1_555
O15 P2 1.487838 1_555
O16 P4 1.570431 1_555
O16 V2 2.041786 1_555
O17 P4 1.527569 1_555
O18 P5 1.570431 1_555
O18 V2 2.041786 1_555
O19 P5 1.550838 1_555
O19 V1 1.908723 1_556
O20 P5 1.527569 1_555
O21 P5 1.543351 1_554
O21 V0 1.882309 1_555
O22 P3 1.543351 1_455
O22 V0 1.882309 1_555
O23 P4 1.543351 1_545
O23 V0 1.882309 1_555
