# generated using pymatgen
data_SrSc2O4
_symmetry_space_group_name_H-M   'P 1'
_cell_length_a   5.67134704
_cell_length_b   5.67134704
_cell_length_c   20.51194843
_cell_angle_alpha   89.77885683
_cell_angle_beta   89.77885683
_cell_angle_gamma   61.29689050
_symmetry_Int_Tables_number   1
_chemical_formula_structural   SrSc2O4
_chemical_formula_sum   'Sr6 Sc12 O24'
_cell_volume   578.67411374
_cell_formula_units_Z   6
loop_
 _symmetry_equiv_pos_site_id
 _symmetry_equiv_pos_as_xyz
  1  'x, y, z'
loop_
 _atom_site_type_symbol
 _atom_site_label
 _atom_site_symmetry_multiplicity
 _atom_site_fract_x
 _atom_site_fract_y
 _atom_site_fract_z
 _atom_site_occupancy
  Sr  Sr0  1  0.44516900  0.22474000  0.64604200  1
  Sr  Sr1  1  0.22474000  0.44516900  0.14604200  1
  Sr  Sr2  1  0.10953300  0.89046700  0.75000000  1
  Sr  Sr3  1  0.89046700  0.10953300  0.25000000  1
  Sr  Sr4  1  0.55483100  0.77526000  0.35395800  1
  Sr  Sr5  1  0.77526000  0.55483100  0.85395800  1
  Sc  Sc0  1  0.44314200  0.21947700  0.80570900  1
  Sc  Sc1  1  0.21947700  0.44314200  0.30570900  1
  Sc  Sc2  1  0.45698500  0.21588400  0.94777400  1
  Sc  Sc3  1  0.21588400  0.45698500  0.44777400  1
  Sc  Sc4  1  0.11516600  0.87887600  0.92888300  1
  Sc  Sc5  1  0.87887600  0.11516600  0.42888300  1
  Sc  Sc6  1  0.12112400  0.88483400  0.57111700  1
  Sc  Sc7  1  0.88483400  0.12112400  0.07111700  1
  Sc  Sc8  1  0.78411600  0.54301500  0.55222600  1
  Sc  Sc9  1  0.54301500  0.78411600  0.05222600  1
  Sc  Sc10  1  0.78052300  0.55685800  0.69429100  1
  Sc  Sc11  1  0.55685800  0.78052300  0.19429100  1
  O  O0  1  0.20464200  0.09875600  0.00313000  1
  O  O1  1  0.09875600  0.20464200  0.50313000  1
  O  O2  1  0.35509900  0.98249100  0.87441300  1
  O  O3  1  0.98249100  0.35509900  0.37441300  1
  O  O4  1  0.32934400  0.10431100  0.25190300  1
  O  O5  1  0.10431100  0.32934400  0.75190300  1
  O  O6  1  0.22054600  0.52871300  0.88057700  1
  O  O7  1  0.52871300  0.22054600  0.38057700  1
  O  O8  1  0.77536200  0.11974900  0.87526700  1
  O  O9  1  0.11974900  0.77536200  0.37526700  1
  O  O10  1  0.53679300  0.46320700  0.75000000  1
  O  O11  1  0.50000000  0.50000000  0.50000000  1
  O  O12  1  0.50000000  0.50000000  0.00000000  1
  O  O13  1  0.46320700  0.53679300  0.25000000  1
  O  O14  1  0.88025100  0.22463800  0.62473300  1
  O  O15  1  0.22463800  0.88025100  0.12473300  1
  O  O16  1  0.47128700  0.77945400  0.61942300  1
  O  O17  1  0.77945400  0.47128700  0.11942300  1
  O  O18  1  0.67065600  0.89568900  0.74809700  1
  O  O19  1  0.89568900  0.67065600  0.24809700  1
  O  O20  1  0.01750900  0.64490100  0.62558700  1
  O  O21  1  0.64490100  0.01750900  0.12558700  1
  O  O22  1  0.79535800  0.90124400  0.99687000  1
  O  O23  1  0.90124400  0.79535800  0.49687000  1
loop_
_geom_bond_atom_site_label_1
_geom_bond_atom_site_label_2
_geom_bond_distance
_geom_bond_site_symmetry_2
O0 Sc9 2.143087 1_545
O0 Sc2 2.161811 1_554
O0 Sc4 2.181831 1_544
O0 Sc7 2.238603 1_455
O1 Sc8 2.143087 1_455
O1 Sc3 2.161811 1_555
O1 Sc5 2.181831 1_455
O1 Sc6 2.238603 1_545
O2 Sc4 2.048544 1_555
O2 Sc0 2.160163 1_565
O2 Sc2 2.259879 1_565
O2 Sr5 2.487064 1_555
O3 Sc5 2.048544 1_555
O3 Sc1 2.160163 1_655
O3 Sc3 2.259879 1_655
O3 Sr4 2.487064 1_555
O4 Sc1 2.039591 1_555
O4 Sc11 2.040222 1_545
O4 Sr3 2.475394 1_455
O4 Sr4 2.682951 1_545
O4 Sr1 2.771268 1_555
O5 Sc0 2.039591 1_555
O5 Sc10 2.040222 1_455
O5 Sr2 2.475394 1_545
O5 Sr5 2.682951 1_455
O5 Sr0 2.771268 1_555
O6 Sc4 2.037973 1_555
O6 Sc2 2.134432 1_555
O6 Sc0 2.215169 1_555
O6 Sr5 2.519579 1_455
O7 Sc5 2.037973 1_555
O7 Sc3 2.134432 1_555
O7 Sc1 2.215169 1_555
O7 Sr4 2.519579 1_545
O8 Sc4 2.065323 1_645
O8 Sc2 2.193036 1_555
O8 Sc0 2.212792 1_555
O8 Sr5 2.503980 1_555
O9 Sc5 2.065323 1_465
O9 Sc3 2.193036 1_555
O9 Sc1 2.212792 1_555
O9 Sr4 2.503980 1_555
O10 Sc10 2.046184 1_555
O10 Sc0 2.046184 1_555
O10 Sr2 2.470483 1_555
O10 Sr0 2.711454 1_555
O10 Sr5 2.711454 1_555
O11 Sc8 2.048506 1_555
O11 Sc3 2.048506 1_555
O11 Sc6 2.646543 1_555
O11 Sc5 2.646543 1_555
O12 Sc9 2.048506 1_555
O12 Sc2 2.048506 1_554
O12 Sc7 2.646543 1_555
O12 Sc4 2.646543 1_554
O13 Sc11 2.046184 1_555
O13 Sc1 2.046184 1_555
O13 Sr3 2.470483 1_555
O13 Sr1 2.711454 1_555
O13 Sr4 2.711454 1_555
O14 Sc6 2.065323 1_645
O14 Sc8 2.193036 1_555
O14 Sc10 2.212792 1_555
O14 Sr0 2.503980 1_555
O15 Sc7 2.065323 1_465
O15 Sc9 2.193036 1_555
O15 Sc11 2.212792 1_555
O15 Sr1 2.503980 1_555
O16 Sc6 2.037973 1_555
O16 Sc8 2.134432 1_555
O16 Sc10 2.215169 1_555
O16 Sr0 2.519579 1_565
O17 Sc7 2.037973 1_555
O17 Sc9 2.134432 1_555
O17 Sc11 2.215169 1_555
O17 Sr1 2.519579 1_655
O18 Sc10 2.039591 1_555
O18 Sc0 2.040222 1_565
O18 Sr2 2.475394 1_655
O18 Sr0 2.682951 1_565
O18 Sr5 2.771268 1_555
O19 Sc11 2.039591 1_555
O19 Sc1 2.040222 1_655
O19 Sr3 2.475394 1_565
O19 Sr1 2.682951 1_655
O19 Sr4 2.771268 1_555
O20 Sc6 2.048544 1_555
O20 Sc10 2.160163 1_455
O20 Sc8 2.259879 1_455
O20 Sr0 2.487064 1_555
O21 Sc7 2.048544 1_555
O21 Sc11 2.160163 1_545
O21 Sc9 2.259879 1_545
O21 Sr1 2.487064 1_555
O22 Sc2 2.143087 1_565
O22 Sc9 2.161811 1_556
O22 Sc7 2.181831 1_566
O22 Sc4 2.238603 1_655
O23 Sc3 2.143087 1_655
O23 Sc8 2.161811 1_555
O23 Sc6 2.181831 1_655
O23 Sc5 2.238603 1_565
