# generated using pymatgen
data_Li8BiO6
_symmetry_space_group_name_H-M   'P 1'
_cell_length_a   5.83885769
_cell_length_b   5.83885769
_cell_length_c   11.01716400
_cell_angle_alpha   90.00000000
_cell_angle_beta   90.00000000
_cell_angle_gamma   119.99999650
_symmetry_Int_Tables_number   1
_chemical_formula_structural   Li8BiO6
_chemical_formula_sum   'Li16 Bi2 O12'
_cell_volume   325.27916180
_cell_formula_units_Z   2
loop_
 _symmetry_equiv_pos_site_id
 _symmetry_equiv_pos_as_xyz
  1  'x, y, z'
loop_
 _atom_site_type_symbol
 _atom_site_label
 _atom_site_symmetry_multiplicity
 _atom_site_fract_x
 _atom_site_fract_y
 _atom_site_fract_z
 _atom_site_occupancy
  Li  Li0  1  0.00000000  0.67609000  0.76776800  1
  Li  Li1  1  0.00000000  0.58819700  0.12784800  1
  Li  Li2  1  0.00000000  0.41180300  0.62784800  1
  Li  Li3  1  0.00000000  0.32391000  0.26776800  1
  Li  Li4  1  0.33333300  0.66666700  0.40348400  1
  Li  Li5  1  0.33333300  0.66666700  0.90348400  1
  Li  Li6  1  0.32391000  0.32391000  0.76776800  1
  Li  Li7  1  0.41180300  0.41180300  0.12784800  1
  Li  Li8  1  0.58819700  0.58819700  0.62784800  1
  Li  Li9  1  0.32391000  0.00000000  0.26776800  1
  Li  Li10  1  0.67609000  0.67609000  0.26776800  1
  Li  Li11  1  0.41180300  0.00000000  0.62784800  1
  Li  Li12  1  0.66666700  0.33333300  0.90348400  1
  Li  Li13  1  0.66666700  0.33333300  0.40348400  1
  Li  Li14  1  0.58819700  0.00000000  0.12784800  1
  Li  Li15  1  0.67609000  0.00000000  0.76776800  1
  Bi  Bi0  1  0.00000000  0.00000000  0.98958900  1
  Bi  Bi1  1  0.00000000  0.00000000  0.48958900  1
  O  O0  1  0.00000000  0.64248300  0.94945300  1
  O  O1  1  0.00000000  0.35751700  0.44945300  1
  O  O2  1  0.33333300  0.66666700  0.21379500  1
  O  O3  1  0.00000000  0.00000000  0.18630600  1
  O  O4  1  0.00000000  0.00000000  0.68630600  1
  O  O5  1  0.33333300  0.66666700  0.71379500  1
  O  O6  1  0.35751700  0.35751700  0.94945300  1
  O  O7  1  0.35751700  0.00000000  0.44945300  1
  O  O8  1  0.64248300  0.64248300  0.44945300  1
  O  O9  1  0.66666700  0.33333300  0.71379500  1
  O  O10  1  0.66666700  0.33333300  0.21379500  1
  O  O11  1  0.64248300  0.00000000  0.94945300  1
loop_
_geom_bond_atom_site_label_1
_geom_bond_atom_site_label_2
_geom_bond_distance
_geom_bond_site_symmetry_2
Li0 O0 2.011249 1_555
Li0 O5 2.061969 1_555
Li0 O9 2.061972 1_455
Li0 O4 2.093407 1_565
Li1 O0 1.990802 1_554
Li1 O2 2.000703 1_555
Li1 O10 2.000704 1_455
Li1 O3 2.489219 1_565
Li2 O1 1.990802 1_555
Li2 O9 2.000703 1_455
Li2 O5 2.000704 1_555
Li2 O4 2.489219 1_555
Li3 O1 2.011249 1_555
Li3 O10 2.061969 1_455
Li3 O2 2.061972 1_555
Li3 O3 2.093407 1_555
Li4 O7 1.946695 1_565
Li4 O1 1.946698 1_555
Li4 O8 1.946701 1_555
Li4 O2 2.089835 1_555
Li5 O0 1.946695 1_555
Li5 O11 1.946698 1_565
Li5 O6 1.946701 1_555
Li5 O5 2.089835 1_555
Li6 O6 2.011249 1_555
Li6 O5 2.061975 1_555
Li6 O9 2.061975 1_555
Li6 O4 2.093407 1_555
Li7 O6 1.990802 1_554
Li7 O2 2.000708 1_555
Li7 O10 2.000708 1_555
Li7 O3 2.489219 1_555
Li8 O8 1.990802 1_555
Li8 O5 2.000708 1_555
Li8 O9 2.000708 1_555
Li8 O4 2.489219 1_665
Li9 O7 2.011249 1_555
Li9 O2 2.061969 1_545
Li9 O10 2.061972 1_555
Li9 O3 2.093407 1_555
Li10 O8 2.011249 1_555
Li10 O2 2.061975 1_555
Li10 O10 2.061975 1_555
Li10 O3 2.093407 1_665
Li11 O7 1.990802 1_555
Li11 O5 2.000703 1_545
Li11 O9 2.000704 1_555
Li11 O4 2.489219 1_555
Li12 O11 1.946695 1_555
Li12 O0 1.946698 1_655
Li12 O6 1.946701 1_555
Li12 O9 2.089835 1_555
Li13 O1 1.946695 1_655
Li13 O7 1.946698 1_555
Li13 O8 1.946701 1_555
Li13 O10 2.089835 1_555
Li14 O11 1.990802 1_554
Li14 O10 2.000703 1_555
Li14 O2 2.000704 1_545
Li14 O3 2.489219 1_655
Li15 O11 2.011249 1_555
Li15 O9 2.061969 1_555
Li15 O5 2.061972 1_545
Li15 O4 2.093407 1_655
Bi0 O11 2.133810 1_455
Bi0 O0 2.133810 1_545
Bi0 O6 2.133810 1_555
Bi0 O3 2.167263 1_556
Bi1 O1 2.133810 1_555
Bi1 O7 2.133810 1_555
Bi1 O8 2.133810 1_445
Bi1 O4 2.167263 1_555
