# generated using pymatgen
data_FeOF
_symmetry_space_group_name_H-M   'P 1'
_cell_length_a   14.16942620
_cell_length_b   9.43973418
_cell_length_c   3.08534400
_cell_angle_alpha   90.00000000
_cell_angle_beta   90.00000000
_cell_angle_gamma   90.15061250
_symmetry_Int_Tables_number   1
_chemical_formula_structural   FeOF
_chemical_formula_sum   'Fe12 O12 F12'
_cell_volume   412.68066396
_cell_formula_units_Z   12
loop_
 _symmetry_equiv_pos_site_id
 _symmetry_equiv_pos_as_xyz
  1  'x, y, z'
loop_
 _atom_site_type_symbol
 _atom_site_label
 _atom_site_symmetry_multiplicity
 _atom_site_fract_x
 _atom_site_fract_y
 _atom_site_fract_z
 _atom_site_occupancy
  Fe  Fe0  1  0.00507300  0.00827700  0.00000000  1
  Fe  Fe1  1  0.01233000  0.49738100  0.00000000  1
  Fe  Fe2  1  0.15608900  0.24624800  0.50000000  1
  Fe  Fe3  1  0.16573800  0.72824200  0.50000000  1
  Fe  Fe4  1  0.34611500  0.99757700  0.00000000  1
  Fe  Fe5  1  0.33302900  0.51425300  0.00000000  1
  Fe  Fe6  1  0.48689700  0.74600200  0.50000000  1
  Fe  Fe7  1  0.50094400  0.22753200  0.50000000  1
  Fe  Fe8  1  0.67264200  0.00769000  0.00000000  1
  Fe  Fe9  1  0.67725400  0.50017500  0.00000000  1
  Fe  Fe10  1  0.81918600  0.25073800  0.50000000  1
  Fe  Fe11  1  0.81898200  0.75119900  0.50000000  1
  O  O0  1  0.06467200  0.40425200  0.50000000  1
  O  O1  1  0.09899000  0.14729800  0.00000000  1
  O  O2  1  0.09817000  0.65786200  0.00000000  1
  O  O3  1  0.26887500  0.59467800  0.50000000  1
  O  O4  1  0.39711200  0.90283100  0.50000000  1
  O  O5  1  0.43405800  0.15596600  0.00000000  1
  O  O6  1  0.43775600  0.64610200  0.00000000  1
  O  O7  1  0.60526500  0.09557000  0.50000000  1
  O  O8  1  0.72842200  0.40472700  0.50000000  1
  O  O9  1  0.73079500  0.90610100  0.50000000  1
  O  O10  1  0.77299400  0.15388800  0.00000000  1
  O  O11  1  0.76788200  0.65684000  0.00000000  1
  F  F0  1  0.06983000  0.90368300  0.50000000  1
  F  F1  1  0.23620000  0.34013000  0.00000000  1
  F  F2  1  0.22914300  0.85098800  0.00000000  1
  F  F3  1  0.26715700  0.09473400  0.50000000  1
  F  F4  1  0.40023200  0.40042100  0.50000000  1
  F  F5  1  0.56226300  0.35403300  0.00000000  1
  F  F6  1  0.56451000  0.84375200  0.00000000  1
  F  F7  1  0.60171000  0.60164600  0.50000000  1
  F  F8  1  0.89877200  0.35470700  0.00000000  1
  F  F9  1  0.90314200  0.85064500  0.00000000  1
  F  F10  1  0.93515900  0.10443800  0.50000000  1
  F  F11  1  0.93260900  0.59939000  0.50000000  1
loop_
_geom_bond_atom_site_label_1
_geom_bond_atom_site_label_2
_geom_bond_distance
_geom_bond_site_symmetry_2
Fe0 O1 1.866521 1_555
Fe1 O0 1.925138 1_555
Fe1 O0 1.925138 1_554
Fe1 O2 1.940264 1_555
Fe2 O1 1.975579 1_556
Fe2 O1 1.975579 1_555
Fe2 O0 1.978041 1_555
Fe3 O2 1.932484 1_556
Fe3 O2 1.932484 1_555
Fe3 O3 1.932613 1_555
Fe4 O4 1.924914 1_555
Fe4 O4 1.924914 1_554
Fe4 O5 1.943823 1_565
Fe5 O6 1.934268 1_555
Fe5 O3 1.945806 1_555
Fe5 O3 1.945806 1_554
Fe6 O6 1.936627 1_556
Fe6 O6 1.936627 1_555
Fe6 O4 1.954496 1_555
Fe7 O5 1.931596 1_556
Fe7 O5 1.931596 1_555
Fe7 O7 1.935561 1_555
Fe8 O10 1.978930 1_555
Fe8 O9 1.995642 1_544
Fe8 O9 1.995642 1_545
Fe8 O7 1.995900 1_554
Fe8 O7 1.995900 1_555
Fe9 O8 1.928921 1_554
Fe9 O8 1.928921 1_555
Fe9 O11 1.956048 1_555
Fe10 O10 1.908117 1_556
Fe10 O10 1.908117 1_555
Fe10 O8 1.943402 1_555
Fe11 O11 1.922003 1_555
Fe11 O11 1.922003 1_556
Fe11 O9 1.925911 1_555
F0 Fe0 2.049725 1_565
F0 Fe0 2.049725 1_566
F0 Fe3 2.145071 1_555
F1 Fe2 2.109135 1_555
F1 Fe2 2.109135 1_554
F1 Fe5 2.138276 1_555
F2 Fe3 2.126986 1_555
F2 Fe3 2.126986 1_554
F2 Fe4 2.156339 1_555
F3 Fe4 2.116143 1_546
F3 Fe4 2.116143 1_545
F3 Fe2 2.129367 1_555
F4 Fe5 2.108696 1_555
F4 Fe5 2.108696 1_556
F4 Fe7 2.170754 1_555
F5 Fe9 2.132163 1_555
F5 Fe7 2.134304 1_555
F5 Fe7 2.134304 1_554
F6 Fe6 2.106027 1_555
F6 Fe6 2.106027 1_554
F6 Fe8 2.174840 1_565
F7 Fe9 2.109149 1_556
F7 Fe9 2.109149 1_555
F7 Fe6 2.124888 1_555
F8 Fe1 2.095599 1_655
F8 Fe10 2.146840 1_555
F8 Fe10 2.146840 1_554
F9 Fe0 2.070959 1_665
F9 Fe11 2.162694 1_554
F9 Fe11 2.162694 1_555
F10 Fe0 2.046928 1_656
F10 Fe0 2.046928 1_655
F10 Fe10 2.149307 1_555
F11 Fe1 2.142149 1_656
F11 Fe1 2.142149 1_655
F11 Fe11 2.158221 1_555
