# generated using pymatgen
data_Li4Ti3NbO8
_symmetry_space_group_name_H-M   'P 1'
_cell_length_a   6.10893649
_cell_length_b   6.10893649
_cell_length_c   6.10893662
_cell_angle_alpha   57.16574198
_cell_angle_beta   57.16574198
_cell_angle_gamma   57.16575143
_symmetry_Int_Tables_number   1
_chemical_formula_structural   Li4Ti3NbO8
_chemical_formula_sum   'Li4 Ti3 Nb1 O8'
_cell_volume   150.67988249
_cell_formula_units_Z   1
loop_
 _symmetry_equiv_pos_site_id
 _symmetry_equiv_pos_as_xyz
  1  'x, y, z'
loop_
 _atom_site_type_symbol
 _atom_site_label
 _atom_site_symmetry_multiplicity
 _atom_site_fract_x
 _atom_site_fract_y
 _atom_site_fract_z
 _atom_site_occupancy
  Li  Li0  1  0.50000000  0.50000000  0.50000000  1
  Li  Li1  1  0.50000000  0.00000000  0.00000000  1
  Li  Li2  1  0.00000000  0.50000000  0.00000000  1
  Li  Li3  1  0.00000000  0.00000000  0.50000000  1
  Ti  Ti0  1  0.00000000  0.50000000  0.50000000  1
  Ti  Ti1  1  0.50000000  0.00000000  0.50000000  1
  Ti  Ti2  1  0.50000000  0.50000000  0.00000000  1
  Nb  Nb0  1  0.00000000  0.00000000  0.00000000  1
  O  O0  1  0.25688200  0.25688200  0.25688200  1
  O  O1  1  0.25974000  0.74621900  0.74621900  1
  O  O2  1  0.74621900  0.25974000  0.74621900  1
  O  O3  1  0.74311800  0.74311800  0.74311800  1
  O  O4  1  0.74621900  0.74621900  0.25974000  1
  O  O5  1  0.74026000  0.25378100  0.25378100  1
  O  O6  1  0.25378100  0.74026000  0.25378100  1
  O  O7  1  0.25378100  0.25378100  0.74026000  1
loop_
_geom_bond_atom_site_label_1
_geom_bond_atom_site_label_2
_geom_bond_distance
_geom_bond_site_symmetry_2
Li0 O4 2.084328 1_555
Li0 O7 2.084328 1_555
Li0 O2 2.084329 1_555
Li0 O1 2.084329 1_555
Li0 O5 2.084329 1_555
Li0 O6 2.084329 1_555
Li1 O6 2.139023 1_545
Li1 O2 2.139023 1_554
Li1 O4 2.139024 1_545
Li1 O7 2.139024 1_554
Li1 O0 2.178693 1_555
Li1 O3 2.178693 1_544
Li2 O5 2.139023 1_455
Li2 O1 2.139023 1_554
Li2 O4 2.139024 1_455
Li2 O7 2.139024 1_554
Li2 O0 2.178693 1_555
Li2 O3 2.178693 1_454
Li3 O1 2.139024 1_545
Li3 O5 2.139024 1_455
Li3 O6 2.139024 1_545
Li3 O2 2.139024 1_455
Li3 O0 2.178693 1_555
Li3 O3 2.178693 1_445
Nb0 O7 2.143816 1_554
Nb0 O4 2.143816 1_445
Nb0 O6 2.143816 1_545
Nb0 O5 2.143816 1_455
Nb0 O2 2.143816 1_454
Nb0 O1 2.143816 1_544
O0 Ti2 2.052160 1_555
O0 Ti1 2.052160 1_555
O0 Ti0 2.052160 1_555
O1 Ti1 2.089246 1_565
O1 Ti2 2.089246 1_556
O2 Ti0 2.089246 1_655
O2 Ti2 2.089246 1_556
O3 Ti2 2.052160 1_556
O3 Ti0 2.052160 1_655
O3 Ti1 2.052160 1_565
O4 Ti0 2.089246 1_655
O4 Ti1 2.089246 1_565
O5 Ti1 2.089246 1_555
O5 Ti2 2.089246 1_555
O6 Ti0 2.089246 1_555
O6 Ti2 2.089246 1_555
O7 Ti0 2.089246 1_555
O7 Ti1 2.089246 1_555
