# generated using pymatgen
data_Li4Ni5Sn(PO4)6
_symmetry_space_group_name_H-M   'P 1'
_cell_length_a   8.42951000
_cell_length_b   8.50647583
_cell_length_c   8.50767558
_cell_angle_alpha   62.65325080
_cell_angle_beta   62.94406807
_cell_angle_gamma   62.88625693
_symmetry_Int_Tables_number   1
_chemical_formula_structural   Li4Ni5Sn(PO4)6
_chemical_formula_sum   'Li4 Ni5 Sn1 P6 O24'
_cell_volume   458.47910107
_cell_formula_units_Z   1
loop_
 _symmetry_equiv_pos_site_id
 _symmetry_equiv_pos_as_xyz
  1  'x, y, z'
loop_
 _atom_site_type_symbol
 _atom_site_label
 _atom_site_symmetry_multiplicity
 _atom_site_fract_x
 _atom_site_fract_y
 _atom_site_fract_z
 _atom_site_occupancy
  Li  Li0  1  0.25472300  0.64090700  0.85601700  1
  Li  Li1  1  0.70651300  0.36167600  0.15406200  1
  Li  Li2  1  0.36863100  0.14928900  0.70327000  1
  Li  Li3  1  0.14925000  0.70102800  0.36711700  1
  Ni  Ni0  1  0.98874500  0.99604900  0.99729300  1
  Ni  Ni1  1  0.64331900  0.64766200  0.64593700  1
  Ni  Ni2  1  0.50842600  0.50138900  0.50067100  1
  Ni  Ni3  1  0.85760200  0.85347900  0.85267200  1
  Ni  Ni4  1  0.35435100  0.35079500  0.35125000  1
  Sn  Sn0  1  0.14614100  0.14888800  0.15110900  1
  P  P0  1  0.94089700  0.55875600  0.25691100  1
  P  P1  1  0.56126600  0.25015100  0.94520900  1
  P  P2  1  0.25345600  0.94644700  0.55852900  1
  P  P3  1  0.74991400  0.04653300  0.45736700  1
  P  P4  1  0.44760000  0.74795300  0.04401400  1
  P  P5  1  0.05680700  0.46009800  0.75197000  1
  O  O0  1  0.52406300  0.31389000  0.10384300  1
  O  O1  1  0.31728700  0.10459000  0.52140300  1
  O  O2  1  0.10168200  0.51735100  0.32241900  1
  O  O3  1  0.93985400  0.74372800  0.09185600  1
  O  O4  1  0.97608400  0.39783100  0.18916000  1
  O  O5  1  0.74890600  0.56845400  0.40840100  1
  O  O6  1  0.75212600  0.09617000  0.92523300  1
  O  O7  1  0.55134900  0.41302900  0.75996500  1
  O  O8  1  0.83414400  0.00778400  0.59838500  1
  O  O9  1  0.40004800  0.74886900  0.57236500  1
  O  O10  1  0.89510100  0.08559600  0.24437200  1
  O  O11  1  0.60452000  0.82052400  0.98495600  1
  O  O12  1  0.39967200  0.17853800  0.98572400  1
  O  O13  1  0.10246200  0.92469700  0.75433300  1
  O  O14  1  0.59100900  0.24357700  0.44505100  1
  O  O15  1  0.18655100  0.98198400  0.39813000  1
  O  O16  1  0.44452800  0.58888000  0.23885300  1
  O  O17  1  0.23924700  0.89799500  0.08949400  1
  O  O18  1  0.24871100  0.44152600  0.58741900  1
  O  O19  1  0.04798500  0.59697500  0.82628300  1
  O  O20  1  0.08454900  0.24969400  0.89824900  1
  O  O21  1  0.88720300  0.50815000  0.70234200  1
  O  O22  1  0.68681200  0.89424800  0.48411400  1
  O  O23  1  0.44845900  0.69181600  0.89725300  1
loop_
_geom_bond_atom_site_label_1
_geom_bond_atom_site_label_2
_geom_bond_distance
_geom_bond_site_symmetry_2
Li0 O23 2.069556 1_555
Li0 O19 2.078987 1_555
Li0 O9 2.113687 1_555
Li0 O13 2.119086 1_555
Li0 O7 2.419894 1_555
Li0 O3 2.546982 1_456
Li1 O0 2.010047 1_555
Li1 O14 2.121282 1_555
Li1 O10 2.164052 1_555
Li1 O16 2.252534 1_555
Li1 O4 2.585731 1_555
Li2 O1 2.006403 1_555
Li2 O18 2.130203 1_555
Li2 O14 2.233528 1_555
Li2 O20 2.244832 1_555
Li3 O2 2.000572 1_555
Li3 O16 2.148800 1_555
Li3 O17 2.203224 1_555
Li3 O18 2.242761 1_555
Ni0 O6 2.040547 1_565
Ni0 O3 2.083786 1_556
Ni0 O13 2.092762 1_655
Ni0 O10 2.244001 1_566
Ni0 O17 2.251711 1_656
Ni0 O20 2.305736 1_665
Ni1 O21 2.003858 1_555
Ni1 O22 2.004564 1_555
Ni1 O23 2.095512 1_555
Ni1 O5 2.097185 1_555
Ni1 O9 2.097978 1_555
Ni1 O7 2.114966 1_555
Ni2 O5 2.060576 1_555
Ni2 O7 2.125348 1_555
Ni2 O9 2.134990 1_555
Ni2 O14 2.186381 1_555
Ni2 O18 2.190417 1_555
Ni2 O16 2.237989 1_555
Ni3 O11 1.991852 1_555
Ni3 O8 1.996476 1_565
Ni3 O19 2.077800 1_655
Ni3 O13 2.104861 1_655
Ni3 O6 2.105232 1_565
Ni3 O3 2.107419 1_556
Ni4 O1 1.994737 1_555
Ni4 O2 2.002308 1_555
Ni4 O0 2.008470 1_555
Ni4 O16 2.134632 1_555
Ni4 O14 2.137629 1_555
Ni4 O18 2.143902 1_555
O0 P1 1.531677 1_554
O1 P2 1.521098 1_545
O2 P0 1.530783 1_455
O3 P0 1.554467 1_555
O4 P0 1.579055 1_555
O4 Sn0 2.021067 1_655
O5 P0 1.538031 1_555
O6 P1 1.538791 1_555
O7 P1 1.555164 1_555
O8 P3 1.500140 1_555
O9 P2 1.556609 1_555
O10 P3 1.640692 1_555
O10 Sn0 2.125100 1_655
O11 P4 1.495983 1_556
O12 P1 1.575342 1_555
O12 Sn0 2.010091 1_556
O13 P2 1.559454 1_555
O14 P3 1.592009 1_555
O15 P2 1.561211 1_555
O15 Sn0 2.004366 1_565
O16 P4 1.584782 1_555
O17 P4 1.629597 1_555
O17 Sn0 2.138321 1_565
O18 P5 1.584831 1_555
O19 P5 1.521696 1_555
O20 P5 1.625931 1_555
O20 Sn0 2.132649 1_556
O21 P5 1.499077 1_655
O22 P3 1.503312 1_565
O23 P4 1.524301 1_556
