# generated using pymatgen
data_LiMn2(BO3)2
_symmetry_space_group_name_H-M   'P 1'
_cell_length_a   5.30123100
_cell_length_b   5.79378624
_cell_length_c   8.17209393
_cell_angle_alpha   79.64439542
_cell_angle_beta   89.96115822
_cell_angle_gamma   89.83424727
_symmetry_Int_Tables_number   1
_chemical_formula_structural   LiMn2(BO3)2
_chemical_formula_sum   'Li2 Mn4 B4 O12'
_cell_volume   246.90976953
_cell_formula_units_Z   2
loop_
 _symmetry_equiv_pos_site_id
 _symmetry_equiv_pos_as_xyz
  1  'x, y, z'
loop_
 _atom_site_type_symbol
 _atom_site_label
 _atom_site_symmetry_multiplicity
 _atom_site_fract_x
 _atom_site_fract_y
 _atom_site_fract_z
 _atom_site_occupancy
  Li  Li0  1  0.33947100  0.05455900  0.26493100  1
  Li  Li1  1  0.66052900  0.94544100  0.73506900  1
  Mn  Mn0  1  0.17828100  0.18801300  0.56858600  1
  Mn  Mn1  1  0.29820100  0.34501700  0.91673500  1
  Mn  Mn2  1  0.70179900  0.65498300  0.08326500  1
  Mn  Mn3  1  0.82171900  0.81198700  0.43141400  1
  B  B0  1  0.82509900  0.15369100  0.09708400  1
  B  B1  1  0.67082200  0.32612600  0.41218200  1
  B  B2  1  0.32917800  0.67387400  0.58781800  1
  B  B3  1  0.17490100  0.84630900  0.90291600  1
  O  O0  1  0.08145300  0.16390000  0.10553700  1
  O  O1  1  0.31025500  0.04198200  0.81542000  1
  O  O2  1  0.80189900  0.14509500  0.51541400  1
  O  O3  1  0.41959600  0.31021400  0.38584000  1
  O  O4  1  0.80620700  0.51679800  0.32677700  1
  O  O5  1  0.32277700  0.66272900  0.98484700  1
  O  O6  1  0.67722300  0.33727100  0.01515300  1
  O  O7  1  0.19379300  0.48320200  0.67322300  1
  O  O8  1  0.58040400  0.68978600  0.61416000  1
  O  O9  1  0.19810100  0.85490500  0.48458600  1
  O  O10  1  0.68974500  0.95801800  0.18458000  1
  O  O11  1  0.91854700  0.83610000  0.89446300  1
loop_
_geom_bond_atom_site_label_1
_geom_bond_atom_site_label_2
_geom_bond_distance
_geom_bond_site_symmetry_2
Li0 O0 1.915644 1_555
Li0 O3 1.970047 1_555
Li0 O10 2.077601 1_545
Li0 O9 2.092509 1_545
Li1 O11 1.915644 1_555
Li1 O8 1.970047 1_555
Li1 O1 2.077601 1_565
Li1 O2 2.092509 1_565
Mn0 O3 1.997651 1_555
Mn0 O7 2.046861 1_555
Mn0 O2 2.067537 1_455
Mn0 O1 2.158502 1_555
Mn0 O9 2.163797 1_545
Mn1 O5 2.021143 1_555
Mn1 O0 2.055354 1_556
Mn1 O1 2.072206 1_555
Mn1 O7 2.081728 1_555
Mn1 O6 2.162127 1_556
Mn2 O6 2.021143 1_555
Mn2 O11 2.055354 1_554
Mn2 O10 2.072206 1_555
Mn2 O4 2.081728 1_555
Mn2 O5 2.162127 1_554
Mn3 O8 1.997651 1_555
Mn3 O4 2.046861 1_555
Mn3 O9 2.067537 1_655
Mn3 O10 2.158502 1_555
Mn3 O2 2.163797 1_565
B0 O0 1.362788 1_655
B0 O6 1.390679 1_555
B0 O10 1.422659 1_545
B1 O3 1.355280 1_555
B1 O4 1.396183 1_555
B1 O2 1.404672 1_555
B2 O8 1.355280 1_555
B2 O7 1.396183 1_555
B2 O9 1.404672 1_555
B3 O11 1.362788 1_455
B3 O5 1.390679 1_555
B3 O1 1.422659 1_565
