# generated using pymatgen
data_LiSn(PO3)4
_symmetry_space_group_name_H-M   'P 1'
_cell_length_a   7.42608666
_cell_length_b   7.44706270
_cell_length_c   10.03665159
_cell_angle_alpha   80.83826872
_cell_angle_beta   70.17718065
_cell_angle_gamma   109.02137790
_symmetry_Int_Tables_number   1
_chemical_formula_structural   LiSn(PO3)4
_chemical_formula_sum   'Li2 Sn2 P8 O24'
_cell_volume   470.39850498
_cell_formula_units_Z   2
loop_
 _symmetry_equiv_pos_site_id
 _symmetry_equiv_pos_as_xyz
  1  'x, y, z'
loop_
 _atom_site_type_symbol
 _atom_site_label
 _atom_site_symmetry_multiplicity
 _atom_site_fract_x
 _atom_site_fract_y
 _atom_site_fract_z
 _atom_site_occupancy
  Li  Li0  1  0.99531900  0.49595800  0.00206100  1
  Li  Li1  1  0.00635100  0.00243100  0.49826800  1
  Sn  Sn0  1  0.20002900  0.94862900  0.74991700  1
  Sn  Sn1  1  0.79914900  0.04924400  0.25171100  1
  P  P0  1  0.99808700  0.68850000  0.30084600  1
  P  P1  1  0.25642900  0.71735000  0.47807400  1
  P  P2  1  0.69727200  0.73450900  0.02210600  1
  P  P3  1  0.51130600  0.70252100  0.80212600  1
  P  P4  1  0.48877500  0.29748300  0.19859600  1
  P  P5  1  0.30451100  0.26666000  0.97786300  1
  P  P6  1  0.74370200  0.28353200  0.51960200  1
  P  P7  1  0.00238900  0.31228200  0.69849100  1
  O  O0  1  0.03707400  0.65271900  0.15566800  1
  O  O1  1  0.12187000  0.80247000  0.57595100  1
  O  O2  1  0.18998500  0.68617900  0.34427500  1
  O  O3  1  0.49039900  0.82638200  0.41625500  1
  O  O4  1  0.29996400  0.71006400  0.82604700  1
  O  O5  1  0.20625300  0.49583100  0.56536300  1
  O  O6  1  0.12046000  0.29979300  0.07822600  1
  O  O7  1  0.74859700  0.90552400  0.08397000  1
  O  O8  1  0.56080800  0.77318300  0.93607000  1
  O  O9  1  0.69264500  0.80867400  0.65654800  1
  O  O10  1  0.53373600  0.53338100  0.15519500  1
  O  O11  1  0.04096700  0.12883700  0.67192700  1
  O  O12  1  0.96480900  0.87477300  0.32518200  1
  O  O13  1  0.46755400  0.46806800  0.84591700  1
  O  O14  1  0.30841100  0.18943900  0.34345200  1
  O  O15  1  0.44227700  0.22988300  0.06345900  1
  O  O16  1  0.25998600  0.09854600  0.91228500  1
  O  O17  1  0.88071000  0.69893100  0.92327300  1
  O  O18  1  0.79324800  0.50658500  0.43496900  1
  O  O19  1  0.69903100  0.28705300  0.17568200  1
  O  O20  1  0.51029700  0.17068800  0.58099500  1
  O  O21  1  0.81087900  0.31066400  0.65343400  1
  O  O22  1  0.87911900  0.20096000  0.41942400  1
  O  O23  1  0.95893700  0.34630000  0.84431000  1
loop_
_geom_bond_atom_site_label_1
_geom_bond_atom_site_label_2
_geom_bond_distance
_geom_bond_site_symmetry_2
Li0 O23 2.116061 1_554
Li0 O0 2.120667 1_655
Li0 O17 2.132810 1_554
Li0 O6 2.143175 1_655
Li0 O19 2.145473 1_555
Li0 O4 2.195987 1_654
Li1 O14 2.072727 1_555
Li1 O1 2.116104 1_545
Li1 O9 2.145154 1_445
Li1 O11 2.158412 1_555
Li1 O12 2.171417 1_445
Li1 O22 2.179414 1_455
O0 P0 1.471659 1_455
O1 P1 1.520122 1_555
O1 Sn0 2.334734 1_555
O2 P1 1.604593 1_555
O2 P0 1.629724 1_455
O3 P1 1.500639 1_555
O3 Sn1 2.194866 1_565
O4 P3 1.526485 1_555
O4 Sn0 2.258907 1_555
O5 P1 1.595450 1_555
O5 P7 1.625802 1_555
O6 P5 1.519492 1_554
O6 Sn1 2.334991 1_455
O7 P2 1.499553 1_555
O7 Sn1 2.204851 1_565
O8 P2 1.600039 1_556
O8 P3 1.629011 1_555
O9 P3 1.475472 1_555
O10 P2 1.606093 1_555
O10 P4 1.631785 1_555
O11 P7 1.529298 1_555
O11 Sn0 2.266022 1_545
O12 P0 1.528212 1_555
O12 Sn1 2.257742 1_565
O13 P5 1.601764 1_555
O13 P3 1.623640 1_555
O14 P4 1.469492 1_555
O15 P5 1.601103 1_554
O15 P4 1.622972 1_555
O16 P5 1.500032 1_555
O16 Sn0 2.201781 1_545
O17 P2 1.520634 1_556
O17 Sn0 2.324933 1_655
O18 P6 1.598892 1_555
O18 P0 1.627420 1_555
O19 P4 1.529062 1_555
O19 Sn1 2.254803 1_555
O20 P6 1.500483 1_555
O20 Sn0 2.211788 1_545
O21 P6 1.602852 1_555
O21 P7 1.629102 1_655
O22 P6 1.521361 1_555
O22 Sn1 2.304099 1_555
O23 P7 1.470134 1_655
