# generated using pymatgen
data_Er(Bi3O5)4
_symmetry_space_group_name_H-M   'P 1'
_cell_length_a   8.80420661
_cell_length_b   8.80352972
_cell_length_c   8.80360628
_cell_angle_alpha   109.46944742
_cell_angle_beta   109.47230825
_cell_angle_gamma   109.47244979
_symmetry_Int_Tables_number   1
_chemical_formula_structural   Er(Bi3O5)4
_chemical_formula_sum   'Er1 Bi12 O20'
_cell_volume   525.27032602
_cell_formula_units_Z   1
loop_
 _symmetry_equiv_pos_site_id
 _symmetry_equiv_pos_as_xyz
  1  'x, y, z'
loop_
 _atom_site_type_symbol
 _atom_site_label
 _atom_site_symmetry_multiplicity
 _atom_site_fract_x
 _atom_site_fract_y
 _atom_site_fract_z
 _atom_site_occupancy
  Er  Er0  1  0.00016392  -0.00001415  -0.00001874  1
  Bi  Bi0  1  0.85519093  0.67840604  0.16984097  1
  Bi  Bi1  1  0.31470273  0.82319416  0.14485089  1
  Bi  Bi2  1  0.49151017  0.32164689  0.17677671  1
  Bi  Bi3  1  0.82318722  0.14481416  0.31465885  1
  Bi  Bi4  1  0.68532424  0.83016215  0.50856457  1
  Bi  Bi5  1  0.17678038  0.49144170  0.32158461  1
  Bi  Bi6  1  0.83012749  0.50850522  0.68531531  1
  Bi  Bi7  1  0.32158397  0.17677728  0.49144916  1
  Bi  Bi8  1  0.16985787  0.85517966  0.67838059  1
  Bi  Bi9  1  0.50856258  0.68537492  0.83017061  1
  Bi  Bi10  1  0.67836945  0.16984865  0.85517464  1
  Bi  Bi11  1  0.14483170  0.31472395  0.82322460  1
  O  O0  1  0.76418303  0.38070084  0.11583768  1
  O  O1  1  0.64835682  0.88412566  0.26485078  1
  O  O2  1  0.00001013  0.66086820  0.00000493  1
  O  O3  1  0.66079249  0.00001768  0.00000335  1
  O  O4  1  0.35163454  0.61647312  0.23577982  1
  O  O5  1  0.73513994  0.61930141  0.38353988  1
  O  O6  1  -0.00000934  0.24367751  0.00001099  1
  O  O7  1  0.24375575  -0.00002242  -0.00000498  1
  O  O8  1  0.61646583  0.23578095  0.35162284  1
  O  O9  1  0.11584194  0.76425699  0.38069312  1
  O  O10  1  0.33901914  0.33901768  0.33900293  1
  O  O11  1  -0.00001545  -0.00001934  0.24362726  1
  O  O12  1  0.38354870  0.73516824  0.61930070  1
  O  O13  1  0.88414739  0.26485485  0.64838481  1
  O  O14  1  0.75634941  0.75634787  0.75636131  1
  O  O15  1  0.61929166  0.38353602  0.73515489  1
  O  O16  1  0.23575395  0.35161037  0.61646719  1
  O  O17  1  0.26485055  0.64835618  0.88416539  1
  O  O18  1  0.38069026  0.11587326  0.76422517  1
  O  O19  1  -0.00000039  0.00001331  0.66099916  1
loop_
_geom_bond_atom_site_label_1
_geom_bond_atom_site_label_2
_geom_bond_distance
_geom_bond_site_symmetry_2
Er0 O7 2.144617 1_555
Er0 O14 2.145382 1_444
Er0 O11 2.145506 1_555
Er0 O6 2.145769 1_555
Bi0 O9 2.086042 1_655
Bi0 O2 2.265697 1_655
Bi0 O0 2.291786 1_555
Bi0 O11 2.424358 1_665
Bi0 O5 2.557120 1_555
Bi1 O17 2.086135 1_554
Bi1 O2 2.265971 1_555
Bi1 O4 2.291415 1_555
Bi1 O7 2.424589 1_565
Bi1 O1 2.556507 1_555
Bi2 O8 2.086188 1_555
Bi2 O10 2.266095 1_555
Bi2 O5 2.291451 1_555
Bi2 O7 2.424851 1_555
Bi2 O0 2.556127 1_555
Bi3 O1 2.086264 1_545
Bi3 O3 2.265634 1_555
Bi3 O8 2.291849 1_555
Bi3 O11 2.424935 1_655
Bi3 O13 2.556857 1_555
Bi4 O5 2.086238 1_555
Bi4 O19 2.265826 1_665
Bi4 O1 2.291732 1_555
Bi4 O14 2.424601 1_555
Bi4 O4 2.556789 1_555
Bi5 O4 2.086130 1_555
Bi5 O10 2.265706 1_555
Bi5 O12 2.292006 1_555
Bi5 O6 2.424321 1_555
Bi5 O9 2.557164 1_555
Bi6 O15 2.086091 1_555
Bi6 O2 2.265857 1_656
Bi6 O13 2.291553 1_555
Bi6 O14 2.424834 1_555
Bi6 O8 2.556556 1_555
Bi7 O16 2.086154 1_555
Bi7 O10 2.265771 1_555
Bi7 O15 2.291959 1_555
Bi7 O11 2.424700 1_555
Bi7 O18 2.556606 1_555
Bi8 O18 2.086178 1_565
Bi8 O19 2.265910 1_565
Bi8 O9 2.291718 1_555
Bi8 O7 2.424427 1_566
Bi8 O12 2.556884 1_555
Bi9 O12 2.086086 1_555
Bi9 O3 2.265520 1_566
Bi9 O17 2.291990 1_555
Bi9 O14 2.424625 1_555
Bi9 O16 2.557184 1_555
Bi10 O0 2.086148 1_556
Bi10 O3 2.265615 1_556
Bi10 O18 2.291873 1_555
Bi10 O6 2.424812 1_656
Bi10 O15 2.556726 1_555
Bi11 O13 2.086147 1_455
Bi11 O19 2.265943 1_555
Bi11 O16 2.291628 1_555
Bi11 O6 2.424860 1_556
Bi11 O17 2.556094 1_555
