# generated using pymatgen
data_Li2Cu5F12
_symmetry_space_group_name_H-M   'P 1'
_cell_length_a   8.82290600
_cell_length_b   7.15198800
_cell_length_c   10.11438548
_cell_angle_alpha   45.68729821
_cell_angle_beta   90.00000000
_cell_angle_gamma   90.00000000
_symmetry_Int_Tables_number   1
_chemical_formula_structural   Li2Cu5F12
_chemical_formula_sum   'Li4 Cu10 F24'
_cell_volume   456.67849809
_cell_formula_units_Z   2
loop_
 _symmetry_equiv_pos_site_id
 _symmetry_equiv_pos_as_xyz
  1  'x, y, z'
loop_
 _atom_site_type_symbol
 _atom_site_label
 _atom_site_symmetry_multiplicity
 _atom_site_fract_x
 _atom_site_fract_y
 _atom_site_fract_z
 _atom_site_occupancy
  Li  Li0  1  0.00000000  0.00000000  0.00000000  1
  Li  Li1  1  0.91991700  0.00000000  0.75000000  1
  Li  Li2  1  0.00000000  0.00000000  0.50000000  1
  Li  Li3  1  0.08008300  0.00000000  0.25000000  1
  Cu  Cu0  1  0.50000000  0.50000000  0.50000000  1
  Cu  Cu1  1  0.67050800  0.99852600  0.00023900  1
  Cu  Cu2  1  0.16907100  0.47284400  0.50767000  1
  Cu  Cu3  1  0.16907100  0.52715600  0.99233000  1
  Cu  Cu4  1  0.50000000  0.50000000  0.00000000  1
  Cu  Cu5  1  0.67050800  0.00147400  0.49976100  1
  Cu  Cu6  1  0.32949200  0.99852600  0.50023900  1
  Cu  Cu7  1  0.83092900  0.47284400  0.00767000  1
  Cu  Cu8  1  0.83092900  0.52715600  0.49233000  1
  Cu  Cu9  1  0.32949200  0.00147400  0.99976100  1
  F  F0  1  0.33052400  0.67129600  0.32429400  1
  F  F1  1  0.66348700  0.68315500  0.31642900  1
  F  F2  1  0.99651600  0.30729100  0.68122100  1
  F  F3  1  0.16696600  0.83262900  0.98931800  1
  F  F4  1  0.50043200  0.82450300  0.99711600  1
  F  F5  1  0.83320200  0.83529700  0.97859700  1
  F  F6  1  0.83320200  0.16470300  0.52140300  1
  F  F7  1  0.50043200  0.17549700  0.50288400  1
  F  F8  1  0.16696600  0.16737100  0.51068200  1
  F  F9  1  0.99651600  0.69270900  0.81877900  1
  F  F10  1  0.66348700  0.31684500  0.18357100  1
  F  F11  1  0.33052400  0.32870400  0.17570600  1
  F  F12  1  0.33651300  0.68315500  0.81642900  1
  F  F13  1  0.66947600  0.67129600  0.82429400  1
  F  F14  1  0.00348400  0.30729100  0.18122100  1
  F  F15  1  0.83303400  0.83262900  0.48931800  1
  F  F16  1  0.49956800  0.82450300  0.49711600  1
  F  F17  1  0.16679800  0.83529700  0.47859700  1
  F  F18  1  0.16679800  0.16470300  0.02140300  1
  F  F19  1  0.49956800  0.17549700  0.00288400  1
  F  F20  1  0.83303400  0.16737100  0.01068200  1
  F  F21  1  0.00348400  0.69270900  0.31877900  1
  F  F22  1  0.33651300  0.31684500  0.68357100  1
  F  F23  1  0.66947600  0.32870400  0.67570600  1
loop_
_geom_bond_atom_site_label_1
_geom_bond_atom_site_label_2
_geom_bond_distance
_geom_bond_site_symmetry_2
Cu0 F22 1.961072 1_555
Cu0 F1 1.961072 1_555
Cu0 F23 1.962939 1_555
Cu0 F0 1.962939 1_555
Cu0 F16 2.300562 1_555
Cu0 F7 2.300562 1_555
Cu1 F20 1.924532 1_565
Cu1 F5 1.956595 1_554
Cu1 F4 1.963842 1_554
Cu1 F19 1.981069 1_565
Cu1 F1 2.289277 1_555
Cu1 F23 2.349732 1_564
Cu2 F0 1.950828 1_555
Cu2 F22 1.954297 1_555
Cu2 F2 1.974133 1_455
Cu2 F21 2.014890 1_555
Cu2 F8 2.163647 1_555
Cu2 F17 2.396180 1_555
Cu3 F11 1.950828 1_556
Cu3 F12 1.954297 1_555
Cu3 F9 1.974133 1_455
Cu3 F14 2.014890 1_556
Cu3 F3 2.163647 1_555
Cu3 F18 2.396180 1_556
Cu4 F10 1.961072 1_555
Cu4 F12 1.961072 1_554
Cu4 F13 1.962939 1_554
Cu4 F11 1.962939 1_555
Cu4 F4 2.300562 1_554
Cu4 F19 2.300562 1_555
Cu5 F15 1.924532 1_545
Cu5 F6 1.956595 1_555
Cu5 F7 1.963842 1_555
Cu5 F16 1.981069 1_545
Cu5 F10 2.289277 1_555
Cu5 F13 2.349732 1_545
Cu6 F8 1.924532 1_565
Cu6 F17 1.956595 1_555
Cu6 F16 1.963842 1_555
Cu6 F7 1.981069 1_565
Cu6 F12 2.289277 1_555
Cu6 F11 2.349732 1_565
Cu7 F13 1.950828 1_554
Cu7 F10 1.954297 1_555
Cu7 F14 1.974133 1_655
Cu7 F9 2.014890 1_554
Cu7 F20 2.163647 1_555
Cu7 F5 2.396180 1_554
Cu8 F23 1.950828 1_555
Cu8 F1 1.954297 1_555
Cu8 F21 1.974133 1_655
Cu8 F2 2.014890 1_555
Cu8 F15 2.163647 1_555
Cu8 F6 2.396180 1_555
Cu9 F3 1.924532 1_545
Cu9 F18 1.956595 1_556
Cu9 F19 1.963842 1_556
Cu9 F4 1.981069 1_545
Cu9 F22 2.289277 1_555
Cu9 F0 2.349732 1_546
F2 Li1 1.906484 1_555
F2 Li0 2.307927 1_656
F3 Li0 1.948168 1_566
F5 Li1 1.874455 1_565
F5 Li0 1.989082 1_666
F6 Li1 1.874455 1_555
F6 Li2 1.989082 1_655
F8 Li2 1.948168 1_555
F9 Li1 1.906484 1_565
F9 Li2 2.307927 1_665
F14 Li3 1.906484 1_555
F14 Li2 2.307927 1_555
F15 Li2 1.948168 1_665
F17 Li3 1.874455 1_565
F17 Li2 1.989082 1_565
F18 Li3 1.874455 1_555
F18 Li0 1.989082 1_555
F20 Li0 1.948168 1_655
F21 Li3 1.906484 1_565
F21 Li0 2.307927 1_565
