# generated using pymatgen
data_Li2Mn3(BO3)3
_symmetry_space_group_name_H-M   'P 1'
_cell_length_a   14.65184787
_cell_length_b   14.65184787
_cell_length_c   8.29543622
_cell_angle_alpha   89.62721142
_cell_angle_beta   89.62721142
_cell_angle_gamma   25.00576547
_symmetry_Int_Tables_number   1
_chemical_formula_structural   Li2Mn3(BO3)3
_chemical_formula_sum   'Li8 Mn12 B12 O36'
_cell_volume   752.75968303
_cell_formula_units_Z   4
loop_
 _symmetry_equiv_pos_site_id
 _symmetry_equiv_pos_as_xyz
  1  'x, y, z'
loop_
 _atom_site_type_symbol
 _atom_site_label
 _atom_site_symmetry_multiplicity
 _atom_site_fract_x
 _atom_site_fract_y
 _atom_site_fract_z
 _atom_site_occupancy
  Li  Li0  1  0.74631300  0.74631300  0.71294200  1
  Li  Li1  1  0.93035900  0.93035900  0.66048100  1
  Li  Li2  1  0.43135400  0.43135400  0.66236400  1
  Li  Li3  1  0.57505000  0.57505000  0.63201100  1
  Li  Li4  1  0.99604400  0.99604400  0.21050300  1
  Li  Li5  1  0.68064600  0.68064600  0.15711300  1
  Li  Li6  1  0.18021100  0.18021100  0.16614800  1
  Li  Li7  1  0.32567500  0.32567500  0.13021200  1
  Mn  Mn0  1  0.75534500  0.25636600  0.86630200  1
  Mn  Mn1  1  0.25636600  0.75534500  0.86630200  1
  Mn  Mn2  1  0.91123700  0.40638600  0.81780600  1
  Mn  Mn3  1  0.40638600  0.91123700  0.81780600  1
  Mn  Mn4  1  0.58612400  0.09037000  0.81507600  1
  Mn  Mn5  1  0.09037000  0.58612400  0.81507600  1
  Mn  Mn6  1  0.50553000  0.00580300  0.36772300  1
  Mn  Mn7  1  0.00580300  0.50553000  0.36772300  1
  Mn  Mn8  1  0.65796200  0.15814800  0.31801600  1
  Mn  Mn9  1  0.15814800  0.65796200  0.31801600  1
  Mn  Mn10  1  0.83747200  0.34002200  0.31438000  1
  Mn  Mn11  1  0.34002200  0.83747200  0.31438000  1
  B  B0  1  0.99933400  0.50022100  0.00445000  1
  B  B1  1  0.50022100  0.99933400  0.00445000  1
  B  B2  1  0.91847500  0.91847500  0.99983100  1
  B  B3  1  0.41768300  0.41768300  0.99229800  1
  B  B4  1  0.08364200  0.08364200  0.00385700  1
  B  B5  1  0.58668500  0.58668500  0.00004900  1
  B  B6  1  0.74867200  0.24937700  0.50354000  1
  B  B7  1  0.24937700  0.74867200  0.50354000  1
  B  B8  1  0.33742000  0.33742000  0.49689400  1
  B  B9  1  0.83371600  0.83371600  0.50642700  1
  B  B10  1  0.66729400  0.66729400  0.49813700  1
  B  B11  1  0.16867800  0.16867800  0.49404100  1
  O  O0  1  0.46529700  0.46529700  0.96559900  1
  O  O1  1  0.96681900  0.96681900  0.97841100  1
  O  O2  1  0.63514900  0.63514900  0.97305300  1
  O  O3  1  0.13188700  0.13188700  0.98177300  1
  O  O4  1  0.05427000  0.05427000  0.87200600  1
  O  O5  1  0.55706000  0.55706000  0.86571400  1
  O  O6  1  0.88922400  0.88922400  0.86907700  1
  O  O7  1  0.38834400  0.38834400  0.86012800  1
  O  O8  1  0.95848300  0.49671200  0.85787800  1
  O  O9  1  0.49671200  0.95848300  0.85787800  1
  O  O10  1  0.81442800  0.81442800  0.66202300  1
  O  O11  1  0.31922700  0.31922700  0.64860700  1
  O  O12  1  0.64540800  0.64540800  0.64778400  1
  O  O13  1  0.15464800  0.15464800  0.65351400  1
  O  O14  1  0.72061800  0.22373400  0.64488700  1
  O  O15  1  0.22373400  0.72061800  0.64488700  1
  O  O16  1  0.78007600  0.31333900  0.51101000  1
  O  O17  1  0.31333900  0.78007600  0.51101000  1
  O  O18  1  0.21567500  0.21567500  0.45343200  1
  O  O19  1  0.71582100  0.71582100  0.48945400  1
  O  O20  1  0.88175100  0.88175100  0.48436000  1
  O  O21  1  0.38634200  0.38634200  0.47255300  1
  O  O22  1  0.80410600  0.80410600  0.37523200  1
  O  O23  1  0.30826300  0.30826300  0.36224200  1
  O  O24  1  0.64084000  0.64084000  0.35986800  1
  O  O25  1  0.13657200  0.13657200  0.36988100  1
  O  O26  1  0.74439100  0.20978800  0.35647500  1
  O  O27  1  0.20978800  0.74439100  0.35647500  1
  O  O28  1  0.06433400  0.06433400  0.15849400  1
  O  O29  1  0.56873800  0.56873800  0.15248800  1
  O  O30  1  0.90222200  0.90222200  0.15758700  1
  O  O31  1  0.39795000  0.39795000  0.14548900  1
  O  O32  1  0.97279800  0.47324200  0.14619300  1
  O  O33  1  0.47324200  0.97279800  0.14619300  1
  O  O34  1  0.52766400  0.06497400  0.01164800  1
  O  O35  1  0.06497400  0.52766400  0.01164800  1
loop_
_geom_bond_atom_site_label_1
_geom_bond_atom_site_label_2
_geom_bond_distance
_geom_bond_site_symmetry_2
Li0 O9 1.966989 1_555
Li0 O8 1.966989 1_555
Li0 O10 1.991186 1_555
Li0 O19 2.054164 1_555
Li1 O15 1.998165 1_655
Li1 O14 1.998165 1_565
Li1 O20 2.023712 1_555
Li1 O6 2.086153 1_555
Li2 O14 1.966406 1_555
Li2 O15 1.966406 1_555
Li2 O21 2.040723 1_555
Li2 O7 2.044138 1_555
Li3 O16 1.966631 1_555
Li3 O17 1.966631 1_555
Li3 O5 2.002504 1_555
Li3 O12 2.017973 1_555
Li4 O26 1.982627 1_565
Li4 O27 1.982627 1_655
Li4 O28 1.997953 1_665
Li4 O1 2.104115 1_554
Li5 O33 1.996798 1_555
Li5 O32 1.996798 1_555
Li5 O2 2.012953 1_554
Li5 O24 2.024911 1_555
Li6 O33 2.011075 1_545
Li6 O32 2.011075 1_455
Li6 O3 2.068512 1_554
Li6 O25 2.094470 1_555
Li7 O34 1.958990 1_555
Li7 O35 1.958990 1_555
Li7 O23 1.984988 1_555
Li7 O31 2.072421 1_555
Mn0 O14 2.079811 1_555
Mn0 O4 2.108832 1_655
Mn0 O0 2.125369 1_555
Mn0 O1 2.150319 1_545
Mn0 O5 2.156600 1_555
Mn1 O15 2.079811 1_555
Mn1 O4 2.108832 1_565
Mn1 O0 2.125369 1_555
Mn1 O1 2.150319 1_455
Mn1 O5 2.156600 1_555
Mn2 O8 2.002611 1_555
Mn2 O13 2.083396 1_655
Mn2 O2 2.160917 1_555
Mn2 O12 2.169763 1_555
Mn2 O3 2.212737 1_655
Mn3 O9 2.002611 1_555
Mn3 O13 2.083396 1_565
Mn3 O2 2.160917 1_555
Mn3 O12 2.169763 1_555
Mn3 O3 2.212737 1_565
Mn4 O34 2.020586 1_556
Mn4 O10 2.155483 1_545
Mn4 O7 2.161875 1_555
Mn4 O11 2.164687 1_555
Mn4 O6 2.212354 1_545
Mn5 O35 2.020586 1_556
Mn5 O10 2.155483 1_455
Mn5 O7 2.161875 1_555
Mn5 O11 2.164687 1_555
Mn5 O6 2.212354 1_455
Mn6 O33 2.066952 1_545
Mn6 O18 2.077556 1_555
Mn6 O22 2.107970 1_545
Mn6 O23 2.185847 1_555
Mn6 O19 2.195882 1_545
Mn7 O32 2.066952 1_455
Mn7 O18 2.077556 1_555
Mn7 O22 2.107970 1_455
Mn7 O23 2.185847 1_555
Mn7 O19 2.195882 1_455
Mn8 O26 2.005729 1_555
Mn8 O30 2.078248 1_545
Mn8 O21 2.128876 1_555
Mn8 O31 2.156582 1_555
Mn8 O20 2.230195 1_545
Mn9 O27 2.005729 1_555
Mn9 O30 2.078248 1_455
Mn9 O21 2.128876 1_555
Mn9 O31 2.156582 1_555
Mn9 O20 2.230195 1_455
Mn10 O16 2.022478 1_555
Mn10 O29 2.152027 1_555
Mn10 O25 2.152541 1_655
Mn10 O28 2.170969 1_655
Mn10 O24 2.204692 1_555
Mn11 O17 2.022478 1_555
Mn11 O29 2.152027 1_555
Mn11 O25 2.152541 1_565
Mn11 O28 2.170969 1_565
Mn11 O24 2.204692 1_555
B0 O35 1.338724 1_655
B0 O8 1.380333 1_554
B0 O32 1.398766 1_555
B1 O34 1.338724 1_565
B1 O9 1.380333 1_554
B1 O33 1.398766 1_555
B2 O6 1.374366 1_555
B2 O30 1.385883 1_556
B2 O1 1.393254 1_555
B3 O0 1.378608 1_555
B3 O7 1.385240 1_555
B3 O31 1.387097 1_556
B4 O4 1.383713 1_554
B4 O3 1.391124 1_554
B4 O28 1.393271 1_555
B5 O29 1.361635 1_555
B5 O2 1.402990 1_554
B5 O5 1.404535 1_554
B6 O16 1.369869 1_555
B6 O26 1.380169 1_555
B6 O14 1.397453 1_555
B7 O17 1.369869 1_555
B7 O27 1.380169 1_555
B7 O15 1.397453 1_555
B8 O11 1.358696 1_555
B8 O23 1.398535 1_555
B8 O21 1.412756 1_555
B9 O22 1.383588 1_555
B9 O20 1.385151 1_555
B9 O10 1.400356 1_555
B10 O24 1.378388 1_555
B10 O12 1.386623 1_555
B10 O19 1.389685 1_555
B11 O13 1.379887 1_555
B11 O18 1.383905 1_555
B11 O25 1.384592 1_555
