# generated using pymatgen
data_V3O7
_symmetry_space_group_name_H-M   'P 1'
_cell_length_a   10.92788610
_cell_length_b   10.92788610
_cell_length_c   9.76275500
_cell_angle_alpha   90.00000000
_cell_angle_beta   90.00000000
_cell_angle_gamma   120.00000060
_symmetry_Int_Tables_number   1
_chemical_formula_structural   V3O7
_chemical_formula_sum   'V18 O42'
_cell_volume   1009.66043744
_cell_formula_units_Z   6
loop_
 _symmetry_equiv_pos_site_id
 _symmetry_equiv_pos_as_xyz
  1  'x, y, z'
loop_
 _atom_site_type_symbol
 _atom_site_label
 _atom_site_symmetry_multiplicity
 _atom_site_fract_x
 _atom_site_fract_y
 _atom_site_fract_z
 _atom_site_occupancy
  V  V0  1  0.30740900  0.11651600  0.29793900  1
  V  V1  1  0.31452500  0.15648700  0.64833600  1
  V  V2  1  0.31976300  0.20043400  0.99903400  1
  V  V3  1  0.79956600  0.11933000  0.99903400  1
  V  V4  1  0.84351300  0.15803800  0.64833600  1
  V  V5  1  0.88348400  0.19089300  0.29793900  1
  V  V6  1  0.11651600  0.30740900  0.79793900  1
  V  V7  1  0.15648700  0.31452500  0.14833600  1
  V  V8  1  0.80910700  0.69259100  0.29793900  1
  V  V9  1  0.20043400  0.31976300  0.49903400  1
  V  V10  1  0.84196200  0.68547500  0.64833600  1
  V  V11  1  0.88067000  0.68023700  0.99903400  1
  V  V12  1  0.11933000  0.79956600  0.49903400  1
  V  V13  1  0.15803800  0.84351300  0.14833600  1
  V  V14  1  0.19089300  0.88348400  0.79793900  1
  V  V15  1  0.69259100  0.80910700  0.79793900  1
  V  V16  1  0.68547500  0.84196200  0.14833600  1
  V  V17  1  0.68023700  0.88067000  0.49903400  1
  O  O0  1  0.25331700  0.07595700  0.83056800  1
  O  O1  1  0.28794500  0.03450400  0.11204700  1
  O  O2  1  0.25678900  0.17393800  0.46404700  1
  O  O3  1  0.28780600  0.25253500  0.19228800  1
  O  O4  1  0.46655200  0.15694400  0.33170800  1
  O  O5  1  0.48264600  0.24177800  0.64800400  1
  O  O6  1  0.74746500  0.03527100  0.19228800  1
  O  O7  1  0.47751900  0.31947200  0.95795500  1
  O  O8  1  0.68052800  0.15804700  0.95795500  1
  O  O9  1  0.82606200  0.08285000  0.46404700  1
  O  O10  1  0.75822200  0.24086800  0.64800400  1
  O  O11  1  0.92404300  0.17736000  0.83056800  1
  O  O12  1  0.84305600  0.30960700  0.33170800  1
  O  O13  1  0.69039300  0.53344800  0.33170800  1
  O  O14  1  0.96549600  0.25344100  0.11204700  1
  O  O15  1  0.75913200  0.51735400  0.64800400  1
  O  O16  1  0.07595700  0.25331700  0.33056800  1
  O  O17  1  0.03450400  0.28794500  0.61204700  1
  O  O18  1  0.84195300  0.52248100  0.95795500  1
  O  O19  1  0.17393800  0.25678900  0.96404700  1
  O  O20  1  0.74655900  0.71205500  0.11204700  1
  O  O21  1  0.25253500  0.28780600  0.69228800  1
  O  O22  1  0.82264000  0.74668300  0.83056800  1
  O  O23  1  0.15694400  0.46655200  0.83170800  1
  O  O24  1  0.96472900  0.71219400  0.19228800  1
  O  O25  1  0.91715000  0.74321100  0.46404700  1
  O  O26  1  0.24177800  0.48264600  0.14800400  1
  O  O27  1  0.03527100  0.74746500  0.69228800  1
  O  O28  1  0.31947200  0.47751900  0.45795500  1
  O  O29  1  0.15804700  0.68052800  0.45795500  1
  O  O30  1  0.08285000  0.82606200  0.96404700  1
  O  O31  1  0.24086800  0.75822200  0.14800400  1
  O  O32  1  0.17736000  0.92404300  0.33056800  1
  O  O33  1  0.30960700  0.84305600  0.83170800  1
  O  O34  1  0.53344800  0.69039300  0.83170800  1
  O  O35  1  0.25344100  0.96549600  0.61204700  1
  O  O36  1  0.51735400  0.75913200  0.14800400  1
  O  O37  1  0.52248100  0.84195300  0.45795500  1
  O  O38  1  0.71205500  0.74655900  0.61204700  1
  O  O39  1  0.74668300  0.82264000  0.33056800  1
  O  O40  1  0.71219400  0.96472900  0.69228800  1
  O  O41  1  0.74321100  0.91715000  0.96404700  1
loop_
_geom_bond_atom_site_label_1
_geom_bond_atom_site_label_2
_geom_bond_distance
_geom_bond_site_symmetry_2
O0 V14 1.885730 1_545
O0 V1 1.948937 1_555
O0 V2 2.023581 1_555
O1 V13 1.879894 1_545
O1 V0 1.987809 1_555
O1 V2 1.998914 1_554
O2 V0 1.917469 1_555
O2 V1 1.947247 1_555
O2 V9 2.004180 1_555
O3 V0 1.907241 1_555
O3 V7 1.916893 1_555
O3 V2 2.050501 1_554
O4 V0 1.600002 1_555
O5 V1 1.591128 1_555
O6 V5 1.907241 1_555
O6 V16 1.916893 1_545
O6 V3 2.050505 1_554
O7 V2 1.606989 1_555
O8 V3 1.606982 1_555
O9 V5 1.917474 1_555
O9 V4 1.947251 1_555
O9 V17 2.004180 1_545
O10 V4 1.591128 1_555
O11 V6 1.885730 1_655
O11 V4 1.948937 1_555
O11 V3 2.023581 1_555
O12 V5 1.599991 1_555
O13 V8 1.599999 1_555
O14 V7 1.879894 1_655
O14 V5 1.987809 1_555
O14 V3 1.998911 1_554
O15 V10 1.591128 1_555
O16 V5 1.885730 1_455
O16 V7 1.948937 1_555
O16 V9 2.023581 1_555
O17 V4 1.879894 1_455
O17 V6 1.987809 1_555
O17 V9 1.998914 1_555
O18 V11 1.606992 1_555
O19 V6 1.917469 1_555
O19 V7 1.947247 1_556
O19 V2 2.004180 1_555
O20 V16 1.879894 1_555
O20 V8 1.987809 1_555
O20 V11 1.998905 1_554
O21 V6 1.907241 1_555
O21 V1 1.916893 1_555
O21 V9 2.050501 1_555
O22 V15 1.885730 1_555
O22 V10 1.948937 1_555
O22 V11 2.023575 1_555
O23 V6 1.600002 1_555
O24 V8 1.907241 1_555
O24 V13 1.916893 1_655
O24 V11 2.050505 1_554
O25 V8 1.917474 1_555
O25 V10 1.947250 1_555
O25 V12 2.004180 1_655
O26 V7 1.591128 1_555
O27 V14 1.907241 1_555
O27 V10 1.916893 1_455
O27 V12 2.050505 1_555
O28 V9 1.606989 1_555
O29 V12 1.606982 1_555
O30 V14 1.917474 1_555
O30 V13 1.947251 1_556
O30 V11 2.004180 1_455
O31 V13 1.591128 1_555
O32 V0 1.885730 1_565
O32 V13 1.948937 1_555
O32 V12 2.023581 1_555
O33 V14 1.599991 1_555
O34 V15 1.599999 1_555
O35 V1 1.879894 1_565
O35 V14 1.987809 1_555
O35 V12 1.998911 1_555
O36 V16 1.591128 1_555
O37 V17 1.606992 1_555
O38 V10 1.879894 1_555
O38 V15 1.987809 1_555
O38 V17 1.998905 1_555
O39 V8 1.885730 1_555
O39 V16 1.948937 1_555
O39 V17 2.023575 1_555
O40 V15 1.907241 1_555
O40 V4 1.916893 1_565
O40 V17 2.050505 1_555
O41 V15 1.917474 1_555
O41 V16 1.947250 1_556
O41 V3 2.004180 1_565
