# generated using pymatgen
data_LiMnPO4
_symmetry_space_group_name_H-M   'P 1'
_cell_length_a   5.14411800
_cell_length_b   13.87921900
_cell_length_c   18.28487290
_cell_angle_alpha   89.67020909
_cell_angle_beta   90.00000000
_cell_angle_gamma   90.00000000
_symmetry_Int_Tables_number   1
_chemical_formula_structural   LiMnPO4
_chemical_formula_sum   'Li16 Mn16 P16 O64'
_cell_volume   1305.45138166
_cell_formula_units_Z   16
loop_
 _symmetry_equiv_pos_site_id
 _symmetry_equiv_pos_as_xyz
  1  'x, y, z'
loop_
 _atom_site_type_symbol
 _atom_site_label
 _atom_site_symmetry_multiplicity
 _atom_site_fract_x
 _atom_site_fract_y
 _atom_site_fract_z
 _atom_site_occupancy
  Li  Li0  1  0.77465600  0.14767800  0.93954900  1
  Li  Li1  1  0.21828400  0.17082200  0.72453000  1
  Li  Li2  1  0.84250700  0.25946000  0.63239100  1
  Li  Li3  1  0.70934100  0.26375700  0.11315700  1
  Li  Li4  1  0.20934100  0.23624300  0.38684300  1
  Li  Li5  1  0.34250700  0.24054000  0.86760900  1
  Li  Li6  1  0.71828400  0.32917800  0.77547000  1
  Li  Li7  1  0.27465600  0.35232200  0.56045100  1
  Li  Li8  1  0.72534400  0.64767800  0.43954900  1
  Li  Li9  1  0.28171600  0.67082200  0.22453000  1
  Li  Li10  1  0.65749300  0.75946000  0.13239100  1
  Li  Li11  1  0.79065900  0.76375700  0.61315700  1
  Li  Li12  1  0.29065900  0.73624300  0.88684300  1
  Li  Li13  1  0.15749300  0.74054000  0.36760900  1
  Li  Li14  1  0.78171600  0.82917800  0.27547000  1
  Li  Li15  1  0.22534400  0.85232200  0.06045100  1
  Mn  Mn0  1  0.75791500  0.00071400  0.11894500  1
  Mn  Mn1  1  0.24522000  0.00180800  0.37152400  1
  Mn  Mn2  1  0.26457200  0.11451600  0.19535000  1
  Mn  Mn3  1  0.70308200  0.11576500  0.45444800  1
  Mn  Mn4  1  0.20308200  0.38423500  0.04555200  1
  Mn  Mn5  1  0.76457200  0.38548400  0.30465000  1
  Mn  Mn6  1  0.74522000  0.49819200  0.12847600  1
  Mn  Mn7  1  0.25791500  0.49928600  0.38105500  1
  Mn  Mn8  1  0.74208500  0.50071400  0.61894500  1
  Mn  Mn9  1  0.25478000  0.50180800  0.87152400  1
  Mn  Mn10  1  0.23542800  0.61451600  0.69535000  1
  Mn  Mn11  1  0.79691800  0.61576500  0.95444800  1
  Mn  Mn12  1  0.29691800  0.88423500  0.54555200  1
  Mn  Mn13  1  0.73542800  0.88548400  0.80465000  1
  Mn  Mn14  1  0.75478000  0.99819200  0.62847600  1
  Mn  Mn15  1  0.24208500  0.99928600  0.88105500  1
  P  P0  1  0.75679100  0.11563100  0.78544600  1
  P  P1  1  0.21707300  0.12120800  0.54197700  1
  P  P2  1  0.29716200  0.13265700  0.03586500  1
  P  P3  1  0.74958700  0.13454300  0.29000700  1
  P  P4  1  0.24958700  0.36545700  0.20999300  1
  P  P5  1  0.79716200  0.36734300  0.46413500  1
  P  P6  1  0.71707300  0.37879200  0.95802300  1
  P  P7  1  0.25679100  0.38436900  0.71455400  1
  P  P8  1  0.74320900  0.61563100  0.28544600  1
  P  P9  1  0.28292700  0.62120800  0.04197700  1
  P  P10  1  0.20283800  0.63265700  0.53586500  1
  P  P11  1  0.75041300  0.63454300  0.79000700  1
  P  P12  1  0.25041300  0.86545700  0.70999300  1
  P  P13  1  0.70283800  0.86734300  0.96413500  1
  P  P14  1  0.78292700  0.87879200  0.45802300  1
  P  P15  1  0.24320900  0.88436900  0.21455400  1
  O  O0  1  0.60152600  0.02704100  0.81430100  1
  O  O1  1  0.39734500  0.04250300  0.57525500  1
  O  O2  1  0.09476400  0.06013500  0.06653600  1
  O  O3  1  0.92882300  0.08392200  0.54470500  1
  O  O4  1  0.39711000  0.10272700  0.95820200  1
  O  O5  1  0.86501300  0.10221300  0.70627100  1
  O  O6  1  0.86432600  0.08986900  0.21872200  1
  O  O7  1  0.46561000  0.09809700  0.30235900  1
  O  O8  1  0.92128400  0.10313300  0.35688400  1
  O  O9  1  0.99642600  0.13222600  0.83707300  1
  O  O10  1  0.29087100  0.13145800  0.45868000  1
  O  O11  1  0.53581700  0.13481100  0.09077000  1
  O  O12  1  0.56039500  0.20059500  0.78330800  1
  O  O13  1  0.22973500  0.21660100  0.58261600  1
  O  O14  1  0.18030800  0.23464800  0.03165700  1
  O  O15  1  0.74867300  0.24415300  0.28693600  1
  O  O16  1  0.24867300  0.25584700  0.21306400  1
  O  O17  1  0.68030800  0.26535200  0.46834300  1
  O  O18  1  0.72973500  0.28339900  0.91738400  1
  O  O19  1  0.06039500  0.29940500  0.71669200  1
  O  O20  1  0.03581700  0.36518900  0.40923000  1
  O  O21  1  0.79087100  0.36854200  0.04132000  1
  O  O22  1  0.49642600  0.36777400  0.66292700  1
  O  O23  1  0.42128400  0.39686700  0.14311600  1
  O  O24  1  0.96561000  0.40190300  0.19764100  1
  O  O25  1  0.36501300  0.39778700  0.79372900  1
  O  O26  1  0.36432600  0.41013100  0.28127800  1
  O  O27  1  0.89711000  0.39727300  0.54179800  1
  O  O28  1  0.42882300  0.41607800  0.95529500  1
  O  O29  1  0.59476400  0.43986500  0.43346400  1
  O  O30  1  0.89734500  0.45749700  0.92474500  1
  O  O31  1  0.10152600  0.47295900  0.68569900  1
  O  O32  1  0.89847400  0.52704100  0.31430100  1
  O  O33  1  0.10265500  0.54250300  0.07525500  1
  O  O34  1  0.40523600  0.56013500  0.56653600  1
  O  O35  1  0.57117700  0.58392200  0.04470500  1
  O  O36  1  0.10289000  0.60272700  0.45820200  1
  O  O37  1  0.63567400  0.58986900  0.71872200  1
  O  O38  1  0.63498700  0.60221300  0.20627100  1
  O  O39  1  0.03439000  0.59809700  0.80235900  1
  O  O40  1  0.57871600  0.60313300  0.85688400  1
  O  O41  1  0.50357400  0.63222600  0.33707300  1
  O  O42  1  0.20912900  0.63145800  0.95868000  1
  O  O43  1  0.96418300  0.63481100  0.59077000  1
  O  O44  1  0.93960500  0.70059500  0.28330800  1
  O  O45  1  0.27026500  0.71660100  0.08261600  1
  O  O46  1  0.31969200  0.73464800  0.53165700  1
  O  O47  1  0.75132700  0.74415300  0.78693600  1
  O  O48  1  0.25132700  0.75584700  0.71306400  1
  O  O49  1  0.81969200  0.76535200  0.96834300  1
  O  O50  1  0.77026500  0.78339900  0.41738400  1
  O  O51  1  0.43960500  0.79940500  0.21669200  1
  O  O52  1  0.46418300  0.86518900  0.90923000  1
  O  O53  1  0.70912900  0.86854200  0.54132000  1
  O  O54  1  0.00357400  0.86777400  0.16292700  1
  O  O55  1  0.07871600  0.89686700  0.64311600  1
  O  O56  1  0.53439000  0.90190300  0.69764100  1
  O  O57  1  0.13567400  0.91013100  0.78127800  1
  O  O58  1  0.13498700  0.89778700  0.29372900  1
  O  O59  1  0.60289000  0.89727300  0.04179800  1
  O  O60  1  0.07117700  0.91607800  0.45529500  1
  O  O61  1  0.90523600  0.93986500  0.93346400  1
  O  O62  1  0.60265500  0.95749700  0.42474500  1
  O  O63  1  0.39847400  0.97295900  0.18569900  1
loop_
_geom_bond_atom_site_label_1
_geom_bond_atom_site_label_2
_geom_bond_distance
_geom_bond_site_symmetry_2
Li0 O18 1.938349 1_555
Li0 O4 2.067613 1_555
Li0 O9 2.205232 1_555
Li1 O19 1.965241 1_555
Li1 O5 2.079506 1_455
Li1 O12 2.104295 1_555
Li1 O9 2.410691 1_455
Li2 O19 1.987336 1_655
Li2 O13 2.270741 1_655
Li2 O22 2.398076 1_555
Li2 O27 2.538684 1_555
Li2 O5 2.562716 1_555
Li3 O21 1.998588 1_555
Li3 O11 2.043452 1_555
Li3 O23 2.433224 1_555
Li4 O10 1.998588 1_555
Li4 O20 2.043452 1_555
Li4 O8 2.433224 1_455
Li5 O12 1.987336 1_555
Li5 O18 2.270741 1_555
Li5 O9 2.398076 1_455
Li5 O4 2.538684 1_555
Li5 O25 2.562716 1_555
Li6 O12 1.965241 1_555
Li6 O25 2.079506 1_555
Li6 O19 2.104295 1_655
Li6 O22 2.410691 1_555
Li7 O13 1.938349 1_555
Li7 O27 2.067613 1_455
Li7 O22 2.205232 1_555
Li8 O50 1.938349 1_555
Li8 O36 2.067613 1_655
Li8 O41 2.205232 1_555
Li9 O51 1.965241 1_555
Li9 O38 2.079506 1_555
Li9 O44 2.104295 1_455
Li9 O41 2.410691 1_555
Li10 O51 1.987336 1_555
Li10 O45 2.270741 1_555
Li10 O54 2.398076 1_655
Li10 O59 2.538684 1_555
Li10 O38 2.562716 1_555
Li11 O53 1.998588 1_555
Li11 O43 2.043452 1_555
Li11 O55 2.433224 1_655
Li12 O42 1.998588 1_555
Li12 O52 2.043452 1_555
Li12 O40 2.433224 1_555
Li13 O44 1.987336 1_455
Li13 O50 2.270741 1_455
Li13 O41 2.398076 1_555
Li13 O36 2.538684 1_555
Li13 O58 2.562716 1_555
Li14 O44 1.965241 1_555
Li14 O58 2.079506 1_655
Li14 O51 2.104295 1_555
Li14 O54 2.410691 1_655
Li15 O45 1.938349 1_555
Li15 O59 2.067613 1_555
Li15 O54 2.205232 1_555
Mn0 O2 2.142883 1_655
Mn0 O59 2.170323 1_545
Mn0 O11 2.241338 1_555
Mn0 O63 2.247586 1_545
Mn0 O6 2.277116 1_555
Mn0 O54 2.372974 1_645
Mn1 O58 2.110207 1_545
Mn1 O60 2.131335 1_545
Mn1 O7 2.156676 1_555
Mn1 O62 2.167743 1_545
Mn1 O8 2.195862 1_455
Mn1 O10 2.421946 1_555
Mn2 O16 1.991644 1_555
Mn2 O63 2.090368 1_545
Mn2 O6 2.130044 1_455
Mn2 O7 2.223680 1_555
Mn2 O11 2.382579 1_555
Mn2 O2 2.626942 1_555
Mn3 O3 2.063739 1_555
Mn3 O17 2.096366 1_555
Mn3 O8 2.115823 1_555
Mn3 O10 2.133068 1_555
Mn3 O62 2.323963 1_545
Mn4 O28 2.063739 1_554
Mn4 O14 2.096366 1_555
Mn4 O23 2.115823 1_555
Mn4 O21 2.133068 1_455
Mn4 O33 2.323963 1_555
Mn5 O15 1.991644 1_555
Mn5 O32 2.090368 1_555
Mn5 O26 2.130044 1_555
Mn5 O24 2.223680 1_555
Mn5 O20 2.382579 1_655
Mn5 O29 2.626942 1_555
Mn6 O38 2.110207 1_555
Mn6 O35 2.131335 1_555
Mn6 O24 2.156676 1_555
Mn6 O33 2.167743 1_655
Mn6 O23 2.195862 1_555
Mn6 O21 2.421946 1_555
Mn7 O29 2.142883 1_555
Mn7 O36 2.170323 1_555
Mn7 O20 2.241338 1_555
Mn7 O32 2.247586 1_455
Mn7 O26 2.277116 1_555
Mn7 O41 2.372974 1_555
Mn8 O34 2.142883 1_555
Mn8 O27 2.170323 1_555
Mn8 O43 2.241338 1_555
Mn8 O31 2.247586 1_655
Mn8 O37 2.277116 1_555
Mn8 O22 2.372974 1_555
Mn9 O25 2.110207 1_555
Mn9 O28 2.131335 1_555
Mn9 O39 2.156676 1_555
Mn9 O30 2.167743 1_455
Mn9 O40 2.195862 1_555
Mn9 O42 2.421946 1_555
Mn10 O48 1.991644 1_555
Mn10 O31 2.090368 1_555
Mn10 O37 2.130044 1_555
Mn10 O39 2.223680 1_555
Mn10 O43 2.382579 1_455
Mn10 O34 2.626942 1_555
Mn11 O35 2.063739 1_556
Mn11 O49 2.096366 1_555
Mn11 O40 2.115823 1_555
Mn11 O42 2.133068 1_655
Mn11 O30 2.323963 1_555
Mn12 O60 2.063739 1_555
Mn12 O46 2.096366 1_555
Mn12 O55 2.115823 1_555
Mn12 O53 2.133068 1_555
Mn12 O1 2.323963 1_565
Mn13 O47 1.991644 1_555
Mn13 O0 2.090368 1_565
Mn13 O57 2.130044 1_655
Mn13 O56 2.223680 1_555
Mn13 O52 2.382579 1_555
Mn13 O61 2.626942 1_555
Mn14 O5 2.110207 1_565
Mn14 O3 2.131335 1_565
Mn14 O56 2.156676 1_555
Mn14 O1 2.167743 1_565
Mn14 O55 2.195862 1_655
Mn14 O53 2.421946 1_555
Mn15 O61 2.142883 1_455
Mn15 O4 2.170323 1_565
Mn15 O52 2.241338 1_555
Mn15 O0 2.247586 1_565
Mn15 O57 2.277116 1_555
Mn15 O9 2.372974 1_465
O0 P0 1.555843 1_555
O1 P1 1.554291 1_555
O2 P2 1.550861 1_555
O3 P1 1.571200 1_655
O4 P2 1.568522 1_556
O5 P0 1.563188 1_555
O6 P3 1.562394 1_555
O7 P3 1.561903 1_555
O8 P3 1.568228 1_555
O9 P0 1.570430 1_555
O10 P1 1.575315 1_555
O11 P2 1.586281 1_555
O12 P0 1.553147 1_555
O13 P1 1.523371 1_555
O14 P2 1.539415 1_555
O15 P3 1.522021 1_555
O16 P4 1.522021 1_555
O17 P5 1.539415 1_555
O18 P6 1.523371 1_555
O19 P7 1.553147 1_555
O20 P5 1.586281 1_455
O21 P6 1.575315 1_554
O22 P7 1.570430 1_555
O23 P4 1.568228 1_555
O24 P4 1.561903 1_655
O25 P7 1.563188 1_555
O26 P4 1.562394 1_555
O27 P5 1.568522 1_555
O28 P6 1.571200 1_555
O29 P5 1.550861 1_555
O30 P6 1.554291 1_555
O31 P7 1.555843 1_555
O32 P8 1.555843 1_555
O33 P9 1.554291 1_555
O34 P10 1.550861 1_555
O35 P9 1.571200 1_555
O36 P10 1.568522 1_555
O37 P11 1.562394 1_555
O38 P8 1.563188 1_555
O39 P11 1.561903 1_455
O40 P11 1.568228 1_555
O41 P8 1.570430 1_555
O42 P9 1.575315 1_556
O43 P10 1.586281 1_655
O44 P8 1.553147 1_555
O45 P9 1.523371 1_555
O46 P10 1.539415 1_555
O47 P11 1.522021 1_555
O48 P12 1.522021 1_555
O49 P13 1.539415 1_555
O50 P14 1.523371 1_555
O51 P15 1.553147 1_555
O52 P13 1.586281 1_555
O53 P14 1.575315 1_555
O54 P15 1.570430 1_555
O55 P12 1.568228 1_555
O56 P12 1.561903 1_555
O57 P12 1.562394 1_555
O58 P15 1.563188 1_555
O59 P13 1.568522 1_554
O60 P14 1.571200 1_455
O61 P13 1.550861 1_555
O62 P14 1.554291 1_555
O63 P15 1.555843 1_555
