# generated using pymatgen
data_LiVPO4F
_symmetry_space_group_name_H-M   'P 1'
_cell_length_a   6.35881100
_cell_length_b   10.74469908
_cell_length_c   11.00597576
_cell_angle_alpha   89.84148955
_cell_angle_beta   89.95274102
_cell_angle_gamma   89.75643872
_symmetry_Int_Tables_number   1
_chemical_formula_structural   LiVPO4F
_chemical_formula_sum   'Li8 V8 P8 O32 F8'
_cell_volume   751.95698203
_cell_formula_units_Z   8
loop_
 _symmetry_equiv_pos_site_id
 _symmetry_equiv_pos_as_xyz
  1  'x, y, z'
loop_
 _atom_site_type_symbol
 _atom_site_label
 _atom_site_symmetry_multiplicity
 _atom_site_fract_x
 _atom_site_fract_y
 _atom_site_fract_z
 _atom_site_occupancy
  Li  Li0  1  0.49140800  0.24057800  0.32025300  1
  Li  Li1  1  0.00449400  0.24095800  0.32488400  1
  Li  Li2  1  0.98971400  0.27574900  0.81644800  1
  Li  Li3  1  0.50586400  0.72583100  0.18860800  1
  Li  Li4  1  0.00107400  0.72441900  0.19688500  1
  Li  Li5  1  0.52194100  0.74179100  0.66485000  1
  Li  Li6  1  0.24577500  0.77229800  0.90823000  1
  Li  Li7  1  0.75342600  0.95736800  0.72937100  1
  V  V0  1  0.00073500  0.00404000  0.00256700  1
  V  V1  1  0.49917400  0.00526600  0.00250500  1
  V  V2  1  0.99922700  0.99646800  0.49835400  1
  V  V3  1  0.49387500  0.00223800  0.49572800  1
  V  V4  1  0.99786000  0.50176000  0.50134800  1
  V  V5  1  0.49757800  0.49696400  0.50072000  1
  V  V6  1  0.00299500  0.50011900  0.00083500  1
  V  V7  1  0.50496200  0.49307000  0.99534600  1
  P  P0  1  0.24287200  0.03877500  0.74288800  1
  P  P1  1  0.24961000  0.24058400  0.07886500  1
  P  P2  1  0.75296400  0.26020000  0.57263500  1
  P  P3  1  0.74807500  0.46816300  0.24172500  1
  P  P4  1  0.25938200  0.53507300  0.76093700  1
  P  P5  1  0.25008600  0.73889900  0.42409200  1
  P  P6  1  0.74476200  0.76148700  0.92499100  1
  P  P7  1  0.75096900  0.96598400  0.25696400  1
  O  O0  1  0.75336700  0.01673900  0.12065400  1
  O  O1  1  0.94713400  0.02170000  0.32096500  1
  O  O2  1  0.55313200  0.02472600  0.31895400  1
  O  O3  1  0.74895000  0.11626000  0.52950400  1
  O  O4  1  0.22755200  0.17572900  0.75547200  1
  O  O5  1  0.45194000  0.18047300  0.02603100  1
  O  O6  1  0.05505600  0.18210400  0.01437700  1
  O  O7  1  0.24200400  0.23730300  0.21596500  1
  O  O8  1  0.76236800  0.26604700  0.70707300  1
  O  O9  1  0.94677800  0.31767900  0.50415900  1
  O  O10  1  0.55185900  0.31575000  0.50915800  1
  O  O11  1  0.75004400  0.32700900  0.24858600  1
  O  O12  1  0.25099400  0.38192400  0.03335900  1
  O  O13  1  0.45565000  0.47548900  0.82187100  1
  O  O14  1  0.06066500  0.47959300  0.82443900  1
  O  O15  1  0.25010500  0.48980200  0.62341400  1
  O  O16  1  0.74337000  0.51928000  0.37704000  1
  O  O17  1  0.94485700  0.52808900  0.17850100  1
  O  O18  1  0.55393500  0.52533700  0.17443300  1
  O  O19  1  0.75099900  0.61934200  0.96249600  1
  O  O20  1  0.27350400  0.67644900  0.76151200  1
  O  O21  1  0.44536100  0.68156100  0.48900600  1
  O  O22  1  0.04630400  0.68040100  0.47291200  1
  O  O23  1  0.26083100  0.73745100  0.28619200  1
  O  O24  1  0.72943100  0.78294100  0.78997600  1
  O  O25  1  0.95006000  0.81702900  0.98218900  1
  O  O26  1  0.54801000  0.81694600  0.99302600  1
  O  O27  1  0.75081000  0.82480800  0.24941900  1
  O  O28  1  0.24956400  0.88107300  0.46840200  1
  O  O29  1  0.44420700  0.98476600  0.67717000  1
  O  O30  1  0.04821500  0.97892200  0.67758500  1
  O  O31  1  0.25022300  0.97519300  0.87697100  1
  F  F0  1  0.75062400  0.03501800  0.88749500  1
  F  F1  1  0.24273800  0.11752900  0.47908000  1
  F  F2  1  0.76178400  0.38220500  0.98678900  1
  F  F3  1  0.24725400  0.45999700  0.39245000  1
  F  F4  1  0.74588000  0.53714300  0.60907600  1
  F  F5  1  0.25477800  0.62078900  0.01421600  1
  F  F6  1  0.74070800  0.88399000  0.52341100  1
  F  F7  1  0.25014100  0.96113200  0.10865000  1
loop_
_geom_bond_atom_site_label_1
_geom_bond_atom_site_label_2
_geom_bond_distance
_geom_bond_site_symmetry_2
Li0 O7 1.958950 1_555
Li0 O11 2.048450 1_555
Li0 O10 2.266270 1_555
Li0 O2 2.350676 1_555
Li1 O7 1.927767 1_555
Li1 O11 2.040385 1_455
Li1 O9 2.170847 1_455
Li1 O1 2.385974 1_455
Li2 O8 1.885391 1_555
Li2 O4 1.970044 1_655
Li2 O14 2.240084 1_655
Li2 O6 2.432344 1_656
Li3 O23 1.895558 1_555
Li3 O27 2.006160 1_555
Li3 O18 2.180537 1_555
Li3 O26 2.377699 1_554
Li4 O23 1.928572 1_555
Li4 O27 2.004400 1_455
Li4 O17 2.151194 1_455
Li4 O25 2.581545 1_454
Li5 O24 1.960639 1_555
Li5 O20 2.030491 1_555
Li5 O21 2.100624 1_555
Li6 O20 1.925203 1_555
Li6 O25 2.102718 1_455
Li6 O26 2.192697 1_555
Li6 O31 2.206381 1_555
Li7 O30 1.973185 1_655
Li7 O24 1.994000 1_555
Li7 O29 2.068561 1_555
O0 P7 1.594934 1_545
O0 V0 2.043954 1_655
O0 V1 2.079610 1_555
O1 P7 1.555838 1_545
O1 V2 1.998056 1_545
O2 P7 1.562258 1_545
O2 V3 1.995638 1_555
O3 P2 1.619369 1_555
O3 V3 2.071315 1_555
O3 V2 2.071502 1_545
O4 P0 1.481201 1_555
O5 P1 1.550596 1_555
O5 V1 1.923278 1_555
O6 P1 1.561920 1_555
O6 V0 1.950328 1_555
O7 P1 1.509973 1_555
O8 P2 1.482395 1_555
O9 P2 1.571828 1_555
O9 V4 2.005902 1_555
O10 P2 1.572357 1_555
O10 V5 1.977943 1_555
O11 P3 1.518326 1_555
O12 P1 1.597851 1_555
O12 V6 2.051636 1_555
O12 V7 2.054690 1_554
O13 P4 1.552231 1_555
O13 V7 1.944936 1_555
O14 P4 1.563059 1_555
O14 V6 1.988140 1_556
O15 P4 1.592313 1_555
O15 V5 2.074292 1_555
O15 V4 2.096420 1_455
O16 P3 1.588963 1_555
O16 V5 2.085924 1_555
O16 V4 2.127346 1_555
O17 P3 1.570819 1_555
O17 V6 2.012869 1_655
O18 P3 1.562827 1_555
O18 V7 2.026780 1_554
O19 P6 1.581343 1_555
O19 V6 2.089830 1_656
O19 V7 2.105604 1_555
O20 P4 1.522106 1_555
O21 P5 1.557038 1_555
O21 V5 2.013444 1_555
O22 P5 1.538442 1_555
O22 V4 1.969429 1_455
O23 P5 1.519325 1_555
O24 P6 1.506289 1_555
O25 P6 1.570575 1_555
O25 V0 2.049353 1_666
O26 P6 1.573414 1_555
O26 V1 2.048757 1_566
O27 P7 1.519399 1_555
O28 P5 1.604845 1_555
O28 V2 2.040728 1_455
O28 V3 2.054002 1_565
O29 P0 1.579060 1_565
O29 V3 2.029821 1_565
O30 P0 1.572594 1_565
O30 V2 2.005551 1_455
O31 P0 1.625085 1_565
O31 V0 2.125612 1_566
O31 V1 2.128312 1_566
F0 Li7 1.932084 1_545
F0 V0 2.059283 1_656
F0 V1 2.063918 1_556
F1 V3 2.025023 1_555
F1 V2 2.037083 1_445
F2 V6 1.999912 1_656
F2 V7 2.019564 1_555
F3 V5 2.030407 1_555
F3 V4 2.036305 1_455
F4 V4 2.027765 1_555
F4 V5 2.028121 1_555
F5 Li6 2.000720 1_554
F5 V6 2.070070 1_555
F5 V7 2.107058 1_554
F6 V3 2.037725 1_565
F6 V2 2.062340 1_555
F6 Li7 2.403586 1_555
F7 V0 2.021073 1_565
F7 V1 2.024238 1_565
