# generated using pymatgen
data_Li3VPCO7
_symmetry_space_group_name_H-M   'P 1'
_cell_length_a   6.51258800
_cell_length_b   9.66912000
_cell_length_c   9.77918424
_cell_angle_alpha   62.30373878
_cell_angle_beta   90.00000000
_cell_angle_gamma   90.00000000
_symmetry_Int_Tables_number   1
_chemical_formula_structural   Li3VPCO7
_chemical_formula_sum   'Li12 V4 P4 C4 O28'
_cell_volume   545.24846469
_cell_formula_units_Z   4
loop_
 _symmetry_equiv_pos_site_id
 _symmetry_equiv_pos_as_xyz
  1  'x, y, z'
loop_
 _atom_site_type_symbol
 _atom_site_label
 _atom_site_symmetry_multiplicity
 _atom_site_fract_x
 _atom_site_fract_y
 _atom_site_fract_z
 _atom_site_occupancy
  Li  Li0  1  0.26619000  0.68804300  0.88902600  1
  Li  Li1  1  0.23381000  0.18804300  0.88902600  1
  Li  Li2  1  0.02197600  0.51908900  0.71128100  1
  Li  Li3  1  0.47802400  0.01908900  0.71128100  1
  Li  Li4  1  0.75138500  0.32139500  0.62588800  1
  Li  Li5  1  0.74861500  0.82139500  0.62588800  1
  Li  Li6  1  0.24861500  0.67860500  0.37411200  1
  Li  Li7  1  0.25138500  0.17860500  0.37411200  1
  Li  Li8  1  0.97802400  0.48091100  0.28871900  1
  Li  Li9  1  0.52197600  0.98091100  0.28871900  1
  Li  Li10  1  0.73381000  0.31195700  0.11097400  1
  Li  Li11  1  0.76619000  0.81195700  0.11097400  1
  V  V0  1  0.52193700  0.48621900  0.75153200  1
  V  V1  1  0.97806300  0.98621900  0.75153200  1
  V  V2  1  0.47806300  0.51378100  0.24846800  1
  V  V3  1  0.02193700  0.01378100  0.24846800  1
  P  P0  1  0.23796100  0.31305800  0.59198900  1
  P  P1  1  0.26203900  0.81305800  0.59198900  1
  P  P2  1  0.76203900  0.68694200  0.40801100  1
  P  P3  1  0.73796100  0.18694200  0.40801100  1
  C  C0  1  0.75630400  0.64307200  0.94623600  1
  C  C1  1  0.74369600  0.14307200  0.94623600  1
  C  C2  1  0.24369600  0.35692800  0.05376400  1
  C  C3  1  0.25630400  0.85692800  0.05376400  1
  O  O0  1  0.69865500  0.28235500  0.92642700  1
  O  O1  1  0.80134500  0.78235500  0.92642700  1
  O  O2  1  0.27548000  0.46772400  0.91204800  1
  O  O3  1  0.74470300  0.61108700  0.83306000  1
  O  O4  1  0.22452000  0.96772400  0.91204800  1
  O  O5  1  0.75529700  0.11108700  0.83306000  1
  O  O6  1  0.05670800  0.32885700  0.68535600  1
  O  O7  1  0.43454400  0.31312400  0.68248400  1
  O  O8  1  0.06545600  0.81312400  0.68248400  1
  O  O9  1  0.44329200  0.82885700  0.68535600  1
  O  O10  1  0.75814100  0.55673600  0.57810900  1
  O  O11  1  0.27706400  0.65099200  0.59289700  1
  O  O12  1  0.74185900  0.05673600  0.57810900  1
  O  O13  1  0.22293600  0.15099200  0.59289700  1
  O  O14  1  0.72293600  0.34900800  0.40710300  1
  O  O15  1  0.24185900  0.44326400  0.42189100  1
  O  O16  1  0.77706400  0.84900800  0.40710300  1
  O  O17  1  0.25814100  0.94326400  0.42189100  1
  O  O18  1  0.94329200  0.67114300  0.31464400  1
  O  O19  1  0.56545600  0.68687600  0.31751600  1
  O  O20  1  0.93454400  0.18687600  0.31751600  1
  O  O21  1  0.55670800  0.17114300  0.31464400  1
  O  O22  1  0.25529700  0.38891300  0.16694000  1
  O  O23  1  0.72452000  0.53227600  0.08795200  1
  O  O24  1  0.24470300  0.88891300  0.16694000  1
  O  O25  1  0.77548000  0.03227600  0.08795200  1
  O  O26  1  0.30134500  0.71764500  0.07357300  1
  O  O27  1  0.19865500  0.21764500  0.07357300  1
loop_
_geom_bond_atom_site_label_1
_geom_bond_atom_site_label_2
_geom_bond_distance
_geom_bond_site_symmetry_2
Li0 O26 1.967620 1_556
Li0 O2 2.036335 1_555
Li0 O9 2.151806 1_555
Li0 O8 2.231729 1_555
Li1 O27 1.967620 1_556
Li1 O4 2.036335 1_545
Li1 O6 2.151806 1_555
Li1 O7 2.231729 1_555
Li2 O6 1.982985 1_555
Li2 O10 2.083323 1_455
Li2 O11 2.086676 1_555
Li2 O2 2.433234 1_555
Li2 O3 2.540679 1_455
Li3 O9 1.982985 1_545
Li3 O12 2.083323 1_555
Li3 O13 2.086676 1_555
Li3 O4 2.433234 1_545
Li3 O5 2.540679 1_555
Li4 O14 2.037702 1_555
Li4 O6 2.082382 1_655
Li4 O10 2.099999 1_555
Li4 O5 2.100160 1_555
Li4 O7 2.128243 1_555
Li5 O16 2.037702 1_555
Li5 O9 2.082382 1_555
Li5 O12 2.099999 1_565
Li5 O3 2.100160 1_555
Li5 O8 2.128243 1_655
Li6 O11 2.037702 1_555
Li6 O18 2.082382 1_455
Li6 O15 2.099999 1_555
Li6 O24 2.100160 1_555
Li6 O19 2.128243 1_555
Li7 O13 2.037702 1_555
Li7 O21 2.082382 1_555
Li7 O17 2.099999 1_545
Li7 O22 2.100160 1_555
Li7 O20 2.128243 1_455
Li8 O18 1.982985 1_555
Li8 O15 2.083323 1_655
Li8 O14 2.086676 1_555
Li8 O23 2.433234 1_555
Li8 O22 2.540679 1_655
Li9 O21 1.982985 1_565
Li9 O17 2.083323 1_555
Li9 O16 2.086676 1_555
Li9 O25 2.433234 1_565
Li9 O24 2.540679 1_555
Li10 O0 1.967620 1_554
Li10 O23 2.036335 1_555
Li10 O21 2.151806 1_555
Li10 O20 2.231729 1_555
Li11 O1 1.967620 1_554
Li11 O25 2.036335 1_565
Li11 O18 2.151806 1_555
Li11 O19 2.231729 1_555
C0 O3 1.282369 1_555
C0 O1 1.301837 1_555
C0 O23 1.315693 1_556
C1 O5 1.282369 1_555
C1 O0 1.301837 1_555
C1 O25 1.315693 1_556
C2 O22 1.282369 1_555
C2 O27 1.301837 1_555
C2 O2 1.315693 1_554
C3 O24 1.282369 1_555
C3 O26 1.301837 1_555
C3 O4 1.315693 1_554
O0 V0 2.236387 1_555
O1 V1 2.236387 1_555
O2 V0 2.193469 1_555
O3 V0 2.256758 1_555
O4 V1 2.193469 1_455
O5 V1 2.256758 1_545
O6 P0 1.542746 1_555
O7 P0 1.556525 1_555
O7 V0 2.152114 1_555
O8 P1 1.556525 1_555
O8 V1 2.152114 1_455
O9 P1 1.542746 1_555
O10 P2 1.551104 1_555
O10 V0 2.152337 1_555
O11 P1 1.565988 1_555
O11 V0 2.278302 1_555
O12 P3 1.551104 1_555
O12 V1 2.152337 1_545
O13 P0 1.565988 1_555
O13 V1 2.278302 1_445
O14 P3 1.565988 1_555
O14 V2 2.278302 1_555
O15 P0 1.551104 1_555
O15 V2 2.152337 1_555
O16 P2 1.565988 1_555
O16 V3 2.278302 1_665
O17 P1 1.551104 1_555
O17 V3 2.152337 1_565
O18 P2 1.542746 1_555
O19 P2 1.556525 1_555
O19 V2 2.152114 1_555
O20 P3 1.556525 1_555
O20 V3 2.152114 1_655
O21 P3 1.542746 1_555
O22 V2 2.256758 1_555
O23 V2 2.193469 1_555
O24 V3 2.256758 1_565
O25 V3 2.193469 1_655
O26 V2 2.236387 1_555
O27 V3 2.236387 1_555
