# generated using pymatgen
data_Li5V2Ni3O10
_symmetry_space_group_name_H-M   'P 1'
_cell_length_a   5.10197956
_cell_length_b   7.77124706
_cell_length_c   10.22098245
_cell_angle_alpha   108.81428939
_cell_angle_beta   79.54391506
_cell_angle_gamma   108.40480082
_symmetry_Int_Tables_number   1
_chemical_formula_structural   Li5V2Ni3O10
_chemical_formula_sum   'Li10 V4 Ni6 O20'
_cell_volume   362.54068725
_cell_formula_units_Z   2
loop_
 _symmetry_equiv_pos_site_id
 _symmetry_equiv_pos_as_xyz
  1  'x, y, z'
loop_
 _atom_site_type_symbol
 _atom_site_label
 _atom_site_symmetry_multiplicity
 _atom_site_fract_x
 _atom_site_fract_y
 _atom_site_fract_z
 _atom_site_occupancy
  Li  Li0  1  0.49920400  0.50167600  0.50194400  1
  Li  Li1  1  0.50084100  0.49837700  0.99804100  1
  Li  Li2  1  0.21337100  0.39963700  0.24934200  1
  Li  Li3  1  0.21143000  0.39665200  0.75027300  1
  Li  Li4  1  0.78861900  0.60336400  0.74971600  1
  Li  Li5  1  0.78669000  0.60038400  0.25059000  1
  Li  Li6  1  0.39587200  0.79353500  0.74494500  1
  Li  Li7  1  0.41169200  0.80427500  0.24782100  1
  Li  Li8  1  0.58845500  0.19587900  0.25221900  1
  Li  Li9  1  0.60431500  0.20661700  0.75504700  1
  V  V0  1  0.10010100  0.69087100  0.49090800  1
  V  V1  1  0.10344100  0.69772100  0.99316500  1
  V  V2  1  0.89656600  0.30216900  0.50677900  1
  V  V3  1  0.89995100  0.30908100  0.00906700  1
  Ni  Ni0  1  0.00013100  0.99995400  0.25007800  1
  Ni  Ni1  1  0.69664900  0.89967500  0.50240100  1
  Ni  Ni2  1  0.30323700  0.10015900  0.99754200  1
  Ni  Ni3  1  0.99985000  0.99986500  0.75002500  1
  Ni  Ni4  1  0.69589800  0.89879400  0.00141700  1
  Ni  Ni5  1  0.30407700  0.10128000  0.49873200  1
  O  O0  1  0.04854000  0.84705500  0.88054500  1
  O  O1  1  0.04991300  0.83938800  0.38205200  1
  O  O2  1  0.95013500  0.16067600  0.11795100  1
  O  O3  1  0.95122900  0.15286200  0.61948200  1
  O  O4  1  0.32690300  0.92801000  0.61482800  1
  O  O5  1  0.33494900  0.93847900  0.11881300  1
  O  O6  1  0.66508400  0.06152400  0.38120900  1
  O  O7  1  0.67293900  0.07195200  0.88520000  1
  O  O8  1  0.13632100  0.54995500  0.60913100  1
  O  O9  1  0.12905500  0.53239200  0.11048500  1
  O  O10  1  0.87094400  0.46764500  0.38949100  1
  O  O11  1  0.86372500  0.45007400  0.89080800  1
  O  O12  1  0.21841100  0.24824900  0.38149400  1
  O  O13  1  0.21758300  0.24697100  0.88287700  1
  O  O14  1  0.78224300  0.75292100  0.61708500  1
  O  O15  1  0.78165800  0.75179700  0.11856400  1
  O  O16  1  0.42128700  0.65819800  0.38430900  1
  O  O17  1  0.42195700  0.65727600  0.88490200  1
  O  O18  1  0.57802800  0.34283300  0.61512200  1
  O  O19  1  0.57870500  0.34177700  0.11560000  1
loop_
_geom_bond_atom_site_label_1
_geom_bond_atom_site_label_2
_geom_bond_distance
_geom_bond_site_symmetry_2
Li0 O8 2.050870 1_555
Li0 O10 2.077878 1_555
Li0 O18 2.104049 1_555
Li0 O16 2.122584 1_555
Li0 O14 2.153336 1_555
Li0 O12 2.177468 1_555
Li1 O11 2.051076 1_555
Li1 O9 2.078017 1_556
Li1 O17 2.104245 1_555
Li1 O19 2.122341 1_556
Li1 O13 2.154613 1_555
Li1 O15 2.177791 1_556
Li2 O12 2.065401 1_555
Li2 O16 2.112595 1_555
Li2 O2 2.127667 1_455
Li2 O10 2.137721 1_455
Li2 O9 2.170241 1_555
Li2 O19 2.180134 1_555
Li3 O13 2.060673 1_555
Li3 O17 2.124725 1_555
Li3 O11 2.130297 1_455
Li3 O3 2.135685 1_455
Li3 O18 2.182879 1_555
Li3 O8 2.290147 1_555
Li4 O14 2.060509 1_555
Li4 O18 2.124253 1_555
Li4 O8 2.130496 1_655
Li4 O0 2.134835 1_655
Li4 O17 2.183477 1_555
Li4 O11 2.289638 1_555
Li5 O15 2.064460 1_555
Li5 O19 2.113018 1_555
Li5 O1 2.128130 1_655
Li5 O9 2.137242 1_655
Li5 O10 2.170380 1_555
Li5 O16 2.180225 1_555
Li6 O4 2.069570 1_555
Li6 O17 2.078563 1_555
Li6 O0 2.106253 1_555
Li6 O8 2.157128 1_555
Li6 O14 2.210231 1_555
Li6 O7 2.353352 1_565
Li7 O5 2.076522 1_555
Li7 O16 2.078114 1_555
Li7 O1 2.126292 1_555
Li7 O15 2.169799 1_555
Li7 O6 2.185500 1_565
Li7 O9 2.326329 1_555
Li8 O6 2.077000 1_555
Li8 O19 2.078435 1_555
Li8 O2 2.126197 1_555
Li8 O12 2.169973 1_555
Li8 O5 2.186441 1_545
Li8 O10 2.325247 1_555
Li9 O7 2.070224 1_555
Li9 O18 2.078390 1_555
Li9 O3 2.104881 1_555
Li9 O11 2.156090 1_555
Li9 O13 2.211170 1_555
Li9 O4 2.354726 1_545
Ni0 O5 2.053383 1_555
Ni0 O6 2.053928 1_465
Ni0 O12 2.069286 1_565
Ni0 O15 2.069497 1_455
Ni0 O1 2.202538 1_555
Ni0 O2 2.205227 1_465
Ni1 O14 2.056191 1_555
Ni1 O4 2.059097 1_555
Ni1 O1 2.082749 1_655
Ni1 O6 2.085072 1_565
Ni1 O3 2.102893 1_565
Ni1 O16 2.107582 1_555
Ni2 O13 2.056551 1_555
Ni2 O7 2.058381 1_555
Ni2 O2 2.082836 1_456
Ni2 O5 2.084926 1_546
Ni2 O0 2.102462 1_545
Ni2 O19 2.108248 1_556
Ni3 O7 2.063721 1_565
Ni3 O4 2.063819 1_655
Ni3 O14 2.069288 1_555
Ni3 O13 2.069801 1_665
Ni3 O0 2.140088 1_655
Ni3 O3 2.141291 1_565
Ni4 O5 2.060123 1_555
Ni4 O0 2.062668 1_654
Ni4 O15 2.078001 1_555
Ni4 O17 2.097701 1_554
Ni4 O7 2.101554 1_564
Ni4 O2 2.138540 1_565
Ni5 O6 2.060988 1_555
Ni5 O3 2.062726 1_455
Ni5 O12 2.078329 1_555
Ni5 O18 2.097352 1_555
Ni5 O4 2.101075 1_545
Ni5 O1 2.138971 1_545
O0 V1 1.983473 1_555
O1 V0 1.937489 1_555
O2 V3 1.936991 1_555
O3 V2 1.983453 1_555
O4 V0 2.004805 1_555
O5 V1 2.037226 1_554
O6 V2 2.036355 1_555
O7 V3 2.004955 1_556
O8 V0 1.938000 1_555
O8 V2 1.994097 1_455
O9 V3 1.857694 1_455
O9 V1 2.064546 1_554
O10 V0 1.857441 1_655
O10 V2 2.065249 1_555
O11 V3 1.938791 1_556
O11 V1 1.993382 1_655
O12 V2 1.958789 1_455
O13 V3 1.963781 1_456
O14 V0 1.964490 1_655
O15 V1 1.959369 1_654
O16 V0 1.836606 1_555
O17 V1 1.846507 1_555
O18 V2 1.847348 1_555
O19 V3 1.836640 1_555
