# generated using pymatgen
data_Ni3(PO4)2
_symmetry_space_group_name_H-M   'P 1'
_cell_length_a   11.11555800
_cell_length_b   6.10637000
_cell_length_c   8.70088060
_cell_angle_alpha   80.03172696
_cell_angle_beta   90.00000000
_cell_angle_gamma   90.00000000
_symmetry_Int_Tables_number   1
_chemical_formula_structural   Ni3(PO4)2
_chemical_formula_sum   'Ni12 P8 O32'
_cell_volume   581.66293230
_cell_formula_units_Z   4
loop_
 _symmetry_equiv_pos_site_id
 _symmetry_equiv_pos_as_xyz
  1  'x, y, z'
loop_
 _atom_site_type_symbol
 _atom_site_label
 _atom_site_symmetry_multiplicity
 _atom_site_fract_x
 _atom_site_fract_y
 _atom_site_fract_z
 _atom_site_occupancy
  Ni  Ni0  1  0.38635200  0.37763000  0.07581800  1
  Ni  Ni1  1  0.11364800  0.87763000  0.07581800  1
  Ni  Ni2  1  0.08252500  0.33425300  0.27456200  1
  Ni  Ni3  1  0.41747500  0.83425300  0.27456200  1
  Ni  Ni4  1  0.69431800  0.38306600  0.36367300  1
  Ni  Ni5  1  0.80568200  0.88306600  0.36367300  1
  Ni  Ni6  1  0.19431800  0.11693400  0.63632700  1
  Ni  Ni7  1  0.30568200  0.61693400  0.63632700  1
  Ni  Ni8  1  0.58252500  0.16574700  0.72543800  1
  Ni  Ni9  1  0.91747500  0.66574700  0.72543800  1
  Ni  Ni10  1  0.88635300  0.12237000  0.92418200  1
  Ni  Ni11  1  0.61364800  0.62237000  0.92418200  1
  P  P0  1  0.63527000  0.11083100  0.09261400  1
  P  P1  1  0.86473000  0.61083100  0.09261400  1
  P  P2  1  0.41372400  0.30611500  0.39610400  1
  P  P3  1  0.08627600  0.80611500  0.39610400  1
  P  P4  1  0.91372400  0.19388500  0.60389600  1
  P  P5  1  0.58627600  0.69388500  0.60389600  1
  P  P6  1  0.13527000  0.38916900  0.90738600  1
  P  P7  1  0.36473000  0.88916900  0.90738600  1
  O  O0  1  0.20598600  0.39645300  0.06054700  1
  O  O1  1  0.56486900  0.33520600  0.07296800  1
  O  O2  1  0.29401400  0.89645300  0.06054700  1
  O  O3  1  0.93513100  0.83520600  0.07296800  1
  O  O4  1  0.94063600  0.40002700  0.13390700  1
  O  O5  1  0.55936400  0.90002700  0.13390700  1
  O  O6  1  0.72178300  0.12938100  0.23037400  1
  O  O7  1  0.08383800  0.01992000  0.27006900  1
  O  O8  1  0.77821700  0.62938100  0.23037400  1
  O  O9  1  0.37453900  0.13360200  0.29503500  1
  O  O10  1  0.41616200  0.51992000  0.27006900  1
  O  O11  1  0.12546100  0.63360200  0.29503500  1
  O  O12  1  0.53860100  0.25642600  0.47550800  1
  O  O13  1  0.81702400  0.16922200  0.48113900  1
  O  O14  1  0.96139900  0.75642600  0.47550800  1
  O  O15  1  0.31702400  0.33077800  0.51886100  1
  O  O16  1  0.68297600  0.66922200  0.48113900  1
  O  O17  1  0.03860100  0.24357400  0.52449200  1
  O  O18  1  0.18297600  0.83077800  0.51886100  1
  O  O19  1  0.46139900  0.74357400  0.52449200  1
  O  O20  1  0.87453900  0.36639800  0.70496500  1
  O  O21  1  0.58383800  0.48008000  0.72993100  1
  O  O22  1  0.62546100  0.86639800  0.70496500  1
  O  O23  1  0.22178300  0.37061900  0.76962600  1
  O  O24  1  0.91616200  0.98008000  0.72993100  1
  O  O25  1  0.27821700  0.87061900  0.76962600  1
  O  O26  1  0.44063600  0.09997300  0.86609300  1
  O  O27  1  0.05936400  0.59997300  0.86609300  1
  O  O28  1  0.06486900  0.16479400  0.92703200  1
  O  O29  1  0.70598600  0.10354700  0.93945300  1
  O  O30  1  0.43513100  0.66479400  0.92703200  1
  O  O31  1  0.79401400  0.60354700  0.93945300  1
loop_
_geom_bond_atom_site_label_1
_geom_bond_atom_site_label_2
_geom_bond_distance
_geom_bond_site_symmetry_2
Ni0 O1 2.001864 1_555
Ni0 O0 2.011238 1_555
Ni0 O10 2.056642 1_555
Ni0 O30 2.063699 1_554
Ni0 O9 2.211746 1_555
Ni1 O3 2.001864 1_455
Ni1 O2 2.011238 1_555
Ni1 O7 2.056642 1_565
Ni1 O28 2.063699 1_564
Ni1 O11 2.211746 1_555
Ni2 O7 1.926641 1_555
Ni2 O11 1.927067 1_555
Ni2 O4 1.994083 1_455
Ni2 O17 2.203870 1_555
Ni2 O0 2.291332 1_555
Ni3 O10 1.926641 1_555
Ni3 O9 1.927067 1_565
Ni3 O5 1.994083 1_555
Ni3 O19 2.203870 1_555
Ni3 O2 2.291332 1_555
Ni4 O8 1.968054 1_555
Ni4 O13 2.036674 1_555
Ni4 O12 2.068888 1_555
Ni4 O6 2.111893 1_555
Ni4 O16 2.175341 1_555
Ni5 O6 1.968054 1_565
Ni5 O16 2.036674 1_555
Ni5 O14 2.068888 1_555
Ni5 O8 2.111893 1_555
Ni5 O13 2.175341 1_565
Ni6 O25 1.968054 1_545
Ni6 O15 2.036674 1_555
Ni6 O17 2.068888 1_555
Ni6 O23 2.111893 1_555
Ni6 O18 2.175341 1_545
Ni7 O23 1.968054 1_555
Ni7 O18 2.036674 1_555
Ni7 O19 2.068888 1_555
Ni7 O25 2.111893 1_555
Ni7 O15 2.175341 1_555
Ni8 O21 1.926641 1_555
Ni8 O22 1.927067 1_545
Ni8 O26 1.994083 1_555
Ni8 O12 2.203870 1_555
Ni8 O29 2.291332 1_555
Ni9 O24 1.926641 1_555
Ni9 O20 1.927067 1_555
Ni9 O27 1.994083 1_655
Ni9 O14 2.203870 1_555
Ni9 O31 2.291332 1_555
Ni10 O28 2.001853 1_655
Ni10 O29 2.011249 1_555
Ni10 O24 2.056641 1_545
Ni10 O3 2.063696 1_546
Ni10 O20 2.211746 1_555
Ni11 O30 2.001864 1_555
Ni11 O31 2.011238 1_555
Ni11 O21 2.056642 1_555
Ni11 O1 2.063699 1_556
Ni11 O22 2.211746 1_555
O0 P6 1.554441 1_554
O1 P0 1.561325 1_555
O2 P7 1.554441 1_554
O3 P1 1.561325 1_555
O4 P1 1.529009 1_555
O5 P0 1.529009 1_565
O6 P0 1.556056 1_555
O7 P3 1.553111 1_545
O8 P1 1.556056 1_555
O9 P2 1.547084 1_555
O10 P2 1.553111 1_555
O11 P3 1.547084 1_555
O12 P2 1.556782 1_555
O13 P4 1.540958 1_555
O14 P3 1.556782 1_655
O15 P2 1.540958 1_555
O16 P5 1.540958 1_555
O17 P4 1.556782 1_455
O18 P3 1.540958 1_555
O19 P5 1.556782 1_555
O20 P4 1.547084 1_555
O21 P5 1.553111 1_555
O22 P5 1.547084 1_555
O23 P6 1.556056 1_555
O24 P4 1.553111 1_565
O25 P7 1.556056 1_555
O26 P7 1.529009 1_545
O27 P6 1.529009 1_555
O28 P6 1.561325 1_555
O29 P0 1.554441 1_556
O30 P7 1.561325 1_555
O31 P1 1.554441 1_556
