# generated using pymatgen
data_CaPbI4
_symmetry_space_group_name_H-M   'P 1'
_cell_length_a   7.85183900
_cell_length_b   9.74522400
_cell_length_c   15.52750109
_cell_angle_alpha   86.97184588
_cell_angle_beta   90.00000000
_cell_angle_gamma   90.00000000
_symmetry_Int_Tables_number   1
_chemical_formula_structural   CaPbI4
_chemical_formula_sum   'Ca4 Pb4 I16'
_cell_volume   1186.47324729
_cell_formula_units_Z   4
loop_
 _symmetry_equiv_pos_site_id
 _symmetry_equiv_pos_as_xyz
  1  'x, y, z'
loop_
 _atom_site_type_symbol
 _atom_site_label
 _atom_site_symmetry_multiplicity
 _atom_site_fract_x
 _atom_site_fract_y
 _atom_site_fract_z
 _atom_site_occupancy
  Ca  Ca0  1  0.50510600  0.87082800  0.86977400  1
  Ca  Ca1  1  0.99489400  0.87082800  0.36977400  1
  Ca  Ca2  1  0.00510600  0.12917200  0.63022600  1
  Ca  Ca3  1  0.49489400  0.12917200  0.13022600  1
  Pb  Pb0  1  0.82055800  0.68098500  0.61675600  1
  Pb  Pb1  1  0.67944200  0.68098500  0.11675600  1
  Pb  Pb2  1  0.32055800  0.31901500  0.88324400  1
  Pb  Pb3  1  0.17944200  0.31901500  0.38324400  1
  I  I0  1  0.66890400  0.95832100  0.68707000  1
  I  I1  1  0.83109600  0.95832100  0.18707000  1
  I  I2  1  0.15219300  0.84126600  0.55850400  1
  I  I3  1  0.34780700  0.84126600  0.05850400  1
  I  I4  1  0.81417600  0.69132200  0.93338400  1
  I  I5  1  0.68582400  0.69132200  0.43338400  1
  I  I6  1  0.32843500  0.62272300  0.79469800  1
  I  I7  1  0.17156500  0.62272300  0.29469800  1
  I  I8  1  0.82843500  0.37727700  0.70530200  1
  I  I9  1  0.67156500  0.37727700  0.20530200  1
  I  I10  1  0.31417600  0.30867800  0.56661600  1
  I  I11  1  0.18582400  0.30867800  0.06661600  1
  I  I12  1  0.65219300  0.15873400  0.94149600  1
  I  I13  1  0.84780700  0.15873400  0.44149600  1
  I  I14  1  0.16890400  0.04167900  0.81293000  1
  I  I15  1  0.33109600  0.04167900  0.31293000  1
loop_
_geom_bond_atom_site_label_1
_geom_bond_atom_site_label_2
_geom_bond_distance
_geom_bond_site_symmetry_2
Ca0 I6 3.070341 1_555
Ca0 I4 3.121275 1_555
Ca0 I3 3.179166 1_556
Ca0 I0 3.189629 1_555
Ca0 I14 3.219398 1_565
Ca0 I12 3.282708 1_565
Ca1 I7 3.070341 1_655
Ca1 I5 3.121275 1_555
Ca1 I2 3.179166 1_655
Ca1 I1 3.189629 1_555
Ca1 I15 3.219398 1_665
Ca1 I13 3.282708 1_565
Ca2 I8 3.070341 1_455
Ca2 I10 3.121275 1_555
Ca2 I13 3.179166 1_455
Ca2 I14 3.189629 1_555
Ca2 I0 3.219398 1_445
Ca2 I2 3.282708 1_545
Ca3 I9 3.070341 1_555
Ca3 I11 3.121275 1_555
Ca3 I12 3.179166 1_554
Ca3 I15 3.189629 1_555
Ca3 I1 3.219398 1_545
Ca3 I3 3.282708 1_545
I0 Pb0 3.197859 1_555
I1 Pb1 3.197859 1_555
I2 Pb0 3.144703 1_455
I3 Pb1 3.144703 1_555
I4 Pb1 3.034170 1_556
I5 Pb0 3.034170 1_555
I6 Pb2 3.197511 1_555
I7 Pb3 3.197511 1_555
I8 Pb0 3.197511 1_555
I9 Pb1 3.197511 1_555
I10 Pb3 3.034170 1_555
I11 Pb2 3.034170 1_554
I12 Pb2 3.144703 1_555
I13 Pb3 3.144703 1_655
I14 Pb2 3.197859 1_555
I15 Pb3 3.197859 1_555
