# generated using pymatgen
data_Li6MnV3(PO4)6
_symmetry_space_group_name_H-M   'P 1'
_cell_length_a   6.37111400
_cell_length_b   8.62964731
_cell_length_c   16.67458543
_cell_angle_alpha   79.32385530
_cell_angle_beta   84.42013309
_cell_angle_gamma   74.00697707
_symmetry_Int_Tables_number   1
_chemical_formula_structural   Li6MnV3(PO4)6
_chemical_formula_sum   'Li12 Mn2 V6 P12 O48'
_cell_volume   865.00178201
_cell_formula_units_Z   2
loop_
 _symmetry_equiv_pos_site_id
 _symmetry_equiv_pos_as_xyz
  1  'x, y, z'
loop_
 _atom_site_type_symbol
 _atom_site_label
 _atom_site_symmetry_multiplicity
 _atom_site_fract_x
 _atom_site_fract_y
 _atom_site_fract_z
 _atom_site_occupancy
  Li  Li0  1  0.75529300  0.99560100  0.99659500  1
  Li  Li1  1  0.25112900  0.99605900  0.49765100  1
  Li  Li2  1  0.39532400  0.71162400  0.85626300  1
  Li  Li3  1  0.89410700  0.71415800  0.35512900  1
  Li  Li4  1  0.74914700  0.49926000  0.75089900  1
  Li  Li5  1  0.25015400  0.49935300  0.75029800  1
  Li  Li6  1  0.75037000  0.49921300  0.24971000  1
  Li  Li7  1  0.25003100  0.50027000  0.24931600  1
  Li  Li8  1  0.10582700  0.28781000  0.64429500  1
  Li  Li9  1  0.60807400  0.28918800  0.14318400  1
  Li  Li10  1  0.74964700  0.00714600  0.50144500  1
  Li  Li11  1  0.24671000  0.00434700  0.00264700  1
  Mn  Mn0  1  0.89686700  0.37447600  0.97116800  1
  Mn  Mn1  1  0.05414700  0.05807500  0.31275100  1
  V  V0  1  0.95115100  0.94154900  0.68946300  1
  V  V1  1  0.45073900  0.94320800  0.18893200  1
  V  V2  1  0.61124000  0.62138700  0.52879500  1
  V  V3  1  0.11197600  0.62193800  0.02879100  1
  V  V4  1  0.38708800  0.38104000  0.47160800  1
  V  V5  1  0.55086600  0.05625700  0.80969400  1
  P  P0  1  0.89330100  0.71206800  0.85793900  1
  P  P1  1  0.46669300  0.86275900  0.66908500  1
  P  P2  1  0.96895100  0.86079400  0.16813200  1
  P  P3  1  0.39319900  0.71518200  0.35613700  1
  P  P4  1  0.06722800  0.66108300  0.56872200  1
  P  P5  1  0.56759100  0.66458300  0.06945600  1
  P  P6  1  0.43360400  0.33964800  0.93098800  1
  P  P7  1  0.93115700  0.33882100  0.43368900  1
  P  P8  1  0.60684400  0.28639900  0.64317800  1
  P  P9  1  0.03486700  0.13260500  0.83040200  1
  P  P10  1  0.53383100  0.13816000  0.33021400  1
  P  P11  1  0.10681400  0.28603900  0.14306800  1
  O  O0  1  0.62604000  0.95047300  0.69886700  1
  O  O1  1  0.23800400  0.98817100  0.66912300  1
  O  O2  1  0.66295200  0.82801300  0.87109800  1
  O  O3  1  0.99642300  0.73494700  0.76930600  1
  O  O4  1  0.74061700  0.98659300  0.17036700  1
  O  O5  1  0.52938200  0.84310100  0.57739500  1
  O  O6  1  0.05572000  0.74020000  0.91356700  1
  O  O7  1  0.02861900  0.84439000  0.57881600  1
  O  O8  1  0.47565500  0.70463900  0.72772400  1
  O  O9  1  0.13370000  0.94625400  0.19370800  1
  O  O10  1  0.90176500  0.66112500  0.50597800  1
  O  O11  1  0.86127600  0.53600800  0.87006300  1
  O  O12  1  0.55038400  0.74320700  0.41415900  1
  O  O13  1  0.15803500  0.82889900  0.36848300  1
  O  O14  1  0.51856800  0.84916900  0.07949200  1
  O  O15  1  0.97750200  0.70326200  0.22779800  1
  O  O16  1  0.50075100  0.73676900  0.26879800  1
  O  O17  1  0.02294500  0.84046600  0.07593000  1
  O  O18  1  0.30006300  0.60188600  0.52472100  1
  O  O19  1  0.44349700  0.45694900  0.85178100  1
  O  O20  1  0.63555600  0.46254000  0.63172600  1
  O  O21  1  0.60198700  0.33748500  0.99347200  1
  O  O22  1  0.05640900  0.54361800  0.64785400  1
  O  O23  1  0.80080300  0.61305000  0.02689700  1
  O  O24  1  0.19991500  0.40083700  0.97583400  1
  O  O25  1  0.94402100  0.45194400  0.35312700  1
  O  O26  1  0.40424100  0.66006200  0.00654200  1
  O  O27  1  0.36271700  0.53930400  0.36860700  1
  O  O28  1  0.55619300  0.54547100  0.14814700  1
  O  O29  1  0.69695600  0.40236800  0.47604700  1
  O  O30  1  0.97292300  0.14398200  0.92248900  1
  O  O31  1  0.50068600  0.26297000  0.73107800  1
  O  O32  1  0.02298900  0.29374200  0.77346300  1
  O  O33  1  0.46782800  0.15698900  0.92066600  1
  O  O34  1  0.83793300  0.17194200  0.62993900  1
  O  O35  1  0.44705200  0.25958000  0.58583100  1
  O  O36  1  0.13572100  0.46162300  0.13228500  1
  O  O37  1  0.09680400  0.34422900  0.49530400  1
  O  O38  1  0.87516100  0.04728500  0.79874500  1
  O  O39  1  0.52364800  0.29651700  0.27180400  1
  O  O40  1  0.96747800  0.15412400  0.42839400  1
  O  O41  1  0.94156000  0.26253000  0.08540300  1
  O  O42  1  0.46628600  0.15873700  0.42161600  1
  O  O43  1  0.26491300  0.00982000  0.82754000  1
  O  O44  1  0.99846600  0.26069900  0.23093500  1
  O  O45  1  0.33707700  0.17262600  0.12836700  1
  O  O46  1  0.76322900  0.01250800  0.33169600  1
  O  O47  1  0.37558600  0.04880100  0.29937400  1
loop_
_geom_bond_atom_site_label_1
_geom_bond_atom_site_label_2
_geom_bond_distance
_geom_bond_site_symmetry_2
Li0 O17 2.230393 1_656
Li0 O30 2.268909 1_565
Li0 O33 2.299777 1_565
Li0 O14 2.404118 1_556
Li1 O40 2.219003 1_465
Li1 O5 2.274165 1_555
Li1 O42 2.349529 1_565
Li1 O7 2.355305 1_555
Li2 O19 2.148166 1_555
Li2 O8 2.162638 1_555
Li2 O6 2.246439 1_555
Li2 O2 2.257235 1_555
Li2 O43 2.446281 1_565
Li2 O26 2.465985 1_556
Li3 O15 2.150848 1_555
Li3 O25 2.202719 1_555
Li3 O13 2.220249 1_655
Li3 O12 2.279712 1_555
Li3 O46 2.446309 1_565
Li3 O10 2.474637 1_555
Li4 O8 2.121819 1_555
Li4 O32 2.122800 1_655
Li4 O11 2.278920 1_555
Li4 O20 2.283048 1_555
Li4 O19 2.506454 1_555
Li4 O22 2.538932 1_655
Li5 O19 2.107676 1_555
Li5 O22 2.120383 1_555
Li5 O31 2.271609 1_555
Li5 O3 2.274913 1_455
Li5 O8 2.528715 1_555
Li5 O32 2.538622 1_555
Li6 O28 2.107761 1_555
Li6 O25 2.130271 1_555
Li6 O16 2.275941 1_555
Li6 O44 2.276570 1_555
Li6 O39 2.516336 1_555
Li6 O15 2.528070 1_555
Li7 O15 2.103422 1_455
Li7 O39 2.113050 1_555
Li7 O36 2.258564 1_555
Li7 O27 2.290144 1_555
Li7 O28 2.517603 1_555
Li7 O25 2.548648 1_455
Li8 O22 2.153547 1_555
Li8 O32 2.173712 1_555
Li8 O34 2.253611 1_455
Li8 O35 2.262725 1_555
Li8 O37 2.444708 1_555
Li8 O1 2.457246 1_545
Li9 O28 2.160344 1_555
Li9 O39 2.167988 1_555
Li9 O41 2.215888 1_555
Li9 O45 2.277252 1_555
Li9 O21 2.455925 1_554
Li9 O4 2.481564 1_545
Li10 O40 2.255520 1_555
Li10 O7 2.279274 1_645
Li10 O42 2.294154 1_555
Li10 O5 2.379517 1_545
Li11 O14 2.225496 1_545
Li11 O30 2.231504 1_454
Li11 O33 2.359945 1_554
Li11 O17 2.378572 1_545
Mn0 O11 1.966263 1_555
Mn0 O41 1.978579 1_556
Mn0 O21 1.979998 1_555
Mn0 O24 2.015790 1_655
Mn0 O30 2.200164 1_555
Mn0 O23 2.319636 1_556
Mn1 O44 1.978123 1_455
Mn1 O13 1.982513 1_545
Mn1 O46 1.982803 1_455
Mn1 O47 2.019312 1_555
Mn1 O40 2.200726 1_455
Mn1 O9 2.317934 1_545
O0 P1 1.584617 1_555
O0 V0 2.043109 1_555
O0 V5 2.165602 1_565
O1 P1 1.557341 1_555
O1 V0 1.962397 1_455
O2 P0 1.553266 1_555
O2 V5 2.014392 1_565
O3 P0 1.558658 1_555
O3 V0 1.986517 1_555
O4 P2 1.558973 1_555
O4 V1 1.968182 1_555
O5 P1 1.570294 1_555
O5 V2 2.128834 1_555
O6 P0 1.548755 1_455
O6 V3 2.016751 1_556
O7 P4 1.570779 1_555
O7 V0 2.125709 1_455
O8 P1 1.514864 1_555
O9 P2 1.567686 1_455
O9 V1 2.006796 1_555
O10 P4 1.555645 1_655
O10 V2 1.962884 1_555
O11 P0 1.562010 1_555
O12 P3 1.551126 1_555
O12 V2 2.020970 1_555
O13 P3 1.566798 1_555
O14 P5 1.573968 1_555
O14 V1 2.092261 1_555
O15 P2 1.519703 1_555
O16 P3 1.549492 1_555
O16 V1 1.984805 1_555
O17 P2 1.573731 1_455
O17 V3 2.090207 1_555
O18 P4 1.584124 1_555
O18 V2 2.043940 1_555
O18 V4 2.161375 1_555
O19 P6 1.515464 1_555
O20 P8 1.555414 1_555
O20 V2 1.977835 1_555
O21 P6 1.560733 1_555
O22 P4 1.516113 1_555
O23 P5 1.567423 1_555
O23 V3 2.008513 1_655
O24 P6 1.597277 1_555
O24 V3 2.161758 1_556
O25 P7 1.516923 1_555
O26 P5 1.560453 1_555
O26 V3 1.967518 1_555
O27 P3 1.556342 1_555
O27 V4 1.976135 1_555
O28 P5 1.518692 1_555
O29 P7 1.585461 1_555
O29 V4 2.042187 1_555
O29 V2 2.144277 1_555
O30 P9 1.562002 1_655
O31 P8 1.555430 1_555
O31 V5 1.975755 1_555
O32 P9 1.519083 1_555
O33 P6 1.570244 1_555
O33 V5 2.147500 1_555
O34 P8 1.551848 1_555
O34 V0 2.018963 1_545
O35 P8 1.550978 1_555
O35 V4 2.013290 1_555
O36 P11 1.551951 1_555
O36 V3 1.991434 1_555
O37 P7 1.557972 1_455
O37 V4 1.952577 1_555
O38 P9 1.586615 1_655
O38 V5 2.037624 1_555
O38 V0 2.142099 1_545
O39 P10 1.513472 1_555
O40 P7 1.564191 1_555
O41 P11 1.568777 1_655
O42 P10 1.571685 1_555
O42 V4 2.146404 1_555
O43 P9 1.556442 1_555
O43 V5 1.954719 1_555
O44 P11 1.561657 1_655
O45 P11 1.548524 1_555
O45 V1 2.018733 1_545
O46 P10 1.560849 1_555
O47 P10 1.597411 1_555
O47 V1 2.158903 1_545
