# generated using pymatgen
data_In2Bi2O7
_symmetry_space_group_name_H-M   'P 1'
_cell_length_a   5.56102500
_cell_length_b   8.11132400
_cell_length_c   14.01653908
_cell_angle_alpha   80.93931271
_cell_angle_beta   90.00000000
_cell_angle_gamma   90.00000000
_symmetry_Int_Tables_number   1
_chemical_formula_structural   In2Bi2O7
_chemical_formula_sum   'In8 Bi8 O28'
_cell_volume   624.35875972
_cell_formula_units_Z   4
loop_
 _symmetry_equiv_pos_site_id
 _symmetry_equiv_pos_as_xyz
  1  'x, y, z'
loop_
 _atom_site_type_symbol
 _atom_site_label
 _atom_site_symmetry_multiplicity
 _atom_site_fract_x
 _atom_site_fract_y
 _atom_site_fract_z
 _atom_site_occupancy
  In  In0  1  0.27372700  0.93194800  0.31398300  1
  In  In1  1  0.76080900  0.97882500  0.11333700  1
  In  In2  1  0.76399400  0.60691800  0.67246000  1
  In  In3  1  0.24812300  0.54042400  0.87682200  1
  In  In4  1  0.74812300  0.45957600  0.12317800  1
  In  In5  1  0.26399400  0.39308200  0.32754000  1
  In  In6  1  0.26080900  0.02117500  0.88666300  1
  In  In7  1  0.77372700  0.06805200  0.68601700  1
  Bi  Bi0  1  0.32727300  0.83360600  0.54825800  1
  Bi  Bi1  1  0.76230900  0.76640500  0.92127300  1
  Bi  Bi2  1  0.22472600  0.69937800  0.14399000  1
  Bi  Bi3  1  0.78025000  0.62045700  0.37664200  1
  Bi  Bi4  1  0.28025000  0.37954300  0.62335800  1
  Bi  Bi5  1  0.72472600  0.30062200  0.85601000  1
  Bi  Bi6  1  0.26230900  0.23359500  0.07872700  1
  Bi  Bi7  1  0.82727300  0.16639400  0.45174200  1
  O  O0  1  0.56285100  0.96094300  0.42634400  1
  O  O1  1  0.43766200  0.03205900  0.18399300  1
  O  O2  1  0.58504800  0.84628600  0.65865400  1
  O  O3  1  0.39535000  0.78133100  0.86908300  1
  O  O4  1  0.09137700  0.80095300  0.43601400  1
  O  O5  1  0.09666300  0.91744300  0.03362200  1
  O  O6  1  0.98332900  0.84732700  0.22661900  1
  O  O7  1  0.12444500  0.63756100  0.63128600  1
  O  O8  1  0.89224300  0.58378700  0.82378900  1
  O  O9  1  0.59085200  0.72801500  0.08926700  1
  O  O10  1  0.40825300  0.67283500  0.29235300  1
  O  O11  1  0.54980800  0.60010700  0.53875300  1
  O  O12  1  0.56573500  0.43904900  0.96467300  1
  O  O13  1  0.46766300  0.47684000  0.75841300  1
  O  O14  1  0.96766300  0.52316000  0.24158700  1
  O  O15  1  0.06573500  0.56095100  0.03532700  1
  O  O16  1  0.04980800  0.39989300  0.46124700  1
  O  O17  1  0.90825300  0.32716500  0.70764700  1
  O  O18  1  0.09085200  0.27198500  0.91073300  1
  O  O19  1  0.39224300  0.41621300  0.17621100  1
  O  O20  1  0.62444500  0.36243900  0.36871400  1
  O  O21  1  0.48332900  0.15267300  0.77338100  1
  O  O22  1  0.59666300  0.08255700  0.96637800  1
  O  O23  1  0.59137700  0.19904700  0.56398600  1
  O  O24  1  0.89535000  0.21866900  0.13091700  1
  O  O25  1  0.08504800  0.15371400  0.34134600  1
  O  O26  1  0.93766200  0.96794100  0.81600700  1
  O  O27  1  0.06285100  0.03905700  0.57365600  1
loop_
_geom_bond_atom_site_label_1
_geom_bond_atom_site_label_2
_geom_bond_distance
_geom_bond_site_symmetry_2
In0 O1 2.084280 1_565
In0 O4 2.123800 1_555
In0 O25 2.168191 1_565
In0 O6 2.200748 1_455
In0 O0 2.288543 1_555
In0 O10 2.295565 1_555
In1 O1 2.128673 1_565
In1 O24 2.134542 1_565
In1 O6 2.157938 1_555
In1 O5 2.271521 1_655
In1 O22 2.288739 1_564
In1 O9 2.315614 1_555
In2 O7 2.089878 1_655
In2 O2 2.163136 1_555
In2 O13 2.209055 1_555
In2 O8 2.217568 1_555
In2 O11 2.228599 1_555
In2 O17 2.383998 1_555
In3 O3 2.105644 1_555
In3 O8 2.123815 1_455
In3 O13 2.186474 1_555
In3 O12 2.234534 1_555
In3 O18 2.325062 1_555
In3 O15 2.471614 1_556
In4 O24 2.105644 1_555
In4 O19 2.123815 1_555
In4 O14 2.186474 1_555
In4 O15 2.234534 1_655
In4 O9 2.325062 1_555
In4 O12 2.471614 1_554
In5 O20 2.089878 1_555
In5 O25 2.163136 1_555
In5 O14 2.209055 1_455
In5 O19 2.217568 1_555
In5 O16 2.228599 1_555
In5 O10 2.383998 1_555
In6 O26 2.128673 1_445
In6 O3 2.134542 1_545
In6 O21 2.157938 1_555
In6 O22 2.271521 1_555
In6 O5 2.288739 1_546
In6 O18 2.315614 1_555
In7 O26 2.084280 1_545
In7 O23 2.123800 1_555
In7 O2 2.168191 1_545
In7 O21 2.200748 1_555
In7 O27 2.288543 1_655
In7 O17 2.295565 1_555
Bi0 O4 2.097012 1_555
Bi0 O2 2.123667 1_555
Bi0 O7 2.138317 1_555
Bi0 O0 2.268746 1_555
Bi0 O11 2.283828 1_555
Bi0 O27 2.291938 1_565
Bi1 O3 2.164767 1_555
Bi1 O26 2.245115 1_555
Bi1 O8 2.284901 1_555
Bi1 O9 2.513907 1_556
Bi1 O15 2.709423 1_656
Bi2 O9 2.175227 1_555
Bi2 O15 2.213790 1_555
Bi2 O6 2.240837 1_455
Bi2 O5 2.273132 1_555
Bi2 O10 2.295959 1_555
Bi2 O14 2.311306 1_455
Bi2 O19 2.453682 1_555
Bi3 O20 2.283945 1_555
Bi3 O10 2.386979 1_555
Bi3 O14 2.400636 1_555
Bi3 O16 2.487143 1_655
Bi3 O4 2.492649 1_655
Bi3 O11 2.591215 1_555
Bi3 O6 2.804421 1_555
Bi4 O7 2.283945 1_555
Bi4 O17 2.386979 1_455
Bi4 O13 2.400636 1_555
Bi4 O11 2.487143 1_555
Bi4 O23 2.492649 1_555
Bi4 O16 2.591215 1_555
Bi4 O21 2.804421 1_555
Bi5 O18 2.175227 1_655
Bi5 O12 2.213790 1_555
Bi5 O21 2.240837 1_555
Bi5 O22 2.273132 1_555
Bi5 O17 2.295959 1_555
Bi5 O13 2.311306 1_555
Bi5 O8 2.453682 1_555
Bi6 O24 2.164767 1_455
Bi6 O1 2.245115 1_555
Bi6 O19 2.284901 1_555
Bi6 O18 2.513907 1_554
Bi6 O12 2.709423 1_554
Bi7 O23 2.097012 1_555
Bi7 O25 2.123667 1_655
Bi7 O20 2.138317 1_555
Bi7 O27 2.268746 1_655
Bi7 O16 2.283828 1_655
Bi7 O0 2.291938 1_545
