# generated using pymatgen
data_Fe3(OF)2
_symmetry_space_group_name_H-M   'P 1'
_cell_length_a   5.67795204
_cell_length_b   5.94136093
_cell_length_c   5.85584807
_cell_angle_alpha   90.00004743
_cell_angle_beta   89.98451001
_cell_angle_gamma   116.48606755
_symmetry_Int_Tables_number   1
_chemical_formula_structural   Fe3(OF)2
_chemical_formula_sum   'Fe6 O4 F4'
_cell_volume   176.81180471
_cell_formula_units_Z   2
loop_
 _symmetry_equiv_pos_site_id
 _symmetry_equiv_pos_as_xyz
  1  'x, y, z'
loop_
 _atom_site_type_symbol
 _atom_site_label
 _atom_site_symmetry_multiplicity
 _atom_site_fract_x
 _atom_site_fract_y
 _atom_site_fract_z
 _atom_site_occupancy
  Fe  Fe0  1  0.00002500  0.00004900  0.99998700  1
  Fe  Fe1  1  0.72059100  0.35266200  0.05908800  1
  Fe  Fe2  1  0.27940300  0.64734200  0.94092800  1
  Fe  Fe3  1  0.49997600  0.99991800  0.50002500  1
  Fe  Fe4  1  0.77930300  0.64716700  0.55904000  1
  Fe  Fe5  1  0.22069700  0.35283800  0.44095600  1
  O  O0  1  0.57035400  0.33205100  0.36914600  1
  O  O1  1  0.92960500  0.66792200  0.86914300  1
  O  O2  1  0.07039600  0.33208300  0.13085100  1
  O  O3  1  0.42964700  0.66795700  0.63084800  1
  F  F0  1  0.91364600  0.14324300  0.65682100  1
  F  F1  1  0.41364100  0.14318000  0.84316100  1
  F  F2  1  0.58636000  0.85682600  0.15683300  1
  F  F3  1  0.08635400  0.85676200  0.34317400  1
loop_
_geom_bond_atom_site_label_1
_geom_bond_atom_site_label_2
_geom_bond_distance
_geom_bond_site_symmetry_2
Fe0 O2 1.983852 1_556
Fe0 O1 1.984239 1_445
Fe1 O0 1.986266 1_555
Fe1 O1 2.042195 1_554
Fe1 O2 2.086504 1_655
Fe2 O3 1.986397 1_555
Fe2 O2 2.042114 1_556
Fe2 O1 2.086494 1_455
Fe3 O3 1.983342 1_555
Fe3 O0 1.984326 1_565
Fe4 O1 1.986966 1_555
Fe4 O0 2.041753 1_555
Fe4 O3 2.086119 1_555
Fe5 O2 1.986974 1_555
Fe5 O3 2.041760 1_555
Fe5 O0 2.086119 1_555
F0 Fe5 2.061660 1_655
F0 Fe3 2.302645 1_545
F0 Fe0 2.318463 1_655
F1 Fe1 2.061976 1_556
F1 Fe0 2.302045 1_555
F1 Fe3 2.318173 1_545
F2 Fe2 2.061923 1_554
F2 Fe0 2.302283 1_664
F2 Fe3 2.318095 1_555
F3 Fe4 2.061663 1_455
F3 Fe3 2.302626 1_555
F3 Fe0 2.318718 1_564
