# generated using pymatgen
data_Li4Fe2Co3Cu3O16
_symmetry_space_group_name_H-M   'P 1'
_cell_length_a   5.80917624
_cell_length_b   5.80917624
_cell_length_c   9.40385150
_cell_angle_alpha   88.40747287
_cell_angle_beta   88.40747287
_cell_angle_gamma   59.38349734
_symmetry_Int_Tables_number   1
_chemical_formula_structural   Li4Fe2Co3Cu3O16
_chemical_formula_sum   'Li4 Fe2 Co3 Cu3 O16'
_cell_volume   272.96786149
_cell_formula_units_Z   1
loop_
 _symmetry_equiv_pos_site_id
 _symmetry_equiv_pos_as_xyz
  1  'x, y, z'
loop_
 _atom_site_type_symbol
 _atom_site_label
 _atom_site_symmetry_multiplicity
 _atom_site_fract_x
 _atom_site_fract_y
 _atom_site_fract_z
 _atom_site_occupancy
  Li  Li0  1  0.66700000  0.66700000  0.89249700  1
  Li  Li1  1  0.99872500  0.99872500  0.99750100  1
  Li  Li2  1  0.00058600  0.00058600  0.49490200  1
  Li  Li3  1  0.33645100  0.33645100  0.39386700  1
  Fe  Fe0  1  0.66599700  0.66599700  0.49219600  1
  Fe  Fe1  1  0.33008300  0.33008300  0.99267800  1
  Co  Co0  1  0.83017600  0.83017600  0.21293000  1
  Co  Co1  1  0.66213400  0.16880400  0.71329000  1
  Co  Co2  1  0.16880400  0.66213400  0.71329000  1
  Cu  Cu0  1  0.83032400  0.33846700  0.21437600  1
  Cu  Cu1  1  0.33846700  0.83032400  0.21437600  1
  Cu  Cu2  1  0.16857000  0.16857000  0.71444800  1
  O  O0  1  0.82764100  0.32251500  0.60166900  1
  O  O1  1  0.52057900  0.52057900  0.34187900  1
  O  O2  1  0.67288600  0.67288600  0.10940400  1
  O  O3  1  0.99280500  0.99280500  0.30570100  1
  O  O4  1  0.99391700  0.99391700  0.80867600  1
  O  O5  1  0.32251500  0.82764100  0.60166900  1
  O  O6  1  0.96644000  0.53011800  0.33874300  1
  O  O7  1  0.53011800  0.96644000  0.33874300  1
  O  O8  1  0.15985700  0.15985700  0.09628300  1
  O  O9  1  0.84104300  0.84104300  0.60946700  1
  O  O10  1  0.49423200  0.03866400  0.83553400  1
  O  O11  1  0.03866400  0.49423200  0.83553400  1
  O  O12  1  0.33890200  0.33890200  0.60929600  1
  O  O13  1  0.66925800  0.15100600  0.10132400  1
  O  O14  1  0.48121900  0.48121900  0.82639100  1
  O  O15  1  0.15100600  0.66925800  0.10132400  1
loop_
_geom_bond_atom_site_label_1
_geom_bond_atom_site_label_2
_geom_bond_distance
_geom_bond_site_symmetry_2
Li0 O11 1.927227 1_655
Li0 O10 1.927227 1_565
Li0 O14 1.994220 1_555
Li0 O2 2.042525 1_556
Li1 O4 1.777896 1_555
Li1 O8 1.898523 1_666
Li1 O15 1.902236 1_656
Li1 O13 1.902236 1_566
Li2 O3 1.783459 1_445
Li2 O9 1.908559 1_445
Li2 O5 1.910332 1_545
Li2 O0 1.910332 1_455
Li3 O1 1.906429 1_555
Li3 O6 1.928981 1_455
Li3 O7 1.928981 1_545
Li3 O12 2.026805 1_555
Fe0 O5 1.988479 1_555
Fe0 O0 1.988479 1_555
Fe0 O7 2.066805 1_555
Fe0 O6 2.066805 1_555
Fe0 O1 2.070025 1_555
Fe0 O9 2.112376 1_555
Fe1 O8 1.947796 1_556
Fe1 O13 1.993306 1_556
Fe1 O15 1.993306 1_556
Fe1 O10 2.091752 1_555
Fe1 O11 2.091752 1_555
Fe1 O14 2.149302 1_555
Co0 O3 1.883321 1_555
Co0 O2 1.888615 1_555
Co0 O6 1.896509 1_555
Co0 O7 1.896509 1_555
Co0 O15 1.902669 1_655
Co0 O13 1.902669 1_565
Co1 O10 1.866776 1_555
Co1 O0 1.894681 1_555
Co1 O4 1.898027 1_545
Co1 O12 1.901851 1_555
Co1 O14 1.905745 1_555
Co1 O9 1.920934 1_545
Co2 O11 1.866776 1_555
Co2 O5 1.894681 1_555
Co2 O4 1.898027 1_455
Co2 O12 1.901851 1_555
Co2 O14 1.905745 1_555
Co2 O9 1.920934 1_455
Cu0 O3 1.918134 1_545
Cu0 O2 1.928421 1_555
Cu0 O1 1.950946 1_555
Cu0 O8 1.974126 1_655
Cu0 O6 2.062285 1_555
Cu0 O13 2.085450 1_555
Cu1 O3 1.918134 1_455
Cu1 O2 1.928421 1_555
Cu1 O1 1.950946 1_555
Cu1 O8 1.974126 1_565
Cu1 O7 2.062285 1_555
Cu1 O15 2.085450 1_555
Cu2 O4 1.947446 1_445
Cu2 O12 1.955627 1_555
Cu2 O10 2.015657 1_555
Cu2 O11 2.015657 1_555
Cu2 O5 2.026561 1_545
Cu2 O0 2.026561 1_455
