# generated using pymatgen
data_Li4Ti9O20
_symmetry_space_group_name_H-M   'P 1'
_cell_length_a   10.54412490
_cell_length_b   10.54412490
_cell_length_c   10.54412490
_cell_angle_alpha   99.05350384
_cell_angle_beta   99.05350384
_cell_angle_gamma   133.25814795
_symmetry_Int_Tables_number   1
_chemical_formula_structural   Li4Ti9O20
_chemical_formula_sum   'Li8 Ti18 O40'
_cell_volume   783.69671758
_cell_formula_units_Z   2
loop_
 _symmetry_equiv_pos_site_id
 _symmetry_equiv_pos_as_xyz
  1  'x, y, z'
loop_
 _atom_site_type_symbol
 _atom_site_label
 _atom_site_symmetry_multiplicity
 _atom_site_fract_x
 _atom_site_fract_y
 _atom_site_fract_z
 _atom_site_occupancy
  Li  Li0  1  0.89185000  0.07462100  0.59064500  1
  Li  Li1  1  0.32462100  0.23397600  0.68277100  1
  Li  Li2  1  0.55120500  0.64185000  0.31722900  1
  Li  Li3  1  0.76602400  0.44879500  0.09064500  1
  Li  Li4  1  0.48397600  0.30120500  0.40935500  1
  Li  Li5  1  0.69879500  0.10815000  0.18277100  1
  Li  Li6  1  0.92537900  0.51602400  0.81722900  1
  Li  Li7  1  0.35815000  0.67537900  0.90935500  1
  Ti  Ti0  1  0.04478000  0.07934100  0.84138100  1
  Ti  Ti1  1  0.79660000  0.95522000  0.03456000  1
  Ti  Ti2  1  0.32934100  0.98796000  0.53456000  1
  Ti  Ti3  1  0.50000000  0.50000000  0.00000000  1
  Ti  Ti4  1  0.23796000  0.20340000  0.15861900  1
  Ti  Ti5  1  0.52674300  0.08554100  0.83193500  1
  Ti  Ti6  1  0.99639400  0.05519100  0.33193500  1
  Ti  Ti7  1  0.30519100  0.47325700  0.55879800  1
  Ti  Ti8  1  0.33554100  0.00360600  0.05879800  1
  Ti  Ti9  1  0.91445900  0.74639400  0.44120200  1
  Ti  Ti10  1  0.94480900  0.27674300  0.94120200  1
  Ti  Ti11  1  0.72325700  0.66445900  0.66806500  1
  Ti  Ti12  1  0.25360600  0.69480900  0.16806500  1
  Ti  Ti13  1  0.01204000  0.54660000  0.34138100  1
  Ti  Ti14  1  0.75000000  0.25000000  0.50000000  1
  Ti  Ti15  1  0.45340000  0.79478000  0.46544000  1
  Ti  Ti16  1  0.92065900  0.76204000  0.96544000  1
  Ti  Ti17  1  0.20522000  0.67065900  0.65861900  1
  O  O0  1  0.82123400  0.82662800  0.35612300  1
  O  O1  1  0.93816500  0.16331800  0.78697400  1
  O  O2  1  0.94344900  0.91897300  0.66432800  1
  O  O3  1  0.16897300  0.00464500  0.47552400  1
  O  O4  1  0.28885900  0.29484800  0.85008200  1
  O  O5  1  0.05612200  0.19364800  0.03445400  1
  O  O6  1  0.41331800  0.12634400  0.72515300  1
  O  O7  1  0.84880900  0.06183500  0.22515300  1
  O  O8  1  0.15919400  0.02166700  0.96554600  1
  O  O9  1  0.70515200  0.55523400  0.99401000  1
  O  O10  1  0.68877600  0.03885900  0.49401000  1
  O  O11  1  0.44364800  0.90919400  0.63752700  1
  O  O12  1  0.97833300  0.94387800  0.13752700  1
  O  O13  1  0.44476600  0.43877600  0.14991800  1
  O  O14  1  0.52912100  0.69344900  0.52447600  1
  O  O15  1  0.25464500  0.27912100  0.33567200  1
  O  O16  1  0.07662800  0.22050500  0.50539500  1
  O  O17  1  0.53489000  0.17876600  0.00539500  1
  O  O18  1  0.77949500  0.28489000  0.85612300  1
  O  O19  1  0.37634400  0.15119100  0.21302600  1
  O  O20  1  0.87365600  0.59880900  0.28697400  1
  O  O21  1  0.47050500  0.46511000  0.64387700  1
  O  O22  1  0.71511000  0.57123400  0.49460500  1
  O  O23  1  0.17337200  0.52949500  0.99460500  1
  O  O24  1  0.99535500  0.47087900  0.16432800  1
  O  O25  1  0.72087900  0.05655100  0.97552400  1
  O  O26  1  0.80523400  0.31122400  0.35008200  1
  O  O27  1  0.80635200  0.84080600  0.86247300  1
  O  O28  1  0.27166700  0.80612200  0.36247300  1
  O  O29  1  0.56122400  0.71114100  0.00599000  1
  O  O30  1  0.54484800  0.19476600  0.50599000  1
  O  O31  1  0.09080600  0.72833300  0.53445400  1
  O  O32  1  0.83668200  0.62365600  0.77484700  1
  O  O33  1  0.40119100  0.68816500  0.27484700  1
  O  O34  1  0.19387800  0.55635200  0.46554600  1
  O  O35  1  0.96114100  0.45515200  0.64991800  1
  O  O36  1  0.08102700  0.74535500  0.02447600  1
  O  O37  1  0.30655100  0.83102700  0.83567200  1
  O  O38  1  0.31183500  0.58668200  0.71302600  1
  O  O39  1  0.42876600  0.92337200  0.14387700  1
loop_
_geom_bond_atom_site_label_1
_geom_bond_atom_site_label_2
_geom_bond_distance
_geom_bond_site_symmetry_2
Li0 O1 1.960894 1_555
Li0 O16 1.961850 1_655
Li0 O10 1.962431 1_555
Li0 O2 2.255018 1_545
Li1 O6 1.960894 1_555
Li1 O21 1.961850 1_555
Li1 O4 1.962418 1_555
Li1 O3 2.255018 1_555
Li2 O33 1.960894 1_555
Li2 O0 1.961857 1_555
Li2 O13 1.962424 1_555
Li2 O14 2.255018 1_555
Li3 O20 1.960894 1_555
Li3 O17 1.961855 1_555
Li3 O9 1.962424 1_554
Li3 O24 2.255018 1_555
Li4 O19 1.960894 1_555
Li4 O22 1.961855 1_555
Li4 O30 1.962424 1_555
Li4 O15 2.255018 1_555
Li5 O7 1.960894 1_555
Li5 O39 1.961857 1_545
Li5 O26 1.962424 1_555
Li5 O25 2.255018 1_554
Li6 O32 1.960894 1_555
Li6 O18 1.961850 1_555
Li6 O35 1.962418 1_555
Li6 O36 2.255018 1_656
Li7 O38 1.960894 1_555
Li7 O23 1.961850 1_555
Li7 O29 1.962431 1_556
Li7 O37 2.255018 1_555
O0 Ti6 1.877605 1_565
O0 Ti9 1.894149 1_555
O1 Ti10 1.821265 1_555
O1 Ti0 1.923036 1_655
O2 Ti0 1.840829 1_665
O2 Ti11 2.028876 1_555
O2 Ti9 2.569778 1_555
O3 Ti2 1.840827 1_545
O3 Ti9 2.028876 1_445
O3 Ti6 2.569769 1_455
O4 Ti3 1.830380 1_556
O4 Ti0 1.907930 1_555
O5 Ti4 2.073202 1_555
O5 Ti1 2.093183 1_445
O5 Ti10 2.104613 1_454
O5 Ti0 2.136590 1_554
O6 Ti5 1.821270 1_555
O6 Ti2 1.923045 1_545
O7 Ti6 1.821278 1_555
O7 Ti1 1.923043 1_545
O8 Ti0 2.073218 1_555
O8 Ti16 2.093181 1_445
O8 Ti8 2.104613 1_556
O8 Ti4 2.136601 1_556
O9 Ti3 1.830383 1_556
O9 Ti16 1.907919 1_555
O10 Ti14 1.830373 1_555
O10 Ti15 1.907928 1_545
O11 Ti15 2.073216 1_555
O11 Ti17 2.093177 1_555
O11 Ti5 2.104613 1_565
O11 Ti2 2.136601 1_555
O12 Ti16 2.073205 1_554
O12 Ti4 2.093186 1_665
O12 Ti6 2.104613 1_565
O12 Ti1 2.136616 1_555
O13 Ti3 1.830383 1_555
O13 Ti4 1.907919 1_555
O14 Ti15 1.840817 1_555
O14 Ti7 2.028880 1_555
O14 Ti11 2.569778 1_555
O15 Ti4 1.840827 1_555
O15 Ti6 2.028879 1_455
O15 Ti7 2.569783 1_555
O16 Ti7 1.877610 1_555
O16 Ti6 1.894162 1_455
O17 Ti8 1.877610 1_555
O17 Ti5 1.894154 1_554
O18 Ti5 1.877613 1_555
O18 Ti10 1.894167 1_555
O19 Ti8 1.821270 1_555
O19 Ti4 1.923045 1_555
O20 Ti9 1.821270 1_555
O20 Ti13 1.923045 1_655
O21 Ti11 1.877613 1_555
O21 Ti7 1.894167 1_555
O22 Ti9 1.877610 1_555
O22 Ti11 1.894154 1_555
O23 Ti10 1.877610 1_455
O23 Ti12 1.894162 1_556
O24 Ti13 1.840827 1_655
O24 Ti12 2.028879 1_655
O24 Ti10 2.569783 1_554
O25 Ti1 1.840817 1_546
O25 Ti10 2.028880 1_555
O25 Ti5 2.569778 1_555
O26 Ti14 1.830383 1_555
O26 Ti13 1.907919 1_655
O27 Ti1 2.073216 1_556
O27 Ti0 2.093177 1_665
O27 Ti11 2.104613 1_555
O27 Ti16 2.136601 1_555
O28 Ti2 2.073205 1_555
O28 Ti13 2.093186 1_555
O28 Ti12 2.104613 1_555
O28 Ti15 2.136616 1_555
O29 Ti3 1.830373 1_555
O29 Ti1 1.907928 1_555
O30 Ti14 1.830383 1_555
O30 Ti2 1.907919 1_545
O31 Ti17 2.073218 1_555
O31 Ti2 2.093181 1_555
O31 Ti9 2.104613 1_455
O31 Ti13 2.136601 1_555
O32 Ti11 1.821270 1_555
O32 Ti16 1.923045 1_555
O33 Ti12 1.821278 1_555
O33 Ti15 1.923043 1_555
O34 Ti13 2.073202 1_555
O34 Ti15 2.093183 1_555
O34 Ti7 2.104613 1_555
O34 Ti17 2.136590 1_555
O35 Ti14 1.830380 1_555
O35 Ti17 1.907930 1_655
O36 Ti16 1.840827 1_454
O36 Ti8 2.028876 1_565
O36 Ti12 2.569769 1_555
O37 Ti17 1.840829 1_555
O37 Ti5 2.028876 1_565
O37 Ti8 2.569778 1_566
O38 Ti7 1.821265 1_555
O38 Ti17 1.923036 1_555
O39 Ti12 1.877605 1_555
O39 Ti8 1.894149 1_565
