# generated using pymatgen
data_Na5LiMn2P2(CO7)2
_symmetry_space_group_name_H-M   'P 1'
_cell_length_a   6.81277400
_cell_length_b   8.96273799
_cell_length_c   10.32978844
_cell_angle_alpha   90.11940297
_cell_angle_beta   90.11229212
_cell_angle_gamma   90.23437492
_symmetry_Int_Tables_number   1
_chemical_formula_structural   Na5LiMn2P2(CO7)2
_chemical_formula_sum   'Na10 Li2 Mn4 P4 C4 O28'
_cell_volume   630.74046234
_cell_formula_units_Z   2
loop_
 _symmetry_equiv_pos_site_id
 _symmetry_equiv_pos_as_xyz
  1  'x, y, z'
loop_
 _atom_site_type_symbol
 _atom_site_label
 _atom_site_symmetry_multiplicity
 _atom_site_fract_x
 _atom_site_fract_y
 _atom_site_fract_z
 _atom_site_occupancy
  Na  Na0  1  0.25011500  0.91712600  0.87973800  1
  Na  Na1  1  0.24890200  0.91764700  0.38057900  1
  Na  Na2  1  0.00172600  0.74149900  0.62418000  1
  Na  Na3  1  0.49838400  0.74146200  0.62406300  1
  Na  Na4  1  0.00232200  0.74071000  0.12395700  1
  Na  Na5  1  0.49775900  0.74059000  0.12386000  1
  Na  Na6  1  0.50183800  0.25912600  0.87537200  1
  Na  Na7  1  0.99817900  0.25895800  0.87548600  1
  Na  Na8  1  0.50262400  0.25850900  0.37687600  1
  Na  Na9  1  0.75103400  0.08372000  0.12059900  1
  Li  Li0  1  0.99432700  0.26411400  0.37868600  1
  Li  Li1  1  0.75111400  0.08391900  0.61974400  1
  Mn  Mn0  1  0.74999000  0.63869800  0.88853800  1
  Mn  Mn1  1  0.75015200  0.63820700  0.38879200  1
  Mn  Mn2  1  0.24838000  0.35908500  0.61028200  1
  Mn  Mn3  1  0.24913500  0.36036900  0.11232000  1
  P  P0  1  0.24994100  0.58884100  0.85084200  1
  P  P1  1  0.24731300  0.58741400  0.35072200  1
  P  P2  1  0.75006300  0.40736300  0.64781500  1
  P  P3  1  0.75207800  0.40966100  0.14993500  1
  C  C0  1  0.75004400  0.94109800  0.86520700  1
  C  C1  1  0.75378600  0.94571800  0.37086800  1
  C  C2  1  0.24927700  0.05994600  0.63160800  1
  C  C3  1  0.24874900  0.06021800  0.13289700  1
  O  O0  1  0.25032700  0.91657200  0.64196200  1
  O  O1  1  0.25035000  0.91668600  0.14320700  1
  O  O2  1  0.75024500  0.87949600  0.97973000  1
  O  O3  1  0.74960200  0.88759500  0.48657000  1
  O  O4  1  0.75021200  0.85628800  0.76288100  1
  O  O5  1  0.74951800  0.85798700  0.26964600  1
  O  O6  1  0.06718400  0.68123800  0.89214600  1
  O  O7  1  0.43344700  0.68163100  0.89231600  1
  O  O8  1  0.06631600  0.68147200  0.39233900  1
  O  O9  1  0.43245500  0.67766900  0.39347600  1
  O  O10  1  0.24969600  0.57107900  0.70007400  1
  O  O11  1  0.75004300  0.56629100  0.58811700  1
  O  O12  1  0.24953400  0.57232200  0.20004100  1
  O  O13  1  0.75020400  0.56886200  0.09085000  1
  O  O14  1  0.25001600  0.43079300  0.91137500  1
  O  O15  1  0.75177500  0.42696800  0.79835500  1
  O  O16  1  0.24014000  0.42694800  0.40854400  1
  O  O17  1  0.75790800  0.42410100  0.30130400  1
  O  O18  1  0.56713000  0.31312200  0.60757600  1
  O  O19  1  0.93050000  0.31282900  0.60453800  1
  O  O20  1  0.56722200  0.31838000  0.10877400  1
  O  O21  1  0.93347700  0.31813600  0.10609300  1
  O  O22  1  0.24938200  0.14428100  0.73482900  1
  O  O23  1  0.24634800  0.14483100  0.23599100  1
  O  O24  1  0.24821700  0.12332400  0.51787800  1
  O  O25  1  0.24990500  0.12300700  0.01897400  1
  O  O26  1  0.74973800  0.08469200  0.85240500  1
  O  O27  1  0.76187400  0.08940400  0.35704500  1
loop_
_geom_bond_atom_site_label_1
_geom_bond_atom_site_label_2
_geom_bond_distance
_geom_bond_site_symmetry_2
Na0 O25 2.337218 1_566
Na0 O6 2.453500 1_555
Na0 O0 2.456174 1_555
Na0 O7 2.460473 1_555
Na0 O22 2.529514 1_565
Na0 O1 2.721587 1_556
Na1 O24 2.323562 1_565
Na1 O1 2.452039 1_555
Na1 O8 2.454169 1_555
Na1 O9 2.496048 1_555
Na1 O23 2.527839 1_565
Na1 O0 2.700067 1_555
Na2 O0 2.310898 1_555
Na2 O11 2.349008 1_455
Na2 O10 2.412988 1_555
Na2 O4 2.462777 1_455
Na2 O8 2.493828 1_555
Na2 O3 2.588851 1_455
Na2 O6 2.855862 1_555
Na3 O0 2.318420 1_555
Na3 O11 2.358897 1_555
Na3 O10 2.409995 1_555
Na3 O4 2.455323 1_555
Na3 O9 2.488012 1_555
Na3 O3 2.580847 1_555
Na3 O7 2.858455 1_555
Na4 O1 2.314744 1_555
Na4 O13 2.326660 1_455
Na4 O12 2.398438 1_555
Na4 O6 2.492801 1_554
Na4 O5 2.520789 1_455
Na4 O2 2.594483 1_454
Na4 O8 2.856758 1_555
Na5 O1 2.322455 1_555
Na5 O13 2.337716 1_555
Na5 O12 2.396430 1_555
Na5 O7 2.486092 1_554
Na5 O5 2.507052 1_555
Na5 O2 2.593392 1_554
Na5 O9 2.877841 1_555
Na6 O26 2.318294 1_555
Na6 O14 2.338940 1_555
Na6 O15 2.405134 1_555
Na6 O22 2.468769 1_555
Na6 O20 2.506367 1_556
Na6 O25 2.575869 1_556
Na6 O18 2.844820 1_555
Na7 O26 2.310069 1_555
Na7 O14 2.329495 1_655
Na7 O15 2.395993 1_555
Na7 O22 2.472704 1_655
Na7 O21 2.480099 1_556
Na7 O25 2.576309 1_656
Na7 O19 2.877777 1_555
Na8 O27 2.341083 1_555
Na8 O16 2.367755 1_555
Na8 O17 2.413700 1_555
Na8 O18 2.470036 1_555
Na8 O23 2.484687 1_555
Na8 O24 2.567802 1_555
Na8 O20 2.856650 1_555
Na9 O2 2.335949 1_544
Na9 O21 2.441778 1_555
Na9 O27 2.443827 1_555
Na9 O20 2.455311 1_555
Na9 O5 2.544937 1_545
Na9 O26 2.770416 1_554
Li0 O27 2.233107 1_555
Li0 O16 2.237343 1_655
Li0 O17 2.303900 1_555
Li0 O19 2.413278 1_555
Li0 O23 2.506394 1_655
Li0 O24 2.582083 1_655
Li1 O3 2.231243 1_545
Li1 O19 2.389379 1_555
Li1 O26 2.403371 1_555
Li1 O18 2.414235 1_555
Li1 O4 2.522128 1_545
Mn0 O15 2.112352 1_555
Mn0 O13 2.182810 1_556
Mn0 O7 2.192555 1_555
Mn0 O6 2.193043 1_655
Mn0 O4 2.344921 1_555
Mn0 O2 2.353022 1_555
Mn1 O17 2.120326 1_555
Mn1 O11 2.158800 1_555
Mn1 O8 2.187242 1_655
Mn1 O9 2.195144 1_555
Mn1 O5 2.324899 1_555
Mn1 O3 2.450909 1_555
Mn2 O10 2.112595 1_555
Mn2 O16 2.172762 1_555
Mn2 O19 2.203965 1_455
Mn2 O18 2.212175 1_555
Mn2 O24 2.316831 1_555
Mn2 O22 2.317791 1_555
Mn3 O12 2.103010 1_555
Mn3 O14 2.170836 1_554
Mn3 O21 2.182841 1_455
Mn3 O20 2.201369 1_555
Mn3 O23 2.318260 1_555
Mn3 O25 2.333933 1_555
C0 O26 1.294056 1_565
C0 O4 1.300663 1_555
C0 O2 1.306541 1_555
C1 O27 1.296966 1_565
C1 O3 1.305085 1_555
C1 O5 1.307165 1_555
C2 O0 1.289737 1_545
C2 O22 1.305706 1_555
C2 O24 1.306015 1_555
C3 O1 1.291151 1_545
C3 O25 1.305520 1_555
C3 O23 1.306248 1_555
O6 P0 1.557920 1_555
O7 P0 1.557581 1_555
O8 P1 1.557265 1_555
O9 P1 1.558317 1_555
O10 P0 1.565184 1_555
O11 P2 1.553365 1_555
O12 P1 1.562197 1_555
O13 P3 1.553190 1_555
O14 P0 1.549607 1_555
O15 P2 1.564594 1_555
O16 P1 1.559078 1_555
O17 P3 1.569100 1_555
O18 P2 1.557989 1_555
O19 P2 1.561395 1_555
O20 P3 1.556978 1_555
O21 P3 1.553780 1_555
