# generated using pymatgen
data_LiVSiO4
_symmetry_space_group_name_H-M   'P 1'
_cell_length_a   4.78417200
_cell_length_b   6.22459303
_cell_length_c   10.31094505
_cell_angle_alpha   89.98957819
_cell_angle_beta   90.00323035
_cell_angle_gamma   89.99991819
_symmetry_Int_Tables_number   1
_chemical_formula_structural   LiVSiO4
_chemical_formula_sum   'Li4 V4 Si4 O16'
_cell_volume   307.05502658
_cell_formula_units_Z   4
loop_
 _symmetry_equiv_pos_site_id
 _symmetry_equiv_pos_as_xyz
  1  'x, y, z'
loop_
 _atom_site_type_symbol
 _atom_site_label
 _atom_site_symmetry_multiplicity
 _atom_site_fract_x
 _atom_site_fract_y
 _atom_site_fract_z
 _atom_site_occupancy
  Li  Li0  1  0.02004900  0.00603500  0.21371400  1
  Li  Li1  1  0.48001100  0.00603800  0.71369700  1
  Li  Li2  1  0.51996900  0.50620700  0.28628900  1
  Li  Li3  1  0.97998800  0.50620400  0.78629400  1
  V  V0  1  0.49991300  0.25646400  0.00009400  1
  V  V1  1  0.00003300  0.75666700  0.49986000  1
  V  V2  1  0.99980400  0.25657700  0.50013500  1
  V  V3  1  0.50008400  0.75643000  0.99992400  1
  Si  Si0  1  0.08140700  0.50670000  0.08792200  1
  Si  Si1  1  0.41859300  0.50662000  0.58795700  1
  Si  Si2  1  0.58126400  0.00670900  0.41208300  1
  Si  Si3  1  0.91869400  0.00674600  0.91204900  1
  O  O0  1  0.23980900  0.50658300  0.94088000  1
  O  O1  1  0.26026000  0.50655700  0.44087000  1
  O  O2  1  0.73983000  0.00656100  0.55910600  1
  O  O3  1  0.76026400  0.00648200  0.05911000  1
  O  O4  1  0.23692000  0.00667800  0.41962900  1
  O  O5  1  0.26301900  0.00658100  0.91961200  1
  O  O6  1  0.73706500  0.50656400  0.08039000  1
  O  O7  1  0.76292000  0.50664400  0.58042500  1
  O  O8  1  0.22215900  0.28706300  0.14837200  1
  O  O9  1  0.22235900  0.72595300  0.14832300  1
  O  O10  1  0.27777600  0.72595700  0.64830000  1
  O  O11  1  0.27783000  0.28714000  0.64839300  1
  O  O12  1  0.72219400  0.78717800  0.35161400  1
  O  O13  1  0.72225000  0.22614600  0.35168400  1
  O  O14  1  0.77772400  0.22610100  0.85171700  1
  O  O15  1  0.77781200  0.78721900  0.85155900  1
loop_
_geom_bond_atom_site_label_1
_geom_bond_atom_site_label_2
_geom_bond_distance
_geom_bond_site_symmetry_2
Li0 O3 2.021304 1_455
Li0 O9 2.105073 1_545
Li0 O8 2.109152 1_555
Li0 O4 2.363083 1_555
Li0 O12 2.430579 1_445
Li0 O13 2.435515 1_455
Li1 O2 2.021410 1_555
Li1 O10 2.104891 1_545
Li1 O11 2.109527 1_555
Li1 O5 2.363442 1_555
Li1 O15 2.429970 1_545
Li1 O14 2.435316 1_555
Li2 O1 2.021004 1_555
Li2 O13 2.104676 1_555
Li2 O12 2.109222 1_555
Li2 O6 2.363510 1_555
Li2 O8 2.431753 1_555
Li2 O9 2.433300 1_555
Li3 O0 2.021264 1_655
Li3 O14 2.104985 1_555
Li3 O15 2.109177 1_555
Li3 O7 2.363068 1_555
Li3 O11 2.431559 1_655
Li3 O10 2.434088 1_655
O0 Si0 1.695026 1_556
O0 V3 2.083281 1_555
O0 V0 2.084401 1_556
O1 Si1 1.695217 1_555
O1 V1 2.084242 1_555
O1 V2 2.084959 1_455
O2 Si2 1.695125 1_555
O2 V2 2.082862 1_555
O2 V1 2.083942 1_645
O3 Si3 1.695261 1_554
O3 V0 2.083873 1_555
O3 V3 2.084391 1_544
O4 Si2 1.649242 1_555
O4 V1 2.095279 1_545
O4 V2 2.096697 1_455
O5 Si3 1.649151 1_455
O5 V0 2.095902 1_556
O5 V3 2.096664 1_545
O6 Si0 1.649217 1_655
O6 V3 2.095757 1_554
O6 V0 2.096814 1_555
O7 Si1 1.649154 1_555
O7 V2 2.095992 1_555
O7 V1 2.097281 1_655
O8 Si0 1.646415 1_555
O8 V0 2.034668 1_555
O9 Si0 1.644822 1_555
O9 V3 2.035393 1_554
O10 Si1 1.644792 1_555
O10 V1 2.035789 1_555
O11 Si1 1.645601 1_555
O11 V2 2.035230 1_455
O12 Si2 1.646507 1_565
O12 V1 2.034470 1_655
O13 Si2 1.645672 1_555
O13 V2 2.035175 1_555
O14 Si3 1.644925 1_555
O14 V0 2.035477 1_556
O15 Si3 1.646447 1_565
O15 V3 2.035320 1_555
