# generated using pymatgen
data_Li2TiCr2O6
_symmetry_space_group_name_H-M   'P 1'
_cell_length_a   5.13491892
_cell_length_b   10.21358800
_cell_length_c   5.13529872
_cell_angle_alpha   89.99885737
_cell_angle_beta   119.99740560
_cell_angle_gamma   90.00069591
_symmetry_Int_Tables_number   1
_chemical_formula_structural   Li2TiCr2O6
_chemical_formula_sum   'Li4 Ti2 Cr4 O12'
_cell_volume   233.24890944
_cell_formula_units_Z   2
loop_
 _symmetry_equiv_pos_site_id
 _symmetry_equiv_pos_as_xyz
  1  'x, y, z'
loop_
 _atom_site_type_symbol
 _atom_site_label
 _atom_site_symmetry_multiplicity
 _atom_site_fract_x
 _atom_site_fract_y
 _atom_site_fract_z
 _atom_site_occupancy
  Li  Li0  1  0.14790000  0.74999900  0.50000200  1
  Li  Li1  1  0.35207800  0.25000000  0.49999500  1
  Li  Li2  1  0.64794100  0.75000100  0.49999600  1
  Li  Li3  1  0.85204300  0.25000100  0.49999200  1
  Ti  Ti0  1  0.00002700  0.99999800  0.00003600  1
  Ti  Ti1  1  0.49999100  0.49999700  0.99995900  1
  Cr  Cr0  1  0.66385500  0.00000200  0.32779300  1
  Cr  Cr1  1  0.83606800  0.49998800  0.67222000  1
  Cr  Cr2  1  0.16391400  0.49997600  0.32777100  1
  Cr  Cr3  1  0.33614000  0.00002000  0.67224600  1
  O  O0  1  0.17794400  0.59891100  0.99994700  1
  O  O1  1  0.32206300  0.09892200  0.00004000  1
  O  O2  1  0.67799400  0.90109200  0.00005400  1
  O  O3  1  0.82201400  0.40108300  0.99995300  1
  O  O4  1  0.00657800  0.10646900  0.33649600  1
  O  O5  1  0.99346900  0.89353600  0.66358100  1
  O  O6  1  0.17007800  0.39353400  0.66350500  1
  O  O7  1  0.49344300  0.60645800  0.66349800  1
  O  O8  1  0.32994300  0.89354200  0.33650000  1
  O  O9  1  0.50652000  0.39353700  0.33641600  1
  O  O10  1  0.82989000  0.60646500  0.33641700  1
  O  O11  1  0.67010500  0.10646800  0.66358300  1
loop_
_geom_bond_atom_site_label_1
_geom_bond_atom_site_label_2
_geom_bond_distance
_geom_bond_site_symmetry_2
Li0 O10 2.037084 1_455
Li0 O5 2.037124 1_455
Li0 O8 2.124365 1_555
Li0 O7 2.124371 1_555
Li1 O9 2.037120 1_555
Li1 O11 2.037126 1_555
Li1 O4 2.124152 1_555
Li1 O6 2.124225 1_555
Li2 O7 2.037095 1_555
Li2 O8 2.037098 1_555
Li2 O5 2.124262 1_555
Li2 O10 2.124290 1_555
Li3 O4 2.037147 1_655
Li3 O6 2.037149 1_655
Li3 O11 2.124232 1_555
Li3 O9 2.124261 1_555
Cr0 O1 1.995027 1_555
Cr0 O2 1.995168 1_545
Cr0 O11 2.025265 1_555
Cr0 O5 2.025394 1_545
Cr0 O8 2.049587 1_545
Cr0 O4 2.050087 1_655
Cr1 O3 1.994881 1_555
Cr1 O0 1.995198 1_655
Cr1 O9 2.025223 1_555
Cr1 O10 2.025497 1_555
Cr1 O7 2.049659 1_555
Cr1 O6 2.050022 1_655
Cr2 O3 1.995288 1_454
Cr2 O0 1.995382 1_554
Cr2 O6 2.025035 1_555
Cr2 O7 2.025182 1_555
Cr2 O9 2.049569 1_555
Cr2 O10 2.050117 1_455
Cr3 O1 1.995224 1_556
Cr3 O2 1.995328 1_546
Cr3 O4 2.025107 1_555
Cr3 O8 2.025252 1_545
Cr3 O11 2.049653 1_555
Cr3 O5 2.050032 1_445
O0 Ti1 1.937847 1_555
O1 Ti0 1.937849 1_545
O2 Ti0 1.937788 1_655
O3 Ti1 1.937782 1_555
O4 Ti0 2.027562 1_545
O5 Ti0 2.027477 1_656
O6 Ti1 2.027506 1_555
O7 Ti1 2.027482 1_555
O8 Ti0 2.027481 1_555
O9 Ti1 2.027499 1_554
O10 Ti1 2.027513 1_554
O11 Ti0 2.027546 1_646
