# generated using pymatgen
data_Al11InO17
_symmetry_space_group_name_H-M   'P 1'
_cell_length_a   5.65614676
_cell_length_b   5.65614676
_cell_length_c   23.06173300
_cell_angle_alpha   90.00000000
_cell_angle_beta   90.00000000
_cell_angle_gamma   120.00000888
_symmetry_Int_Tables_number   1
_chemical_formula_structural   Al11InO17
_chemical_formula_sum   'Al22 In2 O34'
_cell_volume   638.94558204
_cell_formula_units_Z   2
loop_
 _symmetry_equiv_pos_site_id
 _symmetry_equiv_pos_as_xyz
  1  'x, y, z'
loop_
 _atom_site_type_symbol
 _atom_site_label
 _atom_site_symmetry_multiplicity
 _atom_site_fract_x
 _atom_site_fract_y
 _atom_site_fract_z
 _atom_site_occupancy
  Al  Al0  1  0.16732800  0.83267200  0.89435100  1
  Al  Al1  1  0.16732800  0.83267200  0.60564900  1
  Al  Al2  1  0.33333300  0.66666700  0.17543600  1
  Al  Al3  1  0.33333300  0.66666700  0.02463600  1
  Al  Al4  1  0.00000000  0.00000000  0.00000000  1
  Al  Al5  1  0.00000000  0.00000000  0.50000000  1
  Al  Al6  1  0.33333300  0.66666700  0.32456400  1
  Al  Al7  1  0.33333300  0.66666700  0.47536400  1
  Al  Al8  1  0.16732800  0.33465600  0.60564900  1
  Al  Al9  1  0.16732800  0.33465600  0.89435100  1
  Al  Al10  1  0.66534400  0.83267200  0.89435100  1
  Al  Al11  1  0.66534400  0.83267200  0.60564900  1
  Al  Al12  1  0.33465600  0.16732800  0.39435100  1
  Al  Al13  1  0.33465600  0.16732800  0.10564900  1
  Al  Al14  1  0.83267200  0.66534400  0.39435100  1
  Al  Al15  1  0.66666700  0.33333300  0.67543600  1
  Al  Al16  1  0.66666700  0.33333300  0.82456400  1
  Al  Al17  1  0.66666700  0.33333300  0.97536400  1
  Al  Al18  1  0.66666700  0.33333300  0.52463600  1
  Al  Al19  1  0.83267200  0.66534400  0.10564900  1
  Al  Al20  1  0.83267200  0.16732800  0.10564900  1
  Al  Al21  1  0.83267200  0.16732800  0.39435100  1
  In  In0  1  0.33333300  0.66666700  0.75000000  1
  In  In1  1  0.66666700  0.33333300  0.25000000  1
  O  O0  1  0.15717300  0.84282700  0.04917400  1
  O  O1  1  0.15717300  0.84282700  0.45082600  1
  O  O2  1  0.00314200  0.50157100  0.85593500  1
  O  O3  1  0.00314200  0.50157100  0.64406500  1
  O  O4  1  0.15717300  0.31434500  0.45082600  1
  O  O5  1  0.33333300  0.66666700  0.25000000  1
  O  O6  1  0.00000000  0.00000000  0.13973100  1
  O  O7  1  0.33333300  0.66666700  0.94491600  1
  O  O8  1  0.00000000  0.00000000  0.36026900  1
  O  O9  1  0.00000000  0.00000000  0.63973100  1
  O  O10  1  0.00000000  0.00000000  0.86026900  1
  O  O11  1  0.33333300  0.66666700  0.55508400  1
  O  O12  1  0.15717300  0.31434500  0.04917400  1
  O  O13  1  0.49842900  0.99685800  0.64406500  1
  O  O14  1  0.49842900  0.99685800  0.85593500  1
  O  O15  1  0.31434500  0.15717300  0.54917400  1
  O  O16  1  0.31434500  0.15717300  0.95082600  1
  O  O17  1  0.49842900  0.50157100  0.85593500  1
  O  O18  1  0.49842900  0.50157100  0.64406500  1
  O  O19  1  0.50157100  0.49842900  0.14406500  1
  O  O20  1  0.50157100  0.49842900  0.35593500  1
  O  O21  1  0.68565500  0.84282700  0.45082600  1
  O  O22  1  0.68565500  0.84282700  0.04917400  1
  O  O23  1  0.50157100  0.00314200  0.35593500  1
  O  O24  1  0.66666700  0.33333300  0.44491600  1
  O  O25  1  0.66666700  0.33333300  0.75000000  1
  O  O26  1  0.66666700  0.33333300  0.05508400  1
  O  O27  1  0.84282700  0.68565500  0.95082600  1
  O  O28  1  0.84282700  0.68565500  0.54917400  1
  O  O29  1  0.50157100  0.00314200  0.14406500  1
  O  O30  1  0.99685800  0.49842900  0.14406500  1
  O  O31  1  0.99685800  0.49842900  0.35593500  1
  O  O32  1  0.84282700  0.15717300  0.54917400  1
  O  O33  1  0.84282700  0.15717300  0.95082600  1
loop_
_geom_bond_atom_site_label_1
_geom_bond_atom_site_label_2
_geom_bond_distance
_geom_bond_site_symmetry_2
Al0 O10 1.817960 1_565
Al0 O14 1.848069 1_555
Al0 O2 1.848069 1_555
Al0 O7 2.001175 1_555
Al0 O16 2.056767 1_565
Al0 O27 2.056767 1_455
Al1 O9 1.817960 1_565
Al1 O13 1.848069 1_555
Al1 O3 1.848069 1_555
Al1 O11 2.001175 1_555
Al1 O15 2.056767 1_565
Al1 O28 2.056767 1_455
Al2 O5 1.719575 1_555
Al2 O29 1.799972 1_565
Al2 O30 1.799972 1_455
Al2 O19 1.799976 1_555
Al3 O0 1.816202 1_555
Al3 O12 1.816211 1_555
Al3 O22 1.816211 1_555
Al3 O7 1.838481 1_554
Al4 O22 1.912317 1_445
Al4 O12 1.912317 1_555
Al4 O16 1.912317 1_554
Al4 O27 1.912317 1_444
Al4 O0 1.912321 1_545
Al4 O33 1.912321 1_454
Al5 O15 1.912317 1_555
Al5 O28 1.912317 1_445
Al5 O21 1.912317 1_445
Al5 O4 1.912317 1_555
Al5 O32 1.912321 1_455
Al5 O1 1.912321 1_545
Al6 O5 1.719575 1_555
Al6 O23 1.799972 1_565
Al6 O31 1.799972 1_455
Al6 O20 1.799976 1_555
Al7 O1 1.816202 1_555
Al7 O4 1.816211 1_555
Al7 O21 1.816211 1_555
Al7 O11 1.838481 1_555
Al8 O9 1.817960 1_555
Al8 O18 1.848069 1_555
Al8 O3 1.848069 1_555
Al8 O11 2.001179 1_555
Al8 O15 2.056763 1_555
Al8 O32 2.056766 1_455
Al9 O10 1.817960 1_555
Al9 O17 1.848069 1_555
Al9 O2 1.848069 1_555
Al9 O7 2.001179 1_555
Al9 O16 2.056763 1_555
Al9 O33 2.056766 1_455
Al10 O10 1.817960 1_665
Al10 O17 1.848069 1_555
Al10 O14 1.848069 1_555
Al10 O7 2.001179 1_555
Al10 O27 2.056763 1_555
Al10 O33 2.056766 1_565
Al11 O9 1.817960 1_665
Al11 O18 1.848069 1_555
Al11 O13 1.848069 1_555
Al11 O11 2.001179 1_555
Al11 O28 2.056763 1_555
Al11 O32 2.056766 1_565
Al12 O8 1.817960 1_555
Al12 O20 1.848069 1_555
Al12 O23 1.848069 1_555
Al12 O24 2.001179 1_555
Al12 O4 2.056763 1_555
Al12 O1 2.056766 1_545
Al13 O6 1.817960 1_555
Al13 O19 1.848069 1_555
Al13 O29 1.848069 1_555
Al13 O26 2.001179 1_555
Al13 O12 2.056763 1_555
Al13 O0 2.056766 1_545
Al14 O8 1.817960 1_665
Al14 O20 1.848069 1_555
Al14 O31 1.848069 1_555
Al14 O24 2.001179 1_555
Al14 O21 2.056763 1_555
Al14 O1 2.056766 1_655
Al15 O25 1.719575 1_555
Al15 O3 1.799972 1_655
Al15 O13 1.799972 1_545
Al15 O18 1.799976 1_555
Al16 O25 1.719575 1_555
Al16 O2 1.799972 1_655
Al16 O14 1.799972 1_545
Al16 O17 1.799976 1_555
Al17 O33 1.816202 1_555
Al17 O27 1.816211 1_555
Al17 O16 1.816211 1_555
Al17 O26 1.838481 1_556
Al18 O32 1.816202 1_555
Al18 O28 1.816211 1_555
Al18 O15 1.816211 1_555
Al18 O24 1.838481 1_555
Al19 O6 1.817960 1_665
Al19 O19 1.848069 1_555
Al19 O30 1.848069 1_555
Al19 O26 2.001179 1_555
Al19 O22 2.056763 1_555
Al19 O0 2.056766 1_655
Al20 O6 1.817960 1_655
Al20 O30 1.848069 1_555
Al20 O29 1.848069 1_555
Al20 O26 2.001175 1_555
Al20 O12 2.056767 1_655
Al20 O22 2.056767 1_545
Al21 O8 1.817960 1_655
Al21 O31 1.848069 1_555
Al21 O23 1.848069 1_555
Al21 O24 2.001175 1_555
Al21 O4 2.056767 1_655
Al21 O21 2.056767 1_545
