# generated using pymatgen
data_Li2FeF4
_symmetry_space_group_name_H-M   'P 1'
_cell_length_a   4.87226900
_cell_length_b   5.78364900
_cell_length_c   5.84737616
_cell_angle_alpha   72.77457256
_cell_angle_beta   90.00000000
_cell_angle_gamma   90.00000000
_symmetry_Int_Tables_number   1
_chemical_formula_structural   Li2FeF4
_chemical_formula_sum   'Li4 Fe2 F8'
_cell_volume   157.38540315
_cell_formula_units_Z   2
loop_
 _symmetry_equiv_pos_site_id
 _symmetry_equiv_pos_as_xyz
  1  'x, y, z'
loop_
 _atom_site_type_symbol
 _atom_site_label
 _atom_site_symmetry_multiplicity
 _atom_site_fract_x
 _atom_site_fract_y
 _atom_site_fract_z
 _atom_site_occupancy
  Li  Li0  1  0.73044800  0.39904500  0.43629800  1
  Li  Li1  1  0.23044800  0.10095500  0.56370200  1
  Li  Li2  1  0.76955200  0.89904500  0.43629800  1
  Li  Li3  1  0.26955200  0.60095500  0.56370200  1
  Fe  Fe0  1  0.00000000  0.00000000  0.00000000  1
  Fe  Fe1  1  0.50000000  0.50000000  0.00000000  1
  F  F0  1  0.82063500  0.09382000  0.64725400  1
  F  F1  1  0.75677700  0.70698800  0.15932300  1
  F  F2  1  0.32063500  0.40618000  0.35274600  1
  F  F3  1  0.25677700  0.79301200  0.84067700  1
  F  F4  1  0.74322300  0.20698800  0.15932300  1
  F  F5  1  0.67936500  0.59382000  0.64725400  1
  F  F6  1  0.24322300  0.29301200  0.84067700  1
  F  F7  1  0.17936500  0.90618000  0.35274600  1
loop_
_geom_bond_atom_site_label_1
_geom_bond_atom_site_label_2
_geom_bond_distance
_geom_bond_site_symmetry_2
F0 Li0 1.881843 1_555
F0 Li2 1.917185 1_545
F0 Li1 2.053129 1_655
F0 Fe0 2.156331 1_656
F1 Li0 2.025628 1_555
F1 Fe0 2.051616 1_665
F1 Fe1 2.127637 1_555
F1 Li2 2.219515 1_555
F2 Li1 1.881843 1_555
F2 Li3 1.917185 1_555
F2 Li0 2.053129 1_555
F2 Fe1 2.156331 1_555
F3 Li1 2.025628 1_565
F3 Fe1 2.051616 1_556
F3 Fe0 2.127637 1_566
F3 Li3 2.219515 1_555
F4 Li2 2.025628 1_545
F4 Fe1 2.051616 1_555
F4 Fe0 2.127637 1_655
F4 Li0 2.219515 1_555
F5 Li2 1.881843 1_555
F5 Li0 1.917185 1_555
F5 Li3 2.053129 1_555
F5 Fe1 2.156331 1_556
F6 Li3 2.025628 1_555
F6 Fe0 2.051616 1_556
F6 Fe1 2.127637 1_556
F6 Li1 2.219515 1_555
F7 Li3 1.881843 1_555
F7 Li1 1.917185 1_565
F7 Li2 2.053129 1_455
F7 Fe0 2.156331 1_565
