# generated using pymatgen
data_Li4V5Co3O16
_symmetry_space_group_name_H-M   'P 1'
_cell_length_a   5.91715965
_cell_length_b   5.91715965
_cell_length_c   9.57752489
_cell_angle_alpha   89.15614916
_cell_angle_beta   89.15614916
_cell_angle_gamma   60.13583191
_symmetry_Int_Tables_number   1
_chemical_formula_structural   Li4V5Co3O16
_chemical_formula_sum   'Li4 V5 Co3 O16'
_cell_volume   290.76384859
_cell_formula_units_Z   1
loop_
 _symmetry_equiv_pos_site_id
 _symmetry_equiv_pos_as_xyz
  1  'x, y, z'
loop_
 _atom_site_type_symbol
 _atom_site_label
 _atom_site_symmetry_multiplicity
 _atom_site_fract_x
 _atom_site_fract_y
 _atom_site_fract_z
 _atom_site_occupancy
  Li  Li0  1  0.33832600  0.33832600  0.09868800  1
  Li  Li1  1  0.99950000  0.99950000  0.00631600  1
  Li  Li2  1  0.99953200  0.99953200  0.51276000  1
  Li  Li3  1  0.66698300  0.66698300  0.59978200  1
  V  V0  1  0.84152000  0.35340100  0.28030800  1
  V  V1  1  0.35322100  0.35322100  0.51191200  1
  V  V2  1  0.17893300  0.17893300  0.77060800  1
  V  V3  1  0.66208300  0.66208300  0.99848200  1
  V  V4  1  0.35340100  0.84152000  0.28030800  1
  Co  Co0  1  0.65528200  0.16454300  0.78967900  1
  Co  Co1  1  0.16454300  0.65528200  0.78967900  1
  Co  Co2  1  0.83034400  0.83034400  0.29249700  1
  O  O0  1  0.65321400  0.18029300  0.41018300  1
  O  O1  1  0.47709100  0.47709100  0.64399300  1
  O  O2  1  0.31615400  0.31615400  0.89511300  1
  O  O3  1  0.00853300  0.00853300  0.70478800  1
  O  O4  1  0.00560900  0.00560900  0.19752300  1
  O  O5  1  0.18029300  0.65321400  0.41018300  1
  O  O6  1  0.46678900  0.03929800  0.64510700  1
  O  O7  1  0.03929800  0.46678900  0.64510700  1
  O  O8  1  0.82328500  0.82328500  0.91986100  1
  O  O9  1  0.16809100  0.16809100  0.39748400  1
  O  O10  1  0.96086400  0.50825800  0.15530200  1
  O  O11  1  0.50825800  0.96086400  0.15530200  1
  O  O12  1  0.65342200  0.65342200  0.39675100  1
  O  O13  1  0.82309200  0.35488100  0.91218700  1
  O  O14  1  0.52323500  0.52323500  0.16070100  1
  O  O15  1  0.35488100  0.82309200  0.91218700  1
loop_
_geom_bond_atom_site_label_1
_geom_bond_atom_site_label_2
_geom_bond_distance
_geom_bond_site_symmetry_2
Li0 O2 1.966758 1_554
Li0 O14 1.994372 1_555
Li0 O10 2.009327 1_455
Li0 O11 2.009327 1_545
Li1 O4 1.833422 1_665
Li1 O8 1.998410 1_554
Li1 O13 2.027356 1_564
Li1 O15 2.027356 1_654
Li2 O3 1.843028 1_665
Li2 O9 2.033310 1_665
Li2 O0 2.038143 1_565
Li2 O5 2.038143 1_655
Li3 O12 1.951844 1_555
Li3 O6 1.964472 1_565
Li3 O7 1.964472 1_655
Li3 O1 1.983344 1_555
Co0 O3 1.983113 1_655
Co0 O2 2.006346 1_555
Co0 O1 2.122322 1_555
Co0 O8 2.140915 1_545
Co0 O6 2.146937 1_555
Co0 O13 2.195015 1_555
Co1 O3 1.983113 1_565
Co1 O2 2.006346 1_555
Co1 O1 2.122322 1_555
Co1 O8 2.140915 1_455
Co1 O7 2.146937 1_555
Co1 O15 2.195015 1_555
Co2 O4 1.998489 1_665
Co2 O12 2.053961 1_555
Co2 O0 2.128224 1_565
Co2 O5 2.128224 1_655
Co2 O10 2.129145 1_555
Co2 O11 2.129145 1_555
O0 V1 1.821218 1_555
O0 V0 2.212747 1_555
O1 V1 1.806750 1_555
O2 V2 1.858520 1_555
O3 V2 1.865629 1_555
O4 V4 1.960091 1_545
O4 V0 1.960091 1_455
O5 V1 1.821218 1_555
O5 V4 2.212747 1_555
O6 V2 1.896326 1_555
O6 V1 2.059536 1_555
O7 V2 1.896326 1_555
O7 V1 2.059536 1_555
O8 V3 1.802910 1_555
O9 V0 2.028134 1_455
O9 V4 2.028134 1_545
O9 V1 2.206096 1_555
O10 V0 1.832737 1_555
O10 V3 2.155293 1_554
O11 V4 1.832737 1_555
O11 V3 2.155293 1_554
O12 V4 1.920445 1_555
O12 V0 1.920445 1_555
O13 V3 1.786444 1_555
O13 V2 2.265031 1_655
O14 V0 2.003475 1_555
O14 V4 2.003475 1_555
O14 V3 2.088274 1_554
O15 V3 1.786444 1_555
O15 V2 2.265031 1_565
