# generated using pymatgen
data_Li3Mn2P2O8F3
_symmetry_space_group_name_H-M   'P 1'
_cell_length_a   6.34615046
_cell_length_b   6.35593083
_cell_length_c   10.79493905
_cell_angle_alpha   89.98937626
_cell_angle_beta   89.99954986
_cell_angle_gamma   88.34904650
_symmetry_Int_Tables_number   1
_chemical_formula_structural   Li3Mn2P2O8F3
_chemical_formula_sum   'Li6 Mn4 P4 O16 F6'
_cell_volume   435.24059547
_cell_formula_units_Z   2
loop_
 _symmetry_equiv_pos_site_id
 _symmetry_equiv_pos_as_xyz
  1  'x, y, z'
loop_
 _atom_site_type_symbol
 _atom_site_label
 _atom_site_symmetry_multiplicity
 _atom_site_fract_x
 _atom_site_fract_y
 _atom_site_fract_z
 _atom_site_occupancy
  Li  Li0  1  0.28882100  0.71115900  0.99989100  1
  Li  Li1  1  0.78842700  0.21175300  0.50013000  1
  Li  Li2  1  0.69988900  0.73072200  0.49954700  1
  Li  Li3  1  0.19802400  0.23003100  0.00023700  1
  Li  Li4  1  0.76971000  0.79975300  0.99983200  1
  Li  Li5  1  0.27025900  0.30107100  0.50036500  1
  Mn  Mn0  1  0.00259600  0.99749500  0.80304000  1
  Mn  Mn1  1  0.00210200  0.99654700  0.19699500  1
  Mn  Mn2  1  0.50223400  0.49713800  0.30297600  1
  Mn  Mn3  1  0.50306600  0.49822000  0.69703200  1
  P  P0  1  0.00761300  0.49143200  0.24954800  1
  P  P1  1  0.50815400  0.99237100  0.74987500  1
  P  P2  1  0.50774100  0.99153700  0.25029800  1
  P  P3  1  0.00840500  0.49240400  0.75020500  1
  O  O0  1  0.01468400  0.30240000  0.15857200  1
  O  O1  1  0.51544800  0.80393400  0.65838800  1
  O  O2  1  0.19652400  0.48500100  0.34113100  1
  O  O3  1  0.69702800  0.98518300  0.84148800  1
  O  O4  1  0.51463500  0.80294700  0.34169200  1
  O  O5  1  0.01516500  0.30340200  0.84131700  1
  O  O6  1  0.69666000  0.98450500  0.15881100  1
  O  O7  1  0.19753800  0.48595000  0.65883500  1
  O  O8  1  0.81022800  0.49150000  0.33413300  1
  O  O9  1  0.31054100  0.99177800  0.83430700  1
  O  O10  1  0.00783700  0.68835600  0.16490400  1
  O  O11  1  0.50867400  0.18992500  0.66582400  1
  O  O12  1  0.31028500  0.99092000  0.16579100  1
  O  O13  1  0.81125800  0.49249500  0.66546200  1
  O  O14  1  0.50770400  0.18898200  0.33452300  1
  O  O15  1  0.00841900  0.68937100  0.83482100  1
  F  F0  1  0.02228800  0.97754400  0.00000700  1
  F  F1  1  0.52302700  0.47722200  0.50001900  1
  F  F2  1  0.45612400  0.54381900  0.12100800  1
  F  F3  1  0.95643200  0.04461500  0.62107300  1
  F  F4  1  0.95488700  0.04319600  0.37896800  1
  F  F5  1  0.45751700  0.54537400  0.87895600  1
loop_
_geom_bond_atom_site_label_1
_geom_bond_atom_site_label_2
_geom_bond_distance
_geom_bond_site_symmetry_2
Li0 O15 2.524933 1_555
Li0 O10 2.527545 1_556
Li0 O12 2.530363 1_556
Li0 O9 2.531449 1_555
Li1 O11 2.526752 1_555
Li1 O8 2.530732 1_555
Li1 O14 2.530941 1_555
Li1 O13 2.531087 1_555
Li2 O4 2.113117 1_555
Li2 O1 2.120279 1_555
Li2 O8 2.435221 1_555
Li2 O13 2.436670 1_555
Li3 O0 2.110962 1_555
Li3 O5 2.115590 1_554
Li3 O12 2.438806 1_545
Li3 O9 2.439288 1_544
Li4 O3 2.119316 1_555
Li4 O6 2.123306 1_556
Li4 O10 2.428630 1_656
Li4 O15 2.428835 1_655
Li5 O7 2.118887 1_555
Li5 O2 2.123221 1_555
Li5 O11 2.432382 1_555
Li5 O14 2.433469 1_555
Mn0 O9 1.982501 1_555
Mn0 O3 1.986838 1_455
Mn0 O15 1.987469 1_555
Mn0 O5 1.991664 1_565
Mn1 O12 1.983877 1_555
Mn1 O6 1.985360 1_455
Mn1 O10 1.988601 1_555
Mn1 O0 1.991511 1_565
Mn2 O8 1.982611 1_555
Mn2 O2 1.986986 1_555
Mn2 O14 1.987259 1_555
Mn2 O4 1.991972 1_555
Mn3 O13 1.984601 1_555
Mn3 O7 1.986020 1_555
Mn3 O11 1.987620 1_555
Mn3 O1 1.991060 1_555
O0 P0 1.551569 1_555
O1 P1 1.552160 1_555
O2 P0 1.553546 1_555
O3 P1 1.553598 1_555
O4 P2 1.551972 1_555
O5 P3 1.552058 1_555
O6 P2 1.552944 1_555
O7 P3 1.553170 1_555
O8 P0 1.550090 1_655
O9 P1 1.550390 1_555
O10 P0 1.549570 1_555
O11 P1 1.549096 1_545
O12 P2 1.550077 1_555
O13 P3 1.549884 1_655
O14 P2 1.549822 1_545
O15 P3 1.549855 1_555
F0 Li3 1.980470 1_565
F0 Li4 1.987616 1_454
F0 Mn0 2.133451 1_554
F0 Mn1 2.133562 1_555
F0 Li0 2.358535 1_554
F1 Li5 1.982463 1_555
F1 Li2 1.989987 1_555
F1 Mn3 2.134484 1_555
F1 Mn2 2.134665 1_555
F1 Li1 2.349468 1_555
F2 Li0 1.975445 1_554
F2 Mn2 2.006752 1_555
F3 Li1 1.975862 1_555
F3 Mn0 2.007192 1_645
F4 Li1 1.977292 1_555
F4 Mn1 2.007884 1_645
F5 Li0 1.973885 1_555
F5 Mn3 2.006325 1_555
