# generated using pymatgen
data_Ca3V10O25
_symmetry_space_group_name_H-M   'P 1'
_cell_length_a   6.30581800
_cell_length_b   9.17301562
_cell_length_c   18.10158893
_cell_angle_alpha   86.11053571
_cell_angle_beta   88.17759682
_cell_angle_gamma   78.84346523
_symmetry_Int_Tables_number   1
_chemical_formula_structural   Ca3V10O25
_chemical_formula_sum   'Ca6 V20 O50'
_cell_volume   1024.71718066
_cell_formula_units_Z   2
loop_
 _symmetry_equiv_pos_site_id
 _symmetry_equiv_pos_as_xyz
  1  'x, y, z'
loop_
 _atom_site_type_symbol
 _atom_site_label
 _atom_site_symmetry_multiplicity
 _atom_site_fract_x
 _atom_site_fract_y
 _atom_site_fract_z
 _atom_site_occupancy
  Ca  Ca0  1  0.79307100  0.49328000  0.84769600  1
  Ca  Ca1  1  0.95219500  0.49622900  0.65862400  1
  Ca  Ca2  1  0.41095900  0.50694300  0.94811100  1
  Ca  Ca3  1  0.14613300  0.50007700  0.46285700  1
  Ca  Ca4  1  0.40274600  0.49587100  0.27884200  1
  Ca  Ca5  1  0.19095800  0.50638800  0.12456800  1
  V  V0  1  0.82681600  0.16199500  0.98093900  1
  V  V1  1  0.61870000  0.84283500  0.95751600  1
  V  V2  1  0.82518200  0.84992500  0.75633100  1
  V  V3  1  0.96764000  0.15310800  0.44253300  1
  V  V4  1  0.77838700  0.15680200  0.64112700  1
  V  V5  1  0.58321800  0.15668500  0.84161600  1
  V  V6  1  0.56330000  0.84157100  0.61875900  1
  V  V7  1  0.37460600  0.83898400  0.81760100  1
  V  V8  1  0.96571600  0.83996800  0.21912300  1
  V  V9  1  0.76347800  0.84427200  0.42003700  1
  V  V10  1  0.42801800  0.15163500  0.38314800  1
  V  V11  1  0.23881800  0.15392000  0.58179100  1
  V  V12  1  0.63509600  0.16129400  0.18179200  1
  V  V13  1  0.04547900  0.14150200  0.78210800  1
  V  V14  1  0.02236000  0.84500300  0.55766300  1
  V  V15  1  0.41868700  0.84189900  0.15900500  1
  V  V16  1  0.21934300  0.84798100  0.35844200  1
  V  V17  1  0.18170100  0.15733900  0.24198800  1
  V  V18  1  0.37858100  0.14795600  0.04304100  1
  V  V19  1  0.15464700  0.86206400  0.01575600  1
  O  O0  1  0.88537600  0.89994900  0.98747700  1
  O  O1  1  0.77173300  0.35220500  0.96860000  1
  O  O2  1  0.99584900  0.33608700  0.77031000  1
  O  O3  1  0.90721500  0.65863700  0.76211600  1
  O  O4  1  0.69451800  0.65448900  0.95626700  1
  O  O5  1  0.88630100  0.13833000  0.87291900  1
  O  O6  1  0.85383100  0.89355800  0.64826500  1
  O  O7  1  0.65420900  0.89205600  0.84977900  1
  O  O8  1  0.74463600  0.10651400  0.74855200  1
  O  O9  1  0.54824100  0.10774000  0.95041200  1
  O  O10  1  0.94589900  0.10649300  0.54664400  1
  O  O11  1  0.52444000  0.86555200  0.72154000  1
  O  O12  1  0.72017300  0.86955500  0.52353100  1
  O  O13  1  0.31537600  0.86456700  0.92644900  1
  O  O14  1  0.92142300  0.86662500  0.32431600  1
  O  O15  1  0.91329800  0.33730100  0.43439900  1
  O  O16  1  0.50848800  0.34516200  0.84348000  1
  O  O17  1  0.71371300  0.34167200  0.63349300  1
  O  O18  1  0.43315400  0.64852900  0.83118700  1
  O  O19  1  0.62169400  0.65779400  0.62301800  1
  O  O20  1  0.81515500  0.65978300  0.42373900  1
  O  O21  1  0.08618100  0.91448700  0.78580800  1
  O  O22  1  0.69871800  0.88685000  0.18920600  1
  O  O23  1  0.49384700  0.90439600  0.38848500  1
  O  O24  1  0.29347500  0.89619800  0.58796600  1
  O  O25  1  0.72582400  0.10236400  0.41379400  1
  O  O26  1  0.50499800  0.10540500  0.61120600  1
  O  O27  1  0.90247200  0.11245200  0.21198400  1
  O  O28  1  0.31405200  0.10249500  0.81158400  1
  O  O29  1  0.18606900  0.34417800  0.57462300  1
  O  O30  1  0.38498700  0.34336400  0.38200400  1
  O  O31  1  0.56402800  0.34918700  0.17914500  1
  O  O32  1  0.46792700  0.65266500  0.17321000  1
  O  O33  1  0.29641600  0.65796900  0.37018300  1
  O  O34  1  0.09096500  0.65508600  0.56527800  1
  O  O35  1  0.67550900  0.13818400  0.07891200  1
  O  O36  1  0.08366300  0.13216300  0.67206600  1
  O  O37  1  0.48216400  0.13311900  0.27499500  1
  O  O38  1  0.27651900  0.12898800  0.47825100  1
  O  O39  1  0.24987900  0.89568100  0.25161400  1
  O  O40  1  0.45760200  0.89079300  0.05216600  1
  O  O41  1  0.05435800  0.88817100  0.45022500  1
  O  O42  1  0.34886900  0.10277100  0.15083900  1
  O  O43  1  0.14349700  0.10880900  0.35173200  1
  O  O44  1  0.11704800  0.86579400  0.12693100  1
  O  O45  1  0.13092600  0.34662400  0.22927100  1
  O  O46  1  0.28887100  0.33941900  0.03346200  1
  O  O47  1  0.20110100  0.66512600  0.02433600  1
  O  O48  1  0.03276700  0.65169200  0.22419900  1
  O  O49  1  0.11541700  0.08451000  0.01442500  1
loop_
_geom_bond_atom_site_label_1
_geom_bond_atom_site_label_2
_geom_bond_distance
_geom_bond_site_symmetry_2
Ca0 O2 2.263418 1_555
Ca0 O3 2.291600 1_555
Ca0 O18 2.450095 1_555
Ca0 O16 2.457337 1_555
Ca0 O1 2.479306 1_555
Ca0 O4 2.529104 1_555
Ca1 O17 2.331207 1_555
Ca1 O19 2.390779 1_555
Ca1 O29 2.404470 1_655
Ca1 O2 2.407686 1_555
Ca1 O34 2.410321 1_655
Ca1 O3 2.447588 1_555
Ca2 O47 2.274397 1_556
Ca2 O46 2.324049 1_556
Ca2 O18 2.421692 1_555
Ca2 O4 2.455852 1_555
Ca2 O1 2.461796 1_555
Ca2 O16 2.474221 1_555
Ca3 O15 2.377251 1_455
Ca3 O29 2.387916 1_555
Ca3 O34 2.388570 1_555
Ca3 O20 2.402826 1_455
Ca3 O30 2.405082 1_555
Ca3 O33 2.431118 1_555
Ca4 O30 2.269292 1_555
Ca4 O33 2.295978 1_555
Ca4 O32 2.387343 1_555
Ca4 O31 2.405154 1_555
Ca4 O45 2.605761 1_555
Ca4 O48 2.670000 1_555
Ca5 O47 2.255323 1_555
Ca5 O46 2.314894 1_555
Ca5 O45 2.382311 1_555
Ca5 O48 2.391928 1_555
Ca5 O32 2.605953 1_555
Ca5 O31 2.689143 1_555
O0 V19 1.751777 1_656
O0 V1 1.958038 1_555
O0 V0 2.355649 1_565
O1 V0 1.712424 1_555
O2 V13 1.750970 1_655
O3 V2 1.727641 1_555
O4 V1 1.702645 1_555
O5 V13 1.900100 1_655
O5 V5 1.983297 1_555
O5 V0 1.997643 1_555
O6 V14 1.955133 1_655
O6 V2 1.979572 1_555
O6 V6 2.074587 1_555
O6 V4 2.364534 1_565
O7 V1 1.987262 1_555
O7 V2 1.996129 1_555
O7 V7 2.029985 1_555
O7 V5 2.376921 1_565
O8 V5 1.974994 1_555
O8 V4 1.982269 1_555
O8 V13 2.099084 1_655
O8 V2 2.305351 1_545
O9 V18 1.977165 1_556
O9 V5 2.004850 1_555
O9 V0 2.018961 1_555
O9 V1 2.379532 1_545
O10 V3 1.910546 1_555
O10 V4 2.014292 1_555
O10 V11 2.104532 1_655
O10 V14 2.349350 1_645
O11 V6 1.890915 1_555
O11 V7 1.975559 1_555
O11 V2 1.993013 1_555
O12 V9 1.907853 1_555
O12 V6 1.986360 1_555
O12 V14 1.988328 1_655
O13 V19 1.881732 1_556
O13 V1 1.979921 1_555
O13 V7 2.014632 1_555
O14 V8 1.940758 1_555
O14 V16 1.968563 1_655
O14 V9 1.989304 1_555
O15 V3 1.655075 1_555
O16 V5 1.704091 1_555
O17 V4 1.662939 1_555
O18 V7 1.716637 1_555
O19 V6 1.651476 1_555
O20 V9 1.657475 1_555
O21 V7 1.908873 1_555
O21 V2 1.954496 1_455
O21 V13 2.045029 1_565
O22 V8 1.749018 1_555
O22 V15 1.990168 1_555
O22 V12 2.466457 1_565
O23 V9 1.782514 1_555
O23 V16 2.001127 1_555
O23 V10 2.221183 1_565
O24 V6 1.774620 1_555
O24 V14 1.961999 1_555
O24 V11 2.317646 1_565
O25 V3 1.780571 1_555
O25 V10 1.934516 1_555
O25 V9 2.328518 1_545
O26 V11 1.741981 1_555
O26 V4 1.973870 1_555
O26 V6 2.371706 1_545
O27 V12 1.753615 1_555
O27 V17 1.984071 1_655
O27 V8 2.448868 1_545
O28 V13 1.754416 1_555
O28 V5 1.960953 1_555
O28 V7 2.368592 1_545
O29 V11 1.709010 1_555
O30 V10 1.725671 1_555
O31 V12 1.692630 1_555
O32 V15 1.706353 1_555
O33 V16 1.716935 1_555
O34 V14 1.708997 1_555
O35 V12 1.892215 1_555
O35 V18 1.984923 1_555
O35 V0 2.005916 1_554
O36 V11 1.896586 1_555
O36 V4 1.988327 1_455
O36 V13 2.004441 1_555
O37 V12 1.943447 1_555
O37 V17 1.971597 1_555
O37 V10 1.989555 1_555
O38 V11 1.905351 1_555
O38 V10 1.960382 1_555
O38 V3 2.038278 1_455
O39 V16 1.965217 1_555
O39 V15 1.995541 1_555
O39 V8 2.068841 1_455
O39 V17 2.350495 1_565
O40 V15 1.973903 1_555
O40 V1 1.994882 1_554
O40 V19 2.109941 1_555
O40 V18 2.310361 1_565
O41 V16 1.950209 1_555
O41 V14 1.970086 1_555
O41 V9 2.050518 1_455
O41 V3 2.381027 1_465
O42 V17 1.970097 1_555
O42 V18 1.977778 1_555
O42 V12 2.083231 1_555
O42 V15 2.343182 1_545
O43 V3 1.974005 1_455
O43 V10 2.016086 1_555
O43 V17 2.023275 1_555
O43 V16 2.342943 1_545
O44 V8 1.919449 1_455
O44 V15 1.973493 1_555
O44 V19 2.020685 1_555
O45 V17 1.704589 1_555
O46 V18 1.736402 1_555
O47 V19 1.770162 1_555
O48 V8 1.693607 1_455
O49 V0 1.922414 1_454
O49 V18 1.957082 1_555
O49 V19 2.005939 1_545
