# generated using pymatgen
data_Li9Sb3S
_symmetry_space_group_name_H-M   'P 1'
_cell_length_a   9.44982400
_cell_length_b   7.76583100
_cell_length_c   14.59611478
_cell_angle_alpha   72.50475120
_cell_angle_beta   90.00000000
_cell_angle_gamma   90.00000000
_symmetry_Int_Tables_number   1
_chemical_formula_structural   Li9Sb3S
_chemical_formula_sum   'Li36 Sb12 S4'
_cell_volume   1021.59740259
_cell_formula_units_Z   4
loop_
 _symmetry_equiv_pos_site_id
 _symmetry_equiv_pos_as_xyz
  1  'x, y, z'
loop_
 _atom_site_type_symbol
 _atom_site_label
 _atom_site_symmetry_multiplicity
 _atom_site_fract_x
 _atom_site_fract_y
 _atom_site_fract_z
 _atom_site_occupancy
  Li  Li0  1  0.18568600  0.95559700  0.88067800  1
  Li  Li1  1  0.75180400  0.90221900  0.95147900  1
  Li  Li2  1  0.44276300  0.72874600  0.95964100  1
  Li  Li3  1  0.31431400  0.95559700  0.38067800  1
  Li  Li4  1  0.44113100  0.86740200  0.75923300  1
  Li  Li5  1  0.74819600  0.90221900  0.45147900  1
  Li  Li6  1  0.05723700  0.72874600  0.45964100  1
  Li  Li7  1  0.21108300  0.69569800  0.66836800  1
  Li  Li8  1  0.98591500  0.70131700  0.81445300  1
  Li  Li9  1  0.05886900  0.86740200  0.25923300  1
  Li  Li10  1  0.69079700  0.64468500  0.66057200  1
  Li  Li11  1  0.28891700  0.69569800  0.16836800  1
  Li  Li12  1  0.83885300  0.45812400  0.00122600  1
  Li  Li13  1  0.51408500  0.70131700  0.31445300  1
  Li  Li14  1  0.44744600  0.48763500  0.84890700  1
  Li  Li15  1  0.94744600  0.51236500  0.65109300  1
  Li  Li16  1  0.33885300  0.54187600  0.49877400  1
  Li  Li17  1  0.80920300  0.64468500  0.16057200  1
  Li  Li18  1  0.19079700  0.35531500  0.83942800  1
  Li  Li19  1  0.66114700  0.45812400  0.50122600  1
  Li  Li20  1  0.05255400  0.48763500  0.34890700  1
  Li  Li21  1  0.55255400  0.51236500  0.15109300  1
  Li  Li22  1  0.48591500  0.29868300  0.68554700  1
  Li  Li23  1  0.16114700  0.54187600  0.99877400  1
  Li  Li24  1  0.71108300  0.30430200  0.83163200  1
  Li  Li25  1  0.30920300  0.35531500  0.33942800  1
  Li  Li26  1  0.94113100  0.13259800  0.74076700  1
  Li  Li27  1  0.01408500  0.29868300  0.18554700  1
  Li  Li28  1  0.78891700  0.30430200  0.33163200  1
  Li  Li29  1  0.94276300  0.27125400  0.54035900  1
  Li  Li30  1  0.25180400  0.09778100  0.54852100  1
  Li  Li31  1  0.55886900  0.13259800  0.24076700  1
  Li  Li32  1  0.68568600  0.04440300  0.61932200  1
  Li  Li33  1  0.55723700  0.27125400  0.04035900  1
  Li  Li34  1  0.24819600  0.09778100  0.04852100  1
  Li  Li35  1  0.81431400  0.04440300  0.11932200  1
  Sb  Sb0  1  0.45971100  0.81945500  0.56444700  1
  Sb  Sb1  1  0.94656200  0.88965400  0.60309300  1
  Sb  Sb2  1  0.69653400  0.66653700  0.84560300  1
  Sb  Sb3  1  0.04028900  0.81945500  0.06444700  1
  Sb  Sb4  1  0.55343800  0.88965400  0.10309300  1
  Sb  Sb5  1  0.80346600  0.66653700  0.34560300  1
  Sb  Sb6  1  0.19653400  0.33346300  0.65439700  1
  Sb  Sb7  1  0.44656200  0.11034600  0.89690700  1
  Sb  Sb8  1  0.95971100  0.18054500  0.93555300  1
  Sb  Sb9  1  0.30346600  0.33346300  0.15439700  1
  Sb  Sb10  1  0.05343800  0.11034600  0.39690700  1
  Sb  Sb11  1  0.54028900  0.18054500  0.43555300  1
  S  S0  1  0.24176600  0.67334100  0.83999900  1
  S  S1  1  0.25823400  0.67334100  0.33999900  1
  S  S2  1  0.74176600  0.32665900  0.66000100  1
  S  S3  1  0.75823400  0.32665900  0.16000100  1
loop_
_geom_bond_atom_site_label_1
_geom_bond_atom_site_label_2
_geom_bond_distance
_geom_bond_site_symmetry_2
Li0 S0 2.494106 1_555
Li0 Sb7 2.783677 1_565
Li0 Sb3 2.914673 1_556
Li0 Sb8 3.015716 1_465
Li1 Sb2 2.776954 1_555
Li1 Sb8 2.878145 1_565
Li1 Sb4 2.879373 1_556
Li1 Sb3 3.150642 1_656
Li1 Sb7 3.285271 1_565
Li2 S0 2.700770 1_555
Li2 Sb7 2.826695 1_565
Li2 Sb4 2.934722 1_556
Li2 Sb2 3.039460 1_555
Li3 S1 2.494106 1_555
Li3 Sb10 2.783677 1_565
Li3 Sb0 2.914673 1_555
Li3 Sb11 3.015716 1_565
Li4 S0 2.478315 1_555
Li4 Sb2 2.943672 1_555
Li4 Sb0 2.981493 1_555
Li4 Sb7 3.143206 1_565
Li5 Sb5 2.776954 1_555
Li5 Sb11 2.878145 1_565
Li5 Sb1 2.879373 1_555
Li5 Sb0 3.150642 1_555
Li5 Sb10 3.285271 1_665
Li6 S1 2.700770 1_555
Li6 Sb10 2.826695 1_565
Li6 Sb1 2.934722 1_455
Li6 Sb5 3.039460 1_455
Li7 S0 2.475572 1_555
Li7 Sb0 2.805010 1_555
Li7 Sb6 2.884211 1_555
Li7 Sb1 2.926093 1_455
Li8 S0 2.446023 1_655
Li8 Sb2 2.771980 1_555
Li8 Sb1 3.013630 1_555
Li9 S1 2.478315 1_555
Li9 Sb5 2.943672 1_455
Li9 Sb3 2.981493 1_555
Li9 Sb10 3.143206 1_565
Li10 S2 2.518735 1_555
Li10 Sb0 2.726597 1_555
Li10 Sb2 2.757038 1_555
Li10 Sb1 3.033957 1_555
Li11 S1 2.475572 1_555
Li11 Sb3 2.805010 1_555
Li11 Sb9 2.884211 1_555
Li11 Sb4 2.926093 1_555
Li12 S3 2.360281 1_555
Li12 Sb2 2.716153 1_554
Li12 Sb8 2.848219 1_554
Li13 S1 2.446023 1_555
Li13 Sb5 2.771980 1_555
Li13 Sb4 3.013630 1_555
Li14 S0 2.400360 1_555
Li14 Sb2 2.726318 1_555
Li14 Sb7 2.800245 1_555
Li15 S2 2.400360 1_555
Li15 Sb6 2.726318 1_655
Li15 Sb1 2.800245 1_555
Li16 S1 2.360281 1_555
Li16 Sb6 2.716153 1_555
Li16 Sb0 2.848219 1_555
Li17 S3 2.518735 1_555
Li17 Sb3 2.726597 1_655
Li17 Sb5 2.757038 1_555
Li17 Sb4 3.033957 1_555
Li18 S0 2.518735 1_555
Li18 Sb8 2.726597 1_455
Li18 Sb6 2.757038 1_555
Li18 Sb7 3.033957 1_555
Li19 S2 2.360281 1_555
Li19 Sb5 2.716153 1_555
Li19 Sb11 2.848219 1_555
Li20 S1 2.400360 1_555
Li20 Sb5 2.726318 1_455
Li20 Sb10 2.800245 1_555
Li21 S3 2.400360 1_555
Li21 Sb9 2.726318 1_555
Li21 Sb4 2.800245 1_555
Li22 S2 2.446023 1_555
Li22 Sb6 2.771980 1_555
Li22 Sb7 3.013630 1_555
Li23 S0 2.360281 1_555
Li23 Sb9 2.716153 1_556
Li23 Sb3 2.848219 1_556
Li24 S2 2.475572 1_555
Li24 Sb8 2.805010 1_555
Li24 Sb2 2.884211 1_555
Li24 Sb7 2.926093 1_555
Li25 S1 2.518735 1_555
Li25 Sb11 2.726597 1_555
Li25 Sb9 2.757038 1_555
Li25 Sb10 3.033957 1_555
Li26 S2 2.478315 1_555
Li26 Sb6 2.943672 1_655
Li26 Sb8 2.981493 1_555
Li26 Sb1 3.143206 1_545
Li27 S3 2.446023 1_455
Li27 Sb9 2.771980 1_555
Li27 Sb10 3.013630 1_555
Li28 S3 2.475572 1_555
Li28 Sb11 2.805010 1_555
Li28 Sb5 2.884211 1_555
Li28 Sb10 2.926093 1_655
Li29 S2 2.700770 1_555
Li29 Sb1 2.826695 1_545
Li29 Sb10 2.934722 1_655
Li29 Sb6 3.039460 1_655
Li30 Sb6 2.776954 1_555
Li30 Sb0 2.878145 1_545
Li30 Sb10 2.879373 1_555
Li30 Sb11 3.150642 1_555
Li30 Sb1 3.285271 1_445
Li31 S3 2.478315 1_555
Li31 Sb9 2.943672 1_555
Li31 Sb11 2.981493 1_555
Li31 Sb4 3.143206 1_545
Li32 S2 2.494106 1_555
Li32 Sb1 2.783677 1_545
Li32 Sb11 2.914673 1_555
Li32 Sb0 3.015716 1_545
Li33 S3 2.700770 1_555
Li33 Sb4 2.826695 1_545
Li33 Sb7 2.934722 1_554
Li33 Sb9 3.039460 1_555
Li34 Sb9 2.776954 1_555
Li34 Sb3 2.878145 1_545
Li34 Sb7 2.879373 1_554
Li34 Sb8 3.150642 1_454
Li34 Sb4 3.285271 1_545
Li35 S3 2.494106 1_555
Li35 Sb4 2.783677 1_545
Li35 Sb8 2.914673 1_554
Li35 Sb3 3.015716 1_645
