# generated using pymatgen
data_LiTi3MnCr(PO4)6
_symmetry_space_group_name_H-M   'P 1'
_cell_length_a   8.62920587
_cell_length_b   8.62920587
_cell_length_c   8.62920614
_cell_angle_alpha   59.92284300
_cell_angle_beta   59.92284300
_cell_angle_gamma   59.92284077
_symmetry_Int_Tables_number   1
_chemical_formula_structural   LiTi3MnCr(PO4)6
_chemical_formula_sum   'Li1 Ti3 Mn1 Cr1 P6 O24'
_cell_volume   453.56207650
_cell_formula_units_Z   1
loop_
 _symmetry_equiv_pos_site_id
 _symmetry_equiv_pos_as_xyz
  1  'x, y, z'
loop_
 _atom_site_type_symbol
 _atom_site_label
 _atom_site_symmetry_multiplicity
 _atom_site_fract_x
 _atom_site_fract_y
 _atom_site_fract_z
 _atom_site_occupancy
  Li  Li0  1  0.99976000  0.99976000  0.99976000  1
  Ti  Ti0  1  0.14072000  0.14072000  0.14072000  1
  Ti  Ti1  1  0.35512800  0.35512800  0.35512800  1
  Ti  Ti2  1  0.85814500  0.85814500  0.85814500  1
  Mn  Mn0  1  0.50064300  0.50064300  0.50064300  1
  Cr  Cr0  1  0.64306300  0.64306300  0.64306300  1
  P  P0  1  0.75016300  0.03956100  0.46000600  1
  P  P1  1  0.95728500  0.54153300  0.24922700  1
  P  P2  1  0.54153300  0.24922700  0.95728500  1
  P  P3  1  0.46000600  0.75016300  0.03956100  1
  P  P4  1  0.03956100  0.46000600  0.75016300  1
  P  P5  1  0.24922700  0.95728500  0.54153300  1
  O  O0  1  0.91563700  0.06176800  0.26847100  1
  O  O1  1  0.80624600  0.99987000  0.62453100  1
  O  O2  1  0.73218300  0.08446500  0.94343600  1
  O  O3  1  0.88276700  0.49355700  0.69316100  1
  O  O4  1  0.58474300  0.23542900  0.44354000  1
  O  O5  1  0.76539100  0.55490200  0.41462400  1
  O  O6  1  0.94343600  0.73218300  0.08446500  1
  O  O7  1  0.19283400  0.00175700  0.37687900  1
  O  O8  1  0.49869000  0.30800600  0.12187900  1
  O  O9  1  0.37687900  0.19283400  0.00175700  1
  O  O10  1  0.30800600  0.12187900  0.49869000  1
  O  O11  1  0.55490200  0.41462400  0.76539000  1
  O  O12  1  0.44354000  0.58474300  0.23542900  1
  O  O13  1  0.69316100  0.88276700  0.49355700  1
  O  O14  1  0.62453100  0.80624600  0.99987000  1
  O  O15  1  0.49355700  0.69316100  0.88276700  1
  O  O16  1  0.06176800  0.26847100  0.91563700  1
  O  O17  1  0.23542900  0.44354000  0.58474300  1
  O  O18  1  0.41462400  0.76539000  0.55490200  1
  O  O19  1  0.12187900  0.49869000  0.30800600  1
  O  O20  1  0.00175700  0.37687900  0.19283400  1
  O  O21  1  0.99987000  0.62453100  0.80624600  1
  O  O22  1  0.26847100  0.91563700  0.06176800  1
  O  O23  1  0.08446500  0.94343600  0.73218300  1
loop_
_geom_bond_atom_site_label_1
_geom_bond_atom_site_label_2
_geom_bond_distance
_geom_bond_site_symmetry_2
Li0 O2 2.275738 1_565
Li0 O6 2.275738 1_556
Li0 O23 2.275738 1_655
Li0 O22 2.314533 1_656
Li0 O16 2.314533 1_665
Li0 O0 2.314533 1_566
Mn0 O18 2.239077 1_555
Mn0 O11 2.239077 1_555
Mn0 O5 2.239086 1_555
Mn0 O4 2.261474 1_555
Mn0 O17 2.261474 1_555
Mn0 O12 2.261474 1_555
Cr0 O3 1.947380 1_555
Cr0 O13 1.947381 1_555
Cr0 O15 1.947381 1_555
Cr0 O5 2.047285 1_555
Cr0 O18 2.047287 1_555
Cr0 O11 2.047287 1_555
O0 P0 1.548754 1_555
O0 Ti0 1.969595 1_655
O1 P0 1.549925 1_565
O1 Ti2 1.909160 1_555
O2 P2 1.539806 1_555
O2 Ti2 2.012051 1_545
O3 P4 1.512645 1_655
O4 P0 1.568063 1_555
O4 Ti1 2.061267 1_555
O5 P1 1.548226 1_555
O6 P1 1.539806 1_555
O6 Ti2 2.012051 1_554
O7 P5 1.536932 1_545
O7 Ti0 1.929180 1_555
O8 P2 1.555332 1_554
O8 Ti1 1.888751 1_555
O9 P2 1.536932 1_554
O9 Ti0 1.929180 1_555
O10 P5 1.555332 1_545
O10 Ti1 1.888751 1_555
O11 P2 1.548231 1_555
O12 P3 1.568063 1_555
O12 Ti1 2.061267 1_555
O13 P0 1.512645 1_565
O14 P3 1.549925 1_556
O14 Ti2 1.909160 1_555
O15 P3 1.512645 1_556
O16 P4 1.548754 1_555
O16 Ti0 1.969595 1_556
O17 P4 1.568063 1_555
O17 Ti1 2.061267 1_555
O18 P5 1.548231 1_555
O19 P1 1.555332 1_455
O19 Ti1 1.888750 1_555
O20 P1 1.536932 1_455
O20 Ti0 1.929180 1_555
O21 P4 1.549925 1_655
O21 Ti2 1.909160 1_555
O22 P3 1.548754 1_555
O22 Ti0 1.969595 1_565
O23 P5 1.539806 1_555
O23 Ti2 2.012051 1_455
