# generated using pymatgen
data_Li4V2(SiO4)3
_symmetry_space_group_name_H-M   'P 1'
_cell_length_a   8.46864802
_cell_length_b   8.46864802
_cell_length_c   8.46864863
_cell_angle_alpha   63.62632172
_cell_angle_beta   63.62632172
_cell_angle_gamma   63.62631709
_symmetry_Int_Tables_number   1
_chemical_formula_structural   Li4V2(SiO4)3
_chemical_formula_sum   'Li8 V4 Si6 O24'
_cell_volume   463.86837849
_cell_formula_units_Z   2
loop_
 _symmetry_equiv_pos_site_id
 _symmetry_equiv_pos_as_xyz
  1  'x, y, z'
loop_
 _atom_site_type_symbol
 _atom_site_label
 _atom_site_symmetry_multiplicity
 _atom_site_fract_x
 _atom_site_fract_y
 _atom_site_fract_z
 _atom_site_occupancy
  Li  Li0  1  0.33590000  0.75000000  0.16410000  1
  Li  Li1  1  0.83590000  0.66410000  0.25000000  1
  Li  Li2  1  0.50000000  0.50000000  0.50000000  1
  Li  Li3  1  0.75000000  0.16410000  0.33590000  1
  Li  Li4  1  0.25000000  0.83590000  0.66410000  1
  Li  Li5  1  0.16410000  0.33590000  0.75000000  1
  Li  Li6  1  0.00000000  0.00000000  0.00000000  1
  Li  Li7  1  0.66410000  0.25000000  0.83590000  1
  V  V0  1  0.13926800  0.13926800  0.13926800  1
  V  V1  1  0.63926800  0.63926800  0.63926800  1
  V  V2  1  0.36073200  0.36073200  0.36073200  1
  V  V3  1  0.86073200  0.86073200  0.86073200  1
  Si  Si0  1  0.03992200  0.75000000  0.46007800  1
  Si  Si1  1  0.75000000  0.46007800  0.03992200  1
  Si  Si2  1  0.53992200  0.96007800  0.25000000  1
  Si  Si3  1  0.46007800  0.03992200  0.75000000  1
  Si  Si4  1  0.25000000  0.53992200  0.96007800  1
  Si  Si5  1  0.96007800  0.25000000  0.53992200  1
  O  O0  1  0.81030600  0.63241600  0.00936800  1
  O  O1  1  0.31030600  0.50936800  0.13241600  1
  O  O2  1  0.24303400  0.58831200  0.44077600  1
  O  O3  1  0.05922400  0.91168800  0.25696600  1
  O  O4  1  0.00936800  0.81030600  0.63241600  1
  O  O5  1  0.86758400  0.68969400  0.49063200  1
  O  O6  1  0.91168800  0.25696600  0.05922400  1
  O  O7  1  0.74303400  0.94077600  0.08831200  1
  O  O8  1  0.55922400  0.75696600  0.41168800  1
  O  O9  1  0.50936800  0.13241600  0.31030600  1
  O  O10  1  0.36758400  0.99063200  0.18969400  1
  O  O11  1  0.58831200  0.44077600  0.24303400  1
  O  O12  1  0.41168800  0.55922400  0.75696600  1
  O  O13  1  0.63241600  0.00936800  0.81030600  1
  O  O14  1  0.49063200  0.86758400  0.68969400  1
  O  O15  1  0.44077600  0.24303400  0.58831200  1
  O  O16  1  0.25696600  0.05922400  0.91168800  1
  O  O17  1  0.08831200  0.74303400  0.94077600  1
  O  O18  1  0.13241600  0.31030600  0.50936800  1
  O  O19  1  0.99063200  0.18969400  0.36758400  1
  O  O20  1  0.94077600  0.08831200  0.74303400  1
  O  O21  1  0.75696600  0.41168800  0.55922400  1
  O  O22  1  0.68969400  0.49063200  0.86758400  1
  O  O23  1  0.18969400  0.36758400  0.99063200  1
loop_
_geom_bond_atom_site_label_1
_geom_bond_atom_site_label_2
_geom_bond_distance
_geom_bond_site_symmetry_2
Li0 O3 2.110114 1_555
Li0 O2 2.110115 1_555
Li0 O1 2.280702 1_555
Li0 O10 2.280702 1_555
Li0 O11 2.571915 1_555
Li0 O16 2.571916 1_564
Li1 O7 2.110114 1_555
Li1 O8 2.110114 1_555
Li1 O5 2.280702 1_555
Li1 O0 2.280702 1_555
Li1 O21 2.571916 1_555
Li1 O17 2.571916 1_654
Li2 O2 2.176467 1_555
Li2 O21 2.176467 1_555
Li2 O8 2.176467 1_555
Li2 O15 2.176467 1_555
Li2 O12 2.176467 1_555
Li2 O11 2.176467 1_555
Li3 O11 2.110114 1_555
Li3 O6 2.110115 1_555
Li3 O19 2.280702 1_555
Li3 O9 2.280702 1_555
Li3 O3 2.571915 1_645
Li3 O15 2.571916 1_555
Li4 O12 2.110114 1_555
Li4 O17 2.110115 1_555
Li4 O4 2.280702 1_555
Li4 O14 2.280702 1_555
Li4 O20 2.571915 1_465
Li4 O8 2.571916 1_555
Li5 O15 2.110114 1_555
Li5 O16 2.110114 1_555
Li5 O18 2.280702 1_555
Li5 O23 2.280702 1_555
Li5 O6 2.571916 1_456
Li5 O2 2.571916 1_555
Li6 O6 2.176467 1_455
Li6 O17 2.176467 1_544
Li6 O16 2.176467 1_554
Li6 O7 2.176467 1_445
Li6 O3 2.176467 1_545
Li6 O20 2.176467 1_454
Li7 O20 2.110114 1_555
Li7 O21 2.110115 1_555
Li7 O22 2.280702 1_555
Li7 O13 2.280702 1_555
Li7 O12 2.571915 1_555
Li7 O7 2.571916 1_546
O0 Si1 1.633135 1_555
O0 V3 1.897110 1_554
O1 Si4 1.633135 1_554
O1 V2 1.897110 1_555
O2 Si0 1.648287 1_555
O2 V2 2.005283 1_555
O3 Si0 1.648287 1_555
O3 V0 2.005283 1_565
O4 Si0 1.633135 1_555
O4 V3 1.897110 1_455
O5 Si0 1.633135 1_655
O5 V1 1.897110 1_555
O6 Si1 1.648287 1_555
O6 V0 2.005283 1_655
O7 Si2 1.648287 1_555
O7 V3 2.005284 1_554
O8 Si2 1.648287 1_555
O8 V1 2.005284 1_555
O9 Si2 1.633135 1_545
O9 V2 1.897110 1_555
O10 Si2 1.633135 1_555
O10 V0 1.897110 1_565
O11 Si1 1.648287 1_555
O11 V2 2.005283 1_555
O12 Si4 1.648287 1_555
O12 V1 2.005283 1_555
O13 Si3 1.633135 1_555
O13 V3 1.897110 1_545
O14 Si3 1.633135 1_565
O14 V1 1.897110 1_555
O15 Si3 1.648287 1_555
O15 V2 2.005284 1_555
O16 Si3 1.648287 1_555
O16 V0 2.005284 1_556
O17 Si4 1.648287 1_555
O17 V3 2.005283 1_455
O18 Si5 1.633135 1_455
O18 V2 1.897110 1_555
O19 Si5 1.633135 1_555
O19 V0 1.897110 1_655
O20 Si5 1.648287 1_555
O20 V3 2.005283 1_545
O21 Si5 1.648287 1_555
O21 V1 2.005283 1_555
O22 Si1 1.633135 1_556
O22 V1 1.897110 1_555
O23 Si4 1.633135 1_555
O23 V0 1.897110 1_556
