# generated using pymatgen
data_Li5Cr2Ni3O10
_symmetry_space_group_name_H-M   'P 1'
_cell_length_a   5.06216000
_cell_length_b   5.09780579
_cell_length_c   7.66500229
_cell_angle_alpha   71.48949748
_cell_angle_beta   71.63381253
_cell_angle_gamma   80.39506061
_symmetry_Int_Tables_number   1
_chemical_formula_structural   Li5Cr2Ni3O10
_chemical_formula_sum   'Li5 Cr2 Ni3 O10'
_cell_volume   177.52341931
_cell_formula_units_Z   1
loop_
 _symmetry_equiv_pos_site_id
 _symmetry_equiv_pos_as_xyz
  1  'x, y, z'
loop_
 _atom_site_type_symbol
 _atom_site_label
 _atom_site_symmetry_multiplicity
 _atom_site_fract_x
 _atom_site_fract_y
 _atom_site_fract_z
 _atom_site_occupancy
  Li  Li0  1  0.50491400  0.78841500  0.40218700  1
  Li  Li1  1  0.50355700  0.59517600  0.79722100  1
  Li  Li2  1  0.00000000  0.50000000  0.50000000  1
  Li  Li3  1  0.49644300  0.40482400  0.20277900  1
  Li  Li4  1  0.49508600  0.21158500  0.59781300  1
  Cr  Cr0  1  0.00639400  0.89024100  0.69581800  1
  Cr  Cr1  1  0.99360600  0.10975900  0.30418200  1
  Ni  Ni0  1  0.50000000  0.00000000  0.00000000  1
  Ni  Ni1  1  0.99867100  0.30136400  0.89902200  1
  Ni  Ni2  1  0.00132900  0.69863600  0.10097800  1
  O  O0  1  0.23334600  0.94819100  0.84544800  1
  O  O1  1  0.76429400  0.66328100  0.94136400  1
  O  O2  1  0.77344300  0.87042800  0.54972500  1
  O  O3  1  0.23122800  0.77549800  0.24529700  1
  O  O4  1  0.22960500  0.56895600  0.65915600  1
  O  O5  1  0.77039500  0.43104400  0.34084400  1
  O  O6  1  0.76877200  0.22450200  0.75470300  1
  O  O7  1  0.22655700  0.12957200  0.45027500  1
  O  O8  1  0.23570600  0.33671900  0.05863600  1
  O  O9  1  0.76665400  0.05180900  0.15455200  1
loop_
_geom_bond_atom_site_label_1
_geom_bond_atom_site_label_2
_geom_bond_distance
_geom_bond_site_symmetry_2
Li0 O7 2.099519 1_565
Li0 O4 2.112997 1_555
Li0 O3 2.121460 1_555
Li0 O9 2.133511 1_565
Li0 O5 2.162134 1_555
Li0 O2 2.181761 1_555
Li1 O4 2.034085 1_555
Li1 O1 2.097339 1_555
Li1 O0 2.128036 1_555
Li1 O6 2.179005 1_555
Li1 O2 2.179567 1_555
Li1 O8 2.190243 1_556
Li2 O4 2.065167 1_555
Li2 O5 2.065167 1_455
Li2 O2 2.117863 1_455
Li2 O7 2.117863 1_555
Li2 O6 2.126392 1_455
Li2 O3 2.126392 1_555
Li3 O5 2.034085 1_555
Li3 O8 2.097339 1_555
Li3 O9 2.128036 1_555
Li3 O3 2.179005 1_555
Li3 O7 2.179567 1_555
Li3 O1 2.190243 1_554
Li4 O2 2.099519 1_545
Li4 O5 2.112997 1_555
Li4 O6 2.121460 1_555
Li4 O0 2.133511 1_545
Li4 O4 2.162134 1_555
Li4 O7 2.181761 1_555
Cr0 O4 1.874254 1_555
Cr0 O2 1.896965 1_455
Cr0 O0 1.970109 1_555
Cr0 O7 1.986655 1_565
Cr0 O6 2.004110 1_465
Cr0 O1 2.004963 1_455
Cr1 O5 1.874254 1_555
Cr1 O7 1.896965 1_655
Cr1 O9 1.970109 1_555
Cr1 O2 1.986655 1_545
Cr1 O3 2.004110 1_645
Cr1 O8 2.004963 1_655
Ni0 O3 2.058477 1_545
Ni0 O6 2.058477 1_554
Ni0 O8 2.069540 1_555
Ni0 O1 2.069540 1_544
Ni0 O9 2.149547 1_555
Ni0 O0 2.149547 1_544
Ni1 O6 1.992558 1_555
Ni1 O8 2.026418 1_656
Ni1 O4 2.047686 1_655
Ni1 O0 2.066309 1_645
Ni1 O9 2.073877 1_556
Ni1 O1 2.079431 1_555
Ni2 O3 1.992558 1_555
Ni2 O1 2.026418 1_454
Ni2 O5 2.047686 1_455
Ni2 O9 2.066309 1_465
Ni2 O0 2.073877 1_554
Ni2 O8 2.079431 1_555
