# generated using pymatgen
data_Sr3CrN4
_symmetry_space_group_name_H-M   'P 1'
_cell_length_a   9.57395428
_cell_length_b   10.18786695
_cell_length_c   11.25507819
_cell_angle_alpha   90.00000000
_cell_angle_beta   90.00000000
_cell_angle_gamma   90.00000000
_symmetry_Int_Tables_number   1
_chemical_formula_structural   Sr3CrN4
_chemical_formula_sum   'Sr24 Cr8 N32'
_cell_volume   1097.79975676
_cell_formula_units_Z   8
loop_
 _symmetry_equiv_pos_site_id
 _symmetry_equiv_pos_as_xyz
  1  'x, y, z'
loop_
 _atom_site_type_symbol
 _atom_site_label
 _atom_site_symmetry_multiplicity
 _atom_site_fract_x
 _atom_site_fract_y
 _atom_site_fract_z
 _atom_site_occupancy
  Sr  Sr0  1  0.52922151  0.37202987  0.39350281  1
  Sr  Sr1  1  0.19781440  0.71906575  0.38650276  1
  Sr  Sr2  1  0.80218560  0.78093425  0.88650276  1
  Sr  Sr3  1  0.30218560  0.21906575  0.61349724  1
  Sr  Sr4  1  0.30218560  0.71906575  0.88650276  1
  Sr  Sr5  1  0.80218560  0.28093425  0.61349724  1
  Sr  Sr6  1  0.19781440  0.21906575  0.11349724  1
  Sr  Sr7  1  0.69781440  0.78093425  0.38650276  1
  Sr  Sr8  1  0.69781440  0.28093425  0.11349724  1
  Sr  Sr9  1  0.02922151  0.62797013  0.10649719  1
  Sr  Sr10  1  0.97077849  0.87202987  0.60649719  1
  Sr  Sr11  1  0.47077849  0.12797013  0.89350281  1
  Sr  Sr12  1  0.47077849  0.62797013  0.60649719  1
  Sr  Sr13  1  0.97077849  0.37202987  0.89350281  1
  Sr  Sr14  1  0.02922151  0.12797013  0.39350281  1
  Sr  Sr15  1  0.52922151  0.87202987  0.10649719  1
  Sr  Sr16  1  0.87270767  0.47276488  0.35571588  1
  Sr  Sr17  1  0.37270767  0.52723512  0.14428412  1
  Sr  Sr18  1  0.62729233  0.97276488  0.64428412  1
  Sr  Sr19  1  0.12729233  0.02723512  0.85571588  1
  Sr  Sr20  1  0.12729233  0.52723512  0.64428412  1
  Sr  Sr21  1  0.62729233  0.47276488  0.85571588  1
  Sr  Sr22  1  0.37270767  0.02723512  0.35571588  1
  Sr  Sr23  1  0.87270767  0.97276488  0.14428412  1
  Cr  Cr0  1  0.69592377  0.09814955  0.38842501  1
  Cr  Cr1  1  0.19592377  0.90185045  0.11157499  1
  Cr  Cr2  1  0.80407623  0.59814955  0.61157499  1
  Cr  Cr3  1  0.30407623  0.40185045  0.88842501  1
  Cr  Cr4  1  0.30407623  0.90185045  0.61157499  1
  Cr  Cr5  1  0.80407623  0.09814955  0.88842501  1
  Cr  Cr6  1  0.19592377  0.40185045  0.38842501  1
  Cr  Cr7  1  0.69592377  0.59814955  0.11157499  1
  N  N0  1  0.78597900  0.23051974  0.32673590  1
  N  N1  1  0.28597900  0.76948026  0.17326410  1
  N  N2  1  0.71402100  0.73051974  0.67326410  1
  N  N3  1  0.21402100  0.26948026  0.82673590  1
  N  N4  1  0.21402100  0.76948026  0.67326410  1
  N  N5  1  0.71402100  0.23051974  0.82673590  1
  N  N6  1  0.28597900  0.26948026  0.32673590  1
  N  N7  1  0.78597900  0.73051974  0.17326410  1
  N  N8  1  0.81177139  0.49780569  0.03308628  1
  N  N9  1  0.31177139  0.50219431  0.46691372  1
  N  N10  1  0.68822861  0.99780569  0.96691372  1
  N  N11  1  0.18822861  0.00219431  0.53308628  1
  N  N12  1  0.18822861  0.50219431  0.96691372  1
  N  N13  1  0.68822861  0.49780569  0.53308628  1
  N  N14  1  0.31177139  0.00219431  0.03308628  1
  N  N15  1  0.62100247  0.00187926  0.27947558  1
  N  N16  1  0.56930283  0.15361232  0.48886940  1
  N  N17  1  0.06930283  0.84638768  0.01113060  1
  N  N18  1  0.93069717  0.65361232  0.51113060  1
  N  N19  1  0.43069717  0.34638768  0.98886940  1
  N  N20  1  0.43069717  0.84638768  0.51113060  1
  N  N21  1  0.93069717  0.15361232  0.98886940  1
  N  N22  1  0.06930283  0.34638768  0.48886940  1
  N  N23  1  0.56930283  0.65361232  0.01113060  1
  N  N24  1  0.62100247  0.50187926  0.22052442  1
  N  N25  1  0.12100247  0.49812074  0.27947558  1
  N  N26  1  0.87899753  0.00187926  0.77947558  1
  N  N27  1  0.37899753  0.99812074  0.72052442  1
  N  N28  1  0.37899753  0.49812074  0.77947558  1
  N  N29  1  0.87899753  0.50187926  0.72052442  1
  N  N30  1  0.12100247  0.99812074  0.22052442  1
  N  N31  1  0.81177139  0.99780569  0.46691372  1
loop_
_geom_bond_atom_site_label_1
_geom_bond_atom_site_label_2
_geom_bond_distance
_geom_bond_site_symmetry_2
Cr0 N15 1.726299 1_555
Cr0 N0 1.744728 1_555
Cr0 N31 1.748031 1_545
Cr0 N16 1.751260 1_555
Cr1 N30 1.726299 1_555
Cr1 N1 1.744728 1_555
Cr1 N14 1.748031 1_565
Cr1 N17 1.751260 1_555
Cr2 N29 1.726299 1_555
Cr2 N2 1.744728 1_555
Cr2 N13 1.748031 1_555
Cr2 N18 1.751260 1_555
Cr3 N28 1.726299 1_555
Cr3 N3 1.744728 1_555
Cr3 N12 1.748031 1_555
Cr3 N19 1.751260 1_555
Cr4 N27 1.726299 1_555
Cr4 N4 1.744728 1_555
Cr4 N11 1.748031 1_565
Cr4 N20 1.751260 1_555
Cr5 N26 1.726299 1_555
Cr5 N5 1.744728 1_555
Cr5 N10 1.748031 1_545
Cr5 N21 1.751260 1_555
Cr6 N25 1.726299 1_555
Cr6 N6 1.744728 1_555
Cr6 N9 1.748031 1_555
Cr6 N22 1.751260 1_555
Cr7 N24 1.726299 1_555
Cr7 N7 1.744728 1_555
Cr7 N8 1.748031 1_555
Cr7 N23 1.751260 1_555
N0 Sr8 2.595451 1_555
N0 Sr16 2.624248 1_555
N0 Sr14 2.660734 1_655
N0 Sr0 2.947174 1_555
N1 Sr1 2.595451 1_555
N1 Sr17 2.624248 1_555
N1 Sr15 2.660734 1_555
N1 Sr9 2.947174 1_555
N2 Sr2 2.595451 1_555
N2 Sr18 2.624248 1_555
N2 Sr12 2.660734 1_555
N2 Sr10 2.947174 1_555
N3 Sr3 2.595451 1_555
N3 Sr19 2.624248 1_555
N3 Sr13 2.660734 1_455
N3 Sr11 2.947174 1_555
N4 Sr4 2.595451 1_555
N4 Sr20 2.624248 1_555
N4 Sr10 2.660734 1_455
N4 Sr12 2.947174 1_555
N5 Sr5 2.595451 1_555
N5 Sr21 2.624248 1_555
N5 Sr11 2.660734 1_555
N5 Sr13 2.947174 1_555
N6 Sr6 2.595451 1_555
N6 Sr22 2.624248 1_555
N6 Sr0 2.660734 1_555
N6 Sr14 2.947174 1_555
N7 Sr7 2.595451 1_555
N7 Sr23 2.624248 1_555
N7 Sr9 2.660734 1_655
N7 Sr15 2.947174 1_555
N8 Sr13 2.535260 1_554
N8 Sr9 2.602950 1_655
N8 Sr8 2.625092 1_555
N8 Sr21 2.677650 1_554
N9 Sr12 2.535260 1_555
N9 Sr0 2.602950 1_555
N9 Sr1 2.625092 1_555
N9 Sr20 2.677650 1_555
N10 Sr15 2.535260 1_556
N10 Sr11 2.602950 1_565
N10 Sr2 2.625092 1_555
N10 Sr23 2.677650 1_556
N11 Sr14 2.535260 1_555
N11 Sr10 2.602950 1_445
N11 Sr3 2.625092 1_555
N11 Sr22 2.677650 1_555
N12 Sr9 2.535260 1_556
N12 Sr13 2.602950 1_455
N12 Sr4 2.625092 1_555
N12 Sr17 2.677650 1_556
N13 Sr0 2.535260 1_555
N13 Sr12 2.602950 1_555
N13 Sr5 2.625092 1_555
N13 Sr16 2.677650 1_555
N14 Sr11 2.535260 1_554
N14 Sr15 2.602950 1_545
N14 Sr6 2.625092 1_555
N14 Sr19 2.677650 1_554
N15 Sr15 2.512473 1_545
N15 Sr22 2.540463 1_555
N15 Sr7 2.656817 1_545
N15 Sr23 2.865383 1_545
N16 Sr0 2.500181 1_555
N16 Sr18 2.600495 1_545
N16 Sr22 2.728792 1_555
N16 Sr5 2.936202 1_555
N16 Sr3 2.992048 1_555
N17 Sr9 2.500181 1_555
N17 Sr19 2.600495 1_564
N17 Sr23 2.728792 1_455
N17 Sr4 2.936202 1_554
N17 Sr2 2.992048 1_454
N18 Sr10 2.500181 1_555
N18 Sr16 2.600495 1_555
N18 Sr20 2.728792 1_655
N18 Sr7 2.936202 1_555
N18 Sr1 2.992048 1_655
N19 Sr11 2.500181 1_555
N19 Sr17 2.600495 1_556
N19 Sr21 2.728792 1_555
N19 Sr6 2.936202 1_556
N19 Sr8 2.992048 1_556
N20 Sr12 2.500181 1_555
N20 Sr22 2.600495 1_565
N20 Sr18 2.728792 1_555
N20 Sr1 2.936202 1_555
N20 Sr7 2.992048 1_555
N21 Sr13 2.500181 1_555
N21 Sr23 2.600495 1_546
N21 Sr19 2.728792 1_655
N21 Sr8 2.936202 1_556
N21 Sr6 2.992048 1_656
N22 Sr14 2.500181 1_555
N22 Sr20 2.600495 1_555
N22 Sr16 2.728792 1_455
N22 Sr3 2.936202 1_555
N22 Sr5 2.992048 1_455
N23 Sr15 2.500181 1_555
N23 Sr21 2.600495 1_554
N23 Sr17 2.728792 1_555
N23 Sr2 2.936202 1_554
N23 Sr4 2.992048 1_554
N24 Sr0 2.512473 1_555
N24 Sr17 2.540463 1_555
N24 Sr8 2.656817 1_555
N24 Sr16 2.865383 1_555
N25 Sr9 2.512473 1_555
N25 Sr16 2.540463 1_455
N25 Sr1 2.656817 1_555
N25 Sr17 2.865383 1_555
N26 Sr10 2.512473 1_545
N26 Sr19 2.540463 1_655
N26 Sr2 2.656817 1_545
N26 Sr18 2.865383 1_545
N27 Sr11 2.512473 1_565
N27 Sr18 2.540463 1_555
N27 Sr3 2.656817 1_565
N27 Sr19 2.865383 1_565
N28 Sr12 2.512473 1_555
N28 Sr21 2.540463 1_555
N28 Sr4 2.656817 1_555
N28 Sr20 2.865383 1_555
N29 Sr13 2.512473 1_555
N29 Sr20 2.540463 1_655
N29 Sr5 2.656817 1_555
N29 Sr21 2.865383 1_555
N30 Sr14 2.512473 1_565
N30 Sr23 2.540463 1_455
N30 Sr6 2.656817 1_565
N30 Sr22 2.865383 1_565
N31 Sr10 2.535260 1_555
N31 Sr14 2.602950 1_665
N31 Sr7 2.625092 1_555
N31 Sr18 2.677650 1_555
