# generated using pymatgen
data_Fe3OF5
_symmetry_space_group_name_H-M   'P 1'
_cell_length_a   3.17908000
_cell_length_b   4.83578800
_cell_length_c   14.45084100
_cell_angle_alpha   90.00000000
_cell_angle_beta   90.00000000
_cell_angle_gamma   90.00000000
_symmetry_Int_Tables_number   1
_chemical_formula_structural   Fe3OF5
_chemical_formula_sum   'Fe6 O2 F10'
_cell_volume   222.15793642
_cell_formula_units_Z   2
loop_
 _symmetry_equiv_pos_site_id
 _symmetry_equiv_pos_as_xyz
  1  'x, y, z'
loop_
 _atom_site_type_symbol
 _atom_site_label
 _atom_site_symmetry_multiplicity
 _atom_site_fract_x
 _atom_site_fract_y
 _atom_site_fract_z
 _atom_site_occupancy
  Fe  Fe0  1  0.50000000  0.76552700  0.00428100  1
  Fe  Fe1  1  0.50000000  0.73930900  0.33384800  1
  Fe  Fe2  1  0.50000000  0.78209600  0.65698100  1
  Fe  Fe3  1  0.00000000  0.21790400  0.15698100  1
  Fe  Fe4  1  0.00000000  0.23447300  0.50428100  1
  Fe  Fe5  1  0.00000000  0.26069100  0.83384800  1
  O  O0  1  0.00000000  0.94108500  0.60448000  1
  O  O1  1  0.50000000  0.05891500  0.10448000  1
  F  F0  1  0.00000000  0.95640800  0.26669600  1
  F  F1  1  0.00000000  0.95421100  0.92954000  1
  F  F2  1  0.50000000  0.04359200  0.76669600  1
  F  F3  1  0.50000000  0.04578900  0.42954000  1
  F  F4  1  0.50000000  0.43912400  0.23093900  1
  F  F5  1  0.50000000  0.45811700  0.57077600  1
  F  F6  1  0.50000000  0.46091000  0.90238500  1
  F  F7  1  0.00000000  0.54188300  0.07077600  1
  F  F8  1  0.00000000  0.53909000  0.40238500  1
  F  F9  1  0.00000000  0.56087600  0.73093900  1
loop_
_geom_bond_atom_site_label_1
_geom_bond_atom_site_label_2
_geom_bond_distance
_geom_bond_site_symmetry_2
Fe0 O1 2.027184 1_565
Fe2 O0 1.921809 1_655
Fe2 O0 1.921809 1_555
Fe3 O1 1.921809 1_555
Fe3 O1 1.921809 1_455
Fe4 O0 2.027184 1_545
F0 Fe3 2.028001 1_565
F0 Fe1 2.137871 1_455
F0 Fe1 2.137871 1_555
F1 Fe5 2.027007 1_565
F1 Fe0 2.127376 1_556
F1 Fe0 2.127376 1_456
F2 Fe2 2.028001 1_545
F2 Fe5 2.137871 1_655
F2 Fe5 2.137871 1_555
F3 Fe1 2.027007 1_545
F3 Fe4 2.127376 1_655
F3 Fe4 2.127376 1_555
F4 Fe1 2.078163 1_555
F4 Fe3 2.193921 1_655
F4 Fe3 2.193921 1_555
F5 Fe2 2.001595 1_555
F5 Fe4 2.149329 1_555
F5 Fe4 2.149329 1_655
F6 Fe0 2.082816 1_556
F6 Fe5 2.108319 1_555
F6 Fe5 2.108319 1_655
F7 Fe3 2.001595 1_555
F7 Fe0 2.149329 1_455
F7 Fe0 2.149329 1_555
F8 Fe4 2.082816 1_555
F8 Fe1 2.108319 1_555
F8 Fe1 2.108319 1_455
F9 Fe5 2.078163 1_555
F9 Fe2 2.193921 1_555
F9 Fe2 2.193921 1_455
