# generated using pymatgen
data_Na3(CoO2)4
_symmetry_space_group_name_H-M   'P 1'
_cell_length_a   2.84600617
_cell_length_b   9.71648758
_cell_length_c   10.70792661
_cell_angle_alpha   90.00000000
_cell_angle_beta   90.00000000
_cell_angle_gamma   90.00000000
_symmetry_Int_Tables_number   1
_chemical_formula_structural   Na3(CoO2)4
_chemical_formula_sum   'Na6 Co8 O16'
_cell_volume   296.10826056
_cell_formula_units_Z   2
loop_
 _symmetry_equiv_pos_site_id
 _symmetry_equiv_pos_as_xyz
  1  'x, y, z'
loop_
 _atom_site_type_symbol
 _atom_site_label
 _atom_site_symmetry_multiplicity
 _atom_site_fract_x
 _atom_site_fract_y
 _atom_site_fract_z
 _atom_site_occupancy
  Na  Na0  1  0.00000000  0.35566486  0.50000000  1
  Na  Na1  1  0.00000000  0.69605452  0.50000000  1
  Na  Na2  1  -0.00000000  0.00669504  0.00000000  1
  Na  Na3  1  0.50000000  0.64433514  0.00000000  1
  Na  Na4  1  0.50000000  0.99330496  0.50000000  1
  Na  Na5  1  0.50000000  0.30394548  0.00000000  1
  Co  Co0  1  0.00000000  0.87423068  0.74716678  1
  Co  Co1  1  -0.00000000  0.87423068  0.25283322  1
  Co  Co2  1  0.00000000  0.37622171  0.75499383  1
  Co  Co3  1  -0.00000000  0.37622171  0.24500617  1
  Co  Co4  1  0.50000000  0.62377829  0.74500617  1
  Co  Co5  1  0.50000000  0.62377829  0.25499383  1
  Co  Co6  1  0.50000000  0.12576932  0.24716678  1
  Co  Co7  1  0.50000000  0.12576932  0.75283322  1
  O  O0  1  0.00000000  0.70710794  0.83522386  1
  O  O1  1  -0.00000000  0.20664567  0.84819351  1
  O  O2  1  -0.00000000  0.70710794  0.16477614  1
  O  O3  1  -0.00000000  0.53755895  0.65715123  1
  O  O4  1  -0.00000000  0.20664567  0.15180649  1
  O  O5  1  0.00000000  0.04493337  0.66103467  1
  O  O6  1  -0.00000000  0.53755895  0.34284877  1
  O  O7  1  0.00000000  0.04493337  0.33896533  1
  O  O8  1  0.50000000  0.46244105  0.84284877  1
  O  O9  1  0.50000000  0.95506663  0.83896533  1
  O  O10  1  0.50000000  0.79335433  0.65180649  1
  O  O11  1  0.50000000  0.29289206  0.66477614  1
  O  O12  1  0.50000000  0.95506663  0.16103467  1
  O  O13  1  0.50000000  0.79335433  0.34819351  1
  O  O14  1  0.50000000  0.46244105  0.15715123  1
  O  O15  1  0.50000000  0.29289206  0.33522386  1
loop_
_geom_bond_atom_site_label_1
_geom_bond_atom_site_label_2
_geom_bond_distance
_geom_bond_site_symmetry_2
Na0 O11 2.347360 1_555
Na0 O11 2.347360 1_455
Na0 O15 2.347360 1_555
Na0 O15 2.347360 1_455
Na0 O6 2.440348 1_555
Na0 O3 2.440348 1_555
Na1 O3 2.281087 1_555
Na1 O6 2.281087 1_555
Na1 O13 2.358198 1_455
Na1 O10 2.358198 1_455
Na1 O13 2.358198 1_555
Na1 O10 2.358198 1_555
Na2 O12 2.291279 1_445
Na2 O9 2.291279 1_444
Na2 O9 2.291279 1_544
Na2 O12 2.291279 1_545
Na2 O1 2.533160 1_554
Na2 O4 2.533160 1_555
Na3 O0 2.347360 1_654
Na3 O0 2.347360 1_554
Na3 O2 2.347360 1_555
Na3 O2 2.347360 1_655
Na3 O14 2.440348 1_555
Na3 O8 2.440348 1_554
Na4 O7 2.291279 1_565
Na4 O7 2.291279 1_665
Na4 O5 2.291279 1_665
Na4 O5 2.291279 1_565
Na4 O10 2.533160 1_555
Na4 O13 2.533160 1_555
Na5 O8 2.281087 1_554
Na5 O14 2.281087 1_555
Na5 O4 2.358198 1_655
Na5 O4 2.358198 1_555
Na5 O1 2.358198 1_654
Na5 O1 2.358198 1_554
Co0 O0 1.877752 1_555
Co0 O5 1.897811 1_565
Co0 O9 1.899497 1_555
Co0 O9 1.899497 1_455
Co0 O10 1.919672 1_555
Co0 O10 1.919672 1_455
Co1 O2 1.877752 1_555
Co1 O7 1.897811 1_565
Co1 O12 1.899497 1_555
Co1 O12 1.899497 1_455
Co1 O13 1.919672 1_555
Co1 O13 1.919672 1_455
Co2 O3 1.885504 1_555
Co2 O8 1.900463 1_555
Co2 O8 1.900463 1_455
Co2 O11 1.900986 1_455
Co2 O11 1.900986 1_555
Co2 O1 1.926348 1_555
Co3 O6 1.885504 1_555
Co3 O14 1.900463 1_555
Co3 O14 1.900463 1_455
Co3 O15 1.900986 1_555
Co3 O15 1.900986 1_455
Co3 O4 1.926348 1_555
Co4 O8 1.885504 1_555
Co4 O3 1.900463 1_655
Co4 O3 1.900463 1_555
Co4 O0 1.900986 1_555
Co4 O0 1.900986 1_655
Co4 O10 1.926348 1_555
Co5 O14 1.885504 1_555
Co5 O6 1.900463 1_555
Co5 O6 1.900463 1_655
Co5 O2 1.900986 1_555
Co5 O2 1.900986 1_655
Co5 O13 1.926348 1_555
Co6 O15 1.877752 1_555
Co6 O12 1.897811 1_545
Co6 O7 1.899497 1_555
Co6 O7 1.899497 1_655
Co6 O4 1.919672 1_655
Co6 O4 1.919672 1_555
Co7 O11 1.877752 1_555
Co7 O9 1.897811 1_545
Co7 O5 1.899497 1_655
Co7 O5 1.899497 1_555
Co7 O1 1.919672 1_555
Co7 O1 1.919672 1_655
