# generated using pymatgen
data_Li2FeF5
_symmetry_space_group_name_H-M   'P 1'
_cell_length_a   5.32760039
_cell_length_b   5.32760039
_cell_length_c   10.08718000
_cell_angle_alpha   90.00000000
_cell_angle_beta   90.00000000
_cell_angle_gamma   137.25672545
_symmetry_Int_Tables_number   1
_chemical_formula_structural   Li2FeF5
_chemical_formula_sum   'Li4 Fe2 F10'
_cell_volume   194.32121197
_cell_formula_units_Z   2
loop_
 _symmetry_equiv_pos_site_id
 _symmetry_equiv_pos_as_xyz
  1  'x, y, z'
loop_
 _atom_site_type_symbol
 _atom_site_label
 _atom_site_symmetry_multiplicity
 _atom_site_fract_x
 _atom_site_fract_y
 _atom_site_fract_z
 _atom_site_occupancy
  Li  Li0  1  0.13359700  0.86640300  0.94320500  1
  Li  Li1  1  0.13359700  0.86640300  0.55679500  1
  Li  Li2  1  0.86640300  0.13359700  0.05679500  1
  Li  Li3  1  0.86640300  0.13359700  0.44320500  1
  Fe  Fe0  1  0.19155400  0.80844600  0.25000000  1
  Fe  Fe1  1  0.80844600  0.19155400  0.75000000  1
  F  F0  1  0.05097300  0.94902700  0.12021100  1
  F  F1  1  0.05097300  0.94902700  0.37978900  1
  F  F2  1  0.68844200  0.31155800  0.90752000  1
  F  F3  1  0.68844200  0.31155800  0.59248000  1
  F  F4  1  0.26382900  0.73617100  0.75000000  1
  F  F5  1  0.73617100  0.26382900  0.25000000  1
  F  F6  1  0.31155800  0.68844200  0.40752000  1
  F  F7  1  0.31155800  0.68844200  0.09248000  1
  F  F8  1  0.94902700  0.05097300  0.62021100  1
  F  F9  1  0.94902700  0.05097300  0.87978900  1
loop_
_geom_bond_atom_site_label_1
_geom_bond_atom_site_label_2
_geom_bond_distance
_geom_bond_site_symmetry_2
F0 Fe0 1.913063 1_555
F0 Li2 1.939902 1_465
F0 Li0 1.964717 1_554
F1 Fe0 1.913063 1_555
F1 Li3 1.939902 1_465
F1 Li1 1.964717 1_555
F2 Fe1 1.985591 1_555
F2 Li0 2.048170 1_655
F2 Li0 2.048170 1_545
F2 Li2 2.320656 1_556
F3 Fe1 1.985591 1_555
F3 Li1 2.048170 1_655
F3 Li1 2.048170 1_545
F3 Li3 2.320656 1_555
F4 Fe1 1.991298 1_455
F4 Fe1 1.991298 1_565
F4 Li0 2.338384 1_555
F4 Li1 2.338384 1_555
F5 Fe0 1.991298 1_655
F5 Fe0 1.991298 1_545
F5 Li3 2.338384 1_555
F5 Li2 2.338384 1_555
F6 Fe0 1.985591 1_555
F6 Li3 2.048170 1_455
F6 Li3 2.048170 1_565
F6 Li1 2.320656 1_555
F7 Fe0 1.985591 1_555
F7 Li2 2.048170 1_565
F7 Li2 2.048170 1_455
F7 Li0 2.320656 1_554
F8 Fe1 1.913063 1_555
F8 Li1 1.939902 1_645
F8 Li3 1.964717 1_555
F9 Fe1 1.913063 1_555
F9 Li0 1.939902 1_645
F9 Li2 1.964717 1_556
