# generated using pymatgen
data_TiMn4O10
_symmetry_space_group_name_H-M   'P 1'
_cell_length_a   5.84580539
_cell_length_b   5.84580539
_cell_length_c   24.15565984
_cell_angle_alpha   83.24415893
_cell_angle_beta   83.24415893
_cell_angle_gamma   59.69530369
_symmetry_Int_Tables_number   1
_chemical_formula_structural   TiMn4O10
_chemical_formula_sum   'Ti4 Mn16 O40'
_cell_volume   706.09787810
_cell_formula_units_Z   4
loop_
 _symmetry_equiv_pos_site_id
 _symmetry_equiv_pos_as_xyz
  1  'x, y, z'
loop_
 _atom_site_type_symbol
 _atom_site_label
 _atom_site_symmetry_multiplicity
 _atom_site_fract_x
 _atom_site_fract_y
 _atom_site_fract_z
 _atom_site_occupancy
  Ti  Ti0  1  0.29979800  0.29979800  0.10018800  1
  Ti  Ti1  1  0.70020200  0.70020200  0.89981200  1
  Ti  Ti2  1  0.29999700  0.29999700  0.60004100  1
  Ti  Ti3  1  0.70000300  0.70000300  0.39995900  1
  Mn  Mn0  1  0.50000000  0.50000000  0.00000000  1
  Mn  Mn1  1  0.50000000  0.00000000  0.00000000  1
  Mn  Mn2  1  0.00000000  0.50000000  0.00000000  1
  Mn  Mn3  1  0.90026800  0.90026800  0.79958700  1
  Mn  Mn4  1  0.09936900  0.09936900  0.70008600  1
  Mn  Mn5  1  0.90000500  0.40017600  0.79953900  1
  Mn  Mn6  1  0.80004700  0.29979100  0.60001600  1
  Mn  Mn7  1  0.40017600  0.90000500  0.79953900  1
  Mn  Mn8  1  0.29979100  0.80004700  0.60001600  1
  Mn  Mn9  1  0.50000000  0.50000000  0.50000000  1
  Mn  Mn10  1  0.19995300  0.70020900  0.39998400  1
  Mn  Mn11  1  0.70020900  0.19995300  0.39998400  1
  Mn  Mn12  1  0.09973200  0.09973200  0.20041300  1
  Mn  Mn13  1  0.90063100  0.90063100  0.29991400  1
  Mn  Mn14  1  0.59982400  0.09999500  0.20046100  1
  Mn  Mn15  1  0.09999500  0.59982400  0.20046100  1
  O  O0  1  0.83074800  0.38483800  0.95395500  1
  O  O1  1  0.38483800  0.83074800  0.95395500  1
  O  O2  1  0.61516200  0.16925200  0.04604500  1
  O  O3  1  0.16925200  0.61516200  0.04604500  1
  O  O4  1  0.56954300  0.56954300  0.84558100  1
  O  O5  1  0.34676100  0.34676100  0.95933300  1
  O  O6  1  0.16971200  0.16971200  0.04598900  1
  O  O7  1  0.05342600  0.05342600  0.84036100  1
  O  O8  1  0.83028800  0.83028800  0.95401100  1
  O  O9  1  0.65323900  0.65323900  0.04066700  1
  O  O10  1  0.22852100  0.78935100  0.75289600  1
  O  O11  1  0.78935100  0.22852100  0.75289600  1
  O  O12  1  0.56891000  0.01571400  0.84570900  1
  O  O13  1  0.01571400  0.56891000  0.84570900  1
  O  O14  1  0.74695600  0.74695600  0.75898100  1
  O  O15  1  0.97137300  0.97137300  0.64668100  1
  O  O16  1  0.45583000  0.45583000  0.64140600  1
  O  O17  1  0.22806100  0.22806100  0.75270300  1
  O  O18  1  0.63406900  0.18807500  0.55230400  1
  O  O19  1  0.18807500  0.63406900  0.55230400  1
  O  O20  1  0.96529500  0.41171700  0.64785700  1
  O  O21  1  0.41171700  0.96529500  0.64785700  1
  O  O22  1  0.81192500  0.36593100  0.44769600  1
  O  O23  1  0.36593100  0.81192500  0.44769600  1
  O  O24  1  0.37180900  0.37180900  0.44682800  1
  O  O25  1  0.54417000  0.54417000  0.35859400  1
  O  O26  1  0.14419900  0.14419900  0.55869500  1
  O  O27  1  0.02862700  0.02862700  0.35331900  1
  O  O28  1  0.62819100  0.62819100  0.55317200  1
  O  O29  1  0.85580100  0.85580100  0.44130500  1
  O  O30  1  0.03470500  0.58828300  0.35214300  1
  O  O31  1  0.58828300  0.03470500  0.35214300  1
  O  O32  1  0.21064900  0.77147900  0.24710400  1
  O  O33  1  0.77147900  0.21064900  0.24710400  1
  O  O34  1  0.77193900  0.77193900  0.24729700  1
  O  O35  1  0.94657400  0.94657400  0.15963900  1
  O  O36  1  0.25304400  0.25304400  0.24101900  1
  O  O37  1  0.43045700  0.43045700  0.15441900  1
  O  O38  1  0.98428600  0.43109000  0.15429100  1
  O  O39  1  0.43109000  0.98428600  0.15429100  1
loop_
_geom_bond_atom_site_label_1
_geom_bond_atom_site_label_2
_geom_bond_distance
_geom_bond_site_symmetry_2
Mn0 O2 1.945577 1_555
Mn0 O3 1.945577 1_555
Mn0 O1 1.945577 1_554
Mn0 O0 1.945577 1_554
Mn0 O9 1.947781 1_555
Mn0 O5 1.947781 1_554
Mn1 O8 1.941089 1_544
Mn1 O6 1.941089 1_555
Mn1 O1 1.943336 1_544
Mn1 O2 1.943336 1_555
Mn1 O5 1.944872 1_554
Mn1 O9 1.944872 1_545
Mn2 O8 1.941089 1_454
Mn2 O6 1.941089 1_555
Mn2 O0 1.943336 1_454
Mn2 O3 1.943336 1_555
Mn2 O9 1.944872 1_455
Mn2 O5 1.944872 1_554
Mn3 O10 1.944702 1_655
Mn3 O11 1.944702 1_565
Mn3 O14 1.947520 1_555
Mn3 O7 1.948654 1_665
Mn3 O12 1.949033 1_565
Mn3 O13 1.949033 1_655
Mn4 O17 1.941258 1_555
Mn4 O11 1.945142 1_455
Mn4 O10 1.945142 1_545
Mn4 O21 1.945864 1_545
Mn4 O20 1.945864 1_455
Mn4 O15 1.950161 1_445
Mn5 O4 1.942277 1_555
Mn5 O14 1.943814 1_555
Mn5 O17 1.944255 1_655
Mn5 O13 1.945241 1_655
Mn5 O11 1.946111 1_555
Mn5 O7 1.946456 1_655
Mn6 O26 1.940493 1_655
Mn6 O16 1.941539 1_555
Mn6 O20 1.942982 1_555
Mn6 O15 1.943077 1_545
Mn6 O18 1.943167 1_555
Mn6 O28 1.945546 1_555
Mn7 O4 1.942277 1_555
Mn7 O14 1.943814 1_555
Mn7 O17 1.944255 1_565
Mn7 O12 1.945241 1_565
Mn7 O10 1.946111 1_555
Mn7 O7 1.946456 1_565
Mn8 O26 1.940493 1_565
Mn8 O16 1.941539 1_555
Mn8 O21 1.942982 1_555
Mn8 O15 1.943077 1_455
Mn8 O19 1.943167 1_555
Mn8 O28 1.945546 1_555
Mn9 O23 1.945298 1_555
Mn9 O18 1.945298 1_555
Mn9 O22 1.945298 1_555
Mn9 O19 1.945298 1_555
Mn9 O24 1.947429 1_555
Mn9 O28 1.947429 1_555
Mn10 O29 1.940493 1_455
Mn10 O25 1.941539 1_555
Mn10 O30 1.942982 1_555
Mn10 O27 1.943077 1_565
Mn10 O23 1.943167 1_555
Mn10 O24 1.945546 1_555
Mn11 O29 1.940493 1_545
Mn11 O25 1.941539 1_555
Mn11 O31 1.942982 1_555
Mn11 O27 1.943077 1_655
Mn11 O22 1.943167 1_555
Mn11 O24 1.945546 1_555
Mn12 O32 1.944702 1_545
Mn12 O33 1.944702 1_455
Mn12 O36 1.947520 1_555
Mn12 O35 1.948654 1_445
Mn12 O39 1.949033 1_545
Mn12 O38 1.949033 1_455
Mn13 O34 1.941258 1_555
Mn13 O33 1.945142 1_565
Mn13 O32 1.945142 1_655
Mn13 O31 1.945864 1_565
Mn13 O30 1.945864 1_655
Mn13 O27 1.950161 1_665
Mn14 O37 1.942277 1_555
Mn14 O36 1.943814 1_555
Mn14 O34 1.944255 1_545
Mn14 O39 1.945241 1_545
Mn14 O33 1.946111 1_555
Mn14 O35 1.946456 1_545
Mn15 O37 1.942277 1_555
Mn15 O36 1.943814 1_555
Mn15 O34 1.944255 1_455
Mn15 O38 1.945241 1_455
Mn15 O32 1.946111 1_555
Mn15 O35 1.946456 1_455
O0 Ti1 1.984766 1_555
O1 Ti1 1.984766 1_555
O2 Ti0 1.984766 1_555
O3 Ti0 1.984766 1_555
O4 Ti1 1.985562 1_555
O6 Ti0 1.980588 1_555
O8 Ti1 1.980588 1_555
O12 Ti1 1.984735 1_545
O13 Ti1 1.984735 1_455
O16 Ti2 1.980895 1_555
O18 Ti2 1.982380 1_555
O19 Ti2 1.982380 1_555
O20 Ti2 1.986224 1_655
O21 Ti2 1.986224 1_565
O22 Ti3 1.982380 1_555
O23 Ti3 1.982380 1_555
O25 Ti3 1.980895 1_555
O26 Ti2 1.980306 1_555
O29 Ti3 1.980306 1_555
O30 Ti3 1.986224 1_455
O31 Ti3 1.986224 1_545
O37 Ti0 1.985562 1_555
O38 Ti0 1.984735 1_655
O39 Ti0 1.984735 1_565
