# generated using pymatgen
data_Li5Ti2V3O10
_symmetry_space_group_name_H-M   'P 1'
_cell_length_a   5.19145906
_cell_length_b   7.83357501
_cell_length_c   10.29392490
_cell_angle_alpha   107.94885760
_cell_angle_beta   98.99223930
_cell_angle_gamma   71.37246961
_symmetry_Int_Tables_number   1
_chemical_formula_structural   Li5Ti2V3O10
_chemical_formula_sum   'Li10 Ti4 V6 O20'
_cell_volume   376.61524084
_cell_formula_units_Z   2
loop_
 _symmetry_equiv_pos_site_id
 _symmetry_equiv_pos_as_xyz
  1  'x, y, z'
loop_
 _atom_site_type_symbol
 _atom_site_label
 _atom_site_symmetry_multiplicity
 _atom_site_fract_x
 _atom_site_fract_y
 _atom_site_fract_z
 _atom_site_occupancy
  Li  Li0  1  0.49981800  0.49660900  0.49777300  1
  Li  Li1  1  0.49981900  0.49662900  0.99777100  1
  Li  Li2  1  0.21837400  0.59108800  0.24625400  1
  Li  Li3  1  0.21837300  0.59108500  0.74625300  1
  Li  Li4  1  0.77912700  0.40315900  0.24952800  1
  Li  Li5  1  0.77912800  0.40316200  0.74952800  1
  Li  Li6  1  0.39708300  0.21749000  0.25947800  1
  Li  Li7  1  0.39707300  0.21749600  0.75947900  1
  Li  Li8  1  0.60066600  0.77706400  0.23679600  1
  Li  Li9  1  0.60068600  0.77705800  0.73679600  1
  Ti  Ti0  1  0.10591000  0.30411600  0.00758400  1
  Ti  Ti1  1  0.10590200  0.30409900  0.50758100  1
  Ti  Ti2  1  0.89254400  0.68942800  0.48848600  1
  Ti  Ti3  1  0.89255600  0.68945000  0.98849100  1
  V  V0  1  0.99891300  0.99702300  0.74798400  1
  V  V1  1  0.69553900  0.09345900  0.99560800  1
  V  V2  1  0.30235000  0.90033000  0.50020200  1
  V  V3  1  0.99890400  0.99702600  0.24798500  1
  V  V4  1  0.69551300  0.09342900  0.49561400  1
  V  V5  1  0.30237600  0.90035900  0.00019600  1
  O  O0  1  0.04160600  0.15149100  0.12288000  1
  O  O1  1  0.04158200  0.15147100  0.62287000  1
  O  O2  1  0.95619200  0.84233500  0.37304000  1
  O  O3  1  0.95621900  0.84235600  0.87304800  1
  O  O4  1  0.13713600  0.45665300  0.38899900  1
  O  O5  1  0.13714600  0.45668400  0.88900100  1
  O  O6  1  0.86142600  0.53706300  0.10708700  1
  O  O7  1  0.86141600  0.53703300  0.60708600  1
  O  O8  1  0.32985000  0.06533800  0.37573300  1
  O  O9  1  0.32986200  0.06537700  0.87573100  1
  O  O10  1  0.66801400  0.92845400  0.12006500  1
  O  O11  1  0.66801300  0.92841200  0.62006900  1
  O  O12  1  0.22051000  0.75422100  0.12155400  1
  O  O13  1  0.22051000  0.75419100  0.62155400  1
  O  O14  1  0.77734700  0.23987600  0.37448800  1
  O  O15  1  0.77736500  0.23990000  0.87448200  1
  O  O16  1  0.42632500  0.33794900  0.11578300  1
  O  O17  1  0.42630900  0.33792700  0.61578000  1
  O  O18  1  0.57195800  0.65588400  0.38031400  1
  O  O19  1  0.57197100  0.65590400  0.88031700  1
loop_
_geom_bond_atom_site_label_1
_geom_bond_atom_site_label_2
_geom_bond_distance
_geom_bond_site_symmetry_2
Li0 O7 2.095293 1_555
Li0 O4 2.097206 1_555
Li0 O18 2.128103 1_555
Li0 O17 2.131913 1_555
Li0 O14 2.208740 1_555
Li0 O13 2.218425 1_555
Li1 O6 2.095365 1_556
Li1 O5 2.097128 1_555
Li1 O19 2.128091 1_555
Li1 O16 2.131905 1_556
Li1 O15 2.208779 1_555
Li1 O12 2.218477 1_556
Li2 O12 2.074968 1_555
Li2 O16 2.084634 1_555
Li2 O2 2.165735 1_455
Li2 O4 2.208451 1_555
Li2 O18 2.214309 1_555
Li2 O6 2.227724 1_455
Li3 O13 2.074790 1_555
Li3 O17 2.084706 1_555
Li3 O3 2.165810 1_455
Li3 O5 2.208253 1_555
Li3 O19 2.214440 1_555
Li3 O7 2.227815 1_455
Li4 O14 2.077532 1_555
Li4 O18 2.082859 1_555
Li4 O0 2.167529 1_655
Li4 O6 2.205197 1_555
Li4 O16 2.210654 1_555
Li4 O4 2.232443 1_655
Li5 O15 2.077323 1_555
Li5 O19 2.082931 1_555
Li5 O1 2.167611 1_655
Li5 O7 2.204988 1_555
Li5 O17 2.210797 1_555
Li5 O5 2.232545 1_655
Li6 O16 2.030628 1_555
Li6 O8 2.061561 1_555
Li6 O4 2.125220 1_555
Li6 O14 2.166135 1_555
Li6 O0 2.236164 1_555
Li6 O10 2.399635 1_545
Li7 O17 2.030498 1_555
Li7 O9 2.061276 1_555
Li7 O5 2.125273 1_555
Li7 O15 2.166261 1_555
Li7 O1 2.236333 1_555
Li7 O11 2.399855 1_545
Li8 O18 2.032118 1_555
Li8 O10 2.060842 1_555
Li8 O6 2.131194 1_555
Li8 O12 2.167295 1_555
Li8 O2 2.233095 1_555
Li8 O8 2.394042 1_565
Li9 O19 2.032012 1_555
Li9 O11 2.060532 1_555
Li9 O7 2.131219 1_555
Li9 O13 2.167422 1_555
Li9 O3 2.233223 1_555
Li9 O9 2.394251 1_565
O0 Ti0 2.050102 1_555
O0 V3 2.095899 1_445
O0 V1 2.137691 1_454
O0 V5 2.144664 1_545
O1 Ti1 2.050101 1_555
O1 V0 2.095801 1_445
O1 V4 2.137653 1_455
O1 V2 2.144631 1_545
O2 Ti2 2.051616 1_555
O2 V3 2.096920 1_555
O2 V2 2.137519 1_655
O2 V4 2.143844 1_565
O3 Ti3 2.051619 1_555
O3 V0 2.096808 1_555
O3 V5 2.137473 1_656
O3 V1 2.143825 1_565
O4 Ti2 1.939735 1_455
O4 Ti1 2.007291 1_555
O5 Ti3 1.939701 1_455
O5 Ti0 2.007391 1_556
O6 Ti0 1.940312 1_655
O6 Ti3 2.006151 1_554
O7 Ti1 1.940266 1_655
O7 Ti2 2.006231 1_555
O8 Ti1 2.057070 1_555
O8 V3 2.101154 1_445
O8 V2 2.128074 1_545
O8 V4 2.131223 1_555
O9 Ti0 2.057011 1_556
O9 V0 2.101268 1_445
O9 V5 2.128079 1_546
O9 V1 2.131252 1_555
O10 Ti3 2.057920 1_554
O10 V3 2.102323 1_555
O10 V1 2.128002 1_564
O10 V5 2.131071 1_555
O11 Ti2 2.057859 1_555
O11 V0 2.102441 1_555
O11 V4 2.128016 1_565
O11 V2 2.131150 1_555
O12 V3 2.044399 1_455
O12 V5 2.100001 1_555
O12 Ti3 2.104007 1_454
O13 V0 2.044494 1_455
O13 V2 2.099894 1_555
O13 Ti2 2.104060 1_455
O14 V3 2.044826 1_545
O14 V4 2.099947 1_555
O14 Ti1 2.105315 1_655
O15 V0 2.044904 1_545
O15 V1 2.099890 1_555
O15 Ti0 2.105299 1_656
O16 Ti0 1.896915 1_555
O16 V1 2.126498 1_554
O17 Ti1 1.896871 1_555
O17 V4 2.126468 1_555
O18 Ti2 1.896999 1_555
O18 V2 2.126064 1_555
O19 Ti3 1.897007 1_555
O19 V5 2.126031 1_556
