# generated using pymatgen
data_SmH5(SeO4)2
_symmetry_space_group_name_H-M   'P 1'
_cell_length_a   6.80488400
_cell_length_b   7.20838000
_cell_length_c   17.72358100
_cell_angle_alpha   90.00000000
_cell_angle_beta   90.00000000
_cell_angle_gamma   90.00000000
_symmetry_Int_Tables_number   1
_chemical_formula_structural   SmH5(SeO4)2
_chemical_formula_sum   'Sm4 H20 Se8 O32'
_cell_volume   869.38045787
_cell_formula_units_Z   4
loop_
 _symmetry_equiv_pos_site_id
 _symmetry_equiv_pos_as_xyz
  1  'x, y, z'
loop_
 _atom_site_type_symbol
 _atom_site_label
 _atom_site_symmetry_multiplicity
 _atom_site_fract_x
 _atom_site_fract_y
 _atom_site_fract_z
 _atom_site_occupancy
  Sm  Sm0  1  0.12255400  0.59786200  0.71617200  1
  Sm  Sm1  1  0.37744600  0.40213800  0.21617200  1
  Sm  Sm2  1  0.62255400  0.90213800  0.28382800  1
  Sm  Sm3  1  0.87744600  0.09786200  0.78382800  1
  H  H0  1  0.09954500  0.76183600  0.55247900  1
  H  H1  1  0.40045500  0.23816400  0.05247900  1
  H  H2  1  0.59954500  0.73816400  0.44752100  1
  H  H3  1  0.90045500  0.26183600  0.94752100  1
  H  H4  1  0.05277600  0.92122800  0.61319300  1
  H  H5  1  0.44722400  0.07877200  0.11319300  1
  H  H6  1  0.55277600  0.57877200  0.38680700  1
  H  H7  1  0.94722400  0.42122800  0.88680700  1
  H  H8  1  0.20300700  0.75620900  0.42770100  1
  H  H9  1  0.29699300  0.24379100  0.92770100  1
  H  H10  1  0.70300700  0.74379100  0.57229900  1
  H  H11  1  0.79699300  0.25620900  0.07229900  1
  H  H12  1  0.98203100  0.72283500  0.41734300  1
  H  H13  1  0.51796900  0.27716500  0.91734300  1
  H  H14  1  0.48203100  0.77716500  0.58265700  1
  H  H15  1  0.01796900  0.22283500  0.08265700  1
  H  H16  1  0.04175300  0.26616900  0.49047500  1
  H  H17  1  0.45824700  0.73383100  0.99047500  1
  H  H18  1  0.54175300  0.23383100  0.50952500  1
  H  H19  1  0.95824700  0.76616900  0.00952500  1
  Se  Se0  1  0.65727500  0.60516300  0.76989300  1
  Se  Se1  1  0.84272500  0.39483700  0.26989300  1
  Se  Se2  1  0.15727500  0.89483700  0.23010700  1
  Se  Se3  1  0.34272500  0.10516300  0.73010700  1
  Se  Se4  1  0.85967900  0.28862000  0.59567100  1
  Se  Se5  1  0.64032100  0.71138000  0.09567100  1
  Se  Se6  1  0.35967900  0.21138000  0.40432900  1
  Se  Se7  1  0.14032100  0.78862000  0.90432900  1
  O  O0  1  0.80838500  0.42368200  0.73858800  1
  O  O1  1  0.69161500  0.57631800  0.23858800  1
  O  O2  1  0.30838500  0.07631800  0.26141200  1
  O  O3  1  0.19161500  0.92368200  0.76141200  1
  O  O4  1  0.91241700  0.09617900  0.64813200  1
  O  O5  1  0.58758300  0.90382100  0.14813200  1
  O  O6  1  0.41241700  0.40382100  0.35186800  1
  O  O7  1  0.08758300  0.59617900  0.85186800  1
  O  O8  1  0.05593500  0.42958200  0.60561900  1
  O  O9  1  0.44406500  0.57041800  0.10561900  1
  O  O10  1  0.55593500  0.07041800  0.39438100  1
  O  O11  1  0.94406500  0.92958200  0.89438100  1
  O  O12  1  0.91899400  0.20024800  0.50177700  1
  O  O13  1  0.58100600  0.79975200  0.00177700  1
  O  O14  1  0.41899400  0.29975200  0.49822300  1
  O  O15  1  0.08100600  0.70024800  0.99822300  1
  O  O16  1  0.81330400  0.77841100  0.73677000  1
  O  O17  1  0.68669600  0.22158900  0.23677000  1
  O  O18  1  0.31330400  0.72158900  0.26323000  1
  O  O19  1  0.18669600  0.27841100  0.76323000  1
  O  O20  1  0.46819900  0.60644900  0.70654600  1
  O  O21  1  0.03180100  0.39355100  0.20654600  1
  O  O22  1  0.96819900  0.89355100  0.29345400  1
  O  O23  1  0.53180100  0.10644900  0.79345400  1
  O  O24  1  0.12764100  0.80403400  0.60498200  1
  O  O25  1  0.37235900  0.19596600  0.10498200  1
  O  O26  1  0.62764100  0.69596600  0.39501800  1
  O  O27  1  0.87235900  0.30403400  0.89501800  1
  O  O28  1  0.08804700  0.71043000  0.45433300  1
  O  O29  1  0.41195300  0.28957000  0.95433300  1
  O  O30  1  0.58804700  0.78957000  0.54566700  1
  O  O31  1  0.91195300  0.21043000  0.04566700  1
loop_
_geom_bond_atom_site_label_1
_geom_bond_atom_site_label_2
_geom_bond_distance
_geom_bond_site_symmetry_2
H0 O24 0.997490 1_555
H1 O25 0.997490 1_555
H2 O26 0.997490 1_555
H3 O27 0.997490 1_555
H4 O24 0.997179 1_555
H4 O4 1.698863 1_465
H5 O25 0.997179 1_555
H5 O5 1.698863 1_545
H6 O26 0.997179 1_555
H6 O6 1.698863 1_555
H7 O27 0.997179 1_555
H7 O7 1.698863 1_655
H8 O28 0.971426 1_555
H9 O29 0.971426 1_555
H10 O30 0.971426 1_555
H11 O31 0.971426 1_555
H12 O28 0.978906 1_655
H13 O29 0.978906 1_555
H14 O30 0.978906 1_555
H15 O31 0.978906 1_455
H16 O12 0.981709 1_455
H17 O13 0.981709 1_556
H18 O14 0.981709 1_555
H19 O15 0.981709 1_654
O0 Se0 1.754013 1_555
O0 Sm0 2.510937 1_655
O0 Sm3 2.525836 1_555
O1 Se1 1.754013 1_555
O1 Sm1 2.510937 1_555
O1 Sm2 2.525836 1_555
O2 Se2 1.754013 1_545
O2 Sm2 2.510937 1_545
O2 Sm1 2.525836 1_555
O3 Se3 1.754013 1_565
O3 Sm3 2.510937 1_465
O3 Sm0 2.525836 1_555
O4 Se4 1.708100 1_555
O4 Sm3 2.416794 1_555
O5 Se5 1.708100 1_555
O5 Sm2 2.416794 1_555
O6 Se6 1.708100 1_555
O6 Sm1 2.416794 1_555
O7 Se7 1.708100 1_555
O7 Sm0 2.416794 1_555
O8 Se4 1.687341 1_455
O8 Sm0 2.348654 1_555
O9 Se5 1.687341 1_555
O9 Sm1 2.348654 1_555
O10 Se6 1.687341 1_555
O10 Sm2 2.348654 1_545
O11 Se7 1.687341 1_655
O11 Sm3 2.348654 1_565
O12 Se4 1.827038 1_555
O13 Se5 1.827038 1_555
O14 Se6 1.827038 1_555
O15 Se7 1.827038 1_555
O16 Se0 1.741139 1_555
O16 Sm3 2.487704 1_565
O16 Sm0 2.501126 1_655
O17 Se1 1.741139 1_555
O17 Sm2 2.487704 1_545
O17 Sm1 2.501126 1_555
O18 Se2 1.741139 1_555
O18 Sm1 2.487704 1_555
O18 Sm2 2.501126 1_555
O19 Se3 1.741139 1_555
O19 Sm0 2.487704 1_555
O19 Sm3 2.501126 1_455
O20 Se0 1.707649 1_555
O20 Sm0 2.359066 1_555
O21 Se1 1.707649 1_455
O21 Sm1 2.359066 1_555
O22 Se2 1.707649 1_655
O22 Sm2 2.359066 1_555
O23 Se3 1.707649 1_555
O23 Sm3 2.359066 1_555
O24 Sm0 2.468499 1_555
O25 Sm1 2.468499 1_555
O26 Sm2 2.468499 1_555
O27 Sm3 2.468499 1_555
