# generated using pymatgen
data_LiMn3OF8
_symmetry_space_group_name_H-M   'P 1'
_cell_length_a   5.73532600
_cell_length_b   5.13787300
_cell_length_c   23.15704776
_cell_angle_alpha   80.45940366
_cell_angle_beta   90.00000000
_cell_angle_gamma   90.00000000
_symmetry_Int_Tables_number   1
_chemical_formula_structural   LiMn3OF8
_chemical_formula_sum   'Li4 Mn12 O4 F32'
_cell_volume   672.93908314
_cell_formula_units_Z   4
loop_
 _symmetry_equiv_pos_site_id
 _symmetry_equiv_pos_as_xyz
  1  'x, y, z'
loop_
 _atom_site_type_symbol
 _atom_site_label
 _atom_site_symmetry_multiplicity
 _atom_site_fract_x
 _atom_site_fract_y
 _atom_site_fract_z
 _atom_site_occupancy
  Li  Li0  1  0.01571800  0.10017500  0.46633200  1
  Li  Li1  1  0.98428200  0.10017500  0.96633200  1
  Li  Li2  1  0.51289300  0.88177600  0.03549800  1
  Li  Li3  1  0.48710700  0.88177600  0.53549800  1
  Mn  Mn0  1  0.14525600  0.77015100  0.75677800  1
  Mn  Mn1  1  0.04103400  0.62324000  0.38138300  1
  Mn  Mn2  1  0.02833400  0.86836800  0.11951400  1
  Mn  Mn3  1  0.95896600  0.62324000  0.88138300  1
  Mn  Mn4  1  0.97166600  0.86836800  0.61951400  1
  Mn  Mn5  1  0.85474400  0.77015100  0.25677800  1
  Mn  Mn6  1  0.73948400  0.37764100  0.74581700  1
  Mn  Mn7  1  0.53226200  0.36013200  0.11691600  1
  Mn  Mn8  1  0.52846900  0.11342300  0.38355700  1
  Mn  Mn9  1  0.47153100  0.11342300  0.88355700  1
  Mn  Mn10  1  0.46773800  0.36013200  0.61691600  1
  Mn  Mn11  1  0.26051600  0.37764100  0.24581700  1
  O  O0  1  0.04593500  0.53248600  0.30467700  1
  O  O1  1  0.02960000  0.65125800  0.19622200  1
  O  O2  1  0.95406500  0.53248600  0.80467700  1
  O  O3  1  0.97040000  0.65125800  0.69622200  1
  F  F0  1  0.28669100  0.92651200  0.35322600  1
  F  F1  1  0.27905500  0.14545100  0.14890300  1
  F  F2  1  0.21838100  0.29778500  0.91204300  1
  F  F3  1  0.25300700  0.63469200  0.58469100  1
  F  F4  1  0.01355100  0.08483000  0.04595800  1
  F  F5  1  0.01458800  0.74619300  0.45206000  1
  F  F6  1  0.01201200  0.09336800  0.25063800  1
  F  F7  1  0.98798800  0.09336800  0.75063800  1
  F  F8  1  0.98541200  0.74619300  0.95206000  1
  F  F9  1  0.98644900  0.08483000  0.54595800  1
  F  F10  1  0.78161900  0.29778500  0.41204300  1
  F  F11  1  0.74699300  0.63469200  0.08469100  1
  F  F12  1  0.71330900  0.92651200  0.85322600  1
  F  F13  1  0.72094500  0.14545100  0.64890300  1
  F  F14  1  0.78486800  0.85003900  0.34722000  1
  F  F15  1  0.78306300  0.06824100  0.14563500  1
  F  F16  1  0.71565100  0.68373000  0.59013600  1
  F  F17  1  0.75129500  0.34096200  0.91545200  1
  F  F18  1  0.52332700  0.35101300  0.31099800  1
  F  F19  1  0.53818100  0.47324300  0.19101400  1
  F  F20  1  0.55695900  0.89411600  0.24631600  1
  F  F21  1  0.51352700  0.88670200  0.45457300  1
  F  F22  1  0.51216900  0.24094900  0.04615300  1
  F  F23  1  0.48647300  0.88670200  0.95457300  1
  F  F24  1  0.48783100  0.24094900  0.54615300  1
  F  F25  1  0.44304100  0.89411600  0.74631600  1
  F  F26  1  0.47667300  0.35101300  0.81099800  1
  F  F27  1  0.46181900  0.47324300  0.69101400  1
  F  F28  1  0.24870500  0.34096200  0.41545200  1
  F  F29  1  0.28434900  0.68373000  0.09013600  1
  F  F30  1  0.21513200  0.85003900  0.84722000  1
  F  F31  1  0.21693700  0.06824100  0.64563500  1
loop_
_geom_bond_atom_site_label_1
_geom_bond_atom_site_label_2
_geom_bond_distance
_geom_bond_site_symmetry_2
Mn0 O2 1.864084 1_455
Mn0 O3 1.905063 1_455
Mn1 O0 1.909962 1_555
Mn2 O1 1.934649 1_555
Mn3 O2 1.909962 1_555
Mn4 O3 1.934649 1_555
Mn5 O0 1.864084 1_655
Mn5 O1 1.905063 1_655
Mn6 O2 2.089220 1_555
Mn6 O3 2.124633 1_555
Mn11 O0 2.089220 1_555
Mn11 O1 2.124633 1_555
F0 Mn8 1.887332 1_565
F0 Mn1 2.121632 1_555
F1 Mn7 1.898265 1_555
F1 Mn2 2.208794 1_545
F2 Mn9 1.909848 1_555
F2 Li1 1.997713 1_455
F2 Mn3 2.262797 1_455
F3 Mn10 1.927324 1_555
F3 Li3 2.057324 1_555
F3 Mn4 2.239709 1_455
F4 Li1 1.840158 1_454
F4 Mn2 1.875492 1_545
F5 Mn1 1.855666 1_555
F5 Li0 1.901643 1_565
F6 Mn5 1.874372 1_445
F6 Mn11 2.030513 1_555
F7 Mn0 1.874372 1_645
F7 Mn6 2.030513 1_555
F8 Mn3 1.855666 1_555
F8 Li1 1.901643 1_565
F9 Li0 1.840158 1_655
F9 Mn4 1.875492 1_545
F10 Mn8 1.909848 1_555
F10 Li0 1.997713 1_655
F10 Mn1 2.262797 1_655
F11 Mn7 1.927324 1_555
F11 Li2 2.057324 1_555
F11 Mn2 2.239709 1_655
F12 Mn9 1.887332 1_565
F12 Mn3 2.121632 1_555
F13 Mn10 1.898265 1_555
F13 Mn4 2.208794 1_545
F14 Mn1 1.958737 1_655
F14 Mn5 2.236165 1_555
F14 Mn8 2.253713 1_565
F15 Mn2 1.898736 1_645
F15 Mn7 2.104716 1_555
F16 Mn4 1.932014 1_555
F16 Li3 1.981817 1_555
F16 Mn10 2.197440 1_555
F17 Mn3 1.940399 1_555
F17 Li1 2.054535 1_555
F17 Mn9 2.184722 1_555
F18 Mn8 1.906389 1_555
F18 Mn11 2.121444 1_555
F19 Mn7 1.900981 1_555
F19 Mn11 2.044807 1_555
F20 Mn5 1.824858 1_555
F21 Mn8 1.853019 1_565
F21 Li3 1.876085 1_555
F22 Mn7 1.845560 1_555
F22 Li2 1.901915 1_545
F23 Mn9 1.853019 1_565
F23 Li2 1.876085 1_556
F24 Mn10 1.845560 1_555
F24 Li3 1.901915 1_545
F25 Mn0 1.824858 1_555
F26 Mn9 1.906389 1_555
F26 Mn6 2.121444 1_555
F27 Mn10 1.900981 1_555
F27 Mn6 2.044807 1_555
F28 Mn1 1.940399 1_555
F28 Li0 2.054535 1_555
F28 Mn8 2.184722 1_555
F29 Mn2 1.932014 1_555
F29 Li2 1.981817 1_555
F29 Mn7 2.197440 1_555
F30 Mn3 1.958737 1_455
F30 Mn0 2.236165 1_555
F30 Mn9 2.253713 1_565
F31 Mn4 1.898736 1_445
F31 Mn10 2.104716 1_555
