# generated using pymatgen
data_La2Ti3O9
_symmetry_space_group_name_H-M   'P 1'
_cell_length_a   8.71066458
_cell_length_b   8.71066458
_cell_length_c   9.59966585
_cell_angle_alpha   57.02291834
_cell_angle_beta   57.02291834
_cell_angle_gamma   36.87060486
_symmetry_Int_Tables_number   1
_chemical_formula_structural   La2Ti3O9
_chemical_formula_sum   'La4 Ti6 O18'
_cell_volume   357.94648528
_cell_formula_units_Z   2
loop_
 _symmetry_equiv_pos_site_id
 _symmetry_equiv_pos_as_xyz
  1  'x, y, z'
loop_
 _atom_site_type_symbol
 _atom_site_label
 _atom_site_symmetry_multiplicity
 _atom_site_fract_x
 _atom_site_fract_y
 _atom_site_fract_z
 _atom_site_occupancy
  La  La0  1  0.00000000  0.00000000  0.00000000  1
  La  La1  1  0.66696400  0.66696400  0.99922900  1
  La  La2  1  0.50000000  0.50000000  0.50000000  1
  La  La3  1  0.33303600  0.33303600  0.00077100  1
  Ti  Ti0  1  0.91786100  0.91786100  0.74541400  1
  Ti  Ti1  1  0.74844100  0.74844100  0.26528100  1
  Ti  Ti2  1  0.59057400  0.59057400  0.73938600  1
  Ti  Ti3  1  0.40942600  0.40942600  0.26061400  1
  Ti  Ti4  1  0.25155900  0.25155900  0.73471900  1
  Ti  Ti5  1  0.08213900  0.08213900  0.25458600  1
  O  O0  1  0.00000000  0.00000000  0.50000000  1
  O  O1  1  0.83217800  0.83217800  0.99872400  1
  O  O2  1  0.65417700  0.65417700  0.50115700  1
  O  O3  1  0.73116100  0.25261600  0.76441700  1
  O  O4  1  0.90575400  0.42927400  0.23781700  1
  O  O5  1  0.50000000  0.50000000  0.00000000  1
  O  O6  1  0.59290800  0.09065700  0.22458900  1
  O  O7  1  0.90934300  0.40709200  0.77541100  1
  O  O8  1  0.74738400  0.26883900  0.23558300  1
  O  O9  1  0.57072600  0.09424600  0.76218300  1
  O  O10  1  0.42927400  0.90575400  0.23781700  1
  O  O11  1  0.25261600  0.73116100  0.76441700  1
  O  O12  1  0.09065700  0.59290800  0.22458900  1
  O  O13  1  0.34582300  0.34582300  0.49884300  1
  O  O14  1  0.16782200  0.16782200  0.00127600  1
  O  O15  1  0.40709200  0.90934300  0.77541100  1
  O  O16  1  0.26883900  0.74738400  0.23558300  1
  O  O17  1  0.09424600  0.57072600  0.76218300  1
loop_
_geom_bond_atom_site_label_1
_geom_bond_atom_site_label_2
_geom_bond_distance
_geom_bond_site_symmetry_2
La0 O15 2.626155 1_544
La0 O12 2.626155 1_545
La0 O7 2.626155 1_454
La0 O6 2.626155 1_455
La0 O11 2.746559 1_544
La0 O8 2.746559 1_455
La0 O3 2.746559 1_454
La0 O16 2.746559 1_545
La0 O5 2.754605 1_455
La0 O5 2.754605 1_545
La0 O14 2.780689 1_555
La0 O1 2.780689 1_444
La1 O15 2.628263 1_555
La1 O7 2.628263 1_555
La1 O16 2.634950 1_556
La1 O8 2.634950 1_556
La1 O10 2.644322 1_556
La1 O4 2.644322 1_556
La1 O1 2.727761 1_555
La1 O14 2.754770 1_656
La1 O14 2.754770 1_566
La1 O5 2.755223 1_556
La1 O17 2.756486 1_655
La1 O9 2.756486 1_565
La2 O2 2.554517 1_555
La2 O13 2.554517 1_555
La2 O0 2.754605 1_655
La2 O0 2.754605 1_565
La2 O4 2.779634 1_555
La2 O10 2.779634 1_555
La2 O17 2.779634 1_555
La2 O9 2.779634 1_555
La2 O3 2.794314 1_555
La2 O16 2.794314 1_555
La2 O8 2.794314 1_555
La2 O11 2.794314 1_555
La3 O12 2.628263 1_555
La3 O6 2.628263 1_555
La3 O11 2.634950 1_554
La3 O3 2.634950 1_554
La3 O17 2.644322 1_554
La3 O9 2.644322 1_554
La3 O14 2.727761 1_555
La3 O1 2.754770 1_454
La3 O1 2.754770 1_544
La3 O5 2.755223 1_555
La3 O10 2.756486 1_545
La3 O4 2.756486 1_455
O0 Ti5 1.929561 1_555
O0 Ti0 1.929561 1_445
O1 Ti0 1.991744 1_555
O1 Ti1 2.097478 1_556
O2 Ti1 1.872527 1_555
O2 Ti2 1.891147 1_555
O3 Ti0 1.962021 1_545
O3 Ti2 2.001463 1_555
O4 Ti5 1.958537 1_655
O4 Ti1 1.996436 1_555
O5 Ti2 2.049985 1_554
O5 Ti3 2.049985 1_555
O6 Ti1 1.928958 1_545
O6 Ti3 1.930588 1_555
O7 Ti4 1.928958 1_655
O7 Ti2 1.930588 1_555
O8 Ti5 1.962021 1_655
O8 Ti3 2.001463 1_555
O9 Ti0 1.958537 1_545
O9 Ti4 1.996436 1_555
O10 Ti5 1.958537 1_565
O10 Ti1 1.996436 1_555
O11 Ti0 1.962021 1_455
O11 Ti2 2.001463 1_555
O12 Ti1 1.928958 1_455
O12 Ti3 1.930588 1_555
O13 Ti4 1.872527 1_555
O13 Ti3 1.891147 1_555
O14 Ti5 1.991744 1_555
O14 Ti4 2.097478 1_554
O15 Ti4 1.928958 1_565
O15 Ti2 1.930588 1_555
O16 Ti5 1.962021 1_565
O16 Ti3 2.001463 1_555
O17 Ti0 1.958537 1_455
O17 Ti4 1.996436 1_555
