# generated using pymatgen
data_Ni2(SO4)3
_symmetry_space_group_name_H-M   'P 1'
_cell_length_a   8.71855100
_cell_length_b   8.39650400
_cell_length_c   14.49210996
_cell_angle_alpha   55.40087892
_cell_angle_beta   90.00000000
_cell_angle_gamma   90.00000000
_symmetry_Int_Tables_number   1
_chemical_formula_structural   Ni2(SO4)3
_chemical_formula_sum   'Ni8 S12 O48'
_cell_volume   873.27457980
_cell_formula_units_Z   4
loop_
 _symmetry_equiv_pos_site_id
 _symmetry_equiv_pos_as_xyz
  1  'x, y, z'
loop_
 _atom_site_type_symbol
 _atom_site_label
 _atom_site_symmetry_multiplicity
 _atom_site_fract_x
 _atom_site_fract_y
 _atom_site_fract_z
 _atom_site_occupancy
  Ni  Ni0  1  0.97247800  0.36146800  0.88595900  1
  Ni  Ni1  1  0.47247800  0.63853200  0.61404100  1
  Ni  Ni2  1  0.02997000  0.86930500  0.38348900  1
  Ni  Ni3  1  0.52997000  0.13069500  0.11651100  1
  Ni  Ni4  1  0.47003000  0.86930500  0.88348900  1
  Ni  Ni5  1  0.97003000  0.13069500  0.61651100  1
  Ni  Ni6  1  0.52752200  0.36146800  0.38595900  1
  Ni  Ni7  1  0.02752200  0.63853200  0.11404100  1
  S  S0  1  0.75217500  0.55115000  0.49283500  1
  S  S1  1  0.61627000  0.25716900  0.84986200  1
  S  S2  1  0.88918700  0.96378500  0.14659300  1
  S  S3  1  0.11627000  0.74283100  0.65013800  1
  S  S4  1  0.38918700  0.03621500  0.35340700  1
  S  S5  1  0.25217500  0.44885000  0.00716500  1
  S  S6  1  0.74782500  0.55115000  0.99283500  1
  S  S7  1  0.61081300  0.96378500  0.64659300  1
  S  S8  1  0.88373000  0.25716900  0.34986200  1
  S  S9  1  0.11081300  0.03621500  0.85340700  1
  S  S10  1  0.38373000  0.74283100  0.15013800  1
  S  S11  1  0.24782500  0.44885000  0.50716500  1
  O  O0  1  0.13120900  0.60139700  0.45014900  1
  O  O1  1  0.11637100  0.15454800  0.90036900  1
  O  O2  1  0.32189900  0.45314700  0.59834300  1
  O  O3  1  0.42651800  0.86559300  0.18947700  1
  O  O4  1  0.63422300  0.50969600  0.57766200  1
  O  O5  1  0.78414500  0.29801300  0.82695800  1
  O  O6  1  0.58191500  0.16494100  0.96795500  1
  O  O7  1  0.99788100  0.87926700  0.24109200  1
  O  O8  1  0.73346700  0.97317400  0.18376600  1
  O  O9  1  0.81898500  0.74503500  0.44396900  1
  O  O10  1  0.53671300  0.44737300  0.78025400  1
  O  O11  1  0.03671300  0.55262700  0.71974600  1
  O  O12  1  0.93676700  0.16462400  0.05642300  1
  O  O13  1  0.43676700  0.83537600  0.44357700  1
  O  O14  1  0.31898500  0.25496500  0.05603100  1
  O  O15  1  0.23346700  0.02682600  0.31623400  1
  O  O16  1  0.08191500  0.83505900  0.53204500  1
  O  O17  1  0.49788100  0.12073300  0.25890800  1
  O  O18  1  0.28414500  0.70198700  0.67304200  1
  O  O19  1  0.13422300  0.49030400  0.92233800  1
  O  O20  1  0.82189900  0.54685300  0.90165700  1
  O  O21  1  0.61637100  0.84545200  0.59963100  1
  O  O22  1  0.92651800  0.13440700  0.31052300  1
  O  O23  1  0.63120900  0.39860300  0.04985100  1
  O  O24  1  0.36879100  0.60139700  0.95014900  1
  O  O25  1  0.07348200  0.86559300  0.68947700  1
  O  O26  1  0.38362900  0.15454800  0.40036900  1
  O  O27  1  0.17810100  0.45314700  0.09834300  1
  O  O28  1  0.86577700  0.50969600  0.07766200  1
  O  O29  1  0.71585500  0.29801300  0.32695800  1
  O  O30  1  0.50211900  0.87926700  0.74109200  1
  O  O31  1  0.91808500  0.16494100  0.46795500  1
  O  O32  1  0.76653300  0.97317400  0.68376600  1
  O  O33  1  0.68101500  0.74503500  0.94396900  1
  O  O34  1  0.56323300  0.16462400  0.55642300  1
  O  O35  1  0.06323300  0.83537600  0.94357700  1
  O  O36  1  0.96328700  0.44737300  0.28025400  1
  O  O37  1  0.46328700  0.55262700  0.21974600  1
  O  O38  1  0.18101500  0.25496500  0.55603100  1
  O  O39  1  0.26653300  0.02682600  0.81623400  1
  O  O40  1  0.00211900  0.12073300  0.75890800  1
  O  O41  1  0.41808500  0.83505900  0.03204500  1
  O  O42  1  0.21585500  0.70198700  0.17304200  1
  O  O43  1  0.36577700  0.49030400  0.42233800  1
  O  O44  1  0.57348200  0.13440700  0.81052300  1
  O  O45  1  0.67810100  0.54685300  0.40165700  1
  O  O46  1  0.88362900  0.84545200  0.09963100  1
  O  O47  1  0.86879100  0.39860300  0.54985100  1
loop_
_geom_bond_atom_site_label_1
_geom_bond_atom_site_label_2
_geom_bond_distance
_geom_bond_site_symmetry_2
Ni0 O19 2.021010 1_655
Ni0 O1 2.055239 1_655
Ni0 O5 2.056330 1_555
Ni0 O12 2.072321 1_556
Ni0 O11 2.073966 1_655
Ni0 O20 2.144854 1_555
Ni1 O4 2.021010 1_555
Ni1 O21 2.055239 1_555
Ni1 O18 2.056330 1_555
Ni1 O13 2.072321 1_555
Ni1 O10 2.073966 1_555
Ni1 O2 2.144854 1_555
Ni2 O7 2.036619 1_455
Ni2 O9 2.049891 1_455
Ni2 O22 2.052646 1_465
Ni2 O16 2.054187 1_555
Ni2 O0 2.074757 1_555
Ni2 O15 2.093584 1_565
Ni3 O17 2.036619 1_555
Ni3 O14 2.049891 1_555
Ni3 O3 2.052646 1_545
Ni3 O6 2.054187 1_554
Ni3 O23 2.074757 1_555
Ni3 O8 2.093584 1_545
Ni4 O30 2.036619 1_555
Ni4 O33 2.049891 1_555
Ni4 O44 2.052646 1_565
Ni4 O41 2.054187 1_556
Ni4 O24 2.074757 1_555
Ni4 O39 2.093584 1_565
Ni5 O40 2.036619 1_655
Ni5 O38 2.049891 1_655
Ni5 O25 2.052646 1_645
Ni5 O31 2.054187 1_555
Ni5 O47 2.074757 1_555
Ni5 O32 2.093584 1_545
Ni6 O43 2.021010 1_555
Ni6 O26 2.055239 1_555
Ni6 O29 2.056330 1_555
Ni6 O34 2.072321 1_555
Ni6 O37 2.073966 1_555
Ni6 O45 2.144854 1_555
Ni7 O28 2.021010 1_455
Ni7 O46 2.055239 1_455
Ni7 O42 2.056330 1_555
Ni7 O35 2.072321 1_554
Ni7 O36 2.073966 1_455
Ni7 O27 2.144854 1_555
O0 S11 1.468040 1_555
O1 S9 1.490198 1_555
O2 S11 1.489470 1_555
O3 S10 1.481231 1_555
O4 S0 1.484585 1_555
O5 S1 1.496902 1_555
O6 S1 1.453700 1_555
O7 S2 1.474263 1_555
O8 S2 1.479149 1_555
O9 S0 1.477080 1_555
O10 S1 1.489858 1_555
O11 S3 1.489858 1_555
O12 S2 1.490255 1_545
O13 S4 1.490255 1_565
O14 S5 1.477080 1_555
O15 S4 1.479149 1_555
O16 S3 1.453700 1_555
O17 S4 1.474263 1_555
O18 S3 1.496902 1_555
O19 S5 1.484585 1_556
O20 S6 1.489470 1_555
O21 S7 1.490198 1_555
O22 S8 1.481231 1_555
O23 S6 1.468040 1_554
O24 S5 1.468040 1_556
O25 S3 1.481231 1_555
O26 S4 1.490198 1_555
O27 S5 1.489470 1_555
O28 S6 1.484585 1_554
O29 S8 1.496902 1_555
O30 S7 1.474263 1_555
O31 S8 1.453700 1_555
O32 S7 1.479149 1_555
O33 S6 1.477080 1_555
O34 S7 1.490255 1_545
O35 S9 1.490255 1_565
O36 S8 1.489858 1_555
O37 S10 1.489858 1_555
O38 S11 1.477080 1_555
O39 S9 1.479149 1_555
O40 S9 1.474263 1_555
O41 S10 1.453700 1_555
O42 S10 1.496902 1_555
O43 S11 1.484585 1_555
O44 S1 1.481231 1_555
O45 S0 1.489470 1_555
O46 S2 1.490198 1_555
O47 S0 1.468040 1_555
