# generated using pymatgen
data_V2O3F
_symmetry_space_group_name_H-M   'P 1'
_cell_length_a   4.66308334
_cell_length_b   4.66308334
_cell_length_c   15.24241500
_cell_angle_alpha   90.00000000
_cell_angle_beta   90.00000000
_cell_angle_gamma   93.54686686
_symmetry_Int_Tables_number   1
_chemical_formula_structural   V2O3F
_chemical_formula_sum   'V10 O15 F5'
_cell_volume   330.80149172
_cell_formula_units_Z   5
loop_
 _symmetry_equiv_pos_site_id
 _symmetry_equiv_pos_as_xyz
  1  'x, y, z'
loop_
 _atom_site_type_symbol
 _atom_site_label
 _atom_site_symmetry_multiplicity
 _atom_site_fract_x
 _atom_site_fract_y
 _atom_site_fract_z
 _atom_site_occupancy
  V  V0  1  0.99951300  0.00048700  0.29945700  1
  V  V1  1  0.00744700  0.99255300  0.50000000  1
  V  V2  1  0.99951300  0.00048700  0.70054300  1
  V  V3  1  0.98362600  0.01637400  0.09867800  1
  V  V4  1  0.98362600  0.01637400  0.90132200  1
  V  V5  1  0.46047300  0.53952700  0.59996300  1
  V  V6  1  0.53751600  0.46248400  0.20097200  1
  V  V7  1  0.51399300  0.48600700  0.00000000  1
  V  V8  1  0.53751600  0.46248400  0.79902800  1
  V  V9  1  0.46047300  0.53952700  0.40003700  1
  O  O0  1  0.80310000  0.19690000  0.80046100  1
  O  O1  1  0.80618600  0.19381400  0.00000000  1
  O  O2  1  0.80310000  0.19690000  0.19953900  1
  O  O3  1  0.30763200  0.30773900  0.69970400  1
  O  O4  1  0.30564000  0.30883100  0.50000000  1
  O  O5  1  0.30763200  0.30773900  0.30029600  1
  O  O6  1  0.30170900  0.29442200  0.10334000  1
  O  O7  1  0.30170900  0.29442200  0.89666000  1
  O  O8  1  0.69226100  0.69236800  0.69970400  1
  O  O9  1  0.69116900  0.69436000  0.50000000  1
  O  O10  1  0.69226100  0.69236800  0.30029600  1
  O  O11  1  0.70557800  0.69829100  0.10334000  1
  O  O12  1  0.70557800  0.69829100  0.89666000  1
  O  O13  1  0.19740000  0.80260000  0.60056500  1
  O  O14  1  0.19740000  0.80260000  0.39943500  1
  F  F0  1  0.79930900  0.20069100  0.59955600  1
  F  F1  1  0.79930900  0.20069100  0.40044400  1
  F  F2  1  0.19950900  0.80049100  0.19881400  1
  F  F3  1  0.19950900  0.80049100  0.80118600  1
  F  F4  1  0.20031300  0.79968700  0.00000000  1
loop_
_geom_bond_atom_site_label_1
_geom_bond_atom_site_label_2
_geom_bond_distance
_geom_bond_site_symmetry_2
O0 V8 1.804914 1_555
O0 V4 1.966838 1_555
O0 V2 2.025094 1_555
O1 V3 1.927754 1_555
O1 V4 1.927754 1_554
O1 V7 1.985604 1_555
O2 V6 1.804914 1_555
O2 V3 1.966838 1_555
O2 V0 2.025094 1_555
O3 V2 1.965339 1_455
O3 V8 1.966242 1_555
O3 V5 1.972857 1_555
O4 V1 1.963383 1_545
O4 V9 1.975860 1_555
O4 V5 1.975860 1_555
O5 V0 1.965339 1_455
O5 V6 1.966242 1_555
O5 V9 1.972857 1_555
O6 V3 1.910025 1_455
O6 V6 1.982730 1_555
O6 V7 2.037081 1_555
O7 V4 1.910025 1_455
O7 V8 1.982730 1_555
O7 V7 2.037081 1_556
O8 V2 1.965339 1_565
O8 V8 1.966242 1_555
O8 V5 1.972857 1_555
O9 V1 1.963383 1_655
O9 V9 1.975860 1_555
O9 V5 1.975860 1_555
O10 V0 1.965339 1_565
O10 V6 1.966242 1_555
O10 V9 1.972857 1_555
O11 V3 1.910025 1_565
O11 V6 1.982730 1_555
O11 V7 2.037081 1_555
O12 V4 1.910025 1_565
O12 V8 1.982730 1_555
O12 V7 2.037081 1_556
O13 V5 1.787742 1_555
O13 V1 2.003966 1_555
O13 V2 2.032395 1_465
O14 V9 1.787742 1_555
O14 V1 2.003966 1_555
O14 V0 2.032395 1_465
F0 V2 2.054346 1_555
F0 V1 2.074433 1_645
F0 V5 2.302576 1_555
F1 V0 2.054346 1_555
F1 V1 2.074433 1_645
F1 V9 2.302576 1_555
F2 V0 2.049482 1_465
F2 V3 2.117035 1_465
F2 V6 2.297170 1_555
F3 V2 2.049482 1_465
F3 V4 2.117035 1_465
F3 V8 2.297170 1_555
F4 V3 2.104887 1_465
F4 V4 2.104887 1_464
F4 V7 2.131619 1_555
