# generated using pymatgen
data_Mn(SbO3)2
_symmetry_space_group_name_H-M   'P 1'
_cell_length_a   6.66959762
_cell_length_b   6.66997386
_cell_length_c   10.55550005
_cell_angle_alpha   108.43066159
_cell_angle_beta   71.57037485
_cell_angle_gamma   90.00632844
_symmetry_Int_Tables_number   1
_chemical_formula_structural   Mn(SbO3)2
_chemical_formula_sum   'Mn4 Sb8 O24'
_cell_volume   420.03054509
_cell_formula_units_Z   4
loop_
 _symmetry_equiv_pos_site_id
 _symmetry_equiv_pos_as_xyz
  1  'x, y, z'
loop_
 _atom_site_type_symbol
 _atom_site_label
 _atom_site_symmetry_multiplicity
 _atom_site_fract_x
 _atom_site_fract_y
 _atom_site_fract_z
 _atom_site_occupancy
  Mn  Mn0  1  0.33338891  0.66661873  0.33333367  1
  Mn  Mn1  1  0.08328521  0.41674992  0.83333256  1
  Mn  Mn2  1  0.83339276  0.16661482  0.33333724  1
  Mn  Mn3  1  0.58329543  0.91674699  0.83333650  1
  Sb  Sb0  1  0.99950534  0.00049366  0.00096938  1
  Sb  Sb1  1  0.49949355  0.50049280  0.00097242  1
  Sb  Sb2  1  0.66710749  0.33287037  0.66568980  1
  Sb  Sb3  1  0.16711873  0.83286765  0.66567600  1
  Sb  Sb4  1  0.41716966  0.08282809  0.16565808  1
  Sb  Sb5  1  0.91716086  0.58280873  0.16565863  1
  Sb  Sb6  1  0.24953379  0.25043966  0.50100337  1
  Sb  Sb7  1  0.74952476  0.75043842  0.50101302  1
  O  O0  1  0.39613096  0.41664386  0.83334111  1
  O  O1  1  0.89615131  0.91663860  0.83332873  1
  O  O2  1  0.33336651  0.35382625  0.33333418  1
  O  O3  1  0.83335711  0.85381203  0.33334294  1
  O  O4  1  0.33332395  0.97945521  0.33332011  1
  O  O5  1  0.83331370  0.47946893  0.33333158  1
  O  O6  1  0.77047987  0.41669391  0.83333501  1
  O  O7  1  0.27048932  0.91668416  0.83331957  1
  O  O8  1  0.72019432  0.07899173  0.15789243  1
  O  O9  1  0.22019166  0.57900005  0.15791212  1
  O  O10  1  0.54480445  0.25435273  0.50877399  1
  O  O11  1  0.04482037  0.75434505  0.50875686  1
  O  O12  1  0.49566495  0.20518079  0.00875463  1
  O  O13  1  0.99566966  0.70517753  0.00875751  1
  O  O14  1  0.17101753  0.52979988  0.65790022  1
  O  O15  1  0.67100298  0.02979733  0.65791798  1
  O  O16  1  0.49567512  0.80354993  0.00872768  1
  O  O17  1  0.99567978  0.30355083  0.00872621  1
  O  O18  1  0.17099600  0.12818093  0.65794239  1
  O  O19  1  0.67098892  0.62818896  0.65795328  1
  O  O20  1  0.12190177  0.07898286  0.15787313  1
  O  O21  1  0.62187177  0.57898897  0.15788708  1
  O  O22  1  0.94646650  0.25436425  0.50880361  1
  O  O23  1  0.44646399  0.75435638  0.50878298  1
loop_
_geom_bond_atom_site_label_1
_geom_bond_atom_site_label_2
_geom_bond_distance
_geom_bond_site_symmetry_2
Mn0 O2 2.086319 1_555
Mn0 O4 2.086657 1_555
Mn0 O21 2.129822 1_555
Mn0 O11 2.130059 1_555
Mn0 O23 2.130417 1_555
Mn0 O9 2.130668 1_555
Mn1 O6 2.086278 1_455
Mn1 O0 2.086584 1_555
Mn1 O13 2.129525 1_456
Mn1 O18 2.129936 1_555
Mn1 O14 2.130199 1_555
Mn1 O17 2.130459 1_456
Mn2 O3 2.086405 1_545
Mn2 O5 2.086748 1_555
Mn2 O20 2.130024 1_655
Mn2 O10 2.130213 1_555
Mn2 O22 2.130573 1_555
Mn2 O8 2.130893 1_555
Mn3 O7 2.086347 1_555
Mn3 O1 2.086597 1_555
Mn3 O12 2.129515 1_566
Mn3 O19 2.129853 1_555
Mn3 O15 2.130070 1_565
Mn3 O16 2.130427 1_556
O0 Sb2 2.015683 1_555
O0 Sb1 2.016031 1_556
O1 Sb3 2.015653 1_655
O1 Sb0 2.016084 1_566
O2 Sb4 2.015949 1_555
O2 Sb6 2.016532 1_555
O3 Sb5 2.016015 1_555
O3 Sb7 2.016487 1_555
O4 Sb6 2.015931 1_565
O4 Sb4 2.016407 1_565
O5 Sb7 2.015860 1_555
O5 Sb5 2.016374 1_555
O6 Sb1 2.015649 1_556
O6 Sb2 2.016203 1_555
O7 Sb0 2.015706 1_466
O7 Sb3 2.016180 1_555
O8 Sb4 1.996488 1_555
O8 Sb0 1.997244 1_555
O9 Sb5 1.996586 1_455
O9 Sb1 1.997282 1_555
O10 Sb6 1.996613 1_555
O10 Sb2 1.997185 1_555
O11 Sb7 1.996680 1_455
O11 Sb3 1.997195 1_555
O12 Sb1 1.997044 1_555
O12 Sb4 1.997343 1_555
O13 Sb0 1.997093 1_565
O13 Sb5 1.997393 1_555
O14 Sb3 1.996858 1_555
O14 Sb6 1.997390 1_555
O15 Sb2 1.996905 1_555
O15 Sb7 1.997423 1_545
O16 Sb1 1.996848 1_555
O16 Sb4 1.997183 1_565
O17 Sb0 1.996844 1_555
O17 Sb5 1.997102 1_555
O18 Sb3 1.996873 1_545
O18 Sb6 1.997251 1_555
O19 Sb2 1.996919 1_555
O19 Sb7 1.997221 1_555
O20 Sb4 1.996647 1_555
O20 Sb0 1.997491 1_455
O21 Sb5 1.996739 1_555
O21 Sb1 1.997511 1_555
O22 Sb6 1.996669 1_655
O22 Sb2 1.997283 1_555
O23 Sb7 1.996716 1_555
O23 Sb3 1.997254 1_555
