# generated using pymatgen
data_SrPO4
_symmetry_space_group_name_H-M   'P 1'
_cell_length_a   6.88454200
_cell_length_b   7.28006722
_cell_length_c   7.30942188
_cell_angle_alpha   101.30153112
_cell_angle_beta   96.74789703
_cell_angle_gamma   89.59018593
_symmetry_Int_Tables_number   1
_chemical_formula_structural   SrPO4
_chemical_formula_sum   'Sr4 P4 O16'
_cell_volume   356.70803941
_cell_formula_units_Z   4
loop_
 _symmetry_equiv_pos_site_id
 _symmetry_equiv_pos_as_xyz
  1  'x, y, z'
loop_
 _atom_site_type_symbol
 _atom_site_label
 _atom_site_symmetry_multiplicity
 _atom_site_fract_x
 _atom_site_fract_y
 _atom_site_fract_z
 _atom_site_occupancy
  Sr  Sr0  1  0.44703700  0.30476600  0.24463100  1
  Sr  Sr1  1  0.55296300  0.69523400  0.75536900  1
  Sr  Sr2  1  0.85760900  0.18447600  0.68902400  1
  Sr  Sr3  1  0.14239100  0.81552400  0.31097600  1
  P  P0  1  0.62347200  0.79615500  0.28975700  1
  P  P1  1  0.37652800  0.20384500  0.71024300  1
  P  P2  1  0.94971800  0.29535500  0.21726600  1
  P  P3  1  0.05028200  0.70464500  0.78273400  1
  O  O0  1  0.80496800  0.87484000  0.42530500  1
  O  O1  1  0.19503200  0.12516000  0.57469500  1
  O  O2  1  0.50648700  0.66067500  0.37755600  1
  O  O3  1  0.49351300  0.33932500  0.62244400  1
  O  O4  1  0.68336300  0.69595700  0.09721000  1
  O  O5  1  0.31663700  0.30404300  0.90279000  1
  O  O6  1  0.48534300  0.95687500  0.24805300  1
  O  O7  1  0.51465700  0.04312500  0.75194700  1
  O  O8  1  0.07299500  0.11536700  0.17722300  1
  O  O9  1  0.92700500  0.88463300  0.82277700  1
  O  O10  1  0.81497100  0.30790200  0.03571400  1
  O  O11  1  0.18502900  0.69209800  0.96428600  1
  O  O12  1  0.09785000  0.46046600  0.27404900  1
  O  O13  1  0.90215000  0.53953400  0.72595100  1
  O  O14  1  0.81629900  0.29068500  0.37179300  1
  O  O15  1  0.18370100  0.70931500  0.62820700  1
loop_
_geom_bond_atom_site_label_1
_geom_bond_atom_site_label_2
_geom_bond_distance
_geom_bond_site_symmetry_2
O0 P0 1.538808 1_555
O0 Sr3 2.565461 1_655
O0 Sr2 2.659479 1_565
O1 P1 1.538808 1_555
O1 Sr2 2.565461 1_455
O1 Sr3 2.659479 1_545
O2 P0 1.553775 1_555
O2 Sr0 2.600007 1_555
O2 Sr1 2.704304 1_555
O2 Sr3 2.771068 1_555
O3 P1 1.553775 1_555
O3 Sr1 2.600007 1_555
O3 Sr0 2.704304 1_555
O3 Sr2 2.771068 1_555
O4 P0 1.553251 1_555
O4 Sr1 2.552850 1_554
O5 P1 1.553251 1_555
O5 Sr0 2.552850 1_556
O6 P0 1.556283 1_555
O6 Sr0 2.549179 1_565
O6 Sr3 2.705654 1_555
O7 P1 1.556283 1_555
O7 Sr1 2.549179 1_545
O7 Sr2 2.705654 1_555
O8 P2 1.554049 1_455
O8 Sr3 2.580850 1_545
O8 Sr0 2.874280 1_555
O9 P3 1.554049 1_655
O9 Sr2 2.580850 1_565
O9 Sr1 2.874280 1_555
O10 P2 1.544976 1_555
O10 Sr2 2.567842 1_554
O10 Sr0 3.110037 1_555
O11 P3 1.544976 1_555
O11 Sr3 2.567842 1_556
O11 Sr1 3.110037 1_555
O12 P2 1.542620 1_455
O12 Sr3 2.562566 1_555
O12 Sr0 2.664061 1_555
O13 P3 1.542620 1_655
O13 Sr2 2.562566 1_555
O13 Sr1 2.664061 1_555
O14 P2 1.542704 1_555
O14 Sr2 2.569056 1_555
O14 Sr0 2.610660 1_555
O15 P3 1.542704 1_555
O15 Sr3 2.569056 1_555
O15 Sr1 2.610660 1_555
