# generated using pymatgen
data_Li3Co2(PO4)3
_symmetry_space_group_name_H-M   'P 1'
_cell_length_a   8.71419200
_cell_length_b   8.71296200
_cell_length_c   14.77152596
_cell_angle_alpha   54.78666485
_cell_angle_beta   90.00000000
_cell_angle_gamma   90.00000000
_symmetry_Int_Tables_number   1
_chemical_formula_structural   Li3Co2(PO4)3
_chemical_formula_sum   'Li12 Co8 P12 O48'
_cell_volume   916.31766548
_cell_formula_units_Z   4
loop_
 _symmetry_equiv_pos_site_id
 _symmetry_equiv_pos_as_xyz
  1  'x, y, z'
loop_
 _atom_site_type_symbol
 _atom_site_label
 _atom_site_symmetry_multiplicity
 _atom_site_fract_x
 _atom_site_fract_y
 _atom_site_fract_z
 _atom_site_occupancy
  Li  Li0  1  0.93756500  0.34898900  0.70979500  1
  Li  Li1  1  0.22487700  0.03054300  0.17925900  1
  Li  Li2  1  0.26841400  0.38724000  0.81791900  1
  Li  Li3  1  0.76841400  0.61276000  0.68208100  1
  Li  Li4  1  0.72487700  0.96945700  0.32074100  1
  Li  Li5  1  0.43756500  0.65101100  0.79020500  1
  Li  Li6  1  0.56243500  0.34898900  0.20979500  1
  Li  Li7  1  0.27512300  0.03054300  0.67925900  1
  Li  Li8  1  0.23158600  0.38724000  0.31791900  1
  Li  Li9  1  0.73158600  0.61276000  0.18208100  1
  Li  Li10  1  0.77512300  0.96945700  0.82074100  1
  Li  Li11  1  0.06243500  0.65101100  0.29020500  1
  Co  Co0  1  0.45789700  0.63596800  0.60316200  1
  Co  Co1  1  0.95789700  0.36403200  0.89683800  1
  Co  Co2  1  0.54021400  0.13568400  0.10878400  1
  Co  Co3  1  0.04021400  0.86431600  0.39121600  1
  Co  Co4  1  0.95978600  0.13568400  0.60878400  1
  Co  Co5  1  0.45978600  0.86431600  0.89121600  1
  Co  Co6  1  0.04210300  0.63596800  0.10316200  1
  Co  Co7  1  0.54210300  0.36403200  0.39683800  1
  P  P0  1  0.75473500  0.54324800  0.49975600  1
  P  P1  1  0.60830800  0.25489700  0.85083500  1
  P  P2  1  0.89306100  0.95955200  0.14776200  1
  P  P3  1  0.39306100  0.04044800  0.35223800  1
  P  P4  1  0.10830800  0.74510300  0.64916500  1
  P  P5  1  0.25473500  0.45675200  0.00024400  1
  P  P6  1  0.74526500  0.54324800  0.99975600  1
  P  P7  1  0.89169200  0.25489700  0.35083500  1
  P  P8  1  0.60693900  0.95955200  0.64776200  1
  P  P9  1  0.10693900  0.04044800  0.85223800  1
  P  P10  1  0.39169200  0.74510300  0.14916500  1
  P  P11  1  0.24526500  0.45675200  0.50024400  1
  O  O0  1  0.12932500  0.61649400  0.42912200  1
  O  O1  1  0.33449100  0.47950100  0.58162200  1
  O  O2  1  0.10855800  0.21758100  0.85294400  1
  O  O3  1  0.40752000  0.90055100  0.16783800  1
  O  O4  1  0.65255500  0.54737800  0.58460000  1
  O  O5  1  0.58169400  0.17325700  0.97445400  1
  O  O6  1  0.77460100  0.33496700  0.81565300  1
  O  O7  1  0.01940500  0.91636800  0.23519600  1
  O  O8  1  0.83370500  0.73849000  0.42929900  1
  O  O9  1  0.73600100  0.98725500  0.18322900  1
  O  O10  1  0.94392100  0.13568800  0.03611600  1
  O  O11  1  0.48918800  0.41675400  0.78388600  1
  O  O12  1  0.98918800  0.58324600  0.71611400  1
  O  O13  1  0.44392100  0.86431200  0.46388400  1
  O  O14  1  0.23600100  0.01274500  0.31677100  1
  O  O15  1  0.33370500  0.26151000  0.07070100  1
  O  O16  1  0.51940500  0.08363200  0.26480400  1
  O  O17  1  0.27460100  0.66503300  0.68434700  1
  O  O18  1  0.08169400  0.82674300  0.52554600  1
  O  O19  1  0.15255500  0.45262200  0.91540000  1
  O  O20  1  0.60855800  0.78241900  0.64705600  1
  O  O21  1  0.90752000  0.09944900  0.33216200  1
  O  O22  1  0.83449100  0.52049900  0.91837800  1
  O  O23  1  0.62932500  0.38350600  0.07087800  1
  O  O24  1  0.37067500  0.61649400  0.92912200  1
  O  O25  1  0.16550900  0.47950100  0.08162200  1
  O  O26  1  0.09248000  0.90055100  0.66783800  1
  O  O27  1  0.39144200  0.21758100  0.35294400  1
  O  O28  1  0.84744500  0.54737800  0.08460000  1
  O  O29  1  0.91830600  0.17325700  0.47445400  1
  O  O30  1  0.72539900  0.33496700  0.31565300  1
  O  O31  1  0.48059500  0.91636800  0.73519600  1
  O  O32  1  0.66629500  0.73849000  0.92929900  1
  O  O33  1  0.76399900  0.98725500  0.68322900  1
  O  O34  1  0.55607900  0.13568800  0.53611600  1
  O  O35  1  0.01081200  0.41675400  0.28388600  1
  O  O36  1  0.51081200  0.58324600  0.21611400  1
  O  O37  1  0.05607900  0.86431200  0.96388400  1
  O  O38  1  0.26399900  0.01274500  0.81677100  1
  O  O39  1  0.16629500  0.26151000  0.57070100  1
  O  O40  1  0.98059500  0.08363200  0.76480400  1
  O  O41  1  0.22539900  0.66503300  0.18434700  1
  O  O42  1  0.41830600  0.82674300  0.02554600  1
  O  O43  1  0.34744500  0.45262200  0.41540000  1
  O  O44  1  0.59248000  0.09944900  0.83216200  1
  O  O45  1  0.89144200  0.78241900  0.14705600  1
  O  O46  1  0.66550900  0.52049900  0.41837800  1
  O  O47  1  0.87067500  0.38350600  0.57087800  1
loop_
_geom_bond_atom_site_label_1
_geom_bond_atom_site_label_2
_geom_bond_distance
_geom_bond_site_symmetry_2
Li0 O47 1.982240 1_555
Li0 O40 1.994951 1_555
Li0 O6 2.063105 1_555
Li0 O12 2.144008 1_555
Li0 O2 2.282630 1_655
Li1 O14 1.948385 1_555
Li1 O15 1.949107 1_555
Li1 O7 1.982521 1_545
Li1 O3 2.016131 1_545
Li2 O2 1.873857 1_555
Li2 O11 1.967494 1_555
Li2 O17 2.060772 1_555
Li2 O19 2.088849 1_555
Li3 O20 1.873857 1_555
Li3 O12 1.967494 1_555
Li3 O6 2.060772 1_555
Li3 O4 2.088849 1_555
Li4 O9 1.948385 1_555
Li4 O8 1.949107 1_555
Li4 O16 1.982521 1_565
Li4 O21 2.016131 1_565
Li5 O24 1.982240 1_555
Li5 O31 1.994951 1_555
Li5 O17 2.063105 1_555
Li5 O11 2.144008 1_555
Li5 O20 2.282630 1_555
Li6 O23 1.982240 1_555
Li6 O16 1.994951 1_555
Li6 O30 2.063105 1_555
Li6 O36 2.144008 1_555
Li6 O27 2.282630 1_555
Li7 O38 1.948385 1_555
Li7 O39 1.949107 1_555
Li7 O31 1.982521 1_545
Li7 O26 2.016131 1_545
Li8 O27 1.873857 1_555
Li8 O35 1.967494 1_555
Li8 O41 2.060772 1_555
Li8 O43 2.088849 1_555
Li9 O45 1.873857 1_555
Li9 O36 1.967494 1_555
Li9 O30 2.060772 1_555
Li9 O28 2.088849 1_555
Li10 O33 1.948385 1_555
Li10 O32 1.949107 1_555
Li10 O40 1.982521 1_565
Li10 O44 2.016131 1_565
Li11 O0 1.982240 1_555
Li11 O7 1.994951 1_555
Li11 O41 2.063105 1_555
Li11 O35 2.144008 1_555
Li11 O45 2.282630 1_455
Co0 O13 1.866914 1_555
Co0 O1 1.901708 1_555
Co0 O4 1.947420 1_555
Co0 O17 2.098524 1_555
Co0 O20 2.174039 1_555
Co0 O11 2.229081 1_555
Co1 O10 1.866914 1_556
Co1 O22 1.901708 1_555
Co1 O19 1.947420 1_655
Co1 O6 2.098524 1_555
Co1 O2 2.174039 1_655
Co1 O12 2.229081 1_555
Co2 O5 1.850939 1_554
Co2 O15 2.011354 1_555
Co2 O9 2.037782 1_545
Co2 O23 2.045636 1_555
Co2 O3 2.057722 1_545
Co2 O16 2.084370 1_555
Co3 O18 1.850939 1_555
Co3 O8 2.011354 1_455
Co3 O14 2.037782 1_565
Co3 O0 2.045636 1_555
Co3 O21 2.057722 1_465
Co3 O7 2.084370 1_555
Co4 O29 1.850939 1_555
Co4 O39 2.011354 1_655
Co4 O33 2.037782 1_545
Co4 O47 2.045636 1_555
Co4 O26 2.057722 1_645
Co4 O40 2.084370 1_555
Co5 O42 1.850939 1_556
Co5 O32 2.011354 1_555
Co5 O38 2.037782 1_565
Co5 O24 2.045636 1_555
Co5 O44 2.057722 1_565
Co5 O31 2.084370 1_555
Co6 O37 1.866914 1_554
Co6 O25 1.901708 1_555
Co6 O28 1.947420 1_455
Co6 O41 2.098524 1_555
Co6 O45 2.174039 1_455
Co6 O35 2.229081 1_555
Co7 O34 1.866914 1_555
Co7 O46 1.901708 1_555
Co7 O43 1.947420 1_555
Co7 O30 2.098524 1_555
Co7 O27 2.174039 1_555
Co7 O36 2.229081 1_555
O0 P11 1.541217 1_555
O1 P11 1.537404 1_555
O2 P9 1.549454 1_555
O3 P10 1.536351 1_555
O4 P0 1.554620 1_555
O5 P1 1.547978 1_555
O6 P1 1.561597 1_555
O7 P2 1.568878 1_455
O8 P0 1.552037 1_555
O9 P2 1.533550 1_555
O10 P2 1.533829 1_545
O11 P1 1.560754 1_555
O12 P4 1.560754 1_655
O13 P3 1.533829 1_565
O14 P3 1.533550 1_555
O15 P5 1.552037 1_555
O16 P3 1.568878 1_555
O17 P4 1.561597 1_555
O18 P4 1.547978 1_555
O19 P5 1.554620 1_556
O20 P8 1.549454 1_555
O21 P7 1.536351 1_555
O22 P6 1.537404 1_555
O23 P6 1.541217 1_554
O24 P5 1.541217 1_556
O25 P5 1.537404 1_555
O26 P4 1.536351 1_555
O27 P3 1.549454 1_555
O28 P6 1.554620 1_554
O29 P7 1.547978 1_555
O30 P7 1.561597 1_555
O31 P8 1.568878 1_555
O32 P6 1.552037 1_555
O33 P8 1.533550 1_555
O34 P8 1.533829 1_545
O35 P7 1.560754 1_455
O36 P10 1.560754 1_555
O37 P9 1.533829 1_565
O38 P9 1.533550 1_555
O39 P11 1.552037 1_555
O40 P9 1.568878 1_655
O41 P10 1.561597 1_555
O42 P10 1.547978 1_555
O43 P11 1.554620 1_555
O44 P1 1.536351 1_555
O45 P2 1.549454 1_555
O46 P0 1.537404 1_555
O47 P0 1.541217 1_555
