# generated using pymatgen
data_NbV3Cr2(PO4)6
_symmetry_space_group_name_H-M   'P 1'
_cell_length_a   8.65703681
_cell_length_b   8.64989356
_cell_length_c   8.64989346
_cell_angle_alpha   59.99999553
_cell_angle_beta   60.02728816
_cell_angle_gamma   60.02729159
_symmetry_Int_Tables_number   1
_chemical_formula_structural   NbV3Cr2(PO4)6
_chemical_formula_sum   'Nb1 V3 Cr2 P6 O24'
_cell_volume   458.19968933
_cell_formula_units_Z   1
loop_
 _symmetry_equiv_pos_site_id
 _symmetry_equiv_pos_as_xyz
  1  'x, y, z'
loop_
 _atom_site_type_symbol
 _atom_site_label
 _atom_site_symmetry_multiplicity
 _atom_site_fract_x
 _atom_site_fract_y
 _atom_site_fract_z
 _atom_site_occupancy
  Nb  Nb0  1  0.57088700  0.14303800  0.14303800  1
  V  V0  1  0.07110700  0.64296400  0.64296400  1
  V  V1  1  0.43356500  0.85547900  0.85547900  1
  V  V2  1  0.93058600  0.35647100  0.35647100  1
  Cr  Cr0  1  0.00981500  0.99672800  0.99672800  1
  Cr  Cr1  1  0.50131100  0.49956300  0.49956300  1
  P  P0  1  0.24268000  0.25286000  0.54923400  1
  P  P1  1  0.24268000  0.95522600  0.25286000  1
  P  P2  1  0.24268000  0.54923400  0.95522600  1
  P  P3  1  0.75185500  0.46444900  0.04107600  1
  P  P4  1  0.75185500  0.04107600  0.74262000  1
  P  P5  1  0.75185500  0.74262000  0.46444900  1
  O  O0  1  0.06857200  0.11671000  0.30806100  1
  O  O1  1  0.06857200  0.50665700  0.11671000  1
  O  O2  1  0.06857200  0.30806100  0.50665700  1
  O  O3  1  0.23668000  0.08581300  0.73932800  1
  O  O4  1  0.42492900  0.19116700  0.38577500  1
  O  O5  1  0.26629900  0.41480900  0.55812800  1
  O  O6  1  0.23668000  0.93817900  0.08581300  1
  O  O7  1  0.26629900  0.76076200  0.41480900  1
  O  O8  1  0.57110600  0.61852000  0.00385800  1
  O  O9  1  0.26629900  0.55812800  0.76076200  1
  O  O10  1  0.76550300  0.26517900  0.06072000  1
  O  O11  1  0.57110600  0.00385800  0.80651500  1
  O  O12  1  0.42492900  0.99812900  0.19116700  1
  O  O13  1  0.23668000  0.73932800  0.93817900  1
  O  O14  1  0.73532900  0.44194400  0.23886400  1
  O  O15  1  0.42492900  0.38577500  0.99812900  1
  O  O16  1  0.73532900  0.23886400  0.58386300  1
  O  O17  1  0.76550300  0.06072000  0.90859800  1
  O  O18  1  0.73532900  0.58386300  0.44194400  1
  O  O19  1  0.57110600  0.80651500  0.61852000  1
  O  O20  1  0.76550300  0.90859800  0.26517900  1
  O  O21  1  0.93129200  0.69113300  0.49663200  1
  O  O22  1  0.93129200  0.49663200  0.88094400  1
  O  O23  1  0.93129200  0.88094400  0.69113300  1
loop_
_geom_bond_atom_site_label_1
_geom_bond_atom_site_label_2
_geom_bond_distance
_geom_bond_site_symmetry_2
Nb0 O4 1.968778 1_555
Nb0 O15 1.968782 1_554
Nb0 O12 1.968786 1_545
Nb0 O10 2.071075 1_555
Nb0 O20 2.071078 1_545
Nb0 O17 2.071081 1_554
Cr0 O13 2.198984 1_555
Cr0 O3 2.198986 1_565
Cr0 O6 2.198989 1_556
Cr0 O17 2.319501 1_465
Cr0 O20 2.319505 1_456
Cr0 O10 2.319507 1_466
Cr1 O14 2.233414 1_555
Cr1 O18 2.233414 1_555
Cr1 O16 2.233414 1_555
Cr1 O9 2.241064 1_555
Cr1 O7 2.241069 1_555
Cr1 O5 2.241076 1_555
O0 P1 1.514977 1_545
O0 V2 1.948507 1_455
O1 P2 1.514976 1_554
O1 V2 1.948511 1_455
O2 P0 1.514977 1_555
O2 V2 1.948514 1_455
O3 P0 1.551772 1_555
O3 V1 2.049461 1_545
O4 P0 1.567637 1_555
O5 P0 1.555560 1_555
O5 V0 2.041029 1_555
O6 P1 1.551772 1_555
O6 V1 2.049454 1_554
O7 P1 1.555569 1_555
O7 V0 2.041025 1_555
O8 P3 1.522773 1_555
O8 V1 1.929751 1_554
O9 P2 1.555577 1_555
O9 V0 2.041023 1_555
O10 P3 1.592967 1_555
O11 P4 1.522776 1_555
O11 V1 1.929741 1_545
O12 P1 1.567637 1_555
O13 P2 1.551772 1_555
O13 V1 2.049466 1_555
O14 P3 1.560633 1_555
O14 V2 2.038652 1_555
O15 P2 1.567637 1_555
O16 P4 1.560633 1_555
O16 V2 2.038654 1_555
O17 P4 1.592967 1_555
O18 P5 1.560633 1_555
O18 V2 2.038658 1_555
O19 P5 1.522771 1_555
O19 V1 1.929763 1_555
O20 P5 1.592966 1_555
O21 P5 1.518460 1_555
O21 V0 1.933978 1_655
O22 P3 1.518457 1_556
O22 V0 1.933986 1_655
O23 P4 1.518455 1_565
O23 V0 1.933993 1_655
