# generated using pymatgen
data_Li8HfO6
_symmetry_space_group_name_H-M   'P 1'
_cell_length_a   5.72349469
_cell_length_b   5.72349469
_cell_length_c   10.91143000
_cell_angle_alpha   90.00000000
_cell_angle_beta   90.00000000
_cell_angle_gamma   120.00000798
_symmetry_Int_Tables_number   1
_chemical_formula_structural   Li8HfO6
_chemical_formula_sum   'Li16 Hf2 O12'
_cell_volume   309.55287094
_cell_formula_units_Z   2
loop_
 _symmetry_equiv_pos_site_id
 _symmetry_equiv_pos_as_xyz
  1  'x, y, z'
loop_
 _atom_site_type_symbol
 _atom_site_label
 _atom_site_symmetry_multiplicity
 _atom_site_fract_x
 _atom_site_fract_y
 _atom_site_fract_z
 _atom_site_occupancy
  Li  Li0  1  0.00000000  0.67785600  0.76848800  1
  Li  Li1  1  0.00000000  0.59074000  0.12735000  1
  Li  Li2  1  0.00000000  0.40926000  0.62735000  1
  Li  Li3  1  0.00000000  0.32214400  0.26848800  1
  Li  Li4  1  0.33333300  0.66666700  0.40726300  1
  Li  Li5  1  0.33333300  0.66666700  0.90726300  1
  Li  Li6  1  0.32214400  0.32214400  0.76848800  1
  Li  Li7  1  0.40926000  0.40926000  0.12735000  1
  Li  Li8  1  0.59074000  0.59074000  0.62735000  1
  Li  Li9  1  0.32214400  0.00000000  0.26848800  1
  Li  Li10  1  0.67785600  0.67785600  0.26848800  1
  Li  Li11  1  0.40926000  0.00000000  0.62735000  1
  Li  Li12  1  0.66666700  0.33333300  0.90726300  1
  Li  Li13  1  0.66666700  0.33333300  0.40726300  1
  Li  Li14  1  0.59074000  0.00000000  0.12735000  1
  Li  Li15  1  0.67785600  0.00000000  0.76848800  1
  Hf  Hf0  1  0.00000000  0.00000000  0.99556500  1
  Hf  Hf1  1  0.00000000  0.00000000  0.49556500  1
  O  O0  1  0.00000000  0.67060500  0.94851500  1
  O  O1  1  0.00000000  0.32939500  0.44851500  1
  O  O2  1  0.33333300  0.66666700  0.21292100  1
  O  O3  1  0.00000000  0.00000000  0.17665000  1
  O  O4  1  0.00000000  0.00000000  0.67665000  1
  O  O5  1  0.33333300  0.66666700  0.71292100  1
  O  O6  1  0.32939500  0.32939500  0.94851500  1
  O  O7  1  0.32939500  0.00000000  0.44851500  1
  O  O8  1  0.67060500  0.67060500  0.44851500  1
  O  O9  1  0.66666700  0.33333300  0.71292100  1
  O  O10  1  0.66666700  0.33333300  0.21292100  1
  O  O11  1  0.67060500  0.00000000  0.94851500  1
loop_
_geom_bond_atom_site_label_1
_geom_bond_atom_site_label_2
_geom_bond_distance
_geom_bond_site_symmetry_2
Li0 O0 1.964790 1_555
Li0 O5 2.033153 1_555
Li0 O9 2.033156 1_455
Li0 O4 2.098507 1_565
Li1 O2 1.967583 1_555
Li1 O10 1.967584 1_455
Li1 O0 2.004170 1_554
Li1 O3 2.403372 1_565
Li2 O9 1.967583 1_455
Li2 O5 1.967584 1_555
Li2 O1 2.004170 1_555
Li2 O4 2.403372 1_555
Li3 O1 1.964790 1_555
Li3 O10 2.033153 1_455
Li3 O2 2.033156 1_555
Li3 O3 2.098507 1_555
Li4 O7 1.971276 1_565
Li4 O1 1.971279 1_555
Li4 O8 1.971282 1_555
Li4 O2 2.120549 1_555
Li5 O0 1.971276 1_555
Li5 O11 1.971279 1_565
Li5 O6 1.971282 1_555
Li5 O5 2.120549 1_555
Li6 O6 1.964790 1_555
Li6 O5 2.033158 1_555
Li6 O9 2.033158 1_555
Li6 O4 2.098507 1_555
Li7 O2 1.967588 1_555
Li7 O10 1.967588 1_555
Li7 O6 2.004170 1_554
Li7 O3 2.403372 1_555
Li8 O9 1.967588 1_555
Li8 O5 1.967588 1_555
Li8 O8 2.004170 1_555
Li8 O4 2.403372 1_665
Li9 O7 1.964790 1_555
Li9 O2 2.033153 1_545
Li9 O10 2.033156 1_555
Li9 O3 2.098507 1_555
Li10 O8 1.964790 1_555
Li10 O10 2.033158 1_555
Li10 O2 2.033158 1_555
Li10 O3 2.098507 1_665
Li11 O5 1.967583 1_545
Li11 O9 1.967584 1_555
Li11 O7 2.004170 1_555
Li11 O4 2.403372 1_555
Li12 O11 1.971276 1_555
Li12 O0 1.971279 1_655
Li12 O6 1.971282 1_555
Li12 O9 2.120549 1_555
Li13 O1 1.971276 1_655
Li13 O7 1.971279 1_555
Li13 O8 1.971282 1_555
Li13 O10 2.120549 1_555
Li14 O10 1.967583 1_555
Li14 O2 1.967584 1_545
Li14 O11 2.004170 1_554
Li14 O3 2.403372 1_655
Li15 O11 1.964790 1_555
Li15 O9 2.033153 1_555
Li15 O5 2.033156 1_545
Li15 O4 2.098507 1_655
Hf0 O6 1.953940 1_555
Hf0 O11 1.953940 1_455
Hf0 O0 1.953940 1_545
Hf0 O3 1.975896 1_556
Hf1 O8 1.953940 1_445
Hf1 O1 1.953940 1_555
Hf1 O7 1.953940 1_555
Hf1 O4 1.975896 1_555
