# generated using pymatgen
data_Zr3Zn3N
_symmetry_space_group_name_H-M   'P 1'
_cell_length_a   8.54780027
_cell_length_b   8.54779193
_cell_length_c   8.54776272
_cell_angle_alpha   60.00140653
_cell_angle_beta   60.00157846
_cell_angle_gamma   60.00153678
_symmetry_Int_Tables_number   1
_chemical_formula_structural   Zr3Zn3N
_chemical_formula_sum   'Zr12 Zn12 N4'
_cell_volume   441.63207628
_cell_formula_units_Z   4
loop_
 _symmetry_equiv_pos_site_id
 _symmetry_equiv_pos_as_xyz
  1  'x, y, z'
loop_
 _atom_site_type_symbol
 _atom_site_label
 _atom_site_symmetry_multiplicity
 _atom_site_fract_x
 _atom_site_fract_y
 _atom_site_fract_z
 _atom_site_occupancy
  Zr  Zr0  1  0.81271234  0.18729648  0.18727601  1
  Zr  Zr1  1  0.18729083  0.81271689  0.18727835  1
  Zr  Zr2  1  0.81271078  0.81271659  0.18727592  1
  Zr  Zr3  1  0.18727532  0.81271624  0.81271599  1
  Zr  Zr4  1  0.81271254  0.18729097  0.81270517  1
  Zr  Zr5  1  0.18727541  0.18729210  0.81271766  1
  Zr  Zr6  1  0.43728470  0.06272771  0.06270344  1
  Zr  Zr7  1  0.06271812  0.43728414  0.06271416  1
  Zr  Zr8  1  0.43728476  0.43728461  0.06270286  1
  Zr  Zr9  1  0.06270964  0.43728570  0.43728070  1
  Zr  Zr10  1  0.43728208  0.06272065  0.43727623  1
  Zr  Zr11  1  0.06270968  0.06272333  0.43728096  1
  Zn  Zn0  1  0.41971124  0.41970786  0.74087696  1
  Zn  Zn1  1  0.41971020  0.41970710  0.41971120  1
  Zn  Zn2  1  0.74087566  0.41970742  0.41971228  1
  Zn  Zn3  1  0.41971271  0.74086699  0.41971421  1
  Zn  Zn4  1  0.83029268  0.83028886  0.50912560  1
  Zn  Zn5  1  0.83029731  0.83029373  0.83029914  1
  Zn  Zn6  1  0.50912395  0.83028877  0.83029450  1
  Zn  Zn7  1  0.83029412  0.50911628  0.83029524  1
  Zn  Zn8  1  0.62501374  0.62499541  0.12499608  1
  Zn  Zn9  1  0.62500321  0.62498464  0.62500817  1
  Zn  Zn10  1  0.12499817  0.62499292  0.62501650  1
  Zn  Zn11  1  0.62500328  0.12500325  0.62500853  1
  N  N0  1  0.12499277  0.12499292  0.62501952  1
  N  N1  1  0.12499678  0.12499680  0.12499948  1
  N  N2  1  0.62501332  0.12499418  0.12499690  1
  N  N3  1  0.12499667  0.62500547  0.12499924  1
loop_
_geom_bond_atom_site_label_1
_geom_bond_atom_site_label_2
_geom_bond_distance
_geom_bond_site_symmetry_2
Zn0 Zn9 2.596600 1_555
Zn0 Zn11 2.596659 1_555
Zn0 Zn10 2.596681 1_555
Zn0 Zn1 2.745256 1_555
Zn0 Zn3 2.745271 1_555
Zn0 Zn2 2.745310 1_555
Zn0 Zr8 2.908882 1_556
Zn0 Zr6 2.908977 1_556
Zn0 Zr7 2.909088 1_556
Zn0 Zr4 3.126962 1_555
Zn0 Zr5 3.127024 1_555
Zn0 Zr3 3.127052 1_555
Zn1 Zn11 2.596748 1_555
Zn1 Zn10 2.596779 1_555
Zn1 Zn8 2.596785 1_555
Zn1 Zn3 2.745232 1_555
Zn1 Zn2 2.745264 1_555
Zn1 Zr10 2.909044 1_555
Zn1 Zr9 2.909125 1_555
Zn1 Zr8 2.909162 1_555
Zn1 Zr0 3.127052 1_555
Zn1 Zr5 3.127072 1_555
Zn1 Zr1 3.127094 1_555
Zn2 Zn9 2.596617 1_555
Zn2 Zn8 2.596700 1_555
Zn2 Zn3 2.745285 1_555
Zn2 Zr9 2.908946 1_655
Zn2 Zr11 2.909035 1_655
Zn2 Zr7 2.909129 1_655
Zn2 Zr4 3.126917 1_555
Zn2 Zr0 3.127001 1_555
Zn2 Zr2 3.127040 1_555
Zn3 Zn9 2.596669 1_555
Zn3 Zn8 2.596764 1_555
Zn3 Zr10 2.909039 1_565
Zn3 Zr11 2.909210 1_565
Zn3 Zr6 2.909250 1_565
Zn3 Zr2 3.127017 1_555
Zn3 Zr1 3.127026 1_555
Zn3 Zr3 3.127033 1_555
Zn4 Zn9 2.596741 1_555
Zn4 Zn6 2.745346 1_555
Zn4 Zn5 2.745356 1_555
Zn4 Zn7 2.745357 1_555
Zn4 Zr2 2.909103 1_555
Zn4 Zr1 2.909150 1_655
Zn4 Zr0 2.909194 1_565
Zn4 Zr11 3.127008 1_665
Zn4 Zr9 3.127035 1_655
Zn4 Zr10 3.127105 1_565
Zn5 Zn8 2.596694 1_556
Zn5 Zn6 2.745367 1_555
Zn5 Zn7 2.745388 1_555
Zn5 Zr2 2.908849 1_556
Zn5 Zr3 2.908885 1_655
Zn5 Zr4 2.908976 1_565
Zn5 Zr7 3.127035 1_656
Zn5 Zr6 3.127064 1_566
Zn5 Zr11 3.127089 1_665
Zn6 Zn9 2.596722 1_555
Zn6 Zn8 2.596723 1_556
Zn6 Zn7 2.745371 1_555
Zn6 Zr1 2.909026 1_556
Zn6 Zr3 2.909091 1_555
Zn6 Zr5 2.909181 1_565
Zn6 Zr6 3.126997 1_566
Zn6 Zr8 3.127018 1_556
Zn6 Zr10 3.127120 1_565
Zn7 Zn9 2.596659 1_555
Zn7 Zn8 2.596676 1_556
Zn7 Zr0 2.908953 1_556
Zn7 Zr5 2.908985 1_655
Zn7 Zr4 2.908987 1_555
Zn7 Zr7 3.126985 1_656
Zn7 Zr8 3.127036 1_556
Zn7 Zr9 3.127060 1_655
Zn8 Zr2 3.116854 1_555
Zn8 Zr0 3.116944 1_555
Zn8 Zr7 3.116986 1_655
Zn8 Zr8 3.117090 1_555
Zn8 Zr1 3.117121 1_555
Zn8 Zr6 3.117169 1_565
Zn9 Zr4 3.116907 1_555
Zn9 Zr8 3.116925 1_556
Zn9 Zr9 3.117021 1_655
Zn9 Zr3 3.117166 1_555
Zn9 Zr2 3.117176 1_555
Zn9 Zr10 3.117224 1_565
Zn10 Zn7 2.596694 1_455
Zn10 Zn5 2.596716 1_455
Zn10 Zn3 2.596756 1_555
Zn10 Zn4 2.596765 1_455
Zn10 Zr3 3.116868 1_555
Zn10 Zr7 3.116921 1_556
Zn10 Zr5 3.116958 1_555
Zn10 Zr9 3.117083 1_555
Zn10 Zr11 3.117159 1_565
Zn10 Zr1 3.117199 1_555
Zn11 Zn2 2.596671 1_555
Zn11 Zn5 2.596736 1_545
Zn11 Zn6 2.596775 1_545
Zn11 Zn4 2.596794 1_545
Zn11 Zr4 3.116806 1_555
Zn11 Zr6 3.116911 1_556
Zn11 Zr11 3.117004 1_655
Zn11 Zr10 3.117125 1_555
Zn11 Zr5 3.117149 1_555
Zn11 Zr0 3.117160 1_555
N0 Zr5 2.265621 1_555
N0 Zr3 2.265667 1_545
N0 Zr4 2.265675 1_455
N0 Zr11 2.265771 1_555
N0 Zr10 2.265846 1_555
N0 Zr9 2.265850 1_555
N1 Zr1 2.265689 1_545
N1 Zr5 2.265694 1_554
N1 Zr11 2.265718 1_555
N1 Zr0 2.265723 1_455
N1 Zr7 2.265767 1_555
N1 Zr6 2.265774 1_555
N2 Zr0 2.265630 1_555
N2 Zr2 2.265679 1_545
N2 Zr6 2.265739 1_555
N2 Zr10 2.265753 1_555
N2 Zr4 2.265763 1_554
N2 Zr8 2.265819 1_555
N3 Zr1 2.265681 1_555
N3 Zr7 2.265702 1_555
N3 Zr3 2.265731 1_554
N3 Zr9 2.265739 1_555
N3 Zr2 2.265761 1_455
N3 Zr8 2.265794 1_555
