# generated using pymatgen
data_Li3MnFe2(BO3)3
_symmetry_space_group_name_H-M   'P 1'
_cell_length_a   6.31615302
_cell_length_b   8.22402755
_cell_length_c   8.82105554
_cell_angle_alpha   62.37600254
_cell_angle_beta   69.02716993
_cell_angle_gamma   90.00782015
_symmetry_Int_Tables_number   1
_chemical_formula_structural   Li3MnFe2(BO3)3
_chemical_formula_sum   'Li6 Mn2 Fe4 B6 O18'
_cell_volume   371.35832827
_cell_formula_units_Z   2
loop_
 _symmetry_equiv_pos_site_id
 _symmetry_equiv_pos_as_xyz
  1  'x, y, z'
loop_
 _atom_site_type_symbol
 _atom_site_label
 _atom_site_symmetry_multiplicity
 _atom_site_fract_x
 _atom_site_fract_y
 _atom_site_fract_z
 _atom_site_occupancy
  Li  Li0  1  0.90048200  0.28347000  0.69884800  1
  Li  Li1  1  0.40071000  0.28355200  0.69876400  1
  Li  Li2  1  0.10744500  0.01557500  0.28521200  1
  Li  Li3  1  0.60734900  0.01560400  0.28521400  1
  Li  Li4  1  0.24205500  0.69876200  0.01552000  1
  Li  Li5  1  0.74240100  0.69873700  0.01551100  1
  Mn  Mn0  1  0.50635100  0.37351100  0.98724500  1
  Mn  Mn1  1  0.00632400  0.37358300  0.98731300  1
  Fe  Fe0  1  0.81608300  0.63963300  0.36808100  1
  Fe  Fe1  1  0.68049500  0.99201200  0.63914800  1
  Fe  Fe2  1  0.31645700  0.64062900  0.36686700  1
  Fe  Fe3  1  0.18022400  0.99212200  0.63987900  1
  B  B0  1  0.99882900  0.99759600  0.00227400  1
  B  B1  1  0.49892000  0.99767700  0.00217700  1
  B  B2  1  0.08208200  0.33326100  0.33559300  1
  B  B3  1  0.58230700  0.33326000  0.33553900  1
  B  B4  1  0.41821800  0.66930400  0.66347300  1
  B  B5  1  0.91829400  0.66928300  0.66353500  1
  O  O0  1  0.59615600  0.10832200  0.80755900  1
  O  O1  1  0.09621800  0.10851500  0.80747800  1
  O  O2  1  0.02807200  0.13868400  0.44343400  1
  O  O3  1  0.52841500  0.13866200  0.44339100  1
  O  O4  1  0.94314500  0.08027000  0.11364400  1
  O  O5  1  0.44305700  0.08012500  0.11377000  1
  O  O6  1  0.03900500  0.44181000  0.42179600  1
  O  O7  1  0.53930100  0.44181700  0.42165400  1
  O  O8  1  0.17907700  0.41926000  0.14195500  1
  O  O9  1  0.67900400  0.41920000  0.14189200  1
  O  O10  1  0.36149000  0.47442000  0.77703600  1
  O  O11  1  0.86141700  0.47438800  0.77706300  1
  O  O12  1  0.95768100  0.80290900  0.08448900  1
  O  O13  1  0.45803500  0.80285100  0.08426200  1
  O  O14  1  0.37730400  0.78255600  0.74518000  1
  O  O15  1  0.87754300  0.78258600  0.74516600  1
  O  O16  1  0.51488500  0.74809300  0.46997300  1
  O  O17  1  0.01517200  0.74796200  0.47006300  1
loop_
_geom_bond_atom_site_label_1
_geom_bond_atom_site_label_2
_geom_bond_distance
_geom_bond_site_symmetry_2
Li0 O11 1.971032 1_555
Li0 O6 1.987884 1_655
Li0 O1 2.021599 1_655
Li0 O0 2.021871 1_555
Li1 O10 1.970977 1_555
Li1 O7 1.988224 1_555
Li1 O0 2.021810 1_555
Li1 O1 2.022235 1_555
Li2 O17 1.957982 1_545
Li2 O5 2.005666 1_555
Li2 O4 2.007017 1_455
Li2 O2 2.008474 1_555
Li3 O16 1.957197 1_545
Li3 O5 2.006206 1_555
Li3 O4 2.006786 1_555
Li3 O3 2.007794 1_555
Li4 O14 1.977117 1_554
Li4 O8 1.997656 1_555
Li4 O12 2.007806 1_455
Li4 O13 2.008634 1_555
Li5 O15 1.977061 1_554
Li5 O9 1.997934 1_555
Li5 O12 2.007090 1_555
Li5 O13 2.007266 1_555
Mn0 O5 2.100060 1_556
Mn0 O9 2.175180 1_556
Mn0 O8 2.175748 1_556
Mn0 O11 2.179870 1_555
Mn0 O10 2.179879 1_555
Mn1 O4 2.099637 1_456
Mn1 O9 2.175031 1_456
Mn1 O8 2.175554 1_556
Mn1 O11 2.180399 1_455
Mn1 O10 2.180589 1_555
Fe0 O12 2.035670 1_555
Fe0 O6 2.148759 1_655
Fe0 O7 2.149659 1_555
Fe0 O17 2.176440 1_655
Fe0 O16 2.177734 1_555
Fe1 O0 2.038875 1_565
Fe1 O2 2.147107 1_665
Fe1 O3 2.148359 1_565
Fe1 O15 2.174879 1_555
Fe1 O14 2.175349 1_555
Fe2 O13 2.028231 1_555
Fe2 O6 2.153139 1_555
Fe2 O7 2.154718 1_555
Fe2 O17 2.175923 1_555
Fe2 O16 2.177182 1_555
Fe3 O1 2.033320 1_565
Fe3 O3 2.150972 1_565
Fe3 O2 2.152831 1_565
Fe3 O14 2.174026 1_555
Fe3 O15 2.175067 1_455
B0 O4 1.386805 1_565
B0 O12 1.394714 1_555
B0 O1 1.397404 1_664
B1 O5 1.386947 1_565
B1 O13 1.395842 1_555
B1 O0 1.396010 1_564
B2 O8 1.386948 1_555
B2 O6 1.389469 1_555
B2 O2 1.392079 1_555
B3 O9 1.387044 1_555
B3 O7 1.388926 1_555
B3 O3 1.392229 1_555
B4 O16 1.390793 1_555
B4 O14 1.393908 1_555
B4 O10 1.398093 1_555
B5 O17 1.390676 1_655
B5 O15 1.393779 1_555
B5 O11 1.398138 1_555
