# generated using pymatgen
data_Rb2CdC2NClO8
_symmetry_space_group_name_H-M   'P 1'
_cell_length_a   11.04392600
_cell_length_b   12.47925600
_cell_length_c   15.93362200
_cell_angle_alpha   90.00000000
_cell_angle_beta   90.00000000
_cell_angle_gamma   90.00000000
_symmetry_Int_Tables_number   1
_chemical_formula_structural   Rb2CdC2NClO8
_chemical_formula_sum   'Rb16 Cd8 C16 N8 Cl8 O64'
_cell_volume   2195.97146217
_cell_formula_units_Z   8
loop_
 _symmetry_equiv_pos_site_id
 _symmetry_equiv_pos_as_xyz
  1  'x, y, z'
loop_
 _atom_site_type_symbol
 _atom_site_label
 _atom_site_symmetry_multiplicity
 _atom_site_fract_x
 _atom_site_fract_y
 _atom_site_fract_z
 _atom_site_occupancy
  Rb  Rb0  1  0.94618400  0.35906000  0.88838300  1
  Rb  Rb1  1  0.55381600  0.85906000  0.11161700  1
  Rb  Rb2  1  0.44618400  0.64094000  0.61161700  1
  Rb  Rb3  1  0.05381600  0.14094000  0.38838300  1
  Rb  Rb4  1  0.05381600  0.64094000  0.11161700  1
  Rb  Rb5  1  0.44618400  0.14094000  0.88838300  1
  Rb  Rb6  1  0.55381600  0.35906000  0.38838300  1
  Rb  Rb7  1  0.94618400  0.85906000  0.61161700  1
  Rb  Rb8  1  0.96673600  0.83486200  0.88458400  1
  Rb  Rb9  1  0.53326400  0.33486200  0.11541600  1
  Rb  Rb10  1  0.46673600  0.16513800  0.61541600  1
  Rb  Rb11  1  0.03326400  0.66513800  0.38458400  1
  Rb  Rb12  1  0.03326400  0.16513800  0.11541600  1
  Rb  Rb13  1  0.46673600  0.66513800  0.88458400  1
  Rb  Rb14  1  0.53326400  0.83486200  0.38458400  1
  Rb  Rb15  1  0.96673600  0.33486200  0.61541600  1
  Cd  Cd0  1  0.15736000  0.56936300  0.75434100  1
  Cd  Cd1  1  0.34264000  0.06936300  0.24565900  1
  Cd  Cd2  1  0.65736000  0.43063700  0.74565900  1
  Cd  Cd3  1  0.84264000  0.93063700  0.25434100  1
  Cd  Cd4  1  0.84264000  0.43063700  0.24565900  1
  Cd  Cd5  1  0.65736000  0.93063700  0.75434100  1
  Cd  Cd6  1  0.34264000  0.56936300  0.25434100  1
  Cd  Cd7  1  0.15736000  0.06936300  0.74565900  1
  C  C0  1  0.37333400  0.39905300  0.76028000  1
  C  C1  1  0.12666600  0.89905300  0.23972000  1
  C  C2  1  0.87333400  0.60094700  0.73972000  1
  C  C3  1  0.62666600  0.10094700  0.26028000  1
  C  C4  1  0.62666600  0.60094700  0.23972000  1
  C  C5  1  0.87333400  0.10094700  0.76028000  1
  C  C6  1  0.12666600  0.39905300  0.26028000  1
  C  C7  1  0.37333400  0.89905300  0.73972000  1
  C  C8  1  0.25376000  0.82838800  0.74124000  1
  C  C9  1  0.24624000  0.32838800  0.25876000  1
  C  C10  1  0.75376000  0.17161200  0.75876000  1
  C  C11  1  0.74624000  0.67161200  0.24124000  1
  C  C12  1  0.74624000  0.17161200  0.25876000  1
  C  C13  1  0.75376000  0.67161200  0.74124000  1
  C  C14  1  0.24624000  0.82838800  0.24124000  1
  C  C15  1  0.25376000  0.32838800  0.75876000  1
  N  N0  1  0.24511800  0.32161900  0.00210500  1
  N  N1  1  0.25488200  0.82161900  0.99789500  1
  N  N2  1  0.74511800  0.67838100  0.49789500  1
  N  N3  1  0.75488200  0.17838100  0.50210500  1
  N  N4  1  0.75488200  0.67838100  0.99789500  1
  N  N5  1  0.74511800  0.17838100  0.00210500  1
  N  N6  1  0.25488200  0.32161900  0.50210500  1
  N  N7  1  0.24511800  0.82161900  0.49789500  1
  Cl  Cl0  1  0.14299000  0.58230100  0.91027500  1
  Cl  Cl1  1  0.35701000  0.08230100  0.08972500  1
  Cl  Cl2  1  0.64299000  0.41769900  0.58972500  1
  Cl  Cl3  1  0.85701000  0.91769900  0.41027500  1
  Cl  Cl4  1  0.85701000  0.41769900  0.08972500  1
  Cl  Cl5  1  0.64299000  0.91769900  0.91027500  1
  Cl  Cl6  1  0.35701000  0.58230100  0.41027500  1
  Cl  Cl7  1  0.14299000  0.08230100  0.58972500  1
  O  O0  1  0.97082300  0.65474700  0.73720600  1
  O  O1  1  0.52917700  0.15474700  0.26279400  1
  O  O2  1  0.47082300  0.34525300  0.76279400  1
  O  O3  1  0.02917700  0.84525300  0.23720600  1
  O  O4  1  0.02917700  0.34525300  0.26279400  1
  O  O5  1  0.47082300  0.84525300  0.73720600  1
  O  O6  1  0.52917700  0.65474700  0.23720600  1
  O  O7  1  0.97082300  0.15474700  0.76279400  1
  O  O8  1  0.27250900  0.72836900  0.74109800  1
  O  O9  1  0.22749100  0.22836900  0.25890200  1
  O  O10  1  0.77250900  0.27163100  0.75890200  1
  O  O11  1  0.72749100  0.77163100  0.24109800  1
  O  O12  1  0.72749100  0.27163100  0.25890200  1
  O  O13  1  0.77250900  0.77163100  0.74109800  1
  O  O14  1  0.22749100  0.72836900  0.24109800  1
  O  O15  1  0.27250900  0.22836900  0.75890200  1
  O  O16  1  0.15327700  0.37598900  0.75707800  1
  O  O17  1  0.34672300  0.87598900  0.24292200  1
  O  O18  1  0.65327700  0.62401100  0.74292200  1
  O  O19  1  0.84672300  0.12401100  0.25707800  1
  O  O20  1  0.84672300  0.62401100  0.24292200  1
  O  O21  1  0.65327700  0.12401100  0.75707800  1
  O  O22  1  0.34672300  0.37598900  0.25707800  1
  O  O23  1  0.15327700  0.87598900  0.74292200  1
  O  O24  1  0.36377000  0.49946900  0.75787800  1
  O  O25  1  0.13623000  0.99946900  0.24212200  1
  O  O26  1  0.86377000  0.50053100  0.74212200  1
  O  O27  1  0.63623000  0.00053100  0.25787800  1
  O  O28  1  0.63623000  0.50053100  0.24212200  1
  O  O29  1  0.86377000  0.00053100  0.75787800  1
  O  O30  1  0.13623000  0.49946900  0.25787800  1
  O  O31  1  0.36377000  0.99946900  0.74212200  1
  O  O32  1  0.15351300  0.54436600  0.61817500  1
  O  O33  1  0.34648700  0.04436600  0.38182500  1
  O  O34  1  0.65351300  0.45563400  0.88182500  1
  O  O35  1  0.84648700  0.95563400  0.11817500  1
  O  O36  1  0.84648700  0.45563400  0.38182500  1
  O  O37  1  0.65351300  0.95563400  0.61817500  1
  O  O38  1  0.34648700  0.54436600  0.11817500  1
  O  O39  1  0.15351300  0.04436600  0.88182500  1
  O  O40  1  0.21412000  0.36343600  0.07101300  1
  O  O41  1  0.28588000  0.86343600  0.92898700  1
  O  O42  1  0.71412000  0.63656400  0.42898700  1
  O  O43  1  0.78588000  0.13656400  0.57101300  1
  O  O44  1  0.78588000  0.63656400  0.92898700  1
  O  O45  1  0.71412000  0.13656400  0.07101300  1
  O  O46  1  0.28588000  0.36343600  0.57101300  1
  O  O47  1  0.21412000  0.86343600  0.42898700  1
  O  O48  1  0.34906100  0.33758000  0.97211200  1
  O  O49  1  0.15093900  0.83758000  0.02788800  1
  O  O50  1  0.84906100  0.66242000  0.52788800  1
  O  O51  1  0.65093900  0.16242000  0.47211200  1
  O  O52  1  0.65093900  0.66242000  0.02788800  1
  O  O53  1  0.84906100  0.16242000  0.97211200  1
  O  O54  1  0.15093900  0.33758000  0.47211200  1
  O  O55  1  0.34906100  0.83758000  0.52788800  1
  O  O56  1  0.17033600  0.26176800  0.96358900  1
  O  O57  1  0.32966400  0.76176800  0.03641100  1
  O  O58  1  0.67033600  0.73823200  0.53641100  1
  O  O59  1  0.82966400  0.23823200  0.46358900  1
  O  O60  1  0.82966400  0.73823200  0.03641100  1
  O  O61  1  0.67033600  0.23823200  0.96358900  1
  O  O62  1  0.32966400  0.26176800  0.46358900  1
  O  O63  1  0.17033600  0.76176800  0.53641100  1
loop_
_geom_bond_atom_site_label_1
_geom_bond_atom_site_label_2
_geom_bond_distance
_geom_bond_site_symmetry_2
Cd0 O32 2.192340 1_555
Cd0 O0 2.335360 1_455
Cd0 O8 2.366240 1_555
Cd0 O16 2.413979 1_555
Cd0 O24 2.441398 1_555
Cd0 Cl0 2.494887 1_555
Cd1 O33 2.192340 1_555
Cd1 O1 2.335360 1_555
Cd1 O9 2.366240 1_555
Cd1 O17 2.413979 1_545
Cd1 O25 2.441398 1_545
Cd1 Cl1 2.494887 1_555
Cd2 O34 2.192340 1_555
Cd2 O2 2.335360 1_555
Cd2 O10 2.366240 1_555
Cd2 O18 2.413979 1_555
Cd2 O26 2.441398 1_555
Cd2 Cl2 2.494887 1_555
Cd3 O35 2.192340 1_555
Cd3 O3 2.335360 1_655
Cd3 O11 2.366240 1_555
Cd3 O19 2.413979 1_565
Cd3 O27 2.441398 1_565
Cd3 Cl3 2.494887 1_555
Cd4 O36 2.192340 1_555
Cd4 O4 2.335360 1_655
Cd4 O12 2.366240 1_555
Cd4 O20 2.413979 1_555
Cd4 O28 2.441398 1_555
Cd4 Cl4 2.494887 1_555
Cd5 O37 2.192340 1_555
Cd5 O5 2.335360 1_555
Cd5 O13 2.366240 1_555
Cd5 O21 2.413979 1_565
Cd5 O29 2.441398 1_565
Cd5 Cl5 2.494887 1_555
Cd6 O38 2.192340 1_555
Cd6 O6 2.335360 1_555
Cd6 O14 2.366240 1_555
Cd6 O22 2.413979 1_555
Cd6 O30 2.441398 1_555
Cd6 Cl6 2.494887 1_555
Cd7 O39 2.192340 1_555
Cd7 O7 2.335360 1_455
Cd7 O15 2.366240 1_555
Cd7 O23 2.413979 1_545
Cd7 O31 2.441398 1_545
Cd7 Cl7 2.494887 1_555
C0 O24 1.258143 1_555
C0 O2 1.269473 1_555
C1 O25 1.258143 1_555
C1 O3 1.269473 1_555
C2 O26 1.258143 1_555
C2 O0 1.269473 1_555
C3 O27 1.258143 1_555
C3 O1 1.269473 1_555
C4 O28 1.258143 1_555
C4 O6 1.269473 1_555
C5 O29 1.258143 1_555
C5 O7 1.269473 1_555
C6 O30 1.258143 1_555
C6 O4 1.269473 1_555
C7 O31 1.258143 1_555
C7 O5 1.269473 1_555
C8 O23 1.258999 1_555
C8 O8 1.265223 1_555
C9 O22 1.258999 1_555
C9 O9 1.265223 1_555
C10 O21 1.258999 1_555
C10 O10 1.265223 1_555
C11 O20 1.258999 1_555
C11 O11 1.265223 1_555
C12 O19 1.258999 1_555
C12 O12 1.265223 1_555
C13 O18 1.258999 1_555
C13 O13 1.265223 1_555
C14 O17 1.258999 1_555
C14 O14 1.265223 1_555
C15 O16 1.258999 1_555
C15 O15 1.265223 1_555
N0 O48 1.259294 1_554
N0 O40 1.262942 1_555
N0 O56 1.271444 1_554
N1 O49 1.259294 1_556
N1 O41 1.262942 1_555
N1 O57 1.271444 1_556
N2 O50 1.259294 1_555
N2 O42 1.262942 1_555
N2 O58 1.271444 1_555
N3 O51 1.259294 1_555
N3 O43 1.262942 1_555
N3 O59 1.271444 1_555
N4 O52 1.259294 1_556
N4 O44 1.262942 1_555
N4 O60 1.271444 1_556
N5 O53 1.259294 1_554
N5 O45 1.262942 1_555
N5 O61 1.271444 1_554
N6 O54 1.259294 1_555
N6 O46 1.262942 1_555
N6 O62 1.271444 1_555
N7 O55 1.259294 1_555
N7 O47 1.262942 1_555
N7 O63 1.271444 1_555
Cl0 Rb4 3.434725 1_556
Cl0 Rb0 3.550628 1_455
Cl0 Rb8 3.726962 1_455
Cl0 Rb13 3.744312 1_555
Cl1 Rb5 3.434725 1_554
Cl1 Rb1 3.550628 1_545
Cl1 Rb9 3.726962 1_555
Cl1 Rb12 3.744312 1_555
Cl2 Rb6 3.434725 1_555
Cl2 Rb2 3.550628 1_555
Cl2 Rb10 3.726962 1_555
Cl2 Rb15 3.744312 1_555
Cl3 Rb7 3.434725 1_555
Cl3 Rb3 3.550628 1_665
Cl3 Rb11 3.726962 1_655
Cl3 Rb14 3.744312 1_555
Cl4 Rb0 3.434725 1_554
Cl4 Rb4 3.550628 1_655
Cl4 Rb12 3.726962 1_655
Cl4 Rb9 3.744312 1_555
Cl5 Rb1 3.434725 1_556
Cl5 Rb5 3.550628 1_565
Cl5 Rb13 3.726962 1_555
Cl5 Rb8 3.744312 1_555
Cl6 Rb2 3.434725 1_555
Cl6 Rb6 3.550628 1_555
Cl6 Rb14 3.726962 1_555
Cl6 Rb11 3.744312 1_555
Cl7 Rb3 3.434725 1_555
Cl7 Rb7 3.550628 1_445
Cl7 Rb15 3.726962 1_455
Cl7 Rb10 3.744312 1_555
O0 Rb8 3.250930 1_555
O0 Rb7 3.252574 1_555
O1 Rb9 3.250930 1_555
O1 Rb6 3.252574 1_555
O2 Rb10 3.250930 1_555
O2 Rb5 3.252574 1_555
O3 Rb11 3.250930 1_555
O3 Rb4 3.252574 1_555
O4 Rb12 3.250930 1_555
O4 Rb3 3.252574 1_555
O5 Rb13 3.250930 1_555
O5 Rb2 3.252574 1_555
O6 Rb14 3.250930 1_555
O6 Rb1 3.252574 1_555
O7 Rb15 3.250930 1_555
O7 Rb0 3.252574 1_555
O8 Rb2 3.020878 1_555
O8 Rb13 3.232760 1_555
O9 Rb3 3.020878 1_555
O9 Rb12 3.232760 1_555
O10 Rb0 3.020878 1_555
O10 Rb15 3.232760 1_555
O11 Rb1 3.020878 1_555
O11 Rb14 3.232760 1_555
O12 Rb6 3.020878 1_555
O12 Rb9 3.232760 1_555
O13 Rb7 3.020878 1_555
O13 Rb8 3.232760 1_555
O14 Rb4 3.020878 1_555
O14 Rb11 3.232760 1_555
O15 Rb5 3.020878 1_555
O15 Rb10 3.232760 1_555
O16 Rb15 3.098791 1_455
O16 Rb0 3.106879 1_455
O17 Rb14 3.098791 1_555
O17 Rb1 3.106879 1_555
O18 Rb13 3.098791 1_555
O18 Rb2 3.106879 1_555
O19 Rb12 3.098791 1_655
O19 Rb3 3.106879 1_655
O20 Rb11 3.098791 1_655
O20 Rb4 3.106879 1_655
O21 Rb10 3.098791 1_555
O21 Rb5 3.106879 1_555
O22 Rb9 3.098791 1_555
O22 Rb6 3.106879 1_555
O23 Rb8 3.098791 1_455
O23 Rb7 3.106879 1_455
O24 Rb2 3.062078 1_555
O24 Rb13 3.105359 1_555
O25 Rb3 3.062078 1_565
O25 Rb12 3.105359 1_565
O26 Rb0 3.062078 1_555
O26 Rb15 3.105359 1_555
O27 Rb1 3.062078 1_545
O27 Rb14 3.105359 1_545
O28 Rb6 3.062078 1_555
O28 Rb9 3.105359 1_555
O29 Rb7 3.062078 1_545
O29 Rb8 3.105359 1_545
O30 Rb4 3.062078 1_555
O30 Rb11 3.105359 1_555
O31 Rb5 3.062078 1_565
O31 Rb10 3.105359 1_565
O32 Rb15 3.330502 1_455
O32 Rb2 3.451190 1_555
O33 Rb14 3.330502 1_545
O33 Rb3 3.451190 1_555
O34 Rb13 3.330502 1_555
O34 Rb0 3.451190 1_555
O35 Rb12 3.330502 1_665
O35 Rb1 3.451190 1_555
O36 Rb11 3.330502 1_655
O36 Rb6 3.451190 1_555
O37 Rb10 3.330502 1_565
O37 Rb7 3.451190 1_555
O38 Rb9 3.330502 1_555
O38 Rb4 3.451190 1_555
O39 Rb8 3.330502 1_445
O39 Rb5 3.451190 1_555
O40 Rb12 3.257869 1_555
O41 Rb13 3.257869 1_555
O42 Rb14 3.257869 1_555
O43 Rb15 3.257869 1_555
O44 Rb8 3.257869 1_555
O45 Rb9 3.257869 1_555
O46 Rb10 3.257869 1_555
O47 Rb11 3.257869 1_555
O48 Rb5 2.992003 1_555
O48 Rb9 3.058320 1_556
O49 Rb4 2.992003 1_555
O49 Rb8 3.058320 1_454
O50 Rb7 2.992003 1_555
O50 Rb11 3.058320 1_655
O51 Rb6 2.992003 1_555
O51 Rb10 3.058320 1_555
O52 Rb1 2.992003 1_555
O52 Rb13 3.058320 1_554
O53 Rb0 2.992003 1_555
O53 Rb12 3.058320 1_656
O54 Rb3 2.992003 1_555
O54 Rb15 3.058320 1_455
O55 Rb2 2.992003 1_555
O55 Rb14 3.058320 1_555
O56 Rb0 3.006366 1_455
O56 Rb12 3.098074 1_556
O57 Rb1 3.006366 1_555
O57 Rb13 3.098074 1_554
O58 Rb2 3.006366 1_555
O58 Rb14 3.098074 1_555
O59 Rb3 3.006366 1_655
O59 Rb15 3.098074 1_555
O60 Rb4 3.006366 1_655
O60 Rb8 3.098074 1_554
O61 Rb5 3.006366 1_555
O61 Rb9 3.098074 1_556
O62 Rb6 3.006366 1_555
O62 Rb10 3.098074 1_555
O63 Rb7 3.006366 1_455
O63 Rb11 3.098074 1_555
