# generated using pymatgen
data_K2BiPCO7
_symmetry_space_group_name_H-M   'P 1'
_cell_length_a   7.28143700
_cell_length_b   5.89232800
_cell_length_c   9.90633694
_cell_angle_alpha   85.60493965
_cell_angle_beta   90.00000000
_cell_angle_gamma   90.00000000
_symmetry_Int_Tables_number   1
_chemical_formula_structural   K2BiPCO7
_chemical_formula_sum   'K4 Bi2 P2 C2 O14'
_cell_volume   423.77772184
_cell_formula_units_Z   2
loop_
 _symmetry_equiv_pos_site_id
 _symmetry_equiv_pos_as_xyz
  1  'x, y, z'
loop_
 _atom_site_type_symbol
 _atom_site_label
 _atom_site_symmetry_multiplicity
 _atom_site_fract_x
 _atom_site_fract_y
 _atom_site_fract_z
 _atom_site_occupancy
  K  K0  1  0.48725900  0.24731600  0.77782200  1
  K  K1  1  0.01274100  0.24731600  0.77782200  1
  K  K2  1  0.51274100  0.75268400  0.22217800  1
  K  K3  1  0.98725900  0.75268400  0.22217800  1
  Bi  Bi0  1  0.75000000  0.78841100  0.62000500  1
  Bi  Bi1  1  0.25000000  0.21158900  0.37999500  1
  P  P0  1  0.25000000  0.71758900  0.58183100  1
  P  P1  1  0.75000000  0.28241100  0.41816900  1
  C  C0  1  0.75000000  0.72266000  0.90173900  1
  C  C1  1  0.25000000  0.27734000  0.09826100  1
  O  O0  1  0.25000000  0.29172900  0.97187000  1
  O  O1  1  0.75000000  0.92370200  0.82941600  1
  O  O2  1  0.75000000  0.54492400  0.82802800  1
  O  O3  1  0.07647100  0.80287000  0.65538700  1
  O  O4  1  0.42352900  0.80287000  0.65538700  1
  O  O5  1  0.75000000  0.18019300  0.57085900  1
  O  O6  1  0.25000000  0.45438700  0.58077000  1
  O  O7  1  0.75000000  0.54561300  0.41923000  1
  O  O8  1  0.25000000  0.81980700  0.42914100  1
  O  O9  1  0.57647100  0.19713000  0.34461300  1
  O  O10  1  0.92352900  0.19713000  0.34461300  1
  O  O11  1  0.25000000  0.45507600  0.17197200  1
  O  O12  1  0.25000000  0.07629800  0.17058400  1
  O  O13  1  0.75000000  0.70827100  0.02813000  1
loop_
_geom_bond_atom_site_label_1
_geom_bond_atom_site_label_2
_geom_bond_distance
_geom_bond_site_symmetry_2
K0 O0 2.612546 1_555
K0 O2 2.667628 1_555
K0 O1 2.721759 1_545
K0 O6 2.814033 1_555
K0 O5 2.853820 1_555
K0 O4 3.005241 1_545
K1 O0 2.612546 1_555
K1 O2 2.667628 1_455
K1 O1 2.721759 1_445
K1 O6 2.814033 1_555
K1 O5 2.853820 1_455
K1 O3 3.005241 1_545
K2 O13 2.612546 1_555
K2 O11 2.667628 1_555
K2 O12 2.721759 1_565
K2 O7 2.814033 1_555
K2 O8 2.853820 1_555
K2 O9 3.005241 1_565
K3 O13 2.612546 1_555
K3 O11 2.667628 1_655
K3 O12 2.721759 1_665
K3 O7 2.814033 1_555
K3 O8 2.853820 1_655
K3 O10 3.005241 1_565
Bi0 O1 2.278704 1_555
Bi0 O5 2.322495 1_565
Bi0 O3 2.405341 1_655
Bi0 O4 2.405341 1_555
Bi0 O2 2.419073 1_555
Bi0 O7 2.537472 1_555
Bi1 O12 2.278704 1_555
Bi1 O8 2.322495 1_545
Bi1 O9 2.405341 1_555
Bi1 O10 2.405341 1_455
Bi1 O11 2.419073 1_555
Bi1 O6 2.537472 1_555
C0 O13 1.248440 1_556
C0 O2 1.321817 1_555
C0 O1 1.336607 1_555
C1 O0 1.248440 1_554
C1 O11 1.321817 1_555
C1 O12 1.336607 1_555
O3 P0 1.560809 1_555
O4 P0 1.560809 1_555
O5 P1 1.584642 1_555
O6 P0 1.551713 1_555
O7 P1 1.551713 1_555
O8 P0 1.584642 1_555
O9 P1 1.560809 1_555
O10 P1 1.560809 1_555
