# generated using pymatgen
data_Zr3N2O3
_symmetry_space_group_name_H-M   'P 1'
_cell_length_a   4.04774557
_cell_length_b   5.69662488
_cell_length_c   10.65139843
_cell_angle_alpha   90.00000000
_cell_angle_beta   90.00000000
_cell_angle_gamma   110.81034114
_symmetry_Int_Tables_number   1
_chemical_formula_structural   Zr3N2O3
_chemical_formula_sum   'Zr6 N4 O6'
_cell_volume   229.58224989
_cell_formula_units_Z   2
loop_
 _symmetry_equiv_pos_site_id
 _symmetry_equiv_pos_as_xyz
  1  'x, y, z'
loop_
 _atom_site_type_symbol
 _atom_site_label
 _atom_site_symmetry_multiplicity
 _atom_site_fract_x
 _atom_site_fract_y
 _atom_site_fract_z
 _atom_site_occupancy
  Zr  Zr0  1  0.19057757  0.38115415  0.25000000  1
  Zr  Zr1  1  0.14340798  0.28681497  0.94220190  1
  Zr  Zr2  1  0.14340798  0.28681497  0.55779810  1
  Zr  Zr3  1  0.80942243  0.61884585  0.75000000  1
  Zr  Zr4  1  0.85659202  0.71318503  0.05779810  1
  Zr  Zr5  1  0.85659202  0.71318503  0.44220190  1
  N  N0  1  0.29853945  0.59707791  0.42097347  1
  N  N1  1  0.29853945  0.59707791  0.07902653  1
  N  N2  1  0.70146055  0.40292209  0.57902653  1
  N  N3  1  0.70146055  0.40292209  0.92097347  1
  O  O0  1  0.24713938  0.49427976  0.75000000  1
  O  O1  1  0.04348030  0.08695860  0.11557786  1
  O  O2  1  0.04348030  0.08695860  0.38442214  1
  O  O3  1  0.75286062  0.50572024  0.25000000  1
  O  O4  1  0.95651970  0.91304140  0.88442214  1
  O  O5  1  0.95651970  0.91304140  0.61557786  1
loop_
_geom_bond_atom_site_label_1
_geom_bond_atom_site_label_2
_geom_bond_distance
_geom_bond_site_symmetry_2
N0 Zr5 2.128245 1_555
N0 Zr5 2.128253 1_455
N0 Zr0 2.153706 1_555
N0 Zr2 2.203071 1_555
N1 Zr4 2.128245 1_555
N1 Zr4 2.128253 1_455
N1 Zr0 2.153706 1_555
N1 Zr1 2.203071 1_554
N2 Zr2 2.128245 1_555
N2 Zr2 2.128253 1_655
N2 Zr3 2.153706 1_555
N2 Zr5 2.203071 1_555
N3 Zr1 2.128245 1_555
N3 Zr1 2.128253 1_655
N3 Zr3 2.153706 1_555
N3 Zr4 2.203071 1_556
O0 Zr3 2.129799 1_455
O0 Zr3 2.129799 1_555
O0 Zr1 2.326279 1_555
O0 Zr2 2.326279 1_555
O1 Zr4 2.083317 1_445
O1 Zr0 2.122310 1_555
O1 Zr1 2.131403 1_554
O2 Zr5 2.083317 1_445
O2 Zr0 2.122310 1_555
O2 Zr2 2.131403 1_555
O3 Zr0 2.129799 1_655
O3 Zr0 2.129799 1_555
O3 Zr5 2.326279 1_555
O3 Zr4 2.326279 1_555
O4 Zr1 2.083317 1_665
O4 Zr3 2.122310 1_555
O4 Zr4 2.131403 1_556
O5 Zr2 2.083317 1_665
O5 Zr3 2.122310 1_555
O5 Zr5 2.131403 1_555
