# generated using pymatgen
data_K2InCl5O
_symmetry_space_group_name_H-M   'P 1'
_cell_length_a   7.79956800
_cell_length_b   10.10823100
_cell_length_c   12.78179500
_cell_angle_alpha   90.00000000
_cell_angle_beta   90.00000000
_cell_angle_gamma   90.00000000
_symmetry_Int_Tables_number   1
_chemical_formula_structural   K2InCl5O
_chemical_formula_sum   'K8 In4 Cl20 O4'
_cell_volume   1007.71460937
_cell_formula_units_Z   4
loop_
 _symmetry_equiv_pos_site_id
 _symmetry_equiv_pos_as_xyz
  1  'x, y, z'
loop_
 _atom_site_type_symbol
 _atom_site_label
 _atom_site_symmetry_multiplicity
 _atom_site_fract_x
 _atom_site_fract_y
 _atom_site_fract_z
 _atom_site_occupancy
  K  K0  1  0.14134600  0.48720600  0.35547000  1
  K  K1  1  0.35865400  0.01279400  0.85547000  1
  K  K2  1  0.85865400  0.98720600  0.64453000  1
  K  K3  1  0.64134600  0.51279400  0.14453000  1
  K  K4  1  0.85865400  0.51279400  0.64453000  1
  K  K5  1  0.64134600  0.98720600  0.14453000  1
  K  K6  1  0.14134600  0.01279400  0.35547000  1
  K  K7  1  0.35865400  0.48720600  0.85547000  1
  In  In0  1  0.20407900  0.75000000  0.10285700  1
  In  In1  1  0.29592100  0.75000000  0.60285700  1
  In  In2  1  0.79592100  0.25000000  0.89714300  1
  In  In3  1  0.70407900  0.25000000  0.39714300  1
  Cl  Cl0  1  0.89965300  0.75000000  0.19620800  1
  Cl  Cl1  1  0.60034700  0.75000000  0.69620800  1
  Cl  Cl2  1  0.10034700  0.25000000  0.80379200  1
  Cl  Cl3  1  0.39965300  0.25000000  0.30379200  1
  Cl  Cl4  1  0.37299300  0.75000000  0.26940100  1
  Cl  Cl5  1  0.12700700  0.75000000  0.76940100  1
  Cl  Cl6  1  0.62700700  0.25000000  0.73059900  1
  Cl  Cl7  1  0.87299300  0.25000000  0.23059900  1
  Cl  Cl8  1  0.46663100  0.75000000  0.98926100  1
  Cl  Cl9  1  0.03336900  0.75000000  0.48926100  1
  Cl  Cl10  1  0.53336900  0.25000000  0.01073900  1
  Cl  Cl11  1  0.96663100  0.25000000  0.51073900  1
  Cl  Cl12  1  0.19616100  0.50111700  0.09772100  1
  Cl  Cl13  1  0.30383900  0.99888300  0.59772100  1
  Cl  Cl14  1  0.80383900  0.00111700  0.90227900  1
  Cl  Cl15  1  0.69616100  0.49888300  0.40227900  1
  Cl  Cl16  1  0.80383900  0.49888300  0.90227900  1
  Cl  Cl17  1  0.69616100  0.00111700  0.40227900  1
  Cl  Cl18  1  0.19616100  0.99888300  0.09772100  1
  Cl  Cl19  1  0.30383900  0.50111700  0.59772100  1
  O  O0  1  0.97220300  0.75000000  0.00290000  1
  O  O1  1  0.52779700  0.75000000  0.50290000  1
  O  O2  1  0.02779700  0.25000000  0.99710000  1
  O  O3  1  0.47220300  0.25000000  0.49710000  1
loop_
_geom_bond_atom_site_label_1
_geom_bond_atom_site_label_2
_geom_bond_distance
_geom_bond_site_symmetry_2
In0 O0 2.214301 1_455
In1 O1 2.214301 1_555
In2 O2 2.214301 1_655
In3 O3 2.214301 1_555
Cl0 In0 2.657338 1_655
Cl0 K3 3.200685 1_555
Cl0 K5 3.200685 1_555
Cl1 In1 2.657338 1_555
Cl1 K4 3.200685 1_555
Cl1 K2 3.200685 1_555
Cl2 In2 2.657338 1_455
Cl2 K7 3.200685 1_555
Cl2 K1 3.200685 1_555
Cl3 In3 2.657338 1_555
Cl3 K0 3.200685 1_555
Cl3 K6 3.200685 1_555
Cl4 In0 2.503435 1_555
Cl4 K0 3.395726 1_555
Cl4 K6 3.395726 1_565
Cl4 K5 3.560532 1_555
Cl4 K3 3.560532 1_555
Cl5 In1 2.503435 1_555
Cl5 K1 3.395726 1_565
Cl5 K7 3.395726 1_555
Cl5 K2 3.560532 1_455
Cl5 K4 3.560532 1_455
Cl6 In2 2.503435 1_555
Cl6 K2 3.395726 1_545
Cl6 K4 3.395726 1_555
Cl6 K7 3.560532 1_555
Cl6 K1 3.560532 1_555
Cl7 In3 2.503435 1_555
Cl7 K3 3.395726 1_555
Cl7 K5 3.395726 1_545
Cl7 K0 3.560532 1_655
Cl7 K6 3.560532 1_655
Cl8 In0 2.510307 1_556
Cl8 K1 3.269561 1_565
Cl8 K7 3.269561 1_555
Cl8 K5 3.397761 1_556
Cl8 K3 3.397761 1_556
Cl9 In1 2.510307 1_555
Cl9 K6 3.269561 1_565
Cl9 K0 3.269561 1_555
Cl9 K4 3.397761 1_455
Cl9 K2 3.397761 1_455
Cl10 In2 2.510307 1_554
Cl10 K3 3.269561 1_555
Cl10 K5 3.269561 1_545
Cl10 K7 3.397761 1_554
Cl10 K1 3.397761 1_554
Cl11 In3 2.510307 1_555
Cl11 K2 3.269561 1_545
Cl11 K4 3.269561 1_555
Cl11 K0 3.397761 1_655
Cl11 K6 3.397761 1_655
Cl12 In0 2.517381 1_555
Cl12 K0 3.325095 1_555
Cl12 K7 3.348690 1_554
Cl12 K3 3.525397 1_555
Cl13 In1 2.517381 1_555
Cl13 K1 3.325095 1_565
Cl13 K6 3.348690 1_565
Cl13 K2 3.525397 1_455
Cl14 In2 2.517381 1_555
Cl14 K2 3.325095 1_545
Cl14 K5 3.348690 1_546
Cl14 K1 3.525397 1_555
Cl15 In3 2.517381 1_555
Cl15 K3 3.325095 1_555
Cl15 K4 3.348690 1_555
Cl15 K0 3.525397 1_655
Cl16 In2 2.517381 1_555
Cl16 K4 3.325095 1_555
Cl16 K3 3.348690 1_556
Cl16 K7 3.525397 1_555
Cl17 In3 2.517381 1_555
Cl17 K5 3.325095 1_545
Cl17 K2 3.348690 1_545
Cl17 K6 3.525397 1_655
Cl18 In0 2.517381 1_555
Cl18 K6 3.325095 1_565
Cl18 K1 3.348690 1_564
Cl18 K5 3.525397 1_555
Cl19 In1 2.517381 1_555
Cl19 K7 3.325095 1_555
Cl19 K0 3.348690 1_555
Cl19 K4 3.525397 1_455
