# generated using pymatgen
data_Cu4OF6
_symmetry_space_group_name_H-M   'P 1'
_cell_length_a   6.86611600
_cell_length_b   6.86611600
_cell_length_c   5.14219300
_cell_angle_alpha   90.00000000
_cell_angle_beta   90.00000000
_cell_angle_gamma   90.00000000
_symmetry_Int_Tables_number   1
_chemical_formula_structural   Cu4OF6
_chemical_formula_sum   'Cu8 O2 F12'
_cell_volume   242.42122728
_cell_formula_units_Z   2
loop_
 _symmetry_equiv_pos_site_id
 _symmetry_equiv_pos_as_xyz
  1  'x, y, z'
loop_
 _atom_site_type_symbol
 _atom_site_label
 _atom_site_symmetry_multiplicity
 _atom_site_fract_x
 _atom_site_fract_y
 _atom_site_fract_z
 _atom_site_occupancy
  Cu  Cu0  1  0.00000000  0.24379900  0.31458600  1
  Cu  Cu1  1  0.74379900  0.50000000  0.81458600  1
  Cu  Cu2  1  0.25620100  0.50000000  0.81458600  1
  Cu  Cu3  1  0.00000000  0.75620100  0.31458600  1
  Cu  Cu4  1  0.50000000  0.74379900  0.18541400  1
  Cu  Cu5  1  0.24379900  0.00000000  0.68541400  1
  Cu  Cu6  1  0.75620100  0.00000000  0.68541400  1
  Cu  Cu7  1  0.50000000  0.25620100  0.18541400  1
  O  O0  1  0.50000000  0.50000000  0.00000000  1
  O  O1  1  0.00000000  0.00000000  0.50000000  1
  F  F0  1  0.71090100  0.28909900  0.50000000  1
  F  F1  1  0.28909900  0.28909900  0.50000000  1
  F  F2  1  0.00000000  0.50000000  0.67481100  1
  F  F3  1  0.00000000  0.50000000  0.17481100  1
  F  F4  1  0.28909900  0.71090100  0.50000000  1
  F  F5  1  0.71090100  0.71090100  0.50000000  1
  F  F6  1  0.78909900  0.78909900  0.00000000  1
  F  F7  1  0.21090100  0.78909900  0.00000000  1
  F  F8  1  0.50000000  0.00000000  0.82518900  1
  F  F9  1  0.50000000  0.00000000  0.32518900  1
  F  F10  1  0.78909900  0.21090100  0.00000000  1
  F  F11  1  0.21090100  0.21090100  0.00000000  1
loop_
_geom_bond_atom_site_label_1
_geom_bond_atom_site_label_2
_geom_bond_distance
_geom_bond_site_symmetry_2
Cu0 F3 1.900278 1_555
Cu0 O1 1.926435 1_555
Cu0 F11 2.182833 1_555
Cu0 F10 2.182833 1_455
Cu0 F0 2.223950 1_455
Cu0 F1 2.223950 1_555
Cu1 F2 1.900278 1_655
Cu1 O0 1.926435 1_556
Cu1 F5 2.182833 1_555
Cu1 F0 2.182833 1_555
Cu1 F6 2.223950 1_556
Cu1 F10 2.223950 1_556
Cu2 F2 1.900278 1_555
Cu2 O0 1.926435 1_556
Cu2 F1 2.182833 1_555
Cu2 F4 2.182833 1_555
Cu2 F7 2.223950 1_556
Cu2 F11 2.223950 1_556
Cu3 F3 1.900278 1_555
Cu3 O1 1.926435 1_565
Cu3 F7 2.182833 1_555
Cu3 F6 2.182833 1_455
Cu3 F5 2.223950 1_455
Cu3 F4 2.223950 1_555
Cu4 F9 1.900278 1_565
Cu4 O0 1.926435 1_555
Cu4 F5 2.182833 1_555
Cu4 F4 2.182833 1_555
Cu4 F6 2.223950 1_555
Cu4 F7 2.223950 1_555
Cu5 F8 1.900278 1_555
Cu5 O1 1.926435 1_555
Cu5 F11 2.182833 1_556
Cu5 F7 2.182833 1_546
Cu5 F4 2.223950 1_545
Cu5 F1 2.223950 1_555
Cu6 F8 1.900278 1_555
Cu6 O1 1.926435 1_655
Cu6 F10 2.182833 1_556
Cu6 F6 2.182833 1_546
Cu6 F0 2.223950 1_555
Cu6 F5 2.223950 1_545
Cu7 F9 1.900278 1_555
Cu7 O0 1.926435 1_555
Cu7 F0 2.182833 1_555
Cu7 F1 2.182833 1_555
Cu7 F10 2.223950 1_555
Cu7 F11 2.223950 1_555
