# generated using pymatgen
data_Li2Mn3(BO3)3
_symmetry_space_group_name_H-M   'P 1'
_cell_length_a   5.22815400
_cell_length_b   6.14799023
_cell_length_c   11.99016150
_cell_angle_alpha   84.17619139
_cell_angle_beta   78.74787800
_cell_angle_gamma   86.59313817
_symmetry_Int_Tables_number   1
_chemical_formula_structural   Li2Mn3(BO3)3
_chemical_formula_sum   'Li4 Mn6 B6 O18'
_cell_volume   375.72621429
_cell_formula_units_Z   2
loop_
 _symmetry_equiv_pos_site_id
 _symmetry_equiv_pos_as_xyz
  1  'x, y, z'
loop_
 _atom_site_type_symbol
 _atom_site_label
 _atom_site_symmetry_multiplicity
 _atom_site_fract_x
 _atom_site_fract_y
 _atom_site_fract_z
 _atom_site_occupancy
  Li  Li0  1  0.04152400  0.41174400  0.09895800  1
  Li  Li1  1  0.37155500  0.76584100  0.42369600  1
  Li  Li2  1  0.96277800  0.59166600  0.89791900  1
  Li  Li3  1  0.69326500  0.10098800  0.75646100  1
  Mn  Mn0  1  0.59747900  0.24986700  0.99979600  1
  Mn  Mn1  1  0.94703900  0.57651800  0.32509100  1
  Mn  Mn2  1  0.26945000  0.91231900  0.66120300  1
  Mn  Mn3  1  0.74269300  0.08815800  0.33469700  1
  Mn  Mn4  1  0.06734200  0.42309500  0.66475200  1
  Mn  Mn5  1  0.39667100  0.76910100  0.00890500  1
  B  B0  1  0.84002900  0.83652600  0.11511000  1
  B  B1  1  0.48412900  0.47783600  0.22436000  1
  B  B2  1  0.82059400  0.80663900  0.55408200  1
  B  B3  1  0.17999400  0.18624800  0.44514100  1
  B  B4  1  0.51559800  0.53812100  0.78174000  1
  B  B5  1  0.15765600  0.14893000  0.88417600  1
  O  O0  1  0.61390100  0.94211300  0.09436000  1
  O  O1  1  0.99878100  0.72110100  0.03380300  1
  O  O2  1  0.39696400  0.44946900  0.12536200  1
  O  O3  1  0.90323400  0.84490200  0.22374700  1
  O  O4  1  0.33174900  0.57737400  0.31289600  1
  O  O5  1  0.74296600  0.40799500  0.23285300  1
  O  O6  1  0.07867400  0.73855300  0.56509200  1
  O  O7  1  0.74364500  0.77762500  0.45235400  1
  O  O8  1  0.66135000  0.90601300  0.64129400  1
  O  O9  1  0.34243700  0.07363600  0.36792900  1
  O  O10  1  0.21427000  0.18179600  0.55907700  1
  O  O11  1  0.95064200  0.29644800  0.41946400  1
  O  O12  1  0.26317000  0.62683500  0.76269000  1
  O  O13  1  0.66316900  0.41476900  0.70386500  1
  O  O14  1  0.06732000  0.10880600  0.78580100  1
  O  O15  1  0.58847700  0.56714500  0.88451700  1
  O  O16  1  0.00828500  0.27379200  0.96413300  1
  O  O17  1  0.40738300  0.07268200  0.89635100  1
loop_
_geom_bond_atom_site_label_1
_geom_bond_atom_site_label_2
_geom_bond_distance
_geom_bond_site_symmetry_2
Li0 O16 1.941191 1_554
Li0 O2 1.975601 1_555
Li0 O1 1.998409 1_455
Li0 O5 2.008275 1_455
Li1 O4 1.897305 1_555
Li1 O9 1.949322 1_565
Li1 O7 2.047034 1_555
Li1 O6 2.051041 1_555
Li2 O1 1.929714 1_556
Li2 O15 2.010154 1_555
Li2 O12 2.029202 1_655
Li2 O16 2.051762 1_655
Li3 O8 1.954775 1_545
Li3 O13 1.974773 1_555
Li3 O17 2.017646 1_555
Li3 O14 2.057569 1_655
Mn0 O0 2.110971 1_546
Mn0 O2 2.116054 1_556
Mn0 O16 2.117480 1_655
Mn0 O17 2.143995 1_555
Mn0 O15 2.277053 1_555
Mn1 O11 1.963325 1_555
Mn1 O3 1.976958 1_555
Mn1 O4 1.988255 1_655
Mn1 O5 2.063810 1_555
Mn1 O7 2.140380 1_555
Mn2 O10 1.999198 1_565
Mn2 O8 2.014472 1_555
Mn2 O12 2.029823 1_555
Mn2 O6 2.071024 1_555
Mn2 O14 2.099122 1_565
Mn3 O9 2.057985 1_555
Mn3 O3 2.128296 1_545
Mn3 O11 2.171557 1_555
Mn3 O5 2.206822 1_555
Mn3 O7 2.256120 1_545
Mn4 O10 2.064579 1_555
Mn4 O13 2.075791 1_455
Mn4 O6 2.169909 1_555
Mn4 O12 2.217265 1_555
Mn4 O14 2.295856 1_555
Mn5 O0 2.071225 1_555
Mn5 O1 2.077569 1_455
Mn5 O15 2.101369 1_554
Mn5 O17 2.186243 1_564
Mn5 O2 2.292375 1_555
B0 O0 1.368124 1_555
B0 O1 1.377487 1_555
B0 O3 1.411439 1_555
B1 O4 1.371107 1_555
B1 O2 1.381890 1_555
B1 O5 1.414864 1_555
B2 O8 1.374521 1_555
B2 O7 1.387660 1_555
B2 O6 1.415761 1_655
B3 O9 1.345747 1_555
B3 O10 1.409428 1_555
B3 O11 1.413081 1_455
B4 O13 1.354716 1_555
B4 O15 1.389805 1_555
B4 O12 1.448499 1_555
B5 O16 1.379918 1_555
B5 O17 1.390478 1_555
B5 O14 1.401965 1_555
