# generated using pymatgen
data_Li4Ti3Nb5O16
_symmetry_space_group_name_H-M   'P 1'
_cell_length_a   6.10603454
_cell_length_b   6.10603454
_cell_length_c   9.81208715
_cell_angle_alpha   89.27755444
_cell_angle_beta   89.27755444
_cell_angle_gamma   59.14462164
_symmetry_Int_Tables_number   1
_chemical_formula_structural   Li4Ti3Nb5O16
_chemical_formula_sum   'Li4 Ti3 Nb5 O16'
_cell_volume   314.01952579
_cell_formula_units_Z   1
loop_
 _symmetry_equiv_pos_site_id
 _symmetry_equiv_pos_as_xyz
  1  'x, y, z'
loop_
 _atom_site_type_symbol
 _atom_site_label
 _atom_site_symmetry_multiplicity
 _atom_site_fract_x
 _atom_site_fract_y
 _atom_site_fract_z
 _atom_site_occupancy
  Li  Li0  1  0.67200400  0.67200400  0.90914900  1
  Li  Li1  1  0.01192900  0.01192900  0.99134300  1
  Li  Li2  1  0.00002800  0.00002800  0.49770100  1
  Li  Li3  1  0.33465500  0.33465500  0.39091400  1
  Ti  Ti0  1  0.83806900  0.33934200  0.21467600  1
  Ti  Ti1  1  0.33934200  0.83806900  0.21467600  1
  Ti  Ti2  1  0.17218100  0.17218100  0.71961600  1
  Nb  Nb0  1  0.66636500  0.66636500  0.49665200  1
  Nb  Nb1  1  0.82986800  0.82986800  0.20917900  1
  Nb  Nb2  1  0.34136600  0.34136600  0.95981200  1
  Nb  Nb3  1  0.62649100  0.19015100  0.72565300  1
  Nb  Nb4  1  0.19015100  0.62649100  0.72565300  1
  O  O0  1  0.83539500  0.33187000  0.59388700  1
  O  O1  1  0.52362200  0.52362200  0.33819000  1
  O  O2  1  0.66078800  0.66078800  0.10419700  1
  O  O3  1  0.00138000  0.00138000  0.31184500  1
  O  O4  1  0.00028100  0.00028100  0.80724500  1
  O  O5  1  0.33187000  0.83539500  0.59388700  1
  O  O6  1  0.96147400  0.51285800  0.34271700  1
  O  O7  1  0.51285800  0.96147400  0.34271700  1
  O  O8  1  0.16347700  0.16347700  0.10484400  1
  O  O9  1  0.82814700  0.82814700  0.59124400  1
  O  O10  1  0.47435600  0.00773000  0.84369100  1
  O  O11  1  0.00773000  0.47435600  0.84369100  1
  O  O12  1  0.32114800  0.32114800  0.59005700  1
  O  O13  1  0.67611100  0.16328100  0.09739900  1
  O  O14  1  0.51042400  0.51042400  0.85016100  1
  O  O15  1  0.16328100  0.67611100  0.09739900  1
loop_
_geom_bond_atom_site_label_1
_geom_bond_atom_site_label_2
_geom_bond_distance
_geom_bond_site_symmetry_2
Li0 O14 1.819088 1_555
Li0 O11 1.876162 1_655
Li0 O10 1.876162 1_565
Li0 O2 1.915808 1_556
Li1 O4 1.812406 1_555
Li1 O8 1.970575 1_556
Li1 O13 2.041629 1_456
Li1 O15 2.041629 1_546
Li2 O3 1.823484 1_555
Li2 O0 1.985418 1_455
Li2 O5 1.985418 1_545
Li2 O9 2.031416 1_445
Li3 O12 1.957192 1_555
Li3 O6 2.017632 1_455
Li3 O7 2.017632 1_545
Li3 O1 2.065390 1_555
Nb0 O9 1.964775 1_555
Nb0 O0 1.990093 1_555
Nb0 O5 1.990093 1_555
Nb0 O6 2.154423 1_555
Nb0 O7 2.154423 1_555
Nb0 O1 2.187343 1_555
Nb1 O15 2.058669 1_655
Nb1 O13 2.058669 1_565
Nb1 O2 2.083211 1_555
Nb1 O3 2.094393 1_665
Nb1 O6 2.115774 1_555
Nb1 O7 2.115774 1_555
Nb2 O14 2.079846 1_555
Nb2 O10 2.108578 1_555
Nb2 O11 2.108578 1_555
Nb2 O15 2.221600 1_556
Nb2 O13 2.221600 1_556
Nb2 O8 2.348830 1_556
Nb3 O12 2.095734 1_555
Nb3 O14 2.106163 1_555
Nb3 O10 2.108733 1_555
Nb3 O4 2.121967 1_655
Nb3 O0 2.260513 1_555
Nb3 O9 2.319945 1_545
Nb4 O12 2.095734 1_555
Nb4 O14 2.106163 1_555
Nb4 O11 2.108733 1_555
Nb4 O4 2.121967 1_565
Nb4 O5 2.260513 1_555
Nb4 O9 2.319945 1_455
O0 Ti2 2.162969 1_655
O1 Ti0 2.044756 1_555
O1 Ti1 2.044756 1_555
O2 Ti0 1.998974 1_555
O2 Ti1 1.998974 1_555
O3 Ti0 2.006357 1_455
O3 Ti1 2.006357 1_545
O4 Ti2 2.006812 1_555
O5 Ti2 2.162969 1_565
O6 Ti0 2.035944 1_555
O7 Ti1 2.035944 1_555
O8 Ti0 2.012236 1_455
O8 Ti1 2.012236 1_545
O10 Ti2 2.005042 1_555
O11 Ti2 2.005042 1_555
O12 Ti2 2.015229 1_555
O13 Ti0 2.146680 1_555
O15 Ti1 2.146680 1_555
