# generated using pymatgen
data_BaLi2NiO3
_symmetry_space_group_name_H-M   'P 1'
_cell_length_a   13.75532400
_cell_length_b   5.43754300
_cell_length_c   11.19042303
_cell_angle_alpha   70.78129371
_cell_angle_beta   90.00000000
_cell_angle_gamma   90.00000000
_symmetry_Int_Tables_number   1
_chemical_formula_structural   BaLi2NiO3
_chemical_formula_sum   'Ba8 Li16 Ni8 O24'
_cell_volume   790.34323857
_cell_formula_units_Z   8
loop_
 _symmetry_equiv_pos_site_id
 _symmetry_equiv_pos_as_xyz
  1  'x, y, z'
loop_
 _atom_site_type_symbol
 _atom_site_label
 _atom_site_symmetry_multiplicity
 _atom_site_fract_x
 _atom_site_fract_y
 _atom_site_fract_z
 _atom_site_occupancy
  Ba  Ba0  1  0.89354500  0.69216700  0.57439600  1
  Ba  Ba1  1  0.69976500  0.04771200  0.67828100  1
  Ba  Ba2  1  0.19976500  0.95228800  0.82171900  1
  Ba  Ba3  1  0.39354500  0.30783300  0.92560400  1
  Ba  Ba4  1  0.60645500  0.69216700  0.07439600  1
  Ba  Ba5  1  0.80023500  0.04771200  0.17828100  1
  Ba  Ba6  1  0.30023500  0.95228800  0.32171900  1
  Ba  Ba7  1  0.10645500  0.30783300  0.42560400  1
  Li  Li0  1  0.16773000  0.74902200  0.58943800  1
  Li  Li1  1  0.49161100  0.23289200  0.51960200  1
  Li  Li2  1  0.35739900  0.77207600  0.62439800  1
  Li  Li3  1  0.56373600  0.50572700  0.68332300  1
  Li  Li4  1  0.06373600  0.49427300  0.81667700  1
  Li  Li5  1  0.85739900  0.22792400  0.87560200  1
  Li  Li6  1  0.66773000  0.25097800  0.91056200  1
  Li  Li7  1  0.00838900  0.23289200  0.01960200  1
  Li  Li8  1  0.99161100  0.76710800  0.98039800  1
  Li  Li9  1  0.33227000  0.74902200  0.08943800  1
  Li  Li10  1  0.14260100  0.77207600  0.12439800  1
  Li  Li11  1  0.93626400  0.50572700  0.18332300  1
  Li  Li12  1  0.43626400  0.49427300  0.31667700  1
  Li  Li13  1  0.64260100  0.22792400  0.37560200  1
  Li  Li14  1  0.50838900  0.76710800  0.48039800  1
  Li  Li15  1  0.83227000  0.25097800  0.41056200  1
  Ni  Ni0  1  0.30868500  0.34435900  0.58267800  1
  Ni  Ni1  1  0.97637000  0.06855900  0.71127800  1
  Ni  Ni2  1  0.47637000  0.93144100  0.78872200  1
  Ni  Ni3  1  0.80868500  0.65564100  0.91732200  1
  Ni  Ni4  1  0.19131500  0.34435900  0.08267800  1
  Ni  Ni5  1  0.52363000  0.06855900  0.21127800  1
  Ni  Ni6  1  0.02363000  0.93144100  0.28872200  1
  Ni  Ni7  1  0.69131500  0.65564100  0.41732200  1
  O  O0  1  0.60314600  0.44621500  0.52808300  1
  O  O1  1  0.26010200  0.04698700  0.55947800  1
  O  O2  1  0.26462400  0.47071500  0.71035200  1
  O  O3  1  0.88214800  0.20399200  0.58926000  1
  O  O4  1  0.49929600  0.84142600  0.64554800  1
  O  O5  1  0.05435500  0.81714300  0.68070400  1
  O  O6  1  0.76462400  0.52928500  0.78964800  1
  O  O7  1  0.55435500  0.18285700  0.81929600  1
  O  O8  1  0.99929600  0.15857400  0.85445200  1
  O  O9  1  0.38214800  0.79600800  0.91074000  1
  O  O10  1  0.89685400  0.44621500  0.02808300  1
  O  O11  1  0.76010200  0.95301300  0.94052200  1
  O  O12  1  0.23989800  0.04698700  0.05947800  1
  O  O13  1  0.10314600  0.55378500  0.97191700  1
  O  O14  1  0.61785200  0.20399200  0.08926000  1
  O  O15  1  0.00070400  0.84142600  0.14554800  1
  O  O16  1  0.44564500  0.81714300  0.18070400  1
  O  O17  1  0.23537600  0.47071500  0.21035200  1
  O  O18  1  0.94564500  0.18285700  0.31929600  1
  O  O19  1  0.50070400  0.15857400  0.35445200  1
  O  O20  1  0.11785200  0.79600800  0.41074000  1
  O  O21  1  0.73537600  0.52928500  0.28964800  1
  O  O22  1  0.73989800  0.95301300  0.44052200  1
  O  O23  1  0.39685400  0.55378500  0.47191700  1
loop_
_geom_bond_atom_site_label_1
_geom_bond_atom_site_label_2
_geom_bond_distance
_geom_bond_site_symmetry_2
Ba0 O3 2.609174 1_555
Ba0 O5 2.702253 1_655
Ba0 O22 2.706271 1_555
Ba0 O3 2.846487 1_565
Ba0 O6 2.885621 1_555
Ba1 O0 2.624680 1_555
Ba1 O3 2.729643 1_555
Ba1 O7 2.791816 1_555
Ba1 O6 2.825383 1_545
Ba1 O22 2.924172 1_545
Ba1 O11 2.927618 1_545
Ba1 O4 3.044134 1_545
Ba2 O13 2.624680 1_555
Ba2 O9 2.729643 1_555
Ba2 O5 2.791816 1_555
Ba2 O2 2.825383 1_565
Ba2 O12 2.924172 1_566
Ba2 O1 2.927618 1_565
Ba2 O8 3.044134 1_465
Ba3 O9 2.609174 1_555
Ba3 O7 2.702253 1_555
Ba3 O12 2.706271 1_556
Ba3 O9 2.846487 1_545
Ba3 O2 2.885621 1_555
Ba4 O14 2.609174 1_555
Ba4 O16 2.702253 1_555
Ba4 O11 2.706271 1_554
Ba4 O14 2.846487 1_565
Ba4 O21 2.885621 1_555
Ba5 O10 2.624680 1_555
Ba5 O14 2.729643 1_555
Ba5 O18 2.791816 1_555
Ba5 O21 2.825383 1_545
Ba5 O11 2.924172 1_544
Ba5 O22 2.927618 1_545
Ba5 O15 3.044134 1_645
Ba6 O23 2.624680 1_555
Ba6 O20 2.729643 1_555
Ba6 O16 2.791816 1_555
Ba6 O17 2.825383 1_565
Ba6 O1 2.924172 1_565
Ba6 O12 2.927618 1_565
Ba6 O19 3.044134 1_565
Ba7 O20 2.609174 1_555
Ba7 O18 2.702253 1_455
Ba7 O1 2.706271 1_555
Ba7 O20 2.846487 1_545
Ba7 O17 2.885621 1_555
Li0 O5 1.965043 1_555
Li0 O1 1.998567 1_565
Li0 O20 2.049015 1_555
Li0 O2 2.132896 1_555
Li1 O0 1.944413 1_555
Li1 O19 2.021408 1_555
Li1 O23 2.101242 1_555
Li1 O4 2.133886 1_545
Li2 O1 1.959224 1_565
Li2 O4 2.016594 1_555
Li2 O2 2.049704 1_555
Li2 O23 2.438929 1_555
Li3 O7 1.911917 1_555
Li3 O0 1.945906 1_555
Li3 O4 1.946379 1_555
Li4 O5 1.911917 1_555
Li4 O13 1.945906 1_555
Li4 O8 1.946379 1_455
Li5 O11 1.959224 1_545
Li5 O8 2.016594 1_555
Li5 O6 2.049704 1_555
Li5 O10 2.438929 1_556
Li6 O7 1.965043 1_555
Li6 O11 1.998567 1_545
Li6 O14 2.049015 1_556
Li6 O6 2.132896 1_555
Li7 O10 1.944413 1_455
Li7 O8 2.021408 1_454
Li7 O13 2.101242 1_554
Li7 O15 2.133886 1_545
Li8 O13 1.944413 1_655
Li8 O15 2.021408 1_656
Li8 O10 2.101242 1_556
Li8 O8 2.133886 1_565
Li9 O16 1.965043 1_555
Li9 O12 1.998567 1_565
Li9 O9 2.049015 1_554
Li9 O17 2.132896 1_555
Li10 O12 1.959224 1_565
Li10 O15 2.016594 1_555
Li10 O17 2.049704 1_555
Li10 O13 2.438929 1_554
Li11 O18 1.911917 1_555
Li11 O10 1.945906 1_555
Li11 O15 1.946379 1_655
Li12 O16 1.911917 1_555
Li12 O23 1.945906 1_555
Li12 O19 1.946379 1_555
Li13 O22 1.959224 1_545
Li13 O19 2.016594 1_555
Li13 O21 2.049704 1_555
Li13 O0 2.438929 1_555
Li14 O23 1.944413 1_555
Li14 O4 2.021408 1_555
Li14 O0 2.101242 1_555
Li14 O19 2.133886 1_565
Li15 O18 1.965043 1_555
Li15 O22 1.998567 1_545
Li15 O3 2.049015 1_555
Li15 O21 2.132896 1_555
Ni0 O23 1.837032 1_555
Ni0 O1 1.845255 1_555
Ni0 O2 1.878004 1_555
Ni1 O8 1.849939 1_555
Ni1 O3 1.850537 1_555
Ni1 O5 1.855967 1_645
Ni2 O4 1.849939 1_555
Ni2 O9 1.850537 1_555
Ni2 O7 1.855967 1_565
Ni3 O10 1.837032 1_556
Ni3 O11 1.845255 1_555
Ni3 O6 1.878004 1_555
Ni4 O13 1.837032 1_554
Ni4 O12 1.845255 1_555
Ni4 O17 1.878004 1_555
Ni5 O19 1.849939 1_555
Ni5 O14 1.850537 1_555
Ni5 O16 1.855967 1_545
Ni6 O15 1.849939 1_555
Ni6 O20 1.850537 1_555
Ni6 O18 1.855967 1_465
Ni7 O0 1.837032 1_555
Ni7 O22 1.845255 1_555
Ni7 O21 1.878004 1_555
