# generated using pymatgen
data_Ca(CuP)2
_symmetry_space_group_name_H-M   'P 1'
_cell_length_a   4.00649082
_cell_length_b   4.00649162
_cell_length_c   5.60514657
_cell_angle_alpha   110.94023039
_cell_angle_beta   110.94024706
_cell_angle_gamma   89.99998920
_symmetry_Int_Tables_number   1
_chemical_formula_structural   Ca(CuP)2
_chemical_formula_sum   'Ca1 Cu2 P2'
_cell_volume   77.63527932
_cell_formula_units_Z   1
loop_
 _symmetry_equiv_pos_site_id
 _symmetry_equiv_pos_as_xyz
  1  'x, y, z'
loop_
 _atom_site_type_symbol
 _atom_site_label
 _atom_site_symmetry_multiplicity
 _atom_site_fract_x
 _atom_site_fract_y
 _atom_site_fract_z
 _atom_site_occupancy
  Ca  Ca0  1  -0.00000000  0.00000000  -0.00000000  1
  Cu  Cu0  1  0.25000000  0.75000000  0.50000000  1
  Cu  Cu1  1  0.75000000  0.25000000  0.50000000  1
  P  P0  1  0.61877935  0.61877935  0.23755770  1
  P  P1  1  0.38122065  0.38122065  0.76244230  1
loop_
_geom_bond_atom_site_label_1
_geom_bond_atom_site_label_2
_geom_bond_distance
_geom_bond_site_symmetry_2
Ca0 P0 3.057131 1_445
Ca0 P1 3.057131 1_554
Ca0 P0 3.057133 1_545
Ca0 P1 3.057133 1_454
Ca0 P0 3.057133 1_455
Ca0 P1 3.057133 1_544
Ca0 P1 3.057136 1_444
Ca0 P0 3.057136 1_555
Ca0 Cu1 3.140209 1_555
Ca0 Cu0 3.140209 1_444
Ca0 Cu1 3.140209 1_454
Ca0 Cu0 3.140209 1_545
Ca0 Cu1 3.140209 1_455
Ca0 Cu0 3.140209 1_544
Ca0 Cu1 3.140210 1_444
Ca0 Cu0 3.140210 1_555
Cu0 P0 2.371520 1_455
Cu0 P1 2.371521 1_565
Cu0 P1 2.371524 1_555
Cu0 P0 2.371524 1_555
Cu1 P1 2.371520 1_655
Cu1 P0 2.371521 1_545
Cu1 P0 2.371524 1_555
Cu1 P1 2.371524 1_555
P0 P1 2.297893 1_554
