# generated using pymatgen
data_Ta3O8
_symmetry_space_group_name_H-M   'P 1'
_cell_length_a   3.92265600
_cell_length_b   9.10856200
_cell_length_c   17.02422600
_cell_angle_alpha   90.00000000
_cell_angle_beta   90.00000000
_cell_angle_gamma   90.00000000
_symmetry_Int_Tables_number   1
_chemical_formula_structural   Ta3O8
_chemical_formula_sum   'Ta12 O32'
_cell_volume   608.27143053
_cell_formula_units_Z   4
loop_
 _symmetry_equiv_pos_site_id
 _symmetry_equiv_pos_as_xyz
  1  'x, y, z'
loop_
 _atom_site_type_symbol
 _atom_site_label
 _atom_site_symmetry_multiplicity
 _atom_site_fract_x
 _atom_site_fract_y
 _atom_site_fract_z
 _atom_site_occupancy
  Ta  Ta0  1  0.00000000  0.68906300  0.25000000  1
  Ta  Ta1  1  0.00000000  0.31093700  0.75000000  1
  Ta  Ta2  1  0.00000000  0.39916200  0.37012700  1
  Ta  Ta3  1  0.00000000  0.60083800  0.62987300  1
  Ta  Ta4  1  0.00000000  0.39916200  0.12987300  1
  Ta  Ta5  1  0.00000000  0.60083800  0.87012700  1
  Ta  Ta6  1  0.00000000  0.81541600  0.44053900  1
  Ta  Ta7  1  0.00000000  0.18458400  0.55946100  1
  Ta  Ta8  1  0.00000000  0.81541600  0.05946100  1
  Ta  Ta9  1  0.00000000  0.18458400  0.94053900  1
  Ta  Ta10  1  0.00000000  0.05681900  0.25000000  1
  Ta  Ta11  1  0.00000000  0.94318100  0.75000000  1
  O  O0  1  0.00000000  0.46109400  0.25000000  1
  O  O1  1  0.00000000  0.53890600  0.75000000  1
  O  O2  1  0.00000000  0.62293000  0.36805200  1
  O  O3  1  0.00000000  0.37707000  0.63194800  1
  O  O4  1  0.00000000  0.62293000  0.13194800  1
  O  O5  1  0.00000000  0.37707000  0.86805200  1
  O  O6  1  0.00000000  0.87755800  0.32480900  1
  O  O7  1  0.00000000  0.12244200  0.67519100  1
  O  O8  1  0.00000000  0.87755800  0.17519100  1
  O  O9  1  0.00000000  0.12244200  0.82480900  1
  O  O10  1  0.00000000  0.19916000  0.33253000  1
  O  O11  1  0.00000000  0.80084000  0.66747000  1
  O  O12  1  0.00000000  0.19916000  0.16747000  1
  O  O13  1  0.00000000  0.80084000  0.83253000  1
  O  O14  1  0.50000000  0.69378100  0.25000000  1
  O  O15  1  0.50000000  0.30621900  0.75000000  1
  O  O16  1  0.00000000  0.33184200  0.47789500  1
  O  O17  1  0.00000000  0.66815800  0.52210500  1
  O  O18  1  0.00000000  0.33184200  0.02210500  1
  O  O19  1  0.00000000  0.66815800  0.97789500  1
  O  O20  1  0.50000000  0.40730000  0.37177600  1
  O  O21  1  0.50000000  0.59270000  0.62822400  1
  O  O22  1  0.50000000  0.40730000  0.12822400  1
  O  O23  1  0.50000000  0.59270000  0.87177600  1
  O  O24  1  0.00000000  0.00000000  0.50000000  1
  O  O25  1  0.00000000  0.00000000  0.00000000  1
  O  O26  1  0.50000000  0.82204800  0.43776800  1
  O  O27  1  0.50000000  0.17795200  0.56223200  1
  O  O28  1  0.50000000  0.82204800  0.06223200  1
  O  O29  1  0.50000000  0.17795200  0.93776800  1
  O  O30  1  0.50000000  0.04909500  0.25000000  1
  O  O31  1  0.50000000  0.95090500  0.75000000  1
loop_
_geom_bond_atom_site_label_1
_geom_bond_atom_site_label_2
_geom_bond_distance
_geom_bond_site_symmetry_2
O0 Ta0 2.076470 1_555
O0 Ta2 2.121445 1_555
O0 Ta4 2.121445 1_555
O1 Ta1 2.076470 1_555
O1 Ta3 2.121445 1_555
O1 Ta5 2.121445 1_555
O2 Ta2 2.038511 1_555
O2 Ta0 2.098077 1_555
O2 Ta6 2.144015 1_555
O3 Ta3 2.038511 1_555
O3 Ta1 2.098077 1_555
O3 Ta7 2.144015 1_555
O4 Ta4 2.038511 1_555
O4 Ta0 2.098077 1_555
O4 Ta8 2.144015 1_555
O5 Ta5 2.038511 1_555
O5 Ta1 2.098077 1_555
O5 Ta9 2.144015 1_555
O6 Ta6 2.049909 1_555
O6 Ta10 2.070758 1_565
O6 Ta0 2.137704 1_555
O7 Ta7 2.049909 1_555
O7 Ta11 2.070758 1_545
O7 Ta1 2.137704 1_555
O8 Ta8 2.049909 1_555
O8 Ta10 2.070758 1_565
O8 Ta0 2.137704 1_555
O9 Ta9 2.049909 1_555
O9 Ta11 2.070758 1_545
O9 Ta1 2.137704 1_555
O10 Ta10 1.911811 1_555
O10 Ta2 1.930901 1_555
O11 Ta11 1.911811 1_555
O11 Ta3 1.930901 1_555
O12 Ta10 1.911811 1_555
O12 Ta4 1.930901 1_555
O13 Ta11 1.911811 1_555
O13 Ta5 1.930901 1_555
O14 Ta0 1.961799 1_555
O14 Ta0 1.961799 1_655
O15 Ta1 1.961799 1_655
O15 Ta1 1.961799 1_555
O16 Ta7 1.930625 1_555
O16 Ta2 1.934426 1_555
O17 Ta6 1.930625 1_555
O17 Ta3 1.934426 1_555
O18 Ta9 1.930625 1_554
O18 Ta4 1.934426 1_555
O19 Ta8 1.930625 1_556
O19 Ta5 1.934426 1_555
O20 Ta2 1.962929 1_655
O20 Ta2 1.962929 1_555
O21 Ta3 1.962929 1_655
O21 Ta3 1.962929 1_555
O22 Ta4 1.962929 1_555
O22 Ta4 1.962929 1_655
O23 Ta5 1.962929 1_655
O23 Ta5 1.962929 1_555
O24 Ta7 1.962513 1_555
O24 Ta6 1.962513 1_545
O25 Ta8 1.962513 1_545
O25 Ta9 1.962513 1_554
O26 Ta6 1.962825 1_555
O26 Ta6 1.962825 1_655
O27 Ta7 1.962825 1_655
O27 Ta7 1.962825 1_555
O28 Ta8 1.962825 1_655
O28 Ta8 1.962825 1_555
O29 Ta9 1.962825 1_655
O29 Ta9 1.962825 1_555
O30 Ta10 1.962589 1_555
O30 Ta10 1.962589 1_655
O31 Ta11 1.962589 1_655
O31 Ta11 1.962589 1_555
