# generated using pymatgen
data_Li4Mn3NiO8
_symmetry_space_group_name_H-M   'P 1'
_cell_length_a   5.88853328
_cell_length_b   5.88853328
_cell_length_c   5.99557458
_cell_angle_alpha   59.67736777
_cell_angle_beta   59.67736777
_cell_angle_gamma   61.00513724
_symmetry_Int_Tables_number   1
_chemical_formula_structural   Li4Mn3NiO8
_chemical_formula_sum   'Li4 Mn3 Ni1 O8'
_cell_volume   147.35076673
_cell_formula_units_Z   1
loop_
 _symmetry_equiv_pos_site_id
 _symmetry_equiv_pos_as_xyz
  1  'x, y, z'
loop_
 _atom_site_type_symbol
 _atom_site_label
 _atom_site_symmetry_multiplicity
 _atom_site_fract_x
 _atom_site_fract_y
 _atom_site_fract_z
 _atom_site_occupancy
  Li  Li0  1  0.00000000  0.50000000  0.50000000  1
  Li  Li1  1  0.50000000  0.50000000  0.00000000  1
  Li  Li2  1  0.00000000  0.00000000  0.00000000  1
  Li  Li3  1  0.50000000  0.00000000  0.50000000  1
  Mn  Mn0  1  0.50000000  0.00000000  0.00000000  1
  Mn  Mn1  1  0.50000000  0.50000000  0.50000000  1
  Mn  Mn2  1  0.00000000  0.50000000  0.00000000  1
  Ni  Ni0  1  0.00000000  0.00000000  0.50000000  1
  O  O0  1  0.26394200  0.26394200  0.71716700  1
  O  O1  1  0.27738700  0.74417600  0.25905600  1
  O  O2  1  0.75037800  0.75037800  0.78733300  1
  O  O3  1  0.74417600  0.27738700  0.25905600  1
  O  O4  1  0.25582400  0.72261300  0.74094400  1
  O  O5  1  0.24962200  0.24962200  0.21266700  1
  O  O6  1  0.72261300  0.25582400  0.74094400  1
  O  O7  1  0.73605800  0.73605800  0.28283300  1
loop_
_geom_bond_atom_site_label_1
_geom_bond_atom_site_label_2
_geom_bond_distance
_geom_bond_site_symmetry_2
Li0 O0 2.040724 1_555
Li0 O7 2.040724 1_455
Li0 O1 2.149229 1_555
Li0 O6 2.149229 1_455
Li0 O2 2.282302 1_455
Li0 O5 2.282302 1_555
Li1 O5 2.069831 1_555
Li1 O2 2.069831 1_554
Li1 O3 2.137762 1_555
Li1 O6 2.137762 1_554
Li1 O4 2.137762 1_554
Li1 O1 2.137762 1_555
Li2 O0 2.173983 1_554
Li2 O7 2.173983 1_445
Li2 O6 2.272312 1_454
Li2 O4 2.272312 1_544
Li2 O3 2.272312 1_455
Li2 O1 2.272312 1_545
Li3 O7 2.040724 1_545
Li3 O0 2.040724 1_555
Li3 O3 2.149229 1_555
Li3 O4 2.149229 1_545
Li3 O2 2.282302 1_545
Li3 O5 2.282302 1_555
Mn0 O5 1.963013 1_555
Mn0 O2 1.963013 1_544
Mn0 O6 1.973857 1_554
Mn0 O1 1.973857 1_545
Mn0 O7 2.201768 1_545
Mn0 O0 2.201768 1_554
Mn1 O0 1.943679 1_555
Mn1 O7 1.943679 1_555
Mn1 O3 1.964724 1_555
Mn1 O6 1.964724 1_555
Mn1 O4 1.964724 1_555
Mn1 O1 1.964724 1_555
Mn2 O5 1.963013 1_555
Mn2 O2 1.963013 1_454
Mn2 O4 1.973857 1_554
Mn2 O3 1.973857 1_455
Mn2 O0 2.201768 1_554
Mn2 O7 2.201768 1_455
Ni0 O2 2.066368 1_445
Ni0 O5 2.066368 1_555
Ni0 O4 2.110336 1_545
Ni0 O1 2.110336 1_545
Ni0 O6 2.110336 1_455
Ni0 O3 2.110336 1_455
