# generated using pymatgen
data_Fe3Co5O16
_symmetry_space_group_name_H-M   'P 1'
_cell_length_a   2.86798600
_cell_length_b   5.24069300
_cell_length_c   19.15952144
_cell_angle_alpha   84.92028709
_cell_angle_beta   90.00000000
_cell_angle_gamma   90.00000000
_symmetry_Int_Tables_number   1
_chemical_formula_structural   Fe3Co5O16
_chemical_formula_sum   'Fe3 Co5 O16'
_cell_volume   286.84107682
_cell_formula_units_Z   1
loop_
 _symmetry_equiv_pos_site_id
 _symmetry_equiv_pos_as_xyz
  1  'x, y, z'
loop_
 _atom_site_type_symbol
 _atom_site_label
 _atom_site_symmetry_multiplicity
 _atom_site_fract_x
 _atom_site_fract_y
 _atom_site_fract_z
 _atom_site_occupancy
  Fe  Fe0  1  0.00000000  0.14214900  0.12966100  1
  Fe  Fe1  1  0.50000000  0.00000000  0.00000000  1
  Fe  Fe2  1  0.00000000  0.85785100  0.87033900  1
  Co  Co0  1  0.00000000  0.62432500  0.62242500  1
  Co  Co1  1  0.50000000  0.50000000  0.50000000  1
  Co  Co2  1  0.00000000  0.37567500  0.37757500  1
  Co  Co3  1  0.50000000  0.26166400  0.25539300  1
  Co  Co4  1  0.50000000  0.73833600  0.74460700  1
  O  O0  1  0.00000000  0.87697500  0.68785300  1
  O  O1  1  0.50000000  0.49176800  0.67956200  1
  O  O2  1  0.00000000  0.37010100  0.55759200  1
  O  O3  1  0.50000000  0.75416900  0.56495600  1
  O  O4  1  0.00000000  0.62989900  0.44240800  1
  O  O5  1  0.50000000  0.24583100  0.43504400  1
  O  O6  1  0.00000000  0.12302500  0.31214700  1
  O  O7  1  0.50000000  0.50823200  0.32043800  1
  O  O8  1  0.00000000  0.40322500  0.20157200  1
  O  O9  1  0.50000000  0.00275600  0.18912600  1
  O  O10  1  0.00000000  0.85610500  0.05669100  1
  O  O11  1  0.50000000  0.27841300  0.07225800  1
  O  O12  1  0.00000000  0.14389500  0.94330900  1
  O  O13  1  0.50000000  0.72158700  0.92774200  1
  O  O14  1  0.00000000  0.59677500  0.79842800  1
  O  O15  1  0.50000000  0.99724400  0.81087400  1
loop_
_geom_bond_atom_site_label_1
_geom_bond_atom_site_label_2
_geom_bond_distance
_geom_bond_site_symmetry_2
Fe0 O11 1.907042 1_455
Fe0 O11 1.907042 1_555
Fe0 O9 1.934078 1_455
Fe0 O9 1.934078 1_555
Fe0 O8 2.025864 1_555
Fe0 O10 2.138443 1_545
Fe1 O10 1.913045 1_645
Fe1 O10 1.913045 1_545
Fe1 O12 1.913045 1_554
Fe1 O12 1.913045 1_654
Fe1 O11 2.098393 1_555
Fe1 O13 2.098393 1_544
Fe2 O13 1.907042 1_455
Fe2 O13 1.907042 1_555
Fe2 O15 1.934078 1_455
Fe2 O15 1.934078 1_555
Fe2 O14 2.025864 1_555
Fe2 O12 2.138443 1_565
Co0 O3 1.897122 1_455
Co0 O3 1.897122 1_555
Co0 O1 1.898069 1_555
Co0 O1 1.898069 1_455
Co0 O2 1.900289 1_555
Co0 O0 1.902235 1_555
Co1 O2 1.898505 1_555
Co1 O2 1.898505 1_655
Co1 O4 1.898505 1_555
Co1 O4 1.898505 1_655
Co1 O5 1.901758 1_555
Co1 O3 1.901758 1_555
Co2 O5 1.897122 1_555
Co2 O5 1.897122 1_455
Co2 O7 1.898069 1_455
Co2 O7 1.898069 1_555
Co2 O4 1.900289 1_555
Co2 O6 1.902235 1_555
Co3 O7 1.872968 1_555
Co3 O8 1.880050 1_555
Co3 O8 1.880050 1_655
Co3 O6 1.904395 1_555
Co3 O6 1.904395 1_655
Co3 O9 1.938588 1_555
Co4 O1 1.872968 1_555
Co4 O14 1.880050 1_555
Co4 O14 1.880050 1_655
Co4 O0 1.904395 1_555
Co4 O0 1.904395 1_655
Co4 O15 1.938588 1_555
