# generated using pymatgen
data_Li3Mn5Cr3O16
_symmetry_space_group_name_H-M   'P 1'
_cell_length_a   5.91125615
_cell_length_b   5.91125615
_cell_length_c   10.19571751
_cell_angle_alpha   73.46529404
_cell_angle_beta   73.46529404
_cell_angle_gamma   59.21135078
_symmetry_Int_Tables_number   1
_chemical_formula_structural   Li3Mn5Cr3O16
_chemical_formula_sum   'Li3 Mn5 Cr3 O16'
_cell_volume   289.19577368
_cell_formula_units_Z   1
loop_
 _symmetry_equiv_pos_site_id
 _symmetry_equiv_pos_as_xyz
  1  'x, y, z'
loop_
 _atom_site_type_symbol
 _atom_site_label
 _atom_site_symmetry_multiplicity
 _atom_site_fract_x
 _atom_site_fract_y
 _atom_site_fract_z
 _atom_site_occupancy
  Li  Li0  1  0.68674200  0.68674200  0.43203200  1
  Li  Li1  1  0.18469700  0.18469700  0.93905300  1
  Li  Li2  1  0.31769500  0.31769500  0.56297700  1
  Mn  Mn0  1  0.49988300  0.49988300  0.00161400  1
  Mn  Mn1  1  0.75092100  0.25050600  0.24717900  1
  Mn  Mn2  1  0.24985200  0.75026800  0.75029200  1
  Mn  Mn3  1  0.25050600  0.75092100  0.24717900  1
  Mn  Mn4  1  0.75026800  0.24985200  0.75029200  1
  Cr  Cr0  1  0.25158100  0.25158100  0.24685900  1
  Cr  Cr1  1  0.00054200  0.00054200  0.49870700  1
  Cr  Cr2  1  0.75043100  0.75043100  0.75156800  1
  O  O0  1  0.60977600  0.16814400  0.12850300  1
  O  O1  1  0.16814400  0.60977600  0.12850300  1
  O  O2  1  0.61417700  0.61417700  0.64564000  1
  O  O3  1  0.11419000  0.11419000  0.14375400  1
  O  O4  1  0.34482400  0.88883500  0.36415500  1
  O  O5  1  0.39596700  0.39596700  0.86821200  1
  O  O6  1  0.88883500  0.34482400  0.36415500  1
  O  O7  1  0.89572700  0.89572700  0.36173200  1
  O  O8  1  0.10579600  0.10579600  0.63672300  1
  O  O9  1  0.60212800  0.60212800  0.13104000  1
  O  O10  1  0.11676400  0.65360100  0.63449700  1
  O  O11  1  0.88887200  0.88887200  0.85169800  1
  O  O12  1  0.65360100  0.11676400  0.63449700  1
  O  O13  1  0.38726600  0.38726600  0.35350400  1
  O  O14  1  0.84018500  0.38528600  0.87081500  1
  O  O15  1  0.38528600  0.84018500  0.87081500  1
loop_
_geom_bond_atom_site_label_1
_geom_bond_atom_site_label_2
_geom_bond_distance
_geom_bond_site_symmetry_2
Li0 O4 1.960840 1_555
Li0 O6 1.960840 1_555
Li0 O7 2.029867 1_555
Li0 O2 2.058172 1_555
Li1 O3 1.972535 1_556
Li1 O15 1.975390 1_545
Li1 O14 1.975390 1_455
Li1 O5 2.052047 1_555
Li2 O10 1.949852 1_555
Li2 O12 1.949852 1_555
Li2 O13 2.018134 1_555
Li2 O8 2.058493 1_555
Mn0 O0 1.916092 1_555
Mn0 O1 1.916092 1_555
Mn0 O9 1.937474 1_555
Mn0 O14 1.968790 1_554
Mn0 O15 1.968790 1_554
Mn0 O5 1.985452 1_554
Mn1 O0 1.929515 1_555
Mn1 O6 1.948110 1_555
Mn1 O3 1.948287 1_655
Mn1 O9 1.953547 1_555
Mn1 O7 1.957574 1_545
Mn1 O13 1.960375 1_555
Mn2 O10 1.926703 1_555
Mn2 O11 1.931357 1_455
Mn2 O15 1.949564 1_555
Mn2 O8 1.956192 1_565
Mn2 O2 1.957217 1_555
Mn2 O5 1.970732 1_555
Mn3 O1 1.929515 1_555
Mn3 O4 1.948110 1_555
Mn3 O3 1.948287 1_565
Mn3 O9 1.953547 1_555
Mn3 O7 1.957574 1_455
Mn3 O13 1.960375 1_555
Mn4 O12 1.926703 1_555
Mn4 O11 1.931357 1_545
Mn4 O14 1.949564 1_555
Mn4 O8 1.956192 1_655
Mn4 O2 1.957217 1_555
Mn4 O5 1.970732 1_555
Cr0 O0 1.999514 1_555
Cr0 O1 1.999514 1_555
Cr0 O4 2.009374 1_545
Cr0 O6 2.009374 1_455
Cr0 O3 2.017779 1_555
Cr0 O13 2.029848 1_555
Cr1 O6 2.002628 1_455
Cr1 O4 2.002628 1_545
Cr1 O10 2.019307 1_545
Cr1 O12 2.019307 1_455
Cr1 O7 2.023906 1_445
Cr1 O8 2.036502 1_555
Cr2 O11 2.004582 1_555
Cr2 O10 2.022478 1_655
Cr2 O12 2.022478 1_565
Cr2 O2 2.029347 1_555
Cr2 O15 2.029708 1_555
Cr2 O14 2.029708 1_555
