# generated using pymatgen
data_Ho2(SO4)3
_symmetry_space_group_name_H-M   'P 1'
_cell_length_a   9.26933300
_cell_length_b   9.36124200
_cell_length_c   12.89413300
_cell_angle_alpha   90.00000000
_cell_angle_beta   90.00000000
_cell_angle_gamma   90.00000000
_symmetry_Int_Tables_number   1
_chemical_formula_structural   Ho2(SO4)3
_chemical_formula_sum   'Ho8 S12 O48'
_cell_volume   1118.85576107
_cell_formula_units_Z   4
loop_
 _symmetry_equiv_pos_site_id
 _symmetry_equiv_pos_as_xyz
  1  'x, y, z'
loop_
 _atom_site_type_symbol
 _atom_site_label
 _atom_site_symmetry_multiplicity
 _atom_site_fract_x
 _atom_site_fract_y
 _atom_site_fract_z
 _atom_site_occupancy
  Ho  Ho0  1  0.24941000  0.96281100  0.11734300  1
  Ho  Ho1  1  0.75059000  0.46281100  0.11734300  1
  Ho  Ho2  1  0.25059000  0.46281100  0.38265700  1
  Ho  Ho3  1  0.74941000  0.96281100  0.38265700  1
  Ho  Ho4  1  0.25059000  0.03718900  0.61734300  1
  Ho  Ho5  1  0.74941000  0.53718900  0.61734300  1
  Ho  Ho6  1  0.24941000  0.53718900  0.88265700  1
  Ho  Ho7  1  0.75059000  0.03718900  0.88265700  1
  S  S0  1  0.03539000  0.25000000  0.00000000  1
  S  S1  1  0.96461000  0.75000000  0.00000000  1
  S  S2  1  0.39359800  0.61115500  0.14621100  1
  S  S3  1  0.60640200  0.11115500  0.14621100  1
  S  S4  1  0.10640200  0.11115500  0.35378900  1
  S  S5  1  0.89359800  0.61115500  0.35378900  1
  S  S6  1  0.46461000  0.75000000  0.50000000  1
  S  S7  1  0.53539000  0.25000000  0.50000000  1
  S  S8  1  0.10640200  0.38884500  0.64621100  1
  S  S9  1  0.89359800  0.88884500  0.64621100  1
  S  S10  1  0.39359800  0.88884500  0.85378900  1
  S  S11  1  0.60640200  0.38884500  0.85378900  1
  O  O0  1  0.66330000  0.07626000  0.04178600  1
  O  O1  1  0.33670000  0.57626000  0.04178600  1
  O  O2  1  0.87191500  0.65092600  0.05955100  1
  O  O3  1  0.12808500  0.15092600  0.05955100  1
  O  O4  1  0.05624600  0.83099400  0.07370900  1
  O  O5  1  0.94375400  0.33099400  0.07370900  1
  O  O6  1  0.44757800  0.09359500  0.14758800  1
  O  O7  1  0.55242200  0.59359500  0.14758800  1
  O  O8  1  0.35781700  0.76122700  0.17281600  1
  O  O9  1  0.64218300  0.26122700  0.17281600  1
  O  O10  1  0.32760700  0.51292100  0.22294600  1
  O  O11  1  0.67239300  0.01292100  0.22294600  1
  O  O12  1  0.17239300  0.01292100  0.27705400  1
  O  O13  1  0.82760700  0.51292100  0.27705400  1
  O  O14  1  0.85781700  0.76122700  0.32718400  1
  O  O15  1  0.14218300  0.26122700  0.32718400  1
  O  O16  1  0.05242200  0.59359500  0.35241200  1
  O  O17  1  0.94757800  0.09359500  0.35241200  1
  O  O18  1  0.44375400  0.33099400  0.42629100  1
  O  O19  1  0.55624600  0.83099400  0.42629100  1
  O  O20  1  0.37191500  0.65092600  0.44044900  1
  O  O21  1  0.62808500  0.15092600  0.44044900  1
  O  O22  1  0.16330000  0.07626000  0.45821400  1
  O  O23  1  0.83670000  0.57626000  0.45821400  1
  O  O24  1  0.16330000  0.42374000  0.54178600  1
  O  O25  1  0.83670000  0.92374000  0.54178600  1
  O  O26  1  0.62808500  0.34907400  0.55955100  1
  O  O27  1  0.37191500  0.84907400  0.55955100  1
  O  O28  1  0.44375400  0.16900600  0.57370900  1
  O  O29  1  0.55624600  0.66900600  0.57370900  1
  O  O30  1  0.05242200  0.90640500  0.64758800  1
  O  O31  1  0.94757800  0.40640500  0.64758800  1
  O  O32  1  0.14218300  0.23877300  0.67281600  1
  O  O33  1  0.85781700  0.73877300  0.67281600  1
  O  O34  1  0.17239300  0.48707900  0.72294600  1
  O  O35  1  0.82760700  0.98707900  0.72294600  1
  O  O36  1  0.32760700  0.98707900  0.77705400  1
  O  O37  1  0.67239300  0.48707900  0.77705400  1
  O  O38  1  0.35781700  0.73877300  0.82718400  1
  O  O39  1  0.64218300  0.23877300  0.82718400  1
  O  O40  1  0.44757800  0.40640500  0.85241200  1
  O  O41  1  0.55242200  0.90640500  0.85241200  1
  O  O42  1  0.05624600  0.66900600  0.92629100  1
  O  O43  1  0.94375400  0.16900600  0.92629100  1
  O  O44  1  0.12808500  0.34907400  0.94044900  1
  O  O45  1  0.87191500  0.84907400  0.94044900  1
  O  O46  1  0.33670000  0.92374000  0.95821400  1
  O  O47  1  0.66330000  0.42374000  0.95821400  1
loop_
_geom_bond_atom_site_label_1
_geom_bond_atom_site_label_2
_geom_bond_distance
_geom_bond_site_symmetry_2
Ho0 O3 2.218356 1_565
Ho0 O12 2.229474 1_565
Ho0 O46 2.235723 1_554
Ho0 O6 2.241684 1_565
Ho0 O4 2.246135 1_555
Ho0 O8 2.254423 1_555
Ho1 O2 2.218356 1_555
Ho1 O13 2.229474 1_555
Ho1 O47 2.235723 1_554
Ho1 O7 2.241684 1_555
Ho1 O5 2.246135 1_555
Ho1 O9 2.254423 1_555
Ho2 O20 2.218356 1_555
Ho2 O10 2.229474 1_555
Ho2 O24 2.235723 1_555
Ho2 O16 2.241684 1_555
Ho2 O18 2.246135 1_555
Ho2 O15 2.254423 1_555
Ho3 O21 2.218356 1_565
Ho3 O11 2.229474 1_565
Ho3 O25 2.235723 1_555
Ho3 O17 2.241684 1_565
Ho3 O19 2.246135 1_555
Ho3 O14 2.254423 1_555
Ho4 O27 2.218356 1_545
Ho4 O36 2.229474 1_545
Ho4 O22 2.235723 1_555
Ho4 O30 2.241684 1_545
Ho4 O28 2.246135 1_555
Ho4 O32 2.254423 1_555
Ho5 O26 2.218356 1_555
Ho5 O37 2.229474 1_555
Ho5 O23 2.235723 1_555
Ho5 O31 2.241684 1_555
Ho5 O29 2.246135 1_555
Ho5 O33 2.254423 1_555
Ho6 O44 2.218356 1_555
Ho6 O34 2.229474 1_555
Ho6 O1 2.235723 1_556
Ho6 O40 2.241684 1_555
Ho6 O42 2.246135 1_555
Ho6 O38 2.254423 1_555
Ho7 O45 2.218356 1_545
Ho7 O35 2.229474 1_545
Ho7 O0 2.235723 1_556
Ho7 O41 2.241684 1_545
Ho7 O43 2.246135 1_555
Ho7 O39 2.254423 1_555
O0 S3 1.482513 1_555
O1 S2 1.482513 1_555
O2 S1 1.479203 1_555
O3 S0 1.479203 1_555
O4 S1 1.483121 1_455
O5 S0 1.483121 1_655
O6 S3 1.481448 1_555
O7 S2 1.481448 1_555
O8 S2 1.483684 1_555
O9 S3 1.483684 1_555
O10 S2 1.482832 1_555
O11 S3 1.482832 1_555
O12 S4 1.482832 1_555
O13 S5 1.482832 1_555
O14 S5 1.483684 1_555
O15 S4 1.483684 1_555
O16 S5 1.481448 1_455
O17 S4 1.481448 1_655
O18 S7 1.483121 1_555
O19 S6 1.483121 1_555
O20 S6 1.479203 1_555
O21 S7 1.479203 1_555
O22 S4 1.482513 1_555
O23 S5 1.482513 1_555
O24 S8 1.482513 1_555
O25 S9 1.482513 1_555
O26 S7 1.479203 1_555
O27 S6 1.479203 1_555
O28 S7 1.483121 1_555
O29 S6 1.483121 1_555
O30 S9 1.481448 1_455
O31 S8 1.481448 1_655
O32 S8 1.483684 1_555
O33 S9 1.483684 1_555
O34 S8 1.482832 1_555
O35 S9 1.482832 1_555
O36 S10 1.482832 1_555
O37 S11 1.482832 1_555
O38 S10 1.483684 1_555
O39 S11 1.483684 1_555
O40 S11 1.481448 1_555
O41 S10 1.481448 1_555
O42 S1 1.483121 1_456
O43 S0 1.483121 1_656
O44 S0 1.479203 1_556
O45 S1 1.479203 1_556
O46 S10 1.482513 1_555
O47 S11 1.482513 1_555
