# generated using pymatgen
data_Na2PrGeO5
_symmetry_space_group_name_H-M   'P 1'
_cell_length_a   6.86328900
_cell_length_b   7.65804600
_cell_length_c   9.62373500
_cell_angle_alpha   90.00000000
_cell_angle_beta   90.00000000
_cell_angle_gamma   90.00000000
_symmetry_Int_Tables_number   1
_chemical_formula_structural   Na2PrGeO5
_chemical_formula_sum   'Na8 Pr4 Ge4 O20'
_cell_volume   505.81757254
_cell_formula_units_Z   4
loop_
 _symmetry_equiv_pos_site_id
 _symmetry_equiv_pos_as_xyz
  1  'x, y, z'
loop_
 _atom_site_type_symbol
 _atom_site_label
 _atom_site_symmetry_multiplicity
 _atom_site_fract_x
 _atom_site_fract_y
 _atom_site_fract_z
 _atom_site_occupancy
  Na  Na0  1  0.86511800  0.03389200  0.32416700  1
  Na  Na1  1  0.63488200  0.46610800  0.82416700  1
  Na  Na2  1  0.13488200  0.53389200  0.67583300  1
  Na  Na3  1  0.36511800  0.96610800  0.17583300  1
  Na  Na4  1  0.13488200  0.96610800  0.67583300  1
  Na  Na5  1  0.36511800  0.53389200  0.17583300  1
  Na  Na6  1  0.86511800  0.46610800  0.32416700  1
  Na  Na7  1  0.63488200  0.03389200  0.82416700  1
  Pr  Pr0  1  0.87741800  0.75000000  0.04250900  1
  Pr  Pr1  1  0.62258200  0.75000000  0.54250900  1
  Pr  Pr2  1  0.12258200  0.25000000  0.95749100  1
  Pr  Pr3  1  0.37741800  0.25000000  0.45749100  1
  Ge  Ge0  1  0.67798100  0.25000000  0.09143600  1
  Ge  Ge1  1  0.82201900  0.25000000  0.59143600  1
  Ge  Ge2  1  0.32201900  0.75000000  0.90856400  1
  Ge  Ge3  1  0.17798100  0.75000000  0.40856400  1
  O  O0  1  0.83272300  0.06767200  0.06051500  1
  O  O1  1  0.66727700  0.43232800  0.56051500  1
  O  O2  1  0.16727700  0.56767200  0.93948500  1
  O  O3  1  0.33272300  0.93232800  0.43948500  1
  O  O4  1  0.16727700  0.93232800  0.93948500  1
  O  O5  1  0.33272300  0.56767200  0.43948500  1
  O  O6  1  0.83272300  0.43232800  0.06051500  1
  O  O7  1  0.66727700  0.06767200  0.56051500  1
  O  O8  1  0.60771300  0.25000000  0.26786800  1
  O  O9  1  0.89228700  0.25000000  0.76786800  1
  O  O10  1  0.39228700  0.75000000  0.73213200  1
  O  O11  1  0.10771300  0.75000000  0.23213200  1
  O  O12  1  0.72145600  0.75000000  0.28683100  1
  O  O13  1  0.77854400  0.75000000  0.78683100  1
  O  O14  1  0.27854400  0.25000000  0.71316900  1
  O  O15  1  0.22145600  0.25000000  0.21316900  1
  O  O16  1  0.02211200  0.25000000  0.47689200  1
  O  O17  1  0.47788800  0.25000000  0.97689200  1
  O  O18  1  0.97788800  0.75000000  0.52310800  1
  O  O19  1  0.52211200  0.75000000  0.02310800  1
loop_
_geom_bond_atom_site_label_1
_geom_bond_atom_site_label_2
_geom_bond_distance
_geom_bond_site_symmetry_2
Na0 O12 2.414087 1_545
Na0 O16 2.461742 1_655
Na0 O8 2.480624 1_555
Na0 O0 2.560143 1_555
Na0 O7 2.661622 1_555
Na0 O11 2.878064 1_645
Na1 O13 2.414087 1_555
Na1 O17 2.461742 1_555
Na1 O9 2.480624 1_555
Na1 O1 2.560143 1_555
Na1 O6 2.661622 1_556
Na1 O10 2.878064 1_555
Na2 O14 2.414087 1_555
Na2 O18 2.461742 1_455
Na2 O10 2.480624 1_555
Na2 O2 2.560143 1_555
Na2 O5 2.661622 1_555
Na2 O9 2.878064 1_455
Na3 O15 2.414087 1_565
Na3 O19 2.461742 1_555
Na3 O11 2.480624 1_555
Na3 O3 2.560143 1_555
Na3 O4 2.661622 1_554
Na3 O8 2.878064 1_565
Na4 O14 2.414087 1_565
Na4 O18 2.461742 1_455
Na4 O10 2.480624 1_555
Na4 O4 2.560143 1_555
Na4 O3 2.661622 1_555
Na4 O9 2.878064 1_465
Na5 O15 2.414087 1_555
Na5 O19 2.461742 1_555
Na5 O11 2.480624 1_555
Na5 O5 2.560143 1_555
Na5 O2 2.661622 1_554
Na5 O8 2.878064 1_555
Na6 O12 2.414087 1_555
Na6 O16 2.461742 1_655
Na6 O8 2.480624 1_555
Na6 O6 2.560143 1_555
Na6 O1 2.661622 1_555
Na6 O11 2.878064 1_655
Na7 O13 2.414087 1_545
Na7 O17 2.461742 1_555
Na7 O9 2.480624 1_555
Na7 O7 2.560143 1_555
Na7 O0 2.661622 1_556
Na7 O10 2.878064 1_545
Ge0 O17 1.760993 1_554
Ge0 O8 1.765097 1_555
Ge0 O6 1.779344 1_555
Ge0 O0 1.779344 1_555
Ge1 O16 1.760993 1_655
Ge1 O9 1.765097 1_555
Ge1 O7 1.779344 1_555
Ge1 O1 1.779344 1_555
Ge2 O19 1.760993 1_556
Ge2 O10 1.765097 1_555
Ge2 O4 1.779344 1_555
Ge2 O2 1.779344 1_555
Ge3 O18 1.760993 1_455
Ge3 O11 1.765097 1_555
Ge3 O3 1.779344 1_555
Ge3 O5 1.779344 1_555
O0 Pr0 2.458126 1_545
O0 Pr2 2.624932 1_654
O1 Pr1 2.458126 1_555
O1 Pr3 2.624932 1_555
O2 Pr2 2.458126 1_555
O2 Pr0 2.624932 1_456
O3 Pr3 2.458126 1_565
O3 Pr1 2.624932 1_555
O4 Pr2 2.458126 1_565
O4 Pr0 2.624932 1_456
O5 Pr3 2.458126 1_555
O5 Pr1 2.624932 1_555
O6 Pr0 2.458126 1_555
O6 Pr2 2.624932 1_654
O7 Pr1 2.458126 1_545
O7 Pr3 2.624932 1_555
O8 Pr3 2.414214 1_555
O9 Pr2 2.414214 1_655
O10 Pr1 2.414214 1_555
O11 Pr0 2.414214 1_455
O12 Pr1 2.552438 1_555
O12 Pr0 2.583476 1_555
O13 Pr0 2.552438 1_556
O13 Pr1 2.583476 1_555
O14 Pr3 2.552438 1_555
O14 Pr2 2.583476 1_555
O15 Pr2 2.552438 1_554
O15 Pr3 2.583476 1_555
O16 Pr3 2.445705 1_555
O17 Pr2 2.445705 1_555
O18 Pr1 2.445705 1_555
O19 Pr0 2.445705 1_555
