# generated using pymatgen
data_Fe7(Ni3O8)2
_symmetry_space_group_name_H-M   'P 1'
_cell_length_a   6.00498737
_cell_length_b   6.00498737
_cell_length_c   10.29724724
_cell_angle_alpha   73.45706830
_cell_angle_beta   73.45706830
_cell_angle_gamma   60.49016177
_symmetry_Int_Tables_number   1
_chemical_formula_structural   Fe7(Ni3O8)2
_chemical_formula_sum   'Fe7 Ni6 O16'
_cell_volume   305.08970593
_cell_formula_units_Z   1
loop_
 _symmetry_equiv_pos_site_id
 _symmetry_equiv_pos_as_xyz
  1  'x, y, z'
loop_
 _atom_site_type_symbol
 _atom_site_label
 _atom_site_symmetry_multiplicity
 _atom_site_fract_x
 _atom_site_fract_y
 _atom_site_fract_z
 _atom_site_occupancy
  Fe  Fe0  1  0.00000000  0.00000000  0.50000000  1
  Fe  Fe1  1  0.31261500  0.31261500  0.57347000  1
  Fe  Fe2  1  0.25158800  0.74037500  0.24832300  1
  Fe  Fe3  1  0.74037500  0.25158800  0.24832300  1
  Fe  Fe4  1  0.68738500  0.68738500  0.42653000  1
  Fe  Fe5  1  0.25962500  0.74841200  0.75167700  1
  Fe  Fe6  1  0.74841200  0.25962500  0.75167700  1
  Ni  Ni0  1  0.25133300  0.25133300  0.25234600  1
  Ni  Ni1  1  0.00000000  0.00000000  0.00000000  1
  Ni  Ni2  1  0.00000000  0.50000000  0.00000000  1
  Ni  Ni3  1  0.50000000  0.00000000  0.00000000  1
  Ni  Ni4  1  0.50000000  0.50000000  0.00000000  1
  Ni  Ni5  1  0.74866700  0.74866700  0.74765400  1
  O  O0  1  0.88430300  0.88430300  0.36221000  1
  O  O1  1  0.12270300  0.12270300  0.12594100  1
  O  O2  1  0.14026300  0.62290200  0.12219600  1
  O  O3  1  0.62290200  0.14026300  0.12219600  1
  O  O4  1  0.87870100  0.36126100  0.36568500  1
  O  O5  1  0.36126100  0.87870100  0.36568500  1
  O  O6  1  0.61823900  0.61823900  0.12546400  1
  O  O7  1  0.38043300  0.38043300  0.36875600  1
  O  O8  1  0.11569700  0.11569700  0.63779000  1
  O  O9  1  0.87729700  0.87729700  0.87405900  1
  O  O10  1  0.12129900  0.63873900  0.63431500  1
  O  O11  1  0.63873900  0.12129900  0.63431500  1
  O  O12  1  0.85973700  0.37709800  0.87780400  1
  O  O13  1  0.37709800  0.85973700  0.87780400  1
  O  O14  1  0.38176100  0.38176100  0.87453600  1
  O  O15  1  0.61956700  0.61956700  0.63124400  1
loop_
_geom_bond_atom_site_label_1
_geom_bond_atom_site_label_2
_geom_bond_distance
_geom_bond_site_symmetry_2
Fe0 O5 2.111396 1_545
Fe0 O11 2.111396 1_455
Fe0 O10 2.111396 1_545
Fe0 O4 2.111396 1_455
Fe0 O8 2.139341 1_555
Fe0 O0 2.139341 1_445
Fe1 O11 1.902628 1_555
Fe1 O10 1.902628 1_555
Fe1 O8 1.928924 1_555
Fe1 O7 1.990218 1_555
Fe2 O2 2.027816 1_555
Fe2 O5 2.036667 1_555
Fe2 O7 2.044717 1_555
Fe2 O0 2.052572 1_455
Fe2 O6 2.082643 1_555
Fe2 O1 2.148358 1_565
Fe3 O3 2.027816 1_555
Fe3 O4 2.036667 1_555
Fe3 O7 2.044717 1_555
Fe3 O0 2.052572 1_545
Fe3 O6 2.082643 1_555
Fe3 O1 2.148358 1_655
Fe4 O5 1.902628 1_555
Fe4 O4 1.902628 1_555
Fe4 O0 1.928924 1_555
Fe4 O15 1.990218 1_555
Fe5 O13 2.027816 1_555
Fe5 O10 2.036667 1_555
Fe5 O15 2.044717 1_555
Fe5 O8 2.052572 1_565
Fe5 O14 2.082643 1_555
Fe5 O9 2.148358 1_455
Fe6 O12 2.027816 1_555
Fe6 O11 2.036667 1_555
Fe6 O15 2.044717 1_555
Fe6 O8 2.052572 1_655
Fe6 O14 2.082643 1_555
Fe6 O9 2.148358 1_545
Ni0 O7 2.071079 1_555
Ni0 O5 2.073955 1_545
Ni0 O4 2.073955 1_455
Ni0 O3 2.135312 1_555
Ni0 O2 2.135312 1_555
Ni0 O1 2.149501 1_555
Ni1 O9 2.095427 1_444
Ni1 O1 2.095427 1_555
Ni1 O13 2.126611 1_544
Ni1 O12 2.126611 1_454
Ni1 O3 2.126611 1_455
Ni1 O2 2.126611 1_545
Ni2 O12 2.140594 1_454
Ni2 O2 2.140594 1_555
Ni2 O9 2.141095 1_454
Ni2 O1 2.141095 1_555
Ni2 O6 2.158909 1_455
Ni2 O14 2.158909 1_554
Ni3 O13 2.140594 1_544
Ni3 O3 2.140594 1_555
Ni3 O1 2.141095 1_555
Ni3 O9 2.141095 1_544
Ni3 O6 2.158909 1_545
Ni3 O14 2.158909 1_554
Ni4 O12 2.050562 1_554
Ni4 O2 2.050562 1_555
Ni4 O13 2.050562 1_554
Ni4 O3 2.050562 1_555
Ni4 O6 2.053961 1_555
Ni4 O14 2.053961 1_554
Ni5 O15 2.071079 1_555
Ni5 O11 2.073955 1_565
Ni5 O10 2.073955 1_655
Ni5 O13 2.135312 1_555
Ni5 O12 2.135312 1_555
Ni5 O9 2.149501 1_555
