# generated using pymatgen
data_Li3Co3(Ge3O8)2
_symmetry_space_group_name_H-M   'P 1'
_cell_length_a   8.42075000
_cell_length_b   8.40941300
_cell_length_c   8.42091469
_cell_angle_alpha   89.93950576
_cell_angle_beta   90.00000000
_cell_angle_gamma   90.00000000
_symmetry_Int_Tables_number   1
_chemical_formula_structural   Li3Co3(Ge3O8)2
_chemical_formula_sum   'Li6 Co6 Ge12 O32'
_cell_volume   596.31465360
_cell_formula_units_Z   2
loop_
 _symmetry_equiv_pos_site_id
 _symmetry_equiv_pos_as_xyz
  1  'x, y, z'
loop_
 _atom_site_type_symbol
 _atom_site_label
 _atom_site_symmetry_multiplicity
 _atom_site_fract_x
 _atom_site_fract_y
 _atom_site_fract_z
 _atom_site_occupancy
  Li  Li0  1  0.00030700  0.00059600  0.75009200  1
  Li  Li1  1  0.50030700  0.99940400  0.24990800  1
  Li  Li2  1  0.12579100  0.87682800  0.12337500  1
  Li  Li3  1  0.87535200  0.62738200  0.62616100  1
  Li  Li4  1  0.37535200  0.37261800  0.37383900  1
  Li  Li5  1  0.62579100  0.12317200  0.87662500  1
  Co  Co0  1  0.75112100  0.75276800  0.99872100  1
  Co  Co1  1  0.24762700  0.74883900  0.49789200  1
  Co  Co2  1  0.50248700  0.49683000  0.74796400  1
  Co  Co3  1  0.00248700  0.50317000  0.25203600  1
  Co  Co4  1  0.74762700  0.25116100  0.50210800  1
  Co  Co5  1  0.25112100  0.24723200  0.00127900  1
  Ge  Ge0  1  0.87527500  0.87354500  0.37947800  1
  Ge  Ge1  1  0.37169700  0.87900500  0.88056000  1
  Ge  Ge2  1  0.63140300  0.87609200  0.62655000  1
  Ge  Ge3  1  0.62493700  0.62505300  0.37793800  1
  Ge  Ge4  1  0.37263000  0.62918300  0.12711900  1
  Ge  Ge5  1  0.12128400  0.63241100  0.87378700  1
  Ge  Ge6  1  0.87263000  0.37081700  0.87288100  1
  Ge  Ge7  1  0.62128400  0.36758900  0.12621300  1
  Ge  Ge8  1  0.12493700  0.37494700  0.62206200  1
  Ge  Ge9  1  0.87169700  0.12099500  0.11944000  1
  Ge  Ge10  1  0.37527500  0.12645500  0.62052200  1
  Ge  Ge11  1  0.13140300  0.12390800  0.37345000  1
  O  O0  1  0.60538000  0.87067100  0.85170700  1
  O  O1  1  0.63877400  0.85994200  0.38902200  1
  O  O2  1  0.14524200  0.85215600  0.87066800  1
  O  O3  1  0.10119600  0.89294800  0.37801700  1
  O  O4  1  0.87215900  0.89643400  0.14573400  1
  O  O5  1  0.85192600  0.87928400  0.60549500  1
  O  O6  1  0.37912900  0.85474300  0.10120600  1
  O  O7  1  0.38836900  0.88752000  0.63830900  1
  O  O8  1  0.89674500  0.60500500  0.87784200  1
  O  O9  1  0.61201300  0.61130300  0.13839200  1
  O  O10  1  0.85612600  0.64725000  0.37225000  1
  O  O11  1  0.62146800  0.64300400  0.60270600  1
  O  O12  1  0.36232900  0.63604200  0.88737000  1
  O  O13  1  0.14771800  0.62165100  0.10563300  1
  O  O14  1  0.39373400  0.62776300  0.35235700  1
  O  O15  1  0.12777900  0.60132600  0.64328800  1
  O  O16  1  0.86232900  0.36395800  0.11263000  1
  O  O17  1  0.89373400  0.37223700  0.64764300  1
  O  O18  1  0.64771800  0.37834900  0.89436700  1
  O  O19  1  0.62777900  0.39867400  0.35671200  1
  O  O20  1  0.39674500  0.39499500  0.12215800  1
  O  O21  1  0.35612600  0.35275000  0.62775000  1
  O  O22  1  0.11201300  0.38869700  0.86160800  1
  O  O23  1  0.12146800  0.35699600  0.39729400  1
  O  O24  1  0.87912900  0.14525700  0.89879400  1
  O  O25  1  0.88836900  0.11248000  0.36169100  1
  O  O26  1  0.64524200  0.14784400  0.12933200  1
  O  O27  1  0.60119600  0.10705200  0.62198300  1
  O  O28  1  0.37215900  0.10356600  0.85426600  1
  O  O29  1  0.35192600  0.12071600  0.39450500  1
  O  O30  1  0.10538000  0.12932900  0.14829300  1
  O  O31  1  0.13877400  0.14005800  0.61097800  1
loop_
_geom_bond_atom_site_label_1
_geom_bond_atom_site_label_2
_geom_bond_distance
_geom_bond_site_symmetry_2
Li0 O2 2.018921 1_545
Li0 O5 2.021682 1_445
Li0 O24 2.022963 1_455
Li0 O31 2.025938 1_555
Li1 O26 2.018921 1_565
Li1 O29 2.021682 1_565
Li1 O6 2.022963 1_555
Li1 O1 2.025938 1_555
Li2 O30 2.140859 1_565
Li2 O2 2.144596 1_554
Li2 O6 2.149504 1_555
Li2 O4 2.150400 1_455
Li2 O3 2.158700 1_555
Li2 O13 2.159150 1_555
Li3 O5 2.134436 1_555
Li3 O8 2.135137 1_555
Li3 O15 2.141734 1_655
Li3 O10 2.150607 1_555
Li3 O11 2.151001 1_555
Li3 O17 2.158599 1_555
Li4 O29 2.134436 1_555
Li4 O20 2.135137 1_555
Li4 O19 2.141734 1_555
Li4 O21 2.150607 1_555
Li4 O23 2.151001 1_555
Li4 O14 2.158599 1_555
Li5 O0 2.140859 1_545
Li5 O26 2.144596 1_556
Li5 O24 2.149504 1_555
Li5 O28 2.150400 1_555
Li5 O27 2.158700 1_555
Li5 O18 2.159150 1_555
Co0 O0 2.004803 1_555
Co0 O4 2.008535 1_556
Co0 O8 2.021532 1_555
Co0 O9 2.041517 1_556
Co1 O3 2.001372 1_555
Co1 O15 2.013258 1_555
Co1 O14 2.013698 1_555
Co1 O7 2.041016 1_555
Co2 O18 2.001414 1_555
Co2 O11 2.001975 1_555
Co2 O21 2.003594 1_555
Co2 O12 2.035799 1_555
Co3 O13 2.001414 1_555
Co3 O23 2.001975 1_555
Co3 O10 2.003594 1_455
Co3 O16 2.035799 1_455
Co4 O27 2.001372 1_555
Co4 O19 2.013258 1_555
Co4 O17 2.013698 1_555
Co4 O25 2.041016 1_555
Co5 O30 2.004803 1_555
Co5 O28 2.008535 1_554
Co5 O20 2.021532 1_555
Co5 O22 2.041517 1_554
Ge0 O3 1.909447 1_655
Ge0 O10 1.910861 1_555
Ge0 O5 1.914058 1_555
Ge0 O4 1.977699 1_555
Ge0 O1 1.996412 1_555
Ge0 O25 2.017735 1_565
Ge1 O6 1.870043 1_556
Ge1 O28 1.901134 1_565
Ge1 O2 1.922057 1_555
Ge1 O0 1.983977 1_555
Ge1 O12 2.045442 1_555
Ge1 O7 2.045978 1_555
Ge2 O5 1.865605 1_555
Ge2 O0 1.909146 1_555
Ge2 O27 1.959161 1_565
Ge2 O11 1.972376 1_555
Ge2 O1 2.005912 1_555
Ge2 O7 2.051180 1_555
Ge3 O11 1.899146 1_555
Ge3 O19 1.912425 1_555
Ge3 O10 1.956295 1_555
Ge3 O14 1.958914 1_555
Ge3 O1 1.981011 1_555
Ge3 O9 2.023558 1_555
Ge4 O13 1.903611 1_555
Ge4 O14 1.905042 1_555
Ge4 O6 1.909893 1_555
Ge4 O20 1.980310 1_555
Ge4 O12 2.021531 1_554
Ge4 O9 2.023605 1_555
Ge5 O2 1.859064 1_555
Ge5 O8 1.905083 1_455
Ge5 O15 1.959573 1_555
Ge5 O13 1.966991 1_556
Ge5 O12 2.033231 1_555
Ge5 O22 2.053649 1_555
Ge6 O18 1.903611 1_555
Ge6 O17 1.905042 1_555
Ge6 O24 1.909893 1_555
Ge6 O8 1.980310 1_555
Ge6 O16 2.021531 1_556
Ge6 O22 2.023605 1_655
Ge7 O26 1.859064 1_555
Ge7 O20 1.905083 1_555
Ge7 O19 1.959573 1_555
Ge7 O18 1.966991 1_554
Ge7 O16 2.033231 1_555
Ge7 O9 2.053649 1_555
Ge8 O23 1.899146 1_555
Ge8 O15 1.912425 1_555
Ge8 O21 1.956295 1_555
Ge8 O17 1.958914 1_455
Ge8 O31 1.981011 1_555
Ge8 O22 2.023558 1_555
Ge9 O24 1.870043 1_554
Ge9 O4 1.901134 1_545
Ge9 O26 1.922057 1_555
Ge9 O30 1.983977 1_655
Ge9 O16 2.045442 1_555
Ge9 O25 2.045978 1_555
Ge10 O27 1.909447 1_555
Ge10 O21 1.910861 1_555
Ge10 O29 1.914058 1_555
Ge10 O28 1.977699 1_555
Ge10 O31 1.996412 1_555
Ge10 O7 2.017735 1_545
Ge11 O29 1.865605 1_555
Ge11 O30 1.909146 1_555
Ge11 O3 1.959161 1_545
Ge11 O23 1.972376 1_555
Ge11 O31 2.005912 1_555
Ge11 O25 2.051180 1_455
