# generated using pymatgen
data_Li9Mg(Ni6O13)2
_symmetry_space_group_name_H-M   'P 1'
_cell_length_a   7.55184000
_cell_length_b   7.73008917
_cell_length_c   8.15825109
_cell_angle_alpha   103.69962950
_cell_angle_beta   104.57846025
_cell_angle_gamma   87.79952667
_symmetry_Int_Tables_number   1
_chemical_formula_structural   Li9Mg(Ni6O13)2
_chemical_formula_sum   'Li9 Mg1 Ni12 O26'
_cell_volume   447.68915157
_cell_formula_units_Z   1
loop_
 _symmetry_equiv_pos_site_id
 _symmetry_equiv_pos_as_xyz
  1  'x, y, z'
loop_
 _atom_site_type_symbol
 _atom_site_label
 _atom_site_symmetry_multiplicity
 _atom_site_fract_x
 _atom_site_fract_y
 _atom_site_fract_z
 _atom_site_occupancy
  Li  Li0  1  0.99678300  0.99366100  0.50005100  1
  Li  Li1  1  0.93027000  0.61726700  0.88269400  1
  Li  Li2  1  0.69340000  0.44963000  0.04119900  1
  Li  Li3  1  0.61275400  0.06406200  0.43681800  1
  Li  Li4  1  0.47284000  0.30686300  0.19297100  1
  Li  Li5  1  0.53836100  0.70531600  0.79717000  1
  Li  Li6  1  0.22332300  0.14978000  0.35183600  1
  Li  Li7  1  0.08409400  0.39085300  0.11458200  1
  Li  Li8  1  0.15885400  0.76826200  0.72556100  1
  Mg  Mg0  1  0.99624700  0.00318300  0.00103200  1
  Ni  Ni0  1  0.91913600  0.61150900  0.37809400  1
  Ni  Ni1  1  0.76508500  0.85008000  0.15643500  1
  Ni  Ni2  1  0.84628700  0.23181700  0.77053400  1
  Ni  Ni3  1  0.69482300  0.45512500  0.53310700  1
  Ni  Ni4  1  0.53614300  0.69673600  0.31064300  1
  Ni  Ni5  1  0.38071000  0.92604000  0.07603000  1
  Ni  Ni6  1  0.61532300  0.07098800  0.92027300  1
  Ni  Ni7  1  0.46440800  0.30564100  0.69414800  1
  Ni  Ni8  1  0.30963500  0.53736900  0.46302800  1
  Ni  Ni9  1  0.15194700  0.76949900  0.23076800  1
  Ni  Ni10  1  0.23284400  0.15951300  0.84564800  1
  Ni  Ni11  1  0.07777800  0.38872300  0.61567200  1
  O  O0  1  0.00335600  0.96875100  0.24555900  1
  O  O1  1  0.93754700  0.62310000  0.14658500  1
  O  O2  1  0.92801000  0.59007400  0.61551600  1
  O  O3  1  0.85300900  0.25108700  0.54390800  1
  O  O4  1  0.75320100  0.83579500  0.38051300  1
  O  O5  1  0.69636100  0.48078500  0.29018200  1
  O  O6  1  0.83183000  0.21816900  0.99345400  1
  O  O7  1  0.59498100  0.06756100  0.14770800  1
  O  O8  1  0.75769500  0.86257300  0.92635800  1
  O  O9  1  0.53322100  0.72602300  0.07644400  1
  O  O10  1  0.69379800  0.43442600  0.78418500  1
  O  O11  1  0.63389700  0.08756200  0.69804600  1
  O  O12  1  0.54165300  0.65608300  0.54242600  1
  O  O13  1  0.47599300  0.30767700  0.46361000  1
  O  O14  1  0.36635600  0.91710800  0.30230800  1
  O  O15  1  0.31128700  0.56303400  0.23527100  1
  O  O16  1  0.46726400  0.27742100  0.92183000  1
  O  O17  1  0.24036300  0.14272900  0.08139500  1
  O  O18  1  0.39453900  0.93177600  0.84983000  1
  O  O19  1  0.16120200  0.78579100  0.00287300  1
  O  O20  1  0.29500900  0.52884700  0.68851100  1
  O  O21  1  0.22699500  0.18641200  0.61386900  1
  O  O22  1  0.13443400  0.75446800  0.45602300  1
  O  O23  1  0.09265000  0.39410800  0.38827700  1
  O  O24  1  0.05896500  0.37934000  0.84329100  1
  O  O25  1  0.00807300  0.03449000  0.75912100  1
loop_
_geom_bond_atom_site_label_1
_geom_bond_atom_site_label_2
_geom_bond_distance
_geom_bond_site_symmetry_2
Li0 O25 2.041910 1_665
Li0 O0 2.052309 1_655
Li0 O22 2.086659 1_655
Li0 O4 2.128279 1_555
Li0 O21 2.199013 1_665
Li0 O3 2.226904 1_565
Li1 O24 2.042182 1_655
Li1 O19 2.099629 1_656
Li1 O1 2.129468 1_556
Li1 O2 2.135443 1_555
Li1 O10 2.183094 1_555
Li1 O8 2.268276 1_555
Li2 O5 1.982518 1_555
Li2 O6 2.043800 1_554
Li2 O10 2.072860 1_554
Li2 O16 2.088096 1_554
Li2 O1 2.186899 1_555
Li2 O9 2.407567 1_555
Li3 O4 2.041352 1_545
Li3 O11 2.061044 1_555
Li3 O13 2.104775 1_555
Li3 O14 2.121553 1_545
Li3 O3 2.224972 1_555
Li3 O7 2.335051 1_555
Li4 O7 2.031232 1_555
Li4 O5 2.069084 1_555
Li4 O17 2.083293 1_555
Li4 O16 2.159181 1_554
Li4 O13 2.200585 1_555
Li4 O15 2.287263 1_555
Li5 O8 2.000260 1_555
Li5 O12 2.028617 1_555
Li5 O18 2.039936 1_555
Li5 O20 2.196274 1_555
Li5 O9 2.255987 1_556
Li5 O10 2.354301 1_555
Li6 O14 2.071518 1_545
Li6 O21 2.082038 1_555
Li6 O0 2.085230 1_545
Li6 O23 2.089954 1_555
Li6 O13 2.176684 1_555
Li6 O17 2.229984 1_555
Li7 O1 2.070479 1_455
Li7 O15 2.094963 1_555
Li7 O24 2.153837 1_554
Li7 O17 2.210394 1_555
Li7 O23 2.211654 1_555
Li7 O6 2.238391 1_454
Li8 O20 2.078232 1_555
Li8 O18 2.109682 1_555
Li8 O2 2.133804 1_455
Li8 O22 2.137078 1_555
Li8 O19 2.229760 1_556
Li8 O25 2.305834 1_565
Mg0 O8 2.020447 1_544
Mg0 O6 2.039330 1_554
Mg0 O17 2.049707 1_655
Mg0 O19 2.053717 1_645
Mg0 O0 2.061526 1_645
Mg0 O25 2.068367 1_654
Ni0 O5 1.883003 1_555
Ni0 O22 1.885145 1_655
Ni0 O1 1.951381 1_555
Ni0 O2 1.967113 1_555
Ni0 O23 2.095310 1_655
Ni0 O4 2.099043 1_555
Ni1 O4 1.881784 1_555
Ni1 O8 1.889015 1_554
Ni1 O9 1.915406 1_555
Ni1 O0 1.939114 1_655
Ni1 O7 2.079983 1_565
Ni1 O1 2.142819 1_555
Ni2 O11 1.874375 1_555
Ni2 O6 1.876755 1_555
Ni2 O24 1.890095 1_655
Ni2 O3 1.902990 1_555
Ni2 O10 1.906542 1_555
Ni2 O25 1.917032 1_655
Ni3 O12 1.899273 1_555
Ni3 O13 1.928322 1_555
Ni3 O3 1.946955 1_555
Ni3 O2 1.963201 1_555
Ni3 O5 2.040869 1_555
Ni3 O10 2.093979 1_555
Ni4 O4 1.882036 1_555
Ni4 O15 1.907318 1_555
Ni4 O9 1.971197 1_555
Ni4 O12 1.979143 1_555
Ni4 O5 2.023125 1_555
Ni4 O14 2.096142 1_555
Ni5 O7 1.874482 1_565
Ni5 O18 1.885336 1_554
Ni5 O9 1.892315 1_555
Ni5 O14 1.893684 1_555
Ni5 O19 1.900780 1_555
Ni5 O17 1.945061 1_565
Ni6 O11 1.887437 1_555
Ni6 O18 1.905457 1_545
Ni6 O8 1.905777 1_545
Ni6 O7 1.906348 1_556
Ni6 O6 1.911510 1_555
Ni6 O16 1.912403 1_555
Ni7 O13 1.908461 1_555
Ni7 O16 1.915648 1_555
Ni7 O10 1.917558 1_555
Ni7 O21 1.934618 1_555
Ni7 O11 2.078538 1_555
Ni7 O20 2.110483 1_555
Ni8 O20 1.886986 1_555
Ni8 O23 1.897318 1_555
Ni8 O12 1.897983 1_555
Ni8 O15 1.917945 1_555
Ni8 O22 2.099291 1_555
Ni8 O13 2.135549 1_555
Ni9 O0 1.869086 1_555
Ni9 O1 1.893853 1_455
Ni9 O14 1.901327 1_555
Ni9 O22 1.905978 1_555
Ni9 O19 1.911664 1_555
Ni9 O15 1.963298 1_555
Ni10 O25 1.874360 1_555
Ni10 O16 1.911197 1_555
Ni10 O21 1.940159 1_555
Ni10 O17 1.944666 1_556
Ni10 O18 2.105645 1_545
Ni10 O24 2.107984 1_555
Ni11 O20 1.886379 1_555
Ni11 O2 1.888602 1_455
Ni11 O21 1.891529 1_555
Ni11 O23 1.896770 1_555
Ni11 O24 1.916036 1_555
Ni11 O3 1.923363 1_455
