# generated using pymatgen
data_Cr(Si2O5)2
_symmetry_space_group_name_H-M   'P 1'
_cell_length_a   7.16063100
_cell_length_b   7.97909783
_cell_length_c   9.56010230
_cell_angle_alpha   105.05403618
_cell_angle_beta   101.65791156
_cell_angle_gamma   112.90392048
_symmetry_Int_Tables_number   1
_chemical_formula_structural   Cr(Si2O5)2
_chemical_formula_sum   'Cr2 Si8 O20'
_cell_volume   456.80161574
_cell_formula_units_Z   2
loop_
 _symmetry_equiv_pos_site_id
 _symmetry_equiv_pos_as_xyz
  1  'x, y, z'
loop_
 _atom_site_type_symbol
 _atom_site_label
 _atom_site_symmetry_multiplicity
 _atom_site_fract_x
 _atom_site_fract_y
 _atom_site_fract_z
 _atom_site_occupancy
  Cr  Cr0  1  0.25984300  0.32203100  0.41734200  1
  Cr  Cr1  1  0.74015700  0.67796900  0.58265800  1
  Si  Si0  1  0.92443600  0.30155400  0.13163800  1
  Si  Si1  1  0.22703500  0.91360400  0.21335900  1
  Si  Si2  1  0.79785500  0.62640400  0.24593500  1
  Si  Si3  1  0.38082200  0.62180000  0.24495600  1
  Si  Si4  1  0.61917800  0.37820000  0.75504400  1
  Si  Si5  1  0.20214500  0.37359600  0.75406500  1
  Si  Si6  1  0.77296500  0.08639600  0.78664100  1
  Si  Si7  1  0.07556400  0.69844600  0.86836200  1
  O  O0  1  0.21113900  0.88214000  0.03451900  1
  O  O1  1  0.98727000  0.79494100  0.21908800  1
  O  O2  1  0.77675600  0.40988400  0.16733900  1
  O  O3  1  0.56945800  0.62392100  0.17470500  1
  O  O4  1  0.14603700  0.45914800  0.11837800  1
  O  O5  1  0.38859400  0.83596600  0.28937800  1
  O  O6  1  0.99661600  0.23415200  0.26976800  1
  O  O7  1  0.33336700  0.14591800  0.31885600  1
  O  O8  1  0.85491200  0.68521100  0.43293400  1
  O  O9  1  0.42024600  0.56083900  0.39958400  1
  O  O10  1  0.57975400  0.43916100  0.60041600  1
  O  O11  1  0.14508800  0.31478900  0.56706600  1
  O  O12  1  0.66663300  0.85408200  0.68114400  1
  O  O13  1  0.00338400  0.76584800  0.73023200  1
  O  O14  1  0.61140600  0.16403400  0.71062200  1
  O  O15  1  0.85396300  0.54085200  0.88162200  1
  O  O16  1  0.43054200  0.37607900  0.82529500  1
  O  O17  1  0.22324400  0.59011600  0.83266100  1
  O  O18  1  0.01273000  0.20505900  0.78091200  1
  O  O19  1  0.78886100  0.11786000  0.96548100  1
loop_
_geom_bond_atom_site_label_1
_geom_bond_atom_site_label_2
_geom_bond_distance
_geom_bond_site_symmetry_2
Cr0 O11 1.791297 1_555
Cr0 O7 1.796448 1_555
Cr0 O6 1.848653 1_455
Cr0 O9 1.876750 1_555
Cr0 O10 2.246740 1_555
Cr1 O8 1.791297 1_555
Cr1 O12 1.796448 1_555
Cr1 O13 1.848653 1_655
Cr1 O10 1.876750 1_555
Cr1 O9 2.246740 1_555
O0 Si7 1.635182 1_554
O0 Si1 1.635633 1_555
O1 Si2 1.616842 1_555
O1 Si1 1.626883 1_655
O2 Si2 1.627501 1_555
O2 Si0 1.638901 1_555
O3 Si3 1.621915 1_555
O3 Si2 1.629891 1_555
O4 Si3 1.624440 1_555
O4 Si0 1.651119 1_455
O5 Si3 1.625751 1_555
O5 Si1 1.643828 1_555
O6 Si0 1.615438 1_555
O7 Si1 1.628773 1_545
O8 Si2 1.644057 1_555
O9 Si3 1.677286 1_555
O10 Si4 1.677286 1_555
O11 Si5 1.644057 1_555
O12 Si6 1.628773 1_565
O13 Si7 1.615438 1_555
O14 Si4 1.625751 1_555
O14 Si6 1.643828 1_555
O15 Si4 1.624440 1_555
O15 Si7 1.651119 1_655
O16 Si4 1.621915 1_555
O16 Si5 1.629891 1_555
O17 Si5 1.627501 1_555
O17 Si7 1.638901 1_555
O18 Si5 1.616842 1_555
O18 Si6 1.626883 1_455
O19 Si0 1.635182 1_556
O19 Si6 1.635633 1_555
