# generated using pymatgen
data_Li2MnFeO4
_symmetry_space_group_name_H-M   'P 1'
_cell_length_a   5.96026829
_cell_length_b   5.96026829
_cell_length_c   5.96026829
_cell_angle_alpha   119.12867940
_cell_angle_beta   118.52814008
_cell_angle_gamma   92.04228164
_symmetry_Int_Tables_number   1
_chemical_formula_structural   Li2MnFeO4
_chemical_formula_sum   'Li4 Mn2 Fe2 O8'
_cell_volume   152.26257964
_cell_formula_units_Z   2
loop_
 _symmetry_equiv_pos_site_id
 _symmetry_equiv_pos_as_xyz
  1  'x, y, z'
loop_
 _atom_site_type_symbol
 _atom_site_label
 _atom_site_symmetry_multiplicity
 _atom_site_fract_x
 _atom_site_fract_y
 _atom_site_fract_z
 _atom_site_occupancy
  Li  Li0  1  0.50000000  0.50000000  0.00000000  1
  Li  Li1  1  0.50000000  0.00000000  0.00000000  1
  Li  Li2  1  0.00000000  0.50000000  0.50000000  1
  Li  Li3  1  0.50000000  0.50000000  0.50000000  1
  Mn  Mn0  1  0.50000000  0.00000000  0.50000000  1
  Mn  Mn1  1  0.00000000  0.00000000  0.00000000  1
  Fe  Fe0  1  0.00000000  0.50000000  0.00000000  1
  Fe  Fe1  1  0.00000000  0.00000000  0.50000000  1
  O  O0  1  0.75774600  0.76251800  0.50477200  1
  O  O1  1  0.22133700  0.23571700  0.98562000  1
  O  O2  1  0.75774600  0.25297400  0.99522800  1
  O  O3  1  0.75009800  0.23571700  0.51438000  1
  O  O4  1  0.24990200  0.76428300  0.48562000  1
  O  O5  1  0.24225400  0.74702600  0.00477200  1
  O  O6  1  0.77866300  0.76428300  0.01438000  1
  O  O7  1  0.24225400  0.23748200  0.49522800  1
loop_
_geom_bond_atom_site_label_1
_geom_bond_atom_site_label_2
_geom_bond_distance
_geom_bond_site_symmetry_2
Li0 O5 2.165824 1_555
Li0 O0 2.165824 1_555
Li0 O7 2.165824 1_554
Li0 O2 2.165824 1_554
Li0 O6 2.189366 1_555
Li0 O1 2.189366 1_554
Li1 O2 2.133696 1_554
Li1 O5 2.133696 1_545
Li1 O3 2.210740 1_555
Li1 O4 2.210740 1_544
Li1 O1 2.210741 1_554
Li1 O6 2.210741 1_545
Li2 O5 2.165824 1_556
Li2 O2 2.165824 1_454
Li2 O0 2.165824 1_455
Li2 O7 2.165824 1_555
Li2 O3 2.189362 1_455
Li2 O4 2.189362 1_555
Li3 O0 2.133696 1_555
Li3 O7 2.133696 1_555
Li3 O1 2.210741 1_554
Li3 O6 2.210741 1_556
Li3 O3 2.210745 1_555
Li3 O4 2.210745 1_555
Mn0 O4 1.953126 1_545
Mn0 O3 1.953126 1_555
Mn0 O7 2.125273 1_555
Mn0 O5 2.125273 1_545
Mn0 O0 2.125273 1_545
Mn0 O2 2.125273 1_555
Mn1 O6 1.953122 1_445
Mn1 O1 1.953122 1_554
Mn1 O2 2.125273 1_454
Mn1 O7 2.125273 1_555
Mn1 O5 2.125273 1_545
Mn1 O0 2.125273 1_444
Fe0 O2 2.005473 1_454
Fe0 O5 2.005473 1_555
Fe0 O3 2.086536 1_454
Fe0 O4 2.086536 1_555
Fe0 O6 2.086536 1_455
Fe0 O1 2.086536 1_554
Fe1 O0 2.005473 1_445
Fe1 O7 2.005473 1_555
Fe1 O3 2.086531 1_455
Fe1 O4 2.086531 1_545
Fe1 O6 2.086536 1_445
Fe1 O1 2.086536 1_555
