# generated using pymatgen
data_CeFeO3
_symmetry_space_group_name_H-M   'P 1'
_cell_length_a   5.46703400
_cell_length_b   5.78395000
_cell_length_c   7.77725000
_cell_angle_alpha   90.00000000
_cell_angle_beta   90.00000000
_cell_angle_gamma   90.00000000
_symmetry_Int_Tables_number   1
_chemical_formula_structural   CeFeO3
_chemical_formula_sum   'Ce4 Fe4 O12'
_cell_volume   245.92482126
_cell_formula_units_Z   4
loop_
 _symmetry_equiv_pos_site_id
 _symmetry_equiv_pos_as_xyz
  1  'x, y, z'
loop_
 _atom_site_type_symbol
 _atom_site_label
 _atom_site_symmetry_multiplicity
 _atom_site_fract_x
 _atom_site_fract_y
 _atom_site_fract_z
 _atom_site_occupancy
  Ce  Ce0  1  0.02468100  0.41629300  0.75000000  1
  Ce  Ce1  1  0.47531900  0.91629300  0.75000000  1
  Ce  Ce2  1  0.52468100  0.08370700  0.25000000  1
  Ce  Ce3  1  0.97531900  0.58370700  0.25000000  1
  Fe  Fe0  1  0.00000000  0.00000000  0.00000000  1
  Fe  Fe1  1  0.00000000  0.00000000  0.50000000  1
  Fe  Fe2  1  0.50000000  0.50000000  0.00000000  1
  Fe  Fe3  1  0.50000000  0.50000000  0.50000000  1
  O  O0  1  0.13588700  0.95304200  0.25000000  1
  O  O1  1  0.18197500  0.68109600  0.56812000  1
  O  O2  1  0.18197500  0.68109600  0.93188000  1
  O  O3  1  0.31802500  0.18109600  0.56812000  1
  O  O4  1  0.31802500  0.18109600  0.93188000  1
  O  O5  1  0.36411300  0.45304200  0.25000000  1
  O  O6  1  0.63588700  0.54695800  0.75000000  1
  O  O7  1  0.68197500  0.81890400  0.06812000  1
  O  O8  1  0.68197500  0.81890400  0.43188000  1
  O  O9  1  0.81802500  0.31890400  0.06812000  1
  O  O10  1  0.81802500  0.31890400  0.43188000  1
  O  O11  1  0.86411300  0.04695800  0.75000000  1
loop_
_geom_bond_atom_site_label_1
_geom_bond_atom_site_label_2
_geom_bond_distance
_geom_bond_site_symmetry_2
Ce0 O1 2.255258 1_555
Ce0 O2 2.255258 1_555
Ce0 O6 2.255911 1_455
Ce0 O11 2.309546 1_455
Ce0 O3 2.534444 1_555
Ce0 O4 2.534444 1_555
Ce0 O10 2.777571 1_455
Ce0 O9 2.777571 1_456
Ce1 O3 2.255258 1_565
Ce1 O4 2.255258 1_565
Ce1 O11 2.255911 1_565
Ce1 O6 2.309546 1_555
Ce1 O1 2.534444 1_555
Ce1 O2 2.534444 1_555
Ce1 O8 2.777571 1_555
Ce1 O7 2.777571 1_556
Ce2 O8 2.255258 1_545
Ce2 O7 2.255258 1_545
Ce2 O0 2.255911 1_545
Ce2 O5 2.309546 1_555
Ce2 O9 2.534444 1_555
Ce2 O10 2.534444 1_555
Ce2 O4 2.777571 1_554
Ce2 O3 2.777571 1_555
Ce3 O9 2.255258 1_555
Ce3 O10 2.255258 1_555
Ce3 O5 2.255911 1_655
Ce3 O0 2.309546 1_655
Ce3 O7 2.534444 1_555
Ce3 O8 2.534444 1_555
Ce3 O2 2.777571 1_654
Ce3 O1 2.777571 1_655
Fe0 O4 2.097794 1_554
Fe0 O7 2.097794 1_445
Fe0 O0 2.099052 1_545
Fe0 O11 2.099052 1_454
Fe0 O9 2.161643 1_455
Fe0 O2 2.161643 1_544
Fe1 O3 2.097794 1_555
Fe1 O8 2.097794 1_445
Fe1 O0 2.099052 1_545
Fe1 O11 2.099052 1_455
Fe1 O10 2.161643 1_455
Fe1 O1 2.161643 1_545
Fe2 O2 2.097794 1_554
Fe2 O9 2.097794 1_555
Fe2 O6 2.099052 1_554
Fe2 O5 2.099052 1_555
Fe2 O7 2.161643 1_555
Fe2 O4 2.161643 1_554
Fe3 O1 2.097794 1_555
Fe3 O10 2.097794 1_555
Fe3 O6 2.099052 1_555
Fe3 O5 2.099052 1_555
Fe3 O8 2.161643 1_555
Fe3 O3 2.161643 1_555
