# generated using pymatgen
data_La2Ti2CrO9
_symmetry_space_group_name_H-M   'P 1'
_cell_length_a   5.45221200
_cell_length_b   5.46354200
_cell_length_c   23.70554438
_cell_angle_alpha   89.96938414
_cell_angle_beta   90.00000000
_cell_angle_gamma   90.00000000
_symmetry_Int_Tables_number   1
_chemical_formula_structural   La2Ti2CrO9
_chemical_formula_sum   'La8 Ti8 Cr4 O36'
_cell_volume   706.14988281
_cell_formula_units_Z   4
loop_
 _symmetry_equiv_pos_site_id
 _symmetry_equiv_pos_as_xyz
  1  'x, y, z'
loop_
 _atom_site_type_symbol
 _atom_site_label
 _atom_site_symmetry_multiplicity
 _atom_site_fract_x
 _atom_site_fract_y
 _atom_site_fract_z
 _atom_site_occupancy
  La  La0  1  0.99021400  0.24262300  0.33326800  1
  La  La1  1  0.49021400  0.75737700  0.66673200  1
  La  La2  1  0.50299900  0.75053300  0.16390800  1
  La  La3  1  0.50899100  0.75011500  0.49856200  1
  La  La4  1  0.50433800  0.75426900  0.83613200  1
  La  La5  1  0.00433800  0.24573100  0.16386800  1
  La  La6  1  0.00299900  0.24946700  0.83609200  1
  La  La7  1  0.00899100  0.24988500  0.50143800  1
  Ti  Ti0  1  0.50185600  0.24907300  0.92373300  1
  Ti  Ti1  1  0.50228600  0.24870300  0.07601700  1
  Ti  Ti2  1  0.49884400  0.25071300  0.41233000  1
  Ti  Ti3  1  0.49894500  0.25060000  0.74718900  1
  Ti  Ti4  1  0.00228600  0.75129700  0.92398300  1
  Ti  Ti5  1  0.99884400  0.74928700  0.58767000  1
  Ti  Ti6  1  0.99894500  0.74940000  0.25281100  1
  Ti  Ti7  1  0.00185600  0.75092700  0.07626700  1
  Cr  Cr0  1  0.49746300  0.25036900  0.25278300  1
  Cr  Cr1  1  0.49974700  0.24959700  0.58490600  1
  Cr  Cr2  1  0.99974700  0.75040300  0.41509400  1
  Cr  Cr3  1  0.99746300  0.74963100  0.74721700  1
  O  O0  1  0.50176800  0.27444700  0.00002300  1
  O  O1  1  0.50314400  0.29142100  0.33530200  1
  O  O2  1  0.50458300  0.29586300  0.66177800  1
  O  O3  1  0.24986600  0.00118500  0.91004000  1
  O  O4  1  0.25111600  0.99945800  0.09011800  1
  O  O5  1  0.22409700  0.03189000  0.25856600  1
  O  O6  1  0.22164900  0.03332900  0.41312900  1
  O  O7  1  0.24431900  0.00479700  0.58616800  1
  O  O8  1  0.24376900  0.00155300  0.73994400  1
  O  O9  1  0.75111600  0.00054200  0.90988200  1
  O  O10  1  0.74986600  0.99881500  0.08996000  1
  O  O11  1  0.74376900  0.99844700  0.26005600  1
  O  O12  1  0.74431900  0.99520300  0.41383200  1
  O  O13  1  0.72164900  0.96667100  0.58687100  1
  O  O14  1  0.72409700  0.96811000  0.74143400  1
  O  O15  1  0.00176800  0.72555300  0.99997700  1
  O  O16  1  0.00458300  0.70413700  0.33822200  1
  O  O17  1  0.00314400  0.70857900  0.66469800  1
  O  O18  1  0.99767700  0.78701000  0.17284600  1
  O  O19  1  0.99792100  0.79200400  0.82630100  1
  O  O20  1  0.99708400  0.79834600  0.49840600  1
  O  O21  1  0.25235400  0.50063300  0.09825400  1
  O  O22  1  0.27078800  0.52255700  0.75493900  1
  O  O23  1  0.25575100  0.51379000  0.43040800  1
  O  O24  1  0.26723200  0.51689100  0.57093100  1
  O  O25  1  0.26265200  0.51020300  0.24377400  1
  O  O26  1  0.25142300  0.50119800  0.90172000  1
  O  O27  1  0.75142300  0.49880200  0.09828000  1
  O  O28  1  0.76265200  0.48979700  0.75622600  1
  O  O29  1  0.76723200  0.48310900  0.42906900  1
  O  O30  1  0.77078800  0.47744300  0.24506100  1
  O  O31  1  0.75575100  0.48621000  0.56959200  1
  O  O32  1  0.75235400  0.49936700  0.90174600  1
  O  O33  1  0.49792100  0.20799600  0.17369900  1
  O  O34  1  0.49708400  0.20165400  0.50159400  1
  O  O35  1  0.49767700  0.21299000  0.82715400  1
loop_
_geom_bond_atom_site_label_1
_geom_bond_atom_site_label_2
_geom_bond_distance
_geom_bond_site_symmetry_2
La0 O5 2.467748 1_655
La0 O16 2.525513 1_655
La0 O6 2.545875 1_655
La0 O11 2.568992 1_545
La0 O1 2.669397 1_555
La0 O12 2.696176 1_545
La0 O30 2.728850 1_555
La0 O1 2.809699 1_655
La0 O29 2.892245 1_555
La0 O16 2.945363 1_645
La0 O25 2.973399 1_655
La0 O23 3.097950 1_655
La1 O14 2.467748 1_555
La1 O2 2.525513 1_555
La1 O13 2.545875 1_555
La1 O8 2.568992 1_565
La1 O17 2.669397 1_555
La1 O7 2.696176 1_565
La1 O22 2.728850 1_555
La1 O17 2.809699 1_655
La1 O24 2.892245 1_555
La1 O2 2.945363 1_565
La1 O28 2.973399 1_555
La1 O31 3.097950 1_555
La2 O27 2.479671 1_555
La2 O21 2.481170 1_555
La2 O33 2.510398 1_565
La2 O10 2.592705 1_555
La2 O4 2.606321 1_555
La2 O25 2.650117 1_555
La2 O18 2.712738 1_555
La2 O18 2.770444 1_455
La2 O30 2.838265 1_555
La2 O11 2.959077 1_555
La2 O33 2.973252 1_555
La2 O5 3.116759 1_565
La3 O34 2.468941 1_565
La3 O23 2.487165 1_555
La3 O24 2.510352 1_555
La3 O31 2.592609 1_555
La3 O29 2.612835 1_555
La3 O13 2.670063 1_555
La3 O20 2.674204 1_555
La3 O12 2.733271 1_555
La3 O20 2.803440 1_455
La3 O7 2.886959 1_565
La3 O6 2.991140 1_565
La3 O34 2.998066 1_555
La4 O32 2.486980 1_555
La4 O26 2.495667 1_555
La4 O35 2.515411 1_565
La4 O9 2.584526 1_565
La4 O3 2.610940 1_565
La4 O22 2.632736 1_555
La4 O19 2.709038 1_555
La4 O28 2.768106 1_555
La4 O19 2.778561 1_455
La4 O14 2.799507 1_555
La4 O35 2.965285 1_555
La4 O8 3.006596 1_565
La5 O21 2.486980 1_555
La5 O27 2.495667 1_455
La5 O18 2.515411 1_445
La5 O4 2.584526 1_545
La5 O10 2.610940 1_445
La5 O30 2.632736 1_455
La5 O33 2.709038 1_555
La5 O25 2.768106 1_555
La5 O33 2.778561 1_455
La5 O5 2.799507 1_555
La5 O18 2.965285 1_455
La5 O11 3.006596 1_445
La6 O26 2.479671 1_555
La6 O32 2.481170 1_455
La6 O19 2.510398 1_445
La6 O3 2.592705 1_555
La6 O9 2.606321 1_455
La6 O28 2.650117 1_455
La6 O35 2.712738 1_555
La6 O35 2.770444 1_455
La6 O22 2.838265 1_555
La6 O8 2.959077 1_555
La6 O19 2.973252 1_455
La6 O14 3.116759 1_445
La7 O20 2.468941 1_445
La7 O31 2.487165 1_455
La7 O29 2.510352 1_455
La7 O23 2.592609 1_555
La7 O24 2.612835 1_555
La7 O6 2.670063 1_555
La7 O34 2.674204 1_555
La7 O7 2.733271 1_555
La7 O34 2.803440 1_455
La7 O12 2.886959 1_445
La7 O13 2.991140 1_445
La7 O20 2.998066 1_455
Cr0 O33 1.889094 1_555
Cr0 O5 1.914394 1_555
Cr0 O25 1.923435 1_555
Cr0 O11 1.930628 1_545
Cr0 O30 1.947613 1_555
Cr0 O1 1.969337 1_555
Cr1 O2 1.840063 1_555
Cr1 O7 1.931103 1_555
Cr1 O31 1.936673 1_555
Cr1 O24 1.961896 1_555
Cr1 O13 1.963486 1_545
Cr1 O34 1.992443 1_555
Cr2 O16 1.840063 1_655
Cr2 O12 1.931103 1_555
Cr2 O23 1.936673 1_655
Cr2 O29 1.961896 1_555
Cr2 O6 1.963486 1_665
Cr2 O20 1.992443 1_555
Cr3 O19 1.889094 1_555
Cr3 O14 1.914394 1_555
Cr3 O28 1.923435 1_555
Cr3 O8 1.930628 1_665
Cr3 O22 1.947613 1_655
Cr3 O17 1.969337 1_655
O0 Ti1 1.806889 1_555
O0 Ti0 1.813876 1_554
O1 Ti2 1.839517 1_555
O2 Ti3 2.039861 1_555
O3 Ti4 1.948039 1_545
O3 Ti0 1.956451 1_555
O4 Ti7 1.949103 1_555
O4 Ti1 1.959844 1_565
O5 Ti6 1.976829 1_445
O6 Ti2 1.922249 1_555
O7 Ti5 1.934236 1_445
O8 Ti3 1.953672 1_555
O9 Ti0 1.949103 1_555
O9 Ti4 1.959844 1_645
O10 Ti1 1.948039 1_565
O10 Ti7 1.956451 1_655
O11 Ti6 1.953672 1_555
O12 Ti2 1.934236 1_565
O13 Ti5 1.922249 1_555
O14 Ti3 1.976829 1_565
O15 Ti4 1.806889 1_555
O15 Ti7 1.813876 1_556
O16 Ti6 2.039861 1_455
O17 Ti5 1.839517 1_455
O18 Ti6 1.906622 1_555
O18 Ti7 2.298148 1_655
O19 Ti4 2.326264 1_655
O20 Ti5 2.132839 1_555
O21 Ti7 2.001564 1_555
O21 Ti1 2.007515 1_555
O22 Ti3 1.946594 1_555
O23 Ti2 2.001726 1_555
O24 Ti5 1.977730 1_455
O25 Ti6 1.954818 1_455
O26 Ti4 1.997881 1_555
O26 Ti0 2.008329 1_555
O27 Ti1 1.997881 1_555
O27 Ti7 2.008329 1_655
O28 Ti3 1.954818 1_555
O29 Ti2 1.977730 1_555
O30 Ti6 1.946594 1_555
O31 Ti5 2.001726 1_555
O32 Ti0 2.001564 1_555
O32 Ti4 2.007515 1_655
O33 Ti1 2.326264 1_555
O34 Ti2 2.132839 1_555
O35 Ti3 1.906622 1_555
O35 Ti0 2.298148 1_555
