# generated using pymatgen
data_Li8Fe7(PO4)8
_symmetry_space_group_name_H-M   'P 1'
_cell_length_a   7.75840160
_cell_length_b   7.75840160
_cell_length_c   11.31403528
_cell_angle_alpha   75.05284062
_cell_angle_beta   104.94715938
_cell_angle_gamma   76.23383903
_symmetry_Int_Tables_number   1
_chemical_formula_structural   Li8Fe7(PO4)8
_chemical_formula_sum   'Li8 Fe7 P8 O32'
_cell_volume   600.94665261
_cell_formula_units_Z   1
loop_
 _symmetry_equiv_pos_site_id
 _symmetry_equiv_pos_as_xyz
  1  'x, y, z'
loop_
 _atom_site_type_symbol
 _atom_site_label
 _atom_site_symmetry_multiplicity
 _atom_site_fract_x
 _atom_site_fract_y
 _atom_site_fract_z
 _atom_site_occupancy
  Li  Li0  1  0.25870700  0.25091000  0.51898100  1
  Li  Li1  1  0.49909000  0.49129300  0.51898100  1
  Li  Li2  1  0.74841900  0.75614800  0.49670900  1
  Li  Li3  1  0.99385200  0.00158100  0.49670900  1
  Li  Li4  1  0.74523600  0.76777300  0.99549100  1
  Li  Li5  1  0.98222700  0.00476400  0.99549100  1
  Li  Li6  1  0.49876500  0.48709900  0.99354200  1
  Li  Li7  1  0.26290100  0.25123500  0.99354200  1
  Fe  Fe0  1  0.00883000  0.74117000  0.78223100  1
  Fe  Fe1  1  0.97559800  0.27003100  0.71909000  1
  Fe  Fe2  1  0.47996900  0.77440200  0.71909000  1
  Fe  Fe3  1  0.02750200  0.72249800  0.27968700  1
  Fe  Fe4  1  0.52542800  0.22457200  0.28169300  1
  Fe  Fe5  1  0.49888600  0.75238400  0.22300100  1
  Fe  Fe6  1  0.99761600  0.25111400  0.22300100  1
  P  P0  1  0.27655100  0.96510100  0.90149500  1
  P  P1  1  0.78489900  0.47344900  0.90149500  1
  P  P2  1  0.63792600  0.11207400  0.59847200  1
  P  P3  1  0.13177500  0.61822500  0.58976100  1
  P  P4  1  0.36720000  0.88273100  0.40604500  1
  P  P5  1  0.86726900  0.38280000  0.40604500  1
  P  P6  1  0.21755800  0.53244200  0.09484600  1
  P  P7  1  0.71711900  0.03288100  0.09867200  1
  O  O0  1  0.21039600  0.53960400  0.95407700  1
  O  O1  1  0.71143600  0.03856400  0.96194600  1
  O  O2  1  0.93537300  0.31401700  0.88958100  1
  O  O3  1  0.43598300  0.81462700  0.88958100  1
  O  O4  1  0.25120600  0.17279400  0.82474700  1
  O  O5  1  0.07194200  0.95977600  0.83399900  1
  O  O6  1  0.57720600  0.49879400  0.82474700  1
  O  O7  1  0.79022400  0.67805800  0.83399900  1
  O  O8  1  0.21041900  0.74659200  0.66588500  1
  O  O9  1  0.00340800  0.53958100  0.66588500  1
  O  O10  1  0.50493300  0.03010000  0.66314700  1
  O  O11  1  0.71990000  0.24506700  0.66314700  1
  O  O12  1  0.28233600  0.46766400  0.57857600  1
  O  O13  1  0.80005300  0.94994700  0.59977200  1
  O  O14  1  0.49615900  0.74956600  0.54919800  1
  O  O15  1  0.00043400  0.25384100  0.54919800  1
  O  O16  1  0.50361300  0.24638700  0.45952400  1
  O  O17  1  0.98745400  0.76254600  0.45646000  1
  O  O18  1  0.70649800  0.54452700  0.40440000  1
  O  O19  1  0.20547300  0.04350200  0.40440000  1
  O  O20  1  0.99786400  0.45204000  0.33436600  1
  O  O21  1  0.50597200  0.94849600  0.34108800  1
  O  O22  1  0.29796000  0.75213600  0.33436600  1
  O  O23  1  0.80150400  0.24402800  0.34108800  1
  O  O24  1  0.71812300  0.82931100  0.17369700  1
  O  O25  1  0.21666600  0.32943500  0.16351400  1
  O  O26  1  0.42056500  0.53333400  0.16351400  1
  O  O27  1  0.92068900  0.03187700  0.17369700  1
  O  O28  1  0.05870800  0.69129200  0.09818000  1
  O  O29  1  0.55631400  0.19368600  0.10106200  1
  O  O30  1  0.80057000  0.45272400  0.04338800  1
  O  O31  1  0.29727600  0.94943000  0.04338800  1
loop_
_geom_bond_atom_site_label_1
_geom_bond_atom_site_label_2
_geom_bond_distance
_geom_bond_site_symmetry_2
Li0 O12 1.996022 1_555
Li0 O15 2.113827 1_555
Li0 O10 2.153672 1_555
Li0 O16 2.168838 1_555
Li0 O20 2.351270 1_455
Li0 O19 2.357276 1_555
Li1 O12 1.996022 1_555
Li1 O14 2.113827 1_555
Li1 O11 2.153672 1_555
Li1 O16 2.168838 1_555
Li1 O22 2.351270 1_555
Li1 O18 2.357276 1_555
Li2 O17 2.029017 1_555
Li2 O21 2.113156 1_555
Li2 O13 2.175089 1_555
Li2 O14 2.194798 1_555
Li2 O18 2.203549 1_555
Li2 O9 2.281699 1_655
Li3 O17 2.029017 1_545
Li3 O23 2.113156 1_555
Li3 O13 2.175089 1_545
Li3 O15 2.194798 1_655
Li3 O19 2.203549 1_655
Li3 O8 2.281699 1_645
Li4 O1 1.975286 1_565
Li4 O7 2.194105 1_555
Li4 O24 2.237171 1_556
Li4 O28 2.262017 1_656
Li4 O30 2.269307 1_556
Li4 O3 2.280744 1_555
Li5 O1 1.975286 1_555
Li5 O5 2.194105 1_645
Li5 O27 2.237171 1_556
Li5 O28 2.262017 1_646
Li5 O31 2.269307 1_646
Li5 O2 2.280744 1_555
Li6 O0 2.080349 1_555
Li6 O6 2.135928 1_555
Li6 O29 2.160747 1_556
Li6 O30 2.194522 1_556
Li6 O26 2.247022 1_556
Li6 O3 2.377280 1_555
Li7 O0 2.080349 1_555
Li7 O4 2.135928 1_555
Li7 O29 2.160747 1_556
Li7 O31 2.194522 1_546
Li7 O25 2.247022 1_556
Li7 O2 2.377280 1_455
Fe0 O5 2.054036 1_555
Fe0 O7 2.054036 1_455
Fe0 O0 2.090573 1_555
Fe0 O13 2.193262 1_455
Fe0 O8 2.290290 1_555
Fe0 O9 2.290290 1_555
Fe1 O11 1.992986 1_555
Fe1 O4 2.004705 1_655
Fe1 O15 2.012886 1_655
Fe1 O9 2.101118 1_655
Fe1 O2 2.129341 1_555
Fe1 O5 2.251904 1_645
Fe2 O10 1.992986 1_565
Fe2 O6 2.004705 1_555
Fe2 O14 2.012886 1_555
Fe2 O8 2.101118 1_555
Fe2 O3 2.129341 1_555
Fe2 O7 2.251904 1_555
Fe3 O22 2.114691 1_555
Fe3 O20 2.114691 1_455
Fe3 O17 2.188225 1_455
Fe3 O28 2.195329 1_555
Fe3 O27 2.223066 1_465
Fe3 O24 2.223066 1_455
Fe4 O16 2.107860 1_555
Fe4 O23 2.127401 1_555
Fe4 O21 2.127401 1_545
Fe4 O29 2.183879 1_555
Fe4 O26 2.246586 1_555
Fe4 O25 2.246586 1_555
Fe5 O24 2.088394 1_555
Fe5 O31 2.129089 1_555
Fe5 O26 2.140324 1_555
Fe5 O18 2.181368 1_555
Fe5 O22 2.242995 1_555
Fe5 O21 2.270152 1_555
Fe6 O27 2.088394 1_555
Fe6 O30 2.129089 1_555
Fe6 O25 2.140324 1_655
Fe6 O19 2.181368 1_655
Fe6 O20 2.242995 1_555
Fe6 O23 2.270152 1_555
O0 P6 1.565243 1_556
O1 P7 1.524980 1_556
O2 P1 1.546296 1_555
O3 P0 1.546296 1_555
O4 P0 1.558365 1_545
O5 P0 1.589646 1_555
O6 P1 1.558365 1_555
O7 P1 1.589646 1_555
O8 P3 1.602038 1_555
O9 P3 1.602038 1_555
O10 P2 1.570438 1_555
O11 P2 1.570438 1_555
O12 P3 1.499371 1_555
O13 P2 1.546769 1_565
O14 P4 1.581322 1_555
O15 P5 1.581322 1_455
O16 P2 1.560839 1_555
O17 P3 1.563046 1_655
O18 P5 1.536775 1_555
O19 P4 1.536775 1_545
O20 P5 1.559176 1_555
O21 P4 1.560706 1_555
O22 P4 1.559176 1_555
O23 P5 1.560706 1_555
O24 P7 1.585616 1_565
O25 P6 1.568768 1_555
O26 P6 1.568768 1_555
O27 P7 1.585616 1_555
O28 P6 1.537614 1_555
O29 P7 1.551689 1_555
O30 P1 1.541018 1_554
O31 P0 1.541018 1_554
