# generated using pymatgen
data_Li2Mn7O12
_symmetry_space_group_name_H-M   'P 1'
_cell_length_a   9.01122700
_cell_length_b   5.22886400
_cell_length_c   10.00842405
_cell_angle_alpha   78.22053982
_cell_angle_beta   90.00000000
_cell_angle_gamma   90.00000000
_symmetry_Int_Tables_number   1
_chemical_formula_structural   Li2Mn7O12
_chemical_formula_sum   'Li4 Mn14 O24'
_cell_volume   461.65052140
_cell_formula_units_Z   2
loop_
 _symmetry_equiv_pos_site_id
 _symmetry_equiv_pos_as_xyz
  1  'x, y, z'
loop_
 _atom_site_type_symbol
 _atom_site_label
 _atom_site_symmetry_multiplicity
 _atom_site_fract_x
 _atom_site_fract_y
 _atom_site_fract_z
 _atom_site_occupancy
  Li  Li0  1  0.91111100  0.49266800  0.26920700  1
  Li  Li1  1  0.58079100  0.74725400  0.49901200  1
  Li  Li2  1  0.41111100  0.50733200  0.73079300  1
  Li  Li3  1  0.08079100  0.25274600  0.50098800  1
  Mn  Mn0  1  0.91623000  0.23870500  0.01403700  1
  Mn  Mn1  1  0.92342600  0.75730300  0.50347400  1
  Mn  Mn2  1  0.74441600  0.24131000  0.51121000  1
  Mn  Mn3  1  0.74113900  0.99826400  0.26295300  1
  Mn  Mn4  1  0.74770600  0.75682600  0.99336600  1
  Mn  Mn5  1  0.58305800  0.25625500  0.98951200  1
  Mn  Mn6  1  0.75677800  0.50540300  0.74275800  1
  Mn  Mn7  1  0.42342600  0.24269700  0.49652600  1
  Mn  Mn8  1  0.41623000  0.76129500  0.98596300  1
  Mn  Mn9  1  0.24770600  0.24317400  0.00663400  1
  Mn  Mn10  1  0.24113900  0.00173600  0.73704700  1
  Mn  Mn11  1  0.24441600  0.75869000  0.48879000  1
  Mn  Mn12  1  0.25677800  0.49459700  0.25724200  1
  Mn  Mn13  1  0.08305800  0.74374500  0.01048800  1
  O  O0  1  0.89734500  0.11959000  0.39908300  1
  O  O1  1  0.88418000  0.87682200  0.11843600  1
  O  O2  1  0.77082300  0.84133000  0.62211000  1
  O  O3  1  0.91751300  0.60775800  0.91486100  1
  O  O4  1  0.74275200  0.16627600  0.87878600  1
  O  O5  1  0.89503400  0.40241800  0.61170600  1
  O  O6  1  0.59602500  0.12479200  0.39882700  1
  O  O7  1  0.77053100  0.66279200  0.38267400  1
  O  O8  1  0.58124100  0.88832400  0.08583900  1
  O  O9  1  0.76219700  0.33620600  0.13063300  1
  O  O10  1  0.60739200  0.60929500  0.87699800  1
  O  O11  1  0.58135800  0.37029900  0.60508900  1
  O  O12  1  0.38418000  0.12317800  0.88156400  1
  O  O13  1  0.39734500  0.88041000  0.60091700  1
  O  O14  1  0.27082300  0.15867000  0.37789000  1
  O  O15  1  0.39503400  0.59758200  0.38829400  1
  O  O16  1  0.24275200  0.83372400  0.12121400  1
  O  O17  1  0.41751300  0.39224200  0.08513900  1
  O  O18  1  0.08124100  0.11167600  0.91416100  1
  O  O19  1  0.27053100  0.33720800  0.61732600  1
  O  O20  1  0.09602500  0.87520800  0.60117300  1
  O  O21  1  0.26219700  0.66379400  0.86936700  1
  O  O22  1  0.08135800  0.62970100  0.39491100  1
  O  O23  1  0.10739200  0.39070500  0.12300200  1
loop_
_geom_bond_atom_site_label_1
_geom_bond_atom_site_label_2
_geom_bond_distance
_geom_bond_site_symmetry_2
Li0 O7 2.024398 1_555
Li0 O0 2.115471 1_555
Li0 O22 2.194960 1_655
Li0 O9 2.203812 1_555
Li0 O1 2.265654 1_555
Li0 O23 2.423301 1_655
Li1 O6 2.028082 1_565
Li1 O11 2.039068 1_555
Li1 O13 2.132503 1_555
Li1 O7 2.164282 1_555
Li1 O2 2.222537 1_555
Li1 O15 2.235266 1_555
Li2 O19 2.024398 1_555
Li2 O13 2.115471 1_555
Li2 O11 2.194960 1_555
Li2 O21 2.203812 1_555
Li2 O12 2.265654 1_555
Li2 O10 2.423301 1_555
Li3 O20 2.028082 1_545
Li3 O22 2.039068 1_555
Li3 O0 2.132503 1_455
Li3 O19 2.164282 1_555
Li3 O14 2.222537 1_555
Li3 O5 2.235266 1_455
Mn0 O9 1.947098 1_555
Mn0 O18 1.980530 1_654
Mn0 O3 1.981710 1_554
Mn0 O1 1.987077 1_545
Mn0 O4 2.151478 1_554
Mn0 O23 2.267660 1_655
Mn1 O2 1.925324 1_555
Mn1 O7 1.961668 1_555
Mn1 O5 1.965087 1_555
Mn1 O0 1.981740 1_565
Mn1 O22 1.986739 1_655
Mn1 O20 2.000345 1_655
Mn2 O6 1.924623 1_555
Mn2 O11 1.937899 1_555
Mn2 O0 1.963456 1_555
Mn2 O5 1.977217 1_555
Mn2 O2 2.171385 1_545
Mn2 O7 2.325898 1_555
Mn3 O7 1.929952 1_555
Mn3 O9 1.989181 1_565
Mn3 O6 2.089090 1_565
Mn3 O1 2.128784 1_555
Mn3 O0 2.143124 1_565
Mn3 O8 2.442309 1_555
Mn4 O1 1.947729 1_556
Mn4 O3 1.953551 1_555
Mn4 O8 1.959419 1_556
Mn4 O10 1.979156 1_555
Mn4 O4 2.213220 1_565
Mn4 O9 2.346910 1_556
Mn5 O4 1.932139 1_555
Mn5 O8 1.968167 1_546
Mn5 O10 1.968535 1_555
Mn5 O17 1.981114 1_556
Mn5 O9 2.239768 1_556
Mn5 O12 2.273792 1_555
Mn6 O2 1.921832 1_555
Mn6 O5 1.962363 1_555
Mn6 O4 2.007036 1_555
Mn6 O10 2.051901 1_555
Mn6 O11 2.300807 1_555
Mn6 O3 2.393259 1_555
Mn7 O14 1.925324 1_555
Mn7 O19 1.961668 1_555
Mn7 O15 1.965087 1_555
Mn7 O13 1.981740 1_545
Mn7 O11 1.986739 1_555
Mn7 O6 2.000345 1_555
Mn8 O21 1.947098 1_555
Mn8 O8 1.980530 1_556
Mn8 O17 1.981710 1_556
Mn8 O12 1.987077 1_565
Mn8 O16 2.151478 1_556
Mn8 O10 2.267660 1_555
Mn9 O12 1.947729 1_554
Mn9 O17 1.953551 1_555
Mn9 O18 1.959419 1_554
Mn9 O23 1.979156 1_555
Mn9 O16 2.213220 1_545
Mn9 O21 2.346910 1_554
Mn10 O19 1.929952 1_555
Mn10 O21 1.989181 1_545
Mn10 O20 2.089090 1_545
Mn10 O12 2.128784 1_555
Mn10 O13 2.143124 1_545
Mn10 O18 2.442309 1_555
Mn11 O20 1.924623 1_555
Mn11 O22 1.937899 1_555
Mn11 O13 1.963456 1_555
Mn11 O15 1.977217 1_555
Mn11 O14 2.171385 1_565
Mn11 O19 2.325898 1_555
Mn12 O14 1.921832 1_555
Mn12 O15 1.962363 1_555
Mn12 O16 2.007036 1_555
Mn12 O23 2.051901 1_555
Mn12 O22 2.300807 1_555
Mn12 O17 2.393259 1_555
Mn13 O16 1.932139 1_555
Mn13 O18 1.968167 1_564
Mn13 O23 1.968535 1_555
Mn13 O3 1.981114 1_454
Mn13 O21 2.239768 1_554
Mn13 O1 2.273792 1_455
