# generated using pymatgen
data_LiMnF3
_symmetry_space_group_name_H-M   'P 1'
_cell_length_a   5.32837962
_cell_length_b   5.32837962
_cell_length_c   15.38592200
_cell_angle_alpha   90.00000000
_cell_angle_beta   90.00000000
_cell_angle_gamma   119.99999526
_symmetry_Int_Tables_number   1
_chemical_formula_structural   LiMnF3
_chemical_formula_sum   'Li6 Mn6 F18'
_cell_volume   378.30710306
_cell_formula_units_Z   6
loop_
 _symmetry_equiv_pos_site_id
 _symmetry_equiv_pos_as_xyz
  1  'x, y, z'
loop_
 _atom_site_type_symbol
 _atom_site_label
 _atom_site_symmetry_multiplicity
 _atom_site_fract_x
 _atom_site_fract_y
 _atom_site_fract_z
 _atom_site_occupancy
  Li  Li0  1  0.00000000  0.00000000  0.82998500  1
  Li  Li1  1  0.66666700  0.33333300  0.55475700  1
  Li  Li2  1  0.00000000  0.00000000  0.67612600  1
  Li  Li3  1  0.00000000  0.00000000  0.32387400  1
  Li  Li4  1  0.33333300  0.66666700  0.44524300  1
  Li  Li5  1  0.00000000  0.00000000  0.17001500  1
  Mn  Mn0  1  0.66666700  0.33333300  0.31732800  1
  Mn  Mn1  1  0.66666700  0.33333300  0.84073200  1
  Mn  Mn2  1  0.33333300  0.66666700  0.15926800  1
  Mn  Mn3  1  0.00000000  0.00000000  0.50000000  1
  Mn  Mn4  1  0.00000000  0.00000000  0.00000000  1
  Mn  Mn5  1  0.33333300  0.66666700  0.68267200  1
  F  F0  1  0.33401100  0.01744400  0.41959700  1
  F  F1  1  0.32048600  0.01353600  0.73898500  1
  F  F2  1  0.30739500  0.27789800  0.90220500  1
  F  F3  1  0.30695000  0.32048600  0.26101500  1
  F  F4  1  0.72210200  0.02949700  0.90220500  1
  F  F5  1  0.98255600  0.31656700  0.41959700  1
  F  F6  1  0.69305000  0.67951400  0.73898500  1
  F  F7  1  0.02949700  0.30739500  0.09779500  1
  F  F8  1  0.68343300  0.66598900  0.41959700  1
  F  F9  1  0.98646400  0.30695000  0.73898500  1
  F  F10  1  0.01353600  0.69305000  0.26101500  1
  F  F11  1  0.31656700  0.33401100  0.58040300  1
  F  F12  1  0.97050300  0.69260500  0.90220500  1
  F  F13  1  0.01744400  0.68343300  0.58040300  1
  F  F14  1  0.27789800  0.97050300  0.09779500  1
  F  F15  1  0.69260500  0.72210200  0.09779500  1
  F  F16  1  0.67951400  0.98646400  0.26101500  1
  F  F17  1  0.66598900  0.98255600  0.58040300  1
loop_
_geom_bond_atom_site_label_1
_geom_bond_atom_site_label_2
_geom_bond_distance
_geom_bond_site_symmetry_2
F0 Li4 1.908506 1_545
F0 Mn3 2.130970 1_555
F0 Li3 2.275913 1_555
F0 Mn0 2.338237 1_555
F1 Li2 1.932238 1_555
F1 Mn5 2.073145 1_545
F1 Li0 2.181401 1_555
F1 Mn1 2.369311 1_555
F2 Li0 1.919569 1_555
F2 Mn1 2.020162 1_555
F2 Mn4 2.171189 1_556
F3 Li3 1.932238 1_555
F3 Mn0 2.073150 1_555
F3 Li5 2.181401 1_555
F3 Mn2 2.369313 1_555
F4 Li0 1.919569 1_655
F4 Mn1 2.020158 1_555
F4 Mn4 2.171189 1_656
F5 Li4 1.908508 1_655
F5 Mn3 2.130970 1_655
F5 Li3 2.275913 1_655
F5 Mn0 2.338235 1_555
F6 Li2 1.932238 1_665
F6 Mn5 2.073150 1_555
F6 Li0 2.181401 1_665
F6 Mn1 2.369313 1_555
F7 Li5 1.919569 1_555
F7 Mn2 2.020161 1_555
F7 Mn4 2.171189 1_555
F8 Li4 1.908511 1_555
F8 Mn3 2.130970 1_665
F8 Li3 2.275913 1_665
F8 Mn0 2.338239 1_555
F9 Li2 1.932238 1_655
F9 Mn5 2.073147 1_655
F9 Li0 2.181401 1_655
F9 Mn1 2.369309 1_555
F10 Li3 1.932238 1_565
F10 Mn0 2.073147 1_455
F10 Li5 2.181401 1_565
F10 Mn2 2.369309 1_555
F11 Li1 1.908511 1_555
F11 Mn3 2.130970 1_555
F11 Li2 2.275913 1_555
F11 Mn5 2.338239 1_555
F12 Li0 1.919569 1_665
F12 Mn1 2.020161 1_555
F12 Mn4 2.171189 1_666
F13 Li1 1.908508 1_455
F13 Mn3 2.130970 1_565
F13 Li2 2.275913 1_565
F13 Mn5 2.338235 1_555
F14 Li5 1.919569 1_565
F14 Mn2 2.020158 1_555
F14 Mn4 2.171189 1_565
F15 Li5 1.919569 1_665
F15 Mn2 2.020162 1_555
F15 Mn4 2.171189 1_665
F16 Li3 1.932238 1_665
F16 Mn0 2.073145 1_565
F16 Li5 2.181401 1_665
F16 Mn2 2.369311 1_555
F17 Li1 1.908506 1_565
F17 Mn3 2.130970 1_665
F17 Li2 2.275913 1_665
F17 Mn5 2.338237 1_555
