# generated using pymatgen
data_Li6Co5Ni3O16
_symmetry_space_group_name_H-M   'P 1'
_cell_length_a   5.69754478
_cell_length_b   5.68371471
_cell_length_c   9.18676588
_cell_angle_alpha   91.37322780
_cell_angle_beta   88.57757881
_cell_angle_gamma   120.54945229
_symmetry_Int_Tables_number   1
_chemical_formula_structural   Li6Co5Ni3O16
_chemical_formula_sum   'Li6 Co5 Ni3 O16'
_cell_volume   256.10052047
_cell_formula_units_Z   1
loop_
 _symmetry_equiv_pos_site_id
 _symmetry_equiv_pos_as_xyz
  1  'x, y, z'
loop_
 _atom_site_type_symbol
 _atom_site_label
 _atom_site_symmetry_multiplicity
 _atom_site_fract_x
 _atom_site_fract_y
 _atom_site_fract_z
 _atom_site_occupancy
  Li  Li0  1  0.82989500  0.17117900  0.44890200  1
  Li  Li1  1  0.33391600  0.17076100  0.44632400  1
  Li  Li2  1  0.82916200  0.66641800  0.44637500  1
  Li  Li3  1  0.16627200  0.33319300  0.95045600  1
  Li  Li4  1  0.66491500  0.83221700  0.95023700  1
  Li  Li5  1  0.16670000  0.83237800  0.94560200  1
  Co  Co0  1  0.82950200  0.17088100  0.71439100  1
  Co  Co1  1  0.66954600  0.33021600  0.98842500  1
  Co  Co2  1  0.17003100  0.33894300  0.21459900  1
  Co  Co3  1  0.66056300  0.82982200  0.21460800  1
  Co  Co4  1  0.33314700  0.66972800  0.48644000  1
  Ni  Ni0  1  0.33736600  0.16714300  0.71397000  1
  Ni  Ni1  1  0.83307900  0.66255100  0.71405900  1
  Ni  Ni2  1  0.16857900  0.83239900  0.21253900  1
  O  O0  1  0.83813000  0.16149800  0.09668500  1
  O  O1  1  0.52996000  0.03362600  0.85070500  1
  O  O2  1  0.96737400  0.47044400  0.85074100  1
  O  O3  1  0.67233700  0.32830900  0.60589300  1
  O  O4  1  0.32490700  0.16633800  0.08905000  1
  O  O5  1  0.52288100  0.47538100  0.85209300  1
  O  O6  1  0.15656700  0.33646000  0.58616200  1
  O  O7  1  0.82898200  0.67076300  0.08779300  1
  O  O8  1  0.48077700  0.51876800  0.34109300  1
  O  O9  1  0.66460700  0.84339400  0.58627500  1
  O  O10  1  0.03919100  0.51574800  0.34707400  1
  O  O11  1  0.33829200  0.66319500  0.10699400  1
  O  O12  1  0.48856100  0.96239300  0.34838200  1
  O  O13  1  0.16022100  0.84138400  0.58667000  1
  O  O14  1  0.99379900  0.00592500  0.81654900  1
  O  O15  1  0.99646900  0.00213300  0.31701200  1
loop_
_geom_bond_atom_site_label_1
_geom_bond_atom_site_label_2
_geom_bond_distance
_geom_bond_site_symmetry_2
Li0 O12 1.932275 1_545
Li0 O10 1.947029 1_655
Li0 O15 2.026336 1_555
Li0 O6 2.054032 1_655
Li0 O9 2.054407 1_545
Li0 O3 2.091049 1_555
Li1 O8 1.978916 1_555
Li1 O12 1.989681 1_545
Li1 O15 2.052292 1_455
Li1 O13 2.077358 1_545
Li1 O6 2.098401 1_555
Li1 O3 2.234017 1_555
Li2 O8 1.985642 1_555
Li2 O10 1.986868 1_655
Li2 O15 2.040916 1_565
Li2 O13 2.088148 1_655
Li2 O9 2.092734 1_555
Li2 O3 2.227861 1_555
Li3 O2 1.927792 1_455
Li3 O5 1.967871 1_555
Li3 O14 2.007767 1_455
Li3 O4 2.079366 1_556
Li3 O0 2.082263 1_456
Li3 O11 2.149095 1_556
Li4 O1 1.928117 1_565
Li4 O5 1.965028 1_555
Li4 O14 2.014341 1_565
Li4 O7 2.073422 1_556
Li4 O0 2.086697 1_566
Li4 O11 2.139104 1_556
Li5 O2 1.967047 1_455
Li5 O1 1.975759 1_565
Li5 O4 2.086110 1_566
Li5 O7 2.094875 1_456
Li5 O14 2.109703 1_465
Li5 O11 2.274805 1_556
Co0 O3 1.870167 1_555
Co0 O14 1.901063 1_555
Co0 O2 1.916262 1_555
Co0 O1 1.917484 1_555
Co0 O9 1.976036 1_545
Co0 O6 1.976685 1_655
Co1 O7 1.890515 1_556
Co1 O1 1.913059 1_555
Co1 O4 1.915653 1_556
Co1 O2 1.918717 1_555
Co1 O5 1.936499 1_555
Co1 O0 1.964889 1_556
Co2 O11 1.880683 1_555
Co2 O15 1.908789 1_455
Co2 O10 1.924725 1_555
Co2 O8 1.932705 1_555
Co2 O4 1.961288 1_555
Co2 O0 1.969039 1_455
Co3 O11 1.877034 1_555
Co3 O15 1.909660 1_565
Co3 O12 1.919616 1_555
Co3 O8 1.929640 1_555
Co3 O0 1.963572 1_565
Co3 O7 1.967547 1_555
Co4 O9 1.878720 1_555
Co4 O6 1.881384 1_555
Co4 O13 1.912992 1_555
Co4 O12 1.925537 1_555
Co4 O10 1.942398 1_555
Co4 O8 1.962042 1_555
Ni0 O3 1.907784 1_555
Ni0 O14 1.919863 1_455
Ni0 O13 1.967133 1_545
Ni0 O5 1.968301 1_555
Ni0 O1 2.078109 1_555
Ni0 O6 2.118444 1_555
Ni1 O3 1.902950 1_555
Ni1 O14 1.916229 1_565
Ni1 O13 1.974758 1_655
Ni1 O5 1.976216 1_555
Ni1 O2 2.077755 1_555
Ni1 O9 2.114873 1_555
Ni2 O11 1.911572 1_555
Ni2 O15 1.919375 1_465
Ni2 O4 2.004318 1_565
Ni2 O10 2.005681 1_555
Ni2 O12 2.031373 1_555
Ni2 O7 2.038060 1_455
