# generated using pymatgen
data_Li5MnO4
_symmetry_space_group_name_H-M   'P 1'
_cell_length_a   12.80422200
_cell_length_b   12.80422200
_cell_length_c   4.70173700
_cell_angle_alpha   90.00000000
_cell_angle_beta   90.00000000
_cell_angle_gamma   90.00000000
_symmetry_Int_Tables_number   1
_chemical_formula_structural   Li5MnO4
_chemical_formula_sum   'Li40 Mn8 O32'
_cell_volume   770.84085267
_cell_formula_units_Z   8
loop_
 _symmetry_equiv_pos_site_id
 _symmetry_equiv_pos_as_xyz
  1  'x, y, z'
loop_
 _atom_site_type_symbol
 _atom_site_label
 _atom_site_symmetry_multiplicity
 _atom_site_fract_x
 _atom_site_fract_y
 _atom_site_fract_z
 _atom_site_occupancy
  Li  Li0  1  0.98599500  0.01400500  0.25000000  1
  Li  Li1  1  0.01400500  0.98599500  0.75000000  1
  Li  Li2  1  0.98599500  0.48599500  0.25000000  1
  Li  Li3  1  0.01400500  0.51400500  0.75000000  1
  Li  Li4  1  0.10976000  0.35684900  0.80650200  1
  Li  Li5  1  0.10976000  0.14315100  0.80650200  1
  Li  Li6  1  0.12191800  0.62191800  0.25000000  1
  Li  Li7  1  0.12191800  0.87808200  0.25000000  1
  Li  Li8  1  0.14315100  0.10976000  0.30650200  1
  Li  Li9  1  0.14315100  0.39024000  0.30650200  1
  Li  Li10  1  0.25000000  0.25000000  0.35797800  1
  Li  Li11  1  0.25000000  0.75000000  0.75000000  1
  Li  Li12  1  0.25000000  0.75000000  0.25000000  1
  Li  Li13  1  0.25000000  0.25000000  0.85797800  1
  Li  Li14  1  0.35684900  0.10976000  0.30650200  1
  Li  Li15  1  0.35684900  0.39024000  0.30650200  1
  Li  Li16  1  0.37808200  0.62191800  0.25000000  1
  Li  Li17  1  0.37808200  0.87808200  0.25000000  1
  Li  Li18  1  0.39024000  0.14315100  0.80650200  1
  Li  Li19  1  0.39024000  0.35684900  0.80650200  1
  Li  Li20  1  0.51400500  0.48599500  0.25000000  1
  Li  Li21  1  0.48599500  0.51400500  0.75000000  1
  Li  Li22  1  0.51400500  0.01400500  0.25000000  1
  Li  Li23  1  0.48599500  0.98599500  0.75000000  1
  Li  Li24  1  0.60976000  0.64315100  0.19349800  1
  Li  Li25  1  0.60976000  0.85684900  0.19349800  1
  Li  Li26  1  0.62191800  0.12191800  0.75000000  1
  Li  Li27  1  0.62191800  0.37808200  0.75000000  1
  Li  Li28  1  0.64315100  0.60976000  0.69349800  1
  Li  Li29  1  0.64315100  0.89024000  0.69349800  1
  Li  Li30  1  0.75000000  0.25000000  0.25000000  1
  Li  Li31  1  0.75000000  0.25000000  0.75000000  1
  Li  Li32  1  0.75000000  0.75000000  0.14202200  1
  Li  Li33  1  0.75000000  0.75000000  0.64202200  1
  Li  Li34  1  0.85684900  0.60976000  0.69349800  1
  Li  Li35  1  0.85684900  0.89024000  0.69349800  1
  Li  Li36  1  0.87808200  0.12191800  0.75000000  1
  Li  Li37  1  0.87808200  0.37808200  0.75000000  1
  Li  Li38  1  0.89024000  0.64315100  0.19349800  1
  Li  Li39  1  0.89024000  0.85684900  0.19349800  1
  Mn  Mn0  1  0.02115900  0.75000000  0.71261300  1
  Mn  Mn1  1  0.25000000  0.52115900  0.78738700  1
  Mn  Mn2  1  0.25000000  0.97884100  0.78738700  1
  Mn  Mn3  1  0.47884100  0.75000000  0.71261300  1
  Mn  Mn4  1  0.52115900  0.25000000  0.28738700  1
  Mn  Mn5  1  0.75000000  0.02115900  0.21261300  1
  Mn  Mn6  1  0.75000000  0.47884100  0.21261300  1
  Mn  Mn7  1  0.97884100  0.25000000  0.28738700  1
  O  O0  1  0.00621300  0.12502700  0.51221700  1
  O  O1  1  0.00621300  0.37497300  0.51221700  1
  O  O2  1  0.12502700  0.00621300  0.01221700  1
  O  O3  1  0.12502700  0.49378700  0.01221700  1
  O  O4  1  0.12840500  0.25000000  0.09546400  1
  O  O5  1  0.12623600  0.75000000  0.00169400  1
  O  O6  1  0.25000000  0.12840500  0.59546400  1
  O  O7  1  0.25000000  0.62623600  0.49830600  1
  O  O8  1  0.25000000  0.87376400  0.49830600  1
  O  O9  1  0.25000000  0.37159500  0.59546400  1
  O  O10  1  0.37376400  0.75000000  0.00169400  1
  O  O11  1  0.37159500  0.25000000  0.09546400  1
  O  O12  1  0.37497300  0.49378700  0.01221700  1
  O  O13  1  0.37497300  0.00621300  0.01221700  1
  O  O14  1  0.49378700  0.12502700  0.51221700  1
  O  O15  1  0.49378700  0.37497300  0.51221700  1
  O  O16  1  0.50621300  0.62502700  0.48778300  1
  O  O17  1  0.50621300  0.87497300  0.48778300  1
  O  O18  1  0.62502700  0.99378700  0.98778300  1
  O  O19  1  0.62502700  0.50621300  0.98778300  1
  O  O20  1  0.62840500  0.75000000  0.90453600  1
  O  O21  1  0.62623600  0.25000000  0.99830500  1
  O  O22  1  0.75000000  0.12623600  0.50169500  1
  O  O23  1  0.75000000  0.37376400  0.50169500  1
  O  O24  1  0.75000000  0.62840500  0.40453600  1
  O  O25  1  0.75000000  0.87159500  0.40453600  1
  O  O26  1  0.87376400  0.25000000  0.99830500  1
  O  O27  1  0.87159500  0.75000000  0.90453600  1
  O  O28  1  0.87497300  0.99378700  0.98778300  1
  O  O29  1  0.87497300  0.50621300  0.98778300  1
  O  O30  1  0.99378700  0.62502700  0.48778300  1
  O  O31  1  0.99378700  0.87497300  0.48778300  1
loop_
_geom_bond_atom_site_label_1
_geom_bond_atom_site_label_2
_geom_bond_distance
_geom_bond_site_symmetry_2
Li0 O28 1.899422 1_544
Li0 O0 1.899422 1_655
Li0 O31 2.104510 1_545
Li0 O2 2.104510 1_655
Li1 O31 1.899422 1_455
Li1 O2 1.899422 1_566
Li1 O28 2.104510 1_455
Li1 O0 2.104510 1_565
Li2 O29 1.899422 1_554
Li2 O1 1.899422 1_655
Li2 O30 2.104510 1_555
Li2 O3 2.104510 1_655
Li3 O30 1.899422 1_455
Li3 O3 1.899422 1_556
Li3 O29 2.104510 1_455
Li3 O1 2.104510 1_555
Li4 O1 1.930334 1_555
Li4 O4 1.942833 1_556
Li4 O3 2.011984 1_556
Li4 O9 2.060245 1_555
Li5 O0 1.930334 1_555
Li5 O4 1.942833 1_556
Li5 O2 2.011984 1_556
Li5 O6 2.060245 1_555
Li6 O3 1.985729 1_555
Li6 O30 1.985729 1_455
Li6 O7 2.013855 1_555
Li6 O5 2.013855 1_555
Li7 O2 1.985729 1_565
Li7 O31 1.985729 1_455
Li7 O8 2.013855 1_555
Li7 O5 2.013855 1_555
Li8 O2 1.930334 1_555
Li8 O6 1.942833 1_555
Li8 O0 2.011984 1_555
Li8 O4 2.060245 1_555
Li9 O3 1.930334 1_555
Li9 O9 1.942833 1_555
Li9 O1 2.011984 1_555
Li9 O4 2.060245 1_555
Li10 O9 1.915938 1_555
Li10 O6 1.915938 1_555
Li10 O4 1.986821 1_555
Li10 O11 1.986821 1_555
Li11 O7 1.977805 1_555
Li11 O8 1.977805 1_555
Li11 O10 1.977805 1_556
Li11 O5 1.977805 1_556
Li12 O10 1.968315 1_555
Li12 O7 1.968315 1_555
Li12 O8 1.968315 1_555
Li12 O5 1.968315 1_555
Li13 O4 1.915938 1_556
Li13 O11 1.915938 1_556
Li13 O9 1.986821 1_555
Li13 O6 1.986821 1_555
Li14 O13 1.930334 1_555
Li14 O6 1.942833 1_555
Li14 O14 2.011984 1_555
Li14 O11 2.060245 1_555
Li15 O12 1.930334 1_555
Li15 O9 1.942833 1_555
Li15 O15 2.011984 1_555
Li15 O11 2.060245 1_555
Li16 O12 1.985729 1_555
Li16 O16 1.985729 1_555
Li16 O7 2.013855 1_555
Li16 O10 2.013855 1_555
Li17 O13 1.985729 1_565
Li17 O17 1.985729 1_555
Li17 O8 2.013855 1_555
Li17 O10 2.013855 1_555
Li18 O14 1.930334 1_555
Li18 O11 1.942833 1_556
Li18 O13 2.011984 1_556
Li18 O6 2.060245 1_555
Li19 O15 1.930334 1_555
Li19 O11 1.942833 1_556
Li19 O12 2.011984 1_556
Li19 O9 2.060245 1_555
Li20 O19 1.899422 1_554
Li20 O15 1.899422 1_555
Li20 O16 2.104510 1_555
Li20 O12 2.104510 1_555
Li21 O16 1.899422 1_555
Li21 O12 1.899422 1_556
Li21 O19 2.104510 1_555
Li21 O15 2.104510 1_555
Li22 O18 1.899422 1_544
Li22 O14 1.899422 1_555
Li22 O17 2.104510 1_545
Li22 O13 2.104510 1_555
Li23 O17 1.899422 1_555
Li23 O13 1.899422 1_566
Li23 O18 2.104510 1_555
Li23 O14 2.104510 1_565
Li24 O16 1.930334 1_555
Li24 O20 1.942833 1_554
Li24 O19 2.011984 1_554
Li24 O24 2.060245 1_555
Li25 O17 1.930334 1_555
Li25 O20 1.942833 1_554
Li25 O18 2.011984 1_554
Li25 O25 2.060245 1_555
Li26 O14 1.985729 1_555
Li26 O18 1.985729 1_545
Li26 O22 2.013852 1_555
Li26 O21 2.013852 1_555
Li27 O15 1.985729 1_555
Li27 O19 1.985729 1_555
Li27 O21 2.013852 1_555
Li27 O23 2.013852 1_555
Li28 O19 1.930334 1_555
Li28 O24 1.942833 1_555
Li28 O16 2.011984 1_555
Li28 O20 2.060245 1_555
Li29 O18 1.930334 1_555
Li29 O25 1.942833 1_555
Li29 O17 2.011984 1_555
Li29 O20 2.060245 1_555
Li30 O23 1.977808 1_555
Li30 O21 1.977808 1_554
Li30 O26 1.977808 1_554
Li30 O22 1.977808 1_555
Li31 O26 1.968312 1_555
Li31 O23 1.968312 1_555
Li31 O21 1.968312 1_555
Li31 O22 1.968312 1_555
Li32 O27 1.915938 1_554
Li32 O20 1.915938 1_554
Li32 O24 1.986821 1_555
Li32 O25 1.986821 1_555
Li33 O25 1.915938 1_555
Li33 O24 1.915938 1_555
Li33 O20 1.986821 1_555
Li33 O27 1.986821 1_555
Li34 O29 1.930334 1_555
Li34 O24 1.942833 1_555
Li34 O30 2.011984 1_555
Li34 O27 2.060245 1_555
Li35 O28 1.930334 1_555
Li35 O25 1.942833 1_555
Li35 O31 2.011984 1_555
Li35 O27 2.060245 1_555
Li36 O0 1.985729 1_655
Li36 O28 1.985729 1_545
Li36 O26 2.013852 1_555
Li36 O22 2.013852 1_555
Li37 O1 1.985729 1_655
Li37 O29 1.985729 1_555
Li37 O26 2.013852 1_555
Li37 O23 2.013852 1_555
Li38 O30 1.930334 1_555
Li38 O27 1.942833 1_554
Li38 O29 2.011984 1_554
Li38 O24 2.060245 1_555
Li39 O31 1.930334 1_555
Li39 O27 1.942833 1_554
Li39 O28 2.011984 1_554
Li39 O25 2.060245 1_555
Mn0 O5 1.912474 1_556
Mn0 O30 1.949579 1_455
Mn0 O31 1.949579 1_455
Mn0 O27 2.117001 1_455
Mn1 O7 1.912474 1_555
Mn1 O12 1.949579 1_556
Mn1 O3 1.949579 1_556
Mn1 O9 2.117001 1_555
Mn2 O8 1.912474 1_555
Mn2 O13 1.949579 1_566
Mn2 O2 1.949579 1_566
Mn2 O6 2.117001 1_565
Mn3 O10 1.912474 1_556
Mn3 O16 1.949579 1_555
Mn3 O17 1.949579 1_555
Mn3 O20 2.117001 1_555
Mn4 O21 1.912478 1_554
Mn4 O15 1.949579 1_555
Mn4 O14 1.949579 1_555
Mn4 O11 2.117001 1_555
Mn5 O22 1.912478 1_555
Mn5 O18 1.949579 1_544
Mn5 O28 1.949579 1_544
Mn5 O25 2.117001 1_545
Mn6 O23 1.912478 1_555
Mn6 O29 1.949579 1_554
Mn6 O19 1.949579 1_554
Mn6 O24 2.117001 1_555
Mn7 O26 1.912478 1_554
Mn7 O0 1.949579 1_655
Mn7 O1 1.949579 1_655
Mn7 O4 2.117001 1_655
