# generated using pymatgen
data_MnHC3O4
_symmetry_space_group_name_H-M   'P 1'
_cell_length_a   9.29857510
_cell_length_b   9.29857510
_cell_length_c   14.09534700
_cell_angle_alpha   90.00000000
_cell_angle_beta   90.00000000
_cell_angle_gamma   119.99999362
_symmetry_Int_Tables_number   1
_chemical_formula_structural   MnHC3O4
_chemical_formula_sum   'Mn8 H8 C24 O32'
_cell_volume   1055.45382414
_cell_formula_units_Z   8
loop_
 _symmetry_equiv_pos_site_id
 _symmetry_equiv_pos_as_xyz
  1  'x, y, z'
loop_
 _atom_site_type_symbol
 _atom_site_label
 _atom_site_symmetry_multiplicity
 _atom_site_fract_x
 _atom_site_fract_y
 _atom_site_fract_z
 _atom_site_occupancy
  Mn  Mn0  1  0.66666700  0.33333300  0.89037800  1
  Mn  Mn1  1  0.33333300  0.66666700  0.10962200  1
  Mn  Mn2  1  0.84882700  0.29793100  0.70156600  1
  Mn  Mn3  1  0.44910400  0.15117300  0.70156600  1
  Mn  Mn4  1  0.70206900  0.55089600  0.70156600  1
  Mn  Mn5  1  0.15117300  0.70206900  0.29843400  1
  Mn  Mn6  1  0.55089600  0.84882700  0.29843400  1
  Mn  Mn7  1  0.29793100  0.44910400  0.29843400  1
  H  H0  1  0.63309500  0.05796700  0.81108600  1
  H  H1  1  0.42487200  0.36690500  0.81108600  1
  H  H2  1  0.94203300  0.57512800  0.81108600  1
  H  H3  1  0.36690500  0.94203300  0.18891400  1
  H  H4  1  0.57512800  0.63309500  0.18891400  1
  H  H5  1  0.05796700  0.42487200  0.18891400  1
  H  H6  1  0.66666700  0.33333300  0.56645500  1
  H  H7  1  0.33333300  0.66666700  0.43354500  1
  C  C0  1  0.81371600  0.31243900  0.96720200  1
  C  C1  1  0.49872300  0.18628400  0.96720200  1
  C  C2  1  0.68756100  0.50127700  0.96720200  1
  C  C3  1  0.18628400  0.68756100  0.03279800  1
  C  C4  1  0.50127700  0.81371600  0.03279800  1
  C  C5  1  0.31243900  0.49872300  0.03279800  1
  C  C6  1  0.00138100  0.27355700  0.77068900  1
  C  C7  1  0.27217500  0.99861900  0.77068900  1
  C  C8  1  0.72644300  0.72782500  0.77068900  1
  C  C9  1  0.99861900  0.72644300  0.22931100  1
  C  C10  1  0.72782500  0.00138100  0.22931100  1
  C  C11  1  0.27355700  0.27217500  0.22931100  1
  C  C12  1  0.81582700  0.11841100  0.63052400  1
  C  C13  1  0.30258500  0.18417300  0.63052400  1
  C  C14  1  0.88158900  0.69741500  0.63052400  1
  C  C15  1  0.18417300  0.88158900  0.36947600  1
  C  C16  1  0.69741500  0.81582700  0.36947600  1
  C  C17  1  0.11841100  0.30258500  0.36947600  1
  C  C18  1  0.01924600  0.43368300  0.62257000  1
  C  C19  1  0.41443700  0.98075400  0.62257000  1
  C  C20  1  0.56631700  0.58556300  0.62257000  1
  C  C21  1  0.98075400  0.56631700  0.37743000  1
  C  C22  1  0.58556300  0.01924600  0.37743000  1
  C  C23  1  0.43368300  0.41443700  0.37743000  1
  O  O0  1  0.64058500  0.15997400  0.78706600  1
  O  O1  1  0.51938900  0.35941500  0.78706600  1
  O  O2  1  0.84002600  0.48061100  0.78706600  1
  O  O3  1  0.35941500  0.84002600  0.21293400  1
  O  O4  1  0.48061100  0.64058500  0.21293400  1
  O  O5  1  0.15997400  0.51938900  0.21293400  1
  O  O6  1  0.66666700  0.33333300  0.63583800  1
  O  O7  1  0.33333300  0.66666700  0.36416200  1
  O  O8  1  0.90517400  0.30332100  0.01993300  1
  O  O9  1  0.39814700  0.09482600  0.01993300  1
  O  O10  1  0.69667900  0.60185300  0.01993300  1
  O  O11  1  0.09482600  0.69667900  0.98006700  1
  O  O12  1  0.60185300  0.90517400  0.98006700  1
  O  O13  1  0.30332100  0.39814700  0.98006700  1
  O  O14  1  0.10622600  0.26002400  0.80800400  1
  O  O15  1  0.15379900  0.89377400  0.80800400  1
  O  O16  1  0.73997600  0.84620100  0.80800400  1
  O  O17  1  0.89377400  0.73997600  0.19199600  1
  O  O18  1  0.84620100  0.10622600  0.19199600  1
  O  O19  1  0.26002400  0.15379900  0.19199600  1
  O  O20  1  0.79699800  0.00304100  0.58854300  1
  O  O21  1  0.20604300  0.20300200  0.58854300  1
  O  O22  1  0.99695900  0.79395700  0.58854300  1
  O  O23  1  0.20300200  0.99695900  0.41145700  1
  O  O24  1  0.79395700  0.79699800  0.41145700  1
  O  O25  1  0.00304100  0.20604300  0.41145700  1
  O  O26  1  0.13000800  0.51377800  0.57223400  1
  O  O27  1  0.38377000  0.86999200  0.57223400  1
  O  O28  1  0.48622200  0.61623000  0.57223400  1
  O  O29  1  0.86999200  0.48622200  0.42776600  1
  O  O30  1  0.61623000  0.13000800  0.42776600  1
  O  O31  1  0.51377800  0.38377000  0.42776600  1
loop_
_geom_bond_atom_site_label_1
_geom_bond_atom_site_label_2
_geom_bond_distance
_geom_bond_site_symmetry_2
Mn0 O0 2.094507 1_555
Mn0 O2 2.094509 1_555
Mn0 O1 2.094513 1_555
Mn1 O3 2.094507 1_555
Mn1 O5 2.094509 1_555
Mn1 O4 2.094513 1_555
Mn2 O0 2.088895 1_555
Mn2 O6 2.096028 1_555
Mn2 O2 2.117442 1_555
Mn3 O1 2.088895 1_555
Mn3 O6 2.096034 1_555
Mn3 O0 2.117442 1_555
Mn4 O2 2.088895 1_555
Mn4 O6 2.096036 1_555
Mn4 O1 2.117442 1_555
Mn5 O3 2.088895 1_555
Mn5 O7 2.096028 1_555
Mn5 O5 2.117442 1_555
Mn6 O4 2.088895 1_555
Mn6 O7 2.096034 1_555
Mn6 O3 2.117442 1_555
Mn7 O5 2.088895 1_555
Mn7 O7 2.096036 1_555
Mn7 O4 2.117442 1_555
H0 O0 0.976273 1_555
H1 O1 0.976273 1_555
H2 O2 0.976273 1_555
H3 O3 0.976273 1_555
H4 O4 0.976273 1_555
H5 O5 0.976273 1_555
H6 O6 0.977977 1_555
H7 O7 0.977977 1_555
C0 O8 1.164027 1_556
C0 Mn0 1.829105 1_555
C1 O9 1.164027 1_556
C1 Mn0 1.829109 1_555
C2 O10 1.164027 1_556
C2 Mn0 1.829112 1_555
C3 O11 1.164027 1_554
C3 Mn1 1.829105 1_555
C4 O12 1.164027 1_554
C4 Mn1 1.829109 1_555
C5 O13 1.164027 1_554
C5 Mn1 1.829112 1_555
C6 O14 1.168591 1_555
C6 Mn2 1.826033 1_455
C7 O15 1.168581 1_555
C7 Mn3 1.826038 1_565
C8 O16 1.168575 1_555
C8 Mn4 1.826040 1_555
C9 O17 1.168591 1_555
C9 Mn5 1.826033 1_655
C10 O18 1.168581 1_555
C10 Mn6 1.826038 1_545
C11 O19 1.168575 1_555
C11 Mn7 1.826040 1_555
C12 O20 1.159237 1_555
C12 Mn2 1.836071 1_555
C13 O21 1.159245 1_555
C13 Mn3 1.836063 1_555
C14 O22 1.159240 1_555
C14 Mn4 1.836068 1_555
C15 O23 1.159237 1_555
C15 Mn5 1.836071 1_555
C16 O24 1.159245 1_555
C16 Mn6 1.836063 1_555
C17 O25 1.159240 1_555
C17 Mn7 1.836068 1_555
C18 O26 1.162657 1_555
C18 Mn2 1.828674 1_455
C19 O27 1.162657 1_555
C19 Mn3 1.828674 1_565
C20 O28 1.162657 1_555
C20 Mn4 1.828674 1_555
C21 O29 1.162657 1_555
C21 Mn5 1.828674 1_655
C22 O30 1.162657 1_555
C22 Mn6 1.828674 1_545
C23 O31 1.162657 1_555
C23 Mn7 1.828674 1_555
