# generated using pymatgen
data_Li5Fe8(BO3)8
_symmetry_space_group_name_H-M   'P 1'
_cell_length_a   5.30327900
_cell_length_b   9.02903173
_cell_length_c   11.18374720
_cell_angle_alpha   113.74676639
_cell_angle_beta   101.80044933
_cell_angle_gamma   89.63249733
_symmetry_Int_Tables_number   1
_chemical_formula_structural   Li5Fe8(BO3)8
_chemical_formula_sum   'Li5 Fe8 B8 O24'
_cell_volume   478.09080742
_cell_formula_units_Z   1
loop_
 _symmetry_equiv_pos_site_id
 _symmetry_equiv_pos_as_xyz
  1  'x, y, z'
loop_
 _atom_site_type_symbol
 _atom_site_label
 _atom_site_symmetry_multiplicity
 _atom_site_fract_x
 _atom_site_fract_y
 _atom_site_fract_z
 _atom_site_occupancy
  Li  Li0  1  0.16440600  0.84271200  0.65841100  1
  Li  Li1  1  0.35208500  0.70379200  0.39509800  1
  Li  Li2  1  0.60122500  0.95207500  0.92096900  1
  Li  Li3  1  0.92374000  0.57495700  0.16321300  1
  Li  Li4  1  0.67116400  0.33670700  0.65632300  1
  Fe  Fe0  1  0.40998000  0.73712600  0.13260900  1
  Fe  Fe1  1  0.09531300  0.76509300  0.87919400  1
  Fe  Fe2  1  0.84373900  0.87319800  0.38457700  1
  Fe  Fe3  1  0.65711700  0.65401100  0.62373600  1
  Fe  Fe4  1  0.35734700  0.34453700  0.37193600  1
  Fe  Fe5  1  0.15223200  0.15656300  0.63072800  1
  Fe  Fe6  1  0.90341300  0.21930500  0.13654000  1
  Fe  Fe7  1  0.59521900  0.27138000  0.88182900  1
  B  B0  1  0.64738200  0.98671800  0.63403500  1
  B  B1  1  0.88578500  0.88825300  0.12186000  1
  B  B2  1  0.15242400  0.48437600  0.62870900  1
  B  B3  1  0.39760400  0.40079200  0.12908700  1
  B  B4  1  0.86153100  0.51942400  0.37565500  1
  B  B5  1  0.59617500  0.60341200  0.87085700  1
  B  B6  1  0.35185800  0.02163500  0.38308300  1
  B  B7  1  0.10210500  0.10406500  0.87707100  1
  O  O0  1  0.11180800  0.85624200  0.07260100  1
  O  O1  1  0.45222900  0.87039100  0.34330300  1
  O  O2  1  0.21765000  0.96000400  0.86272900  1
  O  O3  1  0.49336200  0.85308600  0.61430800  1
  O  O4  1  0.88494800  0.96855100  0.59874600  1
  O  O5  1  0.80875700  0.78643400  0.17627000  1
  O  O6  1  0.27372700  0.53594400  0.14130100  1
  O  O7  1  0.06599800  0.64415900  0.67275200  1
  O  O8  1  0.71468100  0.71778100  0.83700700  1
  O  O9  1  0.61878700  0.52907600  0.41185600  1
  O  O10  1  0.97564100  0.64938900  0.36752500  1
  O  O11  1  0.37851000  0.64622400  0.92042100  1
  O  O12  1  0.63046000  0.37202000  0.07764500  1
  O  O13  1  0.38489000  0.46191700  0.58270400  1
  O  O14  1  0.30810600  0.28939200  0.17136200  1
  O  O15  1  0.97969200  0.37437500  0.34496900  1
  O  O16  1  0.69312000  0.45801500  0.85374000  1
  O  O17  1  0.22292000  0.21863700  0.84897100  1
  O  O18  1  0.13169800  0.03866100  0.43383100  1
  O  O19  1  0.47432100  0.15086200  0.37660700  1
  O  O20  1  0.01407500  0.36400400  0.63442100  1
  O  O21  1  0.74202400  0.00812500  0.10762200  1
  O  O22  1  0.55837200  0.14438700  0.68628200  1
  O  O23  1  0.86292300  0.12833000  0.91347300  1
loop_
_geom_bond_atom_site_label_1
_geom_bond_atom_site_label_2
_geom_bond_distance
_geom_bond_site_symmetry_2
Li0 O3 1.920089 1_555
Li0 O7 1.946746 1_555
Li0 O4 2.029091 1_455
Li0 O2 2.052715 1_555
Li1 O1 1.928250 1_555
Li1 O10 1.990158 1_455
Li1 O9 2.150644 1_555
Li1 O3 2.233564 1_555
Li1 O6 2.566542 1_555
Li2 O21 1.920346 1_566
Li2 O2 2.015225 1_555
Li2 O8 2.081778 1_555
Li2 O23 2.156186 1_565
Li3 O6 1.933207 1_655
Li3 O5 1.958575 1_555
Li3 O10 2.063221 1_555
Li3 O12 2.169759 1_555
Li4 O20 1.914273 1_655
Li4 O16 2.009161 1_555
Li4 O22 2.012275 1_555
Li4 O13 2.115954 1_555
Fe0 O6 2.004734 1_555
Fe0 O0 2.057432 1_555
Fe0 O5 2.079364 1_555
Fe0 O1 2.134106 1_555
Fe0 O11 2.145694 1_554
Fe1 O11 1.927374 1_555
Fe1 O0 1.963014 1_556
Fe1 O2 1.968867 1_555
Fe1 O8 1.984698 1_455
Fe1 O7 2.090923 1_555
Fe2 O18 1.972285 1_665
Fe2 O1 2.030748 1_555
Fe2 O10 2.082135 1_555
Fe2 O5 2.104907 1_555
Fe2 O4 2.157200 1_555
Fe3 O3 2.022699 1_555
Fe3 O13 2.103140 1_555
Fe3 O7 2.135658 1_655
Fe3 O9 2.140553 1_555
Fe3 O8 2.170742 1_555
Fe4 O19 1.868664 1_555
Fe4 O15 1.996559 1_455
Fe4 O9 2.018728 1_555
Fe4 O14 2.051941 1_555
Fe4 O13 2.133069 1_555
Fe5 O20 1.994768 1_555
Fe5 O18 2.002387 1_555
Fe5 O4 2.086480 1_445
Fe5 O22 2.131176 1_555
Fe5 O17 2.222328 1_555
Fe6 O21 1.970763 1_555
Fe6 O15 2.133229 1_555
Fe6 O14 2.152993 1_655
Fe6 O12 2.178624 1_555
Fe6 O23 2.253272 1_554
Fe7 O16 1.926708 1_555
Fe7 O17 1.958179 1_555
Fe7 O12 1.971957 1_556
Fe7 O22 1.985990 1_555
Fe7 O23 1.987002 1_555
B0 O3 1.377028 1_555
B0 O4 1.385114 1_555
B0 O22 1.423070 1_565
B1 O21 1.362577 1_565
B1 O5 1.392607 1_555
B1 O0 1.400437 1_655
B2 O20 1.344970 1_555
B2 O13 1.413475 1_555
B2 O7 1.430235 1_555
B3 O6 1.353340 1_555
B3 O14 1.393349 1_555
B3 O12 1.445527 1_555
B4 O10 1.367126 1_555
B4 O15 1.393230 1_555
B4 O9 1.418474 1_555
B5 O16 1.361467 1_555
B5 O11 1.368427 1_555
B5 O8 1.423068 1_555
B6 O19 1.373123 1_555
B6 O18 1.381097 1_555
B6 O1 1.394390 1_545
B7 O17 1.390001 1_555
B7 O2 1.398233 1_545
B7 O23 1.399469 1_455
