# generated using pymatgen
data_Li2BSeO4
_symmetry_space_group_name_H-M   'P 1'
_cell_length_a   5.05630000
_cell_length_b   7.44105100
_cell_length_c   10.83663679
_cell_angle_alpha   88.54504145
_cell_angle_beta   90.00000000
_cell_angle_gamma   90.00000000
_symmetry_Int_Tables_number   1
_chemical_formula_structural   Li2BSeO4
_chemical_formula_sum   'Li8 B4 Se4 O16'
_cell_volume   407.58818905
_cell_formula_units_Z   4
loop_
 _symmetry_equiv_pos_site_id
 _symmetry_equiv_pos_as_xyz
  1  'x, y, z'
loop_
 _atom_site_type_symbol
 _atom_site_label
 _atom_site_symmetry_multiplicity
 _atom_site_fract_x
 _atom_site_fract_y
 _atom_site_fract_z
 _atom_site_occupancy
  Li  Li0  1  0.65603100  0.89443500  0.78332200  1
  Li  Li1  1  0.84396900  0.89443500  0.28332200  1
  Li  Li2  1  0.83117100  0.81921800  0.55152700  1
  Li  Li3  1  0.66882900  0.81921800  0.05152700  1
  Li  Li4  1  0.33117100  0.18078200  0.94847300  1
  Li  Li5  1  0.16882900  0.18078200  0.44847300  1
  Li  Li6  1  0.15603100  0.10556500  0.71667800  1
  Li  Li7  1  0.34396900  0.10556500  0.21667800  1
  B  B0  1  0.15902000  0.84399800  0.91813400  1
  B  B1  1  0.34098000  0.84399800  0.41813400  1
  B  B2  1  0.65902000  0.15600200  0.58186600  1
  B  B3  1  0.84098000  0.15600200  0.08186600  1
  Se  Se0  1  0.87088600  0.44813200  0.90277800  1
  Se  Se1  1  0.37088600  0.55186800  0.59722200  1
  Se  Se2  1  0.62911400  0.44813200  0.40277800  1
  Se  Se3  1  0.12911400  0.55186800  0.09722200  1
  O  O0  1  0.31698000  0.96087800  0.85621000  1
  O  O1  1  0.18302000  0.96087800  0.35621000  1
  O  O2  1  0.89783400  0.81126900  0.90785400  1
  O  O3  1  0.60216600  0.81126900  0.40785400  1
  O  O4  1  0.19754800  0.73215700  0.51338100  1
  O  O5  1  0.62668800  0.65045500  0.66944700  1
  O  O6  1  0.30245200  0.73215700  0.01338100  1
  O  O7  1  0.87331200  0.65045500  0.16944700  1
  O  O8  1  0.12668800  0.34954500  0.83055300  1
  O  O9  1  0.69754800  0.26784300  0.98661900  1
  O  O10  1  0.37331200  0.34954500  0.33055300  1
  O  O11  1  0.80245200  0.26784300  0.48661900  1
  O  O12  1  0.39783400  0.18873100  0.59214600  1
  O  O13  1  0.10216600  0.18873100  0.09214600  1
  O  O14  1  0.81698000  0.03912200  0.64379000  1
  O  O15  1  0.68302000  0.03912200  0.14379000  1
loop_
_geom_bond_atom_site_label_1
_geom_bond_atom_site_label_2
_geom_bond_distance
_geom_bond_site_symmetry_2
Li0 O2 1.912210 1_555
Li0 O0 1.956303 1_555
Li0 O14 2.006252 1_565
Li0 O5 2.225874 1_555
Li1 O3 1.912210 1_555
Li1 O1 1.956303 1_655
Li1 O15 2.006252 1_565
Li1 O7 2.225874 1_555
Li2 O14 1.940465 1_565
Li2 O3 1.942418 1_555
Li2 O4 2.008969 1_655
Li2 O5 2.048756 1_555
Li3 O15 1.940465 1_565
Li3 O2 1.942418 1_554
Li3 O6 2.008969 1_555
Li3 O7 2.048756 1_555
Li4 O0 1.940465 1_545
Li4 O13 1.942418 1_556
Li4 O9 2.008969 1_555
Li4 O8 2.048756 1_555
Li5 O1 1.940465 1_545
Li5 O12 1.942418 1_555
Li5 O11 2.008969 1_455
Li5 O10 2.048756 1_555
Li6 O12 1.912210 1_555
Li6 O14 1.956303 1_455
Li6 O0 2.006252 1_545
Li6 O8 2.225874 1_555
Li7 O13 1.912210 1_555
Li7 O15 1.956303 1_555
Li7 O1 2.006252 1_545
Li7 O10 2.225874 1_555
B0 O0 1.347210 1_555
B0 O2 1.348026 1_455
B0 O6 1.496755 1_556
B1 O1 1.347210 1_555
B1 O3 1.348026 1_555
B1 O4 1.496755 1_555
B2 O14 1.347210 1_555
B2 O12 1.348026 1_555
B2 O11 1.496755 1_555
B3 O15 1.347210 1_555
B3 O13 1.348026 1_655
B3 O9 1.496755 1_554
O4 Se1 1.825230 1_555
O5 Se1 1.689026 1_555
O6 Se3 1.825230 1_555
O7 Se3 1.689026 1_655
O8 Se0 1.689026 1_455
O9 Se0 1.825230 1_555
O10 Se2 1.689026 1_555
O11 Se2 1.825230 1_555
