# generated using pymatgen
data_Li2TiO3
_symmetry_space_group_name_H-M   'P 1'
_cell_length_a   5.03823200
_cell_length_b   5.08712447
_cell_length_c   7.62320909
_cell_angle_alpha   109.20094102
_cell_angle_beta   89.55531341
_cell_angle_gamma   118.11150362
_symmetry_Int_Tables_number   1
_chemical_formula_structural   Li2TiO3
_chemical_formula_sum   'Li6 Ti3 O9'
_cell_volume   160.18636660
_cell_formula_units_Z   3
loop_
 _symmetry_equiv_pos_site_id
 _symmetry_equiv_pos_as_xyz
  1  'x, y, z'
loop_
 _atom_site_type_symbol
 _atom_site_label
 _atom_site_symmetry_multiplicity
 _atom_site_fract_x
 _atom_site_fract_y
 _atom_site_fract_z
 _atom_site_occupancy
  Li  Li0  1  0.16856600  0.34847400  0.49743500  1
  Li  Li1  1  0.60791400  0.89744500  0.83206000  1
  Li  Li2  1  0.39208600  0.10255500  0.16794000  1
  Li  Li3  1  0.83143400  0.65152600  0.50256500  1
  Li  Li4  1  0.28273200  0.21849900  0.83444300  1
  Li  Li5  1  0.71726800  0.78150100  0.16555700  1
  Ti  Ti0  1  0.03803700  0.44671800  0.16661500  1
  Ti  Ti1  1  0.50000000  0.00000000  0.50000000  1
  Ti  Ti2  1  0.96196300  0.55328200  0.83338500  1
  O  O0  1  0.13524100  0.92139600  0.34048600  1
  O  O1  1  0.86475900  0.07860400  0.65951400  1
  O  O2  1  0.22934000  0.77096400  0.67285100  1
  O  O3  1  0.57912600  0.47678900  0.66959700  1
  O  O4  1  0.29035200  0.65655400  0.99181500  1
  O  O5  1  0.00000000  0.00000000  0.00000000  1
  O  O6  1  0.70964800  0.34344600  0.00818500  1
  O  O7  1  0.42087400  0.52321100  0.33040300  1
  O  O8  1  0.77066000  0.22903600  0.32714900  1
loop_
_geom_bond_atom_site_label_1
_geom_bond_atom_site_label_2
_geom_bond_distance
_geom_bond_site_symmetry_2
Li0 O7 1.918837 1_555
Li0 O2 1.999248 1_555
Li0 O0 2.032102 1_545
Li0 O8 2.108792 1_455
Li0 O3 2.152545 1_555
Li0 O1 2.204620 1_455
Li1 O2 1.972496 1_555
Li1 O1 1.975118 1_565
Li1 O3 2.025149 1_555
Li1 O6 2.030806 1_566
Li1 O5 2.107653 1_666
Li1 O4 2.156022 1_555
Li2 O8 1.972496 1_555
Li2 O0 1.975118 1_545
Li2 O7 2.025149 1_555
Li2 O4 2.030806 1_544
Li2 O5 2.107653 1_555
Li2 O6 2.156022 1_555
Li3 O3 1.918837 1_555
Li3 O8 1.999248 1_555
Li3 O1 2.032102 1_565
Li3 O2 2.108792 1_655
Li3 O7 2.152545 1_555
Li3 O0 2.204620 1_655
Li4 O5 2.064019 1_556
Li4 O2 2.087181 1_545
Li4 O4 2.137350 1_555
Li4 O1 2.174025 1_455
Li4 O3 2.177958 1_555
Li4 O6 2.233095 1_556
Li5 O5 2.064019 1_665
Li5 O8 2.087181 1_565
Li5 O6 2.137350 1_555
Li5 O0 2.174025 1_655
Li5 O7 2.177958 1_555
Li5 O4 2.233095 1_554
O0 Ti1 2.009529 1_565
O0 Ti0 2.148962 1_555
O1 Ti1 2.009529 1_555
O1 Ti2 2.148962 1_555
O2 Ti2 1.999659 1_455
O2 Ti1 2.106663 1_565
O3 Ti2 2.107425 1_555
O3 Ti1 2.178890 1_555
O4 Ti2 1.807365 1_455
O4 Ti0 2.040019 1_556
O5 Ti0 2.123459 1_555
O5 Ti2 2.123459 1_444
O6 Ti0 1.807365 1_655
O6 Ti2 2.040019 1_554
O7 Ti0 2.107425 1_555
O7 Ti1 2.178890 1_565
O8 Ti0 1.999659 1_655
O8 Ti1 2.106663 1_555
