# generated using pymatgen
data_Mn4O7F
_symmetry_space_group_name_H-M   'P 1'
_cell_length_a   6.65660280
_cell_length_b   6.65660280
_cell_length_c   6.96997061
_cell_angle_alpha   65.57664160
_cell_angle_beta   65.57664160
_cell_angle_gamma   96.30299671
_symmetry_Int_Tables_number   1
_chemical_formula_structural   Mn4O7F
_chemical_formula_sum   'Mn8 O14 F2'
_cell_volume   240.91334524
_cell_formula_units_Z   2
loop_
 _symmetry_equiv_pos_site_id
 _symmetry_equiv_pos_as_xyz
  1  'x, y, z'
loop_
 _atom_site_type_symbol
 _atom_site_label
 _atom_site_symmetry_multiplicity
 _atom_site_fract_x
 _atom_site_fract_y
 _atom_site_fract_z
 _atom_site_occupancy
  Mn  Mn0  1  0.69900900  0.19855900  0.85090600  1
  Mn  Mn1  1  0.80218000  0.80034300  0.14646600  1
  Mn  Mn2  1  0.32233100  0.30207500  0.64112300  1
  Mn  Mn3  1  0.19855900  0.69900900  0.35090600  1
  Mn  Mn4  1  0.80034300  0.80218000  0.64646600  1
  Mn  Mn5  1  0.70211600  0.19544700  0.34943000  1
  Mn  Mn6  1  0.19544700  0.70211600  0.84943000  1
  Mn  Mn7  1  0.30207500  0.32233100  0.14112300  1
  O  O0  1  0.09462900  0.76578300  0.61638300  1
  O  O1  1  0.60662200  0.27344200  0.60633600  1
  O  O2  1  0.72086400  0.89460300  0.89305000  1
  O  O3  1  0.13584100  0.96063800  0.89110900  1
  O  O4  1  0.76578300  0.09463000  0.11638300  1
  O  O5  1  0.53958200  0.86961100  0.60743900  1
  O  O6  1  0.46406900  0.62832900  0.38994100  1
  O  O7  1  0.96063800  0.13584100  0.39110900  1
  O  O8  1  0.86961100  0.53958200  0.10743900  1
  O  O9  1  0.22672000  0.40132000  0.88756600  1
  O  O10  1  0.62832900  0.46406900  0.88994100  1
  O  O11  1  0.27344200  0.60662200  0.10633600  1
  O  O12  1  0.40132000  0.22672000  0.38756600  1
  O  O13  1  0.89460300  0.72086400  0.39305000  1
  F  F0  1  0.34503800  0.05000300  0.12027400  1
  F  F1  1  0.05000300  0.34503800  0.62027400  1
loop_
_geom_bond_atom_site_label_1
_geom_bond_atom_site_label_2
_geom_bond_distance
_geom_bond_site_symmetry_2
Mn0 O1 1.940116 1_555
Mn0 O4 1.946562 1_556
Mn0 O2 1.951854 1_545
Mn0 O10 1.973181 1_555
Mn1 O4 1.935642 1_565
Mn1 O8 1.936226 1_555
Mn1 O2 1.937842 1_554
Mn1 O13 1.950950 1_555
Mn1 O3 1.969653 1_654
Mn1 O6 1.981227 1_555
Mn2 O1 1.847786 1_555
Mn2 O12 1.916750 1_555
Mn2 O6 1.926565 1_555
Mn2 O9 1.979565 1_555
Mn2 O3 2.014849 1_545
Mn3 O11 1.940116 1_555
Mn3 O0 1.946562 1_555
Mn3 O13 1.951854 1_455
Mn3 O6 1.973181 1_555
Mn4 O0 1.935635 1_655
Mn4 O5 1.936226 1_555
Mn4 O13 1.937842 1_555
Mn4 O2 1.950950 1_555
Mn4 O7 1.969653 1_565
Mn4 O10 1.981227 1_555
Mn5 O4 1.913912 1_555
Mn5 O7 1.916052 1_555
Mn5 O5 1.938859 1_545
Mn5 O1 1.944208 1_555
Mn5 O12 1.954552 1_555
Mn5 O8 2.006118 1_555
Mn6 O0 1.913917 1_555
Mn6 O3 1.916052 1_555
Mn6 O8 1.938859 1_456
Mn6 O11 1.944208 1_556
Mn6 O9 1.954552 1_555
Mn6 O5 2.006118 1_555
Mn7 O11 1.847786 1_555
Mn7 O9 1.916750 1_554
Mn7 O10 1.926565 1_554
Mn7 O12 1.979565 1_555
Mn7 O7 2.014849 1_455
F0 Mn7 1.919996 1_555
F0 Mn3 2.022728 1_545
F0 Mn0 2.085547 1_554
F1 Mn2 1.919996 1_555
F1 Mn0 2.022728 1_455
F1 Mn3 2.085547 1_555
