# generated using pymatgen
data_Li(FeO2)2
_symmetry_space_group_name_H-M   'P 1'
_cell_length_a   5.68363003
_cell_length_b   5.68363003
_cell_length_c   9.56387200
_cell_angle_alpha   90.00000000
_cell_angle_beta   90.00000000
_cell_angle_gamma   120.00000035
_symmetry_Int_Tables_number   1
_chemical_formula_structural   Li(FeO2)2
_chemical_formula_sum   'Li4 Fe8 O16'
_cell_volume   267.55679537
_cell_formula_units_Z   4
loop_
 _symmetry_equiv_pos_site_id
 _symmetry_equiv_pos_as_xyz
  1  'x, y, z'
loop_
 _atom_site_type_symbol
 _atom_site_label
 _atom_site_symmetry_multiplicity
 _atom_site_fract_x
 _atom_site_fract_y
 _atom_site_fract_z
 _atom_site_occupancy
  Li  Li0  1  0.66666700  0.33333300  0.11063200  1
  Li  Li1  1  0.00000000  0.00000000  0.00389500  1
  Li  Li2  1  0.00000000  0.00000000  0.50389500  1
  Li  Li3  1  0.33333300  0.66666700  0.61063200  1
  Fe  Fe0  1  0.34833300  0.17416600  0.78547500  1
  Fe  Fe1  1  0.66666700  0.33333300  0.50481100  1
  Fe  Fe2  1  0.82583400  0.65166700  0.78547500  1
  Fe  Fe3  1  0.82583400  0.17416600  0.78547500  1
  Fe  Fe4  1  0.17416600  0.82583400  0.28547500  1
  Fe  Fe5  1  0.33333300  0.66666700  0.00481100  1
  Fe  Fe6  1  0.17416600  0.34833300  0.28547500  1
  Fe  Fe7  1  0.65166700  0.82583400  0.28547500  1
  O  O0  1  0.32563700  0.16281900  0.39366700  1
  O  O1  1  0.51751600  0.48248400  0.66601000  1
  O  O2  1  0.66666700  0.33333300  0.89844900  1
  O  O3  1  0.00000000  0.00000000  0.69404000  1
  O  O4  1  0.00000000  0.00000000  0.19404000  1
  O  O5  1  0.83718100  0.67436300  0.39366700  1
  O  O6  1  0.51751600  0.03503200  0.66601000  1
  O  O7  1  0.96496800  0.48248400  0.66601000  1
  O  O8  1  0.16281900  0.83718100  0.89366700  1
  O  O9  1  0.83718100  0.16281900  0.39366700  1
  O  O10  1  0.03503200  0.51751600  0.16601000  1
  O  O11  1  0.48248400  0.96496800  0.16601000  1
  O  O12  1  0.33333300  0.66666700  0.39844900  1
  O  O13  1  0.16281900  0.32563700  0.89366700  1
  O  O14  1  0.48248400  0.51751600  0.16601000  1
  O  O15  1  0.67436300  0.83718100  0.89366700  1
loop_
_geom_bond_atom_site_label_1
_geom_bond_atom_site_label_2
_geom_bond_distance
_geom_bond_site_symmetry_2
Li0 O10 1.888924 1_655
Li0 O11 1.888924 1_545
Li0 O14 1.888929 1_555
Li0 O2 2.029291 1_554
Li1 O4 1.818522 1_555
Li1 O13 1.918449 1_554
Li1 O15 1.918449 1_444
Li1 O8 1.918453 1_544
Li2 O3 1.818522 1_555
Li2 O0 1.918449 1_555
Li2 O5 1.918449 1_445
Li2 O9 1.918453 1_455
Li3 O6 1.888924 1_565
Li3 O7 1.888924 1_455
Li3 O1 1.888929 1_555
Li3 O12 2.029291 1_555
Fe0 O6 1.901521 1_555
Fe0 O1 1.901525 1_555
Fe0 O2 1.903304 1_555
Fe0 O3 1.924681 1_555
Fe0 O8 1.957373 1_545
Fe0 O13 1.957373 1_555
Fe1 O9 1.986854 1_555
Fe1 O5 1.986862 1_555
Fe1 O0 1.986862 1_555
Fe1 O7 2.129006 1_555
Fe1 O6 2.129006 1_555
Fe1 O1 2.129009 1_555
Fe2 O7 1.901521 1_555
Fe2 O1 1.901525 1_555
Fe2 O2 1.903304 1_555
Fe2 O3 1.924681 1_665
Fe2 O8 1.957373 1_655
Fe2 O15 1.957373 1_555
Fe3 O7 1.901525 1_555
Fe3 O6 1.901525 1_555
Fe3 O2 1.903304 1_555
Fe3 O3 1.924676 1_655
Fe3 O15 1.957373 1_545
Fe3 O13 1.957373 1_655
Fe4 O11 1.901525 1_555
Fe4 O10 1.901525 1_555
Fe4 O12 1.903304 1_555
Fe4 O4 1.924676 1_565
Fe4 O5 1.957373 1_455
Fe4 O0 1.957373 1_565
Fe5 O8 1.986854 1_554
Fe5 O15 1.986862 1_554
Fe5 O13 1.986862 1_554
Fe5 O11 2.129006 1_555
Fe5 O10 2.129006 1_555
Fe5 O14 2.129009 1_555
Fe6 O10 1.901521 1_555
Fe6 O14 1.901525 1_555
Fe6 O12 1.903304 1_555
Fe6 O4 1.924681 1_555
Fe6 O9 1.957373 1_455
Fe6 O0 1.957373 1_555
Fe7 O11 1.901521 1_555
Fe7 O14 1.901525 1_555
Fe7 O12 1.903304 1_555
Fe7 O4 1.924681 1_665
Fe7 O9 1.957373 1_565
Fe7 O5 1.957373 1_555
