# generated using pymatgen
data_Li19Cr4P8O35F
_symmetry_space_group_name_H-M   'P 1'
_cell_length_a   6.87957200
_cell_length_b   10.57014223
_cell_length_c   10.59276994
_cell_angle_alpha   85.29282581
_cell_angle_beta   108.93925489
_cell_angle_gamma   108.94233908
_symmetry_Int_Tables_number   1
_chemical_formula_structural   Li19Cr4P8O35F
_chemical_formula_sum   'Li19 Cr4 P8 O35 F1'
_cell_volume   688.89518685
_cell_formula_units_Z   1
loop_
 _symmetry_equiv_pos_site_id
 _symmetry_equiv_pos_as_xyz
  1  'x, y, z'
loop_
 _atom_site_type_symbol
 _atom_site_label
 _atom_site_symmetry_multiplicity
 _atom_site_fract_x
 _atom_site_fract_y
 _atom_site_fract_z
 _atom_site_occupancy
  Li  Li0  1  0.00707200  0.25126400  0.76035200  1
  Li  Li1  1  0.50450600  0.25088700  0.76056000  1
  Li  Li2  1  0.62342800  0.26137200  0.51586100  1
  Li  Li3  1  0.37670000  0.48630700  0.74597800  1
  Li  Li4  1  0.11839700  0.73872500  0.99499300  1
  Li  Li5  1  0.87813200  0.01130300  0.24715900  1
  Li  Li6  1  0.73409300  0.73372600  0.73968100  1
  Li  Li7  1  0.22996900  0.72505000  0.73116100  1
  Li  Li8  1  0.26411600  0.26599200  0.26371000  1
  Li  Li9  1  0.77354000  0.27438400  0.27145900  1
  Li  Li10  1  0.00141500  0.49879700  0.50057400  1
  Li  Li11  1  0.61994300  0.99468500  0.74860300  1
  Li  Li12  1  0.38317500  0.25906400  0.00402100  1
  Li  Li13  1  0.83753100  0.73110600  0.48605900  1
  Li  Li14  1  0.14478500  0.51138200  0.25559700  1
  Li  Li15  1  0.99698600  0.74456900  0.23568800  1
  Li  Li16  1  0.48239300  0.74574200  0.23493300  1
  Li  Li17  1  0.00100200  0.99929400  0.99925200  1
  Li  Li18  1  0.49761600  0.99942800  0.99916900  1
  Cr  Cr0  1  0.26102300  0.00419800  0.50133800  1
  Cr  Cr1  1  0.75126600  0.50056600  0.99816400  1
  Cr  Cr2  1  0.73947200  0.99839500  0.50380400  1
  Cr  Cr3  1  0.25292700  0.49835500  0.00342000  1
  P  P0  1  0.87006500  0.50413600  0.72612800  1
  P  P1  1  0.13129700  0.27399900  0.49625300  1
  P  P2  1  0.63577900  0.77464300  0.99588500  1
  P  P3  1  0.36576900  0.00494900  0.22754600  1
  P  P4  1  0.13361800  0.99306500  0.77540600  1
  P  P5  1  0.86617500  0.22478300  0.00564300  1
  P  P6  1  0.64031300  0.49510600  0.27611000  1
  P  P7  1  0.35981900  0.72430200  0.50425100  1
  O  O0  1  0.75730700  0.09612900  0.91695100  1
  O  O1  1  0.24205800  0.08223700  0.90306700  1
  O  O2  1  0.07611300  0.30024100  0.96983900  1
  O  O3  1  0.69792900  0.30193100  0.96619900  1
  O  O4  1  0.29979900  0.03290500  0.69616800  1
  O  O5  1  0.92326300  0.02870900  0.69789800  1
  O  O6  1  0.43926000  0.44237900  0.93231900  1
  O  O7  1  0.56435600  0.07065900  0.56030700  1
  O  O8  1  0.77587700  0.35115500  0.69342400  1
  O  O9  1  0.22417400  0.30783900  0.64822200  1
  O  O10  1  0.88822900  0.18285400  0.45815800  1
  O  O11  1  0.73491400  0.54535000  0.79974100  1
  O  O12  1  0.26551400  0.19826600  0.45518300  1
  O  O13  1  0.11361700  0.54075600  0.81345200  1
  O  O14  1  0.57417900  0.80610400  0.84465000  1
  O  O15  1  0.42700000  0.15556600  0.19551500  1
  O  O16  1  0.87811300  0.59253000  0.60439000  1
  O  O17  1  0.12212400  0.39392700  0.40649500  1
  O  O18  1  0.68076500  0.40671000  0.39745900  1
  O  O19  1  0.32257100  0.60504900  0.59497000  1
  O  O20  1  0.92532400  0.19415700  0.15748000  1
  O  O21  1  0.07486900  0.84160800  0.80623400  1
  O  O22  1  0.24351500  0.81497900  0.54099400  1
  O  O23  1  0.61101200  0.80095400  0.54432900  1
  O  O24  1  0.39065200  0.45467500  0.20202100  1
  O  O25  1  0.75999400  0.45905500  0.18847600  1
  O  O26  1  0.73203600  0.64884600  0.30861700  1
  O  O27  1  0.26750100  0.68995900  0.35247000  1
  O  O28  1  0.06506600  0.55707700  0.06957200  1
  O  O29  1  0.42977400  0.69730700  0.03513100  1
  O  O30  1  0.57245600  0.96556600  0.30753000  1
  O  O31  1  0.19725800  0.97037900  0.30559800  1
  O  O32  1  0.80603100  0.69897100  0.03128400  1
  O  O33  1  0.25696500  0.91284000  0.10167900  1
  O  O34  1  0.74464400  0.90264600  0.08593400  1
  F  F0  1  0.93341700  0.92762100  0.44197100  1
loop_
_geom_bond_atom_site_label_1
_geom_bond_atom_site_label_2
_geom_bond_distance
_geom_bond_site_symmetry_2
Li0 O8 2.093491 1_455
Li0 O9 2.110514 1_555
Li0 O2 2.182317 1_555
Li0 O5 2.330515 1_455
Li1 O8 2.137269 1_555
Li1 O9 2.155050 1_555
Li1 O3 2.156835 1_555
Li1 O4 2.298946 1_555
Li2 O18 1.923579 1_555
Li2 O7 1.971567 1_555
Li2 O8 1.976001 1_555
Li2 O12 2.213066 1_555
Li2 O10 2.483693 1_555
Li3 O6 1.929986 1_555
Li3 O19 1.964678 1_555
Li3 O9 2.015468 1_555
Li3 O11 2.221640 1_555
Li3 O13 2.387746 1_555
Li4 O28 1.981697 1_556
Li4 O33 2.018918 1_556
Li4 O21 2.176259 1_555
Li4 O32 2.205855 1_456
Li4 O29 2.224477 1_556
Li5 O34 1.923067 1_545
Li5 O20 2.057901 1_555
Li5 O31 2.254050 1_645
Li5 O30 2.286290 1_545
Li6 O11 2.041216 1_555
Li6 O14 2.124160 1_555
Li6 O23 2.125071 1_555
Li6 O21 2.148714 1_655
Li7 O13 2.087393 1_555
Li7 O22 2.172583 1_555
Li7 O14 2.188765 1_555
Li7 O21 2.203164 1_555
Li7 O19 2.348938 1_555
Li7 O16 2.371101 1_455
Li8 O24 2.047105 1_555
Li8 O12 2.092794 1_555
Li8 O20 2.136332 1_455
Li8 O15 2.157061 1_555
Li9 O25 2.091643 1_555
Li9 O10 2.153687 1_555
Li9 O20 2.197388 1_555
Li9 O15 2.210234 1_555
Li9 O17 2.344413 1_655
Li9 O18 2.363069 1_555
Li10 O18 2.055008 1_455
Li10 O17 2.056119 1_555
Li10 O16 2.059251 1_455
Li10 O19 2.069283 1_555
Li11 O0 1.945487 1_565
Li11 O7 2.052032 1_565
Li11 O14 2.138977 1_555
Li11 O5 2.231770 1_565
Li11 O4 2.251503 1_565
Li12 O6 1.985849 1_554
Li12 O1 2.013859 1_554
Li12 O15 2.203466 1_555
Li12 O2 2.203989 1_554
Li12 O3 2.225087 1_554
Li13 O16 1.879264 1_555
Li13 O26 1.946457 1_555
Li13 O23 2.191048 1_555
Li13 O22 2.519422 1_655
Li14 O28 1.931650 1_555
Li14 O17 1.957302 1_555
Li14 O27 2.012376 1_555
Li14 O24 2.208978 1_555
Li14 O25 2.389830 1_455
Li15 O27 2.100651 1_655
Li15 O26 2.128692 1_555
Li15 O32 2.135417 1_555
Li15 O31 2.374124 1_655
Li16 O29 2.105404 1_555
Li16 O27 2.142837 1_555
Li16 O26 2.179091 1_555
Li16 O30 2.328849 1_555
Li17 O1 2.136154 1_565
Li17 O0 2.153437 1_465
Li17 O34 2.173624 1_456
Li17 O33 2.180573 1_556
Li18 O1 2.141155 1_565
Li18 O0 2.161807 1_565
Li18 O34 2.177122 1_556
Li18 O33 2.185819 1_556
Cr0 O7 1.874177 1_555
Cr0 O22 1.982372 1_545
Cr0 O31 2.012149 1_545
Cr0 F0 2.027151 1_445
Cr0 O4 2.028625 1_555
Cr0 O12 2.062033 1_555
Cr1 O6 1.927061 1_555
Cr1 O28 1.940716 1_656
Cr1 O25 2.013321 1_556
Cr1 O32 2.045758 1_556
Cr1 O3 2.047794 1_555
Cr1 O11 2.091004 1_555
Cr2 O7 1.879779 1_565
Cr2 O10 1.988389 1_565
Cr2 F0 2.016092 1_555
Cr2 O30 2.017938 1_555
Cr2 O5 2.021411 1_565
Cr2 O23 2.054889 1_555
Cr3 O28 1.930459 1_555
Cr3 O6 1.937225 1_554
Cr3 O13 2.011876 1_554
Cr3 O2 2.044264 1_554
Cr3 O29 2.050612 1_555
Cr3 O24 2.089811 1_555
O0 P5 1.544209 1_556
O1 P4 1.539952 1_545
O2 P5 1.556918 1_456
O3 P5 1.556347 1_556
O4 P4 1.562433 1_545
O5 P4 1.562764 1_645
O8 P0 1.555839 1_555
O9 P1 1.551135 1_555
O10 P1 1.570708 1_655
O11 P0 1.565777 1_555
O12 P1 1.574948 1_555
O13 P0 1.563489 1_455
O14 P2 1.555615 1_555
O15 P3 1.547866 1_555
O16 P0 1.534269 1_555
O17 P1 1.526466 1_555
O18 P6 1.530446 1_555
O19 P7 1.526225 1_555
O20 P5 1.559638 1_555
O21 P4 1.553297 1_555
O22 P7 1.572135 1_555
O23 P7 1.579312 1_555
O24 P6 1.565910 1_555
O25 P6 1.562923 1_555
O26 P6 1.562882 1_555
O27 P7 1.550281 1_555
O29 P2 1.556957 1_554
O30 P3 1.567598 1_565
O31 P3 1.567995 1_565
O32 P2 1.557611 1_554
O33 P3 1.542049 1_565
O34 P2 1.546485 1_554
F0 Li13 2.029565 1_555
F0 Li5 2.143559 1_565
