# generated using pymatgen
data_Th(NF2)4
_symmetry_space_group_name_H-M   'P 1'
_cell_length_a   7.80777500
_cell_length_b   8.42101037
_cell_length_c   8.72400431
_cell_angle_alpha   98.71728449
_cell_angle_beta   90.95536094
_cell_angle_gamma   103.10497380
_symmetry_Int_Tables_number   1
_chemical_formula_structural   Th(NF2)4
_chemical_formula_sum   'Th2 N8 F16'
_cell_volume   551.42898475
_cell_formula_units_Z   2
loop_
 _symmetry_equiv_pos_site_id
 _symmetry_equiv_pos_as_xyz
  1  'x, y, z'
loop_
 _atom_site_type_symbol
 _atom_site_label
 _atom_site_symmetry_multiplicity
 _atom_site_fract_x
 _atom_site_fract_y
 _atom_site_fract_z
 _atom_site_occupancy
  Th  Th0  1  0.24714300  0.97534200  0.02216200  1
  Th  Th1  1  0.75285700  0.02465800  0.97783800  1
  N  N0  1  0.58159700  0.53438600  0.17904400  1
  N  N1  1  0.41840300  0.46561400  0.82095600  1
  N  N2  1  0.11580200  0.53571300  0.18627600  1
  N  N3  1  0.88419800  0.46428700  0.81372400  1
  N  N4  1  0.36928800  0.73808000  0.48159000  1
  N  N5  1  0.63071200  0.26192000  0.51841000  1
  N  N6  1  0.84257000  0.82672900  0.45165700  1
  N  N7  1  0.15743000  0.17327100  0.54834300  1
  F  F0  1  0.29391900  0.38223600  0.90265000  1
  F  F1  1  0.70608100  0.61776400  0.09735000  1
  F  F2  1  0.32766400  0.14573500  0.22919900  1
  F  F3  1  0.67233600  0.85426500  0.77080100  1
  F  F4  1  0.09138100  0.69224800  0.20631200  1
  F  F5  1  0.90861900  0.30775200  0.79368800  1
  F  F6  1  0.96246300  0.94613800  0.12797000  1
  F  F7  1  0.03753700  0.05386200  0.87203000  1
  F  F8  1  0.25542200  0.07547800  0.59382100  1
  F  F9  1  0.74457800  0.92452200  0.40617900  1
  F  F10  1  0.80493900  0.26140000  0.11551600  1
  F  F11  1  0.19506100  0.73860000  0.88448400  1
  F  F12  1  0.50732600  0.89151300  0.09492700  1
  F  F13  1  0.49267400  0.10848700  0.90507300  1
  F  F14  1  0.33614700  0.57735900  0.49307600  1
  F  F15  1  0.66385300  0.42264100  0.50692400  1
loop_
_geom_bond_atom_site_label_1
_geom_bond_atom_site_label_2
_geom_bond_distance
_geom_bond_site_symmetry_2
F0 N1 1.345702 1_555
F1 N0 1.345702 1_555
F2 Th0 2.117532 1_545
F3 Th1 2.117532 1_565
F4 N2 1.360060 1_555
F5 N3 1.360060 1_555
F6 Th1 2.347918 1_564
F6 Th0 2.396322 1_655
F7 Th0 2.347918 1_546
F7 Th1 2.396322 1_455
F8 N7 1.340000 1_555
F9 N6 1.340000 1_555
F10 Th1 2.114886 1_554
F11 Th0 2.114886 1_556
F12 Th1 2.326671 1_564
F12 Th0 2.402338 1_555
F13 Th0 2.326671 1_546
F13 Th1 2.402338 1_555
F14 N4 1.338634 1_555
F15 N5 1.338634 1_555
