# generated using pymatgen
data_LiMn5P3O13
_symmetry_space_group_name_H-M   'P 1'
_cell_length_a   9.31165854
_cell_length_b   9.31165854
_cell_length_c   6.54391800
_cell_angle_alpha   90.00000000
_cell_angle_beta   90.00000000
_cell_angle_gamma   120.00000382
_symmetry_Int_Tables_number   1
_chemical_formula_structural   LiMn5P3O13
_chemical_formula_sum   'Li2 Mn10 P6 O26'
_cell_volume   491.38573798
_cell_formula_units_Z   2
loop_
 _symmetry_equiv_pos_site_id
 _symmetry_equiv_pos_as_xyz
  1  'x, y, z'
loop_
 _atom_site_type_symbol
 _atom_site_label
 _atom_site_symmetry_multiplicity
 _atom_site_fract_x
 _atom_site_fract_y
 _atom_site_fract_z
 _atom_site_occupancy
  Li  Li0  1  0.00000000  0.00000000  0.52597000  1
  Li  Li1  1  0.00000000  0.00000000  0.02597000  1
  Mn  Mn0  1  0.25291200  0.01468000  0.27173100  1
  Mn  Mn1  1  0.98532000  0.23823200  0.27173100  1
  Mn  Mn2  1  0.33333300  0.66666700  0.01589900  1
  Mn  Mn3  1  0.33333300  0.66666700  0.50599600  1
  Mn  Mn4  1  0.23823200  0.25291200  0.77173100  1
  Mn  Mn5  1  0.76176800  0.74708800  0.27173100  1
  Mn  Mn6  1  0.66666700  0.33333300  0.00599600  1
  Mn  Mn7  1  0.66666700  0.33333300  0.51589900  1
  Mn  Mn8  1  0.01468000  0.76176800  0.77173100  1
  Mn  Mn9  1  0.74708800  0.98532000  0.77173100  1
  P  P0  1  0.02618100  0.39809900  0.76804200  1
  P  P1  1  0.37191800  0.97381900  0.76804200  1
  P  P2  1  0.39809900  0.37191800  0.26804200  1
  P  P3  1  0.60190100  0.62808200  0.76804200  1
  P  P4  1  0.62808200  0.02618100  0.26804200  1
  P  P5  1  0.97381900  0.60190100  0.26804200  1
  O  O0  1  0.25088000  0.92528100  0.58290200  1
  O  O1  1  0.26262200  0.91929000  0.96382300  1
  O  O2  1  0.16050800  0.65858000  0.26622500  1
  O  O3  1  0.13237300  0.59271400  0.75719500  1
  O  O4  1  0.08071000  0.34333200  0.96382300  1
  O  O5  1  0.07471900  0.32560000  0.58290200  1
  O  O6  1  0.00000000  0.00000000  0.27617100  1
  O  O7  1  0.00000000  0.00000000  0.77617100  1
  O  O8  1  0.46034000  0.86762700  0.75719500  1
  O  O9  1  0.34142000  0.50192800  0.26622500  1
  O  O10  1  0.49807200  0.83949200  0.26622500  1
  O  O11  1  0.40728600  0.53966000  0.75719500  1
  O  O12  1  0.32560000  0.25088000  0.08290200  1
  O  O13  1  0.34333200  0.26262200  0.46382300  1
  O  O14  1  0.65666800  0.73737800  0.96382300  1
  O  O15  1  0.67440000  0.74912000  0.58290200  1
  O  O16  1  0.59271400  0.46034000  0.25719500  1
  O  O17  1  0.50192800  0.16050800  0.76622500  1
  O  O18  1  0.65858000  0.49807200  0.76622500  1
  O  O19  1  0.53966000  0.13237300  0.25719500  1
  O  O20  1  0.92528100  0.67440000  0.08290200  1
  O  O21  1  0.91929000  0.65666800  0.46382300  1
  O  O22  1  0.86762700  0.40728600  0.25719500  1
  O  O23  1  0.83949200  0.34142000  0.76622500  1
  O  O24  1  0.74912000  0.07471900  0.08290200  1
  O  O25  1  0.73737800  0.08071000  0.46382300  1
loop_
_geom_bond_atom_site_label_1
_geom_bond_atom_site_label_2
_geom_bond_distance
_geom_bond_site_symmetry_2
Li0 O6 1.634664 1_555
Li0 O7 1.637295 1_555
Li1 O7 1.634664 1_554
Li1 O6 1.637295 1_555
Mn0 O0 2.196363 1_545
Mn0 O1 2.222021 1_544
Mn0 O6 2.289929 1_555
Mn0 O12 2.309499 1_555
Mn0 O19 2.326651 1_555
Mn0 O13 2.382328 1_555
Mn1 O5 2.196365 1_655
Mn1 O4 2.222021 1_654
Mn1 O6 2.289929 1_655
Mn1 O24 2.309501 1_555
Mn1 O22 2.326643 1_555
Mn1 O25 2.382328 1_555
Mn2 O2 2.271058 1_555
Mn2 O10 2.271061 1_555
Mn2 O9 2.271065 1_555
Mn2 O8 2.356543 1_554
Mn2 O3 2.356543 1_554
Mn2 O11 2.356543 1_554
Mn2 O1 2.762614 1_554
Mn2 O4 2.762620 1_554
Mn2 O14 2.762623 1_554
Mn3 O2 2.221752 1_555
Mn3 O10 2.221755 1_555
Mn3 O9 2.221759 1_555
Mn3 O8 2.321512 1_555
Mn3 O3 2.321512 1_555
Mn3 O11 2.321512 1_555
Mn4 O12 2.196367 1_556
Mn4 O13 2.222021 1_555
Mn4 O7 2.289929 1_555
Mn4 O5 2.309507 1_555
Mn4 O11 2.326650 1_555
Mn4 O4 2.382328 1_555
Mn5 O15 2.196367 1_555
Mn5 O14 2.222021 1_554
Mn5 O6 2.289929 1_665
Mn5 O20 2.309507 1_555
Mn5 O16 2.326650 1_555
Mn5 O21 2.382328 1_555
Mn6 O23 2.221752 1_554
Mn6 O17 2.221755 1_554
Mn6 O18 2.221759 1_554
Mn6 O19 2.321512 1_555
Mn6 O22 2.321512 1_555
Mn6 O16 2.321512 1_555
Mn7 O23 2.271058 1_555
Mn7 O17 2.271061 1_555
Mn7 O18 2.271065 1_555
Mn7 O19 2.356543 1_555
Mn7 O22 2.356543 1_555
Mn7 O16 2.356543 1_555
Mn7 O25 2.762614 1_555
Mn7 O21 2.762620 1_555
Mn7 O13 2.762623 1_555
Mn8 O20 2.196365 1_456
Mn8 O21 2.222021 1_455
Mn8 O7 2.289929 1_565
Mn8 O0 2.309501 1_555
Mn8 O3 2.326643 1_555
Mn8 O1 2.382328 1_555
Mn9 O24 2.196363 1_566
Mn9 O25 2.222021 1_565
Mn9 O7 2.289929 1_665
Mn9 O15 2.309499 1_555
Mn9 O8 2.326651 1_555
Mn9 O14 2.382328 1_555
O0 P1 1.559802 1_555
O1 P1 1.555068 1_555
O2 P5 1.543759 1_455
O3 P0 1.573182 1_555
O4 P0 1.555068 1_555
O5 P0 1.559797 1_555
O8 P1 1.573175 1_555
O9 P2 1.543759 1_555
O10 P4 1.543759 1_565
O11 P3 1.573183 1_555
O12 P2 1.559802 1_555
O13 P2 1.555068 1_555
O14 P3 1.555068 1_555
O15 P3 1.559802 1_555
O16 P2 1.573183 1_555
O17 P1 1.543759 1_545
O18 P3 1.543759 1_555
O19 P4 1.573175 1_555
O20 P5 1.559797 1_555
O21 P5 1.555068 1_555
O22 P5 1.573182 1_555
O23 P0 1.543759 1_655
O24 P4 1.559802 1_555
O25 P4 1.555068 1_555
