# generated using pymatgen
data_Li3Ti2V3O10
_symmetry_space_group_name_H-M   'P 1'
_cell_length_a   5.14568367
_cell_length_b   10.17133098
_cell_length_c   8.09769622
_cell_angle_alpha   69.72483116
_cell_angle_beta   82.09858206
_cell_angle_gamma   99.95991410
_symmetry_Int_Tables_number   1
_chemical_formula_structural   Li3Ti2V3O10
_chemical_formula_sum   'Li6 Ti4 V6 O20'
_cell_volume   382.52656229
_cell_formula_units_Z   2
loop_
 _symmetry_equiv_pos_site_id
 _symmetry_equiv_pos_as_xyz
  1  'x, y, z'
loop_
 _atom_site_type_symbol
 _atom_site_label
 _atom_site_symmetry_multiplicity
 _atom_site_fract_x
 _atom_site_fract_y
 _atom_site_fract_z
 _atom_site_occupancy
  Li  Li0  1  0.99996800  0.00000200  0.50000100  1
  Li  Li1  1  0.49996600  0.50000300  0.00001000  1
  Li  Li2  1  0.60447600  0.08895900  0.30692500  1
  Li  Li3  1  0.10404000  0.58909900  0.80681800  1
  Li  Li4  1  0.39546300  0.91103600  0.69307700  1
  Li  Li5  1  0.89589600  0.41090100  0.19323000  1
  Ti  Ti0  1  0.31267500  0.28671900  0.40097900  1
  Ti  Ti1  1  0.81165600  0.78687400  0.90032700  1
  Ti  Ti2  1  0.68732300  0.71327900  0.59903800  1
  Ti  Ti3  1  0.18829800  0.21312900  0.09966400  1
  V  V0  1  0.99997000  0.49996300  0.49999800  1
  V  V1  1  0.06904100  0.10532300  0.79364800  1
  V  V2  1  0.93091500  0.89469400  0.20634500  1
  V  V3  1  0.50007500  0.99990000  0.00003100  1
  V  V4  1  0.56923800  0.60542600  0.29308700  1
  V  V5  1  0.43088300  0.39458700  0.70689600  1
  O  O0  1  0.63245900  0.40779800  0.44817500  1
  O  O1  1  0.13238100  0.90802200  0.94785200  1
  O  O2  1  0.36764000  0.59223200  0.55182200  1
  O  O3  1  0.86756600  0.09198500  0.05215900  1
  O  O4  1  0.99310700  0.20977400  0.31460000  1
  O  O5  1  0.49262300  0.70999000  0.81421400  1
  O  O6  1  0.00686700  0.79024500  0.68541000  1
  O  O7  1  0.50735700  0.29001300  0.18578500  1
  O  O8  1  0.09592800  0.31043600  0.62958000  1
  O  O9  1  0.59546000  0.81042400  0.12925900  1
  O  O10  1  0.90418700  0.68960800  0.37037700  1
  O  O11  1  0.40450000  0.18955800  0.87076500  1
  O  O12  1  0.27185200  0.01226800  0.21628600  1
  O  O13  1  0.77195400  0.51247100  0.71597500  1
  O  O14  1  0.72809200  0.98773300  0.78373500  1
  O  O15  1  0.22814600  0.48755400  0.28397600  1
  O  O16  1  0.29970800  0.10415000  0.56196700  1
  O  O17  1  0.79938600  0.60433200  0.06170500  1
  O  O18  1  0.70025900  0.89585400  0.43802400  1
  O  O19  1  0.20064600  0.39565700  0.93826300  1
loop_
_geom_bond_atom_site_label_1
_geom_bond_atom_site_label_2
_geom_bond_distance
_geom_bond_site_symmetry_2
Li0 O18 1.941283 1_545
Li0 O16 1.941351 1_655
Li0 O6 2.151305 1_645
Li0 O4 2.151341 1_555
Li0 O12 2.471505 1_655
Li0 O14 2.471604 1_545
Li1 O19 1.939778 1_554
Li1 O17 1.939836 1_555
Li1 O5 2.154833 1_554
Li1 O7 2.154866 1_555
Li1 O15 2.472372 1_555
Li1 O13 2.473138 1_554
Li2 O18 2.064304 1_545
Li2 O12 2.087350 1_555
Li2 O7 2.119430 1_555
Li2 O4 2.179463 1_555
Li2 O3 2.294214 1_555
Li2 O16 2.482544 1_555
Li3 O19 2.069715 1_555
Li3 O13 2.085881 1_455
Li3 O6 2.120701 1_555
Li3 O5 2.178790 1_555
Li3 O2 2.296512 1_555
Li3 O17 2.481469 1_456
Li4 O16 2.064330 1_565
Li4 O14 2.087483 1_555
Li4 O5 2.119456 1_555
Li4 O6 2.179190 1_555
Li4 O1 2.294303 1_555
Li4 O18 2.482647 1_555
Li5 O17 2.069531 1_555
Li5 O15 2.086181 1_655
Li5 O4 2.120579 1_555
Li5 O7 2.178730 1_555
Li5 O0 2.295909 1_555
Li5 O19 2.482278 1_654
O0 Ti0 2.041698 1_555
O0 V4 2.076682 1_555
O0 V0 2.123378 1_555
O0 V5 2.154614 1_555
O1 Ti1 2.046944 1_455
O1 V1 2.072243 1_565
O1 V3 2.124498 1_556
O1 V2 2.152365 1_456
O2 Ti2 2.041230 1_555
O2 V5 2.076831 1_555
O2 V0 2.124447 1_455
O2 V4 2.154814 1_555
O3 Ti3 2.046866 1_655
O3 V2 2.072140 1_545
O3 V3 2.124171 1_545
O3 V1 2.152473 1_654
O4 Ti3 1.872328 1_655
O4 Ti0 2.014017 1_655
O5 Ti2 1.873224 1_555
O5 Ti1 2.010315 1_555
O6 Ti1 1.872174 1_455
O6 Ti2 2.013964 1_455
O7 Ti0 1.873290 1_555
O7 Ti3 2.010460 1_555
O8 V1 2.016284 1_555
O8 V0 2.032450 1_455
O8 V5 2.062294 1_555
O8 Ti0 2.136296 1_555
O9 V4 2.015480 1_555
O9 V3 2.029989 1_555
O9 V2 2.063776 1_555
O9 Ti1 2.136482 1_554
O10 V2 2.016146 1_555
O10 V0 2.033064 1_555
O10 V4 2.062269 1_555
O10 Ti2 2.136720 1_555
O11 V5 2.015659 1_555
O11 V3 2.032027 1_546
O11 V1 2.063800 1_555
O11 Ti3 2.136380 1_556
O12 V2 1.973369 1_445
O12 V3 2.024824 1_545
O12 Ti3 2.080612 1_555
O13 V5 1.972791 1_555
O13 V0 2.023164 1_555
O13 Ti2 2.082951 1_555
O14 V1 1.973409 1_665
O14 V3 2.023648 1_556
O14 Ti1 2.080582 1_555
O15 V4 1.972915 1_555
O15 V0 2.023381 1_455
O15 Ti0 2.083032 1_555
O16 Ti0 1.845998 1_555
O16 V1 2.082506 1_555
O17 Ti1 1.847754 1_554
O17 V4 2.078982 1_555
O18 Ti2 1.846156 1_555
O18 V2 2.082413 1_555
O19 Ti3 1.847617 1_556
O19 V5 2.078985 1_555
