# generated using pymatgen
data_Li3Mn4(PO4)6
_symmetry_space_group_name_H-M   'P 1'
_cell_length_a   8.61139427
_cell_length_b   8.61139427
_cell_length_c   6.23925505
_cell_angle_alpha   74.98447451
_cell_angle_beta   74.98447451
_cell_angle_gamma   94.75237137
_symmetry_Int_Tables_number   1
_chemical_formula_structural   Li3Mn4(PO4)6
_chemical_formula_sum   'Li3 Mn4 P6 O24'
_cell_volume   426.00845648
_cell_formula_units_Z   1
loop_
 _symmetry_equiv_pos_site_id
 _symmetry_equiv_pos_as_xyz
  1  'x, y, z'
loop_
 _atom_site_type_symbol
 _atom_site_label
 _atom_site_symmetry_multiplicity
 _atom_site_fract_x
 _atom_site_fract_y
 _atom_site_fract_z
 _atom_site_occupancy
  Li  Li0  1  0.49982800  0.49977800  0.24911100  1
  Li  Li1  1  0.50022200  0.50017200  0.75088900  1
  Li  Li2  1  0.99328800  0.00671200  0.00000000  1
  Mn  Mn0  1  0.94236400  0.62220200  0.38458800  1
  Mn  Mn1  1  0.62512900  0.94181500  0.88256600  1
  Mn  Mn2  1  0.37779800  0.05763600  0.61541200  1
  Mn  Mn3  1  0.05818500  0.37487100  0.11743400  1
  P  P0  1  0.72313500  0.27686500  0.50000000  1
  P  P1  1  0.84856800  0.65821500  0.88997200  1
  P  P2  1  0.65786000  0.84705400  0.38667600  1
  P  P3  1  0.34178500  0.15143200  0.11002800  1
  P  P4  1  0.15294600  0.34214000  0.61332400  1
  P  P5  1  0.27777000  0.72223000  0.00000000  1
  O  O0  1  0.97156400  0.65006600  0.66371200  1
  O  O1  1  0.94036900  0.59524400  0.07944700  1
  O  O2  1  0.74436400  0.16011800  0.72242800  1
  O  O3  1  0.83988200  0.25563600  0.27757200  1
  O  O4  1  0.84260100  0.83251800  0.34221900  1
  O  O5  1  0.74647300  0.45383100  0.52079800  1
  O  O6  1  0.83551600  0.84074000  0.86982500  1
  O  O7  1  0.68393300  0.55746100  0.95138100  1
  O  O8  1  0.54616900  0.25352700  0.47920200  1
  O  O9  1  0.60036000  0.93840100  0.57786300  1
  O  O10  1  0.64953500  0.97491600  0.16313700  1
  O  O11  1  0.55416400  0.68393900  0.45330000  1
  O  O12  1  0.44253900  0.31606700  0.04861900  1
  O  O13  1  0.34993400  0.02843600  0.33628800  1
  O  O14  1  0.40475600  0.05963100  0.92055300  1
  O  O15  1  0.45437900  0.74580000  0.02102100  1
  O  O16  1  0.31606100  0.44583600  0.54670000  1
  O  O17  1  0.16748200  0.15739900  0.65778100  1
  O  O18  1  0.25420000  0.54562100  0.97897900  1
  O  O19  1  0.15926000  0.16448400  0.13017500  1
  O  O20  1  0.15848000  0.74530900  0.21951100  1
  O  O21  1  0.25469100  0.84152000  0.78048900  1
  O  O22  1  0.06159900  0.39964000  0.42213700  1
  O  O23  1  0.02508400  0.35046500  0.83686300  1
loop_
_geom_bond_atom_site_label_1
_geom_bond_atom_site_label_2
_geom_bond_distance
_geom_bond_site_symmetry_2
Li0 O16 2.018986 1_555
Li0 O7 2.018993 1_554
Li0 O12 2.350916 1_555
Li0 O15 2.351723 1_555
Li0 O8 2.361488 1_555
Li0 O11 2.364280 1_555
Li1 O11 2.018986 1_555
Li1 O12 2.018993 1_556
Li1 O7 2.350916 1_555
Li1 O18 2.351723 1_555
Li1 O5 2.361488 1_555
Li1 O16 2.364280 1_555
Li2 O17 2.252825 1_654
Li2 O4 2.252825 1_545
Li2 O19 2.323753 1_655
Li2 O6 2.323753 1_544
Mn0 O0 1.893978 1_555
Mn0 O20 1.939668 1_655
Mn0 O5 1.970660 1_555
Mn0 O1 1.980944 1_555
Mn0 O4 2.053163 1_555
Mn0 O22 2.236171 1_655
Mn1 O10 1.905028 1_556
Mn1 O2 1.939559 1_565
Mn1 O9 1.974500 1_555
Mn1 O15 1.983061 1_556
Mn1 O6 2.066102 1_555
Mn1 O14 2.213009 1_565
Mn2 O13 1.893978 1_555
Mn2 O21 1.939668 1_545
Mn2 O8 1.970660 1_555
Mn2 O14 1.980944 1_555
Mn2 O17 2.053163 1_555
Mn2 O9 2.236171 1_545
Mn3 O23 1.905028 1_554
Mn3 O3 1.939559 1_455
Mn3 O22 1.974500 1_555
Mn3 O18 1.983061 1_554
Mn3 O19 2.066102 1_555
Mn3 O1 2.213009 1_455
O0 P1 1.551941 1_555
O1 P1 1.593633 1_554
O2 P0 1.552118 1_555
O3 P0 1.552118 1_555
O4 P2 1.563917 1_555
O5 P0 1.563587 1_555
O6 P1 1.559868 1_555
O7 P1 1.500675 1_555
O8 P0 1.563587 1_555
O9 P2 1.591094 1_555
O10 P2 1.559451 1_555
O11 P2 1.496828 1_555
O12 P3 1.500675 1_555
O13 P3 1.551941 1_555
O14 P3 1.593633 1_556
O15 P5 1.561212 1_555
O16 P4 1.496828 1_555
O17 P4 1.563917 1_555
O18 P5 1.561212 1_556
O19 P3 1.559868 1_555
O20 P5 1.554469 1_555
O21 P5 1.554469 1_556
O22 P4 1.591094 1_555
O23 P4 1.559451 1_555
