# generated using pymatgen
data_Ca2B8H2O15
_symmetry_space_group_name_H-M   'P 1'
_cell_length_a   6.51119300
_cell_length_b   9.41246573
_cell_length_c   10.09911209
_cell_angle_alpha   116.83438119
_cell_angle_beta   90.42632201
_cell_angle_gamma   99.25917792
_symmetry_Int_Tables_number   1
_chemical_formula_structural   Ca2B8H2O15
_chemical_formula_sum   'Ca4 B16 H4 O30'
_cell_volume   542.83405381
_cell_formula_units_Z   2
loop_
 _symmetry_equiv_pos_site_id
 _symmetry_equiv_pos_as_xyz
  1  'x, y, z'
loop_
 _atom_site_type_symbol
 _atom_site_label
 _atom_site_symmetry_multiplicity
 _atom_site_fract_x
 _atom_site_fract_y
 _atom_site_fract_z
 _atom_site_occupancy
  Ca  Ca0  1  0.01249100  0.17582900  0.72115000  1
  Ca  Ca1  1  0.98750900  0.82417100  0.27885000  1
  Ca  Ca2  1  0.32728100  0.18354100  0.16871200  1
  Ca  Ca3  1  0.67271900  0.81645900  0.83128800  1
  B  B0  1  0.24730700  0.93970700  0.78021700  1
  B  B1  1  0.75269300  0.06029300  0.21978300  1
  B  B2  1  0.26482500  0.53199800  0.84449300  1
  B  B3  1  0.73517500  0.46800200  0.15550700  1
  B  B4  1  0.08084100  0.40397600  0.12488000  1
  B  B5  1  0.91915900  0.59602400  0.87512000  1
  B  B6  1  0.44173900  0.84290900  0.18966300  1
  B  B7  1  0.55826100  0.15709100  0.81033700  1
  B  B8  1  0.29001600  0.73753400  0.52083200  1
  B  B9  1  0.70998400  0.26246600  0.47916800  1
  B  B10  1  0.42065000  0.60858000  0.25982400  1
  B  B11  1  0.57935000  0.39142000  0.74017600  1
  B  B12  1  0.22822600  0.82700300  0.97406700  1
  B  B13  1  0.77177400  0.17299700  0.02593300  1
  B  B14  1  0.06192000  0.19196600  0.42001000  1
  B  B15  1  0.93808000  0.80803400  0.57999000  1
  H  H0  1  0.31794000  0.14226000  0.50322700  1
  H  H1  1  0.68206000  0.85774000  0.49677300  1
  H  H2  1  0.32145600  0.37535900  0.49244200  1
  H  H3  1  0.67854400  0.62464100  0.50755800  1
  O  O0  1  0.36325300  0.40406300  0.78158200  1
  O  O1  1  0.63674700  0.59593700  0.21841800  1
  O  O2  1  0.02850200  0.91784600  0.73148100  1
  O  O3  1  0.97149800  0.08215400  0.26851900  1
  O  O4  1  0.16910800  0.09589700  0.47836800  1
  O  O5  1  0.83089200  0.90410300  0.52163200  1
  O  O6  1  0.99926600  0.75933800  0.95218400  1
  O  O7  1  0.00073400  0.24066200  0.04781600  1
  O  O8  1  0.30111100  0.90865600  0.13702500  1
  O  O9  1  0.69888900  0.09134400  0.86297500  1
  O  O10  1  0.34214700  0.72407800  0.22179000  1
  O  O11  1  0.65785300  0.27592200  0.77821000  1
  O  O12  1  0.28617100  0.44655700  0.17493200  1
  O  O13  1  0.71382900  0.55344300  0.82506800  1
  O  O14  1  0.27776700  0.95186500  0.92815100  1
  O  O15  1  0.72223300  0.04813500  0.07184900  1
  O  O16  1  0.34910500  0.69260300  0.89563900  1
  O  O17  1  0.65089500  0.30739700  0.10436100  1
  O  O18  1  0.04992100  0.48405700  0.84879600  1
  O  O19  1  0.95007900  0.51594300  0.15120400  1
  O  O20  1  0.21262600  0.32004500  0.41015200  1
  O  O21  1  0.78737400  0.67995500  0.58984800  1
  O  O22  1  0.43073000  0.66480800  0.42208800  1
  O  O23  1  0.56927000  0.33519200  0.57791200  1
  O  O24  1  0.09578700  0.74532900  0.47284400  1
  O  O25  1  0.90421300  0.25467100  0.52715600  1
  O  O26  1  0.34787700  0.10024300  0.78567800  1
  O  O27  1  0.65212300  0.89975700  0.21432200  1
  O  O28  1  0.35415500  0.81020800  0.67157800  1
  O  O29  1  0.64584500  0.18979200  0.32842200  1
loop_
_geom_bond_atom_site_label_1
_geom_bond_atom_site_label_2
_geom_bond_distance
_geom_bond_site_symmetry_2
Ca0 O2 2.495639 1_545
Ca0 O4 2.497269 1_555
Ca0 O5 2.517582 1_445
Ca0 O25 2.519230 1_455
Ca0 O18 2.555259 1_555
Ca0 O26 2.568469 1_555
Ca0 O11 2.604113 1_455
Ca0 O9 2.720775 1_455
Ca0 O0 2.724012 1_555
Ca0 O7 3.076218 1_556
Ca1 O3 2.495639 1_565
Ca1 O5 2.497269 1_555
Ca1 O4 2.517582 1_665
Ca1 O24 2.519230 1_655
Ca1 O19 2.555259 1_555
Ca1 O27 2.568469 1_555
Ca1 O10 2.604113 1_655
Ca1 O8 2.720775 1_655
Ca1 O1 2.724012 1_555
Ca1 O6 3.076218 1_554
Ca2 O20 2.379267 1_555
Ca2 O14 2.395939 1_544
Ca2 O8 2.436307 1_545
Ca2 O17 2.476943 1_555
Ca2 O12 2.505481 1_555
Ca2 O29 2.594745 1_555
Ca2 O7 2.687457 1_555
Ca2 O3 2.735864 1_455
Ca3 O21 2.379267 1_555
Ca3 O15 2.395939 1_566
Ca3 O9 2.436307 1_565
Ca3 O16 2.476943 1_555
Ca3 O13 2.505481 1_555
Ca3 O28 2.594745 1_555
Ca3 O6 2.687457 1_555
Ca3 O2 2.735864 1_655
B0 O2 1.455370 1_555
B0 O14 1.455474 1_555
B0 O28 1.500121 1_555
B0 O26 1.523449 1_565
B1 O3 1.455370 1_555
B1 O15 1.455474 1_555
B1 O29 1.500121 1_555
B1 O27 1.523449 1_545
B2 O0 1.352085 1_555
B2 O16 1.370044 1_555
B2 O18 1.406739 1_555
B3 O1 1.352085 1_555
B3 O17 1.370044 1_555
B3 O19 1.406739 1_555
B4 O12 1.355790 1_555
B4 O7 1.377156 1_555
B4 O19 1.394787 1_455
B5 O13 1.355790 1_555
B5 O6 1.377156 1_555
B5 O18 1.394787 1_655
B6 O27 1.365125 1_555
B6 O10 1.369001 1_555
B6 O8 1.405737 1_555
B7 O26 1.365125 1_555
B7 O11 1.369001 1_555
B7 O9 1.405737 1_555
B8 O24 1.375670 1_555
B8 O22 1.378993 1_555
B8 O28 1.385079 1_555
B9 O25 1.375670 1_555
B9 O23 1.378993 1_555
B9 O29 1.385079 1_555
B10 O10 1.464083 1_555
B10 O22 1.474460 1_555
B10 O1 1.478689 1_555
B10 O12 1.485315 1_555
B11 O11 1.464083 1_555
B11 O23 1.474460 1_555
B11 O0 1.478689 1_555
B11 O13 1.485315 1_555
B12 O14 1.439641 1_555
B12 O6 1.496477 1_455
B12 O8 1.501134 1_556
B12 O16 1.507385 1_555
B13 O15 1.439641 1_555
B13 O7 1.496477 1_655
B13 O9 1.501134 1_554
B13 O17 1.507385 1_555
B14 O3 1.455587 1_455
B14 O20 1.468084 1_555
B14 O25 1.486156 1_455
B14 O4 1.526504 1_555
B15 O2 1.455587 1_655
B15 O21 1.468084 1_555
B15 O24 1.486156 1_655
B15 O5 1.526504 1_555
H0 O4 0.976703 1_555
H1 O5 0.976703 1_555
H2 O20 0.972487 1_555
H3 O21 0.972487 1_555
