# generated using pymatgen
data_AgH2C2N3O
_symmetry_space_group_name_H-M   'P 1'
_cell_length_a   6.59418900
_cell_length_b   9.95903800
_cell_length_c   13.20438000
_cell_angle_alpha   90.00000000
_cell_angle_beta   90.00000000
_cell_angle_gamma   90.00000000
_symmetry_Int_Tables_number   1
_chemical_formula_structural   AgH2C2N3O
_chemical_formula_sum   'Ag8 H16 C16 N24 O8'
_cell_volume   867.15512295
_cell_formula_units_Z   8
loop_
 _symmetry_equiv_pos_site_id
 _symmetry_equiv_pos_as_xyz
  1  'x, y, z'
loop_
 _atom_site_type_symbol
 _atom_site_label
 _atom_site_symmetry_multiplicity
 _atom_site_fract_x
 _atom_site_fract_y
 _atom_site_fract_z
 _atom_site_occupancy
  Ag  Ag0  1  0.55459100  0.21018100  0.32768000  1
  Ag  Ag1  1  0.05459100  0.28981900  0.67232000  1
  Ag  Ag2  1  0.44540900  0.71018100  0.17232000  1
  Ag  Ag3  1  0.94540900  0.78981900  0.82768000  1
  Ag  Ag4  1  0.44540900  0.78981900  0.67232000  1
  Ag  Ag5  1  0.94540900  0.71018100  0.32768000  1
  Ag  Ag6  1  0.55459100  0.28981900  0.82768000  1
  Ag  Ag7  1  0.05459100  0.21018100  0.17232000  1
  H  H0  1  0.14921500  0.25513400  0.41841400  1
  H  H1  1  0.64921500  0.24486600  0.58158600  1
  H  H2  1  0.85078500  0.75513400  0.08158600  1
  H  H3  1  0.35078500  0.74486600  0.91841400  1
  H  H4  1  0.85078500  0.74486600  0.58158600  1
  H  H5  1  0.35078500  0.75513400  0.41841400  1
  H  H6  1  0.14921500  0.24486600  0.91841400  1
  H  H7  1  0.64921500  0.25513400  0.08158600  1
  H  H8  1  0.98437500  0.38193900  0.46477200  1
  H  H9  1  0.48437500  0.11806100  0.53522800  1
  H  H10  1  0.01562500  0.88193900  0.03522800  1
  H  H11  1  0.51562500  0.61806100  0.96477200  1
  H  H12  1  0.01562500  0.61806100  0.53522800  1
  H  H13  1  0.51562500  0.88193900  0.46477200  1
  H  H14  1  0.98437500  0.11806100  0.96477200  1
  H  H15  1  0.48437500  0.38193900  0.03522800  1
  C  C0  1  0.55857300  0.50564100  0.34460100  1
  C  C1  1  0.05857300  0.99435900  0.65539900  1
  C  C2  1  0.44142700  0.00564100  0.15539900  1
  C  C3  1  0.94142700  0.49435900  0.84460100  1
  C  C4  1  0.44142700  0.49435900  0.65539900  1
  C  C5  1  0.94142700  0.00564100  0.34460100  1
  C  C6  1  0.55857300  0.99435900  0.84460100  1
  C  C7  1  0.05857300  0.50564100  0.15539900  1
  C  C8  1  0.24794600  0.45082600  0.40716100  1
  C  C9  1  0.74794600  0.04917400  0.59283900  1
  C  C10  1  0.75205400  0.95082600  0.09283900  1
  C  C11  1  0.25205400  0.54917400  0.90716100  1
  C  C12  1  0.75205400  0.54917400  0.59283900  1
  C  C13  1  0.25205400  0.95082600  0.40716100  1
  C  C14  1  0.24794600  0.04917400  0.90716100  1
  C  C15  1  0.74794600  0.45082600  0.09283900  1
  N  N0  1  0.67832400  0.58908300  0.32172900  1
  N  N1  1  0.17832400  0.91091700  0.67827100  1
  N  N2  1  0.32167600  0.08908300  0.17827100  1
  N  N3  1  0.82167600  0.41091700  0.82172900  1
  N  N4  1  0.32167600  0.41091700  0.67827100  1
  N  N5  1  0.82167600  0.08908300  0.32172900  1
  N  N6  1  0.67832400  0.91091700  0.82172900  1
  N  N7  1  0.17832400  0.58908300  0.17827100  1
  N  N8  1  0.43072000  0.41015800  0.36421700  1
  N  N9  1  0.93072000  0.08984200  0.63578300  1
  N  N10  1  0.56928000  0.91015800  0.13578300  1
  N  N11  1  0.06928000  0.58984200  0.86421700  1
  N  N12  1  0.56928000  0.58984200  0.63578300  1
  N  N13  1  0.06928000  0.91015800  0.36421700  1
  N  N14  1  0.43072000  0.08984200  0.86421700  1
  N  N15  1  0.93072000  0.41015800  0.13578300  1
  N  N16  1  0.10908000  0.35422700  0.42289700  1
  N  N17  1  0.60908000  0.14577300  0.57710300  1
  N  N18  1  0.89092000  0.85422700  0.07710300  1
  N  N19  1  0.39092000  0.64577300  0.92289700  1
  N  N20  1  0.89092000  0.64577300  0.57710300  1
  N  N21  1  0.39092000  0.85422700  0.42289700  1
  N  N22  1  0.10908000  0.14577300  0.92289700  1
  N  N23  1  0.60908000  0.35422700  0.07710300  1
  O  O0  1  0.21354900  0.57263800  0.42929600  1
  O  O1  1  0.71354900  0.92736200  0.57070400  1
  O  O2  1  0.78645100  0.07263800  0.07070400  1
  O  O3  1  0.28645100  0.42736200  0.92929600  1
  O  O4  1  0.78645100  0.42736200  0.57070400  1
  O  O5  1  0.28645100  0.07263800  0.42929600  1
  O  O6  1  0.21354900  0.92736200  0.92929600  1
  O  O7  1  0.71354900  0.57263800  0.07070400  1
loop_
_geom_bond_atom_site_label_1
_geom_bond_atom_site_label_2
_geom_bond_distance
_geom_bond_site_symmetry_2
Ag0 N5 2.136004 1_555
Ag0 N8 2.205981 1_555
Ag0 O5 2.608278 1_555
Ag0 N2 2.775892 1_555
Ag1 N4 2.136004 1_555
Ag1 N9 2.205981 1_455
Ag1 O4 2.608278 1_455
Ag1 N3 2.775892 1_455
Ag2 N7 2.136004 1_555
Ag2 N10 2.205981 1_555
Ag2 O7 2.608278 1_555
Ag2 N0 2.775892 1_555
Ag3 N6 2.136004 1_555
Ag3 N11 2.205981 1_655
Ag3 O6 2.608278 1_655
Ag3 N1 2.775892 1_655
Ag4 N1 2.136004 1_555
Ag4 N12 2.205981 1_555
Ag4 O1 2.608278 1_555
Ag4 N6 2.775892 1_555
Ag5 N0 2.136004 1_555
Ag5 N13 2.205981 1_655
Ag5 O0 2.608278 1_655
Ag5 N7 2.775892 1_655
Ag6 N3 2.136004 1_555
Ag6 N14 2.205981 1_555
Ag6 O3 2.608278 1_555
Ag6 N4 2.775892 1_555
Ag7 N2 2.136004 1_555
Ag7 N15 2.205981 1_455
Ag7 O2 2.608278 1_455
Ag7 N5 2.775892 1_455
H0 N16 1.023456 1_555
H1 N17 1.023456 1_555
H2 N18 1.023456 1_555
H3 N19 1.023456 1_555
H4 N20 1.023456 1_555
H5 N21 1.023456 1_555
H6 N22 1.023456 1_555
H7 N23 1.023456 1_555
H8 N16 1.028653 1_655
H9 N17 1.028653 1_555
H10 N18 1.028653 1_455
H11 N19 1.028653 1_555
H12 N20 1.028653 1_455
H13 N21 1.028653 1_555
H14 N22 1.028653 1_655
H15 N23 1.028653 1_555
C0 N0 1.185470 1_555
C0 N8 1.296970 1_555
C1 N1 1.185470 1_555
C1 N9 1.296970 1_465
C2 N2 1.185470 1_555
C2 N10 1.296970 1_545
C3 N3 1.185470 1_555
C3 N11 1.296970 1_655
C4 N4 1.185470 1_555
C4 N12 1.296970 1_555
C5 N5 1.185470 1_555
C5 N13 1.296970 1_645
C6 N6 1.185470 1_555
C6 N14 1.296970 1_565
C7 N7 1.185470 1_555
C7 N15 1.296970 1_455
C8 O0 1.268290 1_555
C8 N16 1.344323 1_555
C8 N8 1.392192 1_555
C9 O1 1.268290 1_545
C9 N17 1.344323 1_555
C9 N9 1.392192 1_555
C10 O2 1.268290 1_565
C10 N18 1.344323 1_555
C10 N10 1.392192 1_555
C11 O3 1.268290 1_555
C11 N19 1.344323 1_555
C11 N11 1.392192 1_555
C12 O4 1.268290 1_555
C12 N20 1.344323 1_555
C12 N12 1.392192 1_555
C13 O5 1.268290 1_565
C13 N21 1.344323 1_555
C13 N13 1.392192 1_555
C14 O6 1.268290 1_545
C14 N22 1.344323 1_555
C14 N14 1.392192 1_555
C15 O7 1.268290 1_555
C15 N23 1.344323 1_555
C15 N15 1.392192 1_555
