# generated using pymatgen
data_Co3NiO8
_symmetry_space_group_name_H-M   'P 1'
_cell_length_a   5.66041825
_cell_length_b   5.66034947
_cell_length_c   10.18631591
_cell_angle_alpha   106.23359030
_cell_angle_beta   106.24352763
_cell_angle_gamma   59.78839807
_symmetry_Int_Tables_number   1
_chemical_formula_structural   Co3NiO8
_chemical_formula_sum   'Co6 Ni2 O16'
_cell_volume   266.96455599
_cell_formula_units_Z   2
loop_
 _symmetry_equiv_pos_site_id
 _symmetry_equiv_pos_as_xyz
  1  'x, y, z'
loop_
 _atom_site_type_symbol
 _atom_site_label
 _atom_site_symmetry_multiplicity
 _atom_site_fract_x
 _atom_site_fract_y
 _atom_site_fract_z
 _atom_site_occupancy
  Co  Co0  1  0.99976800  0.50011600  0.49999400  1
  Co  Co1  1  0.49979500  0.00013600  0.49998400  1
  Co  Co2  1  0.50023200  0.49984400  0.00001100  1
  Co  Co3  1  0.50021200  0.99988200  0.00001100  1
  Co  Co4  1  0.00021800  0.49986000  0.00002100  1
  Co  Co5  1  0.99975700  0.00019000  0.49999800  1
  Ni  Ni0  1  0.00034700  0.99972800  0.00000600  1
  Ni  Ni1  1  0.49967000  0.50020300  0.49996500  1
  O  O0  1  0.13367900  0.13402900  0.40300800  1
  O  O1  1  0.63410900  0.63377100  0.90304100  1
  O  O2  1  0.36633400  0.36597300  0.09700100  1
  O  O3  1  0.86590200  0.86623100  0.59696700  1
  O  O4  1  0.63264900  0.63301200  0.40228300  1
  O  O5  1  0.13307100  0.13273700  0.90229500  1
  O  O6  1  0.13500200  0.63361300  0.40245500  1
  O  O7  1  0.63542500  0.13333600  0.90248000  1
  O  O8  1  0.63324800  0.13538300  0.40247000  1
  O  O9  1  0.13368900  0.63506300  0.90247300  1
  O  O10  1  0.86675400  0.36461500  0.09753100  1
  O  O11  1  0.36631400  0.86493600  0.59752800  1
  O  O12  1  0.36497900  0.86639800  0.09753800  1
  O  O13  1  0.86456300  0.36667100  0.59751500  1
  O  O14  1  0.86735300  0.86700000  0.09771800  1
  O  O15  1  0.36693000  0.36727300  0.59770700  1
loop_
_geom_bond_atom_site_label_1
_geom_bond_atom_site_label_2
_geom_bond_distance
_geom_bond_site_symmetry_2
Co0 O0 1.880984 1_655
Co0 O3 1.881061 1_555
Co0 O4 1.887626 1_555
Co0 O15 1.887819 1_655
Co0 O13 1.889357 1_555
Co0 O6 1.889840 1_655
Co1 O3 1.880831 1_545
Co1 O0 1.880846 1_555
Co1 O4 1.887845 1_545
Co1 O15 1.887974 1_555
Co1 O8 1.889516 1_555
Co1 O11 1.889664 1_545
Co2 O1 1.881536 1_554
Co2 O2 1.881540 1_555
Co2 O10 1.884387 1_555
Co2 O9 1.884537 1_554
Co2 O7 1.884595 1_554
Co2 O12 1.884777 1_555
Co3 O2 1.881015 1_565
Co3 O1 1.881033 1_554
Co3 O14 1.887707 1_555
Co3 O5 1.887739 1_564
Co3 O7 1.889506 1_564
Co3 O12 1.889688 1_555
Co4 O1 1.880829 1_454
Co4 O2 1.880859 1_555
Co4 O14 1.887899 1_455
Co4 O5 1.887925 1_554
Co4 O10 1.889524 1_455
Co4 O9 1.889665 1_554
Co5 O0 1.881506 1_655
Co5 O3 1.881571 1_545
Co5 O8 1.884359 1_555
Co5 O13 1.884433 1_555
Co5 O11 1.884569 1_645
Co5 O6 1.884929 1_645
Ni0 O12 1.876432 1_555
Ni0 O9 1.876804 1_554
Ni0 O7 1.877637 1_464
Ni0 O10 1.877715 1_465
Ni0 O14 1.878368 1_455
Ni0 O5 1.878407 1_564
Ni1 O6 1.876508 1_555
Ni1 O11 1.877195 1_555
Ni1 O8 1.877329 1_555
Ni1 O13 1.877596 1_555
Ni1 O15 1.878377 1_555
Ni1 O4 1.878417 1_555
