# generated using pymatgen
data_Li5CoO4
_symmetry_space_group_name_H-M   'P 1'
_cell_length_a   6.34693020
_cell_length_b   6.34693020
_cell_length_c   4.65082745
_cell_angle_alpha   90.00000000
_cell_angle_beta   90.00000000
_cell_angle_gamma   94.13051095
_symmetry_Int_Tables_number   1
_chemical_formula_structural   Li5CoO4
_chemical_formula_sum   'Li10 Co2 O8'
_cell_volume   186.86508093
_cell_formula_units_Z   2
loop_
 _symmetry_equiv_pos_site_id
 _symmetry_equiv_pos_as_xyz
  1  'x, y, z'
loop_
 _atom_site_type_symbol
 _atom_site_label
 _atom_site_symmetry_multiplicity
 _atom_site_fract_x
 _atom_site_fract_y
 _atom_site_fract_z
 _atom_site_occupancy
  Li  Li0  1  0.04984789  0.54161809  0.52915862  1
  Li  Li1  1  0.71969098  0.71646985  0.44125869  1
  Li  Li2  1  0.78353015  0.78030902  0.94125869  1
  Li  Li3  1  0.45838191  0.95015211  0.47084138  1
  Li  Li4  1  0.01813363  0.98186637  0.50000000  1
  Li  Li5  1  0.54984789  0.04161809  0.97084138  1
  Li  Li6  1  0.21969098  0.21646985  0.05874131  1
  Li  Li7  1  0.28353015  0.28030902  0.55874131  1
  Li  Li8  1  0.95838191  0.45015211  0.02915862  1
  Li  Li9  1  0.51813363  0.48186637  -0.00000000  1
  Co  Co0  1  0.24289621  0.75710379  -0.00000000  1
  Co  Co1  1  0.74289621  0.25710379  0.50000000  1
  O  O0  1  0.76269880  0.50116030  0.72633236  1
  O  O1  1  0.99883970  0.73730120  0.22633236  1
  O  O2  1  0.51582965  0.76617191  0.15956756  1
  O  O3  1  0.73382809  0.98417035  0.65956756  1
  O  O4  1  0.26269880  0.00116030  0.77366764  1
  O  O5  1  0.01582965  0.26617191  0.34043244  1
  O  O6  1  0.49883970  0.23730120  0.27366764  1
  O  O7  1  0.23382809  0.48417035  0.84043244  1
loop_
_geom_bond_atom_site_label_1
_geom_bond_atom_site_label_2
_geom_bond_distance
_geom_bond_site_symmetry_2
Li0 O7 1.911441 1_555
Li0 O1 1.920634 1_455
Li0 O5 1.954224 1_555
Li0 O0 2.039855 1_455
Li1 O2 1.883833 1_555
Li1 O0 1.937406 1_555
Li1 O3 1.975808 1_555
Li1 O1 2.030261 1_555
Li2 O3 1.883833 1_555
Li2 O1 1.937406 1_556
Li2 O2 1.975808 1_556
Li2 O0 2.030261 1_555
Li3 O2 1.911441 1_555
Li3 O4 1.920634 1_565
Li3 O3 1.954224 1_555
Li3 O6 2.039855 1_565
Li4 O3 1.952143 1_455
Li4 O5 1.952143 1_565
Li4 O4 2.004252 1_565
Li4 O1 2.004252 1_455
Li5 O3 1.911441 1_545
Li5 O6 1.920634 1_556
Li5 O2 1.954224 1_546
Li5 O4 2.039855 1_555
Li6 O5 1.883833 1_555
Li6 O4 1.937406 1_554
Li6 O7 1.975808 1_554
Li6 O6 2.030261 1_555
Li7 O7 1.883833 1_555
Li7 O6 1.937406 1_555
Li7 O5 1.975808 1_555
Li7 O4 2.030261 1_555
Li8 O5 1.911441 1_655
Li8 O0 1.920634 1_554
Li8 O7 1.954224 1_654
Li8 O1 2.039855 1_555
Li9 O2 1.952143 1_555
Li9 O7 1.952143 1_554
Li9 O6 2.004252 1_555
Li9 O0 2.004252 1_554
Co0 O4 1.869550 1_564
Co0 O1 1.869550 1_455
Co0 O2 1.881627 1_555
Co0 O7 1.881627 1_554
Co1 O6 1.869550 1_555
Co1 O0 1.869550 1_555
Co1 O5 1.881627 1_655
Co1 O3 1.881627 1_545
