# generated using pymatgen
data_Li12MnNi3P4(CO7)4
_symmetry_space_group_name_H-M   'P 1'
_cell_length_a   6.46179100
_cell_length_b   8.37387700
_cell_length_c   9.98027926
_cell_angle_alpha   85.24840450
_cell_angle_beta   90.00000000
_cell_angle_gamma   90.00000000
_symmetry_Int_Tables_number   1
_chemical_formula_structural   Li12MnNi3P4(CO7)4
_chemical_formula_sum   'Li12 Mn1 Ni3 P4 C4 O28'
_cell_volume   538.17934090
_cell_formula_units_Z   1
loop_
 _symmetry_equiv_pos_site_id
 _symmetry_equiv_pos_as_xyz
  1  'x, y, z'
loop_
 _atom_site_type_symbol
 _atom_site_label
 _atom_site_symmetry_multiplicity
 _atom_site_fract_x
 _atom_site_fract_y
 _atom_site_fract_z
 _atom_site_occupancy
  Li  Li0  1  0.00000000  0.90083400  0.61745800  1
  Li  Li1  1  0.00000000  0.90759700  0.11860600  1
  Li  Li2  1  0.22869800  0.72329600  0.87631800  1
  Li  Li3  1  0.77130200  0.72329600  0.87631800  1
  Li  Li4  1  0.22874500  0.72511000  0.37722900  1
  Li  Li5  1  0.77125500  0.72511000  0.37722900  1
  Li  Li6  1  0.72831500  0.27692900  0.62567000  1
  Li  Li7  1  0.27168500  0.27692900  0.62567000  1
  Li  Li8  1  0.72768100  0.27553300  0.12113800  1
  Li  Li9  1  0.27231900  0.27553300  0.12113800  1
  Li  Li10  1  0.50000000  0.09710800  0.88255300  1
  Li  Li11  1  0.50000000  0.09757000  0.38343300  1
  Mn  Mn0  1  0.00000000  0.34071400  0.38875700  1
  Ni  Ni0  1  0.50000000  0.66743000  0.60442300  1
  Ni  Ni1  1  0.50000000  0.66807600  0.10283500  1
  Ni  Ni2  1  0.00000000  0.33309700  0.89712400  1
  P  P0  1  0.00000000  0.58522200  0.64317800  1
  P  P1  1  0.00000000  0.59013100  0.13543600  1
  P  P2  1  0.50000000  0.41548500  0.86101200  1
  P  P3  1  0.50000000  0.41487100  0.36180900  1
  C  C0  1  0.50000000  0.96018700  0.64860200  1
  C  C1  1  0.50000000  0.96051700  0.14835900  1
  C  C2  1  0.00000000  0.04014800  0.85101100  1
  C  C3  1  0.00000000  0.03099000  0.35100000  1
  O  O0  1  0.50000000  0.92347000  0.52498400  1
  O  O1  1  0.00000000  0.89300200  0.82037000  1
  O  O2  1  0.50000000  0.92446000  0.02468000  1
  O  O3  1  0.50000000  0.84318600  0.74299700  1
  O  O4  1  0.00000000  0.88296100  0.32135900  1
  O  O5  1  0.50000000  0.84293900  0.24240900  1
  O  O6  1  0.18671700  0.68959800  0.59059500  1
  O  O7  1  0.81328300  0.68959800  0.59059500  1
  O  O8  1  0.18748500  0.69249400  0.08269900  1
  O  O9  1  0.81251500  0.69249400  0.08269900  1
  O  O10  1  0.50000000  0.58223100  0.91573000  1
  O  O11  1  0.00000000  0.56422900  0.80037300  1
  O  O12  1  0.50000000  0.58165600  0.41678800  1
  O  O13  1  0.00000000  0.57371200  0.29203400  1
  O  O14  1  0.50000000  0.43881200  0.70419100  1
  O  O15  1  0.00000000  0.41745700  0.59060200  1
  O  O16  1  0.50000000  0.43892400  0.20488800  1
  O  O17  1  0.00000000  0.41857700  0.08779600  1
  O  O18  1  0.31330200  0.30980900  0.91193200  1
  O  O19  1  0.68669800  0.30980900  0.91193200  1
  O  O20  1  0.68454600  0.30846200  0.41306200  1
  O  O21  1  0.31545400  0.30846200  0.41306200  1
  O  O22  1  0.00000000  0.15734900  0.75682400  1
  O  O23  1  0.50000000  0.10750500  0.67953500  1
  O  O24  1  0.00000000  0.14434700  0.25338600  1
  O  O25  1  0.00000000  0.07737000  0.97454200  1
  O  O26  1  0.50000000  0.10771500  0.17964000  1
  O  O27  1  0.00000000  0.06765900  0.47399400  1
loop_
_geom_bond_atom_site_label_1
_geom_bond_atom_site_label_2
_geom_bond_distance
_geom_bond_site_symmetry_2
Li0 O27 1.915786 1_565
Li0 O1 2.020743 1_555
Li0 O6 2.176013 1_555
Li0 O7 2.176013 1_455
Li1 O25 1.936423 1_564
Li1 O4 2.016948 1_555
Li1 O9 2.224310 1_455
Li1 O8 2.224310 1_555
Li1 O24 2.486279 1_565
Li2 O8 2.071705 1_556
Li2 O1 2.093736 1_555
Li2 O10 2.132244 1_555
Li2 O11 2.167922 1_555
Li2 O3 2.372844 1_555
Li3 O9 2.071705 1_556
Li3 O1 2.093736 1_655
Li3 O10 2.132244 1_555
Li3 O11 2.167922 1_655
Li3 O3 2.372844 1_555
Li4 O4 2.029979 1_555
Li4 O6 2.142858 1_555
Li4 O12 2.143041 1_555
Li4 O13 2.166477 1_555
Li4 O5 2.374103 1_555
Li5 O4 2.029979 1_655
Li5 O7 2.142858 1_555
Li5 O12 2.143041 1_555
Li5 O13 2.166477 1_655
Li5 O5 2.374103 1_555
Li6 O23 2.086153 1_555
Li6 O15 2.126280 1_655
Li6 O20 2.135251 1_555
Li6 O14 2.191876 1_555
Li6 O22 2.362401 1_655
Li7 O23 2.086153 1_555
Li7 O15 2.126280 1_555
Li7 O21 2.135251 1_555
Li7 O14 2.191876 1_555
Li7 O22 2.362401 1_555
Li8 O26 2.084300 1_555
Li8 O19 2.100642 1_554
Li8 O17 2.139143 1_655
Li8 O16 2.219151 1_555
Li8 O24 2.409370 1_655
Li9 O26 2.084300 1_555
Li9 O18 2.100642 1_554
Li9 O17 2.139143 1_555
Li9 O16 2.219151 1_555
Li9 O24 2.409370 1_555
Li10 O2 1.939702 1_546
Li10 O23 2.020828 1_555
Li10 O18 2.190967 1_555
Li10 O19 2.190967 1_555
Li11 O0 1.944224 1_545
Li11 O26 2.028641 1_555
Li11 O20 2.171338 1_555
Li11 O21 2.171338 1_555
Mn0 O21 2.067847 1_555
Mn0 O20 2.067847 1_455
Mn0 O13 2.103947 1_555
Mn0 O15 2.164612 1_555
Mn0 O24 2.212976 1_555
Mn0 O27 2.372685 1_555
Ni0 O6 2.036500 1_555
Ni0 O7 2.036500 1_555
Ni0 O12 2.060474 1_555
Ni0 O14 2.083420 1_555
Ni0 O3 2.101428 1_555
Ni0 O0 2.223486 1_555
Ni1 O9 2.037987 1_555
Ni1 O8 2.037987 1_555
Ni1 O10 2.055767 1_554
Ni1 O16 2.096599 1_555
Ni1 O5 2.102964 1_555
Ni1 O2 2.222673 1_555
Ni2 O19 2.038054 1_455
Ni2 O18 2.038054 1_555
Ni2 O17 2.087892 1_556
Ni2 O11 2.090170 1_555
Ni2 O22 2.113749 1_555
Ni2 O25 2.215532 1_555
C0 O0 1.295955 1_555
C0 O23 1.296236 1_565
C0 O3 1.301740 1_555
C1 O2 1.294810 1_555
C1 O26 1.296366 1_565
C1 O5 1.302824 1_555
C2 O1 1.293916 1_545
C2 O25 1.296454 1_555
C2 O22 1.301530 1_555
C3 O27 1.289777 1_555
C3 O4 1.298004 1_545
C3 O24 1.302666 1_555
O6 P0 1.555331 1_555
O7 P0 1.555331 1_655
O8 P1 1.550720 1_555
O9 P1 1.550720 1_655
O10 P2 1.540856 1_555
O11 P0 1.564130 1_555
O12 P3 1.542282 1_555
O13 P1 1.557541 1_555
O14 P2 1.561121 1_555
O15 P0 1.539820 1_555
O16 P3 1.562378 1_555
O17 P1 1.550149 1_555
O18 P2 1.556357 1_555
O19 P2 1.556357 1_555
O20 P3 1.549894 1_555
O21 P3 1.549894 1_555
