# generated using pymatgen
data_Li4Ti3Mn4(CoO9)2
_symmetry_space_group_name_H-M   'P 1'
_cell_length_a   2.90734400
_cell_length_b   8.91336000
_cell_length_c   25.07124400
_cell_angle_alpha   90.00000000
_cell_angle_beta   90.00000000
_cell_angle_gamma   90.00000000
_symmetry_Int_Tables_number   1
_chemical_formula_structural   Li4Ti3Mn4(CoO9)2
_chemical_formula_sum   'Li8 Ti6 Mn8 Co4 O36'
_cell_volume   649.70132443
_cell_formula_units_Z   2
loop_
 _symmetry_equiv_pos_site_id
 _symmetry_equiv_pos_as_xyz
  1  'x, y, z'
loop_
 _atom_site_type_symbol
 _atom_site_label
 _atom_site_symmetry_multiplicity
 _atom_site_fract_x
 _atom_site_fract_y
 _atom_site_fract_z
 _atom_site_occupancy
  Li  Li0  1  0.50000000  0.93799400  0.99051000  1
  Li  Li1  1  0.50000000  0.95072400  0.21272900  1
  Li  Li2  1  0.50000000  0.04927600  0.71272900  1
  Li  Li3  1  0.50000000  0.06200600  0.49051000  1
  Li  Li4  1  0.50000000  0.43134700  0.50070300  1
  Li  Li5  1  0.50000000  0.43614400  0.29872900  1
  Li  Li6  1  0.50000000  0.56385600  0.79872900  1
  Li  Li7  1  0.50000000  0.56865300  0.00070300  1
  Ti  Ti0  1  0.50000000  0.75547900  0.10361400  1
  Ti  Ti1  1  0.50000000  0.24452100  0.60361400  1
  Ti  Ti2  1  0.50000000  0.24318300  0.39160500  1
  Ti  Ti3  1  0.00000000  0.39049700  0.69590600  1
  Ti  Ti4  1  0.00000000  0.60950300  0.19590600  1
  Ti  Ti5  1  0.50000000  0.75681700  0.89160500  1
  Mn  Mn0  1  0.50000000  0.79004400  0.31476200  1
  Mn  Mn1  1  0.00000000  0.88373600  0.58509800  1
  Mn  Mn2  1  0.00000000  0.11626400  0.08509800  1
  Mn  Mn3  1  0.50000000  0.20995600  0.81476200  1
  Mn  Mn4  1  0.50000000  0.26613800  0.19088600  1
  Mn  Mn5  1  0.00000000  0.38539400  0.91500500  1
  Mn  Mn6  1  0.00000000  0.61460600  0.41500500  1
  Mn  Mn7  1  0.50000000  0.73386200  0.69088600  1
  Co  Co0  1  0.50000000  0.74718300  0.50052600  1
  Co  Co1  1  0.00000000  0.89459800  0.80615000  1
  Co  Co2  1  0.00000000  0.10540200  0.30615000  1
  Co  Co3  1  0.50000000  0.25281700  0.00052600  1
  O  O0  1  0.50000000  0.75511500  0.42450900  1
  O  O1  1  0.50000000  0.74326200  0.57727300  1
  O  O2  1  0.00000000  0.79803800  0.94027600  1
  O  O3  1  0.00000000  0.80651900  0.15944600  1
  O  O4  1  0.00000000  0.85696700  0.66181700  1
  O  O5  1  0.50000000  0.85545100  0.75937500  1
  O  O6  1  0.00000000  0.89146700  0.50769400  1
  O  O7  1  0.00000000  0.90304300  0.28096100  1
  O  O8  1  0.50000000  0.94203500  0.85573900  1
  O  O9  1  0.50000000  0.97271800  0.08452700  1
  O  O10  1  0.50000000  0.02728200  0.58452700  1
  O  O11  1  0.50000000  0.05796500  0.35573900  1
  O  O12  1  0.00000000  0.09695700  0.78096100  1
  O  O13  1  0.00000000  0.10853300  0.00769400  1
  O  O14  1  0.50000000  0.14454900  0.25937500  1
  O  O15  1  0.00000000  0.14303300  0.16181700  1
  O  O16  1  0.00000000  0.19348100  0.65944600  1
  O  O17  1  0.00000000  0.20196200  0.44027600  1
  O  O18  1  0.50000000  0.25673800  0.07727300  1
  O  O19  1  0.50000000  0.24488500  0.92450900  1
  O  O20  1  0.00000000  0.28985300  0.55701100  1
  O  O21  1  0.00000000  0.30629000  0.33870300  1
  O  O22  1  0.00000000  0.34191200  0.84002300  1
  O  O23  1  0.50000000  0.35450900  0.74347200  1
  O  O24  1  0.00000000  0.39730300  0.99251300  1
  O  O25  1  0.00000000  0.39615200  0.21468300  1
  O  O26  1  0.50000000  0.43042900  0.64247200  1
  O  O27  1  0.50000000  0.47129400  0.41341400  1
  O  O28  1  0.50000000  0.52870600  0.91341400  1
  O  O29  1  0.50000000  0.56957100  0.14247200  1
  O  O30  1  0.00000000  0.60384800  0.71468300  1
  O  O31  1  0.00000000  0.60269700  0.49251300  1
  O  O32  1  0.50000000  0.64549100  0.24347200  1
  O  O33  1  0.00000000  0.65808800  0.34002300  1
  O  O34  1  0.00000000  0.69371000  0.83870300  1
  O  O35  1  0.00000000  0.71014700  0.05701100  1
loop_
_geom_bond_atom_site_label_1
_geom_bond_atom_site_label_2
_geom_bond_distance
_geom_bond_site_symmetry_2
Li0 O13 2.146952 1_666
Li0 O13 2.146952 1_566
Li0 O2 2.292493 1_655
Li0 O2 2.292493 1_555
Li0 O9 2.377357 1_556
Li1 O14 2.086236 1_565
Li1 O7 2.284764 1_655
Li1 O7 2.284764 1_555
Li1 O3 2.355810 1_655
Li1 O3 2.355810 1_555
Li1 O15 2.584692 1_565
Li1 O15 2.584692 1_665
Li2 O5 2.086236 1_545
Li2 O12 2.284764 1_555
Li2 O12 2.284764 1_655
Li2 O16 2.355810 1_555
Li2 O16 2.355810 1_655
Li2 O4 2.584692 1_545
Li2 O4 2.584692 1_645
Li3 O6 2.146952 1_645
Li3 O6 2.146952 1_545
Li3 O17 2.292493 1_555
Li3 O17 2.292493 1_655
Li3 O10 2.377357 1_555
Li4 O31 2.118486 1_555
Li4 O31 2.118486 1_655
Li4 O27 2.217220 1_555
Li4 O20 2.386773 1_555
Li4 O20 2.386773 1_655
Li5 O21 2.111213 1_655
Li5 O21 2.111213 1_555
Li5 O32 2.324033 1_555
Li6 O34 2.111213 1_555
Li6 O34 2.111213 1_655
Li6 O23 2.324033 1_555
Li7 O24 2.118486 1_654
Li7 O24 2.118486 1_554
Li7 O28 2.217220 1_554
Li7 O35 2.386773 1_555
Li7 O35 2.386773 1_655
Mn0 O7 1.961061 1_555
Mn0 O7 1.961061 1_655
Mn0 O33 1.974245 1_555
Mn0 O33 1.974245 1_655
Mn0 O32 2.203328 1_555
Mn1 O1 1.928573 1_455
Mn1 O1 1.928573 1_555
Mn1 O10 1.936602 1_565
Mn1 O10 1.936602 1_465
Mn1 O4 1.938183 1_555
Mn1 O6 1.941838 1_555
Mn2 O18 1.928573 1_555
Mn2 O18 1.928573 1_455
Mn2 O9 1.936602 1_445
Mn2 O9 1.936602 1_545
Mn2 O15 1.938183 1_555
Mn2 O13 1.941838 1_555
Mn3 O12 1.961061 1_555
Mn3 O12 1.961061 1_655
Mn3 O22 1.974245 1_655
Mn3 O22 1.974245 1_555
Mn3 O23 2.203328 1_555
Mn4 O25 1.952454 1_555
Mn4 O25 1.952454 1_655
Mn4 O15 1.961715 1_555
Mn4 O15 1.961715 1_655
Mn4 O14 2.030517 1_555
Mn5 O22 1.919428 1_555
Mn5 O19 1.933510 1_455
Mn5 O19 1.933510 1_555
Mn5 O28 1.935583 1_455
Mn5 O28 1.935583 1_555
Mn5 O24 1.946119 1_555
Mn6 O33 1.919428 1_555
Mn6 O0 1.933510 1_555
Mn6 O0 1.933510 1_455
Mn6 O27 1.935583 1_455
Mn6 O27 1.935583 1_555
Mn6 O31 1.946119 1_555
Mn7 O30 1.952454 1_555
Mn7 O30 1.952454 1_655
Mn7 O4 1.961715 1_555
Mn7 O4 1.961715 1_655
Mn7 O5 2.030517 1_555
Co0 O0 1.907152 1_555
Co0 O1 1.924460 1_555
Co0 O6 1.949204 1_555
Co0 O6 1.949204 1_655
Co0 O31 1.952458 1_655
Co0 O31 1.952458 1_555
Co1 O5 1.900042 1_555
Co1 O5 1.900042 1_455
Co1 O12 1.911059 1_565
Co1 O8 1.958987 1_455
Co1 O8 1.958987 1_555
Co1 O34 1.967814 1_555
Co2 O14 1.900042 1_455
Co2 O14 1.900042 1_555
Co2 O7 1.911059 1_545
Co2 O11 1.958987 1_555
Co2 O11 1.958987 1_455
Co2 O21 1.967814 1_555
Co3 O19 1.907152 1_554
Co3 O18 1.924460 1_555
Co3 O13 1.949204 1_655
Co3 O13 1.949204 1_555
Co3 O24 1.952458 1_554
Co3 O24 1.952458 1_654
O2 Ti5 1.933171 1_555
O2 Ti5 1.933171 1_455
O3 Ti4 1.979740 1_555
O3 Ti0 2.068697 1_455
O3 Ti0 2.068697 1_555
O8 Ti5 1.879917 1_555
O9 Ti0 1.994584 1_555
O10 Ti1 1.994584 1_555
O11 Ti2 1.879917 1_555
O16 Ti3 1.979740 1_555
O16 Ti1 2.068697 1_455
O16 Ti1 2.068697 1_555
O17 Ti2 1.933171 1_555
O17 Ti2 1.933171 1_455
O20 Ti1 1.908291 1_455
O20 Ti1 1.908291 1_555
O21 Ti2 2.046628 1_455
O21 Ti2 2.046628 1_555
O23 Ti3 1.907408 1_655
O23 Ti3 1.907408 1_555
O25 Ti4 1.959077 1_555
O26 Ti1 1.922229 1_555
O26 Ti3 2.008613 1_555
O26 Ti3 2.008613 1_655
O27 Ti2 2.105472 1_555
O28 Ti5 2.105472 1_555
O29 Ti0 1.922229 1_555
O29 Ti4 2.008613 1_655
O29 Ti4 2.008613 1_555
O30 Ti3 1.959077 1_555
O32 Ti4 1.907408 1_655
O32 Ti4 1.907408 1_555
O34 Ti5 2.046628 1_555
O34 Ti5 2.046628 1_455
O35 Ti0 1.908291 1_555
O35 Ti0 1.908291 1_455
