# generated using pymatgen
data_Ti2Mn3Cr3O16
_symmetry_space_group_name_H-M   'P 1'
_cell_length_a   5.82359732
_cell_length_b   5.82359732
_cell_length_c   9.02069493
_cell_angle_alpha   89.94808890
_cell_angle_beta   89.94808890
_cell_angle_gamma   59.84658547
_symmetry_Int_Tables_number   1
_chemical_formula_structural   Ti2Mn3Cr3O16
_chemical_formula_sum   'Ti2 Mn3 Cr3 O16'
_cell_volume   264.53284858
_cell_formula_units_Z   1
loop_
 _symmetry_equiv_pos_site_id
 _symmetry_equiv_pos_as_xyz
  1  'x, y, z'
loop_
 _atom_site_type_symbol
 _atom_site_label
 _atom_site_symmetry_multiplicity
 _atom_site_fract_x
 _atom_site_fract_y
 _atom_site_fract_z
 _atom_site_occupancy
  Ti  Ti0  1  0.32817400  0.32817400  0.49503500  1
  Ti  Ti1  1  0.66575200  0.66575200  0.99389500  1
  Mn  Mn0  1  0.16844100  0.16844100  0.21206000  1
  Mn  Mn1  1  0.33743200  0.82817200  0.71277900  1
  Mn  Mn2  1  0.82817200  0.33743200  0.71277900  1
  Cr  Cr0  1  0.16974500  0.66325300  0.20875900  1
  Cr  Cr1  1  0.66325300  0.16974500  0.20875900  1
  Cr  Cr2  1  0.83183600  0.83183600  0.71038700  1
  O  O0  1  0.16234300  0.66227000  0.60265200  1
  O  O1  1  0.47521400  0.47521400  0.33424800  1
  O  O2  1  0.32950700  0.32950700  0.10139600  1
  O  O3  1  0.00133600  0.00133600  0.31392300  1
  O  O4  1  0.00158600  0.00158600  0.81622500  1
  O  O5  1  0.66227000  0.16234300  0.60265200  1
  O  O6  1  0.04452900  0.47475400  0.33444700  1
  O  O7  1  0.47475400  0.04452900  0.33444700  1
  O  O8  1  0.82962900  0.82962900  0.10350600  1
  O  O9  1  0.16598300  0.16598300  0.60020000  1
  O  O10  1  0.52153400  0.95298900  0.83382200  1
  O  O11  1  0.95298900  0.52153400  0.83382200  1
  O  O12  1  0.66112300  0.66112300  0.60193900  1
  O  O13  1  0.33424900  0.82590200  0.10152200  1
  O  O14  1  0.51937100  0.51937100  0.83556100  1
  O  O15  1  0.82590200  0.33424900  0.10152200  1
loop_
_geom_bond_atom_site_label_1
_geom_bond_atom_site_label_2
_geom_bond_distance
_geom_bond_site_symmetry_2
Mn0 O7 1.905410 1_555
Mn0 O6 1.905410 1_555
Mn0 O2 1.907002 1_555
Mn0 O3 1.920040 1_555
Mn0 O13 1.993153 1_545
Mn0 O15 1.993153 1_455
Mn1 O12 1.911942 1_555
Mn1 O10 1.912212 1_555
Mn1 O14 1.915108 1_555
Mn1 O4 1.931322 1_565
Mn1 O9 1.980729 1_565
Mn1 O0 1.988285 1_555
Mn2 O12 1.911942 1_555
Mn2 O11 1.912212 1_555
Mn2 O14 1.915108 1_555
Mn2 O4 1.931322 1_655
Mn2 O9 1.980729 1_655
Mn2 O5 1.988285 1_555
Cr0 O13 1.912858 1_555
Cr0 O1 1.920809 1_555
Cr0 O2 1.940690 1_555
Cr0 O3 1.949361 1_565
Cr0 O6 1.955174 1_555
Cr0 O8 1.958864 1_455
Cr1 O15 1.912858 1_555
Cr1 O1 1.920809 1_555
Cr1 O2 1.940690 1_555
Cr1 O3 1.949361 1_655
Cr1 O7 1.955174 1_555
Cr1 O8 1.958864 1_545
Cr2 O5 1.926946 1_565
Cr2 O0 1.926946 1_655
Cr2 O11 1.928736 1_555
Cr2 O10 1.928736 1_555
Cr2 O4 1.962445 1_665
Cr2 O12 1.982477 1_555
O0 Ti0 1.942838 1_555
O1 Ti0 2.074210 1_555
O5 Ti0 1.942838 1_555
O6 Ti0 2.035002 1_555
O7 Ti0 2.035002 1_555
O8 Ti1 1.928127 1_554
O9 Ti0 1.891371 1_555
O10 Ti1 2.043269 1_555
O11 Ti1 2.043269 1_555
O13 Ti1 1.931008 1_554
O14 Ti1 2.056175 1_555
O15 Ti1 1.931008 1_554
