# generated using pymatgen
data_CrP2H14(NO3)3
_symmetry_space_group_name_H-M   'P 1'
_cell_length_a   10.49844400
_cell_length_b   8.79770800
_cell_length_c   12.15342154
_cell_angle_alpha   81.92439946
_cell_angle_beta   90.00000000
_cell_angle_gamma   90.00000000
_symmetry_Int_Tables_number   1
_chemical_formula_structural   CrP2H14(NO3)3
_chemical_formula_sum   'Cr4 P8 H56 N12 O36'
_cell_volume   1111.38593214
_cell_formula_units_Z   4
loop_
 _symmetry_equiv_pos_site_id
 _symmetry_equiv_pos_as_xyz
  1  'x, y, z'
loop_
 _atom_site_type_symbol
 _atom_site_label
 _atom_site_symmetry_multiplicity
 _atom_site_fract_x
 _atom_site_fract_y
 _atom_site_fract_z
 _atom_site_occupancy
  Cr  Cr0  1  0.38099200  0.88303400  0.34684300  1
  Cr  Cr1  1  0.88099200  0.11696600  0.15315700  1
  Cr  Cr2  1  0.61900800  0.11696600  0.65315700  1
  Cr  Cr3  1  0.11900800  0.88303400  0.84684300  1
  P  P0  1  0.65015100  0.70614800  0.41802900  1
  P  P1  1  0.15015100  0.29385200  0.08197100  1
  P  P2  1  0.34984900  0.29385200  0.58197100  1
  P  P3  1  0.84984900  0.70614800  0.91802900  1
  P  P4  1  0.48748800  0.80071100  0.60088900  1
  P  P5  1  0.98748800  0.19928900  0.89911100  1
  P  P6  1  0.51251200  0.19928900  0.39911100  1
  P  P7  1  0.01251200  0.80071100  0.10088900  1
  H  H0  1  0.39592100  0.56349600  0.62521200  1
  H  H1  1  0.89592100  0.43650400  0.87478800  1
  H  H2  1  0.60407900  0.43650400  0.37478800  1
  H  H3  1  0.10407900  0.56349600  0.12521200  1
  H  H4  1  0.22311500  0.09289500  0.39581700  1
  H  H5  1  0.72311500  0.90710500  0.10418300  1
  H  H6  1  0.77688500  0.90710500  0.60418300  1
  H  H7  1  0.27688500  0.09289500  0.89581700  1
  H  H8  1  0.13981100  0.93124900  0.39726600  1
  H  H9  1  0.63981100  0.06875100  0.10273400  1
  H  H10  1  0.86018900  0.06875100  0.60273400  1
  H  H11  1  0.36018900  0.93124900  0.89726600  1
  H  H12  1  0.17284300  0.04237100  0.27782400  1
  H  H13  1  0.67284300  0.95762900  0.22217600  1
  H  H14  1  0.82715700  0.95762900  0.72217600  1
  H  H15  1  0.32715700  0.04237100  0.77782400  1
  H  H16  1  0.33980500  0.02297200  0.14789400  1
  H  H17  1  0.83980500  0.97702800  0.35210600  1
  H  H18  1  0.66019500  0.97702800  0.85210600  1
  H  H19  1  0.16019500  0.02297200  0.64789400  1
  H  H20  1  0.28074900  0.84881000  0.15148700  1
  H  H21  1  0.78074900  0.15119000  0.34851300  1
  H  H22  1  0.71925100  0.15119000  0.84851300  1
  H  H23  1  0.21925100  0.84881000  0.65148700  1
  H  H24  1  0.43373900  0.87138500  0.13377300  1
  H  H25  1  0.93373900  0.12861500  0.36622700  1
  H  H26  1  0.56626100  0.12861500  0.86622700  1
  H  H27  1  0.06626100  0.87138500  0.63377300  1
  H  H28  1  0.31757900  0.61855300  0.29447300  1
  H  H29  1  0.81757900  0.38144700  0.20552700  1
  H  H30  1  0.68242100  0.38144700  0.70552700  1
  H  H31  1  0.18242100  0.61855300  0.79447300  1
  H  H32  1  0.29359700  0.61062200  0.43094100  1
  H  H33  1  0.79359700  0.38937800  0.06905900  1
  H  H34  1  0.70640300  0.38937800  0.56905900  1
  H  H35  1  0.20640300  0.61062200  0.93094100  1
  H  H36  1  0.18522900  0.69166500  0.34129800  1
  H  H37  1  0.68522900  0.30833500  0.15870200  1
  H  H38  1  0.81477100  0.30833500  0.65870200  1
  H  H39  1  0.31477100  0.69166500  0.84129800  1
  H  H40  1  0.03083500  0.46084800  0.70693700  1
  H  H41  1  0.53083500  0.53915200  0.79306300  1
  H  H42  1  0.96916500  0.53915200  0.29306300  1
  H  H43  1  0.46916500  0.46084800  0.20693700  1
  H  H44  1  0.15669100  0.46247900  0.63799400  1
  H  H45  1  0.65669100  0.53752100  0.86200600  1
  H  H46  1  0.84330900  0.53752100  0.36200600  1
  H  H47  1  0.34330900  0.46247900  0.13799400  1
  H  H48  1  0.92950800  0.75626000  0.45841800  1
  H  H49  1  0.42950800  0.24374000  0.04158200  1
  H  H50  1  0.07049200  0.24374000  0.54158200  1
  H  H51  1  0.57049200  0.75626000  0.95841800  1
  H  H52  1  0.03083800  0.66827000  0.54177800  1
  H  H53  1  0.53083800  0.33173000  0.95822200  1
  H  H54  1  0.96916200  0.33173000  0.45822200  1
  H  H55  1  0.46916200  0.66827000  0.04177800  1
  N  N0  1  0.20783200  0.00057400  0.35483900  1
  N  N1  1  0.70783200  0.99942600  0.14516100  1
  N  N2  1  0.79216800  0.99942600  0.64516100  1
  N  N3  1  0.29216800  0.00057400  0.85483900  1
  N  N4  1  0.35724400  0.90815100  0.17564100  1
  N  N5  1  0.85724400  0.09184900  0.32435900  1
  N  N6  1  0.64275600  0.09184900  0.82435900  1
  N  N7  1  0.14275600  0.90815100  0.67564100  1
  N  N8  1  0.28098400  0.67716600  0.35487600  1
  N  N9  1  0.78098400  0.32283400  0.14512400  1
  N  N10  1  0.71901600  0.32283400  0.64512400  1
  N  N11  1  0.21901600  0.67716600  0.85487600  1
  O  O0  1  0.54278300  0.76696600  0.33848200  1
  O  O1  1  0.04278300  0.23303400  0.16151800  1
  O  O2  1  0.45721700  0.23303400  0.66151800  1
  O  O3  1  0.95721700  0.76696600  0.83848200  1
  O  O4  1  0.77875200  0.77783000  0.38904500  1
  O  O5  1  0.27875200  0.22217000  0.11095500  1
  O  O6  1  0.22124800  0.22217000  0.61095500  1
  O  O7  1  0.72124800  0.77783000  0.88904500  1
  O  O8  1  0.65659100  0.52936300  0.43500400  1
  O  O9  1  0.15659100  0.47063700  0.06499600  1
  O  O10  1  0.34340900  0.47063700  0.56499600  1
  O  O11  1  0.84340900  0.52936300  0.93500400  1
  O  O12  1  0.61605200  0.75264600  0.54207100  1
  O  O13  1  0.11605200  0.24735400  0.95792900  1
  O  O14  1  0.38394800  0.24735400  0.45792900  1
  O  O15  1  0.88394800  0.75264600  0.04207100  1
  O  O16  1  0.38925300  0.86057800  0.51275100  1
  O  O17  1  0.88925300  0.13942200  0.98724900  1
  O  O18  1  0.61074700  0.13942200  0.48724900  1
  O  O19  1  0.11074700  0.86057800  0.01275100  1
  O  O20  1  0.52426500  0.91502700  0.67751800  1
  O  O21  1  0.02426500  0.08497300  0.82248200  1
  O  O22  1  0.47573500  0.08497300  0.32248200  1
  O  O23  1  0.97573500  0.91502700  0.17751800  1
  O  O24  1  0.43572000  0.65372400  0.67452500  1
  O  O25  1  0.93572000  0.34627600  0.82547500  1
  O  O26  1  0.56428000  0.34627600  0.32547500  1
  O  O27  1  0.06428000  0.65372400  0.17452500  1
  O  O28  1  0.09085000  0.52979700  0.66166200  1
  O  O29  1  0.59085000  0.47020300  0.83833800  1
  O  O30  1  0.90915000  0.47020300  0.33833800  1
  O  O31  1  0.40915000  0.52979700  0.16166200  1
  O  O32  1  0.01572400  0.76418600  0.49048600  1
  O  O33  1  0.51572400  0.23581400  0.00951400  1
  O  O34  1  0.98427600  0.23581400  0.50951400  1
  O  O35  1  0.48427600  0.76418600  0.99048600  1
loop_
_geom_bond_atom_site_label_1
_geom_bond_atom_site_label_2
_geom_bond_distance
_geom_bond_site_symmetry_2
Cr0 O0 1.991802 1_555
Cr0 O16 2.000075 1_555
Cr0 O22 2.021267 1_565
Cr0 N4 2.076314 1_555
Cr0 N8 2.083873 1_555
Cr0 N0 2.100429 1_565
Cr1 O1 1.991802 1_655
Cr1 O17 2.000075 1_554
Cr1 O23 2.021267 1_545
Cr1 N5 2.076314 1_555
Cr1 N9 2.083873 1_555
Cr1 N1 2.100429 1_545
Cr2 O2 1.991802 1_555
Cr2 O18 2.000075 1_555
Cr2 O20 2.021267 1_545
Cr2 N6 2.076314 1_555
Cr2 N10 2.083873 1_555
Cr2 N2 2.100429 1_545
Cr3 O3 1.991802 1_455
Cr3 O19 2.000075 1_556
Cr3 O21 2.021267 1_565
Cr3 N7 2.076314 1_555
Cr3 N11 2.083873 1_555
Cr3 N3 2.100429 1_565
H0 O24 1.139100 1_555
H0 O10 1.294171 1_555
H1 O25 1.139100 1_555
H1 O11 1.294171 1_555
H2 O26 1.139100 1_555
H2 O8 1.294171 1_555
H3 O27 1.139100 1_555
H3 O9 1.294171 1_555
H4 N0 1.023283 1_555
H5 N1 1.023283 1_555
H6 N2 1.023283 1_555
H7 N3 1.023283 1_555
H8 N0 1.029300 1_565
H9 N1 1.029300 1_545
H10 N2 1.029300 1_545
H11 N3 1.029300 1_565
H12 N0 1.024468 1_555
H13 N1 1.024468 1_555
H14 N2 1.024468 1_555
H15 N3 1.024468 1_555
H16 N4 1.035353 1_545
H17 N5 1.035353 1_565
H18 N6 1.035353 1_565
H19 N7 1.035353 1_545
H20 N4 1.023093 1_555
H21 N5 1.023093 1_555
H22 N6 1.023093 1_555
H23 N7 1.023093 1_555
H24 N4 1.026995 1_555
H25 N5 1.026995 1_555
H26 N6 1.026995 1_555
H27 N7 1.026995 1_555
H28 N8 1.028966 1_555
H29 N9 1.028966 1_555
H30 N10 1.028966 1_555
H31 N11 1.028966 1_555
H32 N8 1.030931 1_555
H33 N9 1.030931 1_555
H34 N10 1.030931 1_555
H35 N11 1.030931 1_555
H36 N8 1.023803 1_555
H37 N9 1.023803 1_555
H38 N10 1.023803 1_555
H39 N11 1.023803 1_555
H40 O28 0.986879 1_555
H41 O29 0.986879 1_555
H42 O30 0.986879 1_555
H43 O31 0.986879 1_555
H44 O28 0.979364 1_555
H45 O29 0.979364 1_555
H46 O30 0.979364 1_555
H47 O31 0.979364 1_555
H48 O32 0.991796 1_655
H49 O33 0.991796 1_555
H50 O34 0.991796 1_455
H51 O35 0.991796 1_555
H52 O32 0.988962 1_555
H53 O33 0.988962 1_556
H54 O34 0.988962 1_555
H55 O35 0.988962 1_554
O0 P0 1.531721 1_555
O1 P1 1.531721 1_555
O2 P2 1.531721 1_555
O3 P3 1.531721 1_555
O4 P0 1.510686 1_555
O5 P1 1.510686 1_555
O6 P2 1.510686 1_555
O7 P3 1.510686 1_555
O8 P0 1.541411 1_555
O9 P1 1.541411 1_555
O10 P2 1.541411 1_555
O11 P3 1.541411 1_555
O12 P4 1.611361 1_555
O12 P0 1.655725 1_555
O13 P5 1.611361 1_455
O13 P1 1.655725 1_556
O14 P6 1.611361 1_555
O14 P2 1.655725 1_555
O15 P7 1.611361 1_655
O15 P3 1.655725 1_554
O16 P4 1.526409 1_555
O17 P5 1.526409 1_555
O18 P6 1.526409 1_555
O19 P7 1.526409 1_555
O20 P4 1.513614 1_555
O21 P5 1.513614 1_455
O22 P6 1.513614 1_555
O23 P7 1.513614 1_655
O24 P4 1.563125 1_555
O25 P5 1.563125 1_555
O26 P6 1.563125 1_555
O27 P7 1.563125 1_555
