# generated using pymatgen
data_LiFeF3
_symmetry_space_group_name_H-M   'P 1'
_cell_length_a   8.81151900
_cell_length_b   8.81151900
_cell_length_c   6.20339200
_cell_angle_alpha   90.00000000
_cell_angle_beta   90.00000000
_cell_angle_gamma   90.00000000
_symmetry_Int_Tables_number   1
_chemical_formula_structural   LiFeF3
_chemical_formula_sum   'Li8 Fe8 F24'
_cell_volume   481.64914055
_cell_formula_units_Z   8
loop_
 _symmetry_equiv_pos_site_id
 _symmetry_equiv_pos_as_xyz
  1  'x, y, z'
loop_
 _atom_site_type_symbol
 _atom_site_label
 _atom_site_symmetry_multiplicity
 _atom_site_fract_x
 _atom_site_fract_y
 _atom_site_fract_z
 _atom_site_occupancy
  Li  Li0  1  0.00000000  0.00000000  0.00000000  1
  Li  Li1  1  0.00000000  0.00000000  0.50000000  1
  Li  Li2  1  0.25000000  0.25000000  0.75000000  1
  Li  Li3  1  0.75000000  0.25000000  0.25000000  1
  Li  Li4  1  0.50000000  0.50000000  0.00000000  1
  Li  Li5  1  0.50000000  0.50000000  0.50000000  1
  Li  Li6  1  0.25000000  0.75000000  0.25000000  1
  Li  Li7  1  0.75000000  0.75000000  0.75000000  1
  Fe  Fe0  1  0.33566800  0.90907400  0.71621800  1
  Fe  Fe1  1  0.40907400  0.16433200  0.21621800  1
  Fe  Fe2  1  0.09092600  0.33566800  0.28378200  1
  Fe  Fe3  1  0.16433200  0.59092600  0.78378200  1
  Fe  Fe4  1  0.83566800  0.40907400  0.78378200  1
  Fe  Fe5  1  0.90907400  0.66433200  0.28378200  1
  Fe  Fe6  1  0.59092600  0.83566800  0.21621800  1
  Fe  Fe7  1  0.66433200  0.09092600  0.71621800  1
  F  F0  1  0.16255200  0.04942400  0.67125700  1
  F  F1  1  0.63296100  0.05401700  0.29674000  1
  F  F2  1  0.19521500  0.18552800  0.06763900  1
  F  F3  1  0.44598300  0.13296100  0.79674000  1
  F  F4  1  0.95057600  0.16255200  0.32874300  1
  F  F5  1  0.81447200  0.19521500  0.93236100  1
  F  F6  1  0.68552800  0.30478500  0.56763900  1
  F  F7  1  0.54942400  0.33744800  0.17125700  1
  F  F8  1  0.05401700  0.36703900  0.70326000  1
  F  F9  1  0.30478500  0.31447200  0.43236100  1
  F  F10  1  0.86703900  0.44598300  0.20326000  1
  F  F11  1  0.33744800  0.45057600  0.82874300  1
  F  F12  1  0.66255200  0.54942400  0.82874300  1
  F  F13  1  0.13296100  0.55401700  0.20326000  1
  F  F14  1  0.69521500  0.68552800  0.43236100  1
  F  F15  1  0.94598300  0.63296100  0.70326000  1
  F  F16  1  0.45057600  0.66255200  0.17125700  1
  F  F17  1  0.31447200  0.69521500  0.56763900  1
  F  F18  1  0.18552800  0.80478500  0.93236100  1
  F  F19  1  0.04942400  0.83744800  0.32874300  1
  F  F20  1  0.55401700  0.86703900  0.79674000  1
  F  F21  1  0.80478500  0.81447200  0.06763900  1
  F  F22  1  0.36703900  0.94598300  0.29674000  1
  F  F23  1  0.83744800  0.95057600  0.67125700  1
loop_
_geom_bond_atom_site_label_1
_geom_bond_atom_site_label_2
_geom_bond_distance
_geom_bond_site_symmetry_2
F0 Li1 1.835720 1_555
F0 Fe0 1.983457 1_545
F0 Li2 1.988965 1_555
F0 Li0 2.529835 1_556
F1 Fe6 2.021985 1_545
F1 Li3 2.032201 1_555
F1 Fe1 2.255273 1_555
F1 Fe7 2.636960 1_555
F2 Fe2 2.095825 1_555
F2 Fe1 2.106051 1_555
F2 Li2 2.106751 1_554
F2 Li0 2.409867 1_555
F3 Fe7 2.021985 1_555
F3 Li2 2.032201 1_555
F3 Fe0 2.255273 1_545
F3 Fe1 2.636960 1_556
F4 Li1 1.835720 1_655
F4 Fe2 1.983457 1_655
F4 Li3 1.988965 1_555
F4 Li0 2.529835 1_655
F5 Fe7 2.095825 1_555
F5 Fe4 2.106051 1_555
F5 Li3 2.106751 1_556
F5 Li0 2.409867 1_656
F6 Fe4 2.095825 1_555
F6 Fe7 2.106051 1_555
F6 Li3 2.106751 1_555
F6 Li5 2.409867 1_555
F7 Li4 1.835720 1_555
F7 Fe1 1.983457 1_555
F7 Li3 1.988965 1_555
F7 Li5 2.529835 1_555
F8 Fe4 2.021985 1_455
F8 Li2 2.032201 1_555
F8 Fe3 2.255273 1_555
F8 Fe2 2.636960 1_555
F9 Fe1 2.095825 1_555
F9 Fe2 2.106051 1_555
F9 Li2 2.106751 1_555
F9 Li5 2.409867 1_555
F10 Fe5 2.021985 1_555
F10 Li3 2.032201 1_555
F10 Fe2 2.255273 1_655
F10 Fe4 2.636960 1_554
F11 Li4 1.835720 1_556
F11 Fe3 1.983457 1_555
F11 Li2 1.988965 1_555
F11 Li5 2.529835 1_555
F12 Li4 1.835720 1_556
F12 Fe4 1.983457 1_555
F12 Li7 1.988965 1_555
F12 Li5 2.529835 1_555
F13 Fe2 2.021985 1_555
F13 Li6 2.032201 1_555
F13 Fe5 2.255273 1_455
F13 Fe3 2.636960 1_554
F14 Fe6 2.095825 1_555
F14 Fe5 2.106051 1_555
F14 Li7 2.106751 1_555
F14 Li5 2.409867 1_555
F15 Fe3 2.021985 1_655
F15 Li7 2.032201 1_555
F15 Fe4 2.255273 1_555
F15 Fe5 2.636960 1_555
F16 Li4 1.835720 1_555
F16 Fe6 1.983457 1_555
F16 Li6 1.988965 1_555
F16 Li5 2.529835 1_555
F17 Fe3 2.095825 1_555
F17 Fe0 2.106051 1_555
F17 Li6 2.106751 1_555
F17 Li5 2.409867 1_555
F18 Fe0 2.095825 1_555
F18 Fe3 2.106051 1_555
F18 Li6 2.106751 1_556
F18 Li0 2.409867 1_566
F19 Li1 1.835720 1_565
F19 Fe5 1.983457 1_455
F19 Li6 1.988965 1_555
F19 Li0 2.529835 1_565
F20 Fe0 2.021985 1_555
F20 Li7 2.032201 1_555
F20 Fe7 2.255273 1_565
F20 Fe6 2.636960 1_556
F21 Fe5 2.095825 1_555
F21 Fe6 2.106051 1_555
F21 Li7 2.106751 1_554
F21 Li0 2.409867 1_665
F22 Fe1 2.021985 1_565
F22 Li6 2.032201 1_555
F22 Fe6 2.255273 1_555
F22 Fe0 2.636960 1_555
F23 Li1 1.835720 1_665
F23 Fe7 1.983457 1_565
F23 Li7 1.988965 1_555
F23 Li0 2.529835 1_666
