# generated using pymatgen
data_CsAlH24(SO10)2
_symmetry_space_group_name_H-M   'P 1'
_cell_length_a   13.87885595
_cell_length_b   13.87885595
_cell_length_c   13.87885595
_cell_angle_alpha   90.00000000
_cell_angle_beta   90.00000000
_cell_angle_gamma   90.00000000
_symmetry_Int_Tables_number   1
_chemical_formula_structural   CsAlH24(SO10)2
_chemical_formula_sum   'Cs4 Al4 H96 S8 O80'
_cell_volume   2673.38190770
_cell_formula_units_Z   4
loop_
 _symmetry_equiv_pos_site_id
 _symmetry_equiv_pos_as_xyz
  1  'x, y, z'
loop_
 _atom_site_type_symbol
 _atom_site_label
 _atom_site_symmetry_multiplicity
 _atom_site_fract_x
 _atom_site_fract_y
 _atom_site_fract_z
 _atom_site_occupancy
  Cs  Cs0  1  0.00000000  0.00000000  0.50000000  1
  Cs  Cs1  1  0.00000000  0.50000000  0.00000000  1
  Cs  Cs2  1  0.50000000  0.00000000  0.00000000  1
  Cs  Cs3  1  0.50000000  0.50000000  0.50000000  1
  Al  Al0  1  0.50000000  0.50000000  0.00000000  1
  Al  Al1  1  0.50000000  0.00000000  0.50000000  1
  Al  Al2  1  0.00000000  0.50000000  0.50000000  1
  Al  Al3  1  0.00000000  0.00000000  0.00000000  1
  H  H0  1  0.33202696  0.11795531  0.23552485  1
  H  H1  1  0.66797304  0.61795531  0.26447515  1
  H  H2  1  0.16797304  0.88204469  0.73552485  1
  H  H3  1  0.83202696  0.38204469  0.76447515  1
  H  H4  1  0.23552485  0.33202696  0.11795531  1
  H  H5  1  0.26447515  0.66797304  0.61795531  1
  H  H6  1  0.73552485  0.16797304  0.88204469  1
  H  H7  1  0.76447515  0.83202696  0.38204469  1
  H  H8  1  0.11795531  0.23552485  0.33202696  1
  H  H9  1  0.61795531  0.26447515  0.66797304  1
  H  H10  1  0.88204469  0.73552485  0.16797304  1
  H  H11  1  0.38204469  0.76447515  0.83202696  1
  H  H12  1  0.66797304  0.88204469  0.76447515  1
  H  H13  1  0.33202696  0.38204469  0.73552485  1
  H  H14  1  0.83202696  0.11795531  0.26447515  1
  H  H15  1  0.16797304  0.61795531  0.23552485  1
  H  H16  1  0.76447515  0.66797304  0.88204469  1
  H  H17  1  0.73552485  0.33202696  0.38204469  1
  H  H18  1  0.26447515  0.83202696  0.11795531  1
  H  H19  1  0.23552485  0.16797304  0.61795531  1
  H  H20  1  0.88204469  0.76447515  0.66797304  1
  H  H21  1  0.38204469  0.73552485  0.33202696  1
  H  H22  1  0.11795531  0.26447515  0.83202696  1
  H  H23  1  0.61795531  0.23552485  0.16797304  1
  H  H24  1  0.50916232  0.24147888  0.19448718  1
  H  H25  1  0.49083768  0.74147888  0.30551282  1
  H  H26  1  0.99083768  0.75852112  0.69448718  1
  H  H27  1  0.00916232  0.25852112  0.80551282  1
  H  H28  1  0.19448718  0.50916232  0.24147888  1
  H  H29  1  0.30551282  0.49083768  0.74147888  1
  H  H30  1  0.69448718  0.99083768  0.75852112  1
  H  H31  1  0.80551282  0.00916232  0.25852112  1
  H  H32  1  0.24147888  0.19448718  0.50916232  1
  H  H33  1  0.74147888  0.30551282  0.49083768  1
  H  H34  1  0.75852112  0.69448718  0.99083768  1
  H  H35  1  0.25852112  0.80551282  0.00916232  1
  H  H36  1  0.49083768  0.75852112  0.80551282  1
  H  H37  1  0.50916232  0.25852112  0.69448718  1
  H  H38  1  0.00916232  0.24147888  0.30551282  1
  H  H39  1  0.99083768  0.74147888  0.19448718  1
  H  H40  1  0.80551282  0.49083768  0.75852112  1
  H  H41  1  0.69448718  0.50916232  0.25852112  1
  H  H42  1  0.30551282  0.00916232  0.24147888  1
  H  H43  1  0.19448718  0.99083768  0.74147888  1
  H  H44  1  0.75852112  0.80551282  0.49083768  1
  H  H45  1  0.25852112  0.69448718  0.50916232  1
  H  H46  1  0.24147888  0.30551282  0.00916232  1
  H  H47  1  0.74147888  0.19448718  0.99083768  1
  H  H48  1  0.15911328  0.18536767  0.06668398  1
  H  H49  1  0.84088672  0.68536767  0.43331602  1
  H  H50  1  0.34088672  0.81463233  0.56668398  1
  H  H51  1  0.65911328  0.31463233  0.93331602  1
  H  H52  1  0.06668398  0.15911328  0.18536767  1
  H  H53  1  0.43331602  0.84088672  0.68536767  1
  H  H54  1  0.56668398  0.34088672  0.81463233  1
  H  H55  1  0.93331602  0.65911328  0.31463233  1
  H  H56  1  0.18536767  0.06668398  0.15911328  1
  H  H57  1  0.68536767  0.43331602  0.84088672  1
  H  H58  1  0.81463233  0.56668398  0.34088672  1
  H  H59  1  0.31463233  0.93331602  0.65911328  1
  H  H60  1  0.84088672  0.81463233  0.93331602  1
  H  H61  1  0.15911328  0.31463233  0.56668398  1
  H  H62  1  0.65911328  0.18536767  0.43331602  1
  H  H63  1  0.34088672  0.68536767  0.06668398  1
  H  H64  1  0.93331602  0.84088672  0.81463233  1
  H  H65  1  0.56668398  0.15911328  0.31463233  1
  H  H66  1  0.43331602  0.65911328  0.18536767  1
  H  H67  1  0.06668398  0.34088672  0.68536767  1
  H  H68  1  0.81463233  0.93331602  0.84088672  1
  H  H69  1  0.31463233  0.56668398  0.15911328  1
  H  H70  1  0.18536767  0.43331602  0.65911328  1
  H  H71  1  0.68536767  0.06668398  0.34088672  1
  H  H72  1  0.15278977  0.03756594  0.19068350  1
  H  H73  1  0.84721023  0.53756594  0.30931650  1
  H  H74  1  0.34721023  0.96243406  0.69068350  1
  H  H75  1  0.65278977  0.46243406  0.80931650  1
  H  H76  1  0.19068350  0.15278977  0.03756594  1
  H  H77  1  0.30931650  0.84721023  0.53756594  1
  H  H78  1  0.69068350  0.34721023  0.96243406  1
  H  H79  1  0.80931650  0.65278977  0.46243406  1
  H  H80  1  0.03756594  0.19068350  0.15278977  1
  H  H81  1  0.53756594  0.30931650  0.84721023  1
  H  H82  1  0.96243406  0.69068350  0.34721023  1
  H  H83  1  0.46243406  0.80931650  0.65278977  1
  H  H84  1  0.84721023  0.96243406  0.80931650  1
  H  H85  1  0.15278977  0.46243406  0.69068350  1
  H  H86  1  0.65278977  0.03756594  0.30931650  1
  H  H87  1  0.34721023  0.53756594  0.19068350  1
  H  H88  1  0.80931650  0.84721023  0.96243406  1
  H  H89  1  0.69068350  0.15278977  0.46243406  1
  H  H90  1  0.30931650  0.65278977  0.03756594  1
  H  H91  1  0.19068350  0.34721023  0.53756594  1
  H  H92  1  0.96243406  0.80931650  0.84721023  1
  H  H93  1  0.46243406  0.69068350  0.15278977  1
  H  H94  1  0.03756594  0.30931650  0.65278977  1
  H  H95  1  0.53756594  0.19068350  0.34721023  1
  S  S0  1  0.17669790  0.82330210  0.32330210  1
  S  S1  1  0.82330210  0.32330210  0.17669790  1
  S  S2  1  0.32330210  0.17669790  0.82330210  1
  S  S3  1  0.67669790  0.67669790  0.67669790  1
  S  S4  1  0.82330210  0.17669790  0.67669790  1
  S  S5  1  0.17669790  0.67669790  0.82330210  1
  S  S6  1  0.67669790  0.82330210  0.17669790  1
  S  S7  1  0.32330210  0.32330210  0.32330210  1
  O  O0  1  0.23799411  0.76200589  0.26200589  1
  O  O1  1  0.76200589  0.26200589  0.23799411  1
  O  O2  1  0.26200589  0.23799411  0.76200589  1
  O  O3  1  0.73799411  0.73799411  0.73799411  1
  O  O4  1  0.76200589  0.23799411  0.73799411  1
  O  O5  1  0.23799411  0.73799411  0.76200589  1
  O  O6  1  0.73799411  0.76200589  0.23799411  1
  O  O7  1  0.26200589  0.26200589  0.26200589  1
  O  O8  1  0.07261338  0.80378777  0.30709943  1
  O  O9  1  0.92738662  0.30378777  0.19290057  1
  O  O10  1  0.42738662  0.19621223  0.80709943  1
  O  O11  1  0.57261338  0.69621223  0.69290057  1
  O  O12  1  0.30709943  0.07261338  0.80378777  1
  O  O13  1  0.19290057  0.92738662  0.30378777  1
  O  O14  1  0.80709943  0.42738662  0.19621223  1
  O  O15  1  0.69290057  0.57261338  0.69621223  1
  O  O16  1  0.80378777  0.30709943  0.07261338  1
  O  O17  1  0.30378777  0.19290057  0.92738662  1
  O  O18  1  0.19621223  0.80709943  0.42738662  1
  O  O19  1  0.69621223  0.69290057  0.57261338  1
  O  O20  1  0.92738662  0.19621223  0.69290057  1
  O  O21  1  0.07261338  0.69621223  0.80709943  1
  O  O22  1  0.57261338  0.80378777  0.19290057  1
  O  O23  1  0.42738662  0.30378777  0.30709943  1
  O  O24  1  0.69290057  0.92738662  0.19621223  1
  O  O25  1  0.80709943  0.07261338  0.69621223  1
  O  O26  1  0.19290057  0.57261338  0.80378777  1
  O  O27  1  0.30709943  0.42738662  0.30378777  1
  O  O28  1  0.19621223  0.69290057  0.92738662  1
  O  O29  1  0.69621223  0.80709943  0.07261338  1
  O  O30  1  0.80378777  0.19290057  0.57261338  1
  O  O31  1  0.30378777  0.30709943  0.42738662  1
  O  O32  1  0.21887899  0.35579243  0.05351964  1
  O  O33  1  0.78112101  0.85579243  0.44648036  1
  O  O34  1  0.28112101  0.64420757  0.55351964  1
  O  O35  1  0.71887899  0.14420757  0.94648036  1
  O  O36  1  0.05351964  0.21887899  0.35579243  1
  O  O37  1  0.44648036  0.78112101  0.85579243  1
  O  O38  1  0.55351964  0.28112101  0.64420757  1
  O  O39  1  0.94648036  0.71887899  0.14420757  1
  O  O40  1  0.35579243  0.05351964  0.21887899  1
  O  O41  1  0.85579243  0.44648036  0.78112101  1
  O  O42  1  0.64420757  0.55351964  0.28112101  1
  O  O43  1  0.14420757  0.94648036  0.71887899  1
  O  O44  1  0.78112101  0.64420757  0.94648036  1
  O  O45  1  0.21887899  0.14420757  0.55351964  1
  O  O46  1  0.71887899  0.35579243  0.44648036  1
  O  O47  1  0.28112101  0.85579243  0.05351964  1
  O  O48  1  0.94648036  0.78112101  0.64420757  1
  O  O49  1  0.55351964  0.21887899  0.14420757  1
  O  O50  1  0.44648036  0.71887899  0.35579243  1
  O  O51  1  0.05351964  0.28112101  0.85579243  1
  O  O52  1  0.64420757  0.94648036  0.78112101  1
  O  O53  1  0.14420757  0.55351964  0.21887899  1
  O  O54  1  0.35579243  0.44648036  0.71887899  1
  O  O55  1  0.85579243  0.05351964  0.28112101  1
  O  O56  1  0.50264397  0.63393503  0.99105380  1
  O  O57  1  0.49735603  0.13393503  0.50894620  1
  O  O58  1  -0.00264397  0.36606497  0.49105380  1
  O  O59  1  0.00264397  0.86606497  0.00894620  1
  O  O60  1  0.99105380  0.50264397  0.63393503  1
  O  O61  1  0.50894620  0.49735603  0.13393503  1
  O  O62  1  0.49105380  -0.00264397  0.36606497  1
  O  O63  1  0.00894620  0.00264397  0.86606497  1
  O  O64  1  0.63393503  0.99105380  0.50264397  1
  O  O65  1  0.13393503  0.50894620  0.49735603  1
  O  O66  1  0.36606497  0.49105380  -0.00264397  1
  O  O67  1  0.86606497  0.00894620  0.00264397  1
  O  O68  1  0.49735603  0.36606497  0.00894620  1
  O  O69  1  0.50264397  0.86606497  0.49105380  1
  O  O70  1  0.00264397  0.63393503  0.50894620  1
  O  O71  1  -0.00264397  0.13393503  0.99105380  1
  O  O72  1  0.00894620  0.49735603  0.36606497  1
  O  O73  1  0.49105380  0.50264397  0.86606497  1
  O  O74  1  0.50894620  0.00264397  0.63393503  1
  O  O75  1  0.99105380  -0.00264397  0.13393503  1
  O  O76  1  0.36606497  0.00894620  0.49735603  1
  O  O77  1  0.86606497  0.49105380  0.50264397  1
  O  O78  1  0.63393503  0.50894620  0.00264397  1
  O  O79  1  0.13393503  0.99105380  -0.00264397  1
loop_
_geom_bond_atom_site_label_1
_geom_bond_atom_site_label_2
_geom_bond_distance
_geom_bond_site_symmetry_2
Cs0 O55 3.712904 1_455
Cs0 O33 3.712904 1_445
Cs0 O45 3.712904 1_555
Cs0 O36 3.712904 1_555
Cs0 O43 3.712904 1_545
Cs0 O48 3.712904 1_445
Cs1 O51 3.712904 1_554
Cs1 O41 3.712904 1_454
Cs1 O32 3.712904 1_555
Cs1 O53 3.712904 1_555
Cs1 O39 3.712904 1_455
Cs1 O44 3.712904 1_454
Cs2 O37 3.712904 1_544
Cs2 O47 3.712904 1_545
Cs2 O40 3.712904 1_555
Cs2 O49 3.712904 1_555
Cs2 O35 3.712904 1_554
Cs2 O52 3.712904 1_544
Cs3 O54 3.712904 1_555
Cs3 O46 3.712904 1_555
Cs3 O50 3.712904 1_555
Cs3 O34 3.712904 1_555
Cs3 O38 3.712904 1_555
Cs3 O42 3.712904 1_555
Al0 O73 1.863368 1_554
Al0 O66 1.863368 1_555
Al0 O61 1.863368 1_555
Al0 O68 1.863368 1_555
Al0 O78 1.863368 1_555
Al0 O56 1.863368 1_554
Al1 O69 1.863368 1_545
Al1 O76 1.863368 1_555
Al1 O62 1.863368 1_555
Al1 O57 1.863368 1_555
Al1 O64 1.863368 1_545
Al1 O74 1.863368 1_555
Al2 O77 1.863368 1_455
Al2 O72 1.863368 1_555
Al2 O65 1.863368 1_555
Al2 O58 1.863368 1_555
Al2 O60 1.863368 1_455
Al2 O70 1.863368 1_555
Al3 O59 1.863368 1_545
Al3 O67 1.863368 1_455
Al3 O63 1.863368 1_554
Al3 O79 1.863368 1_545
Al3 O75 1.863368 1_455
Al3 O71 1.863368 1_554
H0 O40 0.980778 1_555
H1 O42 0.980778 1_555
H2 O43 0.980778 1_555
H3 O41 0.980778 1_555
H4 O32 0.980778 1_555
H5 O34 0.980778 1_555
H6 O35 0.980778 1_555
H7 O33 0.980778 1_555
H8 O36 0.980778 1_555
H9 O38 0.980778 1_555
H10 O39 0.980778 1_555
H11 O37 0.980778 1_555
H12 O52 0.980778 1_555
H13 O54 0.980778 1_555
H14 O55 0.980778 1_555
H15 O53 0.980778 1_555
H16 O44 0.980778 1_555
H17 O46 0.980778 1_555
H18 O47 0.980778 1_555
H19 O45 0.980778 1_555
H20 O48 0.980778 1_555
H21 O50 0.980778 1_555
H22 O51 0.980778 1_555
H23 O49 0.980778 1_555
H24 O49 0.982008 1_555
H25 O50 0.982008 1_555
H26 O48 0.982008 1_555
H27 O51 0.982008 1_555
H28 O53 0.982008 1_555
H29 O54 0.982008 1_555
H30 O52 0.982008 1_555
H31 O55 0.982008 1_555
H32 O45 0.982008 1_555
H33 O46 0.982008 1_555
H34 O44 0.982008 1_555
H35 O47 0.982008 1_555
H36 O37 0.982008 1_555
H37 O38 0.982008 1_555
H38 O36 0.982008 1_555
H39 O39 0.982008 1_555
H40 O41 0.982008 1_555
H41 O42 0.982008 1_555
H42 O40 0.982008 1_555
H43 O43 0.982008 1_555
H44 O33 0.982008 1_555
H45 O34 0.982008 1_555
H46 O32 0.982008 1_555
H47 O35 0.982008 1_555
H48 H76 0.748154 1_555
H49 H79 0.748154 1_555
H50 H77 0.748154 1_555
H51 H78 0.748154 1_555
H52 H80 0.748154 1_555
H53 H83 0.748154 1_555
H54 H81 0.748154 1_555
H55 H82 0.748154 1_555
H56 H72 0.748154 1_555
H57 H75 0.748154 1_555
H58 H73 0.748154 1_555
H59 H74 0.748154 1_555
H60 H88 0.748154 1_555
H61 H91 0.748154 1_555
H62 H89 0.748154 1_555
H63 H90 0.748154 1_555
H64 H92 0.748154 1_555
H65 H95 0.748154 1_555
H66 H93 0.748154 1_555
H67 H94 0.748154 1_555
H68 H84 0.748154 1_555
H69 H87 0.748154 1_555
H70 H85 0.748154 1_555
H71 H86 0.748154 1_555
O0 S0 1.473492 1_555
O1 S1 1.473492 1_555
O2 S2 1.473492 1_555
O3 S3 1.473492 1_555
O4 S4 1.473492 1_555
O5 S5 1.473492 1_555
O6 S6 1.473492 1_555
O7 S7 1.473492 1_555
O8 S0 1.486847 1_555
O9 S1 1.486847 1_555
O10 S2 1.486847 1_555
O11 S3 1.486847 1_555
O12 S2 1.486847 1_555
O13 S0 1.486847 1_555
O14 S1 1.486847 1_555
O15 S3 1.486847 1_555
O16 S1 1.486847 1_555
O17 S2 1.486847 1_555
O18 S0 1.486847 1_555
O19 S3 1.486847 1_555
O20 S4 1.486847 1_555
O21 S5 1.486847 1_555
O22 S6 1.486847 1_555
O23 S7 1.486847 1_555
O24 S6 1.486847 1_555
O25 S4 1.486847 1_555
O26 S5 1.486847 1_555
O27 S7 1.486847 1_555
O28 S5 1.486847 1_555
O29 S6 1.486847 1_555
O30 S4 1.486847 1_555
O31 S7 1.486847 1_555
