# generated using pymatgen
data_LiFeF4
_symmetry_space_group_name_H-M   'P 1'
_cell_length_a   4.59630012
_cell_length_b   5.57666241
_cell_length_c   9.96394734
_cell_angle_alpha   90.00000000
_cell_angle_beta   90.00000000
_cell_angle_gamma   90.00000000
_symmetry_Int_Tables_number   1
_chemical_formula_structural   LiFeF4
_chemical_formula_sum   'Li4 Fe4 F16'
_cell_volume   255.39603875
_cell_formula_units_Z   4
loop_
 _symmetry_equiv_pos_site_id
 _symmetry_equiv_pos_as_xyz
  1  'x, y, z'
loop_
 _atom_site_type_symbol
 _atom_site_label
 _atom_site_symmetry_multiplicity
 _atom_site_fract_x
 _atom_site_fract_y
 _atom_site_fract_z
 _atom_site_occupancy
  Li  Li0  1  0.00000000  0.50000000  0.00000000  1
  Li  Li1  1  0.00000000  0.50000000  0.50000000  1
  Li  Li2  1  0.50000000  -0.00000000  0.00000000  1
  Li  Li3  1  0.50000000  -0.00000000  0.50000000  1
  Fe  Fe0  1  0.00000000  0.80411171  0.25000000  1
  Fe  Fe1  1  0.00000000  0.19588829  0.75000000  1
  Fe  Fe2  1  0.50000000  0.30411171  0.25000000  1
  Fe  Fe3  1  0.50000000  0.69588829  0.75000000  1
  F  F0  1  0.21284482  0.22406173  0.58978392  1
  F  F1  1  0.21284482  0.77593827  0.08978392  1
  F  F2  1  0.23647918  0.46400327  0.82950303  1
  F  F3  1  0.23647918  0.53599673  0.32950303  1
  F  F4  1  0.26352082  0.03599673  0.32950303  1
  F  F5  1  0.26352082  0.96400327  0.82950303  1
  F  F6  1  0.28715518  0.27593827  0.08978392  1
  F  F7  1  0.28715518  0.72406173  0.58978392  1
  F  F8  1  0.71284482  0.27593827  0.41021608  1
  F  F9  1  0.71284482  0.72406173  0.91021608  1
  F  F10  1  0.73647918  0.96400327  0.67049697  1
  F  F11  1  0.73647918  0.03599673  0.17049697  1
  F  F12  1  0.76352082  0.53599673  0.17049697  1
  F  F13  1  0.76352082  0.46400327  0.67049697  1
  F  F14  1  0.78715518  0.77593827  0.41021608  1
  F  F15  1  0.78715518  0.22406173  0.91021608  1
loop_
_geom_bond_atom_site_label_1
_geom_bond_atom_site_label_2
_geom_bond_distance
_geom_bond_site_symmetry_2
F0 Fe1 1.878882 1_555
F0 Li3 2.025738 1_555
F0 Li1 2.031091 1_555
F1 Fe0 1.878882 1_555
F1 Li2 2.025738 1_565
F1 Li0 2.031091 1_555
F2 Fe3 1.940825 1_555
F2 Fe1 2.011100 1_555
F2 Li0 2.026749 1_556
F3 Fe2 1.940825 1_555
F3 Fe0 2.011100 1_555
F3 Li1 2.026749 1_555
F4 Fe0 1.940825 1_545
F4 Fe2 2.011100 1_555
F4 Li3 2.026749 1_555
F5 Fe1 1.940825 1_565
F5 Fe3 2.011100 1_555
F5 Li2 2.026749 1_566
F6 Fe2 1.878882 1_555
F6 Li0 2.025738 1_555
F6 Li2 2.031091 1_555
F7 Fe3 1.878882 1_555
F7 Li1 2.025738 1_555
F7 Li3 2.031091 1_565
F8 Fe2 1.878882 1_555
F8 Li1 2.025738 1_655
F8 Li3 2.031091 1_555
F9 Fe3 1.878882 1_555
F9 Li0 2.025738 1_656
F9 Li2 2.031091 1_566
F10 Fe1 1.940825 1_665
F10 Fe3 2.011100 1_555
F10 Li3 2.026749 1_565
F11 Fe0 1.940825 1_645
F11 Fe2 2.011100 1_555
F11 Li2 2.026749 1_555
F12 Fe2 1.940825 1_555
F12 Fe0 2.011100 1_655
F12 Li0 2.026749 1_655
F13 Fe3 1.940825 1_555
F13 Fe1 2.011100 1_655
F13 Li1 2.026749 1_655
F14 Fe0 1.878882 1_655
F14 Li3 2.025738 1_565
F14 Li1 2.031091 1_655
F15 Fe1 1.878882 1_655
F15 Li2 2.025738 1_556
F15 Li0 2.031091 1_656
