# generated using pymatgen
data_Li6Cr(BO3)3
_symmetry_space_group_name_H-M   'P 1'
_cell_length_a   16.60805100
_cell_length_b   6.49899400
_cell_length_c   6.98738968
_cell_angle_alpha   76.26023083
_cell_angle_beta   90.00000000
_cell_angle_gamma   90.00000000
_symmetry_Int_Tables_number   1
_chemical_formula_structural   Li6Cr(BO3)3
_chemical_formula_sum   'Li24 Cr4 B12 O36'
_cell_volume   732.60678628
_cell_formula_units_Z   4
loop_
 _symmetry_equiv_pos_site_id
 _symmetry_equiv_pos_as_xyz
  1  'x, y, z'
loop_
 _atom_site_type_symbol
 _atom_site_label
 _atom_site_symmetry_multiplicity
 _atom_site_fract_x
 _atom_site_fract_y
 _atom_site_fract_z
 _atom_site_occupancy
  Li  Li0  1  0.00682300  0.32461500  0.06977400  1
  Li  Li1  1  0.44564000  0.40020300  0.13821400  1
  Li  Li2  1  0.49317700  0.82461500  0.06977400  1
  Li  Li3  1  0.53867500  0.05002100  0.31261700  1
  Li  Li4  1  0.05436000  0.90020300  0.13821400  1
  Li  Li5  1  0.29803700  0.37765600  0.27444700  1
  Li  Li6  1  0.96132500  0.55002100  0.31261700  1
  Li  Li7  1  0.70933000  0.05075700  0.40084200  1
  Li  Li8  1  0.04376300  0.16416700  0.45742200  1
  Li  Li9  1  0.20196300  0.87765600  0.27444700  1
  Li  Li10  1  0.79067000  0.55075700  0.40084200  1
  Li  Li11  1  0.45623700  0.66416700  0.45742200  1
  Li  Li12  1  0.54376300  0.33583300  0.54257800  1
  Li  Li13  1  0.20933000  0.44924300  0.59915800  1
  Li  Li14  1  0.79803700  0.12234400  0.72555300  1
  Li  Li15  1  0.95623700  0.83583300  0.54257800  1
  Li  Li16  1  0.29067000  0.94924300  0.59915800  1
  Li  Li17  1  0.03867500  0.44997900  0.68738300  1
  Li  Li18  1  0.70196300  0.62234400  0.72555300  1
  Li  Li19  1  0.94564000  0.09979700  0.86178600  1
  Li  Li20  1  0.46132500  0.94997900  0.68738300  1
  Li  Li21  1  0.50682300  0.17538500  0.93022600  1
  Li  Li22  1  0.55436000  0.59979700  0.86178600  1
  Li  Li23  1  0.99317700  0.67538500  0.93022600  1
  Cr  Cr0  1  0.80630000  0.33219600  0.05540900  1
  Cr  Cr1  1  0.69370000  0.83219600  0.05540900  1
  Cr  Cr2  1  0.30630000  0.16780400  0.94459100  1
  Cr  Cr3  1  0.19370000  0.66780400  0.94459100  1
  B  B0  1  0.63737000  0.35045800  0.08121600  1
  B  B1  1  0.86263000  0.85045800  0.08121600  1
  B  B2  1  0.12795000  0.50597900  0.27804200  1
  B  B3  1  0.88855100  0.19138000  0.42480700  1
  B  B4  1  0.37205000  0.00597900  0.27804200  1
  B  B5  1  0.61144900  0.69138000  0.42480700  1
  B  B6  1  0.38855100  0.30862000  0.57519300  1
  B  B7  1  0.62795000  0.99402100  0.72195800  1
  B  B8  1  0.11144900  0.80862000  0.57519300  1
  B  B9  1  0.87205000  0.49402100  0.72195800  1
  B  B10  1  0.13737000  0.14954200  0.91878400  1
  B  B11  1  0.36263000  0.64954200  0.91878400  1
  O  O0  1  0.33555500  0.44417800  0.99422000  1
  O  O1  1  0.41740400  0.05061700  0.10513500  1
  O  O2  1  0.55656300  0.31406400  0.10748200  1
  O  O3  1  0.69502700  0.19015300  0.10925000  1
  O  O4  1  0.16444500  0.94417800  0.99422000  1
  O  O5  1  0.08259600  0.55061700  0.10513500  1
  O  O6  1  0.29158400  0.06856400  0.24562200  1
  O  O7  1  0.94343700  0.81406400  0.10748200  1
  O  O8  1  0.80497300  0.69015300  0.10925000  1
  O  O9  1  0.95136200  0.25800900  0.29917900  1
  O  O10  1  0.20841600  0.56856400  0.24562200  1
  O  O11  1  0.54863800  0.75800900  0.29917900  1
  O  O12  1  0.80946000  0.24470400  0.35901500  1
  O  O13  1  0.40301200  0.42790600  0.38694700  1
  O  O14  1  0.59956300  0.08220100  0.53809800  1
  O  O15  1  0.09956300  0.41779900  0.46190200  1
  O  O16  1  0.69054000  0.74470400  0.35901500  1
  O  O17  1  0.90301200  0.07209400  0.61305300  1
  O  O18  1  0.09698800  0.92790600  0.38694700  1
  O  O19  1  0.30946000  0.25529600  0.64098500  1
  O  O20  1  0.90043700  0.58220100  0.53809800  1
  O  O21  1  0.40043700  0.91779900  0.46190200  1
  O  O22  1  0.59698800  0.57209400  0.61305300  1
  O  O23  1  0.19054000  0.75529600  0.64098500  1
  O  O24  1  0.45136200  0.24199100  0.70082100  1
  O  O25  1  0.79158400  0.43143600  0.75437800  1
  O  O26  1  0.04863800  0.74199100  0.70082100  1
  O  O27  1  0.19502700  0.30984700  0.89075000  1
  O  O28  1  0.05656300  0.18593600  0.89251800  1
  O  O29  1  0.70841600  0.93143600  0.75437800  1
  O  O30  1  0.91740400  0.44938300  0.89486500  1
  O  O31  1  0.83555500  0.05582200  0.00578000  1
  O  O32  1  0.30497300  0.80984700  0.89075000  1
  O  O33  1  0.44343700  0.68593600  0.89251800  1
  O  O34  1  0.58259600  0.94938300  0.89486500  1
  O  O35  1  0.66444500  0.55582200  0.00578000  1
loop_
_geom_bond_atom_site_label_1
_geom_bond_atom_site_label_2
_geom_bond_distance
_geom_bond_site_symmetry_2
Li0 O9 1.809867 1_455
Li0 O28 1.886529 1_554
Li0 O30 1.971261 1_454
Li0 O5 1.993602 1_555
Li1 O13 1.924292 1_555
Li1 O2 1.952016 1_555
Li1 O0 2.073663 1_554
Li1 O33 2.209668 1_554
Li1 O1 2.384234 1_555
Li2 O11 1.809867 1_555
Li2 O33 1.886529 1_554
Li2 O34 1.971261 1_554
Li2 O1 1.993602 1_565
Li3 O14 1.924870 1_555
Li3 O11 1.929359 1_545
Li3 O2 1.979666 1_555
Li3 O1 2.481057 1_555
Li4 O18 1.924292 1_555
Li4 O7 1.952016 1_455
Li4 O4 2.073663 1_554
Li4 O28 2.209668 1_564
Li4 O5 2.384234 1_555
Li5 O10 1.917458 1_555
Li5 O13 1.971311 1_555
Li5 O0 2.001755 1_554
Li5 O6 2.068688 1_555
Li5 O19 2.502070 1_555
Li6 O20 1.924870 1_555
Li6 O9 1.929359 1_555
Li6 O7 1.979666 1_555
Li6 O5 2.481057 1_655
Li7 O3 2.037550 1_555
Li7 O12 2.065099 1_555
Li7 O14 2.092378 1_555
Li7 O16 2.101240 1_545
Li7 O29 2.407064 1_545
Li8 O15 1.897732 1_555
Li8 O9 1.905047 1_455
Li8 O18 1.934087 1_545
Li9 O6 1.917458 1_565
Li9 O18 1.971311 1_555
Li9 O4 2.001755 1_554
Li9 O10 2.068688 1_555
Li9 O23 2.502070 1_555
Li10 O8 2.037550 1_555
Li10 O16 2.065099 1_555
Li10 O20 2.092378 1_555
Li10 O12 2.101240 1_555
Li10 O25 2.407064 1_555
Li11 O21 1.897732 1_555
Li11 O11 1.905047 1_555
Li11 O13 1.934087 1_555
Li12 O14 1.897732 1_555
Li12 O24 1.905047 1_555
Li12 O22 1.934087 1_555
Li13 O27 2.037550 1_555
Li13 O19 2.065099 1_555
Li13 O15 2.092378 1_555
Li13 O23 2.101240 1_555
Li13 O10 2.407064 1_555
Li14 O29 1.917458 1_545
Li14 O17 1.971311 1_555
Li14 O31 2.001755 1_556
Li14 O25 2.068688 1_555
Li14 O12 2.502070 1_555
Li15 O20 1.897732 1_555
Li15 O26 1.905047 1_655
Li15 O17 1.934087 1_565
Li16 O32 2.037550 1_555
Li16 O23 2.065099 1_555
Li16 O21 2.092378 1_555
Li16 O19 2.101240 1_565
Li16 O6 2.407064 1_565
Li17 O15 1.924870 1_555
Li17 O26 1.929359 1_555
Li17 O28 1.979666 1_555
Li17 O30 2.481057 1_455
Li18 O25 1.917458 1_555
Li18 O22 1.971311 1_555
Li18 O35 2.001755 1_556
Li18 O29 2.068688 1_555
Li18 O16 2.502070 1_555
Li19 O17 1.924292 1_555
Li19 O28 1.952016 1_655
Li19 O31 2.073663 1_556
Li19 O7 2.209668 1_546
Li19 O30 2.384234 1_555
Li20 O21 1.924870 1_555
Li20 O24 1.929359 1_565
Li20 O33 1.979666 1_555
Li20 O34 2.481057 1_555
Li21 O24 1.809867 1_555
Li21 O2 1.886529 1_556
Li21 O1 1.971261 1_556
Li21 O34 1.993602 1_545
Li22 O22 1.924292 1_555
Li22 O33 1.952016 1_555
Li22 O35 2.073663 1_556
Li22 O2 2.209668 1_556
Li22 O34 2.384234 1_555
Li23 O26 1.809867 1_655
Li23 O7 1.886529 1_556
Li23 O5 1.971261 1_656
Li23 O30 1.993602 1_555
Cr0 O31 1.969356 1_555
Cr0 O3 2.060084 1_555
Cr0 O12 2.062393 1_555
Cr0 O25 2.062924 1_554
Cr0 O30 2.199416 1_554
Cr0 O8 2.443299 1_555
Cr1 O35 1.969356 1_555
Cr1 O8 2.060084 1_555
Cr1 O16 2.062393 1_555
Cr1 O29 2.062924 1_554
Cr1 O34 2.199416 1_554
Cr1 O3 2.443299 1_565
Cr2 O0 1.969356 1_555
Cr2 O27 2.060084 1_555
Cr2 O19 2.062393 1_555
Cr2 O6 2.062924 1_556
Cr2 O1 2.199416 1_556
Cr2 O32 2.443299 1_545
Cr3 O4 1.969356 1_555
Cr3 O32 2.060084 1_555
Cr3 O23 2.062393 1_555
Cr3 O10 2.062924 1_556
Cr3 O5 2.199416 1_556
Cr3 O27 2.443299 1_555
B0 O2 1.367515 1_555
B0 O35 1.388225 1_555
B0 O3 1.394189 1_555
B1 O7 1.367515 1_555
B1 O31 1.388225 1_565
B1 O8 1.394189 1_555
B2 O15 1.360668 1_555
B2 O5 1.394529 1_555
B2 O10 1.399609 1_555
B3 O9 1.365906 1_555
B3 O17 1.380011 1_555
B3 O12 1.407538 1_555
B4 O21 1.360668 1_545
B4 O1 1.394529 1_555
B4 O6 1.399609 1_555
B5 O11 1.365906 1_555
B5 O22 1.380011 1_555
B5 O16 1.407538 1_555
B6 O24 1.365906 1_555
B6 O13 1.380011 1_555
B6 O19 1.407538 1_555
B7 O14 1.360668 1_565
B7 O34 1.394529 1_555
B7 O29 1.399609 1_555
B8 O26 1.365906 1_555
B8 O18 1.380011 1_555
B8 O23 1.407538 1_555
B9 O20 1.360668 1_555
B9 O30 1.394529 1_555
B9 O25 1.399609 1_555
B10 O28 1.367515 1_555
B10 O4 1.388225 1_545
B10 O27 1.394189 1_555
B11 O33 1.367515 1_555
B11 O0 1.388225 1_555
B11 O32 1.394189 1_555
