# generated using pymatgen
data_AlTlO3
_symmetry_space_group_name_H-M   'P 1'
_cell_length_a   5.25126000
_cell_length_b   5.36046800
_cell_length_c   7.61239100
_cell_angle_alpha   90.00000000
_cell_angle_beta   90.00000000
_cell_angle_gamma   90.00000000
_symmetry_Int_Tables_number   1
_chemical_formula_structural   AlTlO3
_chemical_formula_sum   'Al4 Tl4 O12'
_cell_volume   214.28280192
_cell_formula_units_Z   4
loop_
 _symmetry_equiv_pos_site_id
 _symmetry_equiv_pos_as_xyz
  1  'x, y, z'
loop_
 _atom_site_type_symbol
 _atom_site_label
 _atom_site_symmetry_multiplicity
 _atom_site_fract_x
 _atom_site_fract_y
 _atom_site_fract_z
 _atom_site_occupancy
  Al  Al0  1  0.00000000  0.50000000  0.00000000  1
  Al  Al1  1  0.00000000  0.50000000  0.50000000  1
  Al  Al2  1  0.50000000  0.00000000  0.00000000  1
  Al  Al3  1  0.50000000  0.00000000  0.50000000  1
  Tl  Tl0  1  0.01307800  0.96002600  0.75000000  1
  Tl  Tl1  1  0.48692200  0.46002600  0.75000000  1
  Tl  Tl2  1  0.51307800  0.53997400  0.25000000  1
  Tl  Tl3  1  0.98692200  0.03997400  0.25000000  1
  O  O0  1  0.09681800  0.46655000  0.25000000  1
  O  O1  1  0.20658600  0.20906900  0.55134900  1
  O  O2  1  0.20658600  0.20906900  0.94865100  1
  O  O3  1  0.29341400  0.70906900  0.94865100  1
  O  O4  1  0.29341400  0.70906900  0.55134900  1
  O  O5  1  0.40318200  0.96655000  0.25000000  1
  O  O6  1  0.59681800  0.03345000  0.75000000  1
  O  O7  1  0.70658600  0.29093100  0.05134900  1
  O  O8  1  0.70658600  0.29093100  0.44865100  1
  O  O9  1  0.79341400  0.79093100  0.05134900  1
  O  O10  1  0.79341400  0.79093100  0.44865100  1
  O  O11  1  0.90318200  0.53345000  0.75000000  1
loop_
_geom_bond_atom_site_label_1
_geom_bond_atom_site_label_2
_geom_bond_distance
_geom_bond_site_symmetry_2
Al0 O2 1.939533 1_554
Al0 O9 1.939533 1_455
Al0 O3 1.944948 1_554
Al0 O7 1.944948 1_455
Al0 O0 1.977984 1_555
Al0 O11 1.977984 1_454
Al1 O1 1.939533 1_555
Al1 O10 1.939533 1_455
Al1 O4 1.944948 1_555
Al1 O8 1.944948 1_455
Al1 O0 1.977984 1_555
Al1 O11 1.977984 1_455
Al2 O3 1.939533 1_544
Al2 O7 1.939533 1_555
Al2 O9 1.944948 1_545
Al2 O2 1.944948 1_554
Al2 O6 1.977984 1_554
Al2 O5 1.977984 1_545
Al3 O8 1.939533 1_555
Al3 O4 1.939533 1_545
Al3 O10 1.944948 1_545
Al3 O1 1.944948 1_555
Al3 O6 1.977984 1_555
Al3 O5 1.977984 1_545
O0 Tl2 2.221041 1_555
O0 Tl3 2.358345 1_455
O1 Tl0 2.258661 1_545
O1 Tl1 2.502717 1_555
O1 Tl3 2.722972 1_455
O2 Tl0 2.258661 1_545
O2 Tl1 2.502717 1_555
O2 Tl3 2.722972 1_456
O3 Tl1 2.258661 1_555
O3 Tl0 2.502717 1_555
O3 Tl2 2.722972 1_556
O4 Tl1 2.258661 1_555
O4 Tl0 2.502717 1_555
O4 Tl2 2.722972 1_555
O5 Tl3 2.221041 1_465
O5 Tl2 2.358345 1_555
O6 Tl0 2.221041 1_645
O6 Tl1 2.358345 1_555
O7 Tl2 2.258661 1_555
O7 Tl3 2.502717 1_555
O7 Tl1 2.722972 1_554
O8 Tl2 2.258661 1_555
O8 Tl3 2.502717 1_555
O8 Tl1 2.722972 1_555
O9 Tl3 2.258661 1_565
O9 Tl2 2.502717 1_555
O9 Tl0 2.722972 1_654
O10 Tl3 2.258661 1_565
O10 Tl2 2.502717 1_555
O10 Tl0 2.722972 1_655
O11 Tl1 2.221041 1_555
O11 Tl0 2.358345 1_655
