# generated using pymatgen
data_Na3Ni2P2(CO7)2
_symmetry_space_group_name_H-M   'P 1'
_cell_length_a   10.20747583
_cell_length_b   10.44694517
_cell_length_c   6.49486298
_cell_angle_alpha   90.84238514
_cell_angle_beta   91.01698014
_cell_angle_gamma   59.93068718
_symmetry_Int_Tables_number   1
_chemical_formula_structural   Na3Ni2P2(CO7)2
_chemical_formula_sum   'Na6 Ni4 P4 C4 O28'
_cell_volume   599.27525335
_cell_formula_units_Z   2
loop_
 _symmetry_equiv_pos_site_id
 _symmetry_equiv_pos_as_xyz
  1  'x, y, z'
loop_
 _atom_site_type_symbol
 _atom_site_label
 _atom_site_symmetry_multiplicity
 _atom_site_fract_x
 _atom_site_fract_y
 _atom_site_fract_z
 _atom_site_occupancy
  Na  Na0  1  0.00210400  0.24410400  0.48444000  1
  Na  Na1  1  0.00503300  0.24060600  0.00928200  1
  Na  Na2  1  0.49496700  0.25939400  0.99071800  1
  Na  Na3  1  0.49789600  0.25589600  0.51556000  1
  Na  Na4  1  0.50473100  0.74629300  0.03221200  1
  Na  Na5  1  0.99526900  0.75370700  0.96778800  1
  Ni  Ni0  1  0.28499600  0.06268400  0.74653200  1
  Ni  Ni1  1  0.21500400  0.43731600  0.25346800  1
  Ni  Ni2  1  0.77806400  0.56747300  0.74595400  1
  Ni  Ni3  1  0.72193600  0.93252700  0.25404600  1
  P  P0  1  0.35669700  0.07307100  0.24824000  1
  P  P1  1  0.14330300  0.42692900  0.75176000  1
  P  P2  1  0.85515700  0.57238800  0.24935000  1
  P  P3  1  0.64484300  0.92761200  0.75065000  1
  C  C0  1  0.82081200  0.10190600  0.24725200  1
  C  C1  1  0.31598500  0.60453500  0.25305800  1
  C  C2  1  0.67918800  0.39809400  0.75274800  1
  C  C3  1  0.18401500  0.89546500  0.74694200  1
  O  O0  1  0.09888300  0.03929100  0.73826300  1
  O  O1  1  0.26686600  0.05978200  0.06234400  1
  O  O2  1  0.26846500  0.06600200  0.43378400  1
  O  O3  1  0.13960200  0.28065700  0.75298300  1
  O  O4  1  0.02190100  0.44015800  0.24033700  1
  O  O5  1  0.47809900  0.05984200  0.75966300  1
  O  O6  1  0.36039800  0.21934300  0.24701700  1
  O  O7  1  0.23313400  0.44021800  0.93765600  1
  O  O8  1  0.23153500  0.43399800  0.56621600  1
  O  O9  1  0.67612700  0.14578100  0.25246900  1
  O  O10  1  0.17249300  0.64826800  0.24932700  1
  O  O11  1  0.40111700  0.46070900  0.26173700  1
  O  O12  1  0.63021700  0.30970500  0.75854700  1
  O  O13  1  0.13243200  0.81023300  0.75288100  1
  O  O14  1  0.86978300  0.19029500  0.24145300  1
  O  O15  1  0.36756800  0.68976700  0.24711900  1
  O  O16  1  0.59517700  0.53998800  0.75100800  1
  O  O17  1  0.82387300  0.35421900  0.74753100  1
  O  O18  1  0.32750700  0.85173200  0.75067300  1
  O  O19  1  0.76547200  0.55805000  0.06390600  1
  O  O20  1  0.77677900  0.55189300  0.43573700  1
  O  O21  1  0.64127700  0.78259500  0.75461400  1
  O  O22  1  0.52315500  0.94408900  0.24050100  1
  O  O23  1  0.97684500  0.55591100  0.75949900  1
  O  O24  1  0.85872300  0.71740500  0.24538600  1
  O  O25  1  0.72322100  0.94810700  0.56426300  1
  O  O26  1  0.73452800  0.94195000  0.93609400  1
  O  O27  1  0.90482300  0.96001200  0.24899200  1
loop_
_geom_bond_atom_site_label_1
_geom_bond_atom_site_label_2
_geom_bond_distance
_geom_bond_site_symmetry_2
Na0 O14 2.300001 1_455
Na0 O17 2.346970 1_455
Na0 O3 2.363961 1_555
Na0 O2 2.430389 1_555
Na0 O0 2.489888 1_555
Na0 O4 2.696473 1_555
Na0 O20 2.884831 1_455
Na1 O14 2.297903 1_455
Na1 O17 2.338096 1_454
Na1 O3 2.347432 1_554
Na1 O1 2.399471 1_555
Na1 O0 2.524146 1_554
Na1 O4 2.624158 1_555
Na2 O12 2.297903 1_555
Na2 O9 2.338096 1_556
Na2 O6 2.347432 1_556
Na2 O7 2.399471 1_555
Na2 O11 2.524146 1_556
Na2 O5 2.624158 1_555
Na3 O12 2.300001 1_555
Na3 O9 2.346970 1_555
Na3 O6 2.363961 1_555
Na3 O8 2.430389 1_555
Na3 O11 2.489888 1_555
Na3 O5 2.696473 1_555
Na3 O25 2.884831 1_545
Na4 O15 2.275813 1_555
Na4 O19 2.396004 1_555
Na4 O18 2.403009 1_554
Na4 O21 2.444616 1_554
Na4 O22 2.536437 1_555
Na4 O16 2.604478 1_554
Na4 O1 2.947675 1_565
Na5 O13 2.275813 1_655
Na5 O26 2.396004 1_555
Na5 O10 2.403009 1_656
Na5 O24 2.444616 1_556
Na5 O23 2.536437 1_555
Na5 O27 2.604478 1_556
Na5 O7 2.947675 1_655
Ni0 O5 1.956740 1_555
Ni0 O3 2.000634 1_555
Ni0 O18 2.022078 1_545
Ni0 O0 2.032946 1_555
Ni0 O2 2.034629 1_555
Ni0 O1 2.064784 1_556
Ni1 O4 1.956740 1_555
Ni1 O6 2.000634 1_555
Ni1 O10 2.022078 1_555
Ni1 O11 2.032946 1_555
Ni1 O8 2.034629 1_555
Ni1 O7 2.064784 1_554
Ni2 O21 1.964167 1_555
Ni2 O23 1.971740 1_555
Ni2 O20 2.019334 1_555
Ni2 O16 2.026850 1_555
Ni2 O17 2.034371 1_555
Ni2 O19 2.078158 1_556
Ni3 O24 1.964167 1_555
Ni3 O22 1.971740 1_555
Ni3 O25 2.019334 1_555
Ni3 O27 2.026850 1_555
Ni3 O9 2.034371 1_565
Ni3 O26 2.078158 1_554
C0 O14 1.252271 1_555
C0 O27 1.288097 1_545
C0 O9 1.309713 1_555
C1 O15 1.242218 1_555
C1 O10 1.297353 1_555
C1 O11 1.307010 1_555
C2 O12 1.252271 1_555
C2 O16 1.288097 1_555
C2 O17 1.309713 1_555
C3 O13 1.242218 1_555
C3 O18 1.297353 1_555
C3 O0 1.307010 1_565
O1 P0 1.549563 1_555
O2 P0 1.541622 1_555
O3 P1 1.547509 1_555
O4 P2 1.566416 1_455
O5 P3 1.566416 1_545
O6 P0 1.547509 1_555
O7 P1 1.549563 1_555
O8 P1 1.541622 1_555
O19 P2 1.550524 1_555
O20 P2 1.537861 1_555
O21 P3 1.534147 1_555
O22 P0 1.553039 1_565
O23 P1 1.553039 1_655
O24 P2 1.534147 1_555
O25 P3 1.537861 1_555
O26 P3 1.550524 1_555
