# generated using pymatgen
data_Li2VF6
_symmetry_space_group_name_H-M   'P 1'
_cell_length_a   4.91825782
_cell_length_b   8.45265983
_cell_length_c   9.31862407
_cell_angle_alpha   90.00000000
_cell_angle_beta   90.00000000
_cell_angle_gamma   90.00000000
_symmetry_Int_Tables_number   1
_chemical_formula_structural   Li2VF6
_chemical_formula_sum   'Li8 V4 F24'
_cell_volume   387.39719742
_cell_formula_units_Z   4
loop_
 _symmetry_equiv_pos_site_id
 _symmetry_equiv_pos_as_xyz
  1  'x, y, z'
loop_
 _atom_site_type_symbol
 _atom_site_label
 _atom_site_symmetry_multiplicity
 _atom_site_fract_x
 _atom_site_fract_y
 _atom_site_fract_z
 _atom_site_occupancy
  Li  Li0  1  0.49422943  0.44711763  0.10521899  1
  Li  Li1  1  0.01215960  0.88441726  0.10382302  1
  Li  Li2  1  0.51215960  0.38441726  0.39617698  1
  Li  Li3  1  0.99422943  0.94711763  0.39478101  1
  Li  Li4  1  0.49422943  0.05288237  0.60521899  1
  Li  Li5  1  0.01215960  0.61558274  0.60382302  1
  Li  Li6  1  0.51215960  0.11558274  0.89617698  1
  Li  Li7  1  0.99422943  0.55288237  0.89478101  1
  V  V0  1  -0.00049555  0.24394463  0.13464350  1
  V  V1  1  0.49950445  0.74394463  0.36535650  1
  V  V2  1  -0.00049555  0.25605537  0.63464350  1
  V  V3  1  0.49950445  0.75605537  0.86535650  1
  F  F0  1  0.83888240  0.09536981  0.01729012  1
  F  F1  1  0.31030731  0.25360949  0.01714832  1
  F  F2  1  0.83992364  0.40617623  0.02255317  1
  F  F3  1  0.12573849  0.07006376  0.23653489  1
  F  F4  1  0.69487356  0.25686762  0.24773869  1
  F  F5  1  0.68954412  0.88505962  0.25717744  1
  F  F6  1  0.18954412  0.38505962  0.24282256  1
  F  F7  1  0.19487356  0.75686762  0.25226131  1
  F  F8  1  0.62573849  0.57006376  0.26346511  1
  F  F9  1  0.33992364  0.90617623  0.47744683  1
  F  F10  1  0.81030731  0.75360949  0.48285168  1
  F  F11  1  0.33888240  0.59536981  0.48270988  1
  F  F12  1  0.83888240  0.40463019  0.51729012  1
  F  F13  1  0.31030731  0.24639051  0.51714832  1
  F  F14  1  0.83992364  0.09382377  0.52255317  1
  F  F15  1  0.12573849  0.42993624  0.73653489  1
  F  F16  1  0.69487356  0.24313238  0.74773869  1
  F  F17  1  0.68954412  0.61494038  0.75717744  1
  F  F18  1  0.18954412  0.11494038  0.74282256  1
  F  F19  1  0.19487356  0.74313238  0.75226131  1
  F  F20  1  0.62573849  0.92993624  0.76346511  1
  F  F21  1  0.33992364  0.59382377  0.97744683  1
  F  F22  1  0.81030731  0.74639051  0.98285168  1
  F  F23  1  0.33888240  0.90463019  0.98270988  1
loop_
_geom_bond_atom_site_label_1
_geom_bond_atom_site_label_2
_geom_bond_distance
_geom_bond_site_symmetry_2
F0 V0 1.843132 1_655
F0 Li6 1.971065 1_554
F0 Li1 2.134477 1_645
F1 V0 1.882049 1_555
F1 Li6 1.901979 1_554
F1 Li0 2.041368 1_555
F2 Li7 1.879193 1_554
F2 V0 1.894063 1_655
F2 Li0 1.898393 1_555
F3 V0 1.856654 1_555
F3 Li3 1.916475 1_445
F3 Li1 2.074575 1_545
F4 V0 1.835043 1_655
F4 Li2 1.970602 1_555
F4 Li0 2.307309 1_555
F5 V1 1.820051 1_555
F5 Li3 2.040822 1_555
F5 Li1 2.135382 1_655
F6 V0 1.820051 1_555
F6 Li0 2.040822 1_555
F6 Li2 2.135382 1_555
F7 V1 1.835043 1_555
F7 Li1 1.970602 1_555
F7 Li3 2.307309 1_455
F8 V1 1.856654 1_555
F8 Li0 1.916475 1_555
F8 Li2 2.074575 1_555
F9 Li4 1.879193 1_565
F9 V1 1.894063 1_555
F9 Li3 1.898393 1_455
F10 V1 1.882049 1_555
F10 Li5 1.901979 1_655
F10 Li3 2.041368 1_555
F11 V1 1.843132 1_555
F11 Li5 1.971065 1_555
F11 Li2 2.134477 1_555
F12 V2 1.843132 1_655
F12 Li2 1.971065 1_555
F12 Li5 2.134477 1_655
F13 V2 1.882049 1_555
F13 Li2 1.901979 1_555
F13 Li4 2.041368 1_555
F14 Li3 1.879193 1_545
F14 V2 1.894063 1_655
F14 Li4 1.898393 1_555
F15 V2 1.856654 1_555
F15 Li7 1.916475 1_455
F15 Li5 2.074575 1_555
F16 V2 1.835043 1_655
F16 Li6 1.970602 1_555
F16 Li4 2.307309 1_555
F17 V3 1.820051 1_555
F17 Li7 2.040822 1_555
F17 Li5 2.135382 1_655
F18 V2 1.820051 1_555
F18 Li4 2.040822 1_555
F18 Li6 2.135382 1_555
F19 V3 1.835043 1_555
F19 Li5 1.970602 1_555
F19 Li7 2.307309 1_455
F20 V3 1.856654 1_555
F20 Li4 1.916475 1_565
F20 Li6 2.074575 1_565
F21 Li0 1.879193 1_556
F21 V3 1.894063 1_555
F21 Li7 1.898393 1_455
F22 V3 1.882049 1_555
F22 Li1 1.901979 1_656
F22 Li7 2.041368 1_555
F23 V3 1.843132 1_555
F23 Li1 1.971065 1_556
F23 Li6 2.134477 1_565
