# generated using pymatgen
data_CoPO4
_symmetry_space_group_name_H-M   'P 1'
_cell_length_a   4.95023863
_cell_length_b   7.39095706
_cell_length_c   10.04036705
_cell_angle_alpha   90.00000000
_cell_angle_beta   90.00000000
_cell_angle_gamma   90.00000000
_symmetry_Int_Tables_number   1
_chemical_formula_structural   CoPO4
_chemical_formula_sum   'Co4 P4 O16'
_cell_volume   367.34692082
_cell_formula_units_Z   4
loop_
 _symmetry_equiv_pos_site_id
 _symmetry_equiv_pos_as_xyz
  1  'x, y, z'
loop_
 _atom_site_type_symbol
 _atom_site_label
 _atom_site_symmetry_multiplicity
 _atom_site_fract_x
 _atom_site_fract_y
 _atom_site_fract_z
 _atom_site_occupancy
  Co  Co0  1  0.73939563  0.79323432  0.09671100  1
  Co  Co1  1  0.23939563  0.29323432  0.40328900  1
  Co  Co2  1  0.73939563  0.70676568  0.59671100  1
  Co  Co3  1  0.23939563  0.20676568  0.90328900  1
  P  P0  1  0.24993368  0.02320668  0.17702573  1
  P  P1  1  0.74993368  0.52320668  0.32297427  1
  P  P2  1  0.24993368  0.47679332  0.67702573  1
  P  P3  1  0.74993368  0.97679332  0.82297427  1
  O  O0  1  0.18979991  0.18346735  0.08251131  1
  O  O1  1  0.09807893  0.85344065  0.13285766  1
  O  O2  1  0.66525562  0.58077248  0.18173006  1
  O  O3  1  0.55335323  0.98371348  0.17656520  1
  O  O4  1  0.05335323  0.48371348  0.32343480  1
  O  O5  1  0.16525562  0.08077248  0.31826994  1
  O  O6  1  0.59807893  0.35344065  0.36714234  1
  O  O7  1  0.68979991  0.68346735  0.41748869  1
  O  O8  1  0.18979991  0.31653265  0.58251131  1
  O  O9  1  0.09807893  0.64655935  0.63285766  1
  O  O10  1  0.66525562  0.91922752  0.68173006  1
  O  O11  1  0.55335323  0.51628652  0.67656520  1
  O  O12  1  0.05335323  0.01628652  0.82343480  1
  O  O13  1  0.16525562  0.41922752  0.81826994  1
  O  O14  1  0.59807893  0.14655935  0.86714234  1
  O  O15  1  0.68979991  0.81653265  0.91748869  1
loop_
_geom_bond_atom_site_label_1
_geom_bond_atom_site_label_2
_geom_bond_distance
_geom_bond_site_symmetry_2
Co0 O15 1.824274 1_554
Co0 O2 1.824609 1_555
Co0 O3 1.863586 1_555
Co0 O1 1.866110 1_655
Co1 O8 1.824274 1_555
Co1 O5 1.824609 1_555
Co1 O4 1.863586 1_555
Co1 O6 1.866110 1_555
Co2 O7 1.824274 1_555
Co2 O10 1.824609 1_555
Co2 O11 1.863586 1_555
Co2 O9 1.866110 1_655
Co3 O0 1.824274 1_556
Co3 O13 1.824609 1_555
Co3 O12 1.863586 1_555
Co3 O14 1.866110 1_555
O0 P0 1.546650 1_555
O1 P0 1.528429 1_565
O2 P1 1.538786 1_555
O3 P0 1.530106 1_565
O4 P1 1.530106 1_455
O5 P0 1.538786 1_555
O6 P1 1.528429 1_555
O7 P1 1.546650 1_555
O8 P2 1.546650 1_555
O9 P2 1.528429 1_555
O10 P3 1.538786 1_555
O11 P2 1.530106 1_555
O12 P3 1.530106 1_445
O13 P2 1.538786 1_555
O14 P3 1.528429 1_545
O15 P3 1.546650 1_555
