# generated using pymatgen
data_Sn2P2O7
_symmetry_space_group_name_H-M   'P 1'
_cell_length_a   7.03127300
_cell_length_b   7.03127300
_cell_length_c   25.55367100
_cell_angle_alpha   90.00000000
_cell_angle_beta   90.00000000
_cell_angle_gamma   90.00000000
_symmetry_Int_Tables_number   1
_chemical_formula_structural   Sn2P2O7
_chemical_formula_sum   'Sn16 P16 O56'
_cell_volume   1263.34282985
_cell_formula_units_Z   8
loop_
 _symmetry_equiv_pos_site_id
 _symmetry_equiv_pos_as_xyz
  1  'x, y, z'
loop_
 _atom_site_type_symbol
 _atom_site_label
 _atom_site_symmetry_multiplicity
 _atom_site_fract_x
 _atom_site_fract_y
 _atom_site_fract_z
 _atom_site_occupancy
  Sn  Sn0  1  0.11849500  0.63673000  0.88431100  1
  Sn  Sn1  1  0.12006200  0.21973700  0.00208000  1
  Sn  Sn2  1  0.19405500  0.54741600  0.24435500  1
  Sn  Sn3  1  0.20110300  0.26486100  0.63876500  1
  Sn  Sn4  1  0.21973700  0.87993800  0.75208000  1
  Sn  Sn5  1  0.26486100  0.79889700  0.38876500  1
  Sn  Sn6  1  0.36327000  0.11849500  0.13431100  1
  Sn  Sn7  1  0.45258400  0.19405500  0.49435500  1
  Sn  Sn8  1  0.54741600  0.80594500  0.99435500  1
  Sn  Sn9  1  0.63673000  0.88150500  0.63431100  1
  Sn  Sn10  1  0.73513900  0.20110300  0.88876500  1
  Sn  Sn11  1  0.78026300  0.12006200  0.25208000  1
  Sn  Sn12  1  0.79889700  0.73513900  0.13876500  1
  Sn  Sn13  1  0.80594500  0.45258400  0.74435500  1
  Sn  Sn14  1  0.87993800  0.78026300  0.50208000  1
  Sn  Sn15  1  0.88150500  0.36327000  0.38431100  1
  P  P0  1  0.04866600  0.71117500  0.02071400  1
  P  P1  1  0.13695600  0.74718200  0.62208300  1
  P  P2  1  0.25281800  0.13695600  0.87208300  1
  P  P3  1  0.28882500  0.04866600  0.27071400  1
  P  P4  1  0.28023900  0.65334500  0.11844200  1
  P  P5  1  0.30522900  0.37306400  0.77598500  1
  P  P6  1  0.34665500  0.28023900  0.36844200  1
  P  P7  1  0.37306400  0.69477100  0.52598500  1
  P  P8  1  0.62693600  0.30522900  0.02598500  1
  P  P9  1  0.65334500  0.71976100  0.86844200  1
  P  P10  1  0.69477100  0.62693600  0.27598500  1
  P  P11  1  0.71976100  0.34665500  0.61844200  1
  P  P12  1  0.71117500  0.95133400  0.77071400  1
  P  P13  1  0.74718200  0.86304400  0.37208300  1
  P  P14  1  0.86304400  0.25281800  0.12208300  1
  P  P15  1  0.95133400  0.28882500  0.52071400  1
  O  O0  1  0.01723300  0.55853900  0.97902800  1
  O  O1  1  0.03975100  0.17930000  0.09214800  1
  O  O2  1  0.08534600  0.26146400  0.89207900  1
  O  O3  1  0.09993900  0.60148800  0.66464300  1
  O  O4  1  0.12839100  0.18090600  0.25182600  1
  O  O5  1  0.13609200  0.21319700  0.54589700  1
  O  O6  1  0.14314100  0.77200300  0.15328700  1
  O  O7  1  0.15973700  0.59063900  0.06663600  1
  O  O8  1  0.16518200  0.52913700  0.79423800  1
  O  O9  1  0.17930000  0.96024900  0.84214800  1
  O  O10  1  0.18090600  0.87160900  0.00182600  1
  O  O11  1  0.20390800  0.22435600  0.74100000  1
  O  O12  1  0.21319700  0.86390800  0.29589700  1
  O  O13  1  0.22097600  0.44626400  0.34878900  1
  O  O14  1  0.22435600  0.79609200  0.49100000  1
  O  O15  1  0.22799700  0.14314100  0.40328700  1
  O  O16  1  0.26222300  0.62770100  0.57910200  1
  O  O17  1  0.26146400  0.91465400  0.64207900  1
  O  O18  1  0.34081000  0.46874100  0.14504200  1
  O  O19  1  0.37229900  0.26222300  0.82910200  1
  O  O20  1  0.39851200  0.09993900  0.91464300  1
  O  O21  1  0.40936100  0.15973700  0.31663600  1
  O  O22  1  0.44146100  0.01723300  0.22902800  1
  O  O23  1  0.46874100  0.65919000  0.89504200  1
  O  O24  1  0.47086300  0.16518200  0.04423800  1
  O  O25  1  0.44626400  0.77902400  0.09878900  1
  O  O26  1  0.45573500  0.51370200  0.50275500  1
  O  O27  1  0.48629800  0.45573500  0.75275500  1
  O  O28  1  0.51370200  0.54426500  0.25275500  1
  O  O29  1  0.54426500  0.48629800  0.00275500  1
  O  O30  1  0.55373600  0.22097600  0.59878900  1
  O  O31  1  0.52913700  0.83481800  0.54423800  1
  O  O32  1  0.53125900  0.34081000  0.39504200  1
  O  O33  1  0.55853900  0.98276700  0.72902800  1
  O  O34  1  0.59063900  0.84026300  0.81663600  1
  O  O35  1  0.60148800  0.90006100  0.41464300  1
  O  O36  1  0.62770100  0.73777700  0.32910200  1
  O  O37  1  0.65919000  0.53125900  0.64504200  1
  O  O38  1  0.73853600  0.08534600  0.14207900  1
  O  O39  1  0.73777700  0.37229900  0.07910200  1
  O  O40  1  0.77200300  0.85685900  0.90328700  1
  O  O41  1  0.77564400  0.20390800  0.99100000  1
  O  O42  1  0.77902400  0.55373600  0.84878900  1
  O  O43  1  0.78680300  0.13609200  0.79589700  1
  O  O44  1  0.79609200  0.77564400  0.24100000  1
  O  O45  1  0.81909400  0.12839100  0.50182600  1
  O  O46  1  0.82070000  0.03975100  0.34214800  1
  O  O47  1  0.83481800  0.47086300  0.29423800  1
  O  O48  1  0.84026300  0.40936100  0.56663600  1
  O  O49  1  0.85685900  0.22799700  0.65328700  1
  O  O50  1  0.86390800  0.78680300  0.04589700  1
  O  O51  1  0.87160900  0.81909400  0.75182600  1
  O  O52  1  0.90006100  0.39851200  0.16464300  1
  O  O53  1  0.91465400  0.73853600  0.39207900  1
  O  O54  1  0.96024900  0.82070000  0.59214800  1
  O  O55  1  0.98276700  0.44146100  0.47902800  1
loop_
_geom_bond_atom_site_label_1
_geom_bond_atom_site_label_2
_geom_bond_distance
_geom_bond_site_symmetry_2
O0 P0 1.528194 1_556
O0 Sn1 2.558256 1_556
O0 Sn0 2.582127 1_555
O1 P14 1.547935 1_455
O1 Sn1 2.386824 1_555
O1 Sn6 2.553059 1_555
O2 P2 1.553740 1_555
O2 Sn10 2.500144 1_455
O2 Sn0 2.656299 1_555
O3 P1 1.516563 1_555
O3 Sn3 2.558426 1_555
O4 P3 1.539488 1_555
O4 Sn11 2.484896 1_455
O4 Sn2 2.625016 1_555
O5 P15 1.544184 1_455
O5 Sn3 2.443890 1_555
O5 Sn7 2.589398 1_555
O6 P4 1.555048 1_555
O6 Sn12 2.462435 1_455
O7 P4 1.632427 1_555
O7 P0 1.644765 1_555
O8 P5 1.546440 1_555
O8 Sn0 2.444970 1_555
O8 Sn4 2.718769 1_555
O9 P2 1.547935 1_565
O9 Sn4 2.386824 1_555
O9 Sn0 2.553059 1_555
O10 P0 1.539488 1_555
O10 Sn1 2.484896 1_565
O10 Sn8 2.625016 1_554
O11 P5 1.549212 1_555
O11 Sn4 2.440731 1_545
O11 Sn3 2.628032 1_555
O12 P3 1.544184 1_565
O12 Sn5 2.443890 1_555
O12 Sn2 2.589398 1_555
O13 P6 1.547854 1_555
O13 Sn15 2.619512 1_455
O13 Sn5 2.699345 1_555
O14 P7 1.549212 1_555
O14 Sn14 2.440731 1_455
O14 Sn5 2.628032 1_555
O15 P6 1.555048 1_555
O15 Sn5 2.462435 1_545
O16 P7 1.634669 1_555
O16 P1 1.639473 1_555
O17 P1 1.553740 1_555
O17 Sn3 2.500144 1_565
O17 Sn9 2.656299 1_555
O18 P4 1.525851 1_555
O18 Sn6 2.482922 1_555
O19 P5 1.634669 1_555
O19 P2 1.639473 1_555
O20 P2 1.516563 1_555
O20 Sn10 2.558426 1_555
O21 P6 1.632427 1_555
O21 P3 1.644765 1_555
O22 P3 1.528194 1_555
O22 Sn11 2.558256 1_555
O22 Sn6 2.582127 1_555
O23 P9 1.525851 1_555
O23 Sn0 2.482922 1_555
O24 P8 1.546440 1_555
O24 Sn6 2.444970 1_555
O24 Sn1 2.718769 1_555
O25 P4 1.547854 1_555
O25 Sn6 2.619512 1_565
O25 Sn12 2.699345 1_555
O26 P7 1.520251 1_555
O26 Sn7 2.257861 1_555
O27 P5 1.520251 1_555
O27 Sn13 2.257861 1_555
O28 P10 1.520251 1_555
O28 Sn2 2.257861 1_555
O29 P8 1.520251 1_555
O29 Sn8 2.257861 1_554
O30 P11 1.547854 1_555
O30 Sn9 2.619512 1_545
O30 Sn3 2.699345 1_555
O31 P7 1.546440 1_555
O31 Sn9 2.444970 1_555
O31 Sn14 2.718769 1_555
O32 P6 1.525851 1_555
O32 Sn15 2.482922 1_555
O33 P12 1.528194 1_555
O33 Sn4 2.558256 1_555
O33 Sn9 2.582127 1_555
O34 P9 1.632427 1_555
O34 P12 1.644765 1_555
O35 P13 1.516563 1_555
O35 Sn5 2.558426 1_555
O36 P10 1.634669 1_555
O36 P13 1.639473 1_555
O37 P11 1.525851 1_555
O37 Sn9 2.482922 1_555
O38 P14 1.553740 1_555
O38 Sn12 2.500144 1_545
O38 Sn6 2.656299 1_555
O39 P8 1.634669 1_555
O39 P14 1.639473 1_555
O40 P9 1.555048 1_555
O40 Sn10 2.462435 1_565
O41 P8 1.549212 1_556
O41 Sn1 2.440731 1_656
O41 Sn10 2.628032 1_555
O42 P9 1.547854 1_555
O42 Sn0 2.619512 1_655
O42 Sn10 2.699345 1_555
O43 P12 1.544184 1_545
O43 Sn10 2.443890 1_555
O43 Sn13 2.589398 1_555
O44 P10 1.549212 1_555
O44 Sn11 2.440731 1_565
O44 Sn12 2.628032 1_555
O45 P15 1.539488 1_555
O45 Sn14 2.484896 1_545
O45 Sn7 2.625016 1_555
O46 P13 1.547935 1_545
O46 Sn11 2.386824 1_555
O46 Sn15 2.553059 1_555
O47 P10 1.546440 1_555
O47 Sn15 2.444970 1_555
O47 Sn11 2.718769 1_555
O48 P11 1.632427 1_555
O48 P15 1.644765 1_555
O49 P11 1.555048 1_555
O49 Sn3 2.462435 1_655
O50 P0 1.544184 1_655
O50 Sn12 2.443890 1_555
O50 Sn8 2.589398 1_554
O51 P12 1.539488 1_555
O51 Sn4 2.484896 1_655
O51 Sn13 2.625016 1_555
O52 P14 1.516563 1_555
O52 Sn12 2.558426 1_555
O53 P13 1.553740 1_555
O53 Sn5 2.500144 1_655
O53 Sn15 2.656299 1_555
O54 P1 1.547935 1_655
O54 Sn14 2.386824 1_555
O54 Sn9 2.553059 1_555
O55 P15 1.528194 1_555
O55 Sn14 2.558256 1_555
O55 Sn15 2.582127 1_555
