# generated using pymatgen
data_Fe10OF19
_symmetry_space_group_name_H-M   'P 1'
_cell_length_a   17.41728522
_cell_length_b   17.41728522
_cell_length_c   3.27023000
_cell_angle_alpha   90.00000000
_cell_angle_beta   90.00000000
_cell_angle_gamma   157.47468840
_symmetry_Int_Tables_number   1
_chemical_formula_structural   Fe10OF19
_chemical_formula_sum   'Fe10 O1 F19'
_cell_volume   380.05091725
_cell_formula_units_Z   1
loop_
 _symmetry_equiv_pos_site_id
 _symmetry_equiv_pos_as_xyz
  1  'x, y, z'
loop_
 _atom_site_type_symbol
 _atom_site_label
 _atom_site_symmetry_multiplicity
 _atom_site_fract_x
 _atom_site_fract_y
 _atom_site_fract_z
 _atom_site_occupancy
  Fe  Fe0  1  0.98801900  0.98801900  0.00000000  1
  Fe  Fe1  1  0.52828500  0.52828500  0.50000000  1
  Fe  Fe2  1  0.59887800  0.39924100  0.00000000  1
  Fe  Fe3  1  0.10016900  0.90009600  0.50000000  1
  Fe  Fe4  1  0.70008300  0.29988600  0.50000000  1
  Fe  Fe5  1  0.19990200  0.79988400  0.00000000  1
  Fe  Fe6  1  0.79988400  0.19990200  0.00000000  1
  Fe  Fe7  1  0.90009600  0.10016900  0.50000000  1
  Fe  Fe8  1  0.29988600  0.70008300  0.50000000  1
  Fe  Fe9  1  0.39924100  0.59887800  0.00000000  1
  O  O0  1  0.68576000  0.68576000  0.00000000  1
  F  F0  1  0.30611300  0.30611300  0.00000000  1
  F  F1  1  0.89744000  0.69712900  0.00000000  1
  F  F2  1  0.55135700  0.43384400  0.50000000  1
  F  F3  1  0.04709000  0.96586800  0.50000000  1
  F  F4  1  0.64082400  0.36039500  0.50000000  1
  F  F5  1  0.30243800  0.10014900  0.00000000  1
  F  F6  1  0.90089600  0.50067100  0.00000000  1
  F  F7  1  0.49905700  0.09893800  0.00000000  1
  F  F8  1  0.15873900  0.83893400  0.50000000  1
  F  F9  1  0.75975200  0.24016000  0.50000000  1
  F  F10  1  0.24016000  0.75975200  0.50000000  1
  F  F11  1  0.83893400  0.15873900  0.50000000  1
  F  F12  1  0.50067100  0.90089600  0.00000000  1
  F  F13  1  0.09893800  0.49905700  0.00000000  1
  F  F14  1  0.69712900  0.89744000  0.00000000  1
  F  F15  1  0.36039500  0.64082400  0.50000000  1
  F  F16  1  0.96586800  0.04709000  0.50000000  1
  F  F17  1  0.43384400  0.55135700  0.50000000  1
  F  F18  1  0.10014900  0.30243800  0.00000000  1
loop_
_geom_bond_atom_site_label_1
_geom_bond_atom_site_label_2
_geom_bond_distance
_geom_bond_site_symmetry_2
Fe0 O0 2.056399 1_555
Fe1 O0 1.954849 1_556
Fe1 O0 1.954849 1_555
F0 Fe0 2.164132 1_445
F0 Fe1 2.226731 1_554
F0 Fe1 2.226731 1_555
F1 Fe2 2.028987 1_555
F1 Fe3 2.139671 1_654
F1 Fe3 2.139671 1_655
F2 Fe1 2.021969 1_555
F2 Fe2 2.154871 1_556
F2 Fe2 2.154871 1_555
F3 Fe3 2.030656 1_555
F3 Fe0 2.148096 1_456
F3 Fe0 2.148096 1_455
F4 Fe4 2.045865 1_555
F4 Fe2 2.139703 1_555
F4 Fe2 2.139703 1_556
F5 Fe2 2.026338 1_555
F5 Fe3 2.132618 1_544
F5 Fe3 2.132618 1_545
F6 Fe5 2.034975 1_655
F6 Fe4 2.130702 1_555
F6 Fe4 2.130702 1_554
F7 Fe5 2.034938 1_545
F7 Fe4 2.131523 1_555
F7 Fe4 2.131523 1_554
F8 Fe3 2.045265 1_555
F8 Fe5 2.133323 1_555
F8 Fe5 2.133323 1_556
F9 Fe4 2.039489 1_555
F9 Fe6 2.135254 1_555
F9 Fe6 2.135254 1_556
F10 Fe8 2.039489 1_555
F10 Fe5 2.135254 1_556
F10 Fe5 2.135254 1_555
F11 Fe7 2.045265 1_555
F11 Fe6 2.133323 1_556
F11 Fe6 2.133323 1_555
F12 Fe6 2.034975 1_565
F12 Fe8 2.130702 1_554
F12 Fe8 2.130702 1_555
F13 Fe6 2.034938 1_455
F13 Fe8 2.131523 1_554
F13 Fe8 2.131523 1_555
F14 Fe9 2.028987 1_555
F14 Fe7 2.139671 1_565
F14 Fe7 2.139671 1_564
F15 Fe8 2.045865 1_555
F15 Fe9 2.139703 1_555
F15 Fe9 2.139703 1_556
F16 Fe7 2.030656 1_555
F16 Fe0 2.148096 1_546
F16 Fe0 2.148096 1_545
F17 Fe1 2.021969 1_555
F17 Fe9 2.154871 1_555
F17 Fe9 2.154871 1_556
F18 Fe9 2.026338 1_555
F18 Fe7 2.132618 1_454
F18 Fe7 2.132618 1_455
