# generated using pymatgen
data_GdMn2O5
_symmetry_space_group_name_H-M   'P 1'
_cell_length_a   5.69780780
_cell_length_b   7.33027000
_cell_length_c   8.54541434
_cell_angle_alpha   90.00000000
_cell_angle_beta   90.00000000
_cell_angle_gamma   90.00000000
_symmetry_Int_Tables_number   1
_chemical_formula_structural   GdMn2O5
_chemical_formula_sum   'Gd4 Mn8 O20'
_cell_volume   356.91178810
_cell_formula_units_Z   4
loop_
 _symmetry_equiv_pos_site_id
 _symmetry_equiv_pos_as_xyz
  1  'x, y, z'
loop_
 _atom_site_type_symbol
 _atom_site_label
 _atom_site_symmetry_multiplicity
 _atom_site_fract_x
 _atom_site_fract_y
 _atom_site_fract_z
 _atom_site_occupancy
  Gd  Gd0  1  0.00000000  0.86132482  0.82801077  1
  Gd  Gd1  1  0.00000000  0.13867518  0.17198923  1
  Gd  Gd2  1  0.00000000  0.36132482  0.67198923  1
  Gd  Gd3  1  0.00000000  0.63867518  0.32801077  1
  Mn  Mn0  1  0.74455696  0.00000000  0.50000000  1
  Mn  Mn1  1  0.50000000  0.58879636  0.64992080  1
  Mn  Mn2  1  0.50000000  0.41120364  0.35007920  1
  Mn  Mn3  1  0.50000000  0.91120364  0.14992080  1
  Mn  Mn4  1  0.50000000  0.08879636  0.85007920  1
  Mn  Mn5  1  0.25544304  0.50000000  -0.00000000  1
  Mn  Mn6  1  0.74455696  0.50000000  -0.00000000  1
  Mn  Mn7  1  0.25544304  0.00000000  0.50000000  1
  O  O0  1  0.00000000  0.33869073  0.94587009  1
  O  O1  1  0.72554712  0.00000000  -0.00000000  1
  O  O2  1  0.27445288  0.00000000  -0.00000000  1
  O  O3  1  0.50000000  0.15343736  0.43542022  1
  O  O4  1  0.00000000  0.16130927  0.44587009  1
  O  O5  1  0.72554712  0.50000000  0.50000000  1
  O  O6  1  0.00000000  0.83869073  0.55412991  1
  O  O7  1  0.75312929  0.60279297  0.79380831  1
  O  O8  1  0.24687071  0.10279297  0.70619169  1
  O  O9  1  0.50000000  0.65343736  0.06457978  1
  O  O10  1  0.50000000  0.34656264  0.93542022  1
  O  O11  1  0.00000000  0.66130927  0.05412991  1
  O  O12  1  0.75312929  0.89720703  0.29380831  1
  O  O13  1  0.75312929  0.39720703  0.20619169  1
  O  O14  1  0.75312929  0.10279297  0.70619169  1
  O  O15  1  0.24687071  0.60279297  0.79380831  1
  O  O16  1  0.27445288  0.50000000  0.50000000  1
  O  O17  1  0.24687071  0.89720703  0.29380831  1
  O  O18  1  0.24687071  0.39720703  0.20619169  1
  O  O19  1  0.50000000  0.84656264  0.56457978  1
loop_
_geom_bond_atom_site_label_1
_geom_bond_atom_site_label_2
_geom_bond_distance
_geom_bond_site_symmetry_2
Gd0 O6 2.346299 1_555
Gd0 O1 2.374617 1_466
Gd0 O2 2.374617 1_566
Gd0 O15 2.378118 1_555
Gd0 O7 2.378118 1_455
Gd0 O11 2.425564 1_556
Gd0 O8 2.489026 1_565
Gd0 O14 2.489026 1_465
Gd1 O4 2.346299 1_555
Gd1 O2 2.374617 1_555
Gd1 O1 2.374617 1_455
Gd1 O18 2.378118 1_555
Gd1 O13 2.378118 1_455
Gd1 O0 2.425564 1_554
Gd1 O17 2.489026 1_545
Gd1 O12 2.489026 1_445
Gd2 O0 2.346299 1_555
Gd2 O16 2.374617 1_555
Gd2 O5 2.374617 1_455
Gd2 O8 2.378118 1_555
Gd2 O14 2.378118 1_455
Gd2 O4 2.425564 1_555
Gd2 O15 2.489026 1_555
Gd2 O7 2.489026 1_455
Gd3 O11 2.346299 1_555
Gd3 O16 2.374617 1_555
Gd3 O5 2.374617 1_455
Gd3 O17 2.378118 1_555
Gd3 O12 2.378118 1_455
Gd3 O6 2.425564 1_555
Gd3 O18 2.489026 1_555
Gd3 O13 2.489026 1_455
Mn0 O19 1.873834 1_545
Mn0 O3 1.873834 1_555
Mn0 O12 1.916969 1_545
Mn0 O14 1.916969 1_555
Mn0 O6 1.931453 1_645
Mn0 O4 1.931453 1_655
Mn1 O7 1.898043 1_555
Mn1 O15 1.898043 1_555
Mn1 O5 1.927829 1_555
Mn1 O16 1.927829 1_555
Mn1 O19 2.025349 1_555
Mn2 O13 1.898043 1_555
Mn2 O18 1.898043 1_555
Mn2 O5 1.927829 1_555
Mn2 O16 1.927829 1_555
Mn2 O3 2.025349 1_555
Mn3 O12 1.898043 1_555
Mn3 O17 1.898043 1_555
Mn3 O2 1.927829 1_565
Mn3 O1 1.927829 1_565
Mn3 O9 2.025349 1_555
Mn4 O14 1.898043 1_555
Mn4 O8 1.898043 1_555
Mn4 O2 1.927829 1_556
Mn4 O1 1.927829 1_556
Mn4 O10 2.025349 1_555
Mn5 O10 1.873834 1_554
Mn5 O9 1.873834 1_555
Mn5 O18 1.916969 1_555
Mn5 O15 1.916969 1_554
Mn5 O11 1.931453 1_555
Mn5 O0 1.931453 1_554
Mn6 O9 1.873834 1_555
Mn6 O10 1.873834 1_554
Mn6 O13 1.916969 1_555
Mn6 O7 1.916969 1_554
Mn6 O11 1.931453 1_655
Mn6 O0 1.931453 1_654
Mn7 O19 1.873834 1_545
Mn7 O3 1.873834 1_555
Mn7 O17 1.916969 1_545
Mn7 O8 1.916969 1_555
Mn7 O6 1.931453 1_545
Mn7 O4 1.931453 1_555
