# generated using pymatgen
data_Li4V3P8O29
_symmetry_space_group_name_H-M   'P 1'
_cell_length_a   9.75412500
_cell_length_b   9.78641037
_cell_length_c   14.20973372
_cell_angle_alpha   90.13884868
_cell_angle_beta   89.96311792
_cell_angle_gamma   119.86339856
_symmetry_Int_Tables_number   1
_chemical_formula_structural   Li4V3P8O29
_chemical_formula_sum   'Li8 V6 P16 O58'
_cell_volume   1176.31355198
_cell_formula_units_Z   2
loop_
 _symmetry_equiv_pos_site_id
 _symmetry_equiv_pos_as_xyz
  1  'x, y, z'
loop_
 _atom_site_type_symbol
 _atom_site_label
 _atom_site_symmetry_multiplicity
 _atom_site_fract_x
 _atom_site_fract_y
 _atom_site_fract_z
 _atom_site_occupancy
  Li  Li0  1  0.30904000  0.22623200  0.44029400  1
  Li  Li1  1  0.77726500  0.08098300  0.44506800  1
  Li  Li2  1  0.91007400  0.23757600  0.93840900  1
  Li  Li3  1  0.76913800  0.66354700  0.94194500  1
  Li  Li4  1  0.90486000  0.67760800  0.44387500  1
  Li  Li5  1  0.22572900  0.90896400  0.56364000  1
  Li  Li6  1  0.67469300  0.90596900  0.05679000  1
  Li  Li7  1  0.08390600  0.01972100  0.98739400  1
  V  V0  1  0.99816500  0.43265500  0.74873500  1
  V  V1  1  0.00175100  0.56639300  0.24574300  1
  V  V2  1  0.43130200  0.43542300  0.24699500  1
  V  V3  1  0.56461300  0.56412800  0.75022400  1
  V  V4  1  0.43239700  0.00415700  0.75517600  1
  V  V5  1  0.56512400  0.00002200  0.25134900  1
  P  P0  1  0.30883500  0.08474500  0.16148600  1
  P  P1  1  0.31720900  0.23131000  0.65625800  1
  P  P2  1  0.76842000  0.08673800  0.66034400  1
  P  P3  1  0.66956900  0.33739400  0.87023600  1
  P  P4  1  0.66760400  0.33663000  0.36774100  1
  P  P5  1  0.91254600  0.22800100  0.15499300  1
  P  P6  1  0.08514100  0.31377800  0.33760200  1
  P  P7  1  0.77091600  0.68550700  0.15836300  1
  P  P8  1  0.22259300  0.30754400  0.83921900  1
  P  P9  1  0.90904000  0.68083200  0.65839800  1
  P  P10  1  0.08316400  0.77495900  0.83984000  1
  P  P11  1  0.33180600  0.66792300  0.63276100  1
  P  P12  1  0.33483700  0.66661100  0.13025300  1
  P  P13  1  0.22902100  0.90958500  0.34245800  1
  P  P14  1  0.68396200  0.77045400  0.34079700  1
  P  P15  1  0.68541600  0.91154800  0.84086900  1
  O  O0  1  0.24097800  0.99427900  0.43313900  1
  O  O1  1  0.33421800  0.08261200  0.66283100  1
  O  O2  1  0.20328000  0.20545900  0.92057200  1
  O  O3  1  0.34486200  0.25876800  0.17171500  1
  O  O4  1  0.46330900  0.07992600  0.16969500  1
  O  O5  1  0.51953300  0.19606000  0.82883500  1
  O  O6  1  0.61608600  0.09354900  0.68102900  1
  O  O7  1  0.77564900  0.99719500  0.92818100  1
  O  O8  1  0.74388700  0.08331100  0.16423400  1
  O  O9  1  0.51669400  0.33508100  0.32672500  1
  O  O10  1  0.47973400  0.38053700  0.68134800  1
  O  O11  1  0.66845200  0.18663200  0.32865300  1
  O  O12  1  0.68535100  0.35271100  0.97444800  1
  O  O13  1  0.67226000  0.34479200  0.47242800  1
  O  O14  1  0.81592600  0.32719300  0.82846200  1
  O  O15  1  0.61574100  0.52659900  0.17332900  1
  O  O16  1  0.67954500  0.49345600  0.82803400  1
  O  O17  1  0.91317000  0.25684000  0.67081900  1
  O  O18  1  0.01099000  0.21418100  0.24112800  1
  O  O19  1  0.99039000  0.22511600  0.42030100  1
  O  O20  1  0.98479700  0.22779400  0.06303800  1
  O  O21  1  0.90743800  0.38304000  0.17413500  1
  O  O22  1  0.81732700  0.48541100  0.32387400  1
  O  O23  1  0.08435100  0.34514300  0.83726600  1
  O  O24  1  0.90030200  0.52052500  0.67804500  1
  O  O25  1  0.74116900  0.65810600  0.66528100  1
  O  O26  1  0.20139700  0.21437800  0.74138500  1
  O  O27  1  0.25460200  0.24743000  0.56479300  1
  O  O28  1  0.77186600  0.76099900  0.42315500  1
  O  O29  1  0.25554600  0.33895600  0.33894100  1
  O  O30  1  0.09207200  0.47433600  0.32071800  1
  O  O31  1  0.91408800  0.65905800  0.16593100  1
  O  O32  1  0.18094700  0.52408900  0.68115700  1
  O  O33  1  0.07618400  0.61476200  0.83083800  1
  O  O34  1  0.99570100  0.79349200  0.92054600  1
  O  O35  1  0.99443400  0.75253000  0.56812600  1
  O  O36  1  0.00761700  0.79685100  0.74254800  1
  O  O37  1  0.08039000  0.74247000  0.33919500  1
  O  O38  1  0.32925500  0.51626200  0.17793200  1
  O  O39  1  0.38439600  0.46192500  0.83069300  1
  O  O40  1  0.18654300  0.66847900  0.17625400  1
  O  O41  1  0.32792300  0.65441600  0.02631900  1
  O  O42  1  0.32907400  0.65263300  0.52922200  1
  O  O43  1  0.33125600  0.81821400  0.66777300  1
  O  O44  1  0.52400000  0.61862600  0.32187400  1
  O  O45  1  0.47379900  0.65983600  0.68285300  1
  O  O46  1  0.25621200  0.91087500  0.83519300  1
  O  O47  1  0.20826300  0.00412400  0.25720300  1
  O  O48  1  0.20818900  0.00600900  0.07951400  1
  O  O49  1  0.37828000  0.89744900  0.32214400  1
  O  O50  1  0.48855500  0.81163200  0.16792700  1
  O  O51  1  0.52772400  0.90687200  0.82972900  1
  O  O52  1  0.66180000  0.74159900  0.83914300  1
  O  O53  1  0.76797000  0.76312100  0.06764700  1
  O  O54  1  0.78720800  0.79726600  0.24459400  1
  O  O55  1  0.66092900  0.91596400  0.34180500  1
  O  O56  1  0.76619400  0.01213000  0.56989100  1
  O  O57  1  0.79128900  0.99476600  0.74847700  1
loop_
_geom_bond_atom_site_label_1
_geom_bond_atom_site_label_2
_geom_bond_distance
_geom_bond_site_symmetry_2
Li0 O27 1.887170 1_555
Li0 O0 2.025366 1_545
Li0 O29 2.036004 1_555
Li0 O9 2.386846 1_555
Li1 O19 1.875200 1_555
Li1 O56 1.882764 1_555
Li1 O55 2.052916 1_545
Li1 O11 2.456701 1_555
Li2 O20 1.936133 1_556
Li2 O7 2.049695 1_545
Li2 O23 2.070161 1_655
Li2 O14 2.205428 1_555
Li3 O34 1.948257 1_555
Li3 O53 2.035387 1_556
Li3 O52 2.148806 1_555
Li3 O16 2.166711 1_555
Li4 O28 1.868554 1_555
Li4 O35 1.943186 1_555
Li4 O37 2.113272 1_655
Li4 O22 2.358286 1_555
Li5 O35 1.999591 1_455
Li5 O0 2.010334 1_555
Li5 O1 2.047876 1_565
Li5 O43 2.226317 1_555
Li6 O53 2.018368 1_555
Li6 O7 2.058297 1_554
Li6 O8 2.149549 1_565
Li6 O50 2.230882 1_555
Li7 O48 1.834664 1_556
Li7 O2 1.860276 1_555
Li7 O34 2.153624 1_445
O0 P13 1.503234 1_555
O1 P1 1.547587 1_555
O1 V4 1.991784 1_555
O2 P8 1.479128 1_555
O3 P0 1.564575 1_555
O3 V2 1.839717 1_555
O4 P0 1.535308 1_555
O4 V5 1.929580 1_555
O5 P3 1.543462 1_555
O5 V4 1.935706 1_555
O6 P2 1.548117 1_555
O6 V4 1.877967 1_555
O7 P15 1.509364 1_555
O8 P5 1.552248 1_555
O8 V5 1.955469 1_555
O9 P4 1.576555 1_555
O9 V2 1.939786 1_555
O10 P1 1.570232 1_555
O10 V3 1.839182 1_555
O11 P4 1.572119 1_555
O11 V5 1.927768 1_555
O12 P3 1.488370 1_555
O13 P4 1.489033 1_555
O14 P3 1.594011 1_555
O14 V0 1.919505 1_555
O15 P7 1.552971 1_555
O15 V2 1.879345 1_555
O16 P3 1.599391 1_555
O16 V3 1.932630 1_555
O17 P2 1.563721 1_555
O17 V0 1.856065 1_555
O18 P5 1.603140 1_455
O18 P6 1.626403 1_555
O19 P6 1.480847 1_655
O20 P5 1.484669 1_555
O21 P5 1.565841 1_555
O21 V1 1.857385 1_655
O22 P4 1.589653 1_555
O22 V1 1.917974 1_655
O23 P8 1.564814 1_555
O23 V0 1.935547 1_455
O24 P9 1.554144 1_555
O24 V0 1.866164 1_555
O25 P9 1.541899 1_555
O25 V3 1.921959 1_555
O26 P1 1.606102 1_555
O26 P8 1.616538 1_555
O27 P1 1.478165 1_555
O28 P14 1.481262 1_555
O29 P6 1.554341 1_555
O29 V2 1.982066 1_555
O30 P6 1.557912 1_555
O30 V1 1.875928 1_555
O31 P7 1.545683 1_555
O31 V1 1.902158 1_655
O32 P11 1.600081 1_555
O32 V0 1.820622 1_455
O33 P10 1.539997 1_555
O33 V0 1.938246 1_455
O34 P10 1.492554 1_655
O35 P9 1.500836 1_555
O36 P9 1.597246 1_455
O36 P10 1.631004 1_555
O37 P13 1.554727 1_555
O37 V1 1.998744 1_555
O38 P12 1.597477 1_555
O38 V2 1.835476 1_555
O39 P8 1.553766 1_555
O39 V3 1.910482 1_555
O40 P12 1.595295 1_555
O40 V1 1.852352 1_555
O41 P12 1.480273 1_555
O42 P11 1.477404 1_555
O43 P11 1.554070 1_555
O43 V4 2.007471 1_565
O44 P14 1.550608 1_555
O44 V2 1.881950 1_555
O45 P11 1.594331 1_555
O45 V3 1.846649 1_555
O46 P10 1.545028 1_555
O46 V4 1.876086 1_565
O47 P13 1.599032 1_545
O47 P0 1.633232 1_555
O48 P0 1.469031 1_555
O49 P13 1.545490 1_555
O49 V5 1.876642 1_565
O50 P12 1.557926 1_555
O50 V5 1.995332 1_565
O51 P15 1.524215 1_555
O51 V4 1.944498 1_565
O52 P15 1.561454 1_555
O52 V3 1.965421 1_555
O53 P7 1.505304 1_555
O54 P7 1.594851 1_555
O54 P14 1.639695 1_555
O55 P14 1.548231 1_555
O55 V5 1.993581 1_565
O56 P2 1.471500 1_555
O57 P15 1.618399 1_555
O57 P2 1.622972 1_565
