# generated using pymatgen
data_NaMnPCO7
_symmetry_space_group_name_H-M   'P 1'
_cell_length_a   8.10642200
_cell_length_b   8.12357198
_cell_length_c   10.33602927
_cell_angle_alpha   107.50231205
_cell_angle_beta   107.50910263
_cell_angle_gamma   100.47186528
_symmetry_Int_Tables_number   1
_chemical_formula_structural   NaMnPCO7
_chemical_formula_sum   'Na4 Mn4 P4 C4 O28'
_cell_volume   590.69071343
_cell_formula_units_Z   4
loop_
 _symmetry_equiv_pos_site_id
 _symmetry_equiv_pos_as_xyz
  1  'x, y, z'
loop_
 _atom_site_type_symbol
 _atom_site_label
 _atom_site_symmetry_multiplicity
 _atom_site_fract_x
 _atom_site_fract_y
 _atom_site_fract_z
 _atom_site_occupancy
  Na  Na0  1  0.26727400  0.22622800  0.24561100  1
  Na  Na1  1  0.97542500  0.51488000  0.24502600  1
  Na  Na2  1  0.02457500  0.48512000  0.75497400  1
  Na  Na3  1  0.73272600  0.77377200  0.75438900  1
  Mn  Mn0  1  0.93101500  0.18041900  0.34354900  1
  Mn  Mn1  1  0.44361800  0.69393700  0.33932900  1
  Mn  Mn2  1  0.55638200  0.30606300  0.66067100  1
  Mn  Mn3  1  0.06898500  0.81958100  0.65645100  1
  P  P0  1  0.20069500  0.94824600  0.43005400  1
  P  P1  1  0.69667700  0.44865500  0.43300900  1
  P  P2  1  0.30332300  0.55134500  0.56699100  1
  P  P3  1  0.79930500  0.05175400  0.56994600  1
  C  C0  1  0.77466900  0.03125800  0.07760000  1
  C  C1  1  0.28079800  0.52487700  0.07560000  1
  C  C2  1  0.71920200  0.47512300  0.92440000  1
  C  C3  1  0.22533100  0.96874200  0.92240000  1
  O  O0  1  0.30552800  0.04587800  0.05645300  1
  O  O1  1  0.80219800  0.56074500  0.05653200  1
  O  O2  1  0.42232000  0.66832300  0.13711500  1
  O  O3  1  0.92117800  0.17462100  0.14427300  1
  O  O4  1  0.72794700  0.98296600  0.17481100  1
  O  O5  1  0.23600700  0.48241300  0.17863600  1
  O  O6  1  0.27138300  0.82757000  0.32547000  1
  O  O7  1  0.09026400  0.03310900  0.33116600  1
  O  O8  1  0.78589500  0.34239900  0.33594600  1
  O  O9  1  0.58192500  0.52525700  0.33035400  1
  O  O10  1  0.15820400  0.40416800  0.42346700  1
  O  O11  1  0.56964900  0.32185400  0.47277700  1
  O  O12  1  0.07169600  0.82092400  0.46916400  1
  O  O13  1  0.65230400  0.90872800  0.42874100  1
  O  O14  1  0.34769600  0.09127200  0.57125900  1
  O  O15  1  0.43035100  0.67814600  0.52722300  1
  O  O16  1  0.92830400  0.17907600  0.53083600  1
  O  O17  1  0.84179600  0.59583200  0.57653300  1
  O  O18  1  0.21410500  0.65760100  0.66405400  1
  O  O19  1  0.41807500  0.47474300  0.66964600  1
  O  O20  1  0.72861700  0.17243000  0.67453000  1
  O  O21  1  0.90973600  0.96689100  0.66883400  1
  O  O22  1  0.76399300  0.51758700  0.82136400  1
  O  O23  1  0.27205300  0.01703400  0.82518900  1
  O  O24  1  0.57768000  0.33167700  0.86288500  1
  O  O25  1  0.07882200  0.82537900  0.85572700  1
  O  O26  1  0.69447200  0.95412200  0.94354700  1
  O  O27  1  0.19780200  0.43925500  0.94346800  1
loop_
_geom_bond_atom_site_label_1
_geom_bond_atom_site_label_2
_geom_bond_distance
_geom_bond_site_symmetry_2
Na0 O0 2.207319 1_555
Na0 O5 2.413983 1_555
Na0 O7 2.466135 1_555
Na0 O10 2.468794 1_555
Na0 O3 2.585409 1_455
Na0 O11 2.621539 1_555
Na0 O9 2.880577 1_555
Na1 O1 2.210686 1_555
Na1 O5 2.443051 1_655
Na1 O8 2.466818 1_555
Na1 O10 2.498753 1_655
Na1 O3 2.543505 1_555
Na1 O12 2.626709 1_655
Na1 O6 2.865960 1_655
Na2 O27 2.210686 1_555
Na2 O22 2.443051 1_455
Na2 O18 2.466818 1_555
Na2 O17 2.498753 1_455
Na2 O25 2.543505 1_555
Na2 O16 2.626709 1_455
Na2 O20 2.865960 1_455
Na3 O26 2.207319 1_555
Na3 O22 2.413983 1_555
Na3 O21 2.466135 1_555
Na3 O17 2.468794 1_555
Na3 O25 2.585409 1_655
Na3 O15 2.621539 1_555
Na3 O19 2.880577 1_555
Mn0 O7 1.919326 1_655
Mn0 O8 1.921158 1_555
Mn0 O16 1.945804 1_555
Mn0 O4 1.988587 1_545
Mn0 O3 2.022989 1_555
Mn0 O10 2.083901 1_655
Mn1 O6 1.916390 1_555
Mn1 O9 1.920392 1_555
Mn1 O13 1.943411 1_555
Mn1 O2 1.987411 1_555
Mn1 O15 2.017474 1_555
Mn1 O5 2.023339 1_555
Mn2 O20 1.916390 1_555
Mn2 O19 1.920392 1_555
Mn2 O14 1.943411 1_555
Mn2 O24 1.987411 1_555
Mn2 O11 2.017474 1_555
Mn2 O22 2.023339 1_555
Mn3 O21 1.919326 1_455
Mn3 O18 1.921158 1_555
Mn3 O12 1.945804 1_555
Mn3 O23 1.988587 1_565
Mn3 O25 2.022989 1_555
Mn3 O17 2.083901 1_455
C0 O26 1.234015 1_544
C0 O4 1.311105 1_545
C0 O3 1.328073 1_555
C1 O27 1.227712 1_554
C1 O2 1.306830 1_555
C1 O5 1.339083 1_555
C2 O1 1.227712 1_556
C2 O24 1.306830 1_555
C2 O22 1.339083 1_555
C3 O0 1.234015 1_566
C3 O23 1.311105 1_565
C3 O25 1.328073 1_555
O6 P0 1.548363 1_555
O7 P0 1.555297 1_545
O8 P1 1.554768 1_555
O9 P1 1.546622 1_555
O10 P2 1.544628 1_555
O11 P1 1.553760 1_555
O12 P0 1.561864 1_555
O13 P3 1.526549 1_565
O14 P0 1.526549 1_545
O15 P2 1.553760 1_555
O16 P3 1.561864 1_555
O17 P1 1.544628 1_555
O18 P2 1.554768 1_555
O19 P2 1.546622 1_555
O20 P3 1.548363 1_555
O21 P3 1.555297 1_565
