# generated using pymatgen
data_Li4MnCrO6
_symmetry_space_group_name_H-M   'P 1'
_cell_length_a   5.00238019
_cell_length_b   5.00272890
_cell_length_c   9.74271659
_cell_angle_alpha   85.40199054
_cell_angle_beta   94.59144357
_cell_angle_gamma   60.60794875
_symmetry_Int_Tables_number   1
_chemical_formula_structural   Li4MnCrO6
_chemical_formula_sum   'Li8 Mn2 Cr2 O12'
_cell_volume   209.73904816
_cell_formula_units_Z   2
loop_
 _symmetry_equiv_pos_site_id
 _symmetry_equiv_pos_as_xyz
  1  'x, y, z'
loop_
 _atom_site_type_symbol
 _atom_site_label
 _atom_site_symmetry_multiplicity
 _atom_site_fract_x
 _atom_site_fract_y
 _atom_site_fract_z
 _atom_site_occupancy
  Li  Li0  1  0.00061800  0.49990700  0.00005000  1
  Li  Li1  1  0.49996000  0.00058900  0.49994800  1
  Li  Li2  1  0.24711700  0.24709700  0.74999800  1
  Li  Li3  1  0.75324300  0.75329500  0.24999100  1
  Li  Li4  1  0.15062000  0.67047900  0.49916000  1
  Li  Li5  1  0.32907300  0.84932000  0.99926700  1
  Li  Li6  1  0.67044600  0.15062700  0.00085300  1
  Li  Li7  1  0.84934600  0.32902200  0.50072400  1
  Mn  Mn0  1  0.91772900  0.91771600  0.74999700  1
  Mn  Mn1  1  0.08173100  0.08196900  0.24998100  1
  Cr  Cr0  1  0.42118800  0.42111900  0.25001600  1
  Cr  Cr1  1  0.57948900  0.57944700  0.74999700  1
  O  O0  1  0.14593400  0.35377600  0.36365200  1
  O  O1  1  0.35379900  0.14592000  0.13635300  1
  O  O2  1  0.64639700  0.85407100  0.86345300  1
  O  O3  1  0.85409200  0.64639000  0.63654100  1
  O  O4  1  0.28703900  0.57432500  0.86131800  1
  O  O5  1  0.57432500  0.28704600  0.63867800  1
  O  O6  1  0.42560800  0.71253900  0.36126900  1
  O  O7  1  0.71247500  0.42554400  0.13876000  1
  O  O8  1  0.06572400  0.79299800  0.13656600  1
  O  O9  1  0.20733800  0.93373900  0.63691400  1
  O  O10  1  0.79296700  0.06576100  0.36344000  1
  O  O11  1  0.93374300  0.20730500  0.86307200  1
loop_
_geom_bond_atom_site_label_1
_geom_bond_atom_site_label_2
_geom_bond_distance
_geom_bond_site_symmetry_2
Li0 O1 2.048717 1_555
Li0 O2 2.052535 1_454
Li0 O8 2.176470 1_555
Li0 O11 2.181292 1_454
Li0 O4 2.184337 1_554
Li0 O7 2.190879 1_455
Li1 O0 2.048770 1_555
Li1 O3 2.052410 1_545
Li1 O10 2.176031 1_555
Li1 O9 2.181044 1_545
Li1 O5 2.184544 1_555
Li1 O6 2.190484 1_545
Li2 O11 2.063568 1_455
Li2 O9 2.063724 1_545
Li2 O5 2.113278 1_555
Li2 O4 2.113505 1_555
Li2 O2 2.126138 1_545
Li2 O3 2.126174 1_455
Li3 O8 2.061596 1_655
Li3 O10 2.061909 1_565
Li3 O6 2.116642 1_555
Li3 O7 2.117109 1_555
Li3 O1 2.126318 1_565
Li3 O0 2.126709 1_655
Li4 O9 2.050726 1_555
Li4 O6 2.067850 1_555
Li4 O3 2.115134 1_455
Li4 O10 2.142221 1_465
Li4 O0 2.149568 1_555
Li4 O5 2.269262 1_555
Li5 O8 2.047011 1_556
Li5 O4 2.068406 1_555
Li5 O1 2.114763 1_566
Li5 O11 2.145084 1_465
Li5 O2 2.153937 1_555
Li5 O7 2.269276 1_556
Li6 O11 2.050787 1_554
Li6 O7 2.067813 1_555
Li6 O2 2.115493 1_544
Li6 O8 2.142130 1_645
Li6 O1 2.149128 1_555
Li6 O4 2.269288 1_554
Li7 O10 2.046869 1_555
Li7 O5 2.068245 1_555
Li7 O0 2.114479 1_655
Li7 O9 2.144973 1_645
Li7 O3 2.154323 1_555
Li7 O6 2.269202 1_555
Mn0 O9 1.916884 1_655
Mn0 O11 1.916918 1_565
Mn0 O2 1.942543 1_555
Mn0 O3 1.942676 1_555
Mn0 O4 1.950833 1_655
Mn0 O5 1.950905 1_565
Mn1 O10 1.916069 1_455
Mn1 O8 1.916461 1_545
Mn1 O0 1.947249 1_555
Mn1 O1 1.947311 1_555
Mn1 O7 1.950650 1_455
Mn1 O6 1.951896 1_545
Cr0 O7 1.891907 1_555
Cr0 O6 1.892606 1_555
Cr0 O0 1.968436 1_555
Cr0 O1 1.968653 1_555
Cr0 O10 1.987729 1_555
Cr0 O8 1.988271 1_555
Cr1 O4 1.898295 1_555
Cr1 O5 1.898334 1_555
Cr1 O3 1.963738 1_555
Cr1 O2 1.963922 1_555
Cr1 O11 1.985018 1_555
Cr1 O9 1.985139 1_555
