# generated using pymatgen
data_LiCo(CO3)2
_symmetry_space_group_name_H-M   'P 1'
_cell_length_a   6.47962906
_cell_length_b   7.80491503
_cell_length_c   9.94338370
_cell_angle_alpha   90.01004757
_cell_angle_beta   72.26543154
_cell_angle_gamma   90.00005012
_symmetry_Int_Tables_number   1
_chemical_formula_structural   LiCo(CO3)2
_chemical_formula_sum   'Li4 Co4 C8 O24'
_cell_volume   478.96900631
_cell_formula_units_Z   4
loop_
 _symmetry_equiv_pos_site_id
 _symmetry_equiv_pos_as_xyz
  1  'x, y, z'
loop_
 _atom_site_type_symbol
 _atom_site_label
 _atom_site_symmetry_multiplicity
 _atom_site_fract_x
 _atom_site_fract_y
 _atom_site_fract_z
 _atom_site_occupancy
  Li  Li0  1  0.44152700  0.05545900  0.17791900  1
  Li  Li1  1  0.94151300  0.05546300  0.67791000  1
  Li  Li2  1  0.55873900  0.55541100  0.32198600  1
  Li  Li3  1  0.05874400  0.55540800  0.82200700  1
  Co  Co0  1  0.50569000  0.99790400  0.50624200  1
  Co  Co1  1  0.49425700  0.49789300  0.99377700  1
  Co  Co2  1  0.00567400  0.99789600  0.00622100  1
  Co  Co3  1  0.99428500  0.49788900  0.49379700  1
  C  C0  1  0.67460900  0.26088100  0.44330900  1
  C  C1  1  0.17460000  0.26088500  0.94329500  1
  C  C2  1  0.32536400  0.76090200  0.05672500  1
  C  C3  1  0.82536400  0.76091300  0.55674600  1
  C  C4  1  0.19883100  0.24285800  0.42736100  1
  C  C5  1  0.69881100  0.24284000  0.92734400  1
  C  C6  1  0.80113200  0.74288200  0.07262400  1
  C  C7  1  0.30114800  0.74288300  0.57264400  1
  O  O0  1  0.72697600  0.12377100  0.36590400  1
  O  O1  1  0.22700700  0.12376000  0.86588800  1
  O  O2  1  0.27304200  0.62389700  0.13419400  1
  O  O3  1  0.77297800  0.62386600  0.63419600  1
  O  O4  1  0.75123800  0.40945500  0.40508800  1
  O  O5  1  0.25122500  0.40947700  0.90508100  1
  O  O6  1  0.24868900  0.90955600  0.09495300  1
  O  O7  1  0.74868200  0.90957600  0.59497600  1
  O  O8  1  0.97308700  0.72961800  0.43612300  1
  O  O9  1  0.47297800  0.72959100  0.93609500  1
  O  O10  1  0.02682800  0.22964300  0.06391000  1
  O  O11  1  0.52689000  0.22964700  0.56392400  1
  O  O12  1  0.24404800  0.38944800  0.35971700  1
  O  O13  1  0.74400500  0.38944700  0.85968200  1
  O  O14  1  0.75589700  0.88957400  0.14020200  1
  O  O15  1  0.25592500  0.88958700  0.64023200  1
  O  O16  1  0.29691900  0.10420300  0.38229700  1
  O  O17  1  0.79685700  0.10421200  0.88228400  1
  O  O18  1  0.70314700  0.60428900  0.11767200  1
  O  O19  1  0.20317600  0.60430700  0.61770200  1
  O  O20  1  0.46171400  0.75633700  0.45478700  1
  O  O21  1  0.96172200  0.75632300  0.95477100  1
  O  O22  1  0.53834100  0.25635000  0.04520700  1
  O  O23  1  0.03834100  0.25632300  0.54520900  1
loop_
_geom_bond_atom_site_label_1
_geom_bond_atom_site_label_2
_geom_bond_distance
_geom_bond_site_symmetry_2
Li0 O16 1.998063 1_555
Li0 O22 2.022307 1_555
Li0 O6 2.041149 1_545
Li0 O14 2.345367 1_545
Li1 O17 1.998085 1_555
Li1 O23 2.022068 1_655
Li1 O7 2.040858 1_545
Li1 O15 2.345592 1_645
Li2 O18 1.997636 1_555
Li2 O20 2.022807 1_555
Li2 O4 2.040727 1_555
Li2 O12 2.347464 1_555
Li3 O19 1.997614 1_555
Li3 O21 2.022533 1_455
Li3 O5 2.040368 1_555
Li3 O13 2.347769 1_455
Co0 O11 1.914938 1_565
Co0 O0 1.936433 1_565
Co0 O15 1.948267 1_555
Co0 O20 1.996551 1_555
Co0 O7 2.139937 1_555
Co0 O16 2.247934 1_565
Co1 O9 1.914880 1_555
Co1 O2 1.936878 1_556
Co1 O13 1.948884 1_555
Co1 O22 1.996624 1_556
Co1 O5 2.140040 1_555
Co1 O18 2.248282 1_556
Co2 O10 1.914942 1_565
Co2 O1 1.936555 1_564
Co2 O14 1.948293 1_455
Co2 O21 1.996546 1_454
Co2 O6 2.140082 1_555
Co2 O17 2.248154 1_464
Co3 O8 1.914998 1_555
Co3 O3 1.936993 1_555
Co3 O12 1.948863 1_655
Co3 O23 1.996700 1_655
Co3 O4 2.140251 1_555
Co3 O19 2.248424 1_655
C0 O4 1.273129 1_555
C0 O0 1.301274 1_555
C0 O11 1.309472 1_555
C1 O5 1.273236 1_555
C1 O1 1.301402 1_555
C1 O10 1.309639 1_556
C2 O6 1.273678 1_555
C2 O2 1.301125 1_555
C2 O9 1.309302 1_554
C3 O7 1.273760 1_555
C3 O3 1.301331 1_555
C3 O8 1.309550 1_555
C4 O16 1.265782 1_555
C4 O23 1.312700 1_555
C4 O12 1.314335 1_555
C5 O17 1.265487 1_555
C5 O22 1.312758 1_556
C5 O13 1.314520 1_555
C6 O18 1.265207 1_555
C6 O21 1.313087 1_554
C6 O14 1.314540 1_555
C7 O19 1.265080 1_555
C7 O20 1.313040 1_555
C7 O15 1.314660 1_555
