# generated using pymatgen
data_V6O5F19
_symmetry_space_group_name_H-M   'P 1'
_cell_length_a   5.16475139
_cell_length_b   5.38415812
_cell_length_c   13.85310085
_cell_angle_alpha   100.01494520
_cell_angle_beta   89.97810853
_cell_angle_gamma   90.30060771
_symmetry_Int_Tables_number   1
_chemical_formula_structural   V6O5F19
_chemical_formula_sum   'V6 O5 F19'
_cell_volume   379.34961765
_cell_formula_units_Z   1
loop_
 _symmetry_equiv_pos_site_id
 _symmetry_equiv_pos_as_xyz
  1  'x, y, z'
loop_
 _atom_site_type_symbol
 _atom_site_label
 _atom_site_symmetry_multiplicity
 _atom_site_fract_x
 _atom_site_fract_y
 _atom_site_fract_z
 _atom_site_occupancy
  V  V0  1  0.01034691  0.98520924  0.00012090  1
  V  V1  1  0.51742403  0.10853624  0.33093787  1
  V  V2  1  0.98024154  0.27671123  0.66415656  1
  V  V3  1  0.52784764  0.45621011  0.99664084  1
  V  V4  1  0.98035492  0.60960119  0.33111379  1
  V  V5  1  0.51733277  0.77572179  0.66418912  1
  O  O0  1  0.79738227  0.02666894  0.64077430  1
  O  O1  1  0.70899628  0.20679276  0.97541160  1
  O  O2  1  0.79733320  0.35968158  0.30779359  1
  O  O3  1  0.69875087  0.52687234  0.64095587  1
  O  O4  1  0.69876798  0.85971712  0.30758916  1
  F  F0  1  0.28204280  0.14784302  0.69381608  1
  F  F1  1  0.90799144  0.05534854  0.12161092  1
  F  F2  1  0.58825893  0.23009330  0.45336351  1
  F  F3  1  0.90706175  0.39703237  0.78644466  1
  F  F4  1  0.41160865  0.15006501  0.21497339  1
  F  F5  1  0.08270757  0.31824300  0.54770868  1
  F  F6  1  0.40850427  0.47514473  0.88027491  1
  F  F7  1  0.79959094  0.68918292  0.97324602  1
  F  F8  1  0.22049956  0.29950681  0.02718888  1
  F  F9  1  0.28186767  0.48080621  0.36111089  1
  F  F10  1  0.21403811  0.64582911  0.69420947  1
  F  F11  1  0.58266955  0.56603173  0.12105116  1
  F  F12  1  0.90716654  0.73094110  0.45328559  1
  F  F13  1  0.58770354  0.89759116  0.78666687  1
  F  F14  1  0.08279030  0.64968627  0.21451841  1
  F  F15  1  0.41180928  0.81622319  0.54808847  1
  F  F16  1  0.08144590  0.97591134  0.87677002  1
  F  F17  1  0.29351368  0.80391585  0.02501001  1
  F  F18  1  0.21394911  0.97888277  0.36097846  1
loop_
_geom_bond_atom_site_label_1
_geom_bond_atom_site_label_2
_geom_bond_distance
_geom_bond_site_symmetry_2
O0 V2 1.626195 1_555
O0 V5 2.038233 1_545
O1 V3 1.625057 1_555
O1 V0 2.030968 1_646
O2 V4 1.626110 1_555
O2 V1 2.037430 1_555
O3 V5 1.624703 1_555
O3 V2 2.050012 1_555
O4 V1 1.624439 1_565
O4 V4 2.051421 1_555
F0 V2 1.786301 1_455
F0 V5 2.323490 1_545
F1 V0 1.742115 1_645
F2 V1 1.746544 1_555
F3 V2 1.747219 1_555
F4 V1 1.748226 1_555
F5 V2 1.748124 1_455
F6 V3 1.745718 1_555
F7 V0 1.907755 1_656
F7 V3 1.941857 1_555
F8 V3 1.876252 1_554
F8 V0 1.985609 1_545
F9 V4 1.786226 1_455
F9 V1 2.325096 1_555
F10 V5 1.790242 1_555
F10 V2 2.295327 1_455
F11 V3 1.744796 1_554
F12 V4 1.746896 1_555
F13 V5 1.747047 1_555
F14 V4 1.747790 1_455
F15 V5 1.747938 1_555
F16 V0 1.739908 1_556
F17 V0 1.828377 1_555
F17 V3 2.211674 1_554
F18 V1 1.790590 1_565
F18 V4 2.295436 1_455
