# generated using pymatgen
data_Na2GeH16Se3O8
_symmetry_space_group_name_H-M   'P 1'
_cell_length_a   11.88097000
_cell_length_b   9.93809100
_cell_length_c   12.31170663
_cell_angle_alpha   87.20084350
_cell_angle_beta   90.00000000
_cell_angle_gamma   90.00000000
_symmetry_Int_Tables_number   1
_chemical_formula_structural   Na2GeH16Se3O8
_chemical_formula_sum   'Na8 Ge4 H64 Se12 O32'
_cell_volume   1451.95996543
_cell_formula_units_Z   4
loop_
 _symmetry_equiv_pos_site_id
 _symmetry_equiv_pos_as_xyz
  1  'x, y, z'
loop_
 _atom_site_type_symbol
 _atom_site_label
 _atom_site_symmetry_multiplicity
 _atom_site_fract_x
 _atom_site_fract_y
 _atom_site_fract_z
 _atom_site_occupancy
  Na  Na0  1  0.33917100  0.43388300  0.85288900  1
  Na  Na1  1  0.83917100  0.56611700  0.64711100  1
  Na  Na2  1  0.66082900  0.56611700  0.14711100  1
  Na  Na3  1  0.16082900  0.43388300  0.35288900  1
  Na  Na4  1  0.14929200  0.35652500  0.67903500  1
  Na  Na5  1  0.64929200  0.64347500  0.82096500  1
  Na  Na6  1  0.85070800  0.64347500  0.32096500  1
  Na  Na7  1  0.35070800  0.35652500  0.17903500  1
  Ge  Ge0  1  0.09534200  0.88231400  0.98540300  1
  Ge  Ge1  1  0.59534200  0.11768600  0.51459700  1
  Ge  Ge2  1  0.90465800  0.11768600  0.01459700  1
  Ge  Ge3  1  0.40465800  0.88231400  0.48540300  1
  H  H0  1  0.12731100  0.27327700  0.90652100  1
  H  H1  1  0.62731100  0.72672300  0.59347900  1
  H  H2  1  0.87268900  0.72672300  0.09347900  1
  H  H3  1  0.37268900  0.27327700  0.40652100  1
  H  H4  1  0.22094000  0.16623400  0.88462400  1
  H  H5  1  0.72094000  0.83376600  0.61537600  1
  H  H6  1  0.77906000  0.83376600  0.11537600  1
  H  H7  1  0.27906000  0.16623400  0.38462400  1
  H  H8  1  0.43245000  0.65914000  0.72012700  1
  H  H9  1  0.93245000  0.34086000  0.77987300  1
  H  H10  1  0.56755000  0.34086000  0.27987300  1
  H  H11  1  0.06755000  0.65914000  0.22012700  1
  H  H12  1  0.39704200  0.71887700  0.83185800  1
  H  H13  1  0.89704200  0.28112300  0.66814200  1
  H  H14  1  0.60295800  0.28112300  0.16814200  1
  H  H15  1  0.10295800  0.71887700  0.33185800  1
  H  H16  1  0.10582000  0.59355800  0.53801900  1
  H  H17  1  0.60582000  0.40644200  0.96198100  1
  H  H18  1  0.89418000  0.40644200  0.46198100  1
  H  H19  1  0.39418000  0.59355800  0.03801900  1
  H  H20  1  0.23750000  0.57330200  0.52864300  1
  H  H21  1  0.73750000  0.42669800  0.97135700  1
  H  H22  1  0.76250000  0.42669800  0.47135700  1
  H  H23  1  0.26250000  0.57330200  0.02864300  1
  H  H24  1  0.39893300  0.37888100  0.61226400  1
  H  H25  1  0.89893300  0.62111900  0.88773600  1
  H  H26  1  0.60106700  0.62111900  0.38773500  1
  H  H27  1  0.10106700  0.37888100  0.11226500  1
  H  H28  1  0.37407500  0.24282000  0.67079400  1
  H  H29  1  0.87407500  0.75718000  0.82920600  1
  H  H30  1  0.62592500  0.75718000  0.32920600  1
  H  H31  1  0.12592500  0.24282000  0.17079400  1
  H  H32  1  0.12481800  0.56829800  0.85131100  1
  H  H33  1  0.62481800  0.43170200  0.64868900  1
  H  H34  1  0.87518200  0.43170200  0.14868900  1
  H  H35  1  0.37518200  0.56829800  0.35131100  1
  H  H36  1  0.17582100  0.64100700  0.74787100  1
  H  H37  1  0.67582100  0.35899300  0.75212900  1
  H  H38  1  0.82417900  0.35899300  0.25212900  1
  H  H39  1  0.32417900  0.64100700  0.24787100  1
  H  H40  1  0.16124100  0.08237900  0.57503300  1
  H  H41  1  0.66124100  0.91762100  0.92496700  1
  H  H42  1  0.83875900  0.91762100  0.42496700  1
  H  H43  1  0.33875900  0.08237900  0.07503300  1
  H  H44  1  0.05818000  0.08959600  0.65421400  1
  H  H45  1  0.55818000  0.91040400  0.84578600  1
  H  H46  1  0.94182000  0.91040400  0.34578600  1
  H  H47  1  0.44182000  0.08959600  0.15421400  1
  H  H48  1  0.53402100  0.23862400  0.87311000  1
  H  H49  1  0.03402100  0.76137600  0.62689000  1
  H  H50  1  0.46597900  0.76137600  0.12689000  1
  H  H51  1  0.96597900  0.23862400  0.37311000  1
  H  H52  1  0.46230800  0.22664600  0.98158200  1
  H  H53  1  0.96230800  0.77335400  0.51841800  1
  H  H54  1  0.53769200  0.77335400  0.01841800  1
  H  H55  1  0.03769200  0.22664600  0.48158200  1
  H  H56  1  0.19813600  0.84708400  0.61366900  1
  H  H57  1  0.69813600  0.15291600  0.88633100  1
  H  H58  1  0.80186400  0.15291600  0.38633100  1
  H  H59  1  0.30186400  0.84708400  0.11366900  1
  H  H60  1  0.20106400  0.87024600  0.74182200  1
  H  H61  1  0.70106400  0.12975400  0.75817800  1
  H  H62  1  0.79893600  0.12975400  0.25817800  1
  H  H63  1  0.29893600  0.87024600  0.24182200  1
  Se  Se0  1  0.04404100  0.01862500  0.14043300  1
  Se  Se1  1  0.54404100  0.98137500  0.35956700  1
  Se  Se2  1  0.95595900  0.98137500  0.85956700  1
  Se  Se3  1  0.45595900  0.01862500  0.64043300  1
  Se  Se4  1  0.27883300  0.93397800  0.92774000  1
  Se  Se5  1  0.77883300  0.06602200  0.57226000  1
  Se  Se6  1  0.72116700  0.06602200  0.07226000  1
  Se  Se7  1  0.22116700  0.93397800  0.42774000  1
  Se  Se8  1  0.05839400  0.65332000  0.02825600  1
  Se  Se9  1  0.55839400  0.34668000  0.47174400  1
  Se  Se10  1  0.94160600  0.34668000  0.97174400  1
  Se  Se11  1  0.44160600  0.65332000  0.52825600  1
  O  O0  1  0.20067600  0.26193500  0.87016100  1
  O  O1  1  0.70067600  0.73806500  0.62983900  1
  O  O2  1  0.79932400  0.73806500  0.12983900  1
  O  O3  1  0.29932400  0.26193500  0.37016100  1
  O  O4  1  0.43916800  0.64460700  0.80006100  1
  O  O5  1  0.93916800  0.35539300  0.69993900  1
  O  O6  1  0.56083200  0.35539300  0.19993900  1
  O  O7  1  0.06083200  0.64460700  0.30006100  1
  O  O8  1  0.16498800  0.52491000  0.52848500  1
  O  O9  1  0.66498800  0.47509000  0.97151500  1
  O  O10  1  0.83501200  0.47509000  0.47151500  1
  O  O11  1  0.33501200  0.52491000  0.02848500  1
  O  O12  1  0.35547900  0.33937800  0.67383900  1
  O  O13  1  0.85547900  0.66062200  0.82616100  1
  O  O14  1  0.64452100  0.66062200  0.32616100  1
  O  O15  1  0.14452100  0.33937800  0.17383900  1
  O  O16  1  0.16412100  0.55060600  0.78327100  1
  O  O17  1  0.66412100  0.44939400  0.71672900  1
  O  O18  1  0.83587900  0.44939400  0.21672900  1
  O  O19  1  0.33587900  0.55060600  0.28327100  1
  O  O20  1  0.10728300  0.14541500  0.60632100  1
  O  O21  1  0.60728300  0.85458500  0.89367900  1
  O  O22  1  0.89271700  0.85458500  0.39367900  1
  O  O23  1  0.39271700  0.14541500  0.10632100  1
  O  O24  1  0.48606300  0.29008300  0.92137900  1
  O  O25  1  0.98606300  0.70991700  0.57862100  1
  O  O26  1  0.51393700  0.70991700  0.07862100  1
  O  O27  1  0.01393700  0.29008300  0.42137900  1
  O  O28  1  0.16764200  0.81487500  0.68540200  1
  O  O29  1  0.66764200  0.18512500  0.81459800  1
  O  O30  1  0.83235800  0.18512500  0.31459800  1
  O  O31  1  0.33235800  0.81487500  0.18540200  1
loop_
_geom_bond_atom_site_label_1
_geom_bond_atom_site_label_2
_geom_bond_distance
_geom_bond_site_symmetry_2
Na0 O0 2.374314 1_555
Na0 O24 2.383579 1_555
Na0 O11 2.384444 1_556
Na0 O12 2.445665 1_555
Na0 O4 2.467211 1_555
Na0 O16 2.511686 1_555
Na1 O1 2.374314 1_555
Na1 O25 2.383579 1_555
Na1 O10 2.384444 1_555
Na1 O13 2.445665 1_555
Na1 O5 2.467211 1_555
Na1 O17 2.511686 1_555
Na2 O2 2.374314 1_555
Na2 O26 2.383579 1_555
Na2 O9 2.384444 1_554
Na2 O14 2.445665 1_555
Na2 O6 2.467211 1_555
Na2 O18 2.511686 1_555
Na3 O3 2.374314 1_555
Na3 O27 2.383579 1_555
Na3 O8 2.384444 1_555
Na3 O15 2.445665 1_555
Na3 O7 2.467211 1_555
Na3 O19 2.511686 1_555
Na4 O20 2.373969 1_555
Na4 O16 2.374861 1_555
Na4 O8 2.442897 1_555
Na4 O12 2.456671 1_555
Na4 O5 2.509677 1_455
Na4 O0 2.564636 1_555
Na5 O21 2.373969 1_555
Na5 O17 2.374861 1_555
Na5 O9 2.442897 1_555
Na5 O13 2.456671 1_555
Na5 O4 2.509677 1_555
Na5 O1 2.564636 1_555
Na6 O22 2.373969 1_555
Na6 O18 2.374861 1_555
Na6 O10 2.442897 1_555
Na6 O14 2.456671 1_555
Na6 O7 2.509677 1_655
Na6 O2 2.564636 1_555
Na7 O23 2.373969 1_555
Na7 O19 2.374861 1_555
Na7 O11 2.442897 1_555
Na7 O15 2.456671 1_555
Na7 O6 2.509677 1_555
Na7 O3 2.564636 1_555
Ge0 Se4 2.341932 1_555
Ge0 Se8 2.352208 1_556
Ge0 Se2 2.441879 1_455
Ge0 Se0 2.470272 1_566
Ge1 Se5 2.341932 1_555
Ge1 Se9 2.352208 1_555
Ge1 Se3 2.441879 1_555
Ge1 Se1 2.470272 1_545
Ge2 Se6 2.341932 1_555
Ge2 Se10 2.352208 1_554
Ge2 Se0 2.441879 1_655
Ge2 Se2 2.470272 1_544
Ge3 Se7 2.341932 1_555
Ge3 Se11 2.352208 1_555
Ge3 Se1 2.441879 1_555
Ge3 Se3 2.470272 1_565
H0 O0 0.988836 1_555
H1 O1 0.988836 1_555
H2 O2 0.988836 1_555
H3 O3 0.988836 1_555
H4 O0 0.988783 1_555
H5 O1 0.988783 1_555
H6 O2 0.988783 1_555
H7 O3 0.988783 1_555
H8 O4 0.990883 1_555
H9 O5 0.990883 1_555
H10 O6 0.990883 1_555
H11 O7 0.990883 1_555
H12 O4 0.988315 1_555
H13 O5 0.988315 1_555
H14 O6 0.988315 1_555
H15 O7 0.988315 1_555
H16 O8 0.990560 1_555
H17 O9 0.990560 1_555
H18 O10 0.990560 1_555
H19 O11 0.990560 1_555
H20 O8 0.986705 1_555
H21 O9 0.986705 1_555
H22 O10 0.986705 1_555
H23 O11 0.986705 1_555
H24 O12 0.983006 1_555
H25 O13 0.983006 1_555
H26 O14 0.982997 1_555
H27 O15 0.982997 1_555
H28 O12 0.987203 1_555
H29 O13 0.987203 1_555
H30 O14 0.987203 1_555
H31 O15 0.987203 1_555
H32 O16 0.982380 1_555
H33 O17 0.982380 1_555
H34 O18 0.982380 1_555
H35 O19 0.982380 1_555
H36 O16 0.989029 1_555
H37 O17 0.989029 1_555
H38 O18 0.989029 1_555
H39 O19 0.989029 1_555
H40 O20 0.987613 1_555
H41 O21 0.987613 1_555
H42 O22 0.987613 1_555
H43 O23 0.987613 1_555
H44 O20 0.981738 1_555
H45 O21 0.981738 1_555
H46 O22 0.981738 1_555
H47 O23 0.981738 1_555
H48 O24 0.984397 1_555
H49 O25 0.984397 1_455
H50 O26 0.984397 1_555
H51 O27 0.984397 1_655
H52 O24 0.990380 1_555
H53 O25 0.990380 1_555
H54 O26 0.990380 1_555
H55 O27 0.990380 1_555
H56 O28 0.993013 1_555
H57 O29 0.993013 1_555
H58 O30 0.993013 1_555
H59 O31 0.993013 1_555
H60 O28 0.990115 1_555
H61 O29 0.990115 1_555
H62 O30 0.990115 1_555
H63 O31 0.990115 1_555
