# generated using pymatgen
data_Ba3Hf2O7
_symmetry_space_group_name_H-M   'P 1'
_cell_length_a   4.16601568
_cell_length_b   11.33151617
_cell_length_c   4.16601568
_cell_angle_alpha   79.40740934
_cell_angle_beta   90.00000000
_cell_angle_gamma   100.59259066
_symmetry_Int_Tables_number   1
_chemical_formula_structural   Ba3Hf2O7
_chemical_formula_sum   'Ba3 Hf2 O7'
_cell_volume   189.90438123
_cell_formula_units_Z   1
loop_
 _symmetry_equiv_pos_site_id
 _symmetry_equiv_pos_as_xyz
  1  'x, y, z'
loop_
 _atom_site_type_symbol
 _atom_site_label
 _atom_site_symmetry_multiplicity
 _atom_site_fract_x
 _atom_site_fract_y
 _atom_site_fract_z
 _atom_site_occupancy
  Ba  Ba0  1  0.50000000  0.00000000  0.50000000  1
  Ba  Ba1  1  0.68594974  0.37189648  0.31405026  1
  Ba  Ba2  1  0.31405026  0.62810352  0.68594974  1
  Hf  Hf0  1  0.90362121  0.80724141  0.09637879  1
  Hf  Hf1  1  0.09637879  0.19275859  0.90362121  1
  O  O0  1  0.00000000  0.00000000  -0.00000000  1
  O  O1  1  0.09556314  0.19112527  0.40443686  1
  O  O2  1  0.40443686  0.80887473  0.09556314  1
  O  O3  1  0.80890352  0.61780705  0.19109648  1
  O  O4  1  0.19109648  0.38219295  0.80890352  1
  O  O5  1  0.59556314  0.19112527  0.90443686  1
  O  O6  1  0.90443686  0.80887473  0.59556314  1
loop_
_geom_bond_atom_site_label_1
_geom_bond_atom_site_label_2
_geom_bond_distance
_geom_bond_site_symmetry_2
Ba0 O0 2.945818 1_656
Ba0 O0 2.945818 1_555
Ba0 O0 2.945818 1_556
Ba0 O0 2.945818 1_655
Ba0 O2 2.951668 1_545
Ba0 O6 2.951668 1_545
Ba0 O1 2.951668 1_555
Ba0 O5 2.951668 1_555
Ba0 O6 2.951672 1_445
Ba0 O5 2.951672 1_554
Ba0 O1 2.951672 1_655
Ba0 O2 2.951672 1_546
Ba1 O3 2.690732 1_555
Ba1 O5 2.872511 1_554
Ba1 O1 2.872511 1_655
Ba1 O1 2.872517 1_555
Ba1 O5 2.872517 1_555
Ba1 O4 2.947963 1_654
Ba1 O4 2.947972 1_554
Ba1 O4 2.947972 1_655
Ba1 O4 2.947980 1_555
Ba2 O4 2.690732 1_555
Ba2 O6 2.872511 1_455
Ba2 O2 2.872511 1_556
Ba2 O2 2.872517 1_555
Ba2 O6 2.872517 1_555
Ba2 O3 2.947963 1_456
Ba2 O3 2.947972 1_455
Ba2 O3 2.947972 1_556
Ba2 O3 2.947980 1_555
Hf0 O3 2.072774 1_555
Hf0 O6 2.083080 1_554
Hf0 O2 2.083080 1_655
Hf0 O2 2.083089 1_555
Hf0 O6 2.083089 1_555
Hf0 O0 2.109147 1_665
Hf1 O4 2.072774 1_555
Hf1 O1 2.083080 1_556
Hf1 O5 2.083080 1_455
Hf1 O5 2.083089 1_555
Hf1 O1 2.083089 1_555
Hf1 O0 2.109147 1_556
