# generated using pymatgen
data_Li3V(FeO2)4
_symmetry_space_group_name_H-M   'P 1'
_cell_length_a   5.96818539
_cell_length_b   5.96818539
_cell_length_c   5.98684399
_cell_angle_alpha   60.08413009
_cell_angle_beta   60.08413009
_cell_angle_gamma   60.42336560
_symmetry_Int_Tables_number   1
_chemical_formula_structural   Li3V(FeO2)4
_chemical_formula_sum   'Li3 V1 Fe4 O8'
_cell_volume   151.45810492
_cell_formula_units_Z   1
loop_
 _symmetry_equiv_pos_site_id
 _symmetry_equiv_pos_as_xyz
  1  'x, y, z'
loop_
 _atom_site_type_symbol
 _atom_site_label
 _atom_site_symmetry_multiplicity
 _atom_site_fract_x
 _atom_site_fract_y
 _atom_site_fract_z
 _atom_site_occupancy
  Li  Li0  1  0.00000000  0.50000000  0.00000000  1
  Li  Li1  1  0.00000000  0.00000000  0.50000000  1
  Li  Li2  1  0.50000000  0.00000000  0.00000000  1
  V  V0  1  0.50000000  0.50000000  0.00000000  1
  Fe  Fe0  1  0.50000000  0.50000000  0.50000000  1
  Fe  Fe1  1  0.00000000  0.00000000  0.00000000  1
  Fe  Fe2  1  0.00000000  0.50000000  0.50000000  1
  Fe  Fe3  1  0.50000000  0.00000000  0.50000000  1
  O  O0  1  0.26302900  0.26302900  0.25320600  1
  O  O1  1  0.25031400  0.74008500  0.75951400  1
  O  O2  1  0.74008500  0.25031400  0.75951400  1
  O  O3  1  0.75044700  0.75044700  0.24455600  1
  O  O4  1  0.24955300  0.24955300  0.75544400  1
  O  O5  1  0.25991500  0.74968600  0.24048600  1
  O  O6  1  0.74968600  0.25991500  0.24048600  1
  O  O7  1  0.73697100  0.73697100  0.74679400  1
loop_
_geom_bond_atom_site_label_1
_geom_bond_atom_site_label_2
_geom_bond_distance
_geom_bond_site_symmetry_2
Li0 O1 2.065869 1_554
Li0 O6 2.065869 1_455
Li0 O4 2.099098 1_554
Li0 O3 2.099098 1_455
Li0 O7 2.192245 1_454
Li0 O0 2.192245 1_555
Li1 O1 2.162290 1_545
Li1 O5 2.162290 1_545
Li1 O2 2.162290 1_455
Li1 O6 2.162290 1_455
Li1 O7 2.217497 1_445
Li1 O0 2.217497 1_555
Li2 O5 2.065869 1_545
Li2 O2 2.065869 1_554
Li2 O4 2.099098 1_554
Li2 O3 2.099098 1_545
Li2 O7 2.192245 1_544
Li2 O0 2.192245 1_555
Fe0 O3 2.110098 1_555
Fe0 O4 2.110098 1_555
Fe0 O5 2.119194 1_555
Fe0 O2 2.119194 1_555
Fe0 O6 2.119194 1_555
Fe0 O1 2.119194 1_555
Fe1 O3 2.102328 1_445
Fe1 O4 2.102328 1_554
Fe1 O2 2.122635 1_454
Fe1 O1 2.122635 1_544
Fe1 O5 2.122635 1_545
Fe1 O6 2.122635 1_455
Fe2 O7 2.055888 1_455
Fe2 O0 2.055888 1_555
Fe2 O4 2.141356 1_555
Fe2 O3 2.141356 1_455
Fe2 O5 2.146959 1_555
Fe2 O2 2.146959 1_455
Fe3 O7 2.055888 1_545
Fe3 O0 2.055888 1_555
Fe3 O4 2.141356 1_555
Fe3 O3 2.141356 1_545
Fe3 O6 2.146959 1_555
Fe3 O1 2.146959 1_545
O0 V0 1.998999 1_555
O1 V0 2.078718 1_556
O2 V0 2.078718 1_556
O5 V0 2.078718 1_555
O6 V0 2.078718 1_555
O7 V0 1.998999 1_556
