# generated using pymatgen
data_Li2VCrO4
_symmetry_space_group_name_H-M   'P 1'
_cell_length_a   5.15992000
_cell_length_b   5.17925799
_cell_length_c   8.94967362
_cell_angle_alpha   90.10136343
_cell_angle_beta   106.68637291
_cell_angle_gamma   99.48897302
_symmetry_Int_Tables_number   1
_chemical_formula_structural   Li2VCrO4
_chemical_formula_sum   'Li6 V3 Cr3 O12'
_cell_volume   225.66436998
_cell_formula_units_Z   3
loop_
 _symmetry_equiv_pos_site_id
 _symmetry_equiv_pos_as_xyz
  1  'x, y, z'
loop_
 _atom_site_type_symbol
 _atom_site_label
 _atom_site_symmetry_multiplicity
 _atom_site_fract_x
 _atom_site_fract_y
 _atom_site_fract_z
 _atom_site_occupancy
  Li  Li0  1  0.00212400  0.00763900  0.00111800  1
  Li  Li1  1  0.00150000  0.49484200  0.16723500  1
  Li  Li2  1  0.99909700  0.00133800  0.33190200  1
  Li  Li3  1  0.99783900  0.50210100  0.49639700  1
  Li  Li4  1  0.99858500  0.99910600  0.66740700  1
  Li  Li5  1  0.00076500  0.49467300  0.83625600  1
  V  V0  1  0.49989600  0.75014200  0.08202300  1
  V  V1  1  0.50002700  0.25069400  0.58377400  1
  V  V2  1  0.50055400  0.74933200  0.75070700  1
  Cr  Cr0  1  0.49961200  0.25075500  0.24929000  1
  Cr  Cr1  1  0.49964600  0.75057000  0.41499400  1
  Cr  Cr2  1  0.50044300  0.24893500  0.91872000  1
  O  O0  1  0.72824100  0.12782300  0.12165400  1
  O  O1  1  0.27238900  0.37219900  0.04546500  1
  O  O2  1  0.72343000  0.62043200  0.28609400  1
  O  O3  1  0.27656600  0.88137300  0.21219700  1
  O  O4  1  0.72422300  0.12071700  0.45323600  1
  O  O5  1  0.27383700  0.38346500  0.37692100  1
  O  O6  1  0.72665800  0.62039800  0.61784100  1
  O  O7  1  0.27459700  0.87856200  0.54524500  1
  O  O8  1  0.27342400  0.37785700  0.71403100  1
  O  O9  1  0.72778200  0.11796200  0.79150800  1
  O  O10  1  0.72694300  0.61779200  0.95528600  1
  O  O11  1  0.27182200  0.88129600  0.88069900  1
loop_
_geom_bond_atom_site_label_1
_geom_bond_atom_site_label_2
_geom_bond_distance
_geom_bond_site_symmetry_2
Li0 O1 2.116298 1_555
Li0 O9 2.143598 1_454
Li0 O11 2.164549 1_544
Li0 O0 2.170599 1_455
Li0 O3 2.185208 1_545
Li0 O10 2.231268 1_444
Li1 O0 2.133329 1_455
Li1 O5 2.141463 1_555
Li1 O1 2.170244 1_555
Li1 O10 2.183840 1_454
Li1 O2 2.189780 1_455
Li1 O3 2.217315 1_555
Li2 O0 2.172344 1_555
Li2 O4 2.178153 1_555
Li2 O3 2.180681 1_645
Li2 O7 2.194184 1_645
Li2 O2 2.195530 1_545
Li2 O5 2.198429 1_655
Li3 O6 2.160638 1_555
Li3 O2 2.163959 1_555
Li3 O5 2.170184 1_655
Li3 O7 2.180030 1_655
Li3 O4 2.192912 1_555
Li3 O8 2.223847 1_655
Li4 O9 2.176569 1_565
Li4 O6 2.178254 1_555
Li4 O11 2.178573 1_655
Li4 O8 2.184804 1_665
Li4 O7 2.190525 1_655
Li4 O4 2.194274 1_565
Li5 O1 2.159346 1_556
Li5 O10 2.167193 1_455
Li5 O8 2.168885 1_555
Li5 O9 2.172173 1_455
Li5 O11 2.208701 1_555
Li5 O6 2.228442 1_455
Cr0 O1 2.029005 1_555
Cr0 O0 2.029998 1_555
Cr0 O3 2.036466 1_545
Cr0 O2 2.039214 1_555
Cr0 O5 2.039554 1_555
Cr0 O4 2.043347 1_555
Cr1 O5 2.031757 1_555
Cr1 O2 2.034037 1_555
Cr1 O3 2.034642 1_555
Cr1 O6 2.041052 1_555
Cr1 O4 2.042701 1_565
Cr1 O7 2.043332 1_555
Cr2 O1 2.022538 1_556
Cr2 O0 2.023569 1_556
Cr2 O9 2.039356 1_555
Cr2 O11 2.039502 1_545
Cr2 O10 2.040744 1_555
Cr2 O8 2.050316 1_555
O0 V0 2.082799 1_545
O1 V0 2.082381 1_555
O2 V0 2.041424 1_555
O3 V0 2.042933 1_555
O4 V1 2.046071 1_555
O5 V1 2.071369 1_555
O6 V1 2.044941 1_555
O6 V2 2.066833 1_555
O7 V1 2.052998 1_565
O7 V2 2.054040 1_555
O8 V1 2.047893 1_555
O8 V2 2.053363 1_555
O9 V2 2.041272 1_545
O9 V1 2.079983 1_555
O10 V0 2.038151 1_556
O10 V2 2.054154 1_555
O11 V0 2.035444 1_556
O11 V2 2.065244 1_555
