# generated using pymatgen
data_Sr20Fe9Co(MoO6)10
_symmetry_space_group_name_H-M   'P 1'
_cell_length_a   5.64195380
_cell_length_b   56.31137430
_cell_length_c   11.33611505
_cell_angle_alpha   119.92377421
_cell_angle_beta   119.78063078
_cell_angle_gamma   90.05235444
_symmetry_Int_Tables_number   1
_chemical_formula_structural   Sr20Fe9Co(MoO6)10
_chemical_formula_sum   'Sr40 Fe18 Co2 Mo20 O120'
_cell_volume   2556.86480677
_cell_formula_units_Z   2
loop_
 _symmetry_equiv_pos_site_id
 _symmetry_equiv_pos_as_xyz
  1  'x, y, z'
loop_
 _atom_site_type_symbol
 _atom_site_label
 _atom_site_symmetry_multiplicity
 _atom_site_fract_x
 _atom_site_fract_y
 _atom_site_fract_z
 _atom_site_occupancy
  Sr  Sr0  1  0.25073200  0.07507300  0.75038800  1
  Sr  Sr1  1  0.25076800  0.27500900  0.75071600  1
  Sr  Sr2  1  0.24976700  0.17483500  0.74940500  1
  Sr  Sr3  1  0.24993700  0.37501900  0.74946900  1
  Sr  Sr4  1  0.25157000  0.47510900  0.75049300  1
  Sr  Sr5  1  0.25194300  0.57480000  0.75115500  1
  Sr  Sr6  1  0.24945500  0.67463400  0.74887900  1
  Sr  Sr7  1  0.25705200  0.77544100  0.75631400  1
  Sr  Sr8  1  0.25684100  0.87604000  0.75644900  1
  Sr  Sr9  1  0.25055500  0.97501700  0.75035100  1
  Sr  Sr10  1  0.25035700  0.07480600  0.24884000  1
  Sr  Sr11  1  0.25078700  0.17474500  0.25055900  1
  Sr  Sr12  1  0.25071900  0.27496100  0.24924100  1
  Sr  Sr13  1  0.25071900  0.37497100  0.24875000  1
  Sr  Sr14  1  0.25045400  0.47497100  0.25028600  1
  Sr  Sr15  1  0.25020700  0.57510200  0.24921500  1
  Sr  Sr16  1  0.24456700  0.67356000  0.24543800  1
  Sr  Sr17  1  0.24481900  0.77439600  0.24352200  1
  Sr  Sr18  1  0.24685300  0.87558500  0.24736700  1
  Sr  Sr19  1  0.24874000  0.97477800  0.24805000  1
  Sr  Sr20  1  0.74979300  0.02489800  0.75078500  1
  Sr  Sr21  1  0.74954600  0.12502900  0.74971400  1
  Sr  Sr22  1  0.74928100  0.22502900  0.75125000  1
  Sr  Sr23  1  0.74928100  0.32503900  0.75075900  1
  Sr  Sr24  1  0.74921300  0.42525500  0.74944100  1
  Sr  Sr25  1  0.74964300  0.52519400  0.75116000  1
  Sr  Sr26  1  0.75126000  0.62522200  0.75195000  1
  Sr  Sr27  1  0.75314700  0.72441500  0.75263300  1
  Sr  Sr28  1  0.75518100  0.82560400  0.75647800  1
  Sr  Sr29  1  0.75543300  0.92644000  0.75456200  1
  Sr  Sr30  1  0.74805700  0.02520000  0.24884500  1
  Sr  Sr31  1  0.74843000  0.12489100  0.24950700  1
  Sr  Sr32  1  0.75006300  0.22498100  0.25053100  1
  Sr  Sr33  1  0.74923200  0.32499100  0.24928400  1
  Sr  Sr34  1  0.75023300  0.42516500  0.25059500  1
  Sr  Sr35  1  0.74926800  0.52492700  0.24961200  1
  Sr  Sr36  1  0.74944500  0.62498300  0.24964900  1
  Sr  Sr37  1  0.74315900  0.72396000  0.24355100  1
  Sr  Sr38  1  0.74294800  0.82455900  0.24368600  1
  Sr  Sr39  1  0.75054500  0.92536600  0.25112100  1
  Fe  Fe0  1  0.00053900  0.00020300  0.50264800  1
  Fe  Fe1  1  0.00186900  0.10007800  0.50113000  1
  Fe  Fe2  1  0.99954400  0.20010800  0.49873900  1
  Fe  Fe3  1  0.00000000  0.30000000  0.50000000  1
  Fe  Fe4  1  0.00045600  0.39989200  0.50126100  1
  Fe  Fe5  1  0.99813100  0.49992200  0.49887000  1
  Fe  Fe6  1  0.99946100  0.59979700  0.49735200  1
  Fe  Fe7  1  0.00000000  0.80000000  0.50000000  1
  Fe  Fe8  1  0.00423900  0.99991000  0.00138500  1
  Fe  Fe9  1  0.99892000  0.09967100  0.99947400  1
  Fe  Fe10  1  0.99854700  0.20012500  0.99989800  1
  Fe  Fe11  1  0.00000000  0.30000000  0.00000000  1
  Fe  Fe12  1  0.00145300  0.39987500  0.00010200  1
  Fe  Fe13  1  0.99576100  0.60009000  0.99861500  1
  Fe  Fe14  1  0.00000000  0.80000000  0.00000000  1
  Fe  Fe15  1  0.00526200  0.90077500  0.00518700  1
  Fe  Fe16  1  0.00108000  0.50032900  0.00052600  1
  Fe  Fe17  1  0.99473800  0.69922500  0.99481300  1
  Co  Co0  1  0.99872600  0.69947700  0.49862300  1
  Co  Co1  1  0.00127400  0.90052300  0.50137700  1
  Mo  Mo0  1  0.50005000  0.04989000  0.49980200  1
  Mo  Mo1  1  0.49886700  0.14987100  0.49885500  1
  Mo  Mo2  1  0.49988000  0.25000800  0.49986300  1
  Mo  Mo3  1  0.50012000  0.34999200  0.50013700  1
  Mo  Mo4  1  0.50113300  0.45012900  0.50114500  1
  Mo  Mo5  1  0.49995000  0.55011000  0.50019800  1
  Mo  Mo6  1  0.49861700  0.64990600  0.49864500  1
  Mo  Mo7  1  0.49964500  0.74943200  0.49875900  1
  Mo  Mo8  1  0.50138300  0.95009400  0.50135500  1
  Mo  Mo9  1  0.50035500  0.85056800  0.50124100  1
  Mo  Mo10  1  0.50076900  0.04999500  0.00007100  1
  Mo  Mo11  1  0.50002400  0.14998200  0.99987800  1
  Mo  Mo12  1  0.49919200  0.24988700  0.99952800  1
  Mo  Mo13  1  0.50080800  0.35011300  0.00047200  1
  Mo  Mo14  1  0.49997600  0.45001800  0.00012200  1
  Mo  Mo15  1  0.49923100  0.55000500  0.99992900  1
  Mo  Mo16  1  0.49892500  0.64977300  0.99944100  1
  Mo  Mo17  1  0.49854100  0.74950800  0.99818300  1
  Mo  Mo18  1  0.50107500  0.95022700  0.00055900  1
  Mo  Mo19  1  0.50145900  0.85049200  0.00181700  1
  O  O0  1  0.24775000  0.12487900  0.74918600  1
  O  O1  1  0.25005200  0.02530400  0.75048100  1
  O  O2  1  0.24893300  0.22550700  0.75309300  1
  O  O3  1  0.24973700  0.32544700  0.75322800  1
  O  O4  1  0.24909900  0.42498600  0.74931900  1
  O  O5  1  0.24744400  0.52527600  0.75009500  1
  O  O6  1  0.25578500  0.62607500  0.75778700  1
  O  O7  1  0.26016900  0.72648900  0.76132400  1
  O  O8  1  0.25376900  0.82512500  0.75337100  1
  O  O9  1  0.25894800  0.92569400  0.75958700  1
  O  O10  1  0.21422500  0.07148800  0.49999500  1
  O  O11  1  0.21306600  0.17143000  0.50090500  1
  O  O12  1  0.21360500  0.27135000  0.49945400  1
  O  O13  1  0.21361700  0.37138100  0.49804000  1
  O  O14  1  0.21408700  0.47171100  0.50091800  1
  O  O15  1  0.21461300  0.57174700  0.50139100  1
  O  O16  1  0.21798900  0.67068700  0.50076700  1
  O  O17  1  0.22135000  0.77114700  0.50100800  1
  O  O18  1  0.22428600  0.87026500  0.49953400  1
  O  O19  1  0.21549300  0.97157100  0.49937200  1
  O  O20  1  0.28953200  0.02232400  0.49957600  1
  O  O21  1  0.29138100  0.12234700  0.50002300  1
  O  O22  1  0.29367300  0.22232500  0.50412600  1
  O  O23  1  0.29138000  0.32232700  0.50321600  1
  O  O24  1  0.29042100  0.42259100  0.50016300  1
  O  O25  1  0.29317200  0.52279200  0.50244000  1
  O  O26  1  0.28890400  0.62221200  0.50206700  1
  O  O27  1  0.29547300  0.72266900  0.50066400  1
  O  O28  1  0.29068700  0.82188400  0.49988500  1
  O  O29  1  0.28789700  0.92246800  0.49948300  1
  O  O30  1  0.24896200  0.02512700  0.25026900  1
  O  O31  1  0.24830200  0.12497300  0.24862700  1
  O  O32  1  0.25484400  0.22543700  0.25350200  1
  O  O33  1  0.25316300  0.32527400  0.25279700  1
  O  O34  1  0.24849000  0.42507300  0.24956600  1
  O  O35  1  0.25079300  0.52514000  0.25044300  1
  O  O36  1  0.25094900  0.62483900  0.24940700  1
  O  O37  1  0.25830500  0.72612800  0.25934100  1
  O  O38  1  0.25752300  0.82557700  0.25783100  1
  O  O39  1  0.24897000  0.92478700  0.24985600  1
  O  O40  1  0.74920700  0.07486000  0.74955700  1
  O  O41  1  0.75151000  0.17492700  0.75043400  1
  O  O42  1  0.74683700  0.27472600  0.74720300  1
  O  O43  1  0.74515600  0.37456300  0.74649800  1
  O  O44  1  0.75169800  0.47502700  0.75137300  1
  O  O45  1  0.75103800  0.57487300  0.74973100  1
  O  O46  1  0.75103000  0.67521300  0.75014400  1
  O  O47  1  0.74247700  0.77442300  0.74216900  1
  O  O48  1  0.74169500  0.87387200  0.74065900  1
  O  O49  1  0.74905100  0.97516100  0.75059300  1
  O  O50  1  0.70682800  0.07720800  0.49756000  1
  O  O51  1  0.70957900  0.17740900  0.49983700  1
  O  O52  1  0.70862000  0.27767300  0.49678400  1
  O  O53  1  0.70632700  0.37767500  0.49587400  1
  O  O54  1  0.70861900  0.47765300  0.49997700  1
  O  O55  1  0.71046800  0.57767600  0.50042400  1
  O  O56  1  0.71210300  0.67753200  0.50051700  1
  O  O57  1  0.70452700  0.87733100  0.49933600  1
  O  O58  1  0.70931300  0.77811600  0.50011500  1
  O  O59  1  0.71109600  0.97778800  0.49793300  1
  O  O60  1  0.22138400  0.07061800  0.99800700  1
  O  O61  1  0.22515600  0.17080900  0.00135300  1
  O  O62  1  0.21829600  0.27084700  0.99825200  1
  O  O63  1  0.21777300  0.37082200  0.99766800  1
  O  O64  1  0.22497500  0.47064200  0.00098800  1
  O  O65  1  0.22124500  0.57050600  0.99852900  1
  O  O66  1  0.21666600  0.67175000  0.00384300  1
  O  O67  1  0.21311100  0.77161000  0.00059500  1
  O  O68  1  0.20863800  0.87072300  0.99574100  1
  O  O69  1  0.21621500  0.97126500  0.00102700  1
  O  O70  1  0.78538700  0.02825300  0.49860900  1
  O  O71  1  0.78591300  0.12828900  0.49908200  1
  O  O72  1  0.78638300  0.22861900  0.50196000  1
  O  O73  1  0.78639500  0.32865000  0.50054600  1
  O  O74  1  0.78577500  0.52851200  0.50000500  1
  O  O75  1  0.78693400  0.42857000  0.49909500  1
  O  O76  1  0.78450700  0.62842900  0.50062800  1
  O  O77  1  0.77571400  0.72973500  0.50046600  1
  O  O78  1  0.77865000  0.82885300  0.49899200  1
  O  O79  1  0.78201100  0.92931300  0.49923300  1
  O  O80  1  0.28387200  0.02163900  0.99967700  1
  O  O81  1  0.28206700  0.12156700  0.99997500  1
  O  O82  1  0.28615600  0.22151700  0.00178700  1
  O  O83  1  0.28444500  0.32170500  0.00137400  1
  O  O84  1  0.28107900  0.42153300  0.99950900  1
  O  O85  1  0.28502200  0.52132900  0.00038400  1
  O  O86  1  0.28638700  0.62125700  0.99974600  1
  O  O87  1  0.29080400  0.72177900  0.00432700  1
  O  O88  1  0.28358800  0.82108100  0.99911600  1
  O  O89  1  0.28548900  0.92106000  0.99875200  1
  O  O90  1  0.75255600  0.07472400  0.24990500  1
  O  O91  1  0.75090100  0.17501400  0.25068100  1
  O  O92  1  0.75026300  0.27455400  0.24677200  1
  O  O93  1  0.75106700  0.37449300  0.24690700  1
  O  O94  1  0.75225000  0.47512100  0.25081400  1
  O  O95  1  0.74994800  0.57469600  0.24951900  1
  O  O96  1  0.74105200  0.67430600  0.24041300  1
  O  O97  1  0.73983100  0.87351100  0.23867600  1
  O  O98  1  0.74623100  0.77487500  0.24662900  1
  O  O99  1  0.74421500  0.97392500  0.24221300  1
  O  O100  1  0.71497800  0.07867100  0.99961600  1
  O  O101  1  0.71555500  0.27829500  0.99862600  1
  O  O102  1  0.71892100  0.17846700  0.00049100  1
  O  O103  1  0.71384400  0.37848300  0.99821300  1
  O  O104  1  0.71793300  0.47843300  0.00002500  1
  O  O105  1  0.71612800  0.57836100  0.00032300  1
  O  O106  1  0.71641200  0.77891900  0.00088400  1
  O  O107  1  0.71451100  0.67894000  0.00124800  1
  O  O108  1  0.70919600  0.87822100  0.99567300  1
  O  O109  1  0.71361300  0.97874300  0.00025400  1
  O  O110  1  0.77875500  0.02949400  0.00147100  1
  O  O111  1  0.77502500  0.12935800  0.99901200  1
  O  O112  1  0.78222700  0.22917800  0.00233200  1
  O  O113  1  0.78170400  0.32915300  0.00174800  1
  O  O114  1  0.77484400  0.42919200  0.99864700  1
  O  O115  1  0.77861600  0.52938200  0.00199300  1
  O  O116  1  0.78378500  0.62873500  0.99897300  1
  O  O117  1  0.79136200  0.72927700  0.00425900  1
  O  O118  1  0.78688900  0.82839000  0.99940500  1
  O  O119  1  0.78333400  0.92825000  0.99615700  1
loop_
_geom_bond_atom_site_label_1
_geom_bond_atom_site_label_2
_geom_bond_distance
_geom_bond_site_symmetry_2
Fe0 O1 1.994593 1_555
Fe0 O70 1.997742 1_455
Fe0 O19 2.015013 1_545
Fe0 O59 2.026090 1_445
Fe0 O20 2.075414 1_555
Fe0 O99 2.096072 1_445
Fe1 O0 1.996371 1_555
Fe1 O71 2.005232 1_455
Fe1 O10 2.006415 1_555
Fe1 O90 2.021861 1_455
Fe1 O21 2.067130 1_555
Fe1 O50 2.075634 1_455
Fe2 O91 1.996371 1_555
Fe2 O72 2.003487 1_555
Fe2 O11 2.018288 1_655
Fe2 O22 2.035199 1_655
Fe2 O2 2.047206 1_655
Fe2 O51 2.083904 1_555
Fe3 O12 2.014008 1_555
Fe3 O73 2.014008 1_455
Fe3 O3 2.038033 1_555
Fe3 O92 2.038033 1_455
Fe3 O23 2.043423 1_555
Fe3 O52 2.043423 1_455
Fe4 O4 1.996371 1_555
Fe4 O13 2.003487 1_555
Fe4 O75 2.018288 1_455
Fe4 O53 2.035199 1_455
Fe4 O93 2.047206 1_455
Fe4 O24 2.083904 1_555
Fe5 O94 1.996371 1_555
Fe5 O14 2.005232 1_655
Fe5 O74 2.006415 1_555
Fe5 O5 2.021861 1_655
Fe5 O54 2.067130 1_555
Fe5 O25 2.075634 1_655
Fe6 O95 1.994593 1_555
Fe6 O15 1.997742 1_655
Fe6 O76 2.015013 1_555
Fe6 O26 2.026090 1_655
Fe6 O55 2.075414 1_555
Fe6 O6 2.096072 1_655
Fe7 O8 2.039198 1_555
Fe7 O98 2.039198 1_455
Fe7 O78 2.051249 1_455
Fe7 O17 2.051249 1_555
Fe7 O28 2.051434 1_555
Fe7 O58 2.051434 1_455
Fe8 O30 2.003144 1_565
Fe8 O69 2.008493 1_555
Fe8 O80 2.009244 1_564
Fe8 O109 2.017375 1_455
Fe8 O49 2.018686 1_454
Fe8 O110 2.096945 1_465
Fe9 O100 1.991423 1_555
Fe9 O31 2.005212 1_656
Fe9 O40 2.011381 1_555
Fe9 O81 2.013137 1_655
Fe9 O60 2.061436 1_655
Fe9 O111 2.096752 1_555
Fe10 O102 1.997895 1_556
Fe10 O82 2.005195 1_656
Fe10 O41 2.007709 1_555
Fe10 O112 2.039340 1_556
Fe10 O32 2.041072 1_656
Fe10 O61 2.090496 1_656
Fe11 O101 2.005534 1_454
Fe11 O83 2.005534 1_555
Fe11 O33 2.034501 1_555
Fe11 O42 2.034501 1_454
Fe11 O113 2.051281 1_455
Fe11 O62 2.051281 1_554
Fe12 O84 1.997895 1_554
Fe12 O103 2.005195 1_454
Fe12 O34 2.007709 1_555
Fe12 O63 2.039340 1_554
Fe12 O43 2.041072 1_454
Fe12 O114 2.090541 1_454
Fe13 O45 2.003144 1_555
Fe13 O116 2.008493 1_555
Fe13 O105 2.009244 1_556
Fe13 O86 2.017375 1_655
Fe13 O36 2.018686 1_656
Fe13 O65 2.096945 1_655
Fe14 O88 1.998400 1_554
Fe14 O106 1.998400 1_455
Fe14 O118 2.001927 1_454
Fe14 O67 2.001927 1_555
Fe14 O38 2.075085 1_555
Fe14 O47 2.075085 1_454
Fe15 O39 1.969346 1_555
Fe15 O89 2.001041 1_554
Fe15 O119 2.001542 1_454
Fe15 O108 2.023699 1_454
Fe15 O68 2.033879 1_554
Fe15 O48 2.128970 1_454
Fe16 O85 1.991423 1_555
Fe16 O44 2.005212 1_454
Fe16 O35 2.011381 1_555
Fe16 O104 2.013137 1_455
Fe16 O115 2.061436 1_455
Fe16 O64 2.096752 1_555
Fe17 O46 1.969346 1_555
Fe17 O107 2.001041 1_556
Fe17 O66 2.001542 1_656
Fe17 O87 2.023699 1_656
Fe17 O117 2.033879 1_556
Fe17 O37 2.128970 1_656
Co0 O16 2.042633 1_655
Co0 O56 2.049369 1_555
Co0 O96 2.078515 1_555
Co0 O27 2.106308 1_655
Co0 O7 2.114473 1_655
Co0 O77 2.116896 1_555
Co1 O79 2.042633 1_455
Co1 O29 2.049369 1_555
Co1 O9 2.078515 1_555
Co1 O57 2.106308 1_455
Co1 O97 2.114473 1_455
Co1 O18 2.116896 1_555
Mo0 O50 1.947631 1_555
Mo0 O20 1.951903 1_555
Mo0 O30 2.008322 1_555
Mo0 O40 2.010017 1_555
Mo0 O10 2.020923 1_555
Mo0 O70 2.021168 1_555
Mo1 O51 1.945347 1_555
Mo1 O21 1.950726 1_555
Mo1 O31 2.013862 1_555
Mo1 O11 2.021660 1_555
Mo1 O41 2.024738 1_555
Mo1 O71 2.025426 1_555
Mo2 O52 1.976573 1_555
Mo2 O22 1.978288 1_555
Mo2 O32 1.982726 1_555
Mo2 O42 1.990583 1_555
Mo2 O12 2.013633 1_555
Mo2 O72 2.014466 1_555
Mo3 O23 1.976573 1_555
Mo3 O53 1.978288 1_555
Mo3 O43 1.982726 1_555
Mo3 O33 1.990583 1_555
Mo3 O73 2.013633 1_555
Mo3 O13 2.014466 1_555
Mo4 O24 1.945347 1_555
Mo4 O54 1.950726 1_555
Mo4 O44 2.013862 1_555
Mo4 O75 2.021660 1_555
Mo4 O34 2.024738 1_555
Mo4 O14 2.025426 1_555
Mo5 O25 1.947631 1_555
Mo5 O55 1.951903 1_555
Mo5 O45 2.008322 1_555
Mo5 O35 2.010017 1_555
Mo5 O74 2.020923 1_555
Mo5 O15 2.021168 1_555
Mo6 O56 1.951804 1_555
Mo6 O16 1.972284 1_555
Mo6 O26 1.983942 1_555
Mo6 O36 2.005855 1_555
Mo6 O76 2.014825 1_555
Mo6 O46 2.024049 1_555
Mo7 O77 1.910830 1_555
Mo7 O27 1.911191 1_555
Mo7 O37 1.927327 1_555
Mo7 O47 1.959162 1_555
Mo7 O58 1.990536 1_555
Mo7 O17 1.993330 1_555
Mo8 O29 1.951804 1_555
Mo8 O79 1.972284 1_555
Mo8 O59 1.983942 1_555
Mo8 O49 2.005855 1_555
Mo8 O19 2.014825 1_555
Mo8 O39 2.024049 1_555
Mo9 O18 1.910830 1_555
Mo9 O57 1.911191 1_555
Mo9 O48 1.927327 1_555
Mo9 O38 1.959162 1_555
Mo9 O28 1.990536 1_555
Mo9 O78 1.993330 1_555
Mo10 O110 1.946708 1_555
Mo10 O60 1.956439 1_554
Mo10 O80 2.007750 1_554
Mo10 O1 2.008814 1_554
Mo10 O90 2.010793 1_555
Mo10 O100 2.019679 1_554
Mo11 O111 1.939897 1_555
Mo11 O61 1.946845 1_556
Mo11 O0 2.017577 1_555
Mo11 O81 2.017909 1_555
Mo11 O91 2.018462 1_556
Mo11 O102 2.018647 1_556
Mo12 O112 1.975065 1_556
Mo12 O62 1.975491 1_555
Mo12 O2 1.983540 1_555
Mo12 O92 1.989956 1_556
Mo12 O82 2.016277 1_556
Mo12 O101 2.018516 1_555
Mo13 O63 1.975065 1_554
Mo13 O113 1.975491 1_555
Mo13 O93 1.983540 1_555
Mo13 O3 1.989956 1_554
Mo13 O103 2.016277 1_554
Mo13 O83 2.018516 1_555
Mo14 O64 1.939897 1_555
Mo14 O114 1.946812 1_554
Mo14 O94 2.017577 1_555
Mo14 O104 2.017909 1_555
Mo14 O4 2.018462 1_554
Mo14 O84 2.018647 1_554
Mo15 O65 1.946708 1_555
Mo15 O115 1.956439 1_556
Mo15 O105 2.007750 1_556
Mo15 O95 2.008814 1_556
Mo15 O5 2.010793 1_555
Mo15 O85 2.019679 1_556
Mo16 O96 1.939413 1_556
Mo16 O6 1.945117 1_555
Mo16 O116 1.998038 1_555
Mo16 O86 2.005636 1_555
Mo16 O66 2.022620 1_556
Mo16 O107 2.028667 1_556
Mo17 O7 1.906761 1_555
Mo17 O98 1.999592 1_556
Mo17 O117 2.000167 1_556
Mo17 O87 2.000734 1_556
Mo17 O67 2.038761 1_556
Mo17 O106 2.040374 1_556
Mo18 O9 1.939413 1_554
Mo18 O99 1.945117 1_555
Mo18 O69 1.998038 1_555
Mo18 O109 2.005636 1_555
Mo18 O119 2.022620 1_554
Mo18 O89 2.028667 1_554
Mo19 O97 1.906761 1_555
Mo19 O8 1.999592 1_554
Mo19 O68 2.000167 1_554
Mo19 O108 2.000734 1_554
Mo19 O118 2.038761 1_554
Mo19 O88 2.040374 1_554
O0 Sr0 2.811492 1_555
O0 Sr2 2.811861 1_555
O0 Sr21 2.813833 1_455
O0 Sr21 2.828138 1_555
O1 Sr0 2.803087 1_555
O1 Sr20 2.817933 1_555
O1 Sr20 2.824237 1_455
O1 Sr9 2.831000 1_545
O2 Sr1 2.801124 1_555
O2 Sr22 2.808700 1_455
O2 Sr2 2.832829 1_555
O2 Sr22 2.833429 1_555
O3 Sr23 2.809712 1_455
O3 Sr3 2.812975 1_555
O3 Sr1 2.826176 1_555
O3 Sr23 2.832411 1_555
O4 Sr3 2.814566 1_555
O4 Sr4 2.815869 1_555
O4 Sr24 2.820957 1_555
O4 Sr24 2.821072 1_455
O5 Sr5 2.782828 1_555
O5 Sr25 2.814596 1_455
O5 Sr4 2.827325 1_555
O5 Sr25 2.827424 1_555
O6 Sr6 2.785792 1_555
O6 Sr26 2.814030 1_455
O6 Sr26 2.828786 1_555
O6 Sr5 2.850385 1_555
O7 Sr7 2.785214 1_555
O7 Sr27 2.813236 1_455
O7 Sr27 2.832071 1_555
O7 Sr6 2.851371 1_555
O8 Sr28 2.811552 1_555
O8 Sr7 2.814534 1_555
O8 Sr28 2.830655 1_455
O8 Sr8 2.849779 1_555
O9 Sr8 2.778450 1_555
O9 Sr29 2.813727 1_455
O9 Sr29 2.830566 1_555
O9 Sr9 2.830699 1_555
O10 Sr30 2.638653 1_455
O10 Sr0 2.643412 1_555
O10 Sr21 3.033261 1_555
O10 Sr10 3.047914 1_555
O11 Sr2 2.626189 1_555
O11 Sr31 2.641325 1_455
O11 Sr22 3.037260 1_555
O11 Sr11 3.043442 1_555
O12 Sr32 2.631693 1_455
O12 Sr1 2.649636 1_555
O12 Sr23 3.037726 1_555
O12 Sr12 3.048927 1_555
O13 Sr33 2.634269 1_455
O13 Sr3 2.654232 1_555
O13 Sr13 3.037825 1_555
O13 Sr24 3.042927 1_555
O14 Sr4 2.636521 1_555
O14 Sr34 2.638404 1_455
O14 Sr25 3.031913 1_555
O14 Sr14 3.040981 1_555
O15 Sr5 2.648095 1_555
O15 Sr35 2.650730 1_455
O15 Sr26 3.034751 1_555
O15 Sr15 3.058954 1_555
O16 Sr6 2.621451 1_555
O16 Sr36 2.630255 1_455
O16 Sr27 3.037012 1_555
O16 Sr16 3.053642 1_555
O17 Sr7 2.682893 1_555
O17 Sr37 2.699117 1_455
O17 Sr28 3.052904 1_555
O17 Sr17 3.080196 1_555
O18 Sr38 2.669589 1_455
O18 Sr8 2.673059 1_555
O18 Sr18 3.081134 1_555
O18 Sr29 3.097944 1_555
O19 Sr39 2.630529 1_455
O19 Sr9 2.657360 1_555
O19 Sr20 3.022876 1_565
O19 Sr19 3.037895 1_555
O20 Sr19 2.661188 1_545
O20 Sr20 2.667489 1_555
O20 Sr0 3.024643 1_555
O20 Sr30 3.045073 1_455
O21 Sr21 2.649761 1_555
O21 Sr10 2.658425 1_555
O21 Sr2 3.017829 1_555
O21 Sr31 3.038799 1_455
O22 Sr22 2.626621 1_555
O22 Sr11 2.669055 1_555
O22 Sr1 3.012244 1_555
O22 Sr32 3.060178 1_455
O23 Sr23 2.634845 1_555
O23 Sr12 2.671559 1_555
O23 Sr3 3.006200 1_555
O23 Sr33 3.057791 1_455
O24 Sr24 2.649228 1_555
O24 Sr13 2.665232 1_555
O24 Sr4 3.015474 1_555
O24 Sr34 3.026277 1_455
O25 Sr25 2.646948 1_555
O25 Sr14 2.667420 1_555
O25 Sr5 2.999165 1_555
O25 Sr35 3.041948 1_455
O26 Sr26 2.652836 1_555
O26 Sr15 2.663089 1_555
O26 Sr6 2.995221 1_555
O26 Sr36 3.044794 1_455
O27 Sr27 2.688633 1_555
O27 Sr16 2.700262 1_555
O27 Sr7 3.051162 1_555
O27 Sr37 3.066016 1_455
O28 Sr17 2.676153 1_555
O28 Sr28 2.681688 1_555
O28 Sr8 3.082073 1_555
O28 Sr38 3.086976 1_455
O29 Sr18 2.646748 1_555
O29 Sr29 2.673247 1_555
O29 Sr9 3.014745 1_555
O29 Sr39 3.020768 1_455
O30 Sr10 2.805635 1_555
O30 Sr30 2.818118 1_455
O30 Sr19 2.822751 1_545
O30 Sr30 2.823934 1_555
O31 Sr11 2.791837 1_555
O31 Sr31 2.816774 1_555
O31 Sr31 2.825230 1_455
O31 Sr10 2.826207 1_555
O32 Sr32 2.810870 1_555
O32 Sr12 2.813091 1_555
O32 Sr32 2.831314 1_455
O32 Sr11 2.837978 1_555
O33 Sr12 2.813225 1_555
O33 Sr33 2.818737 1_555
O33 Sr13 2.821607 1_555
O33 Sr33 2.823505 1_455
O34 Sr14 2.805758 1_555
O34 Sr13 2.816770 1_555
O34 Sr34 2.816954 1_455
O34 Sr34 2.825025 1_555
O35 Sr35 2.817080 1_555
O35 Sr15 2.820396 1_555
O35 Sr14 2.824196 1_555
O35 Sr35 2.824908 1_455
O36 Sr16 2.766242 1_555
O36 Sr15 2.799671 1_555
O36 Sr36 2.811130 1_555
O36 Sr36 2.830841 1_455
O37 Sr17 2.810479 1_555
O37 Sr37 2.820468 1_455
O37 Sr37 2.827586 1_555
O37 Sr16 2.883656 1_555
O38 Sr17 2.803470 1_555
O38 Sr38 2.820830 1_555
O38 Sr38 2.825899 1_455
O38 Sr18 2.876481 1_555
O39 Sr18 2.756620 1_555
O39 Sr39 2.819376 1_455
O39 Sr39 2.822844 1_555
O39 Sr19 2.825327 1_555
O40 Sr0 2.817080 1_555
O40 Sr20 2.820396 1_555
O40 Sr21 2.824196 1_555
O40 Sr0 2.824908 1_655
O41 Sr21 2.805758 1_555
O41 Sr22 2.816770 1_555
O41 Sr2 2.816954 1_655
O41 Sr2 2.825025 1_555
O42 Sr23 2.813225 1_555
O42 Sr1 2.818737 1_555
O42 Sr22 2.821607 1_555
O42 Sr1 2.823505 1_655
O43 Sr3 2.810870 1_555
O43 Sr23 2.813091 1_555
O43 Sr3 2.831314 1_655
O43 Sr24 2.837978 1_555
O44 Sr24 2.791837 1_555
O44 Sr4 2.816774 1_555
O44 Sr4 2.825230 1_655
O44 Sr25 2.826207 1_555
O45 Sr25 2.805635 1_555
O45 Sr5 2.818118 1_655
O45 Sr26 2.822751 1_555
O45 Sr5 2.823934 1_555
O46 Sr27 2.756620 1_555
O46 Sr6 2.819376 1_655
O46 Sr6 2.822844 1_555
O46 Sr26 2.825327 1_555
O47 Sr28 2.803470 1_555
O47 Sr7 2.820830 1_555
O47 Sr7 2.825899 1_655
O47 Sr27 2.876481 1_555
O48 Sr28 2.810479 1_555
O48 Sr8 2.820468 1_655
O48 Sr8 2.827586 1_555
O48 Sr29 2.883656 1_555
O49 Sr29 2.766242 1_555
O49 Sr20 2.799671 1_565
O49 Sr9 2.811130 1_555
O49 Sr9 2.830841 1_655
O50 Sr10 2.646948 1_555
O50 Sr21 2.667420 1_555
O50 Sr30 2.999165 1_555
O50 Sr0 3.041948 1_655
O51 Sr11 2.649228 1_555
O51 Sr22 2.665232 1_555
O51 Sr31 3.015474 1_555
O51 Sr2 3.026277 1_655
O52 Sr12 2.634845 1_555
O52 Sr23 2.671559 1_555
O52 Sr32 3.006200 1_555
O52 Sr1 3.057791 1_655
O53 Sr13 2.626621 1_555
O53 Sr24 2.669055 1_555
O53 Sr33 3.012244 1_555
O53 Sr3 3.060178 1_655
O54 Sr14 2.649761 1_555
O54 Sr25 2.658425 1_555
O54 Sr34 3.017829 1_555
O54 Sr4 3.038799 1_655
O55 Sr26 2.661188 1_555
O55 Sr15 2.667489 1_555
O55 Sr35 3.024643 1_555
O55 Sr5 3.045073 1_655
O56 Sr27 2.646748 1_555
O56 Sr16 2.673247 1_555
O56 Sr36 3.014745 1_555
O56 Sr6 3.020768 1_655
O57 Sr18 2.688633 1_555
O57 Sr29 2.700262 1_555
O57 Sr38 3.051162 1_555
O57 Sr8 3.066016 1_655
O58 Sr28 2.676153 1_555
O58 Sr17 2.681688 1_555
O58 Sr37 3.082073 1_555
O58 Sr7 3.086976 1_655
O59 Sr19 2.652836 1_555
O59 Sr20 2.663089 1_565
O59 Sr39 2.995221 1_555
O59 Sr9 3.044794 1_655
O60 Sr20 2.635049 1_455
O60 Sr10 2.652705 1_556
O60 Sr0 3.022252 1_555
O60 Sr31 3.029770 1_556
O61 Sr11 2.649575 1_555
O61 Sr21 2.651468 1_454
O61 Sr32 3.021879 1_555
O61 Sr2 3.044332 1_554
O62 Sr22 2.630375 1_455
O62 Sr12 2.647225 1_556
O62 Sr1 3.021492 1_555
O62 Sr33 3.037481 1_556
O63 Sr23 2.628006 1_455
O63 Sr13 2.646022 1_556
O63 Sr3 3.029149 1_555
O63 Sr34 3.046824 1_556
O64 Sr14 2.641177 1_555
O64 Sr24 2.642238 1_454
O64 Sr35 3.023913 1_555
O64 Sr4 3.047158 1_554
O65 Sr25 2.625055 1_455
O65 Sr15 2.640910 1_556
O65 Sr5 3.018483 1_555
O65 Sr36 3.039539 1_556
O66 Sr16 2.613259 1_555
O66 Sr26 2.643539 1_454
O66 Sr37 2.974306 1_555
O66 Sr6 3.068197 1_554
O67 Sr17 2.592263 1_555
O67 Sr27 2.643257 1_454
O67 Sr38 3.003867 1_555
O67 Sr7 3.009043 1_554
O68 Sr28 2.564550 1_455
O68 Sr18 2.620645 1_556
O68 Sr8 3.010818 1_555
O68 Sr39 3.082171 1_556
O69 Sr29 2.583153 1_454
O69 Sr19 2.617476 1_555
O69 Sr30 3.035997 1_565
O69 Sr9 3.050120 1_554
O70 Sr30 2.648095 1_555
O70 Sr0 2.650730 1_655
O70 Sr19 3.034751 1_545
O70 Sr20 3.058954 1_555
O71 Sr31 2.636521 1_555
O71 Sr2 2.638404 1_655
O71 Sr10 3.031913 1_555
O71 Sr21 3.040981 1_555
O72 Sr1 2.634269 1_655
O72 Sr32 2.654232 1_555
O72 Sr22 3.037825 1_555
O72 Sr11 3.042927 1_555
O73 Sr3 2.631693 1_655
O73 Sr33 2.649636 1_555
O73 Sr12 3.037726 1_555
O73 Sr23 3.048927 1_555
O74 Sr5 2.638653 1_655
O74 Sr35 2.643412 1_555
O74 Sr14 3.033261 1_555
O74 Sr25 3.047914 1_555
O75 Sr34 2.626189 1_555
O75 Sr4 2.641325 1_655
O75 Sr13 3.037260 1_555
O75 Sr24 3.043442 1_555
O76 Sr6 2.630529 1_655
O76 Sr36 2.657360 1_555
O76 Sr15 3.022876 1_555
O76 Sr26 3.037895 1_555
O77 Sr7 2.669589 1_655
O77 Sr37 2.673059 1_555
O77 Sr27 3.081134 1_555
O77 Sr16 3.097944 1_555
O78 Sr38 2.682893 1_555
O78 Sr8 2.699117 1_655
O78 Sr17 3.052904 1_555
O78 Sr28 3.080196 1_555
O79 Sr39 2.621451 1_555
O79 Sr9 2.630255 1_655
O79 Sr18 3.037012 1_555
O79 Sr29 3.053642 1_555
O80 Sr30 2.638738 1_556
O80 Sr9 2.642811 1_545
O80 Sr10 3.011964 1_556
O80 Sr20 3.024285 1_455
O81 Sr0 2.646288 1_555
O81 Sr31 2.652780 1_556
O81 Sr11 3.013268 1_556
O81 Sr21 3.033005 1_455
O82 Sr32 2.637932 1_555
O82 Sr2 2.655156 1_554
O82 Sr12 3.016882 1_555
O82 Sr22 3.048962 1_454
O83 Sr33 2.639768 1_555
O83 Sr1 2.651937 1_554
O83 Sr13 3.006026 1_555
O83 Sr23 3.038952 1_454
O84 Sr3 2.650096 1_555
O84 Sr34 2.661564 1_556
O84 Sr14 3.020050 1_556
O84 Sr24 3.037834 1_455
O85 Sr4 2.635622 1_554
O85 Sr35 2.638308 1_555
O85 Sr15 3.032179 1_555
O85 Sr25 3.048067 1_454
O86 Sr5 2.631127 1_555
O86 Sr36 2.636071 1_556
O86 Sr16 2.992885 1_556
O86 Sr26 3.042735 1_455
O87 Sr37 2.583567 1_555
O87 Sr6 2.673155 1_554
O87 Sr17 2.980501 1_555
O87 Sr27 3.031573 1_454
O88 Sr7 2.595347 1_555
O88 Sr38 2.600281 1_556
O88 Sr28 3.012141 1_455
O88 Sr18 3.057086 1_556
O89 Sr8 2.570730 1_555
O89 Sr39 2.641595 1_556
O89 Sr19 3.038770 1_556
O89 Sr29 3.051703 1_455
O90 Sr30 2.782828 1_555
O90 Sr10 2.814596 1_655
O90 Sr31 2.827325 1_555
O90 Sr10 2.827424 1_555
O91 Sr32 2.814566 1_555
O91 Sr31 2.815869 1_555
O91 Sr11 2.820957 1_555
O91 Sr11 2.821072 1_655
O92 Sr12 2.809712 1_655
O92 Sr32 2.813031 1_555
O92 Sr33 2.826120 1_555
O92 Sr12 2.832410 1_555
O93 Sr33 2.801124 1_555
O93 Sr13 2.808700 1_655
O93 Sr34 2.832829 1_555
O93 Sr13 2.833429 1_555
O94 Sr35 2.811492 1_555
O94 Sr34 2.811861 1_555
O94 Sr14 2.813833 1_655
O94 Sr14 2.828138 1_555
O95 Sr35 2.803087 1_555
O95 Sr15 2.817933 1_555
O95 Sr15 2.824237 1_655
O95 Sr36 2.831000 1_555
O96 Sr37 2.778450 1_555
O96 Sr16 2.813727 1_655
O96 Sr16 2.830566 1_555
O96 Sr36 2.830699 1_555
O97 Sr38 2.785214 1_555
O97 Sr18 2.813236 1_655
O97 Sr18 2.832071 1_555
O97 Sr39 2.851371 1_555
O98 Sr17 2.811552 1_555
O98 Sr38 2.814534 1_555
O98 Sr17 2.830655 1_655
O98 Sr37 2.849779 1_555
O99 Sr39 2.785792 1_555
O99 Sr19 2.814030 1_655
O99 Sr19 2.828786 1_555
O99 Sr30 2.850385 1_565
O100 Sr31 2.635622 1_556
O100 Sr0 2.638308 1_555
O100 Sr20 3.032179 1_555
O100 Sr10 3.048067 1_656
O101 Sr1 2.639768 1_555
O101 Sr33 2.651937 1_556
O101 Sr22 3.006026 1_555
O101 Sr12 3.038952 1_656
O102 Sr32 2.650096 1_555
O102 Sr2 2.661564 1_554
O102 Sr21 3.020050 1_554
O102 Sr11 3.037834 1_655
O103 Sr3 2.637932 1_555
O103 Sr34 2.655156 1_556
O103 Sr23 3.016882 1_555
O103 Sr13 3.048962 1_656
O104 Sr35 2.646288 1_555
O104 Sr4 2.652780 1_554
O104 Sr24 3.013268 1_554
O104 Sr14 3.033005 1_655
O105 Sr5 2.638738 1_554
O105 Sr36 2.642811 1_555
O105 Sr25 3.011964 1_554
O105 Sr15 3.024285 1_655
O106 Sr38 2.595347 1_555
O106 Sr7 2.600281 1_554
O106 Sr17 3.012141 1_655
O106 Sr27 3.057086 1_554
O107 Sr37 2.570730 1_555
O107 Sr6 2.641595 1_554
O107 Sr26 3.038770 1_554
O107 Sr16 3.051703 1_655
O108 Sr8 2.583567 1_555
O108 Sr39 2.673155 1_556
O108 Sr28 2.980501 1_555
O108 Sr18 3.031573 1_656
O109 Sr30 2.631127 1_565
O109 Sr9 2.636071 1_554
O109 Sr29 2.992885 1_554
O109 Sr19 3.042735 1_655
O110 Sr10 2.625055 1_655
O110 Sr20 2.640910 1_554
O110 Sr30 3.018483 1_555
O110 Sr9 3.039539 1_544
O111 Sr21 2.641177 1_555
O111 Sr11 2.642238 1_656
O111 Sr0 3.023913 1_555
O111 Sr31 3.047158 1_556
O112 Sr12 2.628006 1_655
O112 Sr22 2.646022 1_554
O112 Sr32 3.029149 1_555
O112 Sr2 3.046824 1_554
O113 Sr13 2.630375 1_655
O113 Sr23 2.647225 1_554
O113 Sr33 3.021492 1_555
O113 Sr1 3.037481 1_554
O114 Sr24 2.649550 1_555
O114 Sr14 2.651443 1_656
O114 Sr3 3.021910 1_555
O114 Sr34 3.044363 1_556
O115 Sr15 2.635049 1_655
O115 Sr25 2.652705 1_554
O115 Sr35 3.022252 1_555
O115 Sr4 3.029770 1_554
O116 Sr16 2.583153 1_656
O116 Sr26 2.617476 1_555
O116 Sr5 3.035997 1_555
O116 Sr36 3.050120 1_556
O117 Sr17 2.564550 1_655
O117 Sr27 2.620645 1_554
O117 Sr37 3.010818 1_555
O117 Sr6 3.082171 1_554
O118 Sr28 2.592263 1_555
O118 Sr18 2.643257 1_656
O118 Sr7 3.003867 1_555
O118 Sr38 3.009043 1_556
O119 Sr29 2.613259 1_555
O119 Sr19 2.643539 1_656
O119 Sr8 2.974306 1_555
O119 Sr39 3.068197 1_556
