# generated using pymatgen
data_MnFe3(PO4)4
_symmetry_space_group_name_H-M   'P 1'
_cell_length_a   4.89737500
_cell_length_b   9.91878600
_cell_length_c   11.93836400
_cell_angle_alpha   90.00000000
_cell_angle_beta   90.00000000
_cell_angle_gamma   90.00000000
_symmetry_Int_Tables_number   1
_chemical_formula_structural   MnFe3(PO4)4
_chemical_formula_sum   'Mn2 Fe6 P8 O32'
_cell_volume   579.91814381
_cell_formula_units_Z   2
loop_
 _symmetry_equiv_pos_site_id
 _symmetry_equiv_pos_as_xyz
  1  'x, y, z'
loop_
 _atom_site_type_symbol
 _atom_site_label
 _atom_site_symmetry_multiplicity
 _atom_site_fract_x
 _atom_site_fract_y
 _atom_site_fract_z
 _atom_site_occupancy
  Mn  Mn0  1  0.81270600  0.71773400  0.50000000  1
  Mn  Mn1  1  0.18729400  0.21773400  0.00000000  1
  Fe  Fe0  1  0.78083400  0.72717400  0.00000000  1
  Fe  Fe1  1  0.21916600  0.22717400  0.50000000  1
  Fe  Fe2  1  0.28458700  0.77459200  0.25113500  1
  Fe  Fe3  1  0.28458700  0.77459200  0.74886500  1
  Fe  Fe4  1  0.71541300  0.27459200  0.75113500  1
  Fe  Fe5  1  0.71541300  0.27459200  0.24886500  1
  P  P0  1  0.83304900  0.59712800  0.24831500  1
  P  P1  1  0.83304900  0.59712800  0.75168500  1
  P  P2  1  0.16695100  0.09712800  0.25168500  1
  P  P3  1  0.16695100  0.09712800  0.74831500  1
  P  P4  1  0.33126700  0.89939600  0.50000000  1
  P  P5  1  0.32991200  0.90429400  0.00000000  1
  P  P6  1  0.66873300  0.39939600  0.00000000  1
  P  P7  1  0.67008800  0.40429400  0.50000000  1
  O  O0  1  0.90327900  0.44685600  0.25057700  1
  O  O1  1  0.90327900  0.44685600  0.74942300  1
  O  O2  1  0.97915900  0.67234900  0.65157400  1
  O  O3  1  0.97816400  0.67194900  0.85155000  1
  O  O4  1  0.97816400  0.67194900  0.14845000  1
  O  O5  1  0.97915900  0.67234900  0.34842600  1
  O  O6  1  0.98254100  0.37983600  0.00000000  1
  O  O7  1  0.97911500  0.38309200  0.50000000  1
  O  O8  1  0.02088500  0.88309200  0.00000000  1
  O  O9  1  0.01745900  0.87983600  0.50000000  1
  O  O10  1  0.02183600  0.17194900  0.64845000  1
  O  O11  1  0.02084100  0.17234900  0.84842600  1
  O  O12  1  0.02183600  0.17194900  0.35155000  1
  O  O13  1  0.02084100  0.17234900  0.15157400  1
  O  O14  1  0.09672100  0.94685600  0.75057700  1
  O  O15  1  0.09672100  0.94685600  0.24942300  1
  O  O16  1  0.39833600  0.05596100  0.00000000  1
  O  O17  1  0.39021200  0.05128500  0.50000000  1
  O  O18  1  0.47589300  0.83096200  0.10039100  1
  O  O19  1  0.46899100  0.82754400  0.39805300  1
  O  O20  1  0.47589300  0.83096200  0.89960900  1
  O  O21  1  0.46899100  0.82754400  0.60194700  1
  O  O22  1  0.47537900  0.11923300  0.25141300  1
  O  O23  1  0.47537900  0.11923300  0.74858700  1
  O  O24  1  0.52462100  0.61923300  0.75141300  1
  O  O25  1  0.52462100  0.61923300  0.24858700  1
  O  O26  1  0.53100900  0.32754400  0.10194700  1
  O  O27  1  0.52410700  0.33096200  0.39960900  1
  O  O28  1  0.52410700  0.33096200  0.60039100  1
  O  O29  1  0.53100900  0.32754400  0.89805300  1
  O  O30  1  0.60978800  0.55128500  0.00000000  1
  O  O31  1  0.60166400  0.55596100  0.50000000  1
loop_
_geom_bond_atom_site_label_1
_geom_bond_atom_site_label_2
_geom_bond_distance
_geom_bond_site_symmetry_2
Mn0 O9 1.894917 1_655
Mn0 O31 1.908650 1_555
Mn0 O5 2.035098 1_555
Mn0 O2 2.035098 1_555
Mn0 O21 2.345443 1_555
Mn0 O19 2.345443 1_555
Mn1 O6 1.894917 1_455
Mn1 O16 1.908650 1_555
Mn1 O13 2.035098 1_555
Mn1 O11 2.035098 1_554
Mn1 O26 2.345443 1_555
Mn1 O29 2.345443 1_554
Fe0 O30 1.935291 1_555
Fe0 O8 1.942626 1_655
Fe0 O3 2.091613 1_554
Fe0 O4 2.091613 1_555
Fe0 O18 2.174042 1_555
Fe0 O20 2.174042 1_554
Fe1 O17 1.935291 1_555
Fe1 O7 1.942626 1_455
Fe1 O10 2.091613 1_555
Fe1 O12 2.091613 1_555
Fe1 O28 2.174042 1_555
Fe1 O27 2.174042 1_555
Fe2 O25 1.938404 1_555
Fe2 O15 1.940720 1_555
Fe2 O19 2.041523 1_555
Fe2 O18 2.104539 1_555
Fe2 O5 2.148238 1_455
Fe2 O4 2.188911 1_455
Fe3 O24 1.938404 1_555
Fe3 O14 1.940720 1_555
Fe3 O21 2.041523 1_555
Fe3 O20 2.104539 1_555
Fe3 O2 2.148238 1_455
Fe3 O3 2.188911 1_455
Fe4 O23 1.938404 1_555
Fe4 O1 1.940720 1_555
Fe4 O29 2.041523 1_555
Fe4 O28 2.104539 1_555
Fe4 O11 2.148238 1_655
Fe4 O10 2.188911 1_655
Fe5 O22 1.938404 1_555
Fe5 O0 1.940720 1_555
Fe5 O26 2.041523 1_555
Fe5 O27 2.104539 1_555
Fe5 O13 2.148238 1_655
Fe5 O12 2.188911 1_655
O0 P0 1.529923 1_555
O1 P1 1.529923 1_555
O2 P1 1.580221 1_555
O3 P1 1.573922 1_555
O4 P0 1.573922 1_555
O5 P0 1.580221 1_555
O6 P6 1.549033 1_555
O7 P7 1.527962 1_555
O8 P5 1.527962 1_555
O9 P4 1.549033 1_555
O10 P3 1.573922 1_555
O11 P3 1.580221 1_555
O12 P2 1.573922 1_555
O13 P2 1.580221 1_555
O14 P3 1.529923 1_565
O15 P2 1.529923 1_565
O16 P5 1.541223 1_545
O17 P4 1.533962 1_545
O18 P5 1.573718 1_555
O19 P4 1.563373 1_555
O20 P5 1.573718 1_556
O21 P4 1.563373 1_555
O22 P2 1.526321 1_555
O23 P3 1.526321 1_555
O24 P1 1.526321 1_555
O25 P0 1.526321 1_555
O26 P6 1.563373 1_555
O27 P7 1.573718 1_555
O28 P7 1.573718 1_555
O29 P6 1.563373 1_556
O30 P6 1.533962 1_555
O31 P7 1.541223 1_555
