# generated using pymatgen
data_Li9(CoO4)2
_symmetry_space_group_name_H-M   'P 1'
_cell_length_a   6.39903278
_cell_length_b   6.39903278
_cell_length_c   4.74285089
_cell_angle_alpha   89.41517296
_cell_angle_beta   89.41517296
_cell_angle_gamma   89.38355576
_symmetry_Int_Tables_number   1
_chemical_formula_structural   Li9(CoO4)2
_chemical_formula_sum   'Li9 Co2 O8'
_cell_volume   194.17720040
_cell_formula_units_Z   1
loop_
 _symmetry_equiv_pos_site_id
 _symmetry_equiv_pos_as_xyz
  1  'x, y, z'
loop_
 _atom_site_type_symbol
 _atom_site_label
 _atom_site_symmetry_multiplicity
 _atom_site_fract_x
 _atom_site_fract_y
 _atom_site_fract_z
 _atom_site_occupancy
  Li  Li0  1  0.93308800  0.06691200  0.50000000  1
  Li  Li1  1  0.75771700  0.74763200  0.42781900  1
  Li  Li2  1  0.72831000  0.72341900  0.93289300  1
  Li  Li3  1  0.54688300  0.45311700  0.50000000  1
  Li  Li4  1  0.47016400  0.96304300  0.99647000  1
  Li  Li5  1  0.27658100  0.27169000  0.06710700  1
  Li  Li6  1  0.25236800  0.24228300  0.57218100  1
  Li  Li7  1  0.03695700  0.52983600  0.00353000  1
  Li  Li8  1  0.02798100  0.97201900  0.00000000  1
  Co  Co0  1  0.74429700  0.25570300  0.00000000  1
  Co  Co1  1  0.24824200  0.75175800  0.50000000  1
  O  O0  1  0.00292900  0.76723700  0.71042200  1
  O  O1  1  0.75850200  0.50168800  0.19858800  1
  O  O2  1  0.75401400  0.98208400  0.17224900  1
  O  O3  1  0.49146800  0.74430900  0.68853000  1
  O  O4  1  0.49831200  0.24149800  0.80141200  1
  O  O5  1  0.25569100  0.50853200  0.31147000  1
  O  O6  1  0.23276300  0.99707100  0.28957800  1
  O  O7  1  0.01791600  0.24598600  0.82775100  1
loop_
_geom_bond_atom_site_label_1
_geom_bond_atom_site_label_2
_geom_bond_distance
_geom_bond_site_symmetry_2
Li0 O7 2.022647 1_655
Li0 O2 2.022647 1_545
Li0 O6 2.196506 1_645
Li0 O0 2.196506 1_645
Li1 O2 1.919197 1_555
Li1 O1 1.921862 1_555
Li1 O0 2.079663 1_655
Li1 O3 2.095083 1_555
Li2 O1 1.897645 1_556
Li2 O3 1.919988 1_555
Li2 O2 2.025719 1_556
Li2 O0 2.060766 1_655
Li3 O4 1.983540 1_555
Li3 O1 1.983540 1_555
Li3 O3 2.100159 1_555
Li3 O5 2.100159 1_555
Li4 O4 2.008265 1_565
Li4 O2 2.011672 1_556
Li4 O3 2.035772 1_555
Li4 O6 2.060026 1_556
Li5 O4 1.897645 1_554
Li5 O5 1.919988 1_555
Li5 O7 2.025719 1_554
Li5 O6 2.060766 1_545
Li6 O7 1.919197 1_555
Li6 O4 1.921862 1_555
Li6 O6 2.079663 1_545
Li6 O5 2.095083 1_555
Li7 O1 2.008265 1_455
Li7 O7 2.011672 1_554
Li7 O5 2.035772 1_555
Li7 O0 2.060026 1_554
Li8 O0 1.917007 1_554
Li8 O6 1.917007 1_555
Li8 O2 1.927280 1_455
Li8 O7 1.927280 1_564
Co0 O1 1.846121 1_555
Co0 O4 1.846121 1_554
Co0 O7 1.925204 1_654
Co0 O2 1.925204 1_545
Co1 O3 1.802823 1_555
Co1 O5 1.802823 1_555
Co1 O0 1.853826 1_555
Co1 O6 1.853826 1_555
