# generated using pymatgen
data_Li6MnV3(PO4)6
_symmetry_space_group_name_H-M   'P 1'
_cell_length_a   8.56008800
_cell_length_b   8.57894850
_cell_length_c   8.62783478
_cell_angle_alpha   62.14862506
_cell_angle_beta   62.26031844
_cell_angle_gamma   62.42671141
_symmetry_Int_Tables_number   1
_chemical_formula_structural   Li6MnV3(PO4)6
_chemical_formula_sum   'Li6 Mn1 V3 P6 O24'
_cell_volume   470.80373548
_cell_formula_units_Z   1
loop_
 _symmetry_equiv_pos_site_id
 _symmetry_equiv_pos_as_xyz
  1  'x, y, z'
loop_
 _atom_site_type_symbol
 _atom_site_label
 _atom_site_symmetry_multiplicity
 _atom_site_fract_x
 _atom_site_fract_y
 _atom_site_fract_z
 _atom_site_occupancy
  Li  Li0  1  0.98137200  0.00935400  0.99772500  1
  Li  Li1  1  0.23916800  0.65274100  0.86048800  1
  Li  Li2  1  0.52835700  0.50043400  0.49368700  1
  Li  Li3  1  0.77651400  0.34101800  0.15241200  1
  Li  Li4  1  0.33621400  0.15797900  0.77386700  1
  Li  Li5  1  0.15708900  0.77636900  0.33852400  1
  Mn  Mn0  1  0.15063400  0.15204200  0.15193200  1
  V  V0  1  0.85862000  0.86220800  0.85690000  1
  V  V1  1  0.64295200  0.64772800  0.63828300  1
  V  V2  1  0.35471900  0.35435900  0.35271800  1
  P  P0  1  0.94422600  0.55385000  0.24912400  1
  P  P1  1  0.55622600  0.24985900  0.94129000  1
  P  P2  1  0.25058000  0.94600100  0.55135800  1
  P  P3  1  0.74547100  0.04284500  0.45943800  1
  P  P4  1  0.45708100  0.74627100  0.03673100  1
  P  P5  1  0.04281500  0.46448600  0.74636700  1
  O  O0  1  0.87660700  0.52402200  0.68277400  1
  O  O1  1  0.66919600  0.88592800  0.51063400  1
  O  O2  1  0.95209600  0.73590000  0.08243700  1
  O  O3  1  0.48320400  0.68364500  0.88117300  1
  O  O4  1  0.75622200  0.58688900  0.40770800  1
  O  O5  1  0.95180200  0.40075900  0.19800400  1
  O  O6  1  0.74560000  0.09300500  0.92545600  1
  O  O7  1  0.57461400  0.41836100  0.75580600  1
  O  O8  1  0.40777500  0.75249900  0.58037800  1
  O  O9  1  0.80449700  0.00695100  0.61739600  1
  O  O10  1  0.90340300  0.04795600  0.27221000  1
  O  O11  1  0.62607500  0.79247600  0.99742100  1
  O  O12  1  0.39981400  0.19825200  0.95447500  1
  O  O13  1  0.10004100  0.92620000  0.74581600  1
  O  O14  1  0.19263800  0.96039300  0.40122000  1
  O  O15  1  0.59157700  0.23760400  0.43182400  1
  O  O16  1  0.43318700  0.58864300  0.22963600  1
  O  O17  1  0.27072500  0.90662600  0.05370000  1
  O  O18  1  0.02717100  0.61924500  0.80279200  1
  O  O19  1  0.23317600  0.43480400  0.58977800  1
  O  O20  1  0.51262400  0.30315600  0.10744800  1
  O  O21  1  0.04569400  0.27688100  0.90532100  1
  O  O22  1  0.30869900  0.11028000  0.50817600  1
  O  O23  1  0.11152400  0.50098200  0.30857500  1
loop_
_geom_bond_atom_site_label_1
_geom_bond_atom_site_label_2
_geom_bond_distance
_geom_bond_site_symmetry_2
Li0 O6 2.095132 1_555
Li0 O2 2.207296 1_546
Li0 O13 2.233191 1_645
Li0 O10 2.284803 1_556
Li0 O21 2.292997 1_655
Li0 O17 2.416595 1_646
Li1 O13 2.059736 1_555
Li1 O8 2.149432 1_555
Li1 O18 2.254088 1_555
Li1 O3 2.317309 1_555
Li1 O2 2.342540 1_456
Li2 O4 2.093628 1_555
Li2 O7 2.203341 1_555
Li2 O8 2.242152 1_555
Li2 O15 2.321173 1_555
Li2 O16 2.443900 1_555
Li2 O19 2.513909 1_555
Li3 O5 2.029433 1_555
Li3 O10 2.158256 1_555
Li3 O15 2.203173 1_555
Li3 O21 2.346566 1_654
Li4 O12 2.076255 1_555
Li4 O21 2.149016 1_555
Li4 O19 2.186587 1_555
Li4 O17 2.405802 1_546
Li5 O14 2.067248 1_555
Li5 O17 2.109278 1_555
Li5 O16 2.210219 1_555
Li5 O10 2.387196 1_465
Mn0 O14 2.080146 1_545
Mn0 O12 2.092416 1_554
Mn0 O5 2.099595 1_455
Mn0 O17 2.249525 1_545
Mn0 O10 2.278655 1_455
Mn0 O21 2.289231 1_554
O0 P5 1.542159 1_655
O0 V1 1.908683 1_555
O1 P3 1.556681 1_565
O1 V1 1.879133 1_555
O2 P0 1.555819 1_555
O2 V0 2.068228 1_554
O3 P4 1.556633 1_556
O3 V1 1.975366 1_555
O4 P0 1.559683 1_555
O4 V1 1.968793 1_555
O5 P0 1.536038 1_555
O6 P1 1.550297 1_555
O6 V0 1.998605 1_545
O7 P1 1.578009 1_555
O7 V1 1.972688 1_555
O8 P2 1.576839 1_555
O8 V1 1.987903 1_555
O9 P3 1.520627 1_555
O9 V0 1.996923 1_545
O10 P3 1.547499 1_555
O11 P4 1.520961 1_556
O11 V0 1.992080 1_555
O12 P1 1.536729 1_555
O13 P2 1.558204 1_555
O13 V0 2.050755 1_455
O14 P2 1.526823 1_555
O15 P3 1.570475 1_555
O15 V2 2.085503 1_555
O16 P4 1.573782 1_555
O16 V2 2.051862 1_555
O17 P4 1.548493 1_555
O18 P5 1.547990 1_555
O18 V0 2.035262 1_455
O19 P5 1.559906 1_555
O19 V2 2.101253 1_555
O20 P1 1.536196 1_554
O20 V2 2.038189 1_555
O21 P5 1.550530 1_555
O22 P2 1.535743 1_545
O22 V2 1.996589 1_555
O23 P0 1.544284 1_455
O23 V2 1.981744 1_555
