# generated using pymatgen
data_Fe4O3F5
_symmetry_space_group_name_H-M   'P 1'
_cell_length_a   6.21423900
_cell_length_b   4.84572700
_cell_length_c   9.65472218
_cell_angle_alpha   88.01471422
_cell_angle_beta   90.00000000
_cell_angle_gamma   90.00000000
_symmetry_Int_Tables_number   1
_chemical_formula_structural   Fe4O3F5
_chemical_formula_sum   'Fe8 O6 F10'
_cell_volume   290.55336935
_cell_formula_units_Z   2
loop_
 _symmetry_equiv_pos_site_id
 _symmetry_equiv_pos_as_xyz
  1  'x, y, z'
loop_
 _atom_site_type_symbol
 _atom_site_label
 _atom_site_symmetry_multiplicity
 _atom_site_fract_x
 _atom_site_fract_y
 _atom_site_fract_z
 _atom_site_occupancy
  Fe  Fe0  1  0.00000000  0.00000000  0.00000000  1
  Fe  Fe1  1  0.50000000  0.00000000  0.00000000  1
  Fe  Fe2  1  0.00000000  0.00000000  0.50000000  1
  Fe  Fe3  1  0.50000000  0.00000000  0.50000000  1
  Fe  Fe4  1  0.25000000  0.59134200  0.75893400  1
  Fe  Fe5  1  0.75000000  0.53934100  0.73066700  1
  Fe  Fe6  1  0.25000000  0.46065900  0.26933300  1
  Fe  Fe7  1  0.75000000  0.40865800  0.24106600  1
  O  O0  1  0.75000000  0.18103500  0.09286000  1
  O  O1  1  0.00280700  0.28638800  0.35821700  1
  O  O2  1  0.49719300  0.28638800  0.35821700  1
  O  O3  1  0.99719300  0.71361200  0.64178300  1
  O  O4  1  0.50280700  0.71361200  0.64178300  1
  O  O5  1  0.25000000  0.81896500  0.90714000  1
  F  F0  1  0.25000000  0.18243500  0.59367700  1
  F  F1  1  0.75000000  0.19971500  0.60028800  1
  F  F2  1  0.25000000  0.21551400  0.10408200  1
  F  F3  1  0.99737700  0.32768400  0.83139300  1
  F  F4  1  0.50262300  0.32768400  0.83139300  1
  F  F5  1  0.00262300  0.67231600  0.16860700  1
  F  F6  1  0.49737700  0.67231600  0.16860700  1
  F  F7  1  0.75000000  0.81756500  0.40632300  1
  F  F8  1  0.75000000  0.78448600  0.89591800  1
  F  F9  1  0.25000000  0.80028500  0.39971200  1
loop_
_geom_bond_atom_site_label_1
_geom_bond_atom_site_label_2
_geom_bond_distance
_geom_bond_site_symmetry_2
Fe0 O0 2.010318 1_455
Fe0 O5 2.010318 1_544
Fe1 O0 2.010318 1_555
Fe1 O5 2.010318 1_544
Fe2 O1 1.915301 1_555
Fe2 O3 1.915301 1_445
Fe3 O2 1.915301 1_555
Fe3 O4 1.915301 1_545
Fe4 O5 1.836681 1_555
Fe4 O4 2.012948 1_555
Fe4 O3 2.012948 1_455
Fe5 O3 1.938813 1_555
Fe5 O4 1.938813 1_555
Fe6 O2 1.938813 1_555
Fe6 O1 1.938813 1_555
Fe7 O0 1.836681 1_555
Fe7 O1 2.012948 1_655
Fe7 O2 2.012948 1_555
F0 Fe2 2.017037 1_555
F0 Fe3 2.017037 1_555
F0 Fe4 2.586667 1_555
F1 Fe2 2.086277 1_655
F1 Fe3 2.086277 1_555
F1 Fe5 2.106297 1_555
F2 Fe6 2.021856 1_555
F2 Fe1 2.141648 1_555
F2 Fe0 2.141648 1_555
F3 Fe5 2.071643 1_555
F3 Fe4 2.127024 1_655
F3 Fe0 2.234369 1_656
F4 Fe5 2.071643 1_555
F4 Fe4 2.127024 1_555
F4 Fe1 2.234369 1_556
F5 Fe6 2.071643 1_555
F5 Fe7 2.127024 1_455
F5 Fe0 2.234369 1_565
F6 Fe6 2.071643 1_555
F6 Fe7 2.127024 1_555
F6 Fe1 2.234369 1_565
F7 Fe2 2.017037 1_665
F7 Fe3 2.017037 1_565
F7 Fe7 2.586667 1_555
F8 Fe5 2.021856 1_555
F8 Fe0 2.141648 1_666
F8 Fe1 2.141648 1_566
F9 Fe3 2.086277 1_565
F9 Fe2 2.086277 1_565
F9 Fe6 2.106297 1_555
