# generated using pymatgen
data_Tm2WO6
_symmetry_space_group_name_H-M   'P 1'
_cell_length_a   5.26636780
_cell_length_b   7.53474819
_cell_length_c   11.21895741
_cell_angle_alpha   75.21558264
_cell_angle_beta   90.00000000
_cell_angle_gamma   90.00000000
_symmetry_Int_Tables_number   1
_chemical_formula_structural   Tm2WO6
_chemical_formula_sum   'Tm8 W4 O24'
_cell_volume   430.43816084
_cell_formula_units_Z   4
loop_
 _symmetry_equiv_pos_site_id
 _symmetry_equiv_pos_as_xyz
  1  'x, y, z'
loop_
 _atom_site_type_symbol
 _atom_site_label
 _atom_site_symmetry_multiplicity
 _atom_site_fract_x
 _atom_site_fract_y
 _atom_site_fract_z
 _atom_site_occupancy
  Tm  Tm0  1  0.73841966  0.00000000  0.75000000  1
  Tm  Tm1  1  0.26158034  0.00000000  0.25000000  1
  Tm  Tm2  1  0.18485863  0.79712945  0.57839867  1
  Tm  Tm3  1  0.81514137  0.79712945  0.07839867  1
  Tm  Tm4  1  0.68297021  0.50000000  0.75000000  1
  Tm  Tm5  1  0.31702979  0.50000000  0.25000000  1
  Tm  Tm6  1  0.18485863  0.20287055  0.92160133  1
  Tm  Tm7  1  0.81514137  0.20287055  0.42160133  1
  W  W0  1  0.25482602  0.72141867  0.88670081  1
  W  W1  1  0.74517398  0.72141867  0.38670081  1
  W  W2  1  0.25482602  0.27858133  0.61329919  1
  W  W3  1  0.74517398  0.27858133  0.11329919  1
  O  O0  1  0.03817740  0.93918782  0.89629566  1
  O  O1  1  0.53075248  0.85035697  0.93042524  1
  O  O2  1  0.96182260  0.93918782  0.39629566  1
  O  O3  1  0.46358869  0.78851923  0.72639735  1
  O  O4  1  0.46924752  0.85035697  0.43042524  1
  O  O5  1  0.98196848  0.71091877  0.77035956  1
  O  O6  1  0.53641131  0.78851923  0.22639735  1
  O  O7  1  0.84836207  0.63237738  0.55050002  1
  O  O8  1  0.35911922  0.48705850  0.88667658  1
  O  O9  1  0.01803152  0.71091877  0.27035956  1
  O  O10  1  0.35911922  0.51294150  0.61332342  1
  O  O11  1  0.84836207  0.36762262  0.94949998  1
  O  O12  1  0.15163793  0.63237738  0.05050002  1
  O  O13  1  0.64088078  0.48705850  0.38667658  1
  O  O14  1  0.98196848  0.28908123  0.72964044  1
  O  O15  1  0.64088078  0.51294150  0.11332342  1
  O  O16  1  0.15163793  0.36762262  0.44949998  1
  O  O17  1  0.46358869  0.21148077  0.77360265  1
  O  O18  1  0.01803152  0.28908123  0.22964044  1
  O  O19  1  0.53075248  0.14964303  0.56957476  1
  O  O20  1  0.53641131  0.21148077  0.27360265  1
  O  O21  1  0.03817740  0.06081218  0.60370434  1
  O  O22  1  0.46924752  0.14964303  0.06957476  1
  O  O23  1  0.96182260  0.06081218  0.10370434  1
loop_
_geom_bond_atom_site_label_1
_geom_bond_atom_site_label_2
_geom_bond_distance
_geom_bond_site_symmetry_2
O0 W0 2.023819 1_555
O0 Tm6 2.216417 1_565
O0 Tm0 2.238758 1_465
O0 Tm3 2.362875 1_456
O1 W0 1.881300 1_555
O1 Tm3 2.195472 1_556
O1 Tm0 2.323765 1_565
O2 W1 2.023819 1_555
O2 Tm7 2.216417 1_565
O2 Tm1 2.238758 1_665
O2 Tm2 2.362875 1_655
O3 W0 2.057830 1_555
O3 Tm2 2.204733 1_555
O3 Tm0 2.217975 1_565
O3 Tm4 2.416004 1_555
O4 W1 1.881300 1_555
O4 Tm2 2.195472 1_555
O4 Tm1 2.323765 1_565
O5 W0 1.956389 1_655
O5 Tm4 2.289657 1_555
O5 Tm2 2.342576 1_655
O5 Tm0 2.487513 1_565
O6 W1 2.057830 1_555
O6 Tm3 2.204733 1_555
O6 Tm1 2.217975 1_565
O6 Tm5 2.416004 1_555
O7 W1 1.869005 1_555
O7 Tm2 2.231063 1_655
O7 Tm4 2.371420 1_555
O8 W0 1.849358 1_555
O8 Tm6 2.269942 1_555
O8 Tm4 2.278862 1_555
O9 W1 1.956389 1_455
O9 Tm5 2.289657 1_555
O9 Tm3 2.342576 1_455
O9 Tm1 2.487513 1_565
O10 W2 1.849358 1_555
O10 Tm2 2.269942 1_555
O10 Tm4 2.278862 1_555
O11 W3 1.869005 1_556
O11 Tm6 2.231063 1_655
O11 Tm4 2.371420 1_555
O12 W0 1.869005 1_554
O12 Tm3 2.231063 1_455
O12 Tm5 2.371420 1_555
O13 W1 1.849358 1_555
O13 Tm7 2.269942 1_555
O13 Tm5 2.278862 1_555
O14 W2 1.956389 1_655
O14 Tm4 2.289657 1_555
O14 Tm6 2.342576 1_655
O14 Tm0 2.487513 1_555
O15 W3 1.849358 1_555
O15 Tm3 2.269942 1_555
O15 Tm5 2.278862 1_555
O16 W2 1.869005 1_555
O16 Tm7 2.231063 1_455
O16 Tm5 2.371420 1_555
O17 W2 2.057830 1_555
O17 Tm6 2.204733 1_555
O17 Tm0 2.217975 1_555
O17 Tm4 2.416004 1_555
O18 W3 1.956389 1_455
O18 Tm5 2.289657 1_555
O18 Tm7 2.342576 1_455
O18 Tm1 2.487513 1_555
O19 W2 1.881300 1_555
O19 Tm7 2.195472 1_555
O19 Tm0 2.323765 1_555
O20 W3 2.057830 1_555
O20 Tm7 2.204733 1_555
O20 Tm1 2.217975 1_555
O20 Tm5 2.416004 1_555
O21 W2 2.023819 1_555
O21 Tm2 2.216417 1_545
O21 Tm0 2.238758 1_455
O21 Tm7 2.362875 1_455
O22 W3 1.881300 1_555
O22 Tm6 2.195472 1_554
O22 Tm1 2.323765 1_555
O23 W3 2.023819 1_555
O23 Tm3 2.216417 1_545
O23 Tm1 2.238758 1_655
O23 Tm6 2.362875 1_654
