# generated using pymatgen
data_Sn(PO3)2
_symmetry_space_group_name_H-M   'P 1'
_cell_length_a   8.02940900
_cell_length_b   7.33599200
_cell_length_c   17.52944470
_cell_angle_alpha   88.74608603
_cell_angle_beta   90.00000000
_cell_angle_gamma   90.00000000
_symmetry_Int_Tables_number   1
_chemical_formula_structural   Sn(PO3)2
_chemical_formula_sum   'Sn8 P16 O48'
_cell_volume   1032.30154452
_cell_formula_units_Z   8
loop_
 _symmetry_equiv_pos_site_id
 _symmetry_equiv_pos_as_xyz
  1  'x, y, z'
loop_
 _atom_site_type_symbol
 _atom_site_label
 _atom_site_symmetry_multiplicity
 _atom_site_fract_x
 _atom_site_fract_y
 _atom_site_fract_z
 _atom_site_occupancy
  Sn  Sn0  1  0.87265800  0.97075100  0.89782700  1
  Sn  Sn1  1  0.62734200  0.97075100  0.39782700  1
  Sn  Sn2  1  0.35926300  0.52001200  0.67460400  1
  Sn  Sn3  1  0.14073700  0.52001200  0.17460400  1
  Sn  Sn4  1  0.85926300  0.47998800  0.82539600  1
  Sn  Sn5  1  0.64073700  0.47998800  0.32539600  1
  Sn  Sn6  1  0.37265800  0.02924900  0.60217300  1
  Sn  Sn7  1  0.12734200  0.02924900  0.10217300  1
  P  P0  1  0.98648000  0.87143000  0.69352600  1
  P  P1  1  0.51352000  0.87143000  0.19352600  1
  P  P2  1  0.71111500  0.75557900  0.58973000  1
  P  P3  1  0.78888500  0.75557900  0.08973000  1
  P  P4  1  0.48556400  0.73162700  0.85634200  1
  P  P5  1  0.01443600  0.73162700  0.35634200  1
  P  P6  1  0.19690500  0.63634500  0.95947200  1
  P  P7  1  0.30309500  0.63634500  0.45947200  1
  P  P8  1  0.69690500  0.36365500  0.54052800  1
  P  P9  1  0.80309500  0.36365500  0.04052800  1
  P  P10  1  0.98556400  0.26837300  0.64365800  1
  P  P11  1  0.51443600  0.26837300  0.14365800  1
  P  P12  1  0.21111500  0.24442100  0.91027000  1
  P  P13  1  0.28888500  0.24442100  0.41027000  1
  P  P14  1  0.48648000  0.12857000  0.80647400  1
  P  P15  1  0.01352000  0.12857000  0.30647400  1
  O  O0  1  0.43539900  0.91503900  0.81038800  1
  O  O1  1  0.66389400  0.90867400  0.53498600  1
  O  O2  1  0.06460100  0.91503900  0.31038800  1
  O  O3  1  0.83610600  0.90867400  0.03498600  1
  O  O4  1  0.17048500  0.84685200  0.68159600  1
  O  O5  1  0.32951500  0.84685200  0.18159600  1
  O  O6  1  0.90751800  0.79838100  0.76574800  1
  O  O7  1  0.89739700  0.79300300  0.61862900  1
  O  O8  1  0.59248200  0.79838100  0.26574800  1
  O  O9  1  0.60260300  0.79300300  0.11862900  1
  O  O10  1  0.66128300  0.74560800  0.88679900  1
  O  O11  1  0.36474800  0.73523300  0.92969100  1
  O  O12  1  0.83871700  0.74560800  0.38679900  1
  O  O13  1  0.13525200  0.73523300  0.42969100  1
  O  O14  1  0.59356700  0.71983700  0.65593600  1
  O  O15  1  0.90643300  0.71983700  0.15593600  1
  O  O16  1  0.32116900  0.68816600  0.54154600  1
  O  O17  1  0.05289700  0.67267400  0.90543100  1
  O  O18  1  0.17883100  0.68816600  0.04154600  1
  O  O19  1  0.44710300  0.67267400  0.40543100  1
  O  O20  1  0.44429600  0.57266400  0.80690600  1
  O  O21  1  0.74437200  0.57674800  0.54115100  1
  O  O22  1  0.05570400  0.57266400  0.30690600  1
  O  O23  1  0.75562800  0.57674800  0.04115100  1
  O  O24  1  0.24437200  0.42325200  0.95884900  1
  O  O25  1  0.94429600  0.42733600  0.69309400  1
  O  O26  1  0.25562800  0.42325200  0.45884900  1
  O  O27  1  0.55570400  0.42733600  0.19309400  1
  O  O28  1  0.55289700  0.32732600  0.59456900  1
  O  O29  1  0.82116900  0.31183400  0.95845400  1
  O  O30  1  0.94710300  0.32732600  0.09456900  1
  O  O31  1  0.67883100  0.31183400  0.45845400  1
  O  O32  1  0.09356700  0.28016300  0.84406400  1
  O  O33  1  0.40643300  0.28016300  0.34406400  1
  O  O34  1  0.86474800  0.26476700  0.57030900  1
  O  O35  1  0.16128300  0.25439200  0.61320100  1
  O  O36  1  0.63525200  0.26476700  0.07030900  1
  O  O37  1  0.33871700  0.25439200  0.11320100  1
  O  O38  1  0.39739700  0.20699700  0.88137100  1
  O  O39  1  0.40751800  0.20161900  0.73425200  1
  O  O40  1  0.10260300  0.20699700  0.38137100  1
  O  O41  1  0.09248200  0.20161900  0.23425200  1
  O  O42  1  0.67048500  0.15314800  0.81840400  1
  O  O43  1  0.82951500  0.15314800  0.31840400  1
  O  O44  1  0.16389400  0.09132600  0.96501400  1
  O  O45  1  0.93539900  0.08496100  0.68961200  1
  O  O46  1  0.33610600  0.09132600  0.46501400  1
  O  O47  1  0.56460100  0.08496100  0.18961200  1
loop_
_geom_bond_atom_site_label_1
_geom_bond_atom_site_label_2
_geom_bond_distance
_geom_bond_site_symmetry_2
O0 P4 1.604403 1_555
O0 P14 1.619268 1_565
O1 P2 1.509584 1_555
O1 Sn1 2.454865 1_555
O1 Sn6 2.771905 1_565
O2 P5 1.604403 1_555
O2 P15 1.619268 1_565
O3 P3 1.509584 1_555
O3 Sn0 2.454865 1_554
O3 Sn7 2.771905 1_665
O4 P0 1.503581 1_455
O4 Sn6 2.506474 1_565
O4 Sn2 2.841550 1_555
O5 P1 1.503581 1_555
O5 Sn7 2.506474 1_565
O5 Sn3 2.841550 1_555
O6 P0 1.504077 1_555
O6 Sn4 2.567516 1_555
O6 Sn0 2.676926 1_555
O7 P2 1.604777 1_555
O7 P0 1.612272 1_555
O8 P1 1.504077 1_555
O8 Sn5 2.567516 1_555
O8 Sn1 2.676926 1_555
O9 P3 1.604777 1_555
O9 P1 1.612272 1_555
O10 P4 1.512830 1_555
O10 Sn0 2.379039 1_555
O10 Sn4 2.752156 1_555
O11 P4 1.611348 1_555
O11 P6 1.611975 1_555
O12 P5 1.512830 1_655
O12 Sn1 2.379039 1_555
O12 Sn5 2.752156 1_555
O13 P5 1.611348 1_555
O13 P7 1.611975 1_555
O14 P2 1.514317 1_555
O14 Sn2 2.402992 1_555
O15 P3 1.514317 1_555
O15 Sn3 2.402992 1_655
O16 P7 1.503133 1_555
O16 Sn2 2.632411 1_555
O16 Sn6 2.770862 1_565
O17 P6 1.514727 1_555
O17 Sn4 2.543722 1_455
O17 Sn0 2.623176 1_455
O18 P6 1.503133 1_554
O18 Sn3 2.632411 1_555
O18 Sn7 2.770862 1_565
O19 P7 1.514727 1_555
O19 Sn5 2.543722 1_555
O19 Sn1 2.623176 1_555
O20 P4 1.504961 1_555
O20 Sn2 2.456250 1_555
O21 P2 1.602014 1_555
O21 P8 1.609309 1_555
O22 P5 1.504961 1_555
O22 Sn3 2.456250 1_555
O23 P3 1.602014 1_555
O23 P9 1.609309 1_555
O24 P12 1.602014 1_555
O24 P6 1.609309 1_555
O25 P10 1.504961 1_555
O25 Sn4 2.456250 1_555
O26 P13 1.602014 1_555
O26 P7 1.609309 1_555
O27 P11 1.504961 1_555
O27 Sn5 2.456250 1_555
O28 P8 1.514727 1_555
O28 Sn2 2.543722 1_555
O28 Sn6 2.623176 1_555
O29 P9 1.503133 1_556
O29 Sn4 2.632411 1_555
O29 Sn0 2.770862 1_545
O30 P9 1.514727 1_555
O30 Sn3 2.543722 1_655
O30 Sn7 2.623176 1_655
O31 P8 1.503133 1_555
O31 Sn5 2.632411 1_555
O31 Sn1 2.770862 1_545
O32 P12 1.514317 1_555
O32 Sn4 2.402992 1_455
O33 P13 1.514317 1_555
O33 Sn5 2.402992 1_555
O34 P10 1.611348 1_555
O34 P8 1.611975 1_555
O35 P10 1.512830 1_455
O35 Sn6 2.379039 1_555
O35 Sn2 2.752156 1_555
O36 P11 1.611348 1_555
O36 P9 1.611975 1_555
O37 P11 1.512830 1_555
O37 Sn7 2.379039 1_555
O37 Sn3 2.752156 1_555
O38 P12 1.604777 1_555
O38 P14 1.612272 1_555
O39 P14 1.504077 1_555
O39 Sn2 2.567516 1_555
O39 Sn6 2.676926 1_555
O40 P13 1.604777 1_555
O40 P15 1.612272 1_555
O41 P15 1.504077 1_555
O41 Sn3 2.567516 1_555
O41 Sn7 2.676926 1_555
O42 P14 1.503581 1_555
O42 Sn0 2.506474 1_545
O42 Sn4 2.841550 1_555
O43 P15 1.503581 1_655
O43 Sn1 2.506474 1_545
O43 Sn5 2.841550 1_555
O44 P12 1.509584 1_555
O44 Sn7 2.454865 1_556
O44 Sn0 2.771905 1_445
O45 P10 1.604403 1_555
O45 P0 1.619268 1_545
O46 P13 1.509584 1_555
O46 Sn6 2.454865 1_555
O46 Sn1 2.771905 1_545
O47 P11 1.604403 1_555
O47 P1 1.619268 1_545
