# generated using pymatgen
data_LiCu5(PO4)2
_symmetry_space_group_name_H-M   'P 1'
_cell_length_a   5.52328800
_cell_length_b   6.25675010
_cell_length_c   10.47696282
_cell_angle_alpha   90.06286327
_cell_angle_beta   90.03082182
_cell_angle_gamma   90.00999076
_symmetry_Int_Tables_number   1
_chemical_formula_structural   LiCu5(PO4)2
_chemical_formula_sum   'Li2 Cu10 P4 O16'
_cell_volume   362.06085279
_cell_formula_units_Z   2
loop_
 _symmetry_equiv_pos_site_id
 _symmetry_equiv_pos_as_xyz
  1  'x, y, z'
loop_
 _atom_site_type_symbol
 _atom_site_label
 _atom_site_symmetry_multiplicity
 _atom_site_fract_x
 _atom_site_fract_y
 _atom_site_fract_z
 _atom_site_occupancy
  Li  Li0  1  0.67453200  0.24917700  0.49609200  1
  Li  Li1  1  0.32487800  0.74935600  0.24827700  1
  Cu  Cu0  1  0.79828800  0.00445600  0.75007100  1
  Cu  Cu1  1  0.80321500  0.99663000  0.24479300  1
  Cu  Cu2  1  0.65766200  0.24493900  0.00039500  1
  Cu  Cu3  1  0.33016100  0.25823000  0.24871500  1
  Cu  Cu4  1  0.34950600  0.25133100  0.75197400  1
  Cu  Cu5  1  0.19596000  0.49512100  0.99884700  1
  Cu  Cu6  1  0.20152100  0.50510100  0.49543700  1
  Cu  Cu7  1  0.34331300  0.74326800  0.74719400  1
  Cu  Cu8  1  0.65494700  0.75547000  0.49659800  1
  Cu  Cu9  1  0.66494000  0.75640900  0.00335200  1
  P  P0  1  0.17162900  0.99406800  0.00306600  1
  P  P1  1  0.17064500  0.00462200  0.49710100  1
  P  P2  1  0.82738900  0.50274000  0.25436000  1
  P  P3  1  0.83041600  0.49661700  0.74594200  1
  O  O0  1  0.17649900  0.99559900  0.64515400  1
  O  O1  1  0.90506600  0.01570900  0.44860000  1
  O  O2  1  0.18062200  0.99251600  0.15086500  1
  O  O3  1  0.91039600  0.99391300  0.94946600  1
  O  O4  1  0.32037800  0.20546800  0.45016900  1
  O  O5  1  0.30165500  0.19912600  0.94928300  1
  O  O6  1  0.69895200  0.29560400  0.19963100  1
  O  O7  1  0.69636300  0.29780800  0.68613300  1
  O  O8  1  0.82453200  0.49271200  0.89377700  1
  O  O9  1  0.09360500  0.49674200  0.69476900  1
  O  O10  1  0.81821600  0.49462200  0.40204400  1
  O  O11  1  0.09184600  0.51456700  0.20387300  1
  O  O12  1  0.69934600  0.70437800  0.69550700  1
  O  O13  1  0.67809800  0.70115500  0.20449100  1
  O  O14  1  0.29868700  0.80179900  0.43646800  1
  O  O15  1  0.30674200  0.79074200  0.95015100  1
loop_
_geom_bond_atom_site_label_1
_geom_bond_atom_site_label_2
_geom_bond_distance
_geom_bond_site_symmetry_2
Li0 O10 1.990673 1_555
Li0 O1 2.000603 1_555
Li0 O7 2.017377 1_555
Li0 O4 2.032510 1_555
Li1 O2 1.998503 1_555
Li1 O14 2.003741 1_555
Li1 O11 2.007054 1_555
Li1 O13 2.026922 1_555
Cu0 O7 2.033990 1_555
Cu0 O12 2.036530 1_545
Cu0 O3 2.179642 1_545
Cu0 O0 2.361674 1_645
Cu1 O6 2.014126 1_565
Cu1 O13 2.017701 1_555
Cu1 O1 2.210940 1_565
Cu1 O2 2.305754 1_655
Cu2 O5 2.057597 1_554
Cu2 O8 2.122483 1_554
Cu2 O6 2.123134 1_555
Cu2 O3 2.167912 1_544
Cu3 O6 2.114115 1_555
Cu3 O2 2.119425 1_545
Cu3 O11 2.127753 1_555
Cu3 O4 2.137355 1_555
Cu4 O7 2.057262 1_555
Cu4 O5 2.109951 1_555
Cu4 O9 2.171749 1_555
Cu4 O0 2.172592 1_545
Cu5 O5 2.009684 1_555
Cu5 O15 2.014403 1_555
Cu5 O11 2.227192 1_556
Cu5 O8 2.327705 1_455
Cu6 O14 2.029368 1_555
Cu6 O4 2.041892 1_555
Cu6 O9 2.172779 1_555
Cu6 O10 2.332686 1_455
Cu7 O12 2.054384 1_555
Cu7 O0 2.118369 1_555
Cu7 O9 2.140009 1_555
Cu7 O15 2.156290 1_555
Cu8 O14 2.086172 1_555
Cu8 O10 2.110953 1_555
Cu8 O12 2.122773 1_555
Cu8 O1 2.194157 1_565
Cu9 O15 2.066455 1_554
Cu9 O3 2.089709 1_554
Cu9 O13 2.137069 1_555
Cu9 O8 2.194195 1_554
O0 P1 1.552554 1_565
O1 P1 1.553717 1_655
O2 P0 1.549296 1_555
O3 P0 1.548012 1_656
O4 P1 1.583135 1_555
O5 P0 1.575139 1_546
O6 P2 1.584059 1_555
O7 P3 1.576583 1_555
O8 P3 1.549440 1_555
O9 P3 1.549657 1_455
O10 P2 1.549025 1_555
O11 P2 1.555541 1_455
O12 P3 1.579394 1_555
O13 P2 1.579678 1_555
O14 P1 1.585280 1_565
O15 P0 1.575399 1_556
