# generated using pymatgen
data_Nb6Co7
_symmetry_space_group_name_H-M   'P 1'
_cell_length_a   9.17238794
_cell_length_b   9.17238794
_cell_length_c   9.17238751
_cell_angle_alpha   30.96928206
_cell_angle_beta   30.96928206
_cell_angle_gamma   30.96928723
_symmetry_Int_Tables_number   1
_chemical_formula_structural   Nb6Co7
_chemical_formula_sum   'Nb6 Co7'
_cell_volume   181.26365603
_cell_formula_units_Z   1
loop_
 _symmetry_equiv_pos_site_id
 _symmetry_equiv_pos_as_xyz
  1  'x, y, z'
loop_
 _atom_site_type_symbol
 _atom_site_label
 _atom_site_symmetry_multiplicity
 _atom_site_fract_x
 _atom_site_fract_y
 _atom_site_fract_z
 _atom_site_occupancy
  Nb  Nb0  1  0.83461900  0.83461900  0.83461900  1
  Nb  Nb1  1  0.16538100  0.16538100  0.16538100  1
  Nb  Nb2  1  0.65624000  0.65624000  0.65624000  1
  Nb  Nb3  1  0.34376000  0.34376000  0.34376000  1
  Nb  Nb4  1  0.55112600  0.55112600  0.55112600  1
  Nb  Nb5  1  0.44887400  0.44887400  0.44887400  1
  Co  Co0  1  0.00000000  0.00000000  0.00000000  1
  Co  Co1  1  0.91078300  0.40633100  0.91078300  1
  Co  Co2  1  0.91078300  0.91078300  0.40633100  1
  Co  Co3  1  0.40633100  0.91078300  0.91078300  1
  Co  Co4  1  0.08921700  0.59366900  0.08921700  1
  Co  Co5  1  0.08921700  0.08921700  0.59366900  1
  Co  Co6  1  0.59366900  0.08921700  0.08921700  1
loop_
_geom_bond_atom_site_label_1
_geom_bond_atom_site_label_2
_geom_bond_distance
_geom_bond_site_symmetry_2
Nb0 Nb1 2.828483 1_665
Nb0 Nb1 2.828483 1_656
Nb0 Nb1 2.828483 1_566
Nb0 Nb4 3.114152 1_556
Nb0 Nb4 3.114152 1_655
Nb0 Nb4 3.114152 1_565
Nb0 Nb5 3.142946 1_556
Nb0 Nb5 3.142946 1_655
Nb0 Nb5 3.142946 1_565
Nb1 Nb5 3.114152 1_554
Nb1 Nb5 3.114152 1_455
Nb1 Nb5 3.114152 1_545
Nb1 Nb4 3.142946 1_554
Nb1 Nb4 3.142946 1_455
Nb1 Nb4 3.142946 1_545
Nb2 Nb4 2.751563 1_555
Nb2 Nb3 2.879890 1_556
Nb2 Nb3 2.879891 1_565
Nb2 Nb3 2.879891 1_655
Nb3 Nb5 2.751563 1_555
Nb4 Nb5 2.676644 1_555
Co0 Co2 2.432660 1_445
Co0 Co5 2.432660 1_554
Co0 Co3 2.432660 1_544
Co0 Co1 2.432660 1_454
Co0 Co4 2.432660 1_545
Co0 Co6 2.432660 1_455
Co0 Nb3 2.840824 1_554
Co0 Nb2 2.840824 1_445
Co0 Nb2 2.840824 1_454
Co0 Nb2 2.840824 1_544
Co0 Nb3 2.840824 1_455
Co0 Nb3 2.840824 1_545
Co1 Co2 2.427040 1_546
Co1 Co3 2.427040 1_645
Co1 Co2 2.470649 1_555
Co1 Co3 2.470650 1_555
Co1 Nb5 2.658984 1_556
Co1 Nb5 2.658984 1_655
Co1 Nb2 2.673766 1_555
Co1 Nb1 2.728005 1_656
Co1 Nb0 2.798719 1_555
Co1 Nb3 2.990036 1_655
Co1 Nb3 2.990036 1_556
Co2 Co3 2.427040 1_654
Co2 Co3 2.470649 1_555
Co2 Nb5 2.658984 1_565
Co2 Nb5 2.658984 1_655
Co2 Nb2 2.673766 1_555
Co2 Nb1 2.728005 1_665
Co2 Nb0 2.798719 1_555
Co2 Nb3 2.990037 1_655
Co2 Nb3 2.990037 1_565
Co3 Nb5 2.658984 1_556
Co3 Nb5 2.658984 1_565
Co3 Nb2 2.673766 1_555
Co3 Nb1 2.728005 1_566
Co3 Nb0 2.798719 1_555
Co3 Nb3 2.990036 1_565
Co3 Nb3 2.990036 1_556
Co4 Co5 2.427040 1_564
Co4 Co6 2.427040 1_465
Co4 Co5 2.470649 1_555
Co4 Co6 2.470650 1_555
Co4 Nb4 2.658984 1_554
Co4 Nb4 2.658984 1_455
Co4 Nb3 2.673766 1_555
Co4 Nb0 2.728005 1_454
Co4 Nb1 2.798719 1_555
Co4 Nb2 2.990036 1_455
Co4 Nb2 2.990036 1_554
Co5 Co6 2.427040 1_456
Co5 Co6 2.470649 1_555
Co5 Nb4 2.658984 1_545
Co5 Nb4 2.658984 1_455
Co5 Nb3 2.673766 1_555
Co5 Nb0 2.728005 1_445
Co5 Nb1 2.798719 1_555
Co5 Nb2 2.990037 1_455
Co5 Nb2 2.990037 1_545
Co6 Nb4 2.658984 1_554
Co6 Nb4 2.658984 1_545
Co6 Nb3 2.673766 1_555
Co6 Nb0 2.728005 1_544
Co6 Nb1 2.798719 1_555
Co6 Nb2 2.990036 1_545
Co6 Nb2 2.990036 1_554
