# generated using pymatgen
data_Li3BiO3
_symmetry_space_group_name_H-M   'P 1'
_cell_length_a   7.74887488
_cell_length_b   7.74887488
_cell_length_c   7.74887488
_cell_angle_alpha   109.47122063
_cell_angle_beta   109.47122063
_cell_angle_gamma   109.47122063
_symmetry_Int_Tables_number   1
_chemical_formula_structural   Li3BiO3
_chemical_formula_sum   'Li12 Bi4 O12'
_cell_volume   358.17399851
_cell_formula_units_Z   4
loop_
 _symmetry_equiv_pos_site_id
 _symmetry_equiv_pos_as_xyz
  1  'x, y, z'
loop_
 _atom_site_type_symbol
 _atom_site_label
 _atom_site_symmetry_multiplicity
 _atom_site_fract_x
 _atom_site_fract_y
 _atom_site_fract_z
 _atom_site_occupancy
  Li  Li0  1  0.70759400  0.46349800  0.00000000  1
  Li  Li1  1  0.70759400  0.00000000  0.46349800  1
  Li  Li2  1  0.75590400  0.29240600  0.29240600  1
  Li  Li3  1  0.53650200  0.53650200  0.24409600  1
  Li  Li4  1  0.53650200  0.24409600  0.53650200  1
  Li  Li5  1  0.46349800  0.70759400  0.00000000  1
  Li  Li6  1  0.46349800  0.00000000  0.70759400  1
  Li  Li7  1  0.29240600  0.29240600  0.75590400  1
  Li  Li8  1  0.29240600  0.75590400  0.29240600  1
  Li  Li9  1  0.24409600  0.53650200  0.53650200  1
  Li  Li10  1  0.00000000  0.70759400  0.46349800  1
  Li  Li11  1  0.00000000  0.46349800  0.70759400  1
  Bi  Bi0  1  0.28149100  0.00000000  0.00000000  1
  Bi  Bi1  1  0.00000000  0.28149100  0.00000000  1
  Bi  Bi2  1  0.00000000  0.00000000  0.28149100  1
  Bi  Bi3  1  0.71850900  0.71850900  0.71850900  1
  O  O0  1  0.50095700  0.24467700  0.00000000  1
  O  O1  1  0.50095700  0.00000000  0.24467700  1
  O  O2  1  0.75532300  0.25628000  0.75532300  1
  O  O3  1  0.75532300  0.75532300  0.25628000  1
  O  O4  1  0.24467700  0.50095700  0.00000000  1
  O  O5  1  0.24467700  0.00000000  0.50095700  1
  O  O6  1  0.74372000  0.49904300  0.49904300  1
  O  O7  1  0.00000000  0.50095700  0.24467700  1
  O  O8  1  0.00000000  0.24467700  0.50095700  1
  O  O9  1  0.49904300  0.74372000  0.49904300  1
  O  O10  1  0.49904300  0.49904300  0.74372000  1
  O  O11  1  0.25628000  0.75532300  0.75532300  1
loop_
_geom_bond_atom_site_label_1
_geom_bond_atom_site_label_2
_geom_bond_distance
_geom_bond_site_symmetry_2
Li0 O0 1.904981 1_555
Li0 O7 2.267949 1_655
Li0 O2 2.267949 1_554
Li0 O10 2.270033 1_554
Li0 O3 2.270033 1_555
Li1 O1 1.904981 1_555
Li1 O8 2.267949 1_655
Li1 O3 2.267949 1_545
Li1 O9 2.270033 1_545
Li1 O2 2.270033 1_555
Li2 O6 1.904981 1_555
Li2 O1 2.267949 1_555
Li2 O0 2.267949 1_555
Li2 O8 2.270033 1_655
Li2 O7 2.270033 1_655
Li3 O3 1.904981 1_555
Li3 O9 2.267949 1_555
Li3 O6 2.267949 1_555
Li3 O0 2.270033 1_555
Li3 O4 2.270033 1_555
Li4 O2 1.904981 1_555
Li4 O10 2.267949 1_555
Li4 O6 2.267949 1_555
Li4 O5 2.270033 1_555
Li4 O1 2.270033 1_555
Li5 O4 1.904981 1_555
Li5 O1 2.267949 1_565
Li5 O11 2.267949 1_554
Li5 O10 2.270033 1_554
Li5 O3 2.270033 1_555
Li6 O5 1.904981 1_555
Li6 O0 2.267949 1_556
Li6 O11 2.267949 1_545
Li6 O9 2.270033 1_545
Li6 O2 2.270033 1_555
Li7 O10 1.904981 1_555
Li7 O8 2.267949 1_555
Li7 O5 2.267949 1_555
Li7 O4 2.270033 1_556
Li7 O0 2.270033 1_556
Li8 O9 1.904981 1_555
Li8 O7 2.267949 1_555
Li8 O4 2.267949 1_555
Li8 O5 2.270033 1_565
Li8 O1 2.270033 1_565
Li9 O11 1.904981 1_555
Li9 O9 2.267949 1_555
Li9 O10 2.267949 1_555
Li9 O8 2.270033 1_555
Li9 O7 2.270033 1_555
Li10 O7 1.904981 1_555
Li10 O5 2.267949 1_565
Li10 O3 2.267949 1_455
Li10 O6 2.270033 1_455
Li10 O11 2.270033 1_555
Li11 O8 1.904981 1_555
Li11 O4 2.267949 1_556
Li11 O2 2.267949 1_455
Li11 O6 2.270033 1_455
Li11 O11 2.270033 1_555
Bi0 O0 2.082607 1_555
Bi0 O1 2.082607 1_555
Bi0 O11 2.082607 1_544
Bi1 O7 2.082607 1_555
Bi1 O4 2.082607 1_555
Bi1 O2 2.082607 1_454
Bi2 O8 2.082607 1_555
Bi2 O5 2.082607 1_555
Bi2 O3 2.082607 1_445
Bi3 O10 2.082607 1_555
Bi3 O6 2.082607 1_555
Bi3 O9 2.082607 1_555
