# generated using pymatgen
data_Na2InPCO7
_symmetry_space_group_name_H-M   'P 1'
_cell_length_a   6.82775300
_cell_length_b   5.27396600
_cell_length_c   9.13950778
_cell_angle_alpha   89.56717630
_cell_angle_beta   90.00000000
_cell_angle_gamma   90.00000000
_symmetry_Int_Tables_number   1
_chemical_formula_structural   Na2InPCO7
_chemical_formula_sum   'Na4 In2 P2 C2 O14'
_cell_volume   329.09822678
_cell_formula_units_Z   2
loop_
 _symmetry_equiv_pos_site_id
 _symmetry_equiv_pos_as_xyz
  1  'x, y, z'
loop_
 _atom_site_type_symbol
 _atom_site_label
 _atom_site_symmetry_multiplicity
 _atom_site_fract_x
 _atom_site_fract_y
 _atom_site_fract_z
 _atom_site_occupancy
  Na  Na0  1  0.49766200  0.23245200  0.77907500  1
  Na  Na1  1  0.00233800  0.23245200  0.77907500  1
  Na  Na2  1  0.50233800  0.76754800  0.22092500  1
  Na  Na3  1  0.99766200  0.76754800  0.22092500  1
  In  In0  1  0.75000000  0.77347700  0.64044000  1
  In  In1  1  0.25000000  0.22652300  0.35956000  1
  P  P0  1  0.25000000  0.71253700  0.57857200  1
  P  P1  1  0.75000000  0.28746300  0.42142800  1
  C  C0  1  0.75000000  0.73099000  0.93026700  1
  C  C1  1  0.25000000  0.26901000  0.06973300  1
  O  O0  1  0.25000000  0.29725300  0.93329900  1
  O  O1  1  0.75000000  0.95336400  0.86439200  1
  O  O2  1  0.75000000  0.53322400  0.83983100  1
  O  O3  1  0.06710400  0.80184700  0.66314500  1
  O  O4  1  0.43289600  0.80184700  0.66314500  1
  O  O5  1  0.75000000  0.17900200  0.58128500  1
  O  O6  1  0.25000000  0.41399000  0.56766200  1
  O  O7  1  0.75000000  0.58601000  0.43233800  1
  O  O8  1  0.25000000  0.82099800  0.41871500  1
  O  O9  1  0.56710400  0.19815300  0.33685500  1
  O  O10  1  0.93289600  0.19815300  0.33685500  1
  O  O11  1  0.25000000  0.46677600  0.16016900  1
  O  O12  1  0.25000000  0.04663600  0.13560800  1
  O  O13  1  0.75000000  0.70274700  0.06670100  1
loop_
_geom_bond_atom_site_label_1
_geom_bond_atom_site_label_2
_geom_bond_distance
_geom_bond_site_symmetry_2
Na0 O0 2.229406 1_555
Na0 O1 2.392814 1_545
Na0 O2 2.409618 1_555
Na0 O5 2.514626 1_555
Na0 O4 2.551853 1_545
Na0 O6 2.735242 1_555
Na1 O0 2.229406 1_555
Na1 O1 2.392814 1_445
Na1 O2 2.409618 1_455
Na1 O5 2.514626 1_455
Na1 O3 2.551853 1_545
Na1 O6 2.735242 1_555
Na2 O13 2.229406 1_555
Na2 O12 2.392814 1_565
Na2 O11 2.409618 1_555
Na2 O8 2.514626 1_555
Na2 O9 2.551853 1_565
Na2 O7 2.735242 1_555
Na3 O13 2.229406 1_555
Na3 O12 2.392814 1_665
Na3 O11 2.409618 1_655
Na3 O8 2.514626 1_655
Na3 O10 2.551853 1_565
Na3 O7 2.735242 1_555
In0 O7 2.150195 1_555
In0 O4 2.180277 1_555
In0 O3 2.180277 1_655
In0 O5 2.202039 1_565
In0 O2 2.211680 1_555
In0 O1 2.262485 1_555
In1 O6 2.150195 1_555
In1 O9 2.180277 1_555
In1 O10 2.180277 1_455
In1 O8 2.202039 1_545
In1 O11 2.211680 1_555
In1 O12 2.262485 1_555
C0 O13 1.254687 1_556
C0 O1 1.314252 1_555
C0 O2 1.335689 1_555
C1 O0 1.254687 1_554
C1 O12 1.314252 1_555
C1 O11 1.335689 1_555
O3 P0 1.544099 1_555
O4 P0 1.544099 1_555
O5 P1 1.564974 1_555
O6 P0 1.578432 1_555
O7 P1 1.578432 1_555
O8 P0 1.564974 1_555
O9 P1 1.544099 1_555
O10 P1 1.544099 1_555
