# generated using pymatgen
data_Li3Fe4(OF3)3
_symmetry_space_group_name_H-M   'P 1'
_cell_length_a   5.98986100
_cell_length_b   5.99895375
_cell_length_c   6.03112413
_cell_angle_alpha   98.69825260
_cell_angle_beta   99.10400302
_cell_angle_gamma   98.84908120
_symmetry_Int_Tables_number   1
_chemical_formula_structural   Li3Fe4(OF3)3
_chemical_formula_sum   'Li3 Fe4 O3 F9'
_cell_volume   207.98698041
_cell_formula_units_Z   1
loop_
 _symmetry_equiv_pos_site_id
 _symmetry_equiv_pos_as_xyz
  1  'x, y, z'
loop_
 _atom_site_type_symbol
 _atom_site_label
 _atom_site_symmetry_multiplicity
 _atom_site_fract_x
 _atom_site_fract_y
 _atom_site_fract_z
 _atom_site_occupancy
  Li  Li0  1  0.69456000  0.41628000  0.87532300  1
  Li  Li1  1  0.85879900  0.65540500  0.38444400  1
  Li  Li2  1  0.61047000  0.15102700  0.33771100  1
  Fe  Fe0  1  0.39186000  0.83577200  0.64407100  1
  Fe  Fe1  1  0.14492200  0.35947300  0.61993300  1
  Fe  Fe2  1  0.32017600  0.57658200  0.12464800  1
  Fe  Fe3  1  0.99905400  0.01161000  0.00491700  1
  O  O0  1  0.19742300  0.58451900  0.40692600  1
  O  O1  1  0.40502000  0.59721500  0.82053900  1
  O  O2  1  0.10607500  0.30919600  0.93840300  1
  F  F0  1  0.06554300  0.88450400  0.69872100  1
  F  F1  1  0.30472800  0.93051400  0.12211100  1
  F  F2  1  0.60752700  0.82701400  0.42555900  1
  F  F3  1  0.38027400  0.15957600  0.56836200  1
  F  F4  1  0.88534600  0.70545900  0.05591100  1
  F  F5  1  0.57253600  0.40614000  0.18155100  1
  F  F6  1  0.82521000  0.41965100  0.59775400  1
  F  F7  1  0.67479600  0.04033800  0.87513600  1
  F  F8  1  0.95568200  0.12972600  0.31798100  1
loop_
_geom_bond_atom_site_label_1
_geom_bond_atom_site_label_2
_geom_bond_distance
_geom_bond_site_symmetry_2
Li0 O1 2.191214 1_555
Li1 O0 2.123449 1_655
Fe0 O1 1.912019 1_555
Fe0 O0 1.988618 1_555
Fe1 O0 2.023286 1_555
Fe1 O1 2.030531 1_555
Fe1 O2 2.032089 1_555
Fe2 O0 1.955409 1_555
Fe2 O2 1.961018 1_554
Fe2 O1 1.995461 1_554
Fe3 O2 1.924762 1_654
F0 Fe3 2.012614 1_466
F0 Fe0 2.089274 1_555
F0 Li1 2.227278 1_455
F1 Fe3 2.014233 1_465
F1 Fe2 2.141656 1_555
F1 Li2 2.185266 1_565
F2 Li1 1.975902 1_555
F2 Fe0 1.986711 1_555
F2 Li2 2.088790 1_565
F2 Fe2 2.429897 1_555
F3 Fe1 2.016962 1_555
F3 Fe0 2.070332 1_545
F3 Li2 2.108582 1_555
F4 Fe3 1.945200 1_565
F4 Li0 1.981499 1_554
F4 Li1 2.075200 1_555
F5 Li2 1.938050 1_555
F5 Fe2 1.966127 1_555
F5 Li0 2.096771 1_554
F5 Li1 2.160374 1_555
F6 Li0 1.958376 1_555
F6 Fe1 1.990427 1_655
F6 Li1 2.059229 1_555
F6 Li2 2.161131 1_555
F7 Fe3 2.019264 1_556
F7 Fe0 2.101354 1_545
F7 Li0 2.239923 1_555
F8 Fe3 1.985397 1_555
F8 Li2 2.112043 1_555
F8 Fe1 2.146580 1_655
