# generated using pymatgen
data_LiNiPO4
_symmetry_space_group_name_H-M   'P 1'
_cell_length_a   5.43684052
_cell_length_b   8.05958121
_cell_length_c   7.61422633
_cell_angle_alpha   66.96226397
_cell_angle_beta   105.80755190
_cell_angle_gamma   95.76071265
_symmetry_Int_Tables_number   1
_chemical_formula_structural   LiNiPO4
_chemical_formula_sum   'Li4 Ni4 P4 O16'
_cell_volume   295.41730689
_cell_formula_units_Z   4
loop_
 _symmetry_equiv_pos_site_id
 _symmetry_equiv_pos_as_xyz
  1  'x, y, z'
loop_
 _atom_site_type_symbol
 _atom_site_label
 _atom_site_symmetry_multiplicity
 _atom_site_fract_x
 _atom_site_fract_y
 _atom_site_fract_z
 _atom_site_occupancy
  Li  Li0  1  0.73936500  0.76068400  0.73935200  1
  Li  Li1  1  0.23934300  0.26071900  0.23925100  1
  Li  Li2  1  0.48324100  0.51679600  0.48325200  1
  Li  Li3  1  0.98325100  0.01678300  0.98326700  1
  Ni  Ni0  1  0.91773600  0.52301400  0.18542700  1
  Ni  Ni1  1  0.61084300  0.94845800  0.34303900  1
  Ni  Ni2  1  0.41759300  0.02315000  0.68538200  1
  Ni  Ni3  1  0.11073600  0.44865200  0.84279800  1
  P  P0  1  0.09403400  0.77073800  0.45359400  1
  P  P1  1  0.59399500  0.27069900  0.95364700  1
  P  P2  1  0.90910800  0.22625400  0.54939900  1
  P  P3  1  0.40919300  0.72623800  0.04940900  1
  O  O0  1  0.14848600  0.21243500  0.47756600  1
  O  O1  1  0.64865900  0.71238300  0.97767500  1
  O  O2  1  0.95200100  0.68711200  0.62271100  1
  O  O3  1  0.45202500  0.18702400  0.12278200  1
  O  O4  1  0.36749100  0.84000400  0.53633800  1
  O  O5  1  0.86746400  0.33999700  0.03631700  1
  O  O6  1  0.74443400  0.04807200  0.57568400  1
  O  O7  1  0.24429400  0.54812400  0.07550900  1
  O  O8  1  0.12254000  0.62217700  0.38293300  1
  O  O9  1  0.62248900  0.12220600  0.88287900  1
  O  O10  1  0.00793300  0.24703600  0.74769600  1
  O  O11  1  0.50787600  0.74706500  0.24769700  1
  O  O12  1  0.95099100  0.93952200  0.28597300  1
  O  O13  1  0.45088800  0.43944900  0.78601700  1
  O  O14  1  0.72785500  0.38170200  0.39311200  1
  O  O15  1  0.22796100  0.88167800  0.89311900  1
loop_
_geom_bond_atom_site_label_1
_geom_bond_atom_site_label_2
_geom_bond_distance
_geom_bond_site_symmetry_2
Li0 O1 1.893093 1_555
Li0 O2 1.893685 1_555
Li0 O6 2.159955 1_565
Li0 O4 2.160841 1_555
Li1 O3 1.893439 1_555
Li1 O0 1.893474 1_555
Li1 O7 2.160122 1_555
Li1 O5 2.160615 1_455
Li2 O11 2.038340 1_555
Li2 O8 2.039882 1_555
Li2 O14 2.190467 1_555
Li2 O13 2.192757 1_555
Li3 O10 2.038388 1_655
Li3 O9 2.040278 1_555
Li3 O15 2.190956 1_645
Li3 O12 2.192247 1_546
Ni0 O8 1.997478 1_655
Ni0 O14 2.026659 1_555
Ni0 O1 2.066322 1_554
Ni0 O7 2.120965 1_655
Ni0 O5 2.144815 1_555
Ni1 O11 1.998355 1_555
Ni1 O12 2.025594 1_555
Ni1 O3 2.067765 1_565
Ni1 O4 2.121945 1_555
Ni1 O6 2.145944 1_565
Ni2 O9 1.997032 1_555
Ni2 O15 2.026300 1_545
Ni2 O0 2.066209 1_555
Ni2 O6 2.121640 1_555
Ni2 O4 2.145427 1_545
Ni3 O10 1.998827 1_555
Ni3 O13 2.025036 1_555
Ni3 O2 2.066644 1_455
Ni3 O5 2.122913 1_456
Ni3 O7 2.145613 1_556
O0 P2 1.571609 1_455
O1 P3 1.571685 1_556
O2 P0 1.570579 1_655
O3 P1 1.570480 1_554
O4 P0 1.586610 1_555
O5 P1 1.586610 1_554
O6 P2 1.586977 1_555
O7 P3 1.587266 1_555
O8 P0 1.527743 1_555
O9 P1 1.527774 1_555
O10 P2 1.527862 1_455
O11 P3 1.527910 1_555
O12 P0 1.548223 1_655
O13 P1 1.548208 1_555
O14 P2 1.548838 1_555
O15 P3 1.548750 1_556
