# generated using pymatgen
data_BaYF5
_symmetry_space_group_name_H-M   'P 1'
_cell_length_a   5.45960000
_cell_length_b   5.62668200
_cell_length_c   15.50201900
_cell_angle_alpha   90.00000000
_cell_angle_beta   90.00000000
_cell_angle_gamma   90.00000000
_symmetry_Int_Tables_number   1
_chemical_formula_structural   BaYF5
_chemical_formula_sum   'Ba4 Y4 F20'
_cell_volume   476.21323477
_cell_formula_units_Z   4
loop_
 _symmetry_equiv_pos_site_id
 _symmetry_equiv_pos_as_xyz
  1  'x, y, z'
loop_
 _atom_site_type_symbol
 _atom_site_label
 _atom_site_symmetry_multiplicity
 _atom_site_fract_x
 _atom_site_fract_y
 _atom_site_fract_z
 _atom_site_occupancy
  Ba  Ba0  1  0.50411700  0.44144100  0.10421200  1
  Ba  Ba1  1  0.49588300  0.94144100  0.39578800  1
  Ba  Ba2  1  0.99588300  0.55855900  0.60421200  1
  Ba  Ba3  1  0.00411700  0.05855900  0.89578800  1
  Y  Y0  1  0.01863500  0.93998900  0.17312800  1
  Y  Y1  1  0.98136500  0.43998900  0.32687200  1
  Y  Y2  1  0.48136500  0.06001100  0.67312800  1
  Y  Y3  1  0.51863500  0.56001100  0.82687200  1
  F  F0  1  0.96858300  0.59273200  0.11274900  1
  F  F1  1  0.86763000  0.10833300  0.05704000  1
  F  F2  1  0.36122500  0.92776000  0.09972900  1
  F  F3  1  0.75847900  0.21235100  0.23341700  1
  F  F4  1  0.24099500  0.23473000  0.23630600  1
  F  F5  1  0.75900500  0.73473000  0.26369400  1
  F  F6  1  0.24152100  0.71235100  0.26658300  1
  F  F7  1  0.63877500  0.42776000  0.40027100  1
  F  F8  1  0.13237000  0.60833300  0.44296000  1
  F  F9  1  0.03141700  0.09273200  0.38725100  1
  F  F10  1  0.53141700  0.40726800  0.61274900  1
  F  F11  1  0.63237000  0.89166700  0.55704000  1
  F  F12  1  0.13877500  0.07224000  0.59972900  1
  F  F13  1  0.74152100  0.78764900  0.73341700  1
  F  F14  1  0.25900500  0.76527000  0.73630600  1
  F  F15  1  0.74099500  0.26527000  0.76369400  1
  F  F16  1  0.25847900  0.28764900  0.76658300  1
  F  F17  1  0.86122500  0.57224000  0.90027100  1
  F  F18  1  0.36763000  0.39166700  0.94296000  1
  F  F19  1  0.46858300  0.90726800  0.88725100  1
loop_
_geom_bond_atom_site_label_1
_geom_bond_atom_site_label_2
_geom_bond_distance
_geom_bond_site_symmetry_2
Ba0 F18 2.623426 1_554
Ba0 F0 2.678142 1_555
Ba0 F3 2.757146 1_555
Ba0 F4 2.758553 1_555
Ba0 F1 2.826039 1_555
Ba0 F2 2.846246 1_555
Ba0 F2 2.994559 1_545
Ba0 F0 3.048079 1_455
Ba0 F6 3.273325 1_555
Ba0 F5 3.282080 1_555
Ba1 F11 2.623426 1_555
Ba1 F9 2.678142 1_565
Ba1 F6 2.757146 1_555
Ba1 F5 2.758553 1_555
Ba1 F8 2.826039 1_555
Ba1 F7 2.846246 1_565
Ba1 F7 2.994559 1_555
Ba1 F9 3.048079 1_665
Ba1 F3 3.273325 1_565
Ba1 F4 3.282080 1_565
Ba2 F8 2.623426 1_655
Ba2 F10 2.678142 1_555
Ba2 F13 2.757146 1_555
Ba2 F14 2.758553 1_655
Ba2 F11 2.826039 1_555
Ba2 F12 2.846246 1_655
Ba2 F12 2.994559 1_665
Ba2 F10 3.048079 1_655
Ba2 F16 3.273325 1_655
Ba2 F15 3.282080 1_555
Ba3 F1 2.623426 1_456
Ba3 F19 2.678142 1_545
Ba3 F16 2.757146 1_555
Ba3 F15 2.758553 1_455
Ba3 F18 2.826039 1_555
Ba3 F17 2.846246 1_445
Ba3 F17 2.994559 1_455
Ba3 F19 3.048079 1_445
Ba3 F13 3.273325 1_445
Ba3 F14 3.282080 1_545
F0 Y0 2.183691 1_655
F1 Y0 2.194415 1_645
F2 Y0 2.190390 1_555
F3 Y1 2.284773 1_555
F3 Y0 2.288975 1_645
F4 Y0 2.276691 1_545
F4 Y1 2.305252 1_455
F5 Y1 2.276691 1_555
F5 Y0 2.305252 1_655
F6 Y0 2.284773 1_555
F6 Y1 2.288975 1_455
F7 Y1 2.190390 1_555
F8 Y1 2.194415 1_455
F9 Y1 2.183691 1_455
F10 Y2 2.183691 1_555
F11 Y2 2.194415 1_565
F12 Y2 2.190390 1_555
F13 Y3 2.284773 1_555
F13 Y2 2.288975 1_565
F14 Y2 2.276691 1_565
F14 Y3 2.305252 1_555
F15 Y3 2.276691 1_555
F15 Y2 2.305252 1_555
F16 Y2 2.284773 1_555
F16 Y3 2.288975 1_555
F17 Y3 2.190390 1_555
F18 Y3 2.194415 1_555
F19 Y3 2.183691 1_555
