# generated using pymatgen
data_V4O7
_symmetry_space_group_name_H-M   'P 1'
_cell_length_a   5.65944600
_cell_length_b   6.79766081
_cell_length_c   7.70512276
_cell_angle_alpha   64.67487556
_cell_angle_beta   84.69217138
_cell_angle_gamma   85.91344760
_symmetry_Int_Tables_number   1
_chemical_formula_structural   V4O7
_chemical_formula_sum   'V8 O14'
_cell_volume   266.62159643
_cell_formula_units_Z   2
loop_
 _symmetry_equiv_pos_site_id
 _symmetry_equiv_pos_as_xyz
  1  'x, y, z'
loop_
 _atom_site_type_symbol
 _atom_site_label
 _atom_site_symmetry_multiplicity
 _atom_site_fract_x
 _atom_site_fract_y
 _atom_site_fract_z
 _atom_site_occupancy
  V  V0  1  0.60161800  0.30287100  0.08278600  1
  V  V1  1  0.39838200  0.69712900  0.91721400  1
  V  V2  1  0.40682600  0.21235200  0.77998900  1
  V  V3  1  0.59317400  0.78764800  0.22001100  1
  V  V4  1  0.75964100  0.03633100  0.54469800  1
  V  V5  1  0.24035900  0.96366900  0.45530200  1
  V  V6  1  0.14277400  0.51756900  0.31165500  1
  V  V7  1  0.85722600  0.48243100  0.68834500  1
  O  O0  1  0.95355300  0.79189100  0.62917300  1
  O  O1  1  0.04644700  0.20810900  0.37082700  1
  O  O2  1  0.70780900  0.25215100  0.64289900  1
  O  O3  1  0.29219100  0.74784900  0.35710100  1
  O  O4  1  0.10904000  0.68379700  0.04330600  1
  O  O5  1  0.89096000  0.31620300  0.95669400  1
  O  O6  1  0.49561800  0.49167700  0.19981400  1
  O  O7  1  0.50438200  0.50832300  0.80018600  1
  O  O8  1  0.18283300  0.35726200  0.62409200  1
  O  O9  1  0.81716700  0.64273800  0.37590800  1
  O  O10  1  0.59902400  0.03211000  0.33470900  1
  O  O11  1  0.40097600  0.96789000  0.66529100  1
  O  O12  1  0.61502800  0.87359300  0.95399700  1
  O  O13  1  0.38497200  0.12640700  0.04600300  1
loop_
_geom_bond_atom_site_label_1
_geom_bond_atom_site_label_2
_geom_bond_distance
_geom_bond_site_symmetry_2
O0 V4 1.826472 1_565
O0 V7 2.056008 1_555
O0 V5 2.079050 1_655
O1 V5 1.826472 1_545
O1 V6 2.056008 1_555
O1 V4 2.079050 1_455
O2 V2 1.891778 1_555
O2 V4 1.912624 1_555
O2 V7 2.000110 1_555
O3 V3 1.891778 1_555
O3 V5 1.912624 1_555
O3 V6 2.000110 1_555
O4 V1 1.812476 1_554
O4 V6 1.905776 1_555
O5 V0 1.812476 1_556
O5 V7 1.905776 1_555
O6 V0 1.897484 1_555
O6 V1 2.122544 1_554
O6 V6 2.126615 1_555
O6 V3 2.195199 1_555
O7 V1 1.897484 1_555
O7 V0 2.122544 1_556
O7 V7 2.126615 1_555
O7 V2 2.195199 1_555
O8 V2 1.763999 1_555
O8 V7 2.081567 1_455
O8 V6 2.203579 1_555
O9 V3 1.763999 1_555
O9 V6 2.081567 1_655
O9 V7 2.203579 1_555
O10 V4 1.939214 1_555
O10 V0 2.024302 1_555
O10 V5 2.148468 1_545
O10 V3 2.193917 1_545
O11 V5 1.939214 1_555
O11 V1 2.024302 1_555
O11 V4 2.148468 1_565
O11 V2 2.193917 1_565
O12 V3 1.869951 1_556
O12 V1 1.894017 1_555
O12 V2 2.398541 1_565
O13 V2 1.869951 1_554
O13 V0 1.894017 1_555
O13 V3 2.398541 1_545
