# generated using pymatgen
data_Li4Ti3Co3(NiO8)2
_symmetry_space_group_name_H-M   'P 1'
_cell_length_a   5.76414917
_cell_length_b   5.81190668
_cell_length_c   9.64508379
_cell_angle_alpha   89.91858096
_cell_angle_beta   90.20562547
_cell_angle_gamma   120.26417690
_symmetry_Int_Tables_number   1
_chemical_formula_structural   Li4Ti3Co3(NiO8)2
_chemical_formula_sum   'Li4 Ti3 Co3 Ni2 O16'
_cell_volume   279.07785237
_cell_formula_units_Z   1
loop_
 _symmetry_equiv_pos_site_id
 _symmetry_equiv_pos_as_xyz
  1  'x, y, z'
loop_
 _atom_site_type_symbol
 _atom_site_label
 _atom_site_symmetry_multiplicity
 _atom_site_fract_x
 _atom_site_fract_y
 _atom_site_fract_z
 _atom_site_occupancy
  Li  Li0  1  0.34752000  0.67335500  0.89023100  1
  Li  Li1  1  0.97192300  0.98694800  0.99600800  1
  Li  Li2  1  0.97782700  0.98949800  0.49917300  1
  Li  Li3  1  0.68142900  0.33996300  0.39681300  1
  Ti  Ti0  1  0.17447000  0.83389300  0.21526100  1
  Ti  Ti1  1  0.17771100  0.34035700  0.21515300  1
  Ti  Ti2  1  0.34416900  0.17299300  0.71460600  1
  Co  Co0  1  0.66118700  0.83141600  0.21296700  1
  Co  Co1  1  0.83401500  0.66372100  0.71367900  1
  Co  Co2  1  0.83313000  0.16943800  0.71364500  1
  Ni  Ni0  1  0.32979300  0.66507100  0.49140600  1
  Ni  Ni1  1  0.66503800  0.33237000  0.98669600  1
  O  O0  1  0.15216100  0.83583400  0.60589200  1
  O  O1  1  0.03949100  0.51927300  0.33214500  1
  O  O2  1  0.33050200  0.66614300  0.10041100  1
  O  O3  1  0.99173700  0.99582200  0.31380800  1
  O  O4  1  0.99343700  0.99633400  0.81139800  1
  O  O5  1  0.15123200  0.31652200  0.60574700  1
  O  O6  1  0.49521500  0.96907700  0.33278200  1
  O  O7  1  0.49526900  0.52524000  0.33280000  1
  O  O8  1  0.31772900  0.15922200  0.10185100  1
  O  O9  1  0.67724500  0.83908900  0.61607500  1
  O  O10  1  0.52932300  0.49107700  0.83226700  1
  O  O11  1  0.53020400  0.03797000  0.83201400  1
  O  O12  1  0.67477000  0.33752600  0.60529000  1
  O  O13  1  0.82702300  0.67733800  0.10876200  1
  O  O14  1  0.96900800  0.48402200  0.82205100  1
  O  O15  1  0.82743800  0.15078500  0.10891000  1
loop_
_geom_bond_atom_site_label_1
_geom_bond_atom_site_label_2
_geom_bond_distance
_geom_bond_site_symmetry_2
Li0 O10 1.912574 1_555
Li0 O11 1.914775 1_565
Li0 O14 1.993823 1_455
Li0 O2 2.029280 1_556
Li1 O4 1.784182 1_555
Li1 O15 1.896029 1_566
Li1 O13 1.898494 1_556
Li1 O8 1.998608 1_666
Li2 O3 1.789441 1_555
Li2 O9 1.876686 1_555
Li2 O5 1.936843 1_665
Li2 O0 1.939444 1_655
Li3 O1 1.890559 1_655
Li3 O6 1.961330 1_545
Li3 O7 1.962196 1_555
Li3 O12 2.011176 1_555
Co0 O15 1.891977 1_565
Co0 O13 1.896862 1_555
Co0 O3 1.908810 1_555
Co0 O6 1.916488 1_555
Co0 O7 1.924501 1_555
Co0 O2 1.969031 1_555
Co1 O14 1.897102 1_555
Co1 O0 1.898968 1_655
Co1 O10 1.906427 1_555
Co1 O9 1.913413 1_555
Co1 O4 1.917834 1_555
Co1 O12 1.942745 1_555
Co2 O11 1.898202 1_555
Co2 O14 1.898850 1_555
Co2 O5 1.899227 1_655
Co2 O9 1.907714 1_545
Co2 O4 1.919126 1_545
Co2 O12 1.941365 1_555
Ni0 O5 2.068663 1_555
Ni0 O0 2.070789 1_555
Ni0 O9 2.103399 1_555
Ni0 O1 2.105629 1_555
Ni0 O6 2.162479 1_555
Ni0 O7 2.169282 1_555
Ni1 O8 2.058198 1_556
Ni1 O15 2.088990 1_556
Ni1 O13 2.095118 1_556
Ni1 O10 2.096754 1_555
Ni1 O11 2.101426 1_555
Ni1 O14 2.197262 1_555
O0 Ti2 1.993903 1_565
O1 Ti0 1.945830 1_555
O1 Ti1 1.958106 1_555
O2 Ti0 1.969920 1_555
O2 Ti1 1.976286 1_555
O3 Ti1 1.975459 1_665
O3 Ti0 1.976738 1_655
O4 Ti2 1.982785 1_665
O5 Ti2 1.989797 1_555
O6 Ti0 1.960505 1_555
O7 Ti1 1.949036 1_555
O8 Ti1 1.954457 1_555
O8 Ti0 1.969838 1_545
O10 Ti2 1.962917 1_555
O11 Ti2 1.971051 1_555
O12 Ti2 1.957624 1_555
O13 Ti0 2.011235 1_655
O15 Ti1 2.021518 1_655
