# generated using pymatgen
data_Li2Cu2F7
_symmetry_space_group_name_H-M   'P 1'
_cell_length_a   5.90006200
_cell_length_b   7.02866300
_cell_length_c   13.03595200
_cell_angle_alpha   90.00000000
_cell_angle_beta   90.00000000
_cell_angle_gamma   90.00000000
_symmetry_Int_Tables_number   1
_chemical_formula_structural   Li2Cu2F7
_chemical_formula_sum   'Li8 Cu8 F28'
_cell_volume   540.59503037
_cell_formula_units_Z   4
loop_
 _symmetry_equiv_pos_site_id
 _symmetry_equiv_pos_as_xyz
  1  'x, y, z'
loop_
 _atom_site_type_symbol
 _atom_site_label
 _atom_site_symmetry_multiplicity
 _atom_site_fract_x
 _atom_site_fract_y
 _atom_site_fract_z
 _atom_site_occupancy
  Li  Li0  1  0.40827000  0.25684600  0.04829600  1
  Li  Li1  1  0.33629500  0.75395200  0.18813100  1
  Li  Li2  1  0.83629500  0.25395200  0.31186900  1
  Li  Li3  1  0.90827000  0.75684600  0.45170400  1
  Li  Li4  1  0.09173000  0.25684600  0.54829600  1
  Li  Li5  1  0.16370500  0.75395200  0.68813100  1
  Li  Li6  1  0.66370500  0.25395200  0.81186900  1
  Li  Li7  1  0.59173000  0.75684600  0.95170400  1
  Cu  Cu0  1  0.85167100  0.52263600  0.10325200  1
  Cu  Cu1  1  0.86980000  0.99584500  0.10455800  1
  Cu  Cu2  1  0.36980000  0.49584500  0.39544200  1
  Cu  Cu3  1  0.35167100  0.02263600  0.39674800  1
  Cu  Cu4  1  0.64832900  0.52263600  0.60325200  1
  Cu  Cu5  1  0.63020000  0.99584500  0.60455800  1
  Cu  Cu6  1  0.13020000  0.49584500  0.89544200  1
  Cu  Cu7  1  0.14832900  0.02263600  0.89674800  1
  F  F0  1  0.18300400  0.44954500  0.03615300  1
  F  F1  1  0.20413100  0.05349400  0.04058100  1
  F  F2  1  0.59514600  0.72351500  0.10186600  1
  F  F3  1  0.72001500  0.24959000  0.09382500  1
  F  F4  1  0.03193800  0.75822500  0.12018500  1
  F  F5  1  0.91419700  0.47457200  0.23835500  1
  F  F6  1  0.90622200  0.02987300  0.24056300  1
  F  F7  1  0.40622200  0.52987300  0.25943700  1
  F  F8  1  0.41419700  0.97457200  0.26164500  1
  F  F9  1  0.53193800  0.25822500  0.37981500  1
  F  F10  1  0.22001500  0.74959000  0.40617500  1
  F  F11  1  0.09514600  0.22351500  0.39813400  1
  F  F12  1  0.70413100  0.55349400  0.45941900  1
  F  F13  1  0.68300400  0.94954500  0.46384700  1
  F  F14  1  0.31699600  0.44954500  0.53615300  1
  F  F15  1  0.29586900  0.05349400  0.54058100  1
  F  F16  1  0.90485400  0.72351500  0.60186600  1
  F  F17  1  0.77998500  0.24959000  0.59382500  1
  F  F18  1  0.46806200  0.75822500  0.62018500  1
  F  F19  1  0.58580300  0.47457200  0.73835500  1
  F  F20  1  0.59377800  0.02987300  0.74056300  1
  F  F21  1  0.09377800  0.52987300  0.75943700  1
  F  F22  1  0.08580300  0.97457200  0.76164500  1
  F  F23  1  0.96806200  0.25822500  0.87981500  1
  F  F24  1  0.27998500  0.74959000  0.90617500  1
  F  F25  1  0.40485400  0.22351500  0.89813400  1
  F  F26  1  0.79586900  0.55349400  0.95941900  1
  F  F27  1  0.81699600  0.94954500  0.96384700  1
loop_
_geom_bond_atom_site_label_1
_geom_bond_atom_site_label_2
_geom_bond_distance
_geom_bond_site_symmetry_2
Cu0 F5 1.830855 1_555
Cu0 F26 1.916002 1_554
Cu0 F4 1.980370 1_655
Cu0 F2 2.069913 1_555
Cu0 F3 2.074034 1_555
Cu0 F0 2.202407 1_655
Cu1 F6 1.801874 1_565
Cu1 F27 1.888816 1_554
Cu1 F4 1.935467 1_655
Cu1 F3 1.995346 1_565
Cu1 F1 2.179630 1_665
Cu1 F2 2.508189 1_555
Cu2 F7 1.801874 1_555
Cu2 F14 1.888816 1_555
Cu2 F9 1.935467 1_555
Cu2 F10 1.995346 1_555
Cu2 F12 2.179630 1_555
Cu2 F11 2.508189 1_555
Cu3 F8 1.830855 1_545
Cu3 F15 1.916002 1_555
Cu3 F9 1.980370 1_555
Cu3 F11 2.069913 1_555
Cu3 F10 2.074034 1_545
Cu3 F13 2.202407 1_545
Cu4 F19 1.830855 1_555
Cu4 F12 1.916002 1_555
Cu4 F18 1.980370 1_555
Cu4 F16 2.069913 1_555
Cu4 F17 2.074034 1_555
Cu4 F14 2.202407 1_555
Cu5 F20 1.801874 1_565
Cu5 F13 1.888816 1_555
Cu5 F18 1.935467 1_555
Cu5 F17 1.995346 1_565
Cu5 F15 2.179630 1_565
Cu5 F16 2.508189 1_555
Cu6 F21 1.801874 1_555
Cu6 F0 1.888816 1_556
Cu6 F23 1.935467 1_455
Cu6 F24 1.995346 1_555
Cu6 F26 2.179630 1_455
Cu6 F25 2.508189 1_555
Cu7 F22 1.830855 1_545
Cu7 F1 1.916002 1_556
Cu7 F23 1.980370 1_455
Cu7 F25 2.069913 1_555
Cu7 F24 2.074034 1_545
Cu7 F27 2.202407 1_445
F0 Li0 1.904196 1_555
F1 Li0 1.871804 1_555
F2 Li1 1.908618 1_555
F2 Li7 1.971577 1_554
F3 Li0 1.933375 1_555
F4 Li1 2.002515 1_555
F5 Li2 1.879947 1_555
F6 Li2 1.874784 1_555
F7 Li1 1.874784 1_555
F8 Li1 1.879947 1_555
F9 Li2 2.002515 1_555
F10 Li3 1.933375 1_455
F11 Li2 1.908618 1_455
F11 Li4 1.971577 1_555
F12 Li3 1.871804 1_555
F13 Li3 1.904196 1_555
F14 Li4 1.904196 1_555
F15 Li4 1.871804 1_555
F16 Li5 1.908618 1_655
F16 Li3 1.971577 1_555
F17 Li4 1.933375 1_655
F18 Li5 2.002515 1_555
F19 Li6 1.879947 1_555
F20 Li6 1.874784 1_555
F21 Li5 1.874784 1_555
F22 Li5 1.879947 1_555
F23 Li6 2.002515 1_555
F24 Li7 1.933375 1_555
F25 Li6 1.908618 1_555
F25 Li0 1.971577 1_556
F26 Li7 1.871804 1_555
F27 Li7 1.904196 1_555
