# generated using pymatgen
data_LiMn3(PO4)3
_symmetry_space_group_name_H-M   'P 1'
_cell_length_a   8.60240300
_cell_length_b   8.64522713
_cell_length_c   13.39995386
_cell_angle_alpha   108.25464086
_cell_angle_beta   108.54511778
_cell_angle_gamma   90.73541490
_symmetry_Int_Tables_number   1
_chemical_formula_structural   LiMn3(PO4)3
_chemical_formula_sum   'Li4 Mn12 P12 O48'
_cell_volume   890.22816786
_cell_formula_units_Z   4
loop_
 _symmetry_equiv_pos_site_id
 _symmetry_equiv_pos_as_xyz
  1  'x, y, z'
loop_
 _atom_site_type_symbol
 _atom_site_label
 _atom_site_symmetry_multiplicity
 _atom_site_fract_x
 _atom_site_fract_y
 _atom_site_fract_z
 _atom_site_occupancy
  Li  Li0  1  0.49276000  0.01081200  0.51071300  1
  Li  Li1  1  0.50553000  0.48955100  0.98990800  1
  Li  Li2  1  0.50228000  0.75204000  0.25222300  1
  Li  Li3  1  0.01103200  0.88795400  0.87497400  1
  Mn  Mn0  1  0.38647400  0.00925000  0.07583600  1
  Mn  Mn1  1  0.93336800  0.56228500  0.17510600  1
  Mn  Mn2  1  0.73757600  0.11532100  0.37508200  1
  Mn  Mn3  1  0.26385200  0.38833600  0.12702900  1
  Mn  Mn4  1  0.38641900  0.50658500  0.57304200  1
  Mn  Mn5  1  0.06825800  0.94131400  0.32702100  1
  Mn  Mn6  1  0.93309400  0.06144500  0.67304300  1
  Mn  Mn7  1  0.61653300  0.49263200  0.42639500  1
  Mn  Mn8  1  0.26678100  0.89170100  0.62703700  1
  Mn  Mn9  1  0.72389600  0.59475200  0.86878300  1
  Mn  Mn10  1  0.06537400  0.43783600  0.82204700  1
  Mn  Mn11  1  0.61579500  0.99438300  0.92822300  1
  P  P0  1  0.65091300  0.31975600  0.18405600  1
  P  P1  1  0.28983400  0.66334400  0.37487300  1
  P  P2  1  0.71135100  0.83708600  0.12530500  1
  P  P3  1  0.34949700  0.18128300  0.31626800  1
  P  P4  1  0.13484600  0.21355400  0.56168600  1
  P  P5  1  0.13020900  0.71717100  0.06275400  1
  P  P6  1  0.86895900  0.28426200  0.93769000  1
  P  P7  1  0.86518500  0.78323300  0.43406800  1
  P  P8  1  0.65583200  0.81542300  0.68589400  1
  P  P9  1  0.29087200  0.16433500  0.87655500  1
  P  P10  1  0.70814000  0.33525900  0.62296100  1
  P  P11  1  0.34652800  0.68671100  0.81755800  1
  O  O0  1  0.00618900  0.37736500  0.05075000  1
  O  O1  1  0.59124700  0.13955800  0.09511100  1
  O  O2  1  0.17733100  0.12397200  0.31342400  1
  O  O3  1  0.82271700  0.37674900  0.18612400  1
  O  O4  1  0.16670100  0.53585900  0.26739000  1
  O  O5  1  0.73107400  0.85104400  0.01684300  1
  O  O6  1  0.40923100  0.36084200  0.40478100  1
  O  O7  1  0.04387400  0.75026300  0.15435500  1
  O  O8  1  0.72623900  0.65385700  0.11802800  1
  O  O9  1  0.52273700  0.43256700  0.15074700  1
  O  O10  1  0.99588200  0.12294500  0.44838200  1
  O  O11  1  0.33049200  0.19639200  0.20051300  1
  O  O12  1  0.66749100  0.30251800  0.29842500  1
  O  O13  1  0.47640900  0.06677600  0.34774800  1
  O  O14  1  0.27349000  0.10727300  0.58125300  1
  O  O15  1  0.27853700  0.62615600  0.09555900  1
  O  O16  1  0.53231900  0.36030700  0.62836700  1
  O  O17  1  0.27578400  0.84563800  0.38109100  1
  O  O18  1  0.53460300  0.85918700  0.13320000  1
  O  O19  1  0.95743400  0.75449000  0.34525700  1
  O  O20  1  0.83330200  0.96491300  0.23209700  1
  O  O21  1  0.27025800  0.64958300  0.48330200  1
  O  O22  1  0.18995200  0.38443900  0.56247700  1
  O  O23  1  0.17938000  0.88280500  0.04950400  1
  O  O24  1  0.81942300  0.10944900  0.93588500  1
  O  O25  1  0.81220300  0.61414800  0.43682400  1
  O  O26  1  0.16690700  0.03430100  0.76957600  1
  O  O27  1  0.73520300  0.35232300  0.51713700  1
  O  O28  1  0.04938800  0.24401700  0.65513400  1
  O  O29  1  0.46808400  0.14236700  0.87427800  1
  O  O30  1  0.72491400  0.15220800  0.61392600  1
  O  O31  1  0.46563800  0.63855300  0.36604400  1
  O  O32  1  0.72546600  0.38468600  0.91875200  1
  O  O33  1  0.53019000  0.92736400  0.65112300  1
  O  O34  1  0.71817100  0.87685900  0.40116800  1
  O  O35  1  0.33371600  0.70186000  0.70316900  1
  O  O36  1  0.67550900  0.79659100  0.80113400  1
  O  O37  1  0.99575200  0.88065400  0.54962600  1
  O  O38  1  0.46927200  0.57193500  0.85259700  1
  O  O39  1  0.27219500  0.34701900  0.88533000  1
  O  O40  1  0.95146300  0.25509800  0.84316800  1
  O  O41  1  0.59965600  0.63791500  0.59530300  1
  O  O42  1  0.25871100  0.14294600  0.98064900  1
  O  O43  1  0.83107500  0.46220400  0.73209400  1
  O  O44  1  0.17085700  0.63560800  0.81501900  1
  O  O45  1  0.83546500  0.88100700  0.70086600  1
  O  O46  1  0.40647000  0.86588000  0.90727600  1
  O  O47  1  0.99587700  0.62236000  0.94806300  1
loop_
_geom_bond_atom_site_label_1
_geom_bond_atom_site_label_2
_geom_bond_distance
_geom_bond_site_symmetry_2
Li0 O30 2.125241 1_555
Li0 O33 2.152925 1_545
Li0 O17 2.203492 1_545
Li0 O13 2.343241 1_555
Li0 O14 2.414026 1_555
Li1 O38 2.109892 1_555
Li1 O39 2.139304 1_555
Li1 O8 2.213479 1_556
Li1 O9 2.318136 1_556
Li1 O32 2.441437 1_555
Li2 O31 2.150237 1_555
Li2 O18 2.163356 1_555
Li2 O34 2.199653 1_555
Li2 O15 2.289260 1_555
Li3 O45 2.322974 1_455
Li3 O23 2.341199 1_556
Mn0 O23 1.949806 1_545
Mn0 O1 1.978937 1_555
Mn0 O18 1.985395 1_545
Mn0 O42 2.057981 1_554
Mn0 O11 2.116373 1_555
Mn0 O46 2.272951 1_544
Mn1 O3 1.923337 1_555
Mn1 O8 1.983736 1_555
Mn1 O7 2.008373 1_655
Mn1 O4 2.054311 1_655
Mn1 O0 2.178472 1_655
Mn1 O19 2.306482 1_555
Mn2 O10 2.115177 1_555
Mn2 O12 2.170318 1_555
Mn2 O13 2.171137 1_555
Mn2 O34 2.209030 1_545
Mn2 O27 2.324729 1_555
Mn2 O20 2.347392 1_545
Mn3 O0 2.111740 1_555
Mn3 O9 2.158397 1_555
Mn3 O11 2.177349 1_555
Mn3 O15 2.234131 1_555
Mn3 O4 2.320991 1_555
Mn3 O42 2.384416 1_554
Mn4 O22 1.923504 1_555
Mn4 O16 1.939148 1_555
Mn4 O41 2.032044 1_555
Mn4 O21 2.042440 1_555
Mn4 O35 2.185033 1_555
Mn4 O6 2.284235 1_555
Mn5 O2 1.912632 1_565
Mn5 O19 1.983224 1_455
Mn5 O17 1.996675 1_555
Mn5 O20 2.069432 1_455
Mn5 O10 2.137127 1_465
Mn5 O7 2.326716 1_555
Mn6 O45 1.951309 1_545
Mn6 O28 1.974628 1_655
Mn6 O30 1.993350 1_555
Mn6 O26 2.078737 1_655
Mn6 O37 2.106593 1_545
Mn6 O40 2.323311 1_555
Mn7 O25 1.915574 1_555
Mn7 O31 1.985903 1_555
Mn7 O6 1.993672 1_555
Mn7 O27 2.039175 1_555
Mn7 O12 2.136587 1_555
Mn7 O41 2.270280 1_555
Mn8 O14 2.142204 1_565
Mn8 O35 2.182983 1_555
Mn8 O33 2.188213 1_555
Mn8 O37 2.216943 1_455
Mn8 O26 2.345634 1_565
Mn8 O21 2.367372 1_555
Mn9 O32 2.122100 1_555
Mn9 O38 2.131577 1_555
Mn9 O36 2.193035 1_555
Mn9 O47 2.214823 1_555
Mn9 O43 2.303144 1_555
Mn9 O5 2.452341 1_556
Mn10 O44 1.967492 1_555
Mn10 O40 1.988193 1_455
Mn10 O39 1.998547 1_555
Mn10 O43 2.045548 1_455
Mn10 O47 2.175475 1_455
Mn10 O28 2.297746 1_555
Mn11 O29 1.952103 1_565
Mn11 O24 1.960973 1_565
Mn11 O46 1.996814 1_555
Mn11 O5 2.033116 1_556
Mn11 O36 2.200605 1_555
Mn11 O1 2.273685 1_566
O0 P6 1.552641 1_454
O1 P0 1.593112 1_555
O2 P3 1.540732 1_555
O3 P0 1.540944 1_555
O4 P1 1.554415 1_555
O5 P2 1.556239 1_555
O6 P3 1.587108 1_555
O7 P5 1.582846 1_555
O8 P2 1.565736 1_555
O9 P0 1.534086 1_555
O10 P4 1.556972 1_655
O11 P3 1.554319 1_555
O12 P0 1.547846 1_555
O13 P3 1.531745 1_555
O14 P4 1.521706 1_555
O15 P5 1.525173 1_555
O16 P10 1.551779 1_555
O17 P1 1.560216 1_555
O18 P2 1.567356 1_555
O19 P7 1.590053 1_555
O20 P2 1.547305 1_555
O21 P1 1.554661 1_555
O22 P4 1.541551 1_555
O23 P5 1.566016 1_555
O24 P6 1.555701 1_555
O25 P7 1.540556 1_555
O26 P9 1.563062 1_555
O27 P10 1.557870 1_555
O28 P4 1.600540 1_555
O29 P9 1.547364 1_555
O30 P10 1.561021 1_555
O31 P1 1.566315 1_555
O32 P6 1.519254 1_555
O33 P8 1.520138 1_555
O34 P7 1.531042 1_555
O35 P11 1.548377 1_555
O36 P8 1.559386 1_555
O37 P7 1.555963 1_555
O38 P11 1.524257 1_555
O39 P9 1.560820 1_555
O40 P6 1.596211 1_555
O41 P8 1.582044 1_555
O42 P9 1.569108 1_555
O43 P10 1.562812 1_555
O44 P11 1.555887 1_555
O45 P8 1.568006 1_555
O46 P11 1.590291 1_555
O47 P5 1.557544 1_656
