# generated using pymatgen
data_Ni2(PO3)5
_symmetry_space_group_name_H-M   'P 1'
_cell_length_a   8.63650600
_cell_length_b   5.34095600
_cell_length_c   13.52467245
_cell_angle_alpha   70.70828539
_cell_angle_beta   90.00000000
_cell_angle_gamma   90.00000000
_symmetry_Int_Tables_number   1
_chemical_formula_structural   Ni2(PO3)5
_chemical_formula_sum   'Ni4 P10 O30'
_cell_volume   588.82499052
_cell_formula_units_Z   2
loop_
 _symmetry_equiv_pos_site_id
 _symmetry_equiv_pos_as_xyz
  1  'x, y, z'
loop_
 _atom_site_type_symbol
 _atom_site_label
 _atom_site_symmetry_multiplicity
 _atom_site_fract_x
 _atom_site_fract_y
 _atom_site_fract_z
 _atom_site_occupancy
  Ni  Ni0  1  0.28070100  0.89173700  0.45428900  1
  Ni  Ni1  1  0.71929900  0.10826300  0.54571100  1
  Ni  Ni2  1  0.28070100  0.10826300  0.04571100  1
  Ni  Ni3  1  0.71929900  0.89173700  0.95428900  1
  P  P0  1  0.17798200  0.29848600  0.59030800  1
  P  P1  1  0.51243100  0.54033400  0.36017900  1
  P  P2  1  0.48756900  0.54033400  0.86017900  1
  P  P3  1  0.05635100  0.00000000  0.25000000  1
  P  P4  1  0.82201800  0.29848600  0.09030800  1
  P  P5  1  0.17798200  0.70151400  0.90969200  1
  P  P6  1  0.48756900  0.45966600  0.63982100  1
  P  P7  1  0.51243100  0.45966600  0.13982100  1
  P  P8  1  0.94364900  0.00000000  0.75000000  1
  P  P9  1  0.82201800  0.70151400  0.40969200  1
  O  O0  1  0.34232300  0.27320900  0.64941300  1
  O  O1  1  0.14500300  0.90953800  0.17216400  1
  O  O2  1  0.17490800  0.09193000  0.53837700  1
  O  O3  1  0.36814400  0.30714800  0.13544600  1
  O  O4  1  0.48892600  0.50000000  0.75000000  1
  O  O5  1  0.34232300  0.72679100  0.85058700  1
  O  O6  1  0.36814400  0.69285200  0.36455400  1
  O  O7  1  0.85411700  0.58124500  0.02600700  1
  O  O8  1  0.14500300  0.09046200  0.32783600  1
  O  O9  1  0.63185600  0.69285200  0.86455400  1
  O  O10  1  0.82509200  0.09193000  0.03837700  1
  O  O11  1  0.05874900  0.76343900  0.81181600  1
  O  O12  1  0.65767700  0.72679100  0.35058700  1
  O  O13  1  0.63185600  0.30714800  0.63544600  1
  O  O14  1  0.85499700  0.09046200  0.82783600  1
  O  O15  1  0.05874900  0.23656100  0.68818400  1
  O  O16  1  0.14588300  0.58124500  0.52600700  1
  O  O17  1  0.17490800  0.90807000  0.96162300  1
  O  O18  1  0.51107400  0.50000000  0.25000000  1
  O  O19  1  0.53345400  0.73221400  0.05800600  1
  O  O20  1  0.82509200  0.90807000  0.46162300  1
  O  O21  1  0.53345400  0.26778600  0.44199400  1
  O  O22  1  0.85411700  0.41875500  0.47399300  1
  O  O23  1  0.46654600  0.26778600  0.94199400  1
  O  O24  1  0.46654600  0.73221400  0.55800600  1
  O  O25  1  0.14588300  0.41875500  0.97399300  1
  O  O26  1  0.94125100  0.76343900  0.31181600  1
  O  O27  1  0.65767700  0.27320900  0.14941300  1
  O  O28  1  0.85499700  0.90953800  0.67216400  1
  O  O29  1  0.94125100  0.23656100  0.18818400  1
loop_
_geom_bond_atom_site_label_1
_geom_bond_atom_site_label_2
_geom_bond_distance
_geom_bond_site_symmetry_2
Ni0 O16 1.995935 1_555
Ni0 O6 2.005845 1_555
Ni0 O2 2.018635 1_565
Ni0 O8 2.055604 1_565
Ni0 O24 2.116620 1_555
Ni1 O22 1.995935 1_555
Ni1 O13 2.005845 1_555
Ni1 O20 2.018635 1_545
Ni1 O28 2.055604 1_545
Ni1 O21 2.116620 1_555
Ni2 O25 1.995935 1_554
Ni2 O3 2.005845 1_555
Ni2 O17 2.018635 1_544
Ni2 O1 2.055604 1_545
Ni2 O23 2.116620 1_554
Ni3 O7 1.995935 1_556
Ni3 O9 2.005845 1_555
Ni3 O10 2.018635 1_566
Ni3 O14 2.055604 1_565
Ni3 O19 2.116620 1_556
O0 P6 1.580115 1_555
O0 P0 1.612583 1_555
O1 P3 1.504630 1_565
O2 P0 1.490987 1_555
O3 P7 1.500588 1_555
O4 P2 1.574533 1_555
O4 P6 1.574533 1_555
O5 P2 1.580115 1_555
O5 P5 1.612583 1_555
O6 P1 1.500588 1_555
O7 P4 1.498685 1_555
O8 P3 1.504630 1_555
O9 P2 1.500588 1_555
O10 P4 1.490987 1_555
O11 P8 1.607949 1_465
O11 P5 1.622587 1_555
O12 P1 1.580115 1_555
O12 P9 1.612583 1_555
O13 P6 1.500588 1_555
O14 P8 1.504630 1_555
O15 P8 1.607949 1_455
O15 P0 1.622587 1_555
O16 P0 1.498685 1_555
O17 P5 1.490987 1_555
O18 P7 1.574533 1_555
O18 P1 1.574533 1_555
O19 P7 1.520534 1_555
O20 P9 1.490987 1_555
O21 P1 1.520534 1_555
O22 P9 1.498685 1_555
O23 P2 1.520534 1_555
O24 P6 1.520534 1_555
O25 P5 1.498685 1_555
O26 P3 1.607949 1_665
O26 P9 1.622587 1_555
O27 P7 1.580115 1_555
O27 P4 1.612583 1_555
O28 P8 1.504630 1_565
O29 P3 1.607949 1_655
O29 P4 1.622587 1_555
