# generated using pymatgen
data_Mn6OF11
_symmetry_space_group_name_H-M   'P 1'
_cell_length_a   4.89659289
_cell_length_b   5.77339607
_cell_length_c   15.85488171
_cell_angle_alpha   90.79739670
_cell_angle_beta   90.16036890
_cell_angle_gamma   91.13855873
_symmetry_Int_Tables_number   1
_chemical_formula_structural   Mn6OF11
_chemical_formula_sum   'Mn12 O2 F22'
_cell_volume   448.08302123
_cell_formula_units_Z   2
loop_
 _symmetry_equiv_pos_site_id
 _symmetry_equiv_pos_as_xyz
  1  'x, y, z'
loop_
 _atom_site_type_symbol
 _atom_site_label
 _atom_site_symmetry_multiplicity
 _atom_site_fract_x
 _atom_site_fract_y
 _atom_site_fract_z
 _atom_site_occupancy
  Mn  Mn0  1  0.00330039  0.83220245  0.58555639  1
  Mn  Mn1  1  0.00488490  0.17816539  0.75855721  1
  Mn  Mn2  1  0.98390653  0.81536006  0.92418144  1
  Mn  Mn3  1  0.99511510  0.82183461  0.24144279  1
  Mn  Mn4  1  0.99669961  0.16779755  0.41444361  1
  Mn  Mn5  1  0.01609347  0.18463994  0.07581856  1
  Mn  Mn6  1  0.49475684  0.67288761  0.41553003  1
  Mn  Mn7  1  0.50530772  0.64241886  0.07471865  1
  Mn  Mn8  1  0.49637430  0.67605579  0.75259262  1
  Mn  Mn9  1  0.49469228  0.35758114  0.92528135  1
  Mn  Mn10  1  0.50524316  0.32711239  0.58446997  1
  Mn  Mn11  1  0.50362570  0.32394421  0.24740738  1
  O  O0  1  0.29467988  0.39621687  0.02603183  1
  O  O1  1  0.70532012  0.60378313  0.97396817  1
  F  F0  1  0.23601363  0.90710960  0.69596690  1
  F  F1  1  0.22367428  0.89015369  0.35510711  1
  F  F2  1  0.22645636  0.89154425  0.02957710  1
  F  F3  1  0.24489725  0.12414941  0.87049304  1
  F  F4  1  0.23355565  0.10150938  0.52397546  1
  F  F5  1  0.21494547  0.10795348  0.19112226  1
  F  F6  1  0.24437021  0.60934389  0.85560967  1
  F  F7  1  0.26735665  0.39690750  0.69396054  1
  F  F8  1  0.27154116  0.60330059  0.52754579  1
  F  F9  1  0.26621506  0.39474141  0.35544632  1
  F  F10  1  0.29531623  0.61536844  0.18313403  1
  F  F11  1  0.70468377  0.38463156  0.81686597  1
  F  F12  1  0.73378494  0.60525859  0.64455368  1
  F  F13  1  0.72845884  0.39669941  0.47245421  1
  F  F14  1  0.75562979  0.39065611  0.14439033  1
  F  F15  1  0.73264335  0.60309250  0.30603946  1
  F  F16  1  0.78505453  0.89204652  0.80887774  1
  F  F17  1  0.76644435  0.89849062  0.47602454  1
  F  F18  1  0.77632572  0.10984631  0.64489289  1
  F  F19  1  0.77354364  0.10845575  0.97042290  1
  F  F20  1  0.75510275  0.87585059  0.12950696  1
  F  F21  1  0.76398637  0.09289040  0.30403310  1
loop_
_geom_bond_atom_site_label_1
_geom_bond_atom_site_label_2
_geom_bond_distance
_geom_bond_site_symmetry_2
Mn2 O1 1.985618 1_555
Mn5 O0 1.985618 1_555
Mn7 O1 1.888943 1_554
Mn7 O0 1.893872 1_555
Mn9 O0 1.888943 1_556
Mn9 O1 1.893872 1_555
F0 Mn8 2.074929 1_555
F0 Mn0 2.120868 1_555
F0 Mn1 2.178996 1_565
F1 Mn6 2.084616 1_555
F1 Mn3 2.146432 1_455
F1 Mn4 2.173566 1_465
F2 Mn2 2.084238 1_454
F2 Mn5 2.121533 1_565
F2 Mn7 2.132265 1_555
F3 Mn9 1.990702 1_555
F3 Mn1 2.155553 1_555
F3 Mn2 2.343887 1_445
F4 Mn10 2.067721 1_555
F4 Mn4 2.128912 1_455
F4 Mn0 2.149571 1_545
F5 Mn11 2.059469 1_555
F5 Mn3 2.120078 1_445
F5 Mn5 2.125053 1_555
F6 Mn2 2.062853 1_455
F6 Mn8 2.085343 1_555
F6 Mn9 2.223348 1_555
F7 Mn1 2.067476 1_555
F7 Mn10 2.131495 1_555
F7 Mn8 2.144696 1_555
F8 Mn0 2.087946 1_555
F8 Mn6 2.126849 1_555
F8 Mn10 2.184819 1_555
F9 Mn4 2.074998 1_455
F9 Mn11 2.112630 1_555
F9 Mn6 2.149093 1_555
F10 Mn7 2.011795 1_555
F10 Mn3 2.117288 1_455
F10 Mn11 2.240492 1_555
F11 Mn9 2.011795 1_555
F11 Mn1 2.117288 1_655
F11 Mn8 2.240492 1_555
F12 Mn0 2.074998 1_655
F12 Mn8 2.112630 1_555
F12 Mn10 2.149093 1_555
F13 Mn4 2.087946 1_555
F13 Mn10 2.126849 1_555
F13 Mn6 2.184819 1_555
F14 Mn5 2.062853 1_655
F14 Mn11 2.085343 1_555
F14 Mn7 2.223348 1_555
F15 Mn3 2.067476 1_555
F15 Mn6 2.131495 1_555
F15 Mn11 2.144696 1_555
F16 Mn8 2.059469 1_555
F16 Mn1 2.120078 1_665
F16 Mn2 2.125053 1_555
F17 Mn6 2.067721 1_555
F17 Mn0 2.128912 1_655
F17 Mn4 2.149571 1_565
F18 Mn10 2.084616 1_555
F18 Mn1 2.146432 1_655
F18 Mn0 2.173566 1_645
F19 Mn5 2.084238 1_656
F19 Mn2 2.121533 1_545
F19 Mn9 2.132265 1_555
F20 Mn7 1.990702 1_555
F20 Mn3 2.155553 1_555
F20 Mn5 2.343887 1_665
F21 Mn11 2.074929 1_555
F21 Mn4 2.120868 1_555
F21 Mn3 2.178996 1_545
