# generated using pymatgen
data_LiMnCo3O8
_symmetry_space_group_name_H-M   'P 1'
_cell_length_a   5.66995700
_cell_length_b   5.98402984
_cell_length_c   9.84384777
_cell_angle_alpha   106.01071672
_cell_angle_beta   90.00116844
_cell_angle_gamma   118.27753219
_symmetry_Int_Tables_number   1
_chemical_formula_structural   LiMnCo3O8
_chemical_formula_sum   'Li2 Mn2 Co6 O16'
_cell_volume   279.33689444
_cell_formula_units_Z   2
loop_
 _symmetry_equiv_pos_site_id
 _symmetry_equiv_pos_as_xyz
  1  'x, y, z'
loop_
 _atom_site_type_symbol
 _atom_site_label
 _atom_site_symmetry_multiplicity
 _atom_site_fract_x
 _atom_site_fract_y
 _atom_site_fract_z
 _atom_site_occupancy
  Li  Li0  1  0.75004300  0.50008800  0.25012000  1
  Li  Li1  1  0.24995600  0.49991300  0.74987600  1
  Mn  Mn0  1  0.50001300  0.00000900  0.49997400  1
  Mn  Mn1  1  0.99998900  0.00000000  0.00002500  1
  Co  Co0  1  0.25016600  0.00003600  0.74996800  1
  Co  Co1  1  0.74984100  0.99996400  0.25003400  1
  Co  Co2  1  0.49998800  0.99998700  0.99997800  1
  Co  Co3  1  0.00000900  0.00001000  0.50002000  1
  Co  Co4  1  0.74986900  0.00003700  0.74996700  1
  Co  Co5  1  0.25012300  0.99996300  0.25003300  1
  O  O0  1  0.59345300  0.18688700  0.86253200  1
  O  O1  1  0.09323700  0.18645400  0.36239600  1
  O  O2  1  0.40655100  0.81312300  0.13745500  1
  O  O3  1  0.90675700  0.81353100  0.63761700  1
  O  O4  1  0.65397800  0.80298300  0.38070600  1
  O  O5  1  0.15384100  0.80254700  0.88067000  1
  O  O6  1  0.90035800  0.80072800  0.13626200  1
  O  O7  1  0.40051800  0.80103500  0.63622500  1
  O  O8  1  0.14901900  0.80296900  0.38070400  1
  O  O9  1  0.64873000  0.80254500  0.88067500  1
  O  O10  1  0.85099700  0.19704200  0.61931000  1
  O  O11  1  0.35126200  0.19744200  0.11931100  1
  O  O12  1  0.09964000  0.19928400  0.86374500  1
  O  O13  1  0.59948500  0.19895800  0.36377500  1
  O  O14  1  0.34602000  0.19703600  0.61931500  1
  O  O15  1  0.84615600  0.19743000  0.11930700  1
loop_
_geom_bond_atom_site_label_1
_geom_bond_atom_site_label_2
_geom_bond_distance
_geom_bond_site_symmetry_2
Li0 O6 2.208775 1_555
Li0 O13 2.209576 1_555
Li0 O15 2.209968 1_555
Li0 O11 2.209978 1_555
Li0 O4 2.210101 1_555
Li0 O8 2.210137 1_655
Li1 O12 2.208803 1_555
Li1 O7 2.209510 1_555
Li1 O5 2.209798 1_555
Li1 O9 2.209903 1_555
Li1 O14 2.209926 1_555
Li1 O10 2.210002 1_455
Mn0 O4 1.934479 1_545
Mn0 O8 1.934486 1_545
Mn0 O10 1.934731 1_555
Mn0 O14 1.934916 1_555
Mn0 O13 1.943526 1_555
Mn0 O7 1.944065 1_545
Mn1 O15 1.935572 1_555
Mn1 O11 1.935618 1_655
Mn1 O9 1.935832 1_544
Mn1 O5 1.936057 1_644
Mn1 O6 1.945134 1_545
Mn1 O12 1.945545 1_654
Co0 O3 1.876178 1_445
Co0 O0 1.876427 1_555
Co0 O14 1.889060 1_555
Co0 O5 1.891428 1_545
Co0 O7 1.903904 1_545
Co0 O12 1.905776 1_555
Co1 O1 1.876174 1_665
Co1 O2 1.876506 1_555
Co1 O4 1.889142 1_555
Co1 O15 1.891545 1_565
Co1 O13 1.903885 1_565
Co1 O6 1.905669 1_555
Co2 O0 1.906697 1_565
Co2 O2 1.906822 1_556
Co2 O5 1.914313 1_555
Co2 O9 1.914454 1_555
Co2 O15 1.914491 1_566
Co2 O11 1.914570 1_566
Co3 O3 1.906354 1_445
Co3 O1 1.906450 1_555
Co3 O14 1.913786 1_555
Co3 O10 1.913910 1_455
Co3 O4 1.913952 1_445
Co3 O8 1.914050 1_545
Co4 O3 1.876119 1_545
Co4 O0 1.876351 1_555
Co4 O10 1.889113 1_555
Co4 O9 1.891490 1_545
Co4 O7 1.903883 1_545
Co4 O12 1.905759 1_655
Co5 O1 1.876106 1_565
Co5 O2 1.876417 1_555
Co5 O8 1.889186 1_555
Co5 O11 1.891555 1_565
Co5 O13 1.903931 1_565
Co5 O6 1.905708 1_455
