# generated using pymatgen
data_NdH12C2N7O13
_symmetry_space_group_name_H-M   'P 1'
_cell_length_a   6.71861000
_cell_length_b   11.17965200
_cell_length_c   20.76426400
_cell_angle_alpha   74.18183502
_cell_angle_beta   90.00000000
_cell_angle_gamma   90.00000000
_symmetry_Int_Tables_number   1
_chemical_formula_structural   NdH12C2N7O13
_chemical_formula_sum   'Nd4 H48 C8 N28 O52'
_cell_volume   1500.57859657
_cell_formula_units_Z   4
loop_
 _symmetry_equiv_pos_site_id
 _symmetry_equiv_pos_as_xyz
  1  'x, y, z'
loop_
 _atom_site_type_symbol
 _atom_site_label
 _atom_site_symmetry_multiplicity
 _atom_site_fract_x
 _atom_site_fract_y
 _atom_site_fract_z
 _atom_site_occupancy
  Nd  Nd0  1  0.75124200  0.73622600  0.63424200  1
  Nd  Nd1  1  0.25124200  0.26377400  0.86575800  1
  Nd  Nd2  1  0.24875800  0.26377400  0.36575800  1
  Nd  Nd3  1  0.74875800  0.73622600  0.13424200  1
  H  H0  1  0.22019200  0.79675700  0.61063200  1
  H  H1  1  0.72019200  0.20324300  0.88936800  1
  H  H2  1  0.77980800  0.20324300  0.38936800  1
  H  H3  1  0.27980800  0.79675700  0.11063200  1
  H  H4  1  0.12056700  0.80049500  0.54088200  1
  H  H5  1  0.62056700  0.19950500  0.95911800  1
  H  H6  1  0.87943300  0.19950500  0.45911800  1
  H  H7  1  0.37943300  0.80049500  0.04088200  1
  H  H8  1  0.52407700  0.49278600  0.72282100  1
  H  H9  1  0.02407700  0.50721400  0.77717900  1
  H  H10  1  0.47592300  0.50721400  0.27717900  1
  H  H11  1  0.97592300  0.49278600  0.22282100  1
  H  H12  1  0.41565300  0.60991900  0.73502400  1
  H  H13  1  0.91565300  0.39008100  0.76497600  1
  H  H14  1  0.58434700  0.39008100  0.26497600  1
  H  H15  1  0.08434700  0.60991900  0.23502400  1
  H  H16  1  0.31978500  0.02534700  0.74078400  1
  H  H17  1  0.81978500  0.97465300  0.75921600  1
  H  H18  1  0.68021500  0.97465300  0.25921600  1
  H  H19  1  0.18021500  0.02534700  0.24078400  1
  H  H20  1  0.40163600  0.87347300  0.76711600  1
  H  H21  1  0.90163600  0.12652700  0.73288400  1
  H  H22  1  0.59836400  0.12652700  0.23288400  1
  H  H23  1  0.09836400  0.87347300  0.26711600  1
  H  H24  1  0.30891200  0.12215200  0.62331100  1
  H  H25  1  0.80891200  0.87784800  0.87668900  1
  H  H26  1  0.69108800  0.87784800  0.37668900  1
  H  H27  1  0.19108800  0.12215200  0.12331100  1
  H  H28  1  0.33248800  0.03145100  0.56700800  1
  H  H29  1  0.83248800  0.96854900  0.93299200  1
  H  H30  1  0.66751200  0.96854900  0.43299200  1
  H  H31  1  0.16751200  0.03145100  0.06700800  1
  H  H32  1  0.25620700  0.44809300  0.58068400  1
  H  H33  1  0.75620700  0.55190700  0.91931600  1
  H  H34  1  0.74379300  0.55190700  0.41931600  1
  H  H35  1  0.24379300  0.44809300  0.08068400  1
  H  H36  1  0.20219500  0.58317100  0.60404900  1
  H  H37  1  0.70219500  0.41682900  0.89595100  1
  H  H38  1  0.79780500  0.41682900  0.39595100  1
  H  H39  1  0.29780500  0.58317100  0.10404900  1
  H  H40  1  0.98287600  0.31418600  0.57666300  1
  H  H41  1  0.48287600  0.68581400  0.92333700  1
  H  H42  1  0.01712400  0.68581400  0.42333700  1
  H  H43  1  0.51712400  0.31418600  0.07666300  1
  H  H44  1  0.75909500  0.33575400  0.61455000  1
  H  H45  1  0.25909500  0.66424600  0.88545000  1
  H  H46  1  0.24090500  0.66424600  0.38545000  1
  H  H47  1  0.74090500  0.33575400  0.11455000  1
  C  C0  1  0.38566400  0.93971300  0.66536600  1
  C  C1  1  0.88566400  0.06028700  0.83463400  1
  C  C2  1  0.61433600  0.06028700  0.33463400  1
  C  C3  1  0.11433600  0.93971300  0.16536600  1
  C  C4  1  0.97013500  0.46347300  0.61650900  1
  C  C5  1  0.47013500  0.53652700  0.88349100  1
  C  C6  1  0.02986500  0.53652700  0.38349100  1
  C  C7  1  0.52986500  0.46347300  0.11650900  1
  N  N0  1  0.37469300  0.94954700  0.72854800  1
  N  N1  1  0.87469300  0.05045300  0.77145200  1
  N  N2  1  0.62530700  0.05045300  0.27145200  1
  N  N3  1  0.12530700  0.94954700  0.22854800  1
  N  N4  1  0.34667100  0.04040300  0.61436800  1
  N  N5  1  0.84667100  0.95959700  0.88563200  1
  N  N6  1  0.65332900  0.95959700  0.38563200  1
  N  N7  1  0.15332900  0.04040300  0.11436800  1
  N  N8  1  0.15974500  0.49768700  0.60177100  1
  N  N9  1  0.65974500  0.50231300  0.89822900  1
  N  N10  1  0.84025500  0.50231300  0.39822900  1
  N  N11  1  0.34025500  0.49768700  0.10177100  1
  N  N12  1  0.90652000  0.35522200  0.60691600  1
  N  N13  1  0.40652000  0.64477800  0.89308400  1
  N  N14  1  0.09348000  0.64477800  0.39308400  1
  N  N15  1  0.59348000  0.35522200  0.10691600  1
  N  N16  1  0.81346600  0.01774400  0.57443000  1
  N  N17  1  0.31346600  0.98225600  0.92557000  1
  N  N18  1  0.18653400  0.98225600  0.42557000  1
  N  N19  1  0.68653400  0.01774400  0.07443000  1
  N  N20  1  0.93030400  0.73722000  0.77200400  1
  N  N21  1  0.43030400  0.26278000  0.72799600  1
  N  N22  1  0.06969600  0.26278000  0.22799600  1
  N  N23  1  0.56969600  0.73722000  0.27200400  1
  N  N24  1  0.60174200  0.67562000  0.50954100  1
  N  N25  1  0.10174200  0.32438000  0.99045900  1
  N  N26  1  0.39825800  0.32438000  0.49045900  1
  N  N27  1  0.89825800  0.67562000  0.00954100  1
  O  O0  1  0.74505200  0.94989200  0.53860300  1
  O  O1  1  0.24505200  0.05010800  0.96139700  1
  O  O2  1  0.25494800  0.05010800  0.46139700  1
  O  O3  1  0.75494800  0.94989200  0.03860300  1
  O  O4  1  0.84451100  0.96400700  0.63615800  1
  O  O5  1  0.34451100  0.03599300  0.86384200  1
  O  O6  1  0.15548900  0.03599300  0.36384200  1
  O  O7  1  0.65548900  0.96400700  0.13615800  1
  O  O8  1  0.84862700  0.13080500  0.55049700  1
  O  O9  1  0.34862700  0.86919500  0.94950300  1
  O  O10  1  0.15137300  0.86919500  0.44950300  1
  O  O11  1  0.65137300  0.13080500  0.05049700  1
  O  O12  1  0.76229800  0.78864000  0.75388600  1
  O  O13  1  0.26229800  0.21136000  0.74611400  1
  O  O14  1  0.23770200  0.21136000  0.24611400  1
  O  O15  1  0.73770200  0.78864000  0.25388600  1
  O  O16  1  0.00890000  0.67659300  0.73326600  1
  O  O17  1  0.50890000  0.32340700  0.76673400  1
  O  O18  1  0.99110000  0.32340700  0.26673400  1
  O  O19  1  0.49110000  0.67659300  0.23326600  1
  O  O20  1  0.01481400  0.74542300  0.82352300  1
  O  O21  1  0.51481400  0.25457700  0.67647700  1
  O  O22  1  0.98518600  0.25457700  0.17647700  1
  O  O23  1  0.48518600  0.74542300  0.32352300  1
  O  O24  1  0.78478300  0.70724200  0.51145300  1
  O  O25  1  0.28478300  0.29275800  0.98854700  1
  O  O26  1  0.21521700  0.29275800  0.48854700  1
  O  O27  1  0.71521700  0.70724200  0.01145300  1
  O  O28  1  0.49140900  0.68497200  0.55848900  1
  O  O29  1  0.99140900  0.31502800  0.94151100  1
  O  O30  1  0.50859100  0.31502800  0.44151100  1
  O  O31  1  0.00859100  0.68497200  0.05848900  1
  O  O32  1  0.53443000  0.63806000  0.46310000  1
  O  O33  1  0.03443000  0.36194000  0.03690000  1
  O  O34  1  0.46557000  0.36194000  0.53690000  1
  O  O35  1  0.96557000  0.63806000  0.96310000  1
  O  O36  1  0.43215700  0.83589700  0.65359500  1
  O  O37  1  0.93215700  0.16410300  0.84640500  1
  O  O38  1  0.56784300  0.16410300  0.34640500  1
  O  O39  1  0.06784300  0.83589700  0.15359500  1
  O  O40  1  0.85184200  0.52769500  0.64223800  1
  O  O41  1  0.35184200  0.47230500  0.85776200  1
  O  O42  1  0.14815800  0.47230500  0.35776200  1
  O  O43  1  0.64815800  0.52769500  0.14223800  1
  O  O44  1  0.09715200  0.77539700  0.58968200  1
  O  O45  1  0.59715200  0.22460300  0.91031800  1
  O  O46  1  0.90284800  0.22460300  0.41031800  1
  O  O47  1  0.40284800  0.77539700  0.08968200  1
  O  O48  1  0.52473000  0.58407600  0.71099600  1
  O  O49  1  0.02473000  0.41592400  0.78900400  1
  O  O50  1  0.47527000  0.41592400  0.28900400  1
  O  O51  1  0.97527000  0.58407600  0.21099600  1
loop_
_geom_bond_atom_site_label_1
_geom_bond_atom_site_label_2
_geom_bond_distance
_geom_bond_site_symmetry_2
Nd0 O40 2.389217 1_555
Nd0 O44 2.495618 1_655
Nd0 O36 2.498629 1_555
Nd0 O48 2.504287 1_555
Nd0 O28 2.518216 1_555
Nd0 O16 2.630904 1_655
Nd0 O4 2.633290 1_555
Nd0 O0 2.658054 1_555
Nd0 O24 2.665849 1_555
Nd0 O12 2.704505 1_555
Nd1 O41 2.389217 1_555
Nd1 O45 2.495618 1_555
Nd1 O37 2.498629 1_455
Nd1 O49 2.504287 1_555
Nd1 O29 2.518216 1_455
Nd1 O17 2.630904 1_555
Nd1 O5 2.633290 1_555
Nd1 O1 2.658054 1_555
Nd1 O25 2.665849 1_555
Nd1 O13 2.704505 1_555
Nd2 O42 2.389217 1_555
Nd2 O46 2.495618 1_455
Nd2 O38 2.498629 1_555
Nd2 O50 2.504287 1_555
Nd2 O30 2.518216 1_555
Nd2 O18 2.630904 1_455
Nd2 O6 2.633290 1_555
Nd2 O2 2.658054 1_555
Nd2 O26 2.665849 1_555
Nd2 O14 2.704505 1_555
Nd3 O43 2.389217 1_555
Nd3 O47 2.495618 1_555
Nd3 O39 2.498629 1_655
Nd3 O51 2.504287 1_555
Nd3 O31 2.518216 1_655
Nd3 O19 2.630904 1_555
Nd3 O7 2.633290 1_555
Nd3 O3 2.658054 1_555
Nd3 O27 2.665849 1_555
Nd3 O15 2.704505 1_555
H0 O44 0.993103 1_555
H1 O45 0.993103 1_555
H2 O46 0.993103 1_555
H3 O47 0.993103 1_555
H4 O44 0.987545 1_555
H5 O45 0.987545 1_555
H6 O46 0.987545 1_555
H7 O47 0.987545 1_555
H8 O48 0.982495 1_555
H9 O49 0.982495 1_555
H10 O50 0.982495 1_555
H11 O51 0.982495 1_555
H12 O48 0.973676 1_555
H13 O49 0.973676 1_655
H14 O50 0.973676 1_555
H15 O51 0.973676 1_455
H16 N0 1.017909 1_545
H17 N1 1.017909 1_565
H18 N2 1.017909 1_565
H19 N3 1.017909 1_545
H20 N0 1.012971 1_555
H21 N1 1.012971 1_555
H22 N2 1.012971 1_555
H23 N3 1.012971 1_555
H24 N4 1.013223 1_555
H25 N5 1.013223 1_555
H26 N6 1.013223 1_555
H27 N7 1.013223 1_555
H28 N4 1.019715 1_555
H29 N5 1.019715 1_555
H30 N6 1.019715 1_555
H31 N7 1.019715 1_555
H32 N8 1.025425 1_555
H33 N9 1.025425 1_555
H34 N10 1.025425 1_555
H35 N11 1.025425 1_555
H36 N8 1.010718 1_555
H37 N9 1.010718 1_555
H38 N10 1.010718 1_555
H39 N11 1.010718 1_555
H40 N12 1.012604 1_555
H41 N13 1.012604 1_555
H42 N14 1.012604 1_555
H43 N15 1.012604 1_555
H44 N12 1.017232 1_555
H45 N13 1.017232 1_555
H46 N14 1.017232 1_555
H47 N15 1.017232 1_555
C0 O36 1.288029 1_555
C0 N4 1.344350 1_565
C0 N0 1.348075 1_555
C1 O37 1.288029 1_555
C1 N5 1.344350 1_545
C1 N1 1.348075 1_555
C2 O38 1.288029 1_555
C2 N6 1.344350 1_545
C2 N2 1.348075 1_555
C3 O39 1.288029 1_555
C3 N7 1.344350 1_565
C3 N3 1.348075 1_555
C4 O40 1.281279 1_555
C4 N8 1.341269 1_655
C4 N12 1.348472 1_555
C5 O41 1.281279 1_555
C5 N9 1.341269 1_555
C5 N13 1.348472 1_555
C6 O42 1.281279 1_555
C6 N10 1.341269 1_455
C6 N14 1.348472 1_555
C7 O43 1.281279 1_555
C7 N11 1.341269 1_555
C7 N15 1.348472 1_555
N16 O8 1.248189 1_555
N16 O4 1.275726 1_545
N16 O0 1.283649 1_545
N17 O9 1.248189 1_555
N17 O5 1.275726 1_565
N17 O1 1.283649 1_565
N18 O10 1.248189 1_555
N18 O6 1.275726 1_565
N18 O2 1.283649 1_565
N19 O11 1.248189 1_555
N19 O7 1.275726 1_545
N19 O3 1.283649 1_545
N20 O20 1.236387 1_655
N20 O12 1.276012 1_555
N20 O16 1.297099 1_655
N21 O21 1.236387 1_555
N21 O13 1.276012 1_555
N21 O17 1.297099 1_555
N22 O22 1.236387 1_455
N22 O14 1.276012 1_555
N22 O18 1.297099 1_455
N23 O23 1.236387 1_555
N23 O15 1.276012 1_555
N23 O19 1.297099 1_555
N24 O32 1.237537 1_555
N24 O24 1.283187 1_555
N24 O28 1.285057 1_555
N25 O33 1.237537 1_556
N25 O25 1.283187 1_555
N25 O29 1.285057 1_455
N26 O34 1.237537 1_555
N26 O26 1.283187 1_555
N26 O30 1.285057 1_555
N27 O35 1.237537 1_554
N27 O27 1.283187 1_555
N27 O31 1.285057 1_655
