# generated using pymatgen
data_Fe2OF3
_symmetry_space_group_name_H-M   'P 1'
_cell_length_a   5.76828005
_cell_length_b   5.76828005
_cell_length_c   9.30734260
_cell_angle_alpha   84.73165996
_cell_angle_beta   84.73165996
_cell_angle_gamma   72.11552812
_symmetry_Int_Tables_number   1
_chemical_formula_structural   Fe2OF3
_chemical_formula_sum   'Fe8 O4 F12'
_cell_volume   292.81192849
_cell_formula_units_Z   4
loop_
 _symmetry_equiv_pos_site_id
 _symmetry_equiv_pos_as_xyz
  1  'x, y, z'
loop_
 _atom_site_type_symbol
 _atom_site_label
 _atom_site_symmetry_multiplicity
 _atom_site_fract_x
 _atom_site_fract_y
 _atom_site_fract_z
 _atom_site_occupancy
  Fe  Fe0  1  0.89959300  0.85175600  0.62395900  1
  Fe  Fe1  1  0.62632300  0.62633100  0.87433200  1
  Fe  Fe2  1  0.49169600  0.50830400  0.50000000  1
  Fe  Fe3  1  0.72958000  0.77583800  0.24918800  1
  Fe  Fe4  1  0.22416200  0.27042000  0.75081200  1
  Fe  Fe5  1  0.37366900  0.37367700  0.12566800  1
  Fe  Fe6  1  0.14824400  0.10040700  0.37604100  1
  Fe  Fe7  1  0.03457600  0.96542400  0.00000000  1
  O  O0  1  0.92263100  0.57027400  0.75405200  1
  O  O1  1  0.42972600  0.07736900  0.24594800  1
  O  O2  1  0.18853900  0.81146100  0.50000000  1
  O  O3  1  0.32992400  0.67007600  0.00000000  1
  F  F0  1  0.80733200  0.19266800  0.50000000  1
  F  F1  1  0.54579000  0.95147700  0.74890900  1
  F  F2  1  0.97091100  0.98577300  0.22927300  1
  F  F3  1  0.72436500  0.73447800  0.47680300  1
  F  F4  1  0.47982000  0.47042500  0.72641500  1
  F  F5  1  0.23054000  0.22690800  0.97656000  1
  F  F6  1  0.52957500  0.52018000  0.27358500  1
  F  F7  1  0.77309200  0.76946000  0.02344000  1
  F  F8  1  0.26552200  0.27563500  0.52319700  1
  F  F9  1  0.01422700  0.02908900  0.77072700  1
  F  F10  1  0.71164000  0.28836000  0.00000000  1
  F  F11  1  0.04852300  0.45421000  0.25109100  1
loop_
_geom_bond_atom_site_label_1
_geom_bond_atom_site_label_2
_geom_bond_distance
_geom_bond_site_symmetry_2
Fe0 O2 1.902958 1_655
Fe0 O0 1.912075 1_555
Fe1 O0 1.911747 1_555
Fe1 O3 1.943406 1_556
Fe2 O2 2.058565 1_555
Fe3 O1 2.042055 1_565
Fe4 O0 2.042055 1_455
Fe5 O1 1.911747 1_555
Fe5 O3 1.943406 1_555
Fe6 O2 1.902958 1_545
Fe6 O1 1.912075 1_555
Fe7 O3 2.005539 1_555
F0 Fe6 2.129478 1_655
F0 Fe0 2.129478 1_545
F0 Fe2 2.143303 1_555
F1 Fe1 2.063621 1_555
F1 Fe4 2.174972 1_565
F1 Fe0 2.194155 1_555
F2 Fe6 2.046339 1_665
F2 Fe3 2.094137 1_555
F2 Fe7 2.139597 1_655
F3 Fe0 2.049275 1_555
F3 Fe3 2.108487 1_555
F3 Fe2 2.126125 1_555
F4 Fe1 2.079913 1_555
F4 Fe2 2.095559 1_555
F4 Fe4 2.119592 1_555
F5 Fe5 2.044464 1_556
F5 Fe4 2.095402 1_555
F5 Fe7 2.131154 1_546
F6 Fe5 2.079913 1_555
F6 Fe2 2.095559 1_555
F6 Fe3 2.119592 1_555
F7 Fe1 2.044464 1_554
F7 Fe3 2.095402 1_555
F7 Fe7 2.131154 1_655
F8 Fe6 2.049275 1_555
F8 Fe4 2.108487 1_555
F8 Fe2 2.126125 1_555
F9 Fe0 2.046339 1_445
F9 Fe4 2.094137 1_555
F9 Fe7 2.139597 1_546
F10 Fe1 2.123330 1_554
F10 Fe5 2.123330 1_555
F10 Fe7 2.192873 1_645
F11 Fe5 2.063621 1_555
F11 Fe3 2.174972 1_455
F11 Fe6 2.194155 1_555
