# generated using pymatgen
data_LiNbSn3(PO4)6
_symmetry_space_group_name_H-M   'P 1'
_cell_length_a   8.99997529
_cell_length_b   8.99997529
_cell_length_c   8.99997520
_cell_angle_alpha   58.33432497
_cell_angle_beta   58.33432497
_cell_angle_gamma   58.33433164
_symmetry_Int_Tables_number   1
_chemical_formula_structural   LiNbSn3(PO4)6
_chemical_formula_sum   'Li1 Nb1 Sn3 P6 O24'
_cell_volume   495.81687881
_cell_formula_units_Z   1
loop_
 _symmetry_equiv_pos_site_id
 _symmetry_equiv_pos_as_xyz
  1  'x, y, z'
loop_
 _atom_site_type_symbol
 _atom_site_label
 _atom_site_symmetry_multiplicity
 _atom_site_fract_x
 _atom_site_fract_y
 _atom_site_fract_z
 _atom_site_occupancy
  Li  Li0  1  0.00671200  0.00671200  0.00671200  1
  Nb  Nb0  1  0.85568900  0.85568900  0.85568900  1
  Sn  Sn0  1  0.14619400  0.14619400  0.14619400  1
  Sn  Sn1  1  0.35853300  0.35853300  0.35853300  1
  Sn  Sn2  1  0.64314500  0.64314500  0.64314500  1
  P  P0  1  0.03791400  0.45461400  0.75223900  1
  P  P1  1  0.45461400  0.75223900  0.03791400  1
  P  P2  1  0.75223900  0.03791400  0.45461400  1
  P  P3  1  0.25162800  0.96210600  0.54005000  1
  P  P4  1  0.54005000  0.25162800  0.96210600  1
  P  P5  1  0.96210600  0.54005000  0.25162800  1
  O  O0  1  0.13219100  0.51805400  0.27210400  1
  O  O1  1  0.27210400  0.13219100  0.51805400  1
  O  O2  1  0.06131600  0.27110300  0.92074700  1
  O  O3  1  0.51805400  0.27210400  0.13219100  1
  O  O4  1  0.21568600  0.44517300  0.58192500  1
  O  O5  1  0.99516300  0.62122600  0.79889100  1
  O  O6  1  0.27110300  0.92074700  0.06131600  1
  O  O7  1  0.44517300  0.58192500  0.21568600  1
  O  O8  1  0.58192500  0.21568600  0.44517300  1
  O  O9  1  0.21389700  0.98821100  0.37860500  1
  O  O10  1  0.07876400  0.93351900  0.72289300  1
  O  O11  1  0.37860500  0.21389700  0.98821100  1
  O  O12  1  0.62122600  0.79889100  0.99516300  1
  O  O13  1  0.92074700  0.06131600  0.27110300  1
  O  O14  1  0.79889100  0.99516300  0.62122600  1
  O  O15  1  0.41704600  0.78368500  0.56517200  1
  O  O16  1  0.56517200  0.41704600  0.78368500  1
  O  O17  1  0.72289300  0.07876400  0.93351900  1
  O  O18  1  0.98821100  0.37860500  0.21389700  1
  O  O19  1  0.78368500  0.56517200  0.41704600  1
  O  O20  1  0.48194300  0.72168000  0.87218400  1
  O  O21  1  0.93351900  0.72289300  0.07876400  1
  O  O22  1  0.72168000  0.87218400  0.48194300  1
  O  O23  1  0.87218400  0.48194300  0.72168000  1
loop_
_geom_bond_atom_site_label_1
_geom_bond_atom_site_label_2
_geom_bond_distance
_geom_bond_site_symmetry_2
Li0 O2 2.323324 1_554
Li0 O13 2.323324 1_455
Li0 O6 2.323324 1_545
Li0 O21 2.637852 1_445
Li0 O10 2.637852 1_544
Li0 O17 2.637852 1_454
Nb0 O12 1.991871 1_555
Nb0 O14 1.991871 1_555
Nb0 O5 1.991871 1_555
Nb0 O10 2.007006 1_655
Nb0 O21 2.007006 1_556
Nb0 O17 2.007006 1_565
O0 P5 1.534956 1_455
O0 Sn1 2.058268 1_555
O1 P3 1.534956 1_545
O1 Sn1 2.058268 1_555
O2 P0 1.553204 1_555
O2 Sn0 2.072461 1_556
O3 P4 1.534956 1_554
O3 Sn1 2.058268 1_555
O4 P0 1.528310 1_555
O4 Sn1 2.045165 1_555
O5 P0 1.567961 1_655
O6 P1 1.553204 1_555
O6 Sn0 2.072461 1_565
O7 P1 1.528310 1_555
O7 Sn1 2.045165 1_555
O8 P2 1.528310 1_555
O8 Sn1 2.045165 1_555
O9 P3 1.535442 1_555
O9 Sn0 2.018438 1_565
O10 P3 1.575544 1_555
O11 P4 1.535442 1_555
O11 Sn0 2.018438 1_556
O12 P1 1.567961 1_556
O13 P2 1.553204 1_555
O13 Sn0 2.072461 1_655
O14 P2 1.567961 1_565
O15 P3 1.519313 1_555
O15 Sn2 2.024376 1_555
O16 P4 1.519313 1_555
O16 Sn2 2.024375 1_555
O17 P4 1.575544 1_555
O18 P5 1.535442 1_555
O18 Sn0 2.018439 1_655
O19 P5 1.519313 1_555
O19 Sn2 2.024376 1_555
O20 P1 1.528204 1_556
O20 Sn2 2.041258 1_555
O21 P5 1.575544 1_555
O22 P2 1.528204 1_565
O22 Sn2 2.041258 1_555
O23 P0 1.528204 1_655
O23 Sn2 2.041258 1_555
