# generated using pymatgen
data_Li4Ti4Mn(Co2O9)2
_symmetry_space_group_name_H-M   'P 1'
_cell_length_a   2.88784000
_cell_length_b   9.00908100
_cell_length_c   24.67093200
_cell_angle_alpha   90.00000000
_cell_angle_beta   90.00000000
_cell_angle_gamma   90.00000000
_symmetry_Int_Tables_number   1
_chemical_formula_structural   Li4Ti4Mn(Co2O9)2
_chemical_formula_sum   'Li8 Ti8 Mn2 Co8 O36'
_cell_volume   641.85832064
_cell_formula_units_Z   2
loop_
 _symmetry_equiv_pos_site_id
 _symmetry_equiv_pos_as_xyz
  1  'x, y, z'
loop_
 _atom_site_type_symbol
 _atom_site_label
 _atom_site_symmetry_multiplicity
 _atom_site_fract_x
 _atom_site_fract_y
 _atom_site_fract_z
 _atom_site_occupancy
  Li  Li0  1  0.00000000  0.17819400  0.99405500  1
  Li  Li1  1  0.00000000  0.20346600  0.19786300  1
  Li  Li2  1  0.00000000  0.29653400  0.69786300  1
  Li  Li3  1  0.00000000  0.32180600  0.49405500  1
  Li  Li4  1  0.00000000  0.67819400  0.50594500  1
  Li  Li5  1  0.00000000  0.70346600  0.30213700  1
  Li  Li6  1  0.00000000  0.79653400  0.80213700  1
  Li  Li7  1  0.00000000  0.82180600  0.00594500  1
  Ti  Ti0  1  0.00000000  0.01786100  0.10297100  1
  Ti  Ti1  1  0.50000000  0.15265100  0.80636800  1
  Ti  Ti2  1  0.50000000  0.34734900  0.30636800  1
  Ti  Ti3  1  0.00000000  0.48213900  0.60297100  1
  Ti  Ti4  1  0.00000000  0.51786100  0.39702900  1
  Ti  Ti5  1  0.50000000  0.65265100  0.69363200  1
  Ti  Ti6  1  0.50000000  0.84734900  0.19363200  1
  Ti  Ti7  1  0.00000000  0.98213900  0.89702900  1
  Mn  Mn0  1  0.00000000  0.00000000  0.50000000  1
  Mn  Mn1  1  0.00000000  0.50000000  0.00000000  1
  Co  Co0  1  0.00000000  0.01030300  0.31453100  1
  Co  Co1  1  0.50000000  0.13581400  0.58511600  1
  Co  Co2  1  0.50000000  0.36418600  0.08511600  1
  Co  Co3  1  0.00000000  0.48969700  0.81453100  1
  Co  Co4  1  0.00000000  0.51030300  0.18546900  1
  Co  Co5  1  0.50000000  0.63581400  0.91488400  1
  Co  Co6  1  0.50000000  0.86418600  0.41488400  1
  Co  Co7  1  0.00000000  0.98969700  0.68546900  1
  O  O0  1  0.00000000  0.00201300  0.42217200  1
  O  O1  1  0.00000000  0.99798700  0.57782800  1
  O  O2  1  0.50000000  0.03751400  0.94368500  1
  O  O3  1  0.50000000  0.05630100  0.16144300  1
  O  O4  1  0.50000000  0.11191800  0.66049800  1
  O  O5  1  0.00000000  0.11732100  0.75531500  1
  O  O6  1  0.50000000  0.14544900  0.50578100  1
  O  O7  1  0.50000000  0.13434100  0.29121200  1
  O  O8  1  0.00000000  0.17805200  0.85875800  1
  O  O9  1  0.00000000  0.22233300  0.08533400  1
  O  O10  1  0.00000000  0.27766700  0.58533400  1
  O  O11  1  0.00000000  0.32194800  0.35875800  1
  O  O12  1  0.50000000  0.36565900  0.79121200  1
  O  O13  1  0.50000000  0.35455100  0.00578100  1
  O  O14  1  0.00000000  0.38267900  0.25531500  1
  O  O15  1  0.50000000  0.38808200  0.16049800  1
  O  O16  1  0.50000000  0.44369900  0.66144300  1
  O  O17  1  0.50000000  0.46248600  0.44368500  1
  O  O18  1  0.00000000  0.50201300  0.07782800  1
  O  O19  1  0.00000000  0.49798700  0.92217200  1
  O  O20  1  0.50000000  0.53751400  0.55631500  1
  O  O21  1  0.50000000  0.55630100  0.33855700  1
  O  O22  1  0.50000000  0.61191800  0.83950200  1
  O  O23  1  0.00000000  0.61732100  0.74468500  1
  O  O24  1  0.50000000  0.64544900  0.99421900  1
  O  O25  1  0.50000000  0.63434100  0.20878800  1
  O  O26  1  0.00000000  0.67805200  0.64124200  1
  O  O27  1  0.00000000  0.72233300  0.41466600  1
  O  O28  1  0.00000000  0.77766700  0.91466600  1
  O  O29  1  0.00000000  0.82194800  0.14124200  1
  O  O30  1  0.50000000  0.86565900  0.70878800  1
  O  O31  1  0.50000000  0.85455100  0.49421900  1
  O  O32  1  0.00000000  0.88267900  0.24468500  1
  O  O33  1  0.50000000  0.88808200  0.33950200  1
  O  O34  1  0.50000000  0.94369900  0.83855700  1
  O  O35  1  0.50000000  0.96248600  0.05631500  1
loop_
_geom_bond_atom_site_label_1
_geom_bond_atom_site_label_2
_geom_bond_distance
_geom_bond_site_symmetry_2
Li0 O13 2.166316 1_456
Li0 O13 2.166316 1_556
Li0 O9 2.286778 1_556
Li0 O2 2.288109 1_455
Li0 O2 2.288109 1_555
Li1 O14 2.148432 1_555
Li1 O3 2.156394 1_455
Li1 O3 2.156394 1_555
Li1 O15 2.387672 1_455
Li1 O15 2.387672 1_555
Li2 O5 2.148432 1_555
Li2 O16 2.156394 1_555
Li2 O16 2.156394 1_455
Li2 O4 2.387672 1_555
Li2 O4 2.387672 1_455
Li3 O6 2.166316 1_455
Li3 O6 2.166316 1_555
Li3 O10 2.286778 1_555
Li3 O17 2.288109 1_455
Li3 O17 2.288109 1_555
Li4 O31 2.166316 1_455
Li4 O31 2.166316 1_555
Li4 O27 2.286778 1_555
Li4 O20 2.288109 1_455
Li4 O20 2.288109 1_555
Li5 O32 2.148432 1_555
Li5 O21 2.156394 1_555
Li5 O21 2.156394 1_455
Li5 O33 2.387672 1_555
Li5 O33 2.387672 1_455
Li6 O23 2.148432 1_555
Li6 O34 2.156394 1_455
Li6 O34 2.156394 1_555
Li6 O22 2.387672 1_455
Li6 O22 2.387672 1_555
Li7 O24 2.166316 1_454
Li7 O24 2.166316 1_554
Li7 O28 2.286778 1_554
Li7 O35 2.288109 1_555
Li7 O35 2.288109 1_455
Mn0 O1 1.920175 1_545
Mn0 O0 1.920175 1_555
Mn0 O6 1.955069 1_555
Mn0 O6 1.955069 1_455
Mn0 O31 1.955069 1_545
Mn0 O31 1.955069 1_445
Mn1 O18 1.920175 1_555
Mn1 O19 1.920175 1_554
Mn1 O13 1.955069 1_455
Mn1 O13 1.955069 1_555
Mn1 O24 1.955069 1_554
Mn1 O24 1.955069 1_454
Co0 O7 1.914318 1_455
Co0 O7 1.914318 1_555
Co0 O33 1.917512 1_445
Co0 O33 1.917512 1_545
Co0 O32 2.071541 1_545
Co1 O4 1.872163 1_555
Co1 O1 1.912862 1_645
Co1 O1 1.912862 1_545
Co1 O10 1.928245 1_655
Co1 O10 1.928245 1_555
Co1 O6 1.959192 1_555
Co2 O15 1.872163 1_555
Co2 O18 1.912862 1_555
Co2 O18 1.912862 1_655
Co2 O9 1.928245 1_555
Co2 O9 1.928245 1_655
Co2 O13 1.959192 1_555
Co3 O12 1.914318 1_555
Co3 O12 1.914318 1_455
Co3 O22 1.917512 1_555
Co3 O22 1.917512 1_455
Co3 O23 2.071541 1_555
Co4 O25 1.914318 1_455
Co4 O25 1.914318 1_555
Co4 O15 1.917512 1_455
Co4 O15 1.917512 1_555
Co4 O14 2.071541 1_555
Co5 O22 1.872163 1_555
Co5 O19 1.912862 1_655
Co5 O19 1.912862 1_555
Co5 O28 1.928245 1_655
Co5 O28 1.928245 1_555
Co5 O24 1.959192 1_555
Co6 O33 1.872163 1_555
Co6 O0 1.912862 1_565
Co6 O0 1.912862 1_665
Co6 O27 1.928245 1_555
Co6 O27 1.928245 1_655
Co6 O31 1.959192 1_555
Co7 O30 1.914318 1_455
Co7 O30 1.914318 1_555
Co7 O4 1.917512 1_465
Co7 O4 1.917512 1_565
Co7 O5 2.071541 1_565
O2 Ti7 1.912771 1_645
O2 Ti7 1.912771 1_545
O3 Ti6 2.043116 1_545
O3 Ti0 2.070220 1_655
O3 Ti0 2.070220 1_555
O5 Ti1 1.942323 1_555
O5 Ti1 1.942323 1_455
O7 Ti2 1.955095 1_555
O8 Ti1 1.951373 1_555
O8 Ti1 1.951373 1_455
O8 Ti7 2.001672 1_545
O9 Ti0 1.892797 1_555
O10 Ti3 1.892797 1_555
O11 Ti2 1.951373 1_555
O11 Ti2 1.951373 1_455
O11 Ti4 2.001672 1_555
O12 Ti1 1.955095 1_555
O14 Ti2 1.942323 1_455
O14 Ti2 1.942323 1_555
O16 Ti5 2.043116 1_555
O16 Ti3 2.070220 1_655
O16 Ti3 2.070220 1_555
O17 Ti4 1.912771 1_555
O17 Ti4 1.912771 1_655
O20 Ti3 1.912771 1_655
O20 Ti3 1.912771 1_555
O21 Ti2 2.043116 1_555
O21 Ti4 2.070220 1_555
O21 Ti4 2.070220 1_655
O23 Ti5 1.942323 1_455
O23 Ti5 1.942323 1_555
O25 Ti6 1.955095 1_555
O26 Ti5 1.951373 1_555
O26 Ti5 1.951373 1_455
O26 Ti3 2.001672 1_555
O27 Ti4 1.892797 1_555
O28 Ti7 1.892797 1_555
O29 Ti6 1.951373 1_555
O29 Ti6 1.951373 1_455
O29 Ti0 2.001672 1_565
O30 Ti5 1.955095 1_555
O32 Ti6 1.942323 1_455
O32 Ti6 1.942323 1_555
O34 Ti1 2.043116 1_565
O34 Ti7 2.070220 1_555
O34 Ti7 2.070220 1_655
O35 Ti0 1.912771 1_565
O35 Ti0 1.912771 1_665
