# generated using pymatgen
data_Zr5Ti7O24
_symmetry_space_group_name_H-M   'P 1'
_cell_length_a   14.54742300
_cell_length_b   5.41221000
_cell_length_c   11.49749962
_cell_angle_alpha   61.83893677
_cell_angle_beta   90.00000000
_cell_angle_gamma   90.00000000
_symmetry_Int_Tables_number   1
_chemical_formula_structural   Zr5Ti7O24
_chemical_formula_sum   'Zr10 Ti14 O48'
_cell_volume   798.08234391
_cell_formula_units_Z   2
loop_
 _symmetry_equiv_pos_site_id
 _symmetry_equiv_pos_as_xyz
  1  'x, y, z'
loop_
 _atom_site_type_symbol
 _atom_site_label
 _atom_site_symmetry_multiplicity
 _atom_site_fract_x
 _atom_site_fract_y
 _atom_site_fract_z
 _atom_site_occupancy
  Zr  Zr0  1  0.25162200  0.86247400  0.87463200  1
  Zr  Zr1  1  0.25427000  0.35579300  0.37803300  1
  Zr  Zr2  1  0.25550900  0.63970700  0.62827700  1
  Zr  Zr3  1  0.25268200  0.14055100  0.12423800  1
  Zr  Zr4  1  0.08038800  0.79051300  0.40761200  1
  Zr  Zr5  1  0.91961200  0.79051300  0.90761200  1
  Zr  Zr6  1  0.74731800  0.14055100  0.62423800  1
  Zr  Zr7  1  0.74573000  0.35579300  0.87803300  1
  Zr  Zr8  1  0.74837800  0.86247400  0.37463200  1
  Zr  Zr9  1  0.74449100  0.63970700  0.12827700  1
  Ti  Ti0  1  0.08434900  0.15186200  0.65555400  1
  Ti  Ti1  1  0.08402900  0.65039800  0.15790900  1
  Ti  Ti2  1  0.08425300  0.28066800  0.90551500  1
  Ti  Ti3  1  0.91574700  0.28066800  0.40551500  1
  Ti  Ti4  1  0.91597100  0.65039800  0.65790900  1
  Ti  Ti5  1  0.91565100  0.15186200  0.15555400  1
  Ti  Ti6  1  0.58041000  0.84413100  0.84074400  1
  Ti  Ti7  1  0.57970600  0.34230700  0.34143900  1
  Ti  Ti8  1  0.57854500  0.22716700  0.09136100  1
  Ti  Ti9  1  0.58077200  0.72507000  0.59077200  1
  Ti  Ti10  1  0.42145500  0.22716700  0.59136100  1
  Ti  Ti11  1  0.41922800  0.72507000  0.09077200  1
  Ti  Ti12  1  0.42029400  0.34230700  0.84143900  1
  Ti  Ti13  1  0.41959000  0.84413100  0.34074400  1
  O  O0  1  0.17101200  0.44339900  0.96807000  1
  O  O1  1  0.17965000  0.95476800  0.47273300  1
  O  O2  1  0.17198200  0.86678500  0.71939800  1
  O  O3  1  0.16840400  0.35701100  0.22154400  1
  O  O4  1  0.16648800  0.41298600  0.51694000  1
  O  O5  1  0.16854900  0.31027700  0.76442800  1
  O  O6  1  0.16752800  0.80118900  0.26006200  1
  O  O7  1  0.16277100  0.91296600  0.01312600  1
  O  O8  1  0.02248500  0.06380300  0.81799100  1
  O  O9  1  0.00933000  0.54969400  0.32033900  1
  O  O10  1  0.00739200  0.53462400  0.58059600  1
  O  O11  1  0.00739200  0.04988700  0.06845300  1
  O  O12  1  0.99067000  0.54969400  0.82033900  1
  O  O13  1  0.97751500  0.06380300  0.31799100  1
  O  O14  1  0.99260800  0.53462400  0.08059600  1
  O  O15  1  0.99260800  0.04988700  0.56845300  1
  O  O16  1  0.83247200  0.80118900  0.76006200  1
  O  O17  1  0.83722900  0.91296600  0.51312600  1
  O  O18  1  0.83145100  0.31027700  0.26442800  1
  O  O19  1  0.83351200  0.41298600  0.01694000  1
  O  O20  1  0.82035000  0.95476800  0.97273300  1
  O  O21  1  0.82898800  0.44339900  0.46807000  1
  O  O22  1  0.83159600  0.35701100  0.72154400  1
  O  O23  1  0.82801800  0.86678500  0.21939800  1
  O  O24  1  0.66764100  0.12934400  0.78318700  1
  O  O25  1  0.66625100  0.62968600  0.28620500  1
  O  O26  1  0.66869700  0.55467300  0.53478700  1
  O  O27  1  0.66310400  0.05339900  0.03475400  1
  O  O28  1  0.66124100  0.58531200  0.98459400  1
  O  O29  1  0.66222000  0.08570000  0.48520700  1
  O  O30  1  0.66014300  0.69208700  0.73570900  1
  O  O31  1  0.66045700  0.19539000  0.23539700  1
  O  O32  1  0.51190900  0.95501900  0.67483500  1
  O  O33  1  0.51056200  0.45543000  0.17551900  1
  O  O34  1  0.51004400  0.44846200  0.92530500  1
  O  O35  1  0.51119400  0.94746600  0.42473500  1
  O  O36  1  0.48880600  0.94746600  0.92473500  1
  O  O37  1  0.48995600  0.44846200  0.42530500  1
  O  O38  1  0.48943800  0.45543000  0.67551900  1
  O  O39  1  0.48809100  0.95501900  0.17483500  1
  O  O40  1  0.33954300  0.19539000  0.73539700  1
  O  O41  1  0.33985700  0.69208700  0.23570900  1
  O  O42  1  0.33778000  0.08570000  0.98520700  1
  O  O43  1  0.33875900  0.58531200  0.48459400  1
  O  O44  1  0.33130300  0.55467300  0.03478700  1
  O  O45  1  0.33689600  0.05339900  0.53475400  1
  O  O46  1  0.33374900  0.62968600  0.78620500  1
  O  O47  1  0.33235900  0.12934400  0.28318700  1
loop_
_geom_bond_atom_site_label_1
_geom_bond_atom_site_label_2
_geom_bond_distance
_geom_bond_site_symmetry_2
O0 Ti2 1.866504 1_555
O0 Zr3 2.131703 1_556
O0 Zr0 2.318122 1_555
O1 Zr4 2.016013 1_555
O1 Zr2 2.108387 1_555
O1 Zr1 2.200916 1_565
O2 Ti0 1.864278 1_565
O2 Zr0 2.118729 1_555
O2 Zr2 2.302139 1_555
O3 Ti1 1.861897 1_555
O3 Zr1 2.187786 1_555
O3 Zr3 2.316124 1_555
O4 Ti0 1.959350 1_555
O4 Zr1 2.178039 1_555
O4 Zr4 2.213478 1_555
O4 Zr2 2.510790 1_555
O5 Ti2 1.978753 1_555
O5 Zr2 2.143652 1_555
O5 Ti0 2.194412 1_555
O5 Zr0 2.457881 1_545
O6 Zr4 2.096603 1_555
O6 Ti1 2.103745 1_555
O6 Zr3 2.153919 1_565
O6 Zr1 2.481275 1_555
O7 Ti1 1.967171 1_555
O7 Ti2 2.114665 1_564
O7 Zr0 2.166018 1_554
O7 Zr3 2.518986 1_565
O8 Ti0 1.919612 1_555
O8 Zr5 2.012593 1_445
O8 Ti2 2.076669 1_555
O9 Ti3 1.893814 1_455
O9 Ti1 2.001215 1_555
O9 Zr4 2.237996 1_555
O10 Ti4 1.864739 1_455
O10 Zr4 2.097945 1_555
O10 Ti0 2.145312 1_555
O11 Ti5 1.900090 1_455
O11 Ti2 2.027609 1_554
O11 Ti1 2.208282 1_545
O12 Ti2 1.893814 1_655
O12 Ti4 2.001215 1_555
O12 Zr5 2.237996 1_555
O13 Ti5 1.919612 1_555
O13 Zr4 2.012593 1_645
O13 Ti3 2.076669 1_555
O14 Ti1 1.864739 1_655
O14 Zr5 2.097945 1_554
O14 Ti5 2.145312 1_555
O15 Ti0 1.900090 1_655
O15 Ti3 2.027609 1_555
O15 Ti4 2.208282 1_545
O16 Zr5 2.096603 1_555
O16 Ti4 2.103745 1_555
O16 Zr6 2.153919 1_565
O16 Zr7 2.481275 1_555
O17 Ti4 1.967171 1_555
O17 Ti3 2.114665 1_565
O17 Zr8 2.166018 1_555
O17 Zr6 2.518986 1_565
O18 Ti3 1.978753 1_555
O18 Zr9 2.143652 1_555
O18 Ti5 2.194412 1_555
O18 Zr8 2.457881 1_545
O19 Ti5 1.959350 1_555
O19 Zr7 2.178039 1_554
O19 Zr5 2.213478 1_554
O19 Zr9 2.510790 1_555
O20 Zr5 2.016013 1_555
O20 Zr9 2.108387 1_556
O20 Zr7 2.200916 1_565
O21 Ti3 1.866504 1_555
O21 Zr6 2.131703 1_555
O21 Zr8 2.318122 1_555
O22 Ti4 1.861897 1_555
O22 Zr7 2.187786 1_555
O22 Zr6 2.316124 1_555
O23 Ti5 1.864278 1_565
O23 Zr8 2.118729 1_555
O23 Zr9 2.302139 1_555
O24 Ti6 1.861946 1_545
O24 Zr6 2.140646 1_555
O24 Zr7 2.289814 1_555
O25 Ti7 1.864188 1_555
O25 Zr9 2.121912 1_555
O25 Zr8 2.292916 1_555
O26 Ti9 1.860432 1_555
O26 Zr8 2.148032 1_555
O26 Zr6 2.283321 1_555
O27 Ti8 1.843642 1_555
O27 Zr7 2.141627 1_554
O27 Zr9 2.301868 1_545
O28 Ti6 1.973199 1_555
O28 Ti8 2.113148 1_556
O28 Zr9 2.177502 1_556
O28 Zr7 2.447731 1_555
O29 Ti7 1.983710 1_555
O29 Ti9 2.109621 1_545
O29 Zr6 2.150306 1_555
O29 Zr8 2.469142 1_545
O30 Ti9 1.964997 1_555
O30 Ti6 2.102130 1_555
O30 Zr7 2.174713 1_555
O30 Zr6 2.491144 1_565
O31 Ti8 1.980703 1_555
O31 Ti7 2.100901 1_555
O31 Zr8 2.173138 1_545
O31 Zr9 2.449187 1_555
O32 Ti10 1.867565 1_565
O32 Ti6 1.977709 1_555
O32 Ti9 2.149873 1_555
O33 Ti11 1.871442 1_555
O33 Ti7 1.980747 1_555
O33 Ti8 2.137499 1_555
O34 Ti12 1.867473 1_555
O34 Ti8 1.978451 1_556
O34 Ti6 2.147947 1_555
O35 Ti13 1.879081 1_555
O35 Ti9 1.987139 1_555
O35 Ti7 2.131992 1_565
O36 Ti6 1.879081 1_555
O36 Ti11 1.987139 1_556
O36 Ti12 2.131992 1_565
O37 Ti7 1.867473 1_555
O37 Ti10 1.978451 1_555
O37 Ti13 2.147947 1_555
O38 Ti9 1.871442 1_555
O38 Ti12 1.980747 1_555
O38 Ti10 2.137499 1_555
O39 Ti8 1.867565 1_565
O39 Ti13 1.977709 1_555
O39 Ti11 2.149873 1_555
O40 Ti10 1.980703 1_555
O40 Ti12 2.100901 1_555
O40 Zr0 2.173138 1_545
O40 Zr2 2.449187 1_555
O41 Ti11 1.964997 1_555
O41 Ti13 2.102130 1_555
O41 Zr1 2.174713 1_555
O41 Zr3 2.491144 1_565
O42 Ti12 1.983710 1_555
O42 Ti11 2.109621 1_546
O42 Zr3 2.150306 1_556
O42 Zr0 2.469142 1_545
O43 Ti13 1.973199 1_555
O43 Ti10 2.113148 1_555
O43 Zr2 2.177502 1_555
O43 Zr1 2.447731 1_555
O44 Ti11 1.860432 1_555
O44 Zr0 2.148032 1_554
O44 Zr3 2.283321 1_555
O45 Ti10 1.843642 1_555
O45 Zr1 2.141627 1_555
O45 Zr2 2.301868 1_545
O46 Ti12 1.864188 1_555
O46 Zr2 2.121912 1_555
O46 Zr0 2.292916 1_555
O47 Ti13 1.861946 1_545
O47 Zr3 2.140646 1_555
O47 Zr1 2.289814 1_555
