# generated using pymatgen
data_Li4CrCo3(PO4)4
_symmetry_space_group_name_H-M   'P 1'
_cell_length_a   4.76521113
_cell_length_b   10.25517589
_cell_length_c   6.09027400
_cell_angle_alpha   90.00000000
_cell_angle_beta   90.00000000
_cell_angle_gamma   90.58947644
_symmetry_Int_Tables_number   1
_chemical_formula_structural   Li4CrCo3(PO4)4
_chemical_formula_sum   'Li4 Cr1 Co3 P4 O16'
_cell_volume   297.60423512
_cell_formula_units_Z   1
loop_
 _symmetry_equiv_pos_site_id
 _symmetry_equiv_pos_as_xyz
  1  'x, y, z'
loop_
 _atom_site_type_symbol
 _atom_site_label
 _atom_site_symmetry_multiplicity
 _atom_site_fract_x
 _atom_site_fract_y
 _atom_site_fract_z
 _atom_site_occupancy
  Li  Li0  1  0.00702300  0.99774200  0.99739200  1
  Li  Li1  1  0.00702300  0.99774200  0.50260800  1
  Li  Li2  1  0.49850600  0.50076000  0.50366000  1
  Li  Li3  1  0.49850600  0.50076000  0.99634000  1
  Cr  Cr0  1  0.95746700  0.28281900  0.25000000  1
  Co  Co0  1  0.02077400  0.72058700  0.75000000  1
  Co  Co1  1  0.48243100  0.21798200  0.75000000  1
  Co  Co2  1  0.51317000  0.77834700  0.25000000  1
  P  P0  1  0.08052300  0.59550100  0.25000000  1
  P  P1  1  0.41863200  0.09483000  0.25000000  1
  P  P2  1  0.58806100  0.90430700  0.75000000  1
  P  P3  1  0.91468000  0.40691800  0.75000000  1
  O  O0  1  0.19673300  0.45371800  0.25000000  1
  O  O1  1  0.21946200  0.66584800  0.04683300  1
  O  O2  1  0.21946200  0.66584800  0.45316700  1
  O  O3  1  0.23609300  0.40312400  0.75000000  1
  O  O4  1  0.26596500  0.89890700  0.75000000  1
  O  O5  1  0.28695100  0.16251300  0.04404900  1
  O  O6  1  0.28695100  0.16251300  0.45595100  1
  O  O7  1  0.30083600  0.95215800  0.25000000  1
  O  O8  1  0.70895600  0.04612800  0.75000000  1
  O  O9  1  0.72502500  0.83471200  0.54684400  1
  O  O10  1  0.72502500  0.83471200  0.95315600  1
  O  O11  1  0.74243100  0.10263500  0.25000000  1
  O  O12  1  0.75819800  0.59846700  0.25000000  1
  O  O13  1  0.77198300  0.33616600  0.55071800  1
  O  O14  1  0.77198300  0.33616600  0.94928200  1
  O  O15  1  0.79715700  0.54808900  0.75000000  1
loop_
_geom_bond_atom_site_label_1
_geom_bond_atom_site_label_2
_geom_bond_distance
_geom_bond_site_symmetry_2
Li0 O8 2.132656 1_465
Li0 O7 2.135195 1_556
Li0 O10 2.151128 1_455
Li0 O5 2.160780 1_566
Li0 O4 2.201295 1_555
Li0 O11 2.267504 1_466
Li1 O8 2.132656 1_465
Li1 O7 2.135195 1_555
Li1 O9 2.151128 1_455
Li1 O6 2.160780 1_565
Li1 O4 2.201295 1_555
Li1 O11 2.267504 1_465
Li2 O15 2.120735 1_555
Li2 O0 2.161695 1_555
Li2 O13 2.162130 1_555
Li2 O2 2.185239 1_555
Li2 O3 2.188894 1_555
Li2 O12 2.212794 1_555
Li3 O15 2.120735 1_555
Li3 O0 2.161695 1_556
Li3 O14 2.162130 1_555
Li3 O1 2.185239 1_556
Li3 O3 2.188894 1_555
Li3 O12 2.212794 1_556
Cr0 O0 2.080970 1_655
Cr0 O11 2.103679 1_555
Cr0 O13 2.108247 1_555
Cr0 O14 2.108247 1_554
Cr0 O6 2.366511 1_655
Cr0 O5 2.366511 1_655
Co0 O15 2.055731 1_455
Co0 O1 2.119101 1_556
Co0 O2 2.119101 1_555
Co0 O4 2.159935 1_555
Co0 O9 2.218266 1_455
Co0 O10 2.218266 1_455
Co1 O8 2.076141 1_555
Co1 O5 2.094632 1_556
Co1 O6 2.094632 1_555
Co1 O14 2.193476 1_555
Co1 O13 2.193476 1_555
Co1 O3 2.242479 1_555
Co2 O7 2.058653 1_555
Co2 O9 2.147006 1_555
Co2 O10 2.147006 1_554
Co2 O1 2.188067 1_555
Co2 O2 2.188067 1_555
Co2 O12 2.193298 1_555
O0 P0 1.561207 1_555
O1 P0 1.574795 1_555
O2 P0 1.574795 1_555
O3 P3 1.532495 1_455
O4 P2 1.535285 1_555
O5 P1 1.567719 1_555
O6 P1 1.567719 1_555
O7 P1 1.561705 1_565
O8 P2 1.558819 1_545
O9 P2 1.573463 1_555
O10 P2 1.573463 1_555
O11 P1 1.544223 1_555
O12 P0 1.536561 1_655
O13 P3 1.565792 1_555
O14 P3 1.565792 1_555
O15 P3 1.557639 1_555
