# generated using pymatgen
data_Li4Sn2P4H3O16
_symmetry_space_group_name_H-M   'P 1'
_cell_length_a   4.94518000
_cell_length_b   8.14587308
_cell_length_c   8.91272175
_cell_angle_alpha   90.69391576
_cell_angle_beta   91.43593236
_cell_angle_gamma   100.74503056
_symmetry_Int_Tables_number   1
_chemical_formula_structural   Li4Sn2P4H3O16
_chemical_formula_sum   'Li4 Sn2 P4 H3 O16'
_cell_volume   352.57219358
_cell_formula_units_Z   1
loop_
 _symmetry_equiv_pos_site_id
 _symmetry_equiv_pos_as_xyz
  1  'x, y, z'
loop_
 _atom_site_type_symbol
 _atom_site_label
 _atom_site_symmetry_multiplicity
 _atom_site_fract_x
 _atom_site_fract_y
 _atom_site_fract_z
 _atom_site_occupancy
  Li  Li0  1  0.10707600  0.68447800  0.65240400  1
  Li  Li1  1  0.40425900  0.84178400  0.12568000  1
  Li  Li2  1  0.61434300  0.15441300  0.86621200  1
  Li  Li3  1  0.87740300  0.31127000  0.34561200  1
  Sn  Sn0  1  0.99901000  0.50594600  0.99564900  1
  Sn  Sn1  1  0.49469500  0.99457000  0.50132200  1
  P  P0  1  0.12694700  0.27406000  0.66622700  1
  P  P1  1  0.36377900  0.23021300  0.14165700  1
  P  P2  1  0.62004300  0.77464400  0.85463200  1
  P  P3  1  0.87395100  0.72260900  0.32998100  1
  H  H0  1  0.46121400  0.49187900  0.63987200  1
  H  H1  1  0.53430200  0.51460200  0.38043400  1
  H  H2  1  0.04121900  0.02208500  0.01965600  1
  O  O0  1  0.05629600  0.79550200  0.46478800  1
  O  O1  1  0.96614600  0.30594700  0.80751400  1
  O  O2  1  0.13178400  0.33131500  0.17320200  1
  O  O3  1  0.26734000  0.46126100  0.60704100  1
  O  O4  1  0.40988500  0.67259800  0.96428300  1
  O  O5  1  0.47668200  0.79736500  0.70238200  1
  O  O6  1  0.22801700  0.04787200  0.07415600  1
  O  O7  1  0.35845900  0.17857500  0.70044000  1
  O  O8  1  0.63991200  0.81574500  0.29549700  1
  O  O9  1  0.74066500  0.94368000  0.93174700  1
  O  O10  1  0.51217700  0.19671300  0.28687200  1
  O  O11  1  0.55938500  0.31677300  0.02226400  1
  O  O12  1  0.73558000  0.53281800  0.38270600  1
  O  O13  1  0.84790100  0.66657700  0.82178600  1
  O  O14  1  0.04334000  0.69475100  0.19155700  1
  O  O15  1  0.93707600  0.20185600  0.53452700  1
loop_
_geom_bond_atom_site_label_1
_geom_bond_atom_site_label_2
_geom_bond_distance
_geom_bond_site_symmetry_2
Li0 O5 1.925438 1_555
Li0 O0 1.943552 1_555
Li0 O13 1.993893 1_455
Li0 O3 2.152527 1_555
Li1 O8 1.924928 1_555
Li1 O4 1.984351 1_554
Li1 O14 2.058459 1_555
Li1 O6 2.081566 1_565
Li1 O9 2.471452 1_554
Li2 O7 1.956812 1_555
Li2 O11 1.966193 1_556
Li2 O9 2.020886 1_545
Li2 O1 2.021026 1_555
Li3 O10 1.928534 1_555
Li3 O15 1.956008 1_555
Li3 O2 1.999190 1_655
Li3 O12 2.080205 1_555
H0 O3 0.980828 1_555
H1 O12 0.978267 1_555
H2 O6 1.017876 1_555
H2 O9 1.675237 1_444
O0 P3 1.529070 1_455
O0 Sn1 2.465073 1_555
O1 P0 1.550739 1_655
O1 Sn0 2.305143 1_555
O2 P1 1.560887 1_555
O2 Sn0 2.304268 1_454
O3 P0 1.651882 1_555
O4 P2 1.573089 1_555
O4 Sn0 2.249134 1_455
O5 P2 1.544345 1_555
O5 Sn1 2.413314 1_555
O6 P1 1.614048 1_555
O7 P0 1.526101 1_555
O7 Sn1 2.494406 1_545
O8 P3 1.524720 1_555
O8 Sn1 2.528684 1_555
O9 P2 1.540924 1_555
O10 P1 1.524384 1_555
O10 Sn1 2.530513 1_545
O11 P1 1.542933 1_555
O11 Sn0 2.437782 1_554
O12 P3 1.648775 1_555
O13 P2 1.584443 1_555
O13 Sn0 2.242192 1_555
O14 P3 1.546339 1_455
O14 Sn0 2.291783 1_454
O15 P0 1.525613 1_655
O15 Sn1 2.510499 1_545
