# generated using pymatgen
data_Li4V3Fe3(SnO8)2
_symmetry_space_group_name_H-M   'P 1'
_cell_length_a   5.95975321
_cell_length_b   5.90214271
_cell_length_c   9.86308266
_cell_angle_alpha   89.82987180
_cell_angle_beta   89.57144332
_cell_angle_gamma   119.85874654
_symmetry_Int_Tables_number   1
_chemical_formula_structural   Li4V3Fe3(SnO8)2
_chemical_formula_sum   'Li4 V3 Fe3 Sn2 O16'
_cell_volume   300.86564859
_cell_formula_units_Z   1
loop_
 _symmetry_equiv_pos_site_id
 _symmetry_equiv_pos_as_xyz
  1  'x, y, z'
loop_
 _atom_site_type_symbol
 _atom_site_label
 _atom_site_symmetry_multiplicity
 _atom_site_fract_x
 _atom_site_fract_y
 _atom_site_fract_z
 _atom_site_occupancy
  Li  Li0  1  0.34122700  0.67081200  0.89485100  1
  Li  Li1  1  0.99628000  0.99788600  0.99325400  1
  Li  Li2  1  0.99643100  0.99768300  0.49329000  1
  Li  Li3  1  0.67564600  0.33773500  0.39096600  1
  V  V0  1  0.82542300  0.64748600  0.71460700  1
  V  V1  1  0.65323500  0.82654600  0.21931100  1
  V  V2  1  0.82511100  0.17813700  0.71474100  1
  Fe  Fe0  1  0.16772300  0.82668200  0.21273500  1
  Fe  Fe1  1  0.16728000  0.34056100  0.21264600  1
  Fe  Fe2  1  0.33156400  0.16574400  0.71494200  1
  Sn  Sn0  1  0.33272000  0.66644600  0.49063300  1
  Sn  Sn1  1  0.66231300  0.33143400  0.99508400  1
  O  O0  1  0.15196600  0.82991100  0.60358000  1
  O  O1  1  0.04097500  0.52033500  0.34299100  1
  O  O2  1  0.36654000  0.68303600  0.10390200  1
  O  O3  1  0.97618400  0.98843900  0.30591000  1
  O  O4  1  0.97359700  0.98632000  0.80437700  1
  O  O5  1  0.15114200  0.32171300  0.60365300  1
  O  O6  1  0.49685400  0.96833300  0.34090000  1
  O  O7  1  0.49694000  0.52865000  0.34049600  1
  O  O8  1  0.31663400  0.15841900  0.09584300  1
  O  O9  1  0.67567000  0.83840300  0.60680200  1
  O  O10  1  0.53241400  0.49079300  0.83442900  1
  O  O11  1  0.53290300  0.04194900  0.83476100  1
  O  O12  1  0.68429700  0.34267100  0.60096000  1
  O  O13  1  0.82987400  0.67499800  0.10136900  1
  O  O14  1  0.96939700  0.48438200  0.83947100  1
  O  O15  1  0.82966000  0.15479700  0.10133400  1
loop_
_geom_bond_atom_site_label_1
_geom_bond_atom_site_label_2
_geom_bond_distance
_geom_bond_site_symmetry_2
Li0 O11 1.986218 1_565
Li0 O10 1.995349 1_555
Li0 O14 2.003385 1_455
Li0 O2 2.067376 1_556
Li1 O4 1.867806 1_555
Li1 O8 1.949378 1_666
Li1 O13 1.960269 1_556
Li1 O15 1.971258 1_566
Li2 O3 1.852176 1_555
Li2 O0 1.986382 1_655
Li2 O9 1.990964 1_555
Li2 O5 1.991009 1_665
Li3 O1 1.941903 1_655
Li3 O6 1.958009 1_545
Li3 O7 1.962493 1_555
Li3 O12 2.072146 1_555
Fe0 O1 2.025358 1_555
Fe0 O3 2.033173 1_455
Fe0 O8 2.047316 1_565
Fe0 O2 2.064389 1_555
Fe0 O13 2.075137 1_455
Fe0 O6 2.134246 1_555
Fe1 O3 2.019559 1_445
Fe1 O1 2.033261 1_555
Fe1 O8 2.054264 1_555
Fe1 O2 2.055317 1_555
Fe1 O15 2.073555 1_455
Fe1 O7 2.134512 1_555
Fe2 O4 2.041483 1_445
Fe2 O0 2.049130 1_545
Fe2 O5 2.050788 1_555
Fe2 O10 2.061603 1_555
Fe2 O11 2.063827 1_555
Fe2 O12 2.131994 1_555
O0 V0 2.005122 1_455
O0 Sn0 2.087011 1_555
O1 Sn0 2.107061 1_555
O2 V1 1.877851 1_555
O3 V1 1.882878 1_555
O4 V0 1.956246 1_555
O4 V2 1.962090 1_565
O5 V2 2.004295 1_455
O5 Sn0 2.080769 1_555
O6 V1 1.942408 1_555
O6 Sn0 2.130707 1_555
O7 V1 1.930741 1_555
O7 Sn0 2.142469 1_555
O8 Sn1 2.035495 1_554
O9 V2 2.048394 1_565
O9 V0 2.050684 1_555
O9 Sn0 2.120569 1_555
O10 V0 1.912058 1_555
O10 Sn1 2.174703 1_555
O11 V2 1.910461 1_555
O11 Sn1 2.176395 1_555
O12 V0 1.928696 1_555
O12 V2 1.930241 1_555
O13 V1 2.046201 1_555
O13 Sn1 2.054256 1_554
O14 V2 2.000334 1_555
O14 V0 2.002728 1_555
O14 Sn1 2.196525 1_555
O15 V1 2.037881 1_545
O15 Sn1 2.055301 1_554
