# generated using pymatgen
data_Al2CrO5
_symmetry_space_group_name_H-M   'P 1'
_cell_length_a   5.05828776
_cell_length_b   7.18547697
_cell_length_c   10.24938235
_cell_angle_alpha   74.62419369
_cell_angle_beta   82.79878355
_cell_angle_gamma   110.24802654
_symmetry_Int_Tables_number   1
_chemical_formula_structural   Al2CrO5
_chemical_formula_sum   'Al8 Cr4 O20'
_cell_volume   327.14538580
_cell_formula_units_Z   4
loop_
 _symmetry_equiv_pos_site_id
 _symmetry_equiv_pos_as_xyz
  1  'x, y, z'
loop_
 _atom_site_type_symbol
 _atom_site_label
 _atom_site_symmetry_multiplicity
 _atom_site_fract_x
 _atom_site_fract_y
 _atom_site_fract_z
 _atom_site_occupancy
  Al  Al0  1  0.43011600  0.15041400  0.55933800  1
  Al  Al1  1  0.92995800  0.65035500  0.55943800  1
  Al  Al2  1  0.23945900  0.95984000  0.94058000  1
  Al  Al3  1  0.73947700  0.45985500  0.94045900  1
  Al  Al4  1  0.76060000  0.04020400  0.05941900  1
  Al  Al5  1  0.26047100  0.54033300  0.05938700  1
  Al  Al6  1  0.57007300  0.84972300  0.44059600  1
  Al  Al7  1  0.07006100  0.34962500  0.44054200  1
  Cr  Cr0  1  0.65163100  0.28277300  0.24976700  1
  Cr  Cr1  1  0.34805700  0.71716900  0.75003600  1
  Cr  Cr2  1  0.15179300  0.78261200  0.25006200  1
  Cr  Cr3  1  0.84833700  0.21721500  0.75002300  1
  O  O0  1  0.48061000  0.00651900  0.75001700  1
  O  O1  1  0.98052200  0.50646100  0.75001000  1
  O  O2  1  0.51932900  0.99350800  0.24999400  1
  O  O3  1  0.01934600  0.49339900  0.24998900  1
  O  O4  1  0.51313400  0.41877000  0.11521000  1
  O  O5  1  0.01324100  0.91862100  0.11538300  1
  O  O6  1  0.37856700  0.28401000  0.38465500  1
  O  O7  1  0.87856600  0.78393400  0.38472100  1
  O  O8  1  0.62139900  0.71600400  0.61538200  1
  O  O9  1  0.12156800  0.21606800  0.61527300  1
  O  O10  1  0.48675900  0.58135700  0.88470300  1
  O  O11  1  0.98687200  0.08131500  0.88472300  1
  O  O12  1  0.75334100  0.13007800  0.42822800  1
  O  O13  1  0.25338700  0.63004200  0.42829100  1
  O  O14  1  0.93161300  0.30830100  0.07178100  1
  O  O15  1  0.43161600  0.80825800  0.07183800  1
  O  O16  1  0.06838800  0.69169400  0.92825100  1
  O  O17  1  0.56841600  0.19171600  0.92825700  1
  O  O18  1  0.24660000  0.86992700  0.57180900  1
  O  O19  1  0.74669400  0.36990000  0.57183700  1
loop_
_geom_bond_atom_site_label_1
_geom_bond_atom_site_label_2
_geom_bond_distance
_geom_bond_site_symmetry_2
Al0 O9 1.848192 1_555
Al0 O19 1.865071 1_555
Al0 O18 1.865122 1_545
Al0 O6 1.890471 1_555
Al0 O0 2.046977 1_555
Al0 O12 2.054002 1_555
Al1 O8 1.848245 1_555
Al1 O19 1.864978 1_555
Al1 O18 1.865083 1_655
Al1 O7 1.890380 1_555
Al1 O1 2.046206 1_555
Al1 O13 2.054896 1_655
Al2 O11 1.847253 1_465
Al2 O17 1.864802 1_565
Al2 O16 1.865380 1_555
Al2 O5 1.891307 1_556
Al2 O0 2.046300 1_565
Al2 O15 2.055365 1_556
Al3 O10 1.847688 1_555
Al3 O17 1.864809 1_555
Al3 O16 1.864849 1_655
Al3 O4 1.891431 1_556
Al3 O1 2.045253 1_555
Al3 O14 2.055558 1_556
Al4 O5 1.848284 1_645
Al4 O15 1.864889 1_545
Al4 O14 1.865168 1_555
Al4 O11 1.890751 1_554
Al4 O2 2.046621 1_545
Al4 O17 2.054641 1_554
Al5 O4 1.847901 1_555
Al5 O15 1.864510 1_555
Al5 O14 1.864946 1_455
Al5 O10 1.890874 1_554
Al5 O3 2.046038 1_555
Al5 O16 2.053546 1_554
Al6 O7 1.848388 1_555
Al6 O12 1.864430 1_565
Al6 O13 1.865384 1_555
Al6 O8 1.891129 1_555
Al6 O2 2.046614 1_555
Al6 O18 2.055041 1_555
Al7 O6 1.847692 1_555
Al7 O12 1.864974 1_455
Al7 O13 1.865197 1_555
Al7 O9 1.890703 1_555
Al7 O3 2.046109 1_555
Al7 O19 2.055392 1_455
Cr0 O4 1.830053 1_555
Cr0 O6 1.831807 1_555
Cr0 O2 1.949950 1_545
Cr0 O3 1.950532 1_655
Cr0 O14 2.088600 1_555
Cr0 O12 2.092024 1_555
Cr1 O10 1.830865 1_555
Cr1 O8 1.830911 1_555
Cr1 O1 1.949516 1_455
Cr1 O0 1.951189 1_565
Cr1 O18 2.089671 1_555
Cr1 O16 2.089689 1_555
Cr2 O7 1.831085 1_455
Cr2 O5 1.831103 1_555
Cr2 O2 1.949810 1_555
Cr2 O3 1.950577 1_555
Cr2 O13 2.089548 1_555
Cr2 O15 2.089714 1_555
Cr3 O11 1.830823 1_555
Cr3 O9 1.831129 1_655
Cr3 O0 1.950076 1_555
Cr3 O1 1.950549 1_555
Cr3 O19 2.089656 1_555
Cr3 O17 2.090458 1_555
