# generated using pymatgen
data_Li4TiNi3Sn2(PO4)6
_symmetry_space_group_name_H-M   'P 1'
_cell_length_a   9.21931285
_cell_length_b   9.14065803
_cell_length_c   9.27269737
_cell_angle_alpha   55.11045982
_cell_angle_beta   54.31982973
_cell_angle_gamma   55.24224476
_symmetry_Int_Tables_number   1
_chemical_formula_structural   Li4TiNi3Sn2(PO4)6
_chemical_formula_sum   'Li4 Ti1 Ni3 Sn2 P6 O24'
_cell_volume   486.74523135
_cell_formula_units_Z   1
loop_
 _symmetry_equiv_pos_site_id
 _symmetry_equiv_pos_as_xyz
  1  'x, y, z'
loop_
 _atom_site_type_symbol
 _atom_site_label
 _atom_site_symmetry_multiplicity
 _atom_site_fract_x
 _atom_site_fract_y
 _atom_site_fract_z
 _atom_site_occupancy
  Li  Li0  1  0.79007400  0.13630200  0.39585600  1
  Li  Li1  1  0.28935700  0.90959400  0.63429600  1
  Li  Li2  1  0.64738600  0.28851200  0.90412000  1
  Li  Li3  1  0.89458200  0.65013400  0.29729200  1
  Ti  Ti0  1  0.85451100  0.84035200  0.85620900  1
  Ni  Ni0  1  0.15925700  0.15038900  0.15500600  1
  Ni  Ni1  1  0.33154200  0.34780000  0.32250000  1
  Ni  Ni2  1  0.64499400  0.65226400  0.65695800  1
  Sn  Sn0  1  0.04618200  0.01482000  0.00840300  1
  Sn  Sn1  1  0.44589800  0.50187800  0.47535900  1
  P  P0  1  0.03273700  0.74752200  0.45683400  1
  P  P1  1  0.46338000  0.03338500  0.75007200  1
  P  P2  1  0.24002900  0.54232100  0.95904000  1
  P  P3  1  0.53936500  0.95784900  0.24259500  1
  P  P4  1  0.95115300  0.24123700  0.53901500  1
  P  P5  1  0.74905800  0.45365500  0.03717200  1
  O  O0  1  0.15528200  0.18841500  0.51502100  1
  O  O1  1  0.18131400  0.54942500  0.15143000  1
  O  O2  1  0.10435900  0.90093100  0.26077400  1
  O  O3  1  0.53538300  0.15663100  0.18642800  1
  O  O4  1  0.99708400  0.79666700  0.61106100  1
  O  O5  1  0.19190200  0.54492900  0.46666100  1
  O  O6  1  0.26680700  0.12125200  0.89078300  1
  O  O7  1  0.50495100  0.19253100  0.54611800  1
  O  O8  1  0.20230400  0.38768700  0.98409600  1
  O  O9  1  0.54729800  0.47532800  0.20277400  1
  O  O10  1  0.11166600  0.74345900  0.85390300  1
  O  O11  1  0.38384600  0.96870000  0.21903600  1
  O  O12  1  0.62291300  0.96349300  0.81077100  1
  O  O13  1  0.88857200  0.25091900  0.11735400  1
  O  O14  1  0.44905800  0.52311300  0.82817400  1
  O  O15  1  0.81627500  0.60226500  0.99002500  1
  O  O16  1  0.53263500  0.82320400  0.44510300  1
  O  O17  1  0.74269300  0.86014500  0.10454500  1
  O  O18  1  0.82302800  0.44720000  0.52856000  1
  O  O19  1  0.95356000  0.20779500  0.39267700  1
  O  O20  1  0.44651000  0.87647800  0.74987200  1
  O  O21  1  0.85684600  0.10566900  0.74360700  1
  O  O22  1  0.75087000  0.46088800  0.86856100  1
  O  O23  1  0.85533700  0.76186100  0.46494000  1
loop_
_geom_bond_atom_site_label_1
_geom_bond_atom_site_label_2
_geom_bond_distance
_geom_bond_site_symmetry_2
Li0 O19 1.936199 1_555
Li0 O13 1.960962 1_555
Li0 O7 2.030170 1_555
Li0 O2 2.516833 1_645
Li1 O16 1.925381 1_555
Li1 O0 2.006151 1_565
Li1 O20 2.068677 1_555
Li1 O10 2.131655 1_555
Li2 O14 1.934266 1_555
Li2 O3 2.007025 1_556
Li2 O22 2.062585 1_555
Li2 O21 2.133214 1_555
Li3 O18 1.915497 1_555
Li3 O1 2.035594 1_655
Li3 O23 2.080690 1_555
Li3 O17 2.183990 1_555
Ni0 O8 1.920742 1_554
Ni0 O11 1.945000 1_545
Ni0 O19 2.010374 1_455
Ni0 O2 2.143805 1_545
Ni0 O6 2.160647 1_554
Ni0 O13 2.286613 1_455
Ni1 O1 2.034466 1_555
Ni1 O3 2.046722 1_555
Ni1 O0 2.071257 1_555
Ni1 O5 2.189553 1_555
Ni1 O9 2.266115 1_555
Ni2 O23 2.020187 1_555
Ni2 O14 2.029585 1_555
Ni2 O20 2.048376 1_555
Ni2 O22 2.055104 1_555
Ni2 O16 2.095330 1_555
Ni2 O18 2.095342 1_555
O0 P4 1.556498 1_455
O1 P2 1.563890 1_554
O2 P0 1.564127 1_555
O2 Sn0 2.210954 1_565
O3 P3 1.561326 1_545
O4 P0 1.540536 1_655
O4 Ti0 2.002247 1_555
O5 P0 1.566966 1_555
O5 Sn1 2.185884 1_555
O6 P1 1.553276 1_555
O6 Sn0 2.174350 1_556
O7 P1 1.575626 1_555
O7 Sn1 2.293772 1_555
O8 P2 1.504455 1_555
O9 P5 1.566230 1_555
O9 Sn1 2.237914 1_555
O10 P2 1.595508 1_555
O10 Ti0 1.993465 1_455
O11 P3 1.513842 1_555
O12 P1 1.539832 1_565
O12 Ti0 1.941653 1_555
O13 P5 1.569356 1_555
O13 Sn0 2.235096 1_655
O14 P2 1.532032 1_555
O15 P5 1.544278 1_556
O15 Ti0 1.917119 1_555
O16 P3 1.533620 1_555
O17 P3 1.596860 1_555
O17 Ti0 1.973036 1_554
O18 P4 1.529108 1_555
O19 P4 1.538474 1_555
O20 P1 1.529360 1_565
O21 P4 1.582892 1_555
O21 Ti0 2.026976 1_545
O22 P5 1.517121 1_556
O23 P0 1.523534 1_655
