# generated using pymatgen
data_Li4V3OF11
_symmetry_space_group_name_H-M   'P 1'
_cell_length_a   5.28245400
_cell_length_b   5.51333570
_cell_length_c   16.01823178
_cell_angle_alpha   80.94387070
_cell_angle_beta   89.68411429
_cell_angle_gamma   88.51019100
_symmetry_Int_Tables_number   1
_chemical_formula_structural   Li4V3OF11
_chemical_formula_sum   'Li8 V6 O2 F22'
_cell_volume   460.54257113
_cell_formula_units_Z   2
loop_
 _symmetry_equiv_pos_site_id
 _symmetry_equiv_pos_as_xyz
  1  'x, y, z'
loop_
 _atom_site_type_symbol
 _atom_site_label
 _atom_site_symmetry_multiplicity
 _atom_site_fract_x
 _atom_site_fract_y
 _atom_site_fract_z
 _atom_site_occupancy
  Li  Li0  1  0.18324400  0.81400000  0.84190900  1
  Li  Li1  1  0.48907500  0.73688400  0.43436100  1
  Li  Li2  1  0.98235900  0.77271600  0.56379800  1
  Li  Li3  1  0.70222200  0.35636200  0.82108600  1
  Li  Li4  1  0.81675600  0.18600000  0.15809100  1
  Li  Li5  1  0.01764100  0.22728400  0.43620200  1
  Li  Li6  1  0.51092500  0.26311600  0.56563900  1
  Li  Li7  1  0.29777800  0.64363800  0.17891400  1
  V  V0  1  0.98118300  0.84074300  0.33476800  1
  V  V1  1  0.50000000  0.00000000  0.00000000  1
  V  V2  1  0.01881700  0.15925700  0.66523200  1
  V  V3  1  0.48810400  0.69266000  0.66339300  1
  V  V4  1  0.51189600  0.30734000  0.33660700  1
  V  V5  1  0.00000000  0.50000000  0.00000000  1
  O  O0  1  0.68868700  0.00766800  0.36834100  1
  O  O1  1  0.31131300  0.99233200  0.63165900  1
  F  F0  1  0.69588500  0.68847200  0.02007600  1
  F  F1  1  0.82764600  0.84002900  0.68435700  1
  F  F2  1  0.20196200  0.80946600  0.96538200  1
  F  F3  1  0.62760600  0.67079900  0.54839200  1
  F  F4  1  0.58729900  0.06183500  0.88345300  1
  F  F5  1  0.92512800  0.86923100  0.21533700  1
  F  F6  1  0.13140300  0.81974600  0.45198900  1
  F  F7  1  0.07487200  0.13076900  0.78466300  1
  F  F8  1  0.41270100  0.93816500  0.11654700  1
  F  F9  1  0.79803800  0.19053400  0.03461800  1
  F  F10  1  0.69197200  0.35471800  0.68892700  1
  F  F11  1  0.17235400  0.15997100  0.31564300  1
  F  F12  1  0.30411500  0.31152800  0.97992400  1
  F  F13  1  0.86859700  0.18025400  0.54801100  1
  F  F14  1  0.92364600  0.54471400  0.88080600  1
  F  F15  1  0.57993300  0.37933500  0.21694100  1
  F  F16  1  0.42006700  0.62066500  0.78305900  1
  F  F17  1  0.07635400  0.45528600  0.11919400  1
  F  F18  1  0.37239400  0.32920100  0.45160800  1
  F  F19  1  0.80761900  0.50731200  0.37435500  1
  F  F20  1  0.19238100  0.49268800  0.62564500  1
  F  F21  1  0.30802800  0.64528200  0.31107300  1
loop_
_geom_bond_atom_site_label_1
_geom_bond_atom_site_label_2
_geom_bond_distance
_geom_bond_site_symmetry_2
Li1 O0 2.007877 1_565
Li2 O1 2.492347 1_655
Li5 O0 2.492347 1_455
Li6 O1 2.007877 1_545
O0 V4 1.876406 1_555
O0 V0 1.896368 1_545
O1 V3 1.876406 1_555
O1 V2 1.896368 1_565
F0 V5 1.943352 1_655
F0 V1 1.965074 1_565
F1 V2 2.032379 1_665
F1 V3 2.039186 1_555
F1 Li2 2.174259 1_555
F2 Li0 1.977027 1_555
F2 V5 2.036429 1_556
F2 V1 2.041725 1_566
F3 Li1 1.948333 1_555
F3 Li2 1.997971 1_555
F3 V3 2.000314 1_555
F3 Li6 2.320136 1_555
F4 Li3 1.880761 1_555
F4 V1 1.900642 1_556
F5 Li4 1.915288 1_565
F5 V0 1.918707 1_555
F5 Li7 2.418851 1_655
F6 Li2 1.934838 1_455
F6 Li1 1.961648 1_555
F6 V0 2.027800 1_455
F6 Li5 2.286090 1_565
F7 Li0 1.915288 1_545
F7 V2 1.918707 1_555
F7 Li3 2.418851 1_455
F8 Li7 1.880761 1_555
F8 V1 1.900642 1_565
F9 Li4 1.977027 1_555
F9 V5 2.036429 1_655
F9 V1 2.041725 1_555
F10 V2 2.076322 1_655
F10 V3 2.111668 1_555
F10 Li3 2.119395 1_555
F10 Li6 2.330167 1_555
F11 V0 2.032379 1_445
F11 V4 2.039186 1_555
F11 Li5 2.174259 1_555
F12 V5 1.943352 1_556
F12 V1 1.965074 1_556
F13 Li5 1.934838 1_655
F13 Li6 1.961648 1_555
F13 V2 2.027800 1_655
F13 Li2 2.286090 1_545
F14 V5 1.929752 1_656
F14 Li3 1.936441 1_555
F14 Li0 2.068375 1_655
F15 V4 1.929066 1_555
F15 Li4 1.955458 1_555
F15 Li7 2.081729 1_555
F16 V3 1.929066 1_555
F16 Li0 1.955458 1_555
F16 Li3 2.081729 1_555
F17 V5 1.929752 1_555
F17 Li7 1.936441 1_555
F17 Li4 2.068375 1_455
F18 Li6 1.948333 1_555
F18 Li5 1.997971 1_555
F18 V4 2.000314 1_555
F18 Li1 2.320136 1_555
F19 Li5 2.009338 1_655
F19 V4 2.081170 1_555
F19 V0 2.082396 1_555
F19 Li1 2.368917 1_555
F20 Li2 2.009338 1_455
F20 V3 2.081170 1_555
F20 V2 2.082396 1_555
F20 Li6 2.368917 1_555
F21 V0 2.076322 1_455
F21 V4 2.111668 1_555
F21 Li7 2.119395 1_555
F21 Li1 2.330167 1_555
