# generated using pymatgen
data_Li4Ti4MnCr4O18
_symmetry_space_group_name_H-M   'P 1'
_cell_length_a   2.94891300
_cell_length_b   9.18216400
_cell_length_c   24.78126100
_cell_angle_alpha   90.00000000
_cell_angle_beta   90.00000000
_cell_angle_gamma   90.00000000
_symmetry_Int_Tables_number   1
_chemical_formula_structural   Li4Ti4MnCr4O18
_chemical_formula_sum   'Li8 Ti8 Mn2 Cr8 O36'
_cell_volume   671.01218568
_cell_formula_units_Z   2
loop_
 _symmetry_equiv_pos_site_id
 _symmetry_equiv_pos_as_xyz
  1  'x, y, z'
loop_
 _atom_site_type_symbol
 _atom_site_label
 _atom_site_symmetry_multiplicity
 _atom_site_fract_x
 _atom_site_fract_y
 _atom_site_fract_z
 _atom_site_occupancy
  Li  Li0  1  0.00000000  0.69393000  0.48833100  1
  Li  Li1  1  0.00000000  0.70111000  0.69046100  1
  Li  Li2  1  0.00000000  0.79889000  0.19046100  1
  Li  Li3  1  0.00000000  0.80607000  0.98833100  1
  Li  Li4  1  0.00000000  0.19393000  0.01166900  1
  Li  Li5  1  0.00000000  0.20111000  0.80953900  1
  Li  Li6  1  0.00000000  0.29889000  0.30953900  1
  Li  Li7  1  0.00000000  0.30607000  0.51166900  1
  Ti  Ti0  1  0.00000000  0.49942400  0.60079600  1
  Ti  Ti1  1  0.50000000  0.65980300  0.30616000  1
  Ti  Ti2  1  0.50000000  0.84019700  0.80616000  1
  Ti  Ti3  1  0.00000000  0.00057600  0.10079600  1
  Ti  Ti4  1  0.00000000  0.99942400  0.89920400  1
  Ti  Ti5  1  0.50000000  0.15980300  0.19384000  1
  Ti  Ti6  1  0.50000000  0.34019700  0.69384000  1
  Ti  Ti7  1  0.00000000  0.50057600  0.39920400  1
  Mn  Mn0  1  0.00000000  0.50000000  0.00000000  1
  Mn  Mn1  1  0.00000000  0.00000000  0.50000000  1
  Cr  Cr0  1  0.00000000  0.50124100  0.81200100  1
  Cr  Cr1  1  0.50000000  0.65350600  0.08516500  1
  Cr  Cr2  1  0.50000000  0.84649400  0.58516500  1
  Cr  Cr3  1  0.00000000  0.99875900  0.31200100  1
  Cr  Cr4  1  0.00000000  0.00124100  0.68799900  1
  Cr  Cr5  1  0.50000000  0.15350600  0.41483500  1
  Cr  Cr6  1  0.50000000  0.34649400  0.91483500  1
  Cr  Cr7  1  0.00000000  0.49875900  0.18799900  1
  O  O0  1  0.00000000  0.49017300  0.92178800  1
  O  O1  1  0.00000000  0.50982700  0.07821200  1
  O  O2  1  0.50000000  0.56529000  0.44337200  1
  O  O3  1  0.50000000  0.54307600  0.65736300  1
  O  O4  1  0.50000000  0.63163000  0.16412500  1
  O  O5  1  0.00000000  0.60799500  0.25581800  1
  O  O6  1  0.50000000  0.64223100  0.00282400  1
  O  O7  1  0.50000000  0.63587800  0.79028600  1
  O  O8  1  0.00000000  0.68858000  0.35593000  1
  O  O9  1  0.00000000  0.69823100  0.58045100  1
  O  O10  1  0.00000000  0.80176900  0.08045100  1
  O  O11  1  0.00000000  0.81142000  0.85593000  1
  O  O12  1  0.50000000  0.86412200  0.29028600  1
  O  O13  1  0.50000000  0.85776900  0.50282400  1
  O  O14  1  0.00000000  0.89200500  0.75581800  1
  O  O15  1  0.50000000  0.86837000  0.66412500  1
  O  O16  1  0.50000000  0.95692400  0.15736300  1
  O  O17  1  0.50000000  0.93471000  0.94337200  1
  O  O18  1  0.00000000  0.99017300  0.57821200  1
  O  O19  1  0.00000000  0.00982700  0.42178800  1
  O  O20  1  0.50000000  0.06529000  0.05662800  1
  O  O21  1  0.50000000  0.04307600  0.84263700  1
  O  O22  1  0.50000000  0.13163000  0.33587500  1
  O  O23  1  0.00000000  0.10799500  0.24418200  1
  O  O24  1  0.50000000  0.14223100  0.49717600  1
  O  O25  1  0.50000000  0.13587800  0.70971400  1
  O  O26  1  0.00000000  0.18858000  0.14407000  1
  O  O27  1  0.00000000  0.19823100  0.91954900  1
  O  O28  1  0.00000000  0.30176900  0.41954900  1
  O  O29  1  0.00000000  0.31142000  0.64407000  1
  O  O30  1  0.50000000  0.36412200  0.20971400  1
  O  O31  1  0.50000000  0.35776900  0.99717600  1
  O  O32  1  0.00000000  0.39200500  0.74418200  1
  O  O33  1  0.50000000  0.36837000  0.83587500  1
  O  O34  1  0.50000000  0.45692400  0.34263700  1
  O  O35  1  0.50000000  0.43471000  0.55662800  1
loop_
_geom_bond_atom_site_label_1
_geom_bond_atom_site_label_2
_geom_bond_distance
_geom_bond_site_symmetry_2
Li0 O13 2.136872 1_455
Li0 O13 2.136872 1_555
Li0 O2 2.193297 1_555
Li0 O2 2.193297 1_455
Li0 O9 2.283191 1_555
Li1 O3 2.225408 1_555
Li1 O3 2.225408 1_455
Li1 O15 2.226807 1_555
Li1 O15 2.226807 1_455
Li1 O14 2.386547 1_555
Li2 O16 2.225408 1_455
Li2 O16 2.225408 1_555
Li2 O4 2.226807 1_455
Li2 O4 2.226807 1_555
Li2 O5 2.386547 1_555
Li3 O6 2.136872 1_456
Li3 O6 2.136872 1_556
Li3 O17 2.193297 1_555
Li3 O17 2.193297 1_455
Li3 O10 2.283191 1_556
Li4 O31 2.136872 1_454
Li4 O31 2.136872 1_554
Li4 O20 2.193297 1_555
Li4 O20 2.193297 1_455
Li4 O27 2.283191 1_554
Li5 O21 2.225408 1_455
Li5 O21 2.225408 1_555
Li5 O33 2.226807 1_555
Li5 O33 2.226807 1_455
Li5 O32 2.386547 1_555
Li6 O34 2.225408 1_455
Li6 O34 2.225408 1_555
Li6 O22 2.226807 1_455
Li6 O22 2.226807 1_555
Li6 O23 2.386547 1_555
Li7 O24 2.136872 1_455
Li7 O24 2.136872 1_555
Li7 O35 2.193297 1_555
Li7 O35 2.193297 1_455
Li7 O28 2.283191 1_555
Mn0 O1 1.940291 1_555
Mn0 O0 1.940291 1_554
Mn0 O6 1.970920 1_555
Mn0 O6 1.970920 1_455
Mn0 O31 1.970920 1_454
Mn0 O31 1.970920 1_554
Mn1 O18 1.940291 1_545
Mn1 O19 1.940291 1_555
Mn1 O13 1.970920 1_445
Mn1 O13 1.970920 1_545
Mn1 O24 1.970920 1_555
Mn1 O24 1.970920 1_455
Cr0 O32 1.957194 1_555
Cr0 O7 1.997983 1_455
Cr0 O7 1.997983 1_555
Cr0 O33 2.003135 1_455
Cr0 O33 2.003135 1_555
Cr1 O4 1.967012 1_555
Cr1 O1 1.986006 1_555
Cr1 O1 1.986006 1_655
Cr1 O10 2.010227 1_655
Cr1 O10 2.010227 1_555
Cr1 O6 2.043138 1_555
Cr2 O15 1.967012 1_555
Cr2 O18 1.986006 1_655
Cr2 O18 1.986006 1_555
Cr2 O9 2.010227 1_555
Cr2 O9 2.010227 1_655
Cr2 O13 2.043138 1_555
Cr3 O23 1.957194 1_565
Cr3 O12 1.997983 1_455
Cr3 O12 1.997983 1_555
Cr3 O22 2.003135 1_565
Cr3 O22 2.003135 1_465
Cr4 O14 1.957194 1_545
Cr4 O25 1.997983 1_455
Cr4 O25 1.997983 1_555
Cr4 O15 2.003135 1_445
Cr4 O15 2.003135 1_545
Cr5 O22 1.967012 1_555
Cr5 O19 1.986006 1_555
Cr5 O19 1.986006 1_655
Cr5 O28 2.010227 1_555
Cr5 O28 2.010227 1_655
Cr5 O24 2.043138 1_555
Cr6 O33 1.967012 1_555
Cr6 O0 1.986006 1_555
Cr6 O0 1.986006 1_655
Cr6 O27 2.010227 1_655
Cr6 O27 2.010227 1_555
Cr6 O31 2.043138 1_555
Cr7 O5 1.957194 1_555
Cr7 O30 1.997983 1_455
Cr7 O30 1.997983 1_555
Cr7 O4 2.003135 1_555
Cr7 O4 2.003135 1_455
O2 Ti7 1.930059 1_555
O2 Ti7 1.930059 1_655
O3 Ti6 2.070603 1_555
O3 Ti0 2.073578 1_555
O3 Ti0 2.073578 1_655
O5 Ti1 1.989139 1_455
O5 Ti1 1.989139 1_555
O7 Ti2 1.916889 1_555
O8 Ti1 1.940368 1_455
O8 Ti1 1.940368 1_555
O8 Ti7 2.032256 1_555
O9 Ti0 1.893823 1_555
O10 Ti3 1.893823 1_565
O11 Ti2 1.940368 1_455
O11 Ti2 1.940368 1_555
O11 Ti4 2.032256 1_555
O12 Ti1 1.916889 1_555
O14 Ti2 1.989139 1_555
O14 Ti2 1.989139 1_455
O16 Ti5 2.070603 1_565
O16 Ti3 2.073578 1_665
O16 Ti3 2.073578 1_565
O17 Ti4 1.930059 1_655
O17 Ti4 1.930059 1_555
O20 Ti3 1.930059 1_655
O20 Ti3 1.930059 1_555
O21 Ti2 2.070603 1_545
O21 Ti4 2.073578 1_545
O21 Ti4 2.073578 1_645
O23 Ti5 1.989139 1_455
O23 Ti5 1.989139 1_555
O25 Ti6 1.916889 1_555
O26 Ti5 1.940368 1_455
O26 Ti5 1.940368 1_555
O26 Ti3 2.032256 1_555
O27 Ti4 1.893823 1_545
O28 Ti7 1.893823 1_555
O29 Ti6 1.940368 1_555
O29 Ti6 1.940368 1_455
O29 Ti0 2.032256 1_555
O30 Ti5 1.916889 1_555
O32 Ti6 1.989139 1_555
O32 Ti6 1.989139 1_455
O34 Ti1 2.070603 1_555
O34 Ti7 2.073578 1_555
O34 Ti7 2.073578 1_655
O35 Ti0 1.930059 1_555
O35 Ti0 1.930059 1_655
