# generated using pymatgen
data_Li4Ti2Fe3Cu3O16
_symmetry_space_group_name_H-M   'P 1'
_cell_length_a   5.91861440
_cell_length_b   5.93202314
_cell_length_c   9.56284144
_cell_angle_alpha   90.00644075
_cell_angle_beta   89.54121014
_cell_angle_gamma   120.01127749
_symmetry_Int_Tables_number   1
_chemical_formula_structural   Li4Ti2Fe3Cu3O16
_chemical_formula_sum   'Li4 Ti2 Fe3 Cu3 O16'
_cell_volume   290.71858320
_cell_formula_units_Z   1
loop_
 _symmetry_equiv_pos_site_id
 _symmetry_equiv_pos_as_xyz
  1  'x, y, z'
loop_
 _atom_site_type_symbol
 _atom_site_label
 _atom_site_symmetry_multiplicity
 _atom_site_fract_x
 _atom_site_fract_y
 _atom_site_fract_z
 _atom_site_occupancy
  Li  Li0  1  0.32636900  0.66291800  0.89764300  1
  Li  Li1  1  0.00066700  0.00003400  0.99583600  1
  Li  Li2  1  0.00766200  0.00410200  0.49107000  1
  Li  Li3  1  0.66665300  0.33348000  0.39524300  1
  Ti  Ti0  1  0.34088600  0.67047500  0.49783400  1
  Ti  Ti1  1  0.67414300  0.33698100  0.99607400  1
  Fe  Fe0  1  0.65935500  0.82966800  0.21668400  1
  Fe  Fe1  1  0.83102200  0.65944700  0.71637100  1
  Fe  Fe2  1  0.83106900  0.17166900  0.71633800  1
  Cu  Cu0  1  0.17585200  0.83316900  0.21438200  1
  Cu  Cu1  1  0.17574300  0.34266200  0.21453100  1
  Cu  Cu2  1  0.34066100  0.17031400  0.71278200  1
  O  O0  1  0.16239500  0.82909500  0.59209800  1
  O  O1  1  0.04557400  0.52260800  0.34238700  1
  O  O2  1  0.32389100  0.66193200  0.11005200  1
  O  O3  1  0.01265800  0.00635600  0.30092700  1
  O  O4  1  0.01529000  0.00746300  0.80511100  1
  O  O5  1  0.16255400  0.33368400  0.59218500  1
  O  O6  1  0.48398200  0.96363600  0.34557200  1
  O  O7  1  0.48426000  0.52080400  0.34560400  1
  O  O8  1  0.32779800  0.16411600  0.09344800  1
  O  O9  1  0.66294700  0.83161800  0.59318500  1
  O  O10  1  0.51691100  0.48014700  0.84331500  1
  O  O11  1  0.51694400  0.03653900  0.84336100  1
  O  O12  1  0.65522200  0.32777800  0.60694200  1
  O  O13  1  0.81915700  0.65990400  0.09232700  1
  O  O14  1  0.96132300  0.48060500  0.84438100  1
  O  O15  1  0.81900900  0.15909700  0.09215300  1
loop_
_geom_bond_atom_site_label_1
_geom_bond_atom_site_label_2
_geom_bond_distance
_geom_bond_site_symmetry_2
Li0 O14 1.943493 1_455
Li0 O10 1.982630 1_555
Li0 O11 1.985940 1_565
Li0 O2 2.031157 1_556
Li1 O4 1.824725 1_555
Li1 O8 1.926394 1_556
Li1 O13 1.973000 1_446
Li1 O15 1.973178 1_456
Li2 O3 1.818253 1_555
Li2 O0 1.953274 1_545
Li2 O5 1.954129 1_555
Li2 O9 2.010748 1_445
Li3 O7 1.958001 1_555
Li3 O6 1.960364 1_545
Li3 O1 2.002207 1_655
Li3 O12 2.024754 1_555
Fe0 O3 1.988581 1_665
Fe0 O2 2.006970 1_555
Fe0 O7 2.007844 1_555
Fe0 O6 2.008111 1_555
Fe0 O13 2.063349 1_555
Fe0 O15 2.065235 1_565
Fe1 O4 1.983339 1_665
Fe1 O12 2.004435 1_555
Fe1 O10 2.011791 1_555
Fe1 O14 2.013112 1_555
Fe1 O0 2.064017 1_655
Fe1 O9 2.110862 1_555
Fe2 O4 1.983873 1_655
Fe2 O12 2.004230 1_555
Fe2 O11 2.011927 1_555
Fe2 O14 2.013310 1_555
Fe2 O5 2.063774 1_655
Fe2 O9 2.111039 1_545
Cu0 O3 1.911274 1_565
Cu0 O2 1.915983 1_555
Cu0 O1 2.012773 1_555
Cu0 O6 2.030585 1_555
Cu0 O8 2.053783 1_565
Cu0 O13 2.178129 1_455
Cu1 O3 1.911941 1_555
Cu1 O2 1.918117 1_555
Cu1 O1 2.008776 1_555
Cu1 O7 2.031782 1_555
Cu1 O8 2.051575 1_555
Cu1 O15 2.180041 1_455
Cu2 O4 1.879700 1_555
Cu2 O12 1.895650 1_555
Cu2 O10 2.031449 1_555
Cu2 O11 2.031479 1_555
Cu2 O5 2.102867 1_555
Cu2 O0 2.103520 1_545
O0 Ti0 1.947533 1_555
O1 Ti0 2.131134 1_555
O5 Ti0 1.948146 1_555
O6 Ti0 2.090244 1_555
O7 Ti0 2.088340 1_555
O8 Ti1 1.996879 1_554
O9 Ti0 1.893020 1_555
O10 Ti1 2.129287 1_555
O11 Ti1 2.130044 1_555
O13 Ti1 1.902875 1_554
O14 Ti1 2.057023 1_555
O15 Ti1 1.900178 1_554
