# generated using pymatgen
data_LiNiOF
_symmetry_space_group_name_H-M   'P 1'
_cell_length_a   2.95617000
_cell_length_b   2.95617000
_cell_length_c   16.66515500
_cell_angle_alpha   90.00000000
_cell_angle_beta   90.00000000
_cell_angle_gamma   90.00000000
_symmetry_Int_Tables_number   1
_chemical_formula_structural   LiNiOF
_chemical_formula_sum   'Li4 Ni4 O4 F4'
_cell_volume   145.63580745
_cell_formula_units_Z   4
loop_
 _symmetry_equiv_pos_site_id
 _symmetry_equiv_pos_as_xyz
  1  'x, y, z'
loop_
 _atom_site_type_symbol
 _atom_site_label
 _atom_site_symmetry_multiplicity
 _atom_site_fract_x
 _atom_site_fract_y
 _atom_site_fract_z
 _atom_site_occupancy
  Li  Li0  1  0.00000000  0.50000000  0.31546800  1
  Li  Li1  1  0.50000000  0.00000000  0.43988600  1
  Li  Li2  1  0.00000000  0.50000000  0.56011400  1
  Li  Li3  1  0.50000000  0.00000000  0.68453200  1
  Ni  Ni0  1  0.00000000  0.50000000  0.81048800  1
  Ni  Ni1  1  0.50000000  0.00000000  0.93553100  1
  Ni  Ni2  1  0.00000000  0.50000000  0.06446900  1
  Ni  Ni3  1  0.50000000  0.00000000  0.18951200  1
  O  O0  1  0.50000000  0.00000000  0.80862400  1
  O  O1  1  0.00000000  0.50000000  0.93641300  1
  O  O2  1  0.50000000  0.00000000  0.06358700  1
  O  O3  1  0.00000000  0.50000000  0.19137600  1
  F  F0  1  0.50000000  0.00000000  0.31914400  1
  F  F1  1  0.00000000  0.50000000  0.43901000  1
  F  F2  1  0.50000000  0.00000000  0.56099000  1
  F  F3  1  0.00000000  0.50000000  0.68085600  1
loop_
_geom_bond_atom_site_label_1
_geom_bond_atom_site_label_2
_geom_bond_distance
_geom_bond_site_symmetry_2
Li0 O3 2.068012 1_555
Li3 O0 2.068012 1_555
Ni0 O0 2.090559 1_565
Ni0 O0 2.090559 1_455
Ni0 O0 2.090559 1_465
Ni0 O0 2.090559 1_555
Ni0 O1 2.098560 1_555
Ni1 O1 2.090380 1_645
Ni1 O1 2.090380 1_555
Ni1 O1 2.090380 1_655
Ni1 O1 2.090380 1_545
Ni1 O0 2.114925 1_555
Ni1 O2 2.134073 1_556
Ni2 O2 2.090380 1_565
Ni2 O2 2.090380 1_465
Ni2 O2 2.090380 1_455
Ni2 O2 2.090380 1_555
Ni2 O3 2.114925 1_555
Ni2 O1 2.134073 1_554
Ni3 O3 2.090559 1_545
Ni3 O3 2.090559 1_555
Ni3 O3 2.090559 1_645
Ni3 O3 2.090559 1_655
Ni3 O2 2.098560 1_555
F0 Li1 2.012184 1_555
F0 Li0 2.091225 1_555
F0 Li0 2.091225 1_655
F0 Li0 2.091225 1_545
F0 Li0 2.091225 1_645
F0 Ni3 2.160337 1_555
F1 Li2 2.018217 1_555
F1 Li0 2.058847 1_555
F1 Li1 2.090379 1_455
F1 Li1 2.090379 1_555
F1 Li1 2.090379 1_465
F1 Li1 2.090379 1_565
F2 Li1 2.018217 1_555
F2 Li3 2.058847 1_555
F2 Li2 2.090379 1_655
F2 Li2 2.090379 1_545
F2 Li2 2.090379 1_645
F2 Li2 2.090379 1_555
F3 Li2 2.012184 1_555
F3 Li3 2.091225 1_565
F3 Li3 2.091225 1_555
F3 Li3 2.091225 1_455
F3 Li3 2.091225 1_465
F3 Ni0 2.160337 1_555
