# generated using pymatgen
data_LiLa4Ti3O12
_symmetry_space_group_name_H-M   'P 1'
_cell_length_a   5.58639800
_cell_length_b   5.62915161
_cell_length_c   7.91297215
_cell_angle_alpha   90.17829974
_cell_angle_beta   90.03814422
_cell_angle_gamma   90.27452279
_symmetry_Int_Tables_number   1
_chemical_formula_structural   LiLa4Ti3O12
_chemical_formula_sum   'Li1 La4 Ti3 O12'
_cell_volume   248.83259465
_cell_formula_units_Z   1
loop_
 _symmetry_equiv_pos_site_id
 _symmetry_equiv_pos_as_xyz
  1  'x, y, z'
loop_
 _atom_site_type_symbol
 _atom_site_label
 _atom_site_symmetry_multiplicity
 _atom_site_fract_x
 _atom_site_fract_y
 _atom_site_fract_z
 _atom_site_occupancy
  Li  Li0  1  0.50000000  0.00000000  0.50000000  1
  La  La0  1  0.00444800  0.03284800  0.26135400  1
  La  La1  1  0.48968100  0.54660600  0.26248900  1
  La  La2  1  0.51031900  0.45339400  0.73751100  1
  La  La3  1  0.99555200  0.96715200  0.73864600  1
  Ti  Ti0  1  0.00000000  0.50000000  0.00000000  1
  Ti  Ti1  1  0.00000000  0.50000000  0.50000000  1
  Ti  Ti2  1  0.50000000  0.00000000  0.00000000  1
  O  O0  1  0.07791100  0.51446900  0.75126500  1
  O  O1  1  0.21452100  0.78241000  0.04334400  1
  O  O2  1  0.19957500  0.78179900  0.45939800  1
  O  O3  1  0.28370100  0.28722500  0.04375600  1
  O  O4  1  0.27936600  0.30147900  0.45914200  1
  O  O5  1  0.41830700  0.01962700  0.76258500  1
  O  O6  1  0.58169300  0.98037300  0.23741500  1
  O  O7  1  0.72063400  0.69852100  0.54085800  1
  O  O8  1  0.71629900  0.71277500  0.95624400  1
  O  O9  1  0.80042500  0.21820100  0.54060200  1
  O  O10  1  0.78547900  0.21759000  0.95665600  1
  O  O11  1  0.92208900  0.48553100  0.24873500  1
loop_
_geom_bond_atom_site_label_1
_geom_bond_atom_site_label_2
_geom_bond_distance
_geom_bond_site_symmetry_2
Li0 O2 2.098964 1_545
Li0 O9 2.098964 1_555
Li0 O4 2.127601 1_555
Li0 O7 2.127601 1_545
Li0 O5 2.130297 1_555
Li0 O6 2.130297 1_545
La0 O2 2.380644 1_545
La0 O6 2.386007 1_445
La0 O1 2.518737 1_545
La0 O11 2.593808 1_455
La0 O4 2.656060 1_555
La0 O9 2.696437 1_455
La0 O3 2.728799 1_555
La0 O10 2.900849 1_454
La1 O4 2.388754 1_555
La1 O11 2.444025 1_555
La1 O6 2.501359 1_555
La1 O3 2.533228 1_555
La1 O2 2.611164 1_555
La1 O1 2.676221 1_555
La1 O7 2.687343 1_555
La1 O8 2.890834 1_554
La2 O7 2.388754 1_555
La2 O0 2.444025 1_555
La2 O5 2.501359 1_555
La2 O8 2.533228 1_555
La2 O9 2.611164 1_555
La2 O10 2.676221 1_555
La2 O4 2.687343 1_555
La2 O3 2.890834 1_556
La3 O9 2.380644 1_565
La3 O5 2.386007 1_665
La3 O10 2.518737 1_565
La3 O0 2.593808 1_655
La3 O7 2.656060 1_555
La3 O2 2.696437 1_655
La3 O8 2.728799 1_555
La3 O1 2.900849 1_656
O0 Ti0 2.017873 1_556
O0 Ti1 2.036349 1_555
O1 Ti0 2.014656 1_555
O1 Ti2 2.036147 1_565
O2 Ti1 1.961951 1_555
O3 Ti0 2.021463 1_555
O3 Ti2 2.051802 1_555
O4 Ti1 1.950412 1_555
O5 Ti2 1.936613 1_556
O6 Ti2 1.936613 1_565
O7 Ti1 1.950412 1_655
O8 Ti0 2.021463 1_656
O8 Ti2 2.051802 1_566
O9 Ti1 1.961951 1_655
O10 Ti0 2.014656 1_656
O10 Ti2 2.036147 1_556
O11 Ti0 2.017873 1_655
O11 Ti1 2.036349 1_655
