# generated using pymatgen
data_Na6Ti2O7
_symmetry_space_group_name_H-M   'P 1'
_cell_length_a   5.21608665
_cell_length_b   8.82882967
_cell_length_c   10.23073193
_cell_angle_alpha   62.73841030
_cell_angle_beta   90.00000000
_cell_angle_gamma   90.00000000
_symmetry_Int_Tables_number   1
_chemical_formula_structural   Na6Ti2O7
_chemical_formula_sum   'Na12 Ti4 O14'
_cell_volume   418.81238850
_cell_formula_units_Z   2
loop_
 _symmetry_equiv_pos_site_id
 _symmetry_equiv_pos_as_xyz
  1  'x, y, z'
loop_
 _atom_site_type_symbol
 _atom_site_label
 _atom_site_symmetry_multiplicity
 _atom_site_fract_x
 _atom_site_fract_y
 _atom_site_fract_z
 _atom_site_occupancy
  Na  Na0  1  0.23171934  0.33603351  0.87924519  1
  Na  Na1  1  0.77527723  0.57272480  0.86228386  1
  Na  Na2  1  0.80241618  0.06537912  0.84686148  1
  Na  Na3  1  0.77527723  0.42727520  0.63771614  1
  Na  Na4  1  0.23171934  0.66396649  0.62075481  1
  Na  Na5  1  0.80241618  0.93462088  0.65313852  1
  Na  Na6  1  0.19758382  0.06537912  0.34686148  1
  Na  Na7  1  0.76828066  0.33603351  0.37924519  1
  Na  Na8  1  0.22472277  0.57272480  0.36228386  1
  Na  Na9  1  0.19758382  0.93462088  0.15313852  1
  Na  Na10  1  0.22472277  0.42727520  0.13771614  1
  Na  Na11  1  0.76828066  0.66396649  0.12075481  1
  Ti  Ti0  1  0.30459456  0.78706847  0.89593654  1
  Ti  Ti1  1  0.30459456  0.21293153  0.60406346  1
  Ti  Ti2  1  0.69540544  0.78706847  0.39593654  1
  Ti  Ti3  1  0.69540544  0.21293153  0.10406346  1
  O  O0  1  0.78763413  0.27502921  0.91422501  1
  O  O1  1  0.23043215  0.60954632  0.86035135  1
  O  O2  1  0.64685789  0.80935582  0.88699678  1
  O  O3  1  0.23043215  0.39045368  0.63964865  1
  O  O4  1  0.16867832  0.00000000  0.75000000  1
  O  O5  1  0.78763413  0.72497079  0.58577499  1
  O  O6  1  0.64685789  0.19064418  0.61300322  1
  O  O7  1  0.35314211  0.80935582  0.38699678  1
  O  O8  1  0.21236587  0.27502921  0.41422501  1
  O  O9  1  0.83132168  0.00000000  0.25000000  1
  O  O10  1  0.76956785  0.60954632  0.36035135  1
  O  O11  1  0.35314211  0.19064418  0.11300322  1
  O  O12  1  0.76956785  0.39045368  0.13964865  1
  O  O13  1  0.21236587  0.72497079  0.08577499  1
loop_
_geom_bond_atom_site_label_1
_geom_bond_atom_site_label_2
_geom_bond_distance
_geom_bond_site_symmetry_2
Na0 O11 2.226184 1_556
Na0 O3 2.271689 1_555
Na0 O1 2.332604 1_555
Na0 O0 2.367959 1_455
Na0 O0 2.941061 1_555
Na1 O2 2.315419 1_555
Na1 O1 2.395134 1_655
Na1 O0 2.432081 1_555
Na1 O5 2.515959 1_555
Na1 O12 2.541537 1_556
Na1 O1 2.859531 1_555
Na2 O0 2.252912 1_555
Na2 O2 2.255227 1_545
Na2 O6 2.276337 1_555
Na2 O4 2.342872 1_655
Na3 O6 2.315419 1_555
Na3 O3 2.395134 1_655
Na3 O5 2.432081 1_555
Na3 O0 2.515959 1_555
Na3 O10 2.541537 1_555
Na3 O3 2.859531 1_555
Na4 O7 2.226184 1_555
Na4 O1 2.271689 1_555
Na4 O3 2.332604 1_555
Na4 O5 2.367959 1_455
Na4 O5 2.941061 1_555
Na5 O5 2.252912 1_555
Na5 O6 2.255227 1_565
Na5 O2 2.276337 1_555
Na5 O4 2.342872 1_665
Na6 O8 2.252912 1_555
Na6 O7 2.255227 1_545
Na6 O11 2.276337 1_555
Na6 O9 2.342872 1_455
Na7 O6 2.226184 1_555
Na7 O12 2.271689 1_555
Na7 O10 2.332604 1_555
Na7 O8 2.367959 1_655
Na7 O8 2.941061 1_555
Na8 O7 2.315419 1_555
Na8 O10 2.395134 1_455
Na8 O8 2.432081 1_555
Na8 O13 2.515959 1_555
Na8 O3 2.541537 1_555
Na8 O10 2.859531 1_555
Na9 O13 2.252912 1_555
Na9 O11 2.255227 1_565
Na9 O7 2.276337 1_555
Na9 O9 2.342872 1_465
Na10 O11 2.315419 1_555
Na10 O12 2.395134 1_455
Na10 O13 2.432081 1_555
Na10 O8 2.515959 1_555
Na10 O1 2.541537 1_554
Na10 O12 2.859531 1_555
Na11 O2 2.226184 1_554
Na11 O10 2.271689 1_555
Na11 O12 2.332604 1_555
Na11 O13 2.367959 1_655
Na11 O13 2.941061 1_555
O0 Ti3 1.824451 1_556
O1 Ti0 1.805931 1_555
O2 Ti0 1.793824 1_555
O3 Ti1 1.805931 1_555
O4 Ti0 1.922131 1_545
O4 Ti1 1.922131 1_555
O5 Ti2 1.824451 1_555
O6 Ti1 1.793824 1_555
O7 Ti2 1.793824 1_555
O8 Ti1 1.824451 1_555
O9 Ti2 1.922131 1_545
O9 Ti3 1.922131 1_555
O10 Ti2 1.805931 1_555
O11 Ti3 1.793824 1_555
O12 Ti3 1.805931 1_555
O13 Ti0 1.824451 1_554
