# generated using pymatgen
data_K3SiTe3
_symmetry_space_group_name_H-M   'P 1'
_cell_length_a   8.41251753
_cell_length_b   8.41251866
_cell_length_c   8.90754350
_cell_angle_alpha   105.28879725
_cell_angle_beta   105.28879737
_cell_angle_gamma   109.53528349
_symmetry_Int_Tables_number   1
_chemical_formula_structural   K3SiTe3
_chemical_formula_sum   'K6 Si2 Te6'
_cell_volume   528.41151255
_cell_formula_units_Z   2
loop_
 _symmetry_equiv_pos_site_id
 _symmetry_equiv_pos_as_xyz
  1  'x, y, z'
loop_
 _atom_site_type_symbol
 _atom_site_label
 _atom_site_symmetry_multiplicity
 _atom_site_fract_x
 _atom_site_fract_y
 _atom_site_fract_z
 _atom_site_occupancy
  K  K0  1  0.79381754  0.79381754  0.32504287  1
  K  K1  1  0.50000000  -0.00000000  0.00000000  1
  K  K2  1  0.65862812  0.34137188  0.50000000  1
  K  K3  1  0.34137188  0.65862812  0.50000000  1
  K  K4  1  -0.00000000  0.50000000  0.00000000  1
  K  K5  1  0.20618246  0.20618246  0.67495713  1
  Si  Si0  1  0.89254768  0.89254768  0.86131156  1
  Si  Si1  1  0.10745232  0.10745232  0.13868844  1
  Te  Te0  1  0.36096337  0.36096337  0.12111247  1
  Te  Te1  1  0.63903663  0.63903663  0.87888753  1
  Te  Te2  1  0.94779910  0.24810685  0.29637493  1
  Te  Te3  1  0.75189315  0.05220090  0.70362507  1
  Te  Te4  1  0.05220090  0.75189315  0.70362507  1
  Te  Te5  1  0.24810685  0.94779910  0.29637493  1
loop_
_geom_bond_atom_site_label_1
_geom_bond_atom_site_label_2
_geom_bond_distance
_geom_bond_site_symmetry_2
K0 Te1 3.548649 1_554
K0 Te4 3.673611 1_655
K0 Te3 3.673612 1_565
K0 Te5 3.705001 1_655
K0 Te2 3.705002 1_565
K0 Te0 3.738278 1_555
K1 Te4 3.479660 1_544
K1 Te2 3.479660 1_555
K1 Te0 3.614703 1_555
K1 Te1 3.614703 1_544
K1 Te5 3.819945 1_545
K1 Te3 3.819945 1_554
K2 Te5 3.472961 1_545
K2 Te4 3.472961 1_655
K2 Te2 3.560360 1_555
K2 Te3 3.560360 1_555
K2 Te0 3.714901 1_555
K2 Te1 3.714901 1_555
K3 Te3 3.472961 1_565
K3 Te2 3.472961 1_455
K3 Te4 3.560360 1_555
K3 Te5 3.560360 1_555
K3 Te1 3.714901 1_555
K3 Te0 3.714901 1_555
K4 Te3 3.479660 1_454
K4 Te5 3.479660 1_555
K4 Te0 3.614703 1_555
K4 Te1 3.614703 1_454
K4 Te2 3.819945 1_455
K4 Te4 3.819945 1_554
K5 Te0 3.548649 1_556
K5 Te2 3.673611 1_455
K5 Te5 3.673612 1_545
K5 Te3 3.705001 1_455
K5 Te4 3.705002 1_545
K5 Te1 3.738278 1_555
Si0 Si1 2.396729 1_666
Si0 Te4 2.521527 1_655
Si0 Te3 2.521527 1_565
Si0 Te1 2.536029 1_555
Si1 Te2 2.521527 1_455
Si1 Te5 2.521527 1_545
Si1 Te0 2.536029 1_555
