# generated using pymatgen
data_K2MgH8(CO5)2
_symmetry_space_group_name_H-M   'P 1'
_cell_length_a   6.26948400
_cell_length_b   6.94821800
_cell_length_c   12.25888497
_cell_angle_alpha   66.55116917
_cell_angle_beta   90.00000000
_cell_angle_gamma   90.00000000
_symmetry_Int_Tables_number   1
_chemical_formula_structural   K2MgH8(CO5)2
_chemical_formula_sum   'K4 Mg2 H16 C4 O20'
_cell_volume   489.91690887
_cell_formula_units_Z   2
loop_
 _symmetry_equiv_pos_site_id
 _symmetry_equiv_pos_as_xyz
  1  'x, y, z'
loop_
 _atom_site_type_symbol
 _atom_site_label
 _atom_site_symmetry_multiplicity
 _atom_site_fract_x
 _atom_site_fract_y
 _atom_site_fract_z
 _atom_site_occupancy
  K  K0  1  0.85127400  0.76657300  0.81740400  1
  K  K1  1  0.35127400  0.23342700  0.68259600  1
  K  K2  1  0.64872600  0.76657300  0.31740400  1
  K  K3  1  0.14872600  0.23342700  0.18259600  1
  Mg  Mg0  1  0.50000000  0.00000000  0.00000000  1
  Mg  Mg1  1  0.00000000  0.00000000  0.50000000  1
  H  H0  1  0.17620200  0.30237800  0.92312400  1
  H  H1  1  0.19943500  0.79161600  0.97842100  1
  H  H2  1  0.39561000  0.42397600  0.88659700  1
  H  H3  1  0.34158600  0.80394700  0.86216700  1
  H  H4  1  0.89561000  0.57602400  0.61340300  1
  H  H5  1  0.84158600  0.19605300  0.63783300  1
  H  H6  1  0.67620200  0.69762200  0.57687600  1
  H  H7  1  0.69943500  0.20838400  0.52157900  1
  H  H8  1  0.30056500  0.79161600  0.47842100  1
  H  H9  1  0.32379800  0.30237800  0.42312400  1
  H  H10  1  0.15841400  0.80394700  0.36216700  1
  H  H11  1  0.10439000  0.42397600  0.38659700  1
  H  H12  1  0.65841400  0.19605300  0.13783300  1
  H  H13  1  0.60439000  0.57602400  0.11340300  1
  H  H14  1  0.80056500  0.20838400  0.02157900  1
  H  H15  1  0.82379800  0.69762200  0.07687600  1
  C  C0  1  0.84949400  0.25663700  0.82408700  1
  C  C1  1  0.34949400  0.74336300  0.67591300  1
  C  C2  1  0.65050600  0.25663700  0.32408700  1
  C  C3  1  0.15050600  0.74336300  0.17591300  1
  O  O0  1  0.33322400  0.28994000  0.94347000  1
  O  O1  1  0.91924600  0.33116000  0.90009700  1
  O  O2  1  0.28324700  0.88909800  0.90573300  1
  O  O3  1  0.69423000  0.12196400  0.85238500  1
  O  O4  1  0.43722900  0.68235700  0.78060800  1
  O  O5  1  0.93722900  0.31764300  0.71939200  1
  O  O6  1  0.19423000  0.87803600  0.64761500  1
  O  O7  1  0.41924600  0.66884000  0.59990300  1
  O  O8  1  0.83322400  0.71006000  0.55653000  1
  O  O9  1  0.78324700  0.11090200  0.59426700  1
  O  O10  1  0.21675300  0.88909800  0.40573300  1
  O  O11  1  0.16677600  0.28994000  0.44347000  1
  O  O12  1  0.58075400  0.33116000  0.40009700  1
  O  O13  1  0.80577000  0.12196400  0.35238500  1
  O  O14  1  0.06277100  0.68235700  0.28060800  1
  O  O15  1  0.56277100  0.31764300  0.21939200  1
  O  O16  1  0.30577000  0.87803600  0.14761500  1
  O  O17  1  0.71675300  0.11090200  0.09426700  1
  O  O18  1  0.08075400  0.66884000  0.09990300  1
  O  O19  1  0.66677600  0.71006000  0.05653000  1
loop_
_geom_bond_atom_site_label_1
_geom_bond_atom_site_label_2
_geom_bond_distance
_geom_bond_site_symmetry_2
K0 O4 2.737584 1_555
K0 O1 2.814455 1_555
K0 O3 2.844936 1_565
K0 O9 2.860048 1_565
K0 O6 2.876174 1_655
K1 O5 2.737584 1_455
K1 O7 2.814455 1_555
K1 O6 2.844936 1_545
K1 O2 2.860048 1_545
K1 O3 2.876174 1_555
K2 O14 2.737584 1_655
K2 O12 2.814455 1_555
K2 O13 2.844936 1_565
K2 O17 2.860048 1_565
K2 O16 2.876174 1_555
K3 O15 2.737584 1_555
K3 O18 2.814455 1_555
K3 O16 2.844936 1_545
K3 O10 2.860048 1_545
K3 O13 2.876174 1_455
Mg0 O16 2.062805 1_545
Mg0 O3 2.062805 1_554
Mg0 O2 2.117686 1_544
Mg0 O17 2.117686 1_555
Mg0 O0 2.126243 1_554
Mg0 O19 2.126243 1_545
Mg1 O13 2.062805 1_455
Mg1 O6 2.062805 1_545
Mg1 O10 2.117686 1_545
Mg1 O9 2.117686 1_455
Mg1 O11 2.126243 1_555
Mg1 O8 2.126243 1_445
H0 O0 1.010772 1_555
H0 O1 1.634017 1_455
H1 O2 1.023987 1_555
H1 O18 1.577374 1_556
H2 O0 0.994811 1_555
H3 O2 1.010214 1_555
H4 O8 0.994811 1_555
H5 O9 1.010214 1_555
H6 O8 1.010772 1_555
H6 O7 1.634017 1_555
H7 O9 1.023987 1_555
H7 O12 1.577374 1_555
H8 O10 1.023987 1_555
H8 O7 1.577374 1_555
H9 O11 1.010772 1_555
H9 O12 1.634017 1_555
H10 O10 1.010214 1_555
H11 O11 0.994811 1_555
H12 O17 1.010214 1_555
H13 O19 0.994811 1_555
H14 O17 1.023987 1_555
H14 O1 1.577374 1_554
H15 O19 1.010772 1_555
H15 O18 1.634017 1_655
C0 O3 1.298137 1_555
C0 O5 1.302495 1_555
C0 O1 1.308280 1_555
C1 O6 1.298137 1_555
C1 O4 1.302495 1_555
C1 O7 1.308280 1_555
C2 O13 1.298137 1_555
C2 O15 1.302495 1_555
C2 O12 1.308280 1_555
C3 O16 1.298137 1_555
C3 O14 1.302495 1_555
C3 O18 1.308280 1_555
