# generated using pymatgen
data_LiVBO3
_symmetry_space_group_name_H-M   'P 1'
_cell_length_a   6.36435801
_cell_length_b   8.20857515
_cell_length_c   8.80104489
_cell_angle_alpha   117.77678964
_cell_angle_beta   68.80742154
_cell_angle_gamma   90.00015421
_symmetry_Int_Tables_number   1
_chemical_formula_structural   LiVBO3
_chemical_formula_sum   'Li6 V6 B6 O18'
_cell_volume   371.29995267
_cell_formula_units_Z   6
loop_
 _symmetry_equiv_pos_site_id
 _symmetry_equiv_pos_as_xyz
  1  'x, y, z'
loop_
 _atom_site_type_symbol
 _atom_site_label
 _atom_site_symmetry_multiplicity
 _atom_site_fract_x
 _atom_site_fract_y
 _atom_site_fract_z
 _atom_site_occupancy
  Li  Li0  1  0.76518900  0.26395700  0.96956000  1
  Li  Li1  1  0.26522500  0.26395600  0.96956100  1
  Li  Li2  1  0.10282500  0.03037400  0.29441200  1
  Li  Li3  1  0.60276900  0.03037300  0.29441100  1
  Li  Li4  1  0.88204100  0.70555900  0.73600800  1
  Li  Li5  1  0.38205600  0.70556000  0.73600900  1
  V  V0  1  0.31438900  0.39298800  0.37126500  1
  V  V1  1  0.98908400  0.62848800  0.02181900  1
  V  V2  1  0.19659200  0.97833900  0.60682600  1
  V  V3  1  0.81434600  0.39315300  0.37135200  1
  V  V4  1  0.48907000  0.62843400  0.02183900  1
  V  V5  1  0.69668300  0.97830700  0.60664200  1
  B  B0  1  0.91671600  0.33333500  0.66660400  1
  B  B1  1  0.41668300  0.33333500  0.66660500  1
  B  B2  1  0.99994300  0.00006800  0.00009400  1
  B  B3  1  0.50003200  0.99990300  0.99991500  1
  B  B4  1  0.08334300  0.66670500  0.33335400  1
  B  B5  1  0.58331300  0.66670600  0.33335200  1
  O  O0  1  0.54877100  0.09843000  0.90237000  1
  O  O1  1  0.04867200  0.09860700  0.90256600  1
  O  O2  1  0.90188600  0.09753900  0.19616000  1
  O  O3  1  0.40197300  0.09741500  0.19599300  1
  O  O4  1  0.54925500  0.80386200  0.90153800  1
  O  O5  1  0.04920900  0.80403300  0.90163200  1
  O  O6  1  0.96036800  0.13902800  0.57942200  1
  O  O7  1  0.46024100  0.13902900  0.57942000  1
  O  O8  1  0.81942800  0.44047500  0.86111100  1
  O  O9  1  0.31937100  0.44047200  0.86111100  1
  O  O10  1  0.97031300  0.42068800  0.55951400  1
  O  O11  1  0.47028000  0.42068900  0.55951800  1
  O  O12  1  0.13175200  0.47070700  0.23661200  1
  O  O13  1  0.63162700  0.47070900  0.23661000  1
  O  O14  1  0.98525200  0.76596900  0.52935300  1
  O  O15  1  0.48532000  0.76596700  0.52935200  1
  O  O16  1  0.13297700  0.76342200  0.23404500  1
  O  O17  1  0.63300800  0.76342400  0.23404500  1
loop_
_geom_bond_atom_site_label_1
_geom_bond_atom_site_label_2
_geom_bond_distance
_geom_bond_site_symmetry_2
Li0 O1 1.982412 1_655
Li0 O0 1.983172 1_555
Li0 O13 1.991126 1_556
Li0 O8 2.044615 1_555
Li1 O1 1.982669 1_555
Li1 O0 1.982915 1_555
Li1 O12 1.991129 1_556
Li1 O9 2.044607 1_555
Li2 O3 1.982386 1_555
Li2 O2 1.982687 1_455
Li2 O16 1.990488 1_545
Li2 O6 2.044504 1_455
Li3 O2 1.982398 1_555
Li3 O3 1.982638 1_555
Li3 O17 1.990467 1_545
Li3 O7 2.044495 1_555
Li4 O4 1.983117 1_555
Li4 O5 1.983216 1_655
Li4 O14 1.990521 1_555
Li4 O10 2.044522 1_555
Li5 O4 1.982665 1_555
Li5 O5 1.983649 1_555
Li5 O15 1.990520 1_555
Li5 O11 2.044519 1_555
B0 O6 1.383873 1_555
B0 O10 1.384295 1_555
B0 O8 1.384824 1_555
B1 O7 1.383864 1_555
B1 O11 1.384280 1_555
B1 O9 1.384816 1_555
B2 O2 1.393499 1_555
B2 O1 1.393504 1_654
B2 O5 1.393743 1_644
B3 O0 1.393540 1_565
B3 O3 1.393583 1_566
B3 O4 1.393784 1_555
B4 O14 1.393060 1_455
B4 O16 1.393242 1_555
B4 O12 1.393513 1_555
B5 O15 1.393067 1_555
B5 O17 1.393235 1_555
B5 O13 1.393506 1_555
O0 V5 2.114029 1_545
O1 V2 2.113992 1_545
O2 V3 2.113688 1_555
O3 V0 2.113486 1_555
O4 V4 2.114049 1_556
O5 V1 2.114172 1_456
O6 V2 2.148707 1_645
O6 V5 2.148982 1_545
O7 V2 2.148832 1_545
O7 V5 2.148872 1_545
O8 V4 2.148839 1_556
O8 V1 2.148914 1_556
O9 V1 2.148702 1_456
O9 V4 2.149033 1_556
O10 V0 2.148890 1_655
O10 V3 2.149054 1_555
O11 V3 2.148927 1_555
O11 V0 2.149062 1_555
O12 V0 2.205255 1_555
O12 V3 2.205426 1_455
O13 V0 2.205139 1_555
O13 V3 2.205585 1_555
O14 V5 2.205761 1_555
O14 V2 2.206397 1_655
O15 V5 2.206084 1_555
O15 V2 2.206084 1_555
O16 V1 2.205142 1_455
O16 V4 2.205206 1_555
O17 V1 2.205124 1_555
O17 V4 2.205264 1_555
