# generated using pymatgen
data_Fe6OF11
_symmetry_space_group_name_H-M   'P 1'
_cell_length_a   5.83781750
_cell_length_b   5.83781750
_cell_length_c   7.50707481
_cell_angle_alpha   73.92788423
_cell_angle_beta   73.92788423
_cell_angle_gamma   71.67692815
_symmetry_Int_Tables_number   1
_chemical_formula_structural   Fe6OF11
_chemical_formula_sum   'Fe6 O1 F11'
_cell_volume   228.26924566
_cell_formula_units_Z   1
loop_
 _symmetry_equiv_pos_site_id
 _symmetry_equiv_pos_as_xyz
  1  'x, y, z'
loop_
 _atom_site_type_symbol
 _atom_site_label
 _atom_site_symmetry_multiplicity
 _atom_site_fract_x
 _atom_site_fract_y
 _atom_site_fract_z
 _atom_site_occupancy
  Fe  Fe0  1  0.33109500  0.33109500  0.16320800  1
  Fe  Fe1  1  0.66363600  0.66363600  0.34571500  1
  Fe  Fe2  1  0.35367500  0.35367500  0.66564500  1
  Fe  Fe3  1  0.66056200  0.66056200  0.82799700  1
  Fe  Fe4  1  0.00300600  0.00300600  0.50262400  1
  Fe  Fe5  1  0.99660600  0.99660600  0.99817500  1
  O  O0  1  0.55471100  0.55471100  0.63901500  1
  F  F0  1  0.96584800  0.36398100  0.32486300  1
  F  F1  1  0.63133400  0.04173400  0.66862800  1
  F  F2  1  0.11957100  0.11957100  0.68983300  1
  F  F3  1  0.76240600  0.76240600  0.03239800  1
  F  F4  1  0.41852200  0.41852200  0.37932300  1
  F  F5  1  0.24080700  0.24080700  0.94953500  1
  F  F6  1  0.89934400  0.89934400  0.30387700  1
  F  F7  1  0.04173400  0.63133400  0.66862800  1
  F  F8  1  0.36398100  0.96584800  0.32486300  1
  F  F9  1  0.70123600  0.29192600  0.00783600  1
  F  F10  1  0.29192600  0.70123600  0.00783600  1
loop_
_geom_bond_atom_site_label_1
_geom_bond_atom_site_label_2
_geom_bond_distance
_geom_bond_site_symmetry_2
Fe1 O0 2.088182 1_555
Fe2 O0 1.844151 1_555
Fe3 O0 1.996826 1_555
F0 Fe1 2.062883 1_555
F0 Fe0 2.120124 1_655
F0 Fe4 2.141121 1_655
F1 Fe2 2.021315 1_555
F1 Fe4 2.159253 1_655
F1 Fe3 2.193693 1_545
F2 Fe4 2.061903 1_555
F2 Fe2 2.160558 1_555
F2 Fe5 2.207393 1_445
F3 Fe3 2.072209 1_554
F3 Fe5 2.142639 1_554
F3 Fe1 2.214602 1_555
F4 Fe2 2.023793 1_555
F4 Fe0 2.057640 1_555
F4 Fe1 2.246418 1_555
F5 Fe2 2.031792 1_555
F5 Fe0 2.059027 1_556
F5 Fe5 2.213456 1_445
F6 Fe4 2.046619 1_665
F6 Fe1 2.144158 1_555
F6 Fe5 2.161296 1_554
F7 Fe2 2.021315 1_555
F7 Fe4 2.159253 1_565
F7 Fe3 2.193693 1_455
F8 Fe1 2.062883 1_555
F8 Fe0 2.120124 1_565
F8 Fe4 2.141121 1_565
F9 Fe5 2.020310 1_544
F9 Fe0 2.126825 1_555
F9 Fe3 2.181240 1_554
F10 Fe5 2.020310 1_454
F10 Fe0 2.126825 1_555
F10 Fe3 2.181240 1_554
