# generated using pymatgen
data_TiMn3O8
_symmetry_space_group_name_H-M   'P 1'
_cell_length_a   5.96920726
_cell_length_b   5.96920726
_cell_length_c   5.96920658
_cell_angle_alpha   59.13434181
_cell_angle_beta   59.13434181
_cell_angle_gamma   59.13434101
_symmetry_Int_Tables_number   1
_chemical_formula_structural   TiMn3O8
_chemical_formula_sum   'Ti1 Mn3 O8'
_cell_volume   147.42814900
_cell_formula_units_Z   1
loop_
 _symmetry_equiv_pos_site_id
 _symmetry_equiv_pos_as_xyz
  1  'x, y, z'
loop_
 _atom_site_type_symbol
 _atom_site_label
 _atom_site_symmetry_multiplicity
 _atom_site_fract_x
 _atom_site_fract_y
 _atom_site_fract_z
 _atom_site_occupancy
  Ti  Ti0  1  0.00000000  0.00000000  0.00000000  1
  Mn  Mn0  1  0.50000000  0.50000000  0.00000000  1
  Mn  Mn1  1  0.50000000  0.00000000  0.50000000  1
  Mn  Mn2  1  0.00000000  0.50000000  0.50000000  1
  O  O0  1  0.73188100  0.73188100  0.73188100  1
  O  O1  1  0.23472100  0.23472100  0.72654900  1
  O  O2  1  0.23472100  0.72654900  0.23472100  1
  O  O3  1  0.26811900  0.26811900  0.26811900  1
  O  O4  1  0.72654900  0.23472100  0.23472100  1
  O  O5  1  0.76527900  0.76527900  0.27345100  1
  O  O6  1  0.76527900  0.27345100  0.76527900  1
  O  O7  1  0.27345100  0.76527900  0.76527900  1
loop_
_geom_bond_atom_site_label_1
_geom_bond_atom_site_label_2
_geom_bond_distance
_geom_bond_site_symmetry_2
Mn0 O2 1.941592 1_555
Mn0 O4 1.941592 1_555
Mn0 O7 1.941592 1_554
Mn0 O6 1.941592 1_554
Mn0 O0 1.952689 1_554
Mn0 O3 1.952689 1_555
Mn1 O1 1.941592 1_555
Mn1 O5 1.941592 1_545
Mn1 O4 1.941592 1_555
Mn1 O7 1.941592 1_545
Mn1 O0 1.952689 1_545
Mn1 O3 1.952689 1_555
Mn2 O1 1.941592 1_555
Mn2 O5 1.941592 1_455
Mn2 O2 1.941592 1_555
Mn2 O6 1.941592 1_455
Mn2 O0 1.952689 1_455
Mn2 O3 1.952689 1_555
O1 Ti0 1.977771 1_556
O2 Ti0 1.977771 1_565
O4 Ti0 1.977771 1_655
O5 Ti0 1.977771 1_665
O6 Ti0 1.977771 1_656
O7 Ti0 1.977771 1_566
