# generated using pymatgen
data_Fe6O5F7
_symmetry_space_group_name_H-M   'P 1'
_cell_length_a   4.79378400
_cell_length_b   5.72794328
_cell_length_c   7.83666115
_cell_angle_alpha   85.48276363
_cell_angle_beta   88.97838894
_cell_angle_gamma   87.71178912
_symmetry_Int_Tables_number   1
_chemical_formula_structural   Fe6O5F7
_chemical_formula_sum   'Fe6 O5 F7'
_cell_volume   214.32037139
_cell_formula_units_Z   1
loop_
 _symmetry_equiv_pos_site_id
 _symmetry_equiv_pos_as_xyz
  1  'x, y, z'
loop_
 _atom_site_type_symbol
 _atom_site_label
 _atom_site_symmetry_multiplicity
 _atom_site_fract_x
 _atom_site_fract_y
 _atom_site_fract_z
 _atom_site_occupancy
  Fe  Fe0  1  0.49639800  0.16874400  0.33596300  1
  Fe  Fe1  1  0.47176200  0.48743100  0.99992300  1
  Fe  Fe2  1  0.54678400  0.83642300  0.65938600  1
  Fe  Fe3  1  0.01043200  0.66050400  0.32735500  1
  Fe  Fe4  1  0.93006000  0.33351700  0.67165800  1
  Fe  Fe5  1  0.03981200  0.01723600  0.00812200  1
  O  O0  1  0.80741800  0.62871000  0.56414500  1
  O  O1  1  0.80132200  0.29049400  0.90416900  1
  O  O2  1  0.69273100  0.12641500  0.55537300  1
  O  O3  1  0.30274600  0.20905800  0.11689700  1
  O  O4  1  0.20039600  0.71295200  0.08750700  1
  F  F0  1  0.79368100  0.97433200  0.22448200  1
  F  F1  1  0.69247100  0.79419100  0.89637800  1
  F  F2  1  0.68623900  0.46042400  0.23387000  1
  F  F3  1  0.31041000  0.87293200  0.43736600  1
  F  F4  1  0.31282800  0.54138200  0.76133700  1
  F  F5  1  0.20306900  0.03350900  0.76340300  1
  F  F6  1  0.20144100  0.35174500  0.45266800  1
loop_
_geom_bond_atom_site_label_1
_geom_bond_atom_site_label_2
_geom_bond_distance
_geom_bond_site_symmetry_2
Fe0 O3 1.959489 1_555
Fe0 O2 1.968476 1_555
Fe1 O4 1.950813 1_556
Fe1 O3 1.971209 1_556
Fe1 O1 2.068869 1_555
Fe2 O0 1.876592 1_555
Fe2 O2 1.942218 1_565
Fe3 O0 2.078516 1_455
Fe3 O4 2.079499 1_555
Fe4 O0 1.904830 1_555
Fe4 O1 1.913895 1_555
Fe4 O2 1.961394 1_555
Fe5 O4 1.938180 1_545
Fe5 O3 1.954239 1_555
Fe5 O1 2.027326 1_454
F0 Fe0 2.004089 1_565
F0 Fe5 2.052704 1_665
F0 Fe3 2.147870 1_655
F1 Fe2 1.989359 1_555
F1 Fe1 2.181407 1_555
F1 Fe5 2.360013 1_666
F2 Fe0 2.035813 1_555
F2 Fe1 2.110000 1_554
F2 Fe3 2.140206 1_655
F3 Fe0 2.044666 1_565
F3 Fe2 2.085428 1_555
F3 Fe3 2.154272 1_555
F4 Fe1 2.028006 1_555
F4 Fe2 2.158451 1_555
F4 Fe4 2.372900 1_455
F5 Fe5 2.055044 1_556
F5 Fe2 2.145297 1_545
F5 Fe4 2.200475 1_455
F6 Fe0 1.980162 1_555
F6 Fe4 2.133432 1_455
F6 Fe3 2.135364 1_555
