# generated using pymatgen
data_Na5Mn2P2(CO7)2
_symmetry_space_group_name_H-M   'P 1'
_cell_length_a   5.23741000
_cell_length_b   9.02573136
_cell_length_c   13.48661056
_cell_angle_alpha   89.93225540
_cell_angle_beta   89.94916854
_cell_angle_gamma   89.27510336
_symmetry_Int_Tables_number   1
_chemical_formula_structural   Na5Mn2P2(CO7)2
_chemical_formula_sum   'Na10 Mn4 P4 C4 O28'
_cell_volume   637.48000134
_cell_formula_units_Z   2
loop_
 _symmetry_equiv_pos_site_id
 _symmetry_equiv_pos_as_xyz
  1  'x, y, z'
loop_
 _atom_site_type_symbol
 _atom_site_label
 _atom_site_symmetry_multiplicity
 _atom_site_fract_x
 _atom_site_fract_y
 _atom_site_fract_z
 _atom_site_occupancy
  Na  Na0  1  0.24195100  0.91922400  0.37390000  1
  Na  Na1  1  0.75630500  0.75010600  0.75509700  1
  Na  Na2  1  0.75784100  0.76209600  0.99626300  1
  Na  Na3  1  0.75361000  0.74905700  0.24986200  1
  Na  Na4  1  0.75289500  0.74080200  0.49932300  1
  Na  Na5  1  0.24215900  0.23790400  0.00373700  1
  Na  Na6  1  0.24369500  0.24989400  0.24490300  1
  Na  Na7  1  0.24710500  0.25919800  0.50067700  1
  Na  Na8  1  0.24639000  0.25094300  0.75013800  1
  Na  Na9  1  0.75804900  0.08077600  0.62610000  1
  Mn  Mn0  1  0.22260800  0.64484300  0.12367300  1
  Mn  Mn1  1  0.22077300  0.64101900  0.62608700  1
  Mn  Mn2  1  0.77739200  0.35515700  0.87632700  1
  Mn  Mn3  1  0.77922700  0.35898100  0.37391300  1
  P  P0  1  0.29522400  0.57742100  0.87598100  1
  P  P1  1  0.29710100  0.58552200  0.37388800  1
  P  P2  1  0.70477600  0.42257900  0.12401900  1
  P  P3  1  0.70289900  0.41447800  0.62611200  1
  C  C0  1  0.27575600  0.92528700  0.12485900  1
  C  C1  1  0.26608100  0.93852200  0.62459700  1
  C  C2  1  0.73391900  0.06147800  0.37540300  1
  C  C3  1  0.72424400  0.07471300  0.87514100  1
  O  O0  1  0.72939100  0.93539400  0.87196400  1
  O  O1  1  0.71483500  0.91878300  0.37670500  1
  O  O2  1  0.06070800  0.84812800  0.12348100  1
  O  O3  1  0.04256500  0.87668100  0.62425400  1
  O  O4  1  0.47010400  0.85420600  0.62456100  1
  O  O5  1  0.47992000  0.84237300  0.12488300  1
  O  O6  1  0.22336400  0.66859800  0.78379500  1
  O  O7  1  0.22733300  0.66759000  0.97007500  1
  O  O8  1  0.21725600  0.67829100  0.28037300  1
  O  O9  1  0.21191800  0.67939400  0.46498500  1
  O  O10  1  0.59625700  0.54853100  0.87443800  1
  O  O11  1  0.59376000  0.56854200  0.37516100  1
  O  O12  1  0.83564100  0.57600800  0.12317800  1
  O  O13  1  0.82455700  0.56992200  0.62686500  1
  O  O14  1  0.16435900  0.42399200  0.87682200  1
  O  O15  1  0.17544300  0.43007800  0.37313500  1
  O  O16  1  0.40374300  0.45146900  0.12556200  1
  O  O17  1  0.40624000  0.43145800  0.62483900  1
  O  O18  1  0.77266700  0.33241000  0.02992500  1
  O  O19  1  0.77663600  0.33140200  0.21620500  1
  O  O20  1  0.78808200  0.32060600  0.53501500  1
  O  O21  1  0.78274400  0.32170900  0.71962700  1
  O  O22  1  0.52008000  0.15762700  0.87511700  1
  O  O23  1  0.52989600  0.14579400  0.37543900  1
  O  O24  1  0.93929200  0.15187200  0.87651900  1
  O  O25  1  0.95743500  0.12331900  0.37574600  1
  O  O26  1  0.27060900  0.06460600  0.12803600  1
  O  O27  1  0.28516500  0.08121700  0.62329500  1
loop_
_geom_bond_atom_site_label_1
_geom_bond_atom_site_label_2
_geom_bond_distance
_geom_bond_site_symmetry_2
Na0 O25 2.354791 1_465
Na0 O1 2.476963 1_555
Na0 O9 2.494280 1_555
Na0 O8 2.520025 1_555
Na0 O23 2.556327 1_565
Na0 O1 2.761001 1_455
Na1 O0 2.302335 1_555
Na1 O13 2.398818 1_555
Na1 O4 2.488799 1_555
Na1 O6 2.574932 1_655
Na1 O10 2.575363 1_555
Na1 O3 2.588576 1_655
Na1 O6 2.920846 1_555
Na2 O0 2.295062 1_555
Na2 O5 2.371608 1_556
Na2 O12 2.427736 1_556
Na2 O2 2.470226 1_656
Na2 O7 2.616242 1_655
Na2 O10 2.680011 1_555
Na2 O7 2.938493 1_555
Na3 O1 2.304801 1_555
Na3 O12 2.351855 1_555
Na3 O5 2.361255 1_555
Na3 O11 2.497313 1_555
Na3 O2 2.513880 1_655
Na3 O8 2.536897 1_655
Na3 O8 2.917376 1_555
Na4 O1 2.311106 1_555
Na4 O13 2.336367 1_555
Na4 O11 2.440782 1_555
Na4 O4 2.460779 1_555
Na4 O9 2.503244 1_655
Na4 O3 2.588649 1_655
Na5 O26 2.295062 1_555
Na5 O22 2.371608 1_554
Na5 O14 2.427736 1_554
Na5 O24 2.470226 1_454
Na5 O18 2.616242 1_455
Na5 O16 2.680011 1_555
Na5 O18 2.938493 1_555
Na6 O26 2.302335 1_555
Na6 O15 2.398818 1_555
Na6 O23 2.488799 1_555
Na6 O19 2.574932 1_455
Na6 O16 2.575363 1_555
Na6 O25 2.588576 1_455
Na6 O19 2.920846 1_555
Na7 O27 2.311106 1_555
Na7 O15 2.336367 1_555
Na7 O17 2.440782 1_555
Na7 O23 2.460779 1_555
Na7 O20 2.503244 1_455
Na7 O25 2.588649 1_455
Na8 O27 2.304801 1_555
Na8 O14 2.351855 1_555
Na8 O22 2.361255 1_555
Na8 O17 2.497313 1_555
Na8 O24 2.513880 1_455
Na8 O21 2.536897 1_455
Na8 O21 2.917376 1_555
Na9 O3 2.354791 1_645
Na9 O27 2.476963 1_555
Na9 O20 2.494280 1_555
Na9 O21 2.520025 1_555
Na9 O4 2.556327 1_545
Na9 O27 2.761001 1_655
Mn0 O16 1.976082 1_555
Mn0 O2 2.011493 1_555
Mn0 O7 2.081580 1_554
Mn0 O12 2.127315 1_455
Mn0 O8 2.135268 1_555
Mn0 O5 2.248530 1_555
Mn1 O17 2.115406 1_555
Mn1 O6 2.141830 1_555
Mn1 O13 2.179853 1_455
Mn1 O9 2.200187 1_555
Mn1 O3 2.312068 1_555
Mn1 O4 2.339129 1_555
Mn2 O10 1.976082 1_555
Mn2 O24 2.011493 1_555
Mn2 O18 2.081580 1_556
Mn2 O14 2.127315 1_655
Mn2 O21 2.135268 1_555
Mn2 O22 2.248530 1_555
Mn3 O11 2.115406 1_555
Mn3 O19 2.141830 1_555
Mn3 O15 2.179853 1_655
Mn3 O20 2.200187 1_555
Mn3 O25 2.312068 1_555
Mn3 O23 2.339129 1_555
C0 O26 1.258183 1_565
C0 O5 1.297373 1_555
C0 O2 1.331839 1_555
C1 O27 1.293157 1_565
C1 O3 1.303274 1_555
C1 O4 1.303982 1_555
C2 O1 1.293157 1_545
C2 O25 1.303274 1_555
C2 O23 1.303982 1_555
C3 O0 1.258183 1_545
C3 O22 1.297373 1_555
C3 O24 1.331839 1_555
O6 P0 1.534662 1_555
O7 P0 1.547085 1_555
O8 P1 1.567216 1_555
O9 P1 1.555073 1_555
O10 P0 1.594914 1_555
O11 P1 1.559442 1_555
O12 P2 1.552918 1_555
O13 P3 1.548275 1_555
O14 P0 1.552918 1_555
O15 P1 1.548275 1_555
O16 P2 1.594914 1_555
O17 P3 1.559442 1_555
O18 P2 1.547085 1_555
O19 P2 1.534662 1_555
O20 P3 1.555073 1_555
O21 P3 1.567216 1_555
