# generated using pymatgen
data_LiFe4(BO3)4
_symmetry_space_group_name_H-M   'P 1'
_cell_length_a   5.20561500
_cell_length_b   9.19183059
_cell_length_c   11.40889360
_cell_angle_alpha   112.76781509
_cell_angle_beta   102.79150656
_cell_angle_gamma   91.06289482
_symmetry_Int_Tables_number   1
_chemical_formula_structural   LiFe4(BO3)4
_chemical_formula_sum   'Li2 Fe8 B8 O24'
_cell_volume   487.56745064
_cell_formula_units_Z   2
loop_
 _symmetry_equiv_pos_site_id
 _symmetry_equiv_pos_as_xyz
  1  'x, y, z'
loop_
 _atom_site_type_symbol
 _atom_site_label
 _atom_site_symmetry_multiplicity
 _atom_site_fract_x
 _atom_site_fract_y
 _atom_site_fract_z
 _atom_site_occupancy
  Li  Li0  1  0.64185000  0.97572000  0.61219100  1
  Li  Li1  1  0.33190600  0.00257100  0.35371400  1
  Fe  Fe0  1  0.64176500  0.64165400  0.62347600  1
  Fe  Fe1  1  0.39351900  0.07134300  0.12157000  1
  Fe  Fe2  1  0.85623800  0.84043200  0.37173900  1
  Fe  Fe3  1  0.10411400  0.43229700  0.87050900  1
  Fe  Fe4  1  0.89042300  0.56474700  0.12129000  1
  Fe  Fe5  1  0.14457400  0.15847500  0.62221800  1
  Fe  Fe6  1  0.35333400  0.35551200  0.37189000  1
  Fe  Fe7  1  0.59912500  0.92833200  0.87055700  1
  B  B0  1  0.65570300  0.30576700  0.61549000  1
  B  B1  1  0.39047900  0.39470200  0.12109000  1
  B  B2  1  0.85588900  0.17959000  0.36581600  1
  B  B3  1  0.10347000  0.10363800  0.86835500  1
  B  B4  1  0.13795600  0.81738600  0.62750500  1
  B  B5  1  0.88791400  0.89538200  0.12499800  1
  B  B6  1  0.33986600  0.69179200  0.37934800  1
  B  B7  1  0.60393100  0.60453700  0.87352100  1
  O  O0  1  0.15565400  0.93838600  0.15135900  1
  O  O1  1  0.30448900  0.29112400  0.17336700  1
  O  O2  1  0.20186400  0.47232600  0.06786600  1
  O  O3  1  0.47813300  0.83056600  0.39998500  1
  O  O4  1  0.46359400  0.58326200  0.42771700  1
  O  O5  1  0.57159900  0.16248300  0.32577400  1
  O  O6  1  0.92622800  0.34482800  0.67561300  1
  O  O7  1  0.64861700  0.41541900  0.12425000  1
  O  O8  1  0.78985600  0.78075400  0.15895600  1
  O  O9  1  0.01666300  0.92678600  0.58553300  1
  O  O10  1  0.99489100  0.69545000  0.63245900  1
  O  O11  1  0.70630100  0.97477100  0.06635500  1
  O  O12  1  0.28631000  0.02415900  0.92706200  1
  O  O13  1  0.99964400  0.30244800  0.36272300  1
  O  O14  1  0.97793100  0.06903300  0.40633800  1
  O  O15  1  0.20302900  0.21709100  0.83360500  1
  O  O16  1  0.34638000  0.58453900  0.87156500  1
  O  O17  1  0.07051400  0.65287800  0.31642300  1
  O  O18  1  0.42245400  0.83381400  0.66691800  1
  O  O19  1  0.53062000  0.41406600  0.56687300  1
  O  O20  1  0.51810200  0.16887600  0.59820600  1
  O  O21  1  0.79273600  0.52535300  0.92506700  1
  O  O22  1  0.68978900  0.70844900  0.82161600  1
  O  O23  1  0.83734900  0.06296300  0.84516700  1
loop_
_geom_bond_atom_site_label_1
_geom_bond_atom_site_label_2
_geom_bond_distance
_geom_bond_site_symmetry_2
Li0 O20 1.951629 1_565
Li0 O18 2.070378 1_555
Li0 O9 2.071515 1_655
Li0 O3 2.216280 1_555
Li0 O23 2.421956 1_565
Li1 O3 1.967361 1_545
Li1 O5 2.071178 1_555
Li1 O14 2.092083 1_455
Li1 O0 2.123082 1_545
Li1 O20 2.550377 1_555
Fe0 O10 1.864877 1_555
Fe0 O19 1.967757 1_555
Fe0 O22 2.054119 1_555
Fe0 O4 2.067082 1_555
Fe0 O18 2.077648 1_555
Fe1 O0 1.895780 1_545
Fe1 O1 1.969054 1_555
Fe1 O11 1.977599 1_545
Fe1 O12 2.030209 1_554
Fe1 O5 2.119692 1_555
Fe2 O17 2.038504 1_655
Fe2 O14 2.042137 1_565
Fe2 O3 2.069546 1_555
Fe2 O9 2.202686 1_655
Fe2 O8 2.214598 1_555
Fe3 O16 1.861088 1_555
Fe3 O21 1.957690 1_455
Fe3 O15 1.960762 1_555
Fe3 O6 2.031010 1_455
Fe3 O2 2.075719 1_556
Fe4 O7 1.860165 1_555
Fe4 O2 1.951795 1_655
Fe4 O8 1.969449 1_555
Fe4 O17 2.035460 1_655
Fe4 O21 2.064721 1_554
Fe5 O20 2.028373 1_555
Fe5 O6 2.041646 1_455
Fe5 O9 2.070755 1_545
Fe5 O15 2.205080 1_555
Fe5 O14 2.225931 1_455
Fe6 O13 1.865663 1_455
Fe6 O4 1.969551 1_555
Fe6 O19 2.058098 1_555
Fe6 O1 2.060754 1_555
Fe6 O5 2.081549 1_555
Fe7 O23 1.879566 1_565
Fe7 O22 1.974356 1_555
Fe7 O12 1.980319 1_565
Fe7 O11 2.045673 1_556
Fe7 O18 2.111930 1_555
B0 O20 1.359119 1_555
B0 O6 1.394801 1_555
B0 O19 1.419178 1_555
B1 O7 1.344252 1_555
B1 O2 1.392546 1_555
B1 O1 1.415784 1_555
B2 O13 1.359312 1_555
B2 O14 1.381150 1_555
B2 O5 1.435248 1_555
B3 O23 1.367786 1_455
B3 O15 1.379939 1_555
B3 O12 1.417911 1_555
B4 O10 1.360427 1_455
B4 O9 1.378967 1_555
B4 O18 1.436170 1_555
B5 O0 1.375201 1_655
B5 O8 1.379994 1_555
B5 O11 1.413267 1_555
B6 O3 1.363474 1_555
B6 O17 1.395078 1_555
B6 O4 1.416718 1_555
B7 O16 1.343960 1_555
B7 O21 1.394089 1_555
B7 O22 1.414876 1_555
