# generated using pymatgen
data_Y5O4F7
_symmetry_space_group_name_H-M   'P 1'
_cell_length_a   14.28694606
_cell_length_b   14.28694606
_cell_length_c   10.95314300
_cell_angle_alpha   90.00000000
_cell_angle_beta   90.00000000
_cell_angle_gamma   157.33077456
_symmetry_Int_Tables_number   1
_chemical_formula_structural   Y5O4F7
_chemical_formula_sum   'Y20 O16 F28'
_cell_volume   861.67021780
_cell_formula_units_Z   4
loop_
 _symmetry_equiv_pos_site_id
 _symmetry_equiv_pos_as_xyz
  1  'x, y, z'
loop_
 _atom_site_type_symbol
 _atom_site_label
 _atom_site_symmetry_multiplicity
 _atom_site_fract_x
 _atom_site_fract_y
 _atom_site_fract_z
 _atom_site_occupancy
  Y  Y0  1  0.69729400  0.79642000  0.89771500  1
  Y  Y1  1  0.30062900  0.20216800  0.89607700  1
  Y  Y2  1  0.48303800  0.98204600  0.88824900  1
  Y  Y3  1  0.95652500  0.66161200  0.89693200  1
  Y  Y4  1  0.13131400  0.42655600  0.89246700  1
  Y  Y5  1  0.42655600  0.13131400  0.10753300  1
  Y  Y6  1  0.66161200  0.95652500  0.10306800  1
  Y  Y7  1  0.98204600  0.48303800  0.11175100  1
  Y  Y8  1  0.20216800  0.30062900  0.10392300  1
  Y  Y9  1  0.79642000  0.69729400  0.10228500  1
  Y  Y10  1  0.70216800  0.80062900  0.39607700  1
  Y  Y11  1  0.29642000  0.19729400  0.39771500  1
  Y  Y12  1  0.48204600  0.98303800  0.38824900  1
  Y  Y13  1  0.92655600  0.63131400  0.39246700  1
  Y  Y14  1  0.16161200  0.45652500  0.39693200  1
  Y  Y15  1  0.45652500  0.16161200  0.60306800  1
  Y  Y16  1  0.63131400  0.92655600  0.60753300  1
  Y  Y17  1  0.98303800  0.48204600  0.61175100  1
  Y  Y18  1  0.19729400  0.29642000  0.60228500  1
  Y  Y19  1  0.80062900  0.70216800  0.60392300  1
  O  O0  1  0.93193500  0.13182800  0.98559100  1
  O  O1  1  0.63247400  0.42694000  0.98726200  1
  O  O2  1  0.81020900  0.21484800  0.98129300  1
  O  O3  1  0.48664800  0.48664800  0.00000000  1
  O  O4  1  0.98672700  0.98672700  0.00000000  1
  O  O5  1  0.21484800  0.81020900  0.01870700  1
  O  O6  1  0.42694000  0.63247400  0.01273800  1
  O  O7  1  0.13182800  0.93193500  0.01440900  1
  O  O8  1  0.63182800  0.43193500  0.48559100  1
  O  O9  1  0.92694000  0.13247400  0.48726200  1
  O  O10  1  0.71484800  0.31020900  0.48129300  1
  O  O11  1  0.48672700  0.48672700  0.50000000  1
  O  O12  1  0.98664800  0.98664800  0.50000000  1
  O  O13  1  0.31020900  0.71484800  0.51870700  1
  O  O14  1  0.43193500  0.63182800  0.51440900  1
  O  O15  1  0.13247400  0.92694000  0.51273800  1
  F  F0  1  0.09935500  0.09934300  0.74904000  1
  F  F1  1  0.59935500  0.59934300  0.75096000  1
  F  F2  1  0.32240300  0.49669700  0.77104300  1
  F  F3  1  0.00485200  0.83215800  0.77466000  1
  F  F4  1  0.47485500  0.81987600  0.80046300  1
  F  F5  1  0.33970700  0.99402400  0.79177900  1
  F  F6  1  0.11323400  0.61047700  0.80539200  1
  F  F7  1  0.71140600  0.31130200  0.97564300  1
  F  F8  1  0.31130200  0.71140600  0.02435700  1
  F  F9  1  0.61047700  0.11323400  0.19460800  1
  F  F10  1  0.99402400  0.33970700  0.20822100  1
  F  F11  1  0.81987600  0.47485500  0.19953700  1
  F  F12  1  0.83215800  0.00485200  0.22534000  1
  F  F13  1  0.49669800  0.32240300  0.22895700  1
  F  F14  1  0.09934300  0.09935500  0.25096000  1
  F  F15  1  0.59934300  0.59935500  0.24904000  1
  F  F16  1  0.99669700  0.82240300  0.27104300  1
  F  F17  1  0.33215800  0.50485200  0.27466000  1
  F  F18  1  0.49402400  0.83970700  0.29177900  1
  F  F19  1  0.31987600  0.97485500  0.30046300  1
  F  F20  1  0.11047700  0.61323400  0.30539200  1
  F  F21  1  0.81130200  0.21140600  0.47564300  1
  F  F22  1  0.21140600  0.81130200  0.52435700  1
  F  F23  1  0.61323400  0.11047700  0.69460800  1
  F  F24  1  0.97485500  0.31987600  0.69953700  1
  F  F25  1  0.83970700  0.49402400  0.70822100  1
  F  F26  1  0.50485200  0.33215800  0.72534000  1
  F  F27  1  0.82240300  0.99669700  0.72895700  1
loop_
_geom_bond_atom_site_label_1
_geom_bond_atom_site_label_2
_geom_bond_distance
_geom_bond_site_symmetry_2
O0 Y4 2.179305 1_655
O0 Y6 2.234541 1_546
O0 Y8 2.284418 1_656
O0 Y0 2.341174 1_545
O1 Y3 2.237821 1_555
O1 Y9 2.301364 1_556
O1 Y5 2.301717 1_556
O1 Y1 2.385383 1_555
O2 Y2 2.293143 1_545
O2 Y7 2.321692 1_556
O2 Y6 2.333927 1_546
O2 Y4 2.352309 1_655
O3 Y8 2.223390 1_555
O3 Y1 2.223390 1_554
O3 Y0 2.306238 1_554
O3 Y9 2.306238 1_555
O4 Y9 2.235612 1_555
O4 Y0 2.235612 1_554
O4 Y8 2.325370 1_665
O4 Y1 2.325370 1_664
O5 Y7 2.293143 1_455
O5 Y2 2.321692 1_554
O5 Y3 2.333927 1_454
O5 Y5 2.352309 1_565
O6 Y6 2.237821 1_555
O6 Y0 2.301364 1_554
O6 Y4 2.301717 1_554
O6 Y8 2.385383 1_555
O7 Y5 2.179305 1_565
O7 Y3 2.234541 1_454
O7 Y1 2.284418 1_564
O7 Y9 2.341174 1_455
O8 Y13 2.179305 1_555
O8 Y15 2.234541 1_555
O8 Y19 2.284418 1_555
O8 Y11 2.341174 1_555
O9 Y14 2.237821 1_655
O9 Y18 2.301364 1_655
O9 Y16 2.301717 1_545
O9 Y10 2.385383 1_545
O10 Y12 2.293143 1_545
O10 Y17 2.321692 1_555
O10 Y15 2.333927 1_555
O10 Y13 2.352309 1_555
O11 Y18 2.235612 1_555
O11 Y11 2.235612 1_555
O11 Y10 2.325370 1_555
O11 Y19 2.325370 1_555
O12 Y10 2.223390 1_555
O12 Y19 2.223390 1_555
O12 Y18 2.306238 1_665
O12 Y11 2.306238 1_665
O13 Y17 2.293143 1_455
O13 Y12 2.321692 1_555
O13 Y14 2.333927 1_555
O13 Y16 2.352309 1_555
O14 Y16 2.179305 1_555
O14 Y14 2.234541 1_555
O14 Y10 2.284418 1_555
O14 Y18 2.341174 1_555
O15 Y15 2.237821 1_565
O15 Y11 2.301364 1_565
O15 Y13 2.301717 1_455
O15 Y19 2.385383 1_455
F0 Y18 2.280063 1_555
F0 Y1 2.285786 1_555
F0 Y19 2.871704 1_445
F0 Y0 2.915327 1_445
F1 Y0 2.280063 1_555
F1 Y19 2.285786 1_555
F1 Y1 2.871704 1_555
F1 Y18 2.915327 1_555
F2 Y4 2.275401 1_555
F2 Y18 2.315218 1_555
F2 Y0 2.573336 1_555
F3 Y3 2.258883 1_455
F3 Y19 2.336521 1_455
F3 Y1 2.518919 1_565
F4 Y16 2.344731 1_555
F4 Y4 2.404741 1_555
F4 Y2 2.409650 1_555
F5 Y15 2.327221 1_565
F5 Y3 2.422767 1_455
F5 Y2 2.446598 1_555
F6 Y17 2.241994 1_455
F6 Y2 2.271087 1_555
F7 Y2 2.316307 1_545
F7 Y7 2.384330 1_556
F7 Y3 2.389550 1_555
F7 Y5 2.438917 1_556
F8 Y7 2.316307 1_455
F8 Y2 2.384330 1_554
F8 Y6 2.389550 1_555
F8 Y4 2.438917 1_554
F9 Y12 2.241994 1_545
F9 Y7 2.271087 1_555
F10 Y14 2.327221 1_655
F10 Y6 2.422767 1_545
F10 Y7 2.446598 1_555
F11 Y13 2.344731 1_555
F11 Y5 2.404741 1_555
F11 Y7 2.409650 1_555
F12 Y6 2.258883 1_545
F12 Y10 2.336521 1_545
F12 Y8 2.518919 1_655
F13 Y5 2.275391 1_555
F13 Y11 2.315225 1_555
F13 Y9 2.573340 1_555
F14 Y11 2.280063 1_555
F14 Y8 2.285786 1_555
F14 Y10 2.871704 1_445
F14 Y9 2.915327 1_445
F15 Y9 2.280063 1_555
F15 Y10 2.285786 1_555
F15 Y8 2.871704 1_555
F15 Y11 2.915327 1_555
F16 Y13 2.275401 1_555
F16 Y9 2.315218 1_555
F16 Y11 2.573336 1_665
F17 Y14 2.258883 1_555
F17 Y8 2.336521 1_555
F17 Y10 2.518919 1_555
F18 Y6 2.327221 1_555
F18 Y14 2.422767 1_555
F18 Y12 2.446598 1_555
F19 Y5 2.344731 1_565
F19 Y13 2.404741 1_455
F19 Y12 2.409650 1_555
F20 Y7 2.241994 1_455
F20 Y12 2.271087 1_555
F21 Y12 2.316307 1_545
F21 Y17 2.384330 1_555
F21 Y14 2.389550 1_655
F21 Y16 2.438917 1_545
F22 Y17 2.316307 1_455
F22 Y12 2.384330 1_555
F22 Y15 2.389550 1_565
F22 Y13 2.438917 1_455
F23 Y2 2.241994 1_545
F23 Y17 2.271087 1_555
F24 Y4 2.344731 1_655
F24 Y16 2.404741 1_545
F24 Y17 2.409650 1_555
F25 Y3 2.327221 1_555
F25 Y15 2.422767 1_555
F25 Y17 2.446598 1_555
F26 Y15 2.258883 1_555
F26 Y1 2.336521 1_555
F26 Y19 2.518919 1_555
F27 Y16 2.275401 1_555
F27 Y0 2.315218 1_555
F27 Y18 2.573336 1_665
