# generated using pymatgen
data_LiTmO2
_symmetry_space_group_name_H-M   'P 1'
_cell_length_a   4.36002379
_cell_length_b   5.90042334
_cell_length_c   4.36002379
_cell_angle_alpha   68.31723299
_cell_angle_beta   90.00000000
_cell_angle_gamma   111.68276701
_symmetry_Int_Tables_number   1
_chemical_formula_structural   LiTmO2
_chemical_formula_sum   'Li2 Tm2 O4'
_cell_volume   95.63667469
_cell_formula_units_Z   2
loop_
 _symmetry_equiv_pos_site_id
 _symmetry_equiv_pos_as_xyz
  1  'x, y, z'
loop_
 _atom_site_type_symbol
 _atom_site_label
 _atom_site_symmetry_multiplicity
 _atom_site_fract_x
 _atom_site_fract_y
 _atom_site_fract_z
 _atom_site_occupancy
  Li  Li0  1  0.25000000  0.50000000  0.25000000  1
  Li  Li1  1  0.50000000  0.00000000  0.50000000  1
  Tm  Tm0  1  0.00000000  0.00000000  -0.00000000  1
  Tm  Tm1  1  0.75000000  0.50000000  0.75000000  1
  O  O0  1  0.77615947  0.55231793  0.22384053  1
  O  O1  1  0.22384053  0.44768207  0.77615947  1
  O  O2  1  0.52615947  0.05231793  0.97384053  1
  O  O3  1  0.97384053  0.94768207  0.52615947  1
loop_
_geom_bond_atom_site_label_1
_geom_bond_atom_site_label_2
_geom_bond_distance
_geom_bond_site_symmetry_2
Li0 O0 2.195842 1_455
Li0 O1 2.195842 1_554
Li0 O1 2.195846 1_555
Li0 O0 2.195846 1_555
Li1 O3 2.195842 1_545
Li1 O2 2.195842 1_555
Li1 O2 2.195846 1_554
Li1 O3 2.195846 1_445
O0 Tm1 2.195842 1_554
O0 Tm1 2.195846 1_555
O0 Tm0 2.252249 1_665
O1 Tm1 2.195842 1_455
O1 Tm1 2.195846 1_555
O1 Tm0 2.252249 1_556
O2 Tm0 2.195842 1_656
O2 Tm0 2.195846 1_556
O2 Tm1 2.252249 1_555
O3 Tm0 2.195842 1_666
O3 Tm0 2.195846 1_665
O3 Tm1 2.252249 1_555
