# generated using pymatgen
data_Na2Ni(H7N3)2
_symmetry_space_group_name_H-M   'P 1'
_cell_length_a   8.55839798
_cell_length_b   8.55839798
_cell_length_c   8.55839798
_cell_angle_alpha   116.07414281
_cell_angle_beta   116.07414281
_cell_angle_gamma   96.94591114
_symmetry_Int_Tables_number   1
_chemical_formula_structural   Na2Ni(H7N3)2
_chemical_formula_sum   'Na4 Ni2 H28 N12'
_cell_volume   465.85738196
_cell_formula_units_Z   2
loop_
 _symmetry_equiv_pos_site_id
 _symmetry_equiv_pos_as_xyz
  1  'x, y, z'
loop_
 _atom_site_type_symbol
 _atom_site_label
 _atom_site_symmetry_multiplicity
 _atom_site_fract_x
 _atom_site_fract_y
 _atom_site_fract_z
 _atom_site_occupancy
  Na  Na0  1  0.73517500  0.60038300  0.33555800  1
  Na  Na1  1  0.39961700  0.73517500  0.13479200  1
  Na  Na2  1  0.60038300  0.26482500  0.86520800  1
  Na  Na3  1  0.26482500  0.39961700  0.66444200  1
  Ni  Ni0  1  0.32419900  0.32419900  0.00000000  1
  Ni  Ni1  1  0.67580100  0.67580100  0.00000000  1
  H  H0  1  0.91181500  0.14585000  0.20154800  1
  H  H1  1  0.64368500  0.91422200  0.55790800  1
  H  H2  1  0.90506400  0.52357900  0.03062300  1
  H  H3  1  0.50704400  0.12555900  0.03062300  1
  H  H4  1  0.28973300  0.08818500  0.23403500  1
  H  H5  1  0.54113700  0.26519400  0.25345600  1
  H  H6  1  0.98826300  0.71231900  0.25345600  1
  H  H7  1  0.91422200  0.35631500  0.27053700  1
  H  H8  1  0.85415000  0.05569800  0.76596500  1
  H  H9  1  0.47642100  0.50704400  0.38148500  1
  H  H10  1  0.87444100  0.90506400  0.38148500  1
  H  H11  1  0.05569800  0.28973300  0.20154800  1
  H  H12  1  0.71231900  0.45886300  0.72405700  1
  H  H13  1  0.26519400  0.01173700  0.72405700  1
  H  H14  1  0.28768100  0.54113700  0.27594300  1
  H  H15  1  0.73480600  0.98826300  0.27594300  1
  H  H16  1  0.94430200  0.71026700  0.79845200  1
  H  H17  1  0.12555900  0.09493600  0.61851500  1
  H  H18  1  0.52357900  0.49295600  0.61851500  1
  H  H19  1  0.14585000  0.94430200  0.23403500  1
  H  H20  1  0.08577800  0.64368500  0.72946300  1
  H  H21  1  0.45886300  0.73480600  0.74654400  1
  H  H22  1  0.01173700  0.28768100  0.74654400  1
  H  H23  1  0.71026700  0.91181500  0.76596500  1
  H  H24  1  0.09493600  0.47642100  0.96937700  1
  H  H25  1  0.49295600  0.87444100  0.96937700  1
  H  H26  1  0.35631500  0.08577800  0.44209200  1
  H  H27  1  0.08818500  0.85415000  0.79845200  1
  N  N0  1  0.86555900  0.59644800  0.12994400  1
  N  N1  1  0.53349500  0.26438500  0.12994400  1
  N  N2  1  0.00185600  0.28397500  0.28583100  1
  N  N3  1  0.40355200  0.53349500  0.26911000  1
  N  N4  1  0.73561500  0.86555900  0.26911000  1
  N  N5  1  0.71602500  0.00185600  0.71788100  1
  N  N6  1  0.28397500  0.99814400  0.28211900  1
  N  N7  1  0.59644800  0.46650500  0.73089000  1
  N  N8  1  0.26438500  0.13444100  0.73089000  1
  N  N9  1  0.99814400  0.71602500  0.71416900  1
  N  N10  1  0.13444100  0.40355200  0.87005600  1
  N  N11  1  0.46650500  0.73561500  0.87005600  1
loop_
_geom_bond_atom_site_label_1
_geom_bond_atom_site_label_2
_geom_bond_distance
_geom_bond_site_symmetry_2
H0 N2 1.026171 1_655
H1 N5 1.029650 1_565
H2 N0 1.031223 1_555
H2 Na2 2.511983 1_554
H3 N1 1.031225 1_555
H3 Na2 2.511983 1_554
H4 N6 1.026171 1_545
H5 N1 1.026837 1_555
H6 N0 1.026844 1_555
H7 N2 1.029656 1_655
H8 N5 1.026171 1_555
H9 N3 1.031223 1_555
H9 Na0 2.511983 1_555
H10 N4 1.031225 1_555
H10 Na0 2.511983 1_555
H11 N2 1.026171 1_555
H12 N7 1.026845 1_555
H13 N8 1.026845 1_555
H14 N3 1.026845 1_555
H15 N4 1.026845 1_555
H16 N9 1.026171 1_555
H17 N8 1.031225 1_555
H17 Na3 2.511983 1_555
H18 N7 1.031223 1_555
H18 Na3 2.511983 1_555
H19 N6 1.026171 1_555
H20 N9 1.029656 1_455
H21 N11 1.026837 1_555
H22 N10 1.026844 1_555
H23 N5 1.026171 1_565
H24 N10 1.031223 1_555
H24 Na1 2.511983 1_556
H25 N11 1.031225 1_555
H25 Na1 2.511983 1_556
H26 N6 1.029650 1_545
H27 N9 1.026171 1_455
N0 Ni1 1.917938 1_555
N0 Na0 2.454816 1_555
N0 Na2 2.570663 1_554
N1 Ni0 1.917932 1_555
N1 Na0 2.454818 1_555
N1 Na2 2.570668 1_554
N2 Na3 2.603017 1_555
N3 Ni0 1.917930 1_555
N3 Na1 2.454817 1_555
N3 Na0 2.570659 1_555
N4 Ni1 1.917932 1_555
N4 Na1 2.454818 1_555
N4 Na0 2.570668 1_555
N5 Na2 2.603017 1_555
N6 Na1 2.603017 1_555
N7 Ni1 1.917930 1_556
N7 Na2 2.454817 1_555
N7 Na3 2.570659 1_555
N8 Ni0 1.917932 1_556
N8 Na2 2.454818 1_555
N8 Na3 2.570668 1_555
N9 Na0 2.603017 1_555
N10 Ni0 1.917938 1_556
N10 Na3 2.454816 1_555
N10 Na1 2.570663 1_556
N11 Ni1 1.917932 1_556
N11 Na3 2.454818 1_555
N11 Na1 2.570668 1_556
