# generated using pymatgen
data_K2Cr2AsHO10
_symmetry_space_group_name_H-M   'P 1'
_cell_length_a   7.68862602
_cell_length_b   7.68862602
_cell_length_c   14.43606371
_cell_angle_alpha   90.00000000
_cell_angle_beta   90.00000000
_cell_angle_gamma   120.00000018
_symmetry_Int_Tables_number   1
_chemical_formula_structural   K2Cr2AsHO10
_chemical_formula_sum   'K6 Cr6 As3 H3 O30'
_cell_volume   739.05523075
_cell_formula_units_Z   3
loop_
 _symmetry_equiv_pos_site_id
 _symmetry_equiv_pos_as_xyz
  1  'x, y, z'
loop_
 _atom_site_type_symbol
 _atom_site_label
 _atom_site_symmetry_multiplicity
 _atom_site_fract_x
 _atom_site_fract_y
 _atom_site_fract_z
 _atom_site_occupancy
  K  K0  1  0.55327363  0.01385277  0.01424778  1
  K  K1  1  0.46057915  0.44672637  0.68091478  1
  K  K2  1  0.98614723  0.53942085  0.34758178  1
  K  K3  1  0.38600476  0.39140368  0.18683680  1
  K  K4  1  0.00539791  0.61399524  0.85350280  1
  K  K5  1  0.60859632  0.99460209  0.52016980  1
  Cr  Cr0  1  0.57196239  0.99398345  0.27695904  1
  Cr  Cr1  1  0.42202106  0.42803761  0.94362604  1
  Cr  Cr2  1  0.00601655  0.57797894  0.61029304  1
  Cr  Cr3  1  0.98817721  0.57350167  0.09481946  1
  Cr  Cr4  1  0.58532447  0.01182279  0.76148546  1
  Cr  Cr5  1  0.42649833  0.41467553  0.42815246  1
  As  As0  1  0.86521366  0.88877290  0.16632499  1
  As  As1  1  0.02355923  0.13478634  0.83299099  1
  As  As2  1  0.11122710  0.97644077  0.49965799  1
  H  H0  1  0.94700376  0.96674833  0.97455282  1
  H  H1  1  0.01974557  0.05299624  0.64121982  1
  H  H2  1  0.03325167  0.98025443  0.30788682  1
  O  O0  1  0.75553706  0.13799443  0.34366662  1
  O  O1  1  0.38245737  0.24446294  0.01033362  1
  O  O2  1  0.86200557  0.61754263  0.67699962  1
  O  O3  1  0.53455134  0.12307733  0.19975253  1
  O  O4  1  0.58852599  0.46544866  0.86641853  1
  O  O5  1  0.87692267  0.41147401  0.53308553  1
  O  O6  1  0.37461043  0.85894710  0.33860954  1
  O  O7  1  0.48433768  0.62538957  0.00527654  1
  O  O8  1  0.14105290  0.51566232  0.67194254  1
  O  O9  1  0.63840868  0.82591581  0.21773232  1
  O  O10  1  0.18750613  0.36159132  0.88439832  1
  O  O11  1  0.17408419  0.81249387  0.55106532  1
  O  O12  1  0.89977630  0.01119614  0.06846704  1
  O  O13  1  0.11141884  0.10022370  0.73513404  1
  O  O14  1  0.98880386  0.88858116  0.40180004  1
  O  O15  1  0.05923120  0.02874686  0.24014010  1
  O  O16  1  0.96951566  0.94076880  0.90680610  1
  O  O17  1  0.97125314  0.03048434  0.57347310  1
  O  O18  1  0.83436048  0.65046875  0.15989771  1
  O  O19  1  0.81610726  0.16563952  0.82656371  1
  O  O20  1  0.34953125  0.18389274  0.49323071  1
  O  O21  1  0.15617056  0.76614943  0.03984630  1
  O  O22  1  0.60997887  0.84382944  0.70651230  1
  O  O23  1  0.23385057  0.39002113  0.37317930  1
  O  O24  1  0.08799267  0.49030744  0.16777657  1
  O  O25  1  0.40231477  0.91200733  0.83444357  1
  O  O26  1  0.50969256  0.59768523  0.50111057  1
  O  O27  1  0.84761350  0.40405178  0.02122437  1
  O  O28  1  0.55643929  0.15238650  0.68789037  1
  O  O29  1  0.59594822  0.44356071  0.35455737  1
loop_
_geom_bond_atom_site_label_1
_geom_bond_atom_site_label_2
_geom_bond_distance
_geom_bond_site_symmetry_2
K0 O1 2.683377 1_555
K0 O21 2.696441 1_545
K0 O27 2.709755 1_555
K0 O7 2.763208 1_545
K0 O12 2.786586 1_555
K0 O25 2.790866 1_544
K0 O3 2.831662 1_555
K0 O19 3.229287 1_554
K1 O2 2.683377 1_555
K1 O22 2.696439 1_555
K1 O28 2.709759 1_555
K1 O8 2.763201 1_555
K1 O13 2.786589 1_555
K1 O26 2.790866 1_555
K1 O4 2.831648 1_555
K1 O20 3.229287 1_555
K2 O0 2.683377 1_555
K2 O23 2.696439 1_655
K2 O29 2.709752 1_555
K2 O6 2.763206 1_655
K2 O14 2.786589 1_555
K2 O24 2.790879 1_655
K2 O5 2.831648 1_555
K2 O18 3.229291 1_555
K3 O24 2.765217 1_555
K3 O15 2.770153 1_555
K3 O1 2.781848 1_555
K3 O3 2.819873 1_555
K3 O29 2.825137 1_555
K3 O23 2.931318 1_555
K3 O9 2.939842 1_555
K3 O18 3.022546 1_555
K3 O7 3.052489 1_555
K4 O25 2.765221 1_555
K4 O16 2.770149 1_455
K4 O2 2.781845 1_455
K4 O4 2.819865 1_455
K4 O27 2.825147 1_456
K4 O21 2.931332 1_556
K4 O10 2.939842 1_555
K4 O19 3.022546 1_455
K4 O8 3.052496 1_555
K5 O26 2.765223 1_555
K5 O17 2.770156 1_565
K5 O0 2.781846 1_565
K5 O5 2.819867 1_565
K5 O28 2.825129 1_565
K5 O22 2.931321 1_555
K5 O11 2.939842 1_555
K5 O20 3.022546 1_565
K5 O6 3.052489 1_555
Cr0 O0 1.607078 1_565
Cr0 O3 1.611099 1_565
Cr0 O6 1.611532 1_555
Cr0 O9 1.822634 1_555
Cr1 O1 1.607078 1_556
Cr1 O4 1.611109 1_555
Cr1 O7 1.611531 1_556
Cr1 O10 1.822647 1_555
Cr2 O2 1.607069 1_455
Cr2 O5 1.611109 1_455
Cr2 O8 1.611529 1_555
Cr2 O11 1.822646 1_555
Cr3 O21 1.605894 1_655
Cr3 O27 1.608136 1_555
Cr3 O24 1.611916 1_655
Cr3 O18 1.825183 1_555
Cr4 O22 1.605894 1_545
Cr4 O28 1.608132 1_555
Cr4 O25 1.611926 1_545
Cr4 O19 1.825178 1_555
Cr5 O23 1.605894 1_555
Cr5 O29 1.608138 1_555
Cr5 O26 1.611926 1_555
Cr5 O20 1.825176 1_555
As0 O12 1.643820 1_565
As0 O15 1.706918 1_665
As0 O9 1.726977 1_555
As0 O18 1.728385 1_555
As1 O13 1.643804 1_555
As1 O16 1.706918 1_445
As1 O10 1.726975 1_555
As1 O19 1.728393 1_455
As2 O14 1.643819 1_455
As2 O17 1.706918 1_465
As2 O11 1.726970 1_555
As2 O20 1.728388 1_565
H0 O16 1.030003 1_555
H0 O12 1.486874 1_566
H1 O17 1.030005 1_455
H1 O13 1.486869 1_555
H2 O15 1.030005 1_565
H2 O14 1.486855 1_455
