# generated using pymatgen
data_SnGeO3
_symmetry_space_group_name_H-M   'P 1'
_cell_length_a   7.15438283
_cell_length_b   11.74797256
_cell_length_c   13.32631948
_cell_angle_alpha   60.08063355
_cell_angle_beta   90.00000000
_cell_angle_gamma   90.00000000
_symmetry_Int_Tables_number   1
_chemical_formula_structural   SnGeO3
_chemical_formula_sum   'Sn12 Ge12 O36'
_cell_volume   970.79660697
_cell_formula_units_Z   12
loop_
 _symmetry_equiv_pos_site_id
 _symmetry_equiv_pos_as_xyz
  1  'x, y, z'
loop_
 _atom_site_type_symbol
 _atom_site_label
 _atom_site_symmetry_multiplicity
 _atom_site_fract_x
 _atom_site_fract_y
 _atom_site_fract_z
 _atom_site_occupancy
  Sn  Sn0  1  0.68327731  0.78515088  0.89734251  1
  Sn  Sn1  1  0.03428714  0.87183032  0.67852477  1
  Sn  Sn2  1  0.31672269  0.78515088  0.39734251  1
  Sn  Sn3  1  0.96571286  0.87183032  0.17852477  1
  Sn  Sn4  1  0.37610355  0.58072530  0.83256495  1
  Sn  Sn5  1  0.62389645  0.58072530  0.33256495  1
  Sn  Sn6  1  0.37610355  0.41927470  0.66743505  1
  Sn  Sn7  1  0.62389645  0.41927470  0.16743505  1
  Sn  Sn8  1  0.03428714  0.12816968  0.82147523  1
  Sn  Sn9  1  0.68327731  0.21484912  0.60265749  1
  Sn  Sn10  1  0.96571286  0.12816968  0.32147523  1
  Sn  Sn11  1  0.31672269  0.21484912  0.10265749  1
  Ge  Ge0  1  0.17058357  0.74622262  0.95548095  1
  Ge  Ge1  1  0.59287701  0.85350419  0.60861219  1
  Ge  Ge2  1  0.82941643  0.74622262  0.45548095  1
  Ge  Ge3  1  0.87626654  0.54637788  0.84388489  1
  Ge  Ge4  1  0.40712299  0.85350419  0.10861219  1
  Ge  Ge5  1  0.87626654  0.45362212  0.65611511  1
  Ge  Ge6  1  0.12373346  0.54637788  0.34388489  1
  Ge  Ge7  1  0.59287701  0.14649581  0.89138781  1
  Ge  Ge8  1  0.12373346  0.45362212  0.15611511  1
  Ge  Ge9  1  0.17058357  0.25377738  0.54451905  1
  Ge  Ge10  1  0.40712299  0.14649581  0.39138781  1
  Ge  Ge11  1  0.82941643  0.25377738  0.04451905  1
  O  O0  1  0.01577462  0.85242635  0.84797640  1
  O  O1  1  0.50000000  0.00000000  0.50000000  1
  O  O2  1  0.72670514  0.87968485  0.70738209  1
  O  O3  1  0.37152434  0.72039660  0.89482533  1
  O  O4  1  0.78069089  0.80907719  0.54794717  1
  O  O5  1  0.41685342  0.74065867  0.66939577  1
  O  O6  1  0.98422538  0.85242635  0.34797640  1
  O  O7  1  0.50000000  0.00000000  0.00000000  1
  O  O8  1  0.68938856  0.61242876  0.88265565  1
  O  O9  1  0.06018666  0.65705941  0.77977195  1
  O  O10  1  0.27329486  0.87968485  0.20738209  1
  O  O11  1  0.62847566  0.72039660  0.39482533  1
  O  O12  1  0.96047102  0.60015615  0.53630743  1
  O  O13  1  0.21930911  0.80907719  0.04794717  1
  O  O14  1  0.76916996  0.50000000  0.75000000  1
  O  O15  1  0.58314658  0.74065867  0.16939577  1
  O  O16  1  0.96047102  0.39984385  0.96369257  1
  O  O17  1  0.31061144  0.61242876  0.38265565  1
  O  O18  1  0.93981334  0.65705941  0.27977195  1
  O  O19  1  0.06018666  0.34294059  0.72022805  1
  O  O20  1  0.68938856  0.38757124  0.61734435  1
  O  O21  1  0.03952898  0.60015615  0.03630743  1
  O  O22  1  0.41685342  0.25934133  0.83060423  1
  O  O23  1  0.23083004  0.50000000  0.25000000  1
  O  O24  1  0.78069089  0.19092281  0.95205283  1
  O  O25  1  0.03952898  0.39984385  0.46369257  1
  O  O26  1  0.37152434  0.27960340  0.60517467  1
  O  O27  1  0.72670514  0.12031515  0.79261791  1
  O  O28  1  0.93981334  0.34294059  0.22022805  1
  O  O29  1  0.31061144  0.38757124  0.11734435  1
  O  O30  1  0.01577462  0.14757365  0.65202360  1
  O  O31  1  0.58314658  0.25934133  0.33060423  1
  O  O32  1  0.21930911  0.19092281  0.45205283  1
  O  O33  1  0.62847566  0.27960340  0.10517467  1
  O  O34  1  0.27329486  0.12031515  0.29261791  1
  O  O35  1  0.98422538  0.14757365  0.15202360  1
loop_
_geom_bond_atom_site_label_1
_geom_bond_atom_site_label_2
_geom_bond_distance
_geom_bond_site_symmetry_2
Ge0 O0 1.747209 1_555
Ge0 O3 1.748368 1_555
Ge0 O13 1.758653 1_556
Ge0 O21 1.772032 1_556
Ge1 O5 1.711239 1_555
Ge1 O1 1.735942 1_565
Ge1 O2 1.774164 1_555
Ge1 O4 1.775504 1_555
Ge2 O6 1.747209 1_555
Ge2 O11 1.748368 1_555
Ge2 O4 1.758653 1_555
Ge2 O12 1.772032 1_555
Ge3 O9 1.744678 1_655
Ge3 O8 1.748305 1_555
Ge3 O14 1.768984 1_555
Ge3 O16 1.770233 1_555
Ge4 O15 1.711239 1_555
Ge4 O7 1.735942 1_565
Ge4 O10 1.774164 1_555
Ge4 O13 1.775504 1_555
Ge5 O19 1.744678 1_655
Ge5 O20 1.748305 1_555
Ge5 O14 1.768984 1_555
Ge5 O12 1.770233 1_555
Ge6 O18 1.744678 1_455
Ge6 O17 1.748305 1_555
Ge6 O23 1.768984 1_555
Ge6 O25 1.770233 1_555
Ge7 O22 1.711239 1_555
Ge7 O7 1.735942 1_556
Ge7 O27 1.774164 1_555
Ge7 O24 1.775504 1_555
Ge8 O28 1.744678 1_455
Ge8 O29 1.748305 1_555
Ge8 O23 1.768984 1_555
Ge8 O21 1.770233 1_555
Ge9 O30 1.747209 1_555
Ge9 O26 1.748368 1_555
Ge9 O32 1.758653 1_555
Ge9 O25 1.772032 1_555
Ge10 O31 1.711239 1_555
Ge10 O1 1.735942 1_555
Ge10 O34 1.774164 1_555
Ge10 O32 1.775504 1_555
Ge11 O35 1.747209 1_555
Ge11 O33 1.748368 1_555
Ge11 O24 1.758653 1_554
Ge11 O16 1.772032 1_554
O0 Sn1 2.157617 1_555
O0 Sn0 2.489481 1_455
O2 Sn0 2.221200 1_555
O2 Sn1 2.243716 1_655
O3 Sn4 2.177150 1_555
O3 Sn0 2.362198 1_555
O5 Sn4 2.065879 1_555
O6 Sn3 2.157617 1_555
O6 Sn2 2.489481 1_655
O8 Sn0 2.133960 1_555
O8 Sn4 2.419922 1_555
O9 Sn1 2.196574 1_555
O9 Sn4 2.403799 1_555
O10 Sn2 2.221200 1_555
O10 Sn3 2.243716 1_455
O11 Sn5 2.177150 1_555
O11 Sn2 2.362198 1_555
O15 Sn5 2.065879 1_555
O17 Sn2 2.133960 1_555
O17 Sn5 2.419922 1_555
O18 Sn3 2.196574 1_555
O18 Sn5 2.403799 1_555
O19 Sn8 2.196574 1_555
O19 Sn6 2.403799 1_555
O20 Sn9 2.133960 1_555
O20 Sn6 2.419922 1_555
O22 Sn6 2.065879 1_555
O26 Sn6 2.177150 1_555
O26 Sn9 2.362198 1_555
O27 Sn9 2.221200 1_555
O27 Sn8 2.243716 1_655
O28 Sn10 2.196574 1_555
O28 Sn7 2.403799 1_555
O29 Sn11 2.133960 1_555
O29 Sn7 2.419922 1_555
O30 Sn8 2.157617 1_555
O30 Sn9 2.489481 1_455
O31 Sn7 2.065879 1_555
O33 Sn7 2.177150 1_555
O33 Sn11 2.362198 1_555
O34 Sn11 2.221200 1_555
O34 Sn10 2.243716 1_455
O35 Sn10 2.157617 1_555
O35 Sn11 2.489481 1_655
