# generated using pymatgen
data_Li3(FeS2)2
_symmetry_space_group_name_H-M   'P 1'
_cell_length_a   6.14444200
_cell_length_b   9.85472900
_cell_length_c   10.27912600
_cell_angle_alpha   90.00000000
_cell_angle_beta   90.00000000
_cell_angle_gamma   90.00000000
_symmetry_Int_Tables_number   1
_chemical_formula_structural   Li3(FeS2)2
_chemical_formula_sum   'Li12 Fe8 S16'
_cell_volume   622.41969239
_cell_formula_units_Z   4
loop_
 _symmetry_equiv_pos_site_id
 _symmetry_equiv_pos_as_xyz
  1  'x, y, z'
loop_
 _atom_site_type_symbol
 _atom_site_label
 _atom_site_symmetry_multiplicity
 _atom_site_fract_x
 _atom_site_fract_y
 _atom_site_fract_z
 _atom_site_occupancy
  Li  Li0  1  0.03925100  0.15233600  0.09238800  1
  Li  Li1  1  0.03925100  0.15233600  0.40761200  1
  Li  Li2  1  0.09796700  0.76430900  0.25000000  1
  Li  Li3  1  0.40203300  0.26430900  0.75000000  1
  Li  Li4  1  0.46074900  0.65233600  0.90761200  1
  Li  Li5  1  0.46074900  0.65233600  0.59238800  1
  Li  Li6  1  0.53925100  0.34766400  0.09238800  1
  Li  Li7  1  0.53925100  0.34766400  0.40761200  1
  Li  Li8  1  0.59796700  0.73569100  0.25000000  1
  Li  Li9  1  0.90203300  0.23569100  0.75000000  1
  Li  Li10  1  0.96074900  0.84766400  0.59238800  1
  Li  Li11  1  0.96074900  0.84766400  0.90761200  1
  Fe  Fe0  1  0.04928600  0.47329500  0.12578400  1
  Fe  Fe1  1  0.04928600  0.47329500  0.37421600  1
  Fe  Fe2  1  0.45071400  0.97329500  0.62578400  1
  Fe  Fe3  1  0.45071400  0.97329500  0.87421600  1
  Fe  Fe4  1  0.54928600  0.02670500  0.12578400  1
  Fe  Fe5  1  0.54928600  0.02670500  0.37421600  1
  Fe  Fe6  1  0.95071400  0.52670500  0.62578400  1
  Fe  Fe7  1  0.95071400  0.52670500  0.87421600  1
  S  S0  1  0.14130600  0.67307300  0.75000000  1
  S  S1  1  0.18681700  0.36580500  0.55074600  1
  S  S2  1  0.18681700  0.36580500  0.94925400  1
  S  S3  1  0.17484300  0.04819400  0.75000000  1
  S  S4  1  0.32515700  0.54819400  0.25000000  1
  S  S5  1  0.31318300  0.86580500  0.05074600  1
  S  S6  1  0.31318300  0.86580500  0.44925400  1
  S  S7  1  0.35869400  0.17307300  0.25000000  1
  S  S8  1  0.64130600  0.82692700  0.75000000  1
  S  S9  1  0.68681700  0.13419500  0.55074600  1
  S  S10  1  0.68681700  0.13419500  0.94925400  1
  S  S11  1  0.67484300  0.45180600  0.75000000  1
  S  S12  1  0.82515700  0.95180600  0.25000000  1
  S  S13  1  0.81318300  0.63419500  0.05074600  1
  S  S14  1  0.81318300  0.63419500  0.44925400  1
  S  S15  1  0.85869400  0.32692700  0.25000000  1
loop_
_geom_bond_atom_site_label_1
_geom_bond_atom_site_label_2
_geom_bond_distance
_geom_bond_site_symmetry_2
Li0 S7 2.553255 1_555
Li0 S15 2.610722 1_455
Li0 S10 2.624137 1_454
Li0 S2 2.722552 1_554
Li0 S12 2.874112 1_445
Li1 S7 2.553255 1_555
Li1 S15 2.610722 1_455
Li1 S9 2.624137 1_455
Li1 S1 2.722552 1_555
Li1 S12 2.874112 1_445
Li2 S12 2.494790 1_455
Li2 S4 2.546478 1_555
Li2 S5 2.635161 1_555
Li2 S6 2.635161 1_555
Li2 S13 2.983457 1_455
Li2 S14 2.983457 1_455
Li3 S11 2.494790 1_555
Li3 S3 2.546478 1_555
Li3 S1 2.635161 1_555
Li3 S2 2.635161 1_555
Li3 S9 2.983457 1_555
Li3 S10 2.983457 1_555
Li4 S0 2.553255 1_555
Li4 S8 2.610722 1_555
Li4 S13 2.624137 1_556
Li4 S5 2.722552 1_556
Li4 S11 2.874112 1_555
Li5 S0 2.553255 1_555
Li5 S8 2.610722 1_555
Li5 S14 2.624137 1_555
Li5 S6 2.722552 1_555
Li5 S11 2.874112 1_555
Li6 S15 2.553255 1_555
Li6 S7 2.610722 1_555
Li6 S2 2.624137 1_554
Li6 S10 2.722552 1_554
Li6 S4 2.874112 1_555
Li7 S15 2.553255 1_555
Li7 S7 2.610722 1_555
Li7 S1 2.624137 1_555
Li7 S9 2.722552 1_555
Li7 S4 2.874112 1_555
Li8 S4 2.494790 1_555
Li8 S12 2.546478 1_555
Li8 S13 2.635161 1_555
Li8 S14 2.635161 1_555
Li8 S6 2.983457 1_555
Li8 S5 2.983457 1_555
Li9 S3 2.494790 1_655
Li9 S11 2.546478 1_555
Li9 S10 2.635161 1_555
Li9 S9 2.635161 1_555
Li9 S2 2.983457 1_655
Li9 S1 2.983457 1_655
Li10 S8 2.553255 1_555
Li10 S0 2.610722 1_655
Li10 S6 2.624137 1_655
Li10 S14 2.722552 1_555
Li10 S3 2.874112 1_665
Li11 S8 2.553255 1_555
Li11 S0 2.610722 1_655
Li11 S5 2.624137 1_656
Li11 S13 2.722552 1_556
Li11 S3 2.874112 1_665
Fe0 S4 2.246860 1_555
Fe0 S15 2.254395 1_455
Fe0 S2 2.264702 1_554
Fe0 S13 2.283362 1_455
Fe1 S4 2.246860 1_555
Fe1 S15 2.254395 1_455
Fe1 S1 2.264702 1_555
Fe1 S14 2.283362 1_455
Fe2 S3 2.246860 1_565
Fe2 S8 2.254395 1_555
Fe2 S6 2.264702 1_555
Fe2 S9 2.283362 1_565
Fe3 S3 2.246860 1_565
Fe3 S8 2.254395 1_555
Fe3 S5 2.264702 1_556
Fe3 S10 2.283362 1_565
Fe4 S12 2.246860 1_545
Fe4 S7 2.254395 1_555
Fe4 S10 2.264702 1_554
Fe4 S5 2.283362 1_545
Fe5 S12 2.246860 1_545
Fe5 S7 2.254395 1_555
Fe5 S9 2.264702 1_555
Fe5 S6 2.283362 1_545
Fe6 S11 2.246860 1_555
Fe6 S0 2.254395 1_655
Fe6 S14 2.264702 1_555
Fe6 S1 2.283362 1_655
Fe7 S11 2.246860 1_555
Fe7 S0 2.254395 1_655
Fe7 S13 2.264702 1_556
Fe7 S2 2.283362 1_655
