# generated using pymatgen
data_U(NO5)2
_symmetry_space_group_name_H-M   'P 1'
_cell_length_a   7.31322439
_cell_length_b   7.31322439
_cell_length_c   7.71831886
_cell_angle_alpha   76.11271759
_cell_angle_beta   76.11271759
_cell_angle_gamma   47.52711911
_symmetry_Int_Tables_number   1
_chemical_formula_structural   U(NO5)2
_chemical_formula_sum   'U1 N2 O10'
_cell_volume   293.82405672
_cell_formula_units_Z   1
loop_
 _symmetry_equiv_pos_site_id
 _symmetry_equiv_pos_as_xyz
  1  'x, y, z'
loop_
 _atom_site_type_symbol
 _atom_site_label
 _atom_site_symmetry_multiplicity
 _atom_site_fract_x
 _atom_site_fract_y
 _atom_site_fract_z
 _atom_site_occupancy
  U  U0  1  0.91308000  0.91308000  0.07965900  1
  N  N0  1  0.24381100  0.24381100  0.82933000  1
  N  N1  1  0.28756700  0.28756700  0.37457600  1
  O  O0  1  0.98272200  0.98272200  0.25412400  1
  O  O1  1  0.88854100  0.88854100  0.85683800  1
  O  O2  1  0.35945500  0.35945500  0.43916100  1
  O  O3  1  0.19547800  0.19547800  0.42242000  1
  O  O4  1  0.62975700  0.42057200  0.94891000  1
  O  O5  1  0.42057200  0.62975700  0.94891000  1
  O  O6  1  0.01889300  0.39736100  0.84192400  1
  O  O7  1  0.39736100  0.01889300  0.84192400  1
  O  O8  1  0.09120400  0.56155900  0.18611200  1
  O  O9  1  0.56155900  0.09120400  0.18611200  1
loop_
_geom_bond_atom_site_label_1
_geom_bond_atom_site_label_2
_geom_bond_distance
_geom_bond_site_symmetry_2
N0 O6 1.207160 1_555
N0 O7 1.207160 1_555
N1 O3 1.190481 1_555
N1 O2 1.194215 1_555
N1 O8 1.977577 1_555
N1 O9 1.977577 1_555
O0 U0 1.827782 1_555
O1 U0 1.833558 1_556
O4 O5 1.232920 1_555
O4 U0 2.811884 1_546
O5 U0 2.811884 1_456
O8 U0 1.989502 1_455
O9 U0 1.989502 1_545
