# generated using pymatgen
data_Li4Mn3OF11
_symmetry_space_group_name_H-M   'P 1'
_cell_length_a   5.77084400
_cell_length_b   6.05243819
_cell_length_c   6.44728606
_cell_angle_alpha   103.14522418
_cell_angle_beta   98.93849104
_cell_angle_gamma   100.01362266
_symmetry_Int_Tables_number   1
_chemical_formula_structural   Li4Mn3OF11
_chemical_formula_sum   'Li4 Mn3 O1 F11'
_cell_volume   211.43957870
_cell_formula_units_Z   1
loop_
 _symmetry_equiv_pos_site_id
 _symmetry_equiv_pos_as_xyz
  1  'x, y, z'
loop_
 _atom_site_type_symbol
 _atom_site_label
 _atom_site_symmetry_multiplicity
 _atom_site_fract_x
 _atom_site_fract_y
 _atom_site_fract_z
 _atom_site_occupancy
  Li  Li0  1  0.15196900  0.58953100  0.33050200  1
  Li  Li1  1  0.38320500  0.66343100  0.85787100  1
  Li  Li2  1  0.60934200  0.33106600  0.13717300  1
  Li  Li3  1  0.85865100  0.40653000  0.67914700  1
  Mn  Mn0  1  0.72437200  0.86228800  0.37653100  1
  Mn  Mn1  1  0.00195600  0.00160700  0.01111500  1
  Mn  Mn2  1  0.29375200  0.13519800  0.58246000  1
  O  O0  1  0.05100400  0.96961400  0.33349500  1
  F  F0  1  0.04648500  0.69570000  0.90361000  1
  F  F1  1  0.40439300  0.85332100  0.59119000  1
  F  F2  1  0.68121600  0.87899400  0.01086100  1
  F  F3  1  0.18104500  0.41511500  0.58093600  1
  F  F4  1  0.43422600  0.61850300  0.19752400  1
  F  F5  1  0.56202100  0.36031100  0.79312400  1
  F  F6  1  0.82568700  0.59462500  0.42623100  1
  F  F7  1  0.31490700  0.11086600  0.99083900  1
  F  F8  1  0.60206600  0.14575000  0.38590300  1
  F  F9  1  0.95236300  0.30747200  0.11048800  1
  F  F10  1  0.92133800  0.06007700  0.70099600  1
loop_
_geom_bond_atom_site_label_1
_geom_bond_atom_site_label_2
_geom_bond_distance
_geom_bond_site_symmetry_2
Li0 O0 2.466021 1_555
Mn0 O0 1.967395 1_655
Mn1 O0 2.111155 1_545
Mn2 O0 1.903846 1_545
F0 Mn1 1.900407 1_566
F0 Li3 2.008279 1_455
F0 Li1 2.045684 1_555
F1 Mn2 1.932032 1_565
F1 Li0 2.169270 1_555
F1 Li1 2.281955 1_555
F1 Mn0 2.474167 1_555
F2 Mn1 1.870167 1_665
F2 Li1 1.933903 1_554
F2 Mn0 2.359058 1_555
F3 Mn2 1.918900 1_555
F3 Li3 2.052429 1_455
F3 Li1 2.080903 1_555
F3 Li0 2.121839 1_555
F4 Li0 1.954991 1_555
F4 Mn0 2.019509 1_555
F4 Li2 2.150554 1_555
F4 Li1 2.248191 1_554
F5 Li3 1.966313 1_555
F5 Mn2 1.967022 1_555
F5 Li2 2.243523 1_556
F5 Li1 2.246960 1_555
F6 Mn0 1.891097 1_555
F6 Li0 2.073629 1_655
F6 Li2 2.192871 1_555
F6 Li3 2.194177 1_555
F7 Mn1 1.847525 1_556
F7 Li2 1.922451 1_556
F7 Mn2 2.655499 1_555
F8 Mn0 1.957661 1_545
F8 Li2 2.157329 1_555
F8 Li3 2.284342 1_555
F8 Mn2 2.339582 1_555
F9 Mn1 1.902944 1_655
F9 Li0 1.990047 1_655
F9 Li2 2.039965 1_555
F10 Mn1 2.104616 1_656
F10 Mn0 2.179461 1_545
F10 Li3 2.220351 1_555
F10 Mn2 2.395456 1_655
