# generated using pymatgen
data_Li9Fe5O12
_symmetry_space_group_name_H-M   'P 1'
_cell_length_a   5.30325294
_cell_length_b   5.30290149
_cell_length_c   10.13804771
_cell_angle_alpha   91.31908183
_cell_angle_beta   88.71683546
_cell_angle_gamma   58.64548990
_symmetry_Int_Tables_number   1
_chemical_formula_structural   Li9Fe5O12
_chemical_formula_sum   'Li9 Fe5 O12'
_cell_volume   243.21061461
_cell_formula_units_Z   1
loop_
 _symmetry_equiv_pos_site_id
 _symmetry_equiv_pos_as_xyz
  1  'x, y, z'
loop_
 _atom_site_type_symbol
 _atom_site_label
 _atom_site_symmetry_multiplicity
 _atom_site_fract_x
 _atom_site_fract_y
 _atom_site_fract_z
 _atom_site_occupancy
  Li  Li0  1  0.20668500  0.79419200  0.73115200  1
  Li  Li1  1  0.27174800  0.72782900  0.19585100  1
  Li  Li2  1  0.18768700  0.33386400  0.24357800  1
  Li  Li3  1  0.66552000  0.81331600  0.24349300  1
  Li  Li4  1  0.00106800  0.99977600  0.99954000  1
  Li  Li5  1  0.33360900  0.18798500  0.75645900  1
  Li  Li6  1  0.81360800  0.66551700  0.75649300  1
  Li  Li7  1  0.72723400  0.27213700  0.80392700  1
  Li  Li8  1  0.79398900  0.20641800  0.26909900  1
  Fe  Fe0  1  0.83519100  0.83470400  0.50005700  1
  Fe  Fe1  1  0.49977400  0.50013800  0.49997400  1
  Fe  Fe2  1  0.16512300  0.16561200  0.49997100  1
  Fe  Fe3  1  0.33444500  0.33366000  0.00009400  1
  Fe  Fe4  1  0.66632100  0.66557400  0.00002800  1
  O  O0  1  0.16909300  0.82994300  0.39208900  1
  O  O1  1  0.65589200  0.99176800  0.88128200  1
  O  O2  1  0.00920700  0.34258900  0.88132000  1
  O  O3  1  0.48866900  0.84286200  0.60860400  1
  O  O4  1  0.15649700  0.51303800  0.60888500  1
  O  O5  1  0.38018500  0.61867200  0.88409600  1
  O  O6  1  0.61877000  0.38040100  0.11617200  1
  O  O7  1  0.84258000  0.48890400  0.39149200  1
  O  O8  1  0.51263300  0.15660200  0.39124000  1
  O  O9  1  0.99182800  0.65569300  0.11864800  1
  O  O10  1  0.34298300  0.00923800  0.11858400  1
  O  O11  1  0.82963500  0.16958900  0.60787300  1
loop_
_geom_bond_atom_site_label_1
_geom_bond_atom_site_label_2
_geom_bond_distance
_geom_bond_site_symmetry_2
Li0 O5 1.832009 1_555
Li0 O4 2.042756 1_555
Li0 O3 2.044428 1_555
Li0 O11 2.367971 1_465
Li1 O9 1.895214 1_455
Li1 O10 1.900128 1_565
Li1 O6 1.941690 1_555
Li1 O0 2.035363 1_555
Li2 O10 1.903919 1_555
Li2 O9 1.977193 1_455
Li2 O7 2.128061 1_455
Li2 O8 2.142164 1_555
Li3 O9 1.908705 1_555
Li3 O10 1.979145 1_565
Li3 O8 2.121075 1_565
Li3 O7 2.143215 1_555
Li4 O2 2.218725 1_565
Li4 O10 2.221910 1_566
Li4 O1 2.228667 1_455
Li4 O9 2.231962 1_456
Li4 O5 2.248025 1_555
Li4 O6 2.259808 1_466
Li5 O2 1.902924 1_555
Li5 O1 1.977886 1_545
Li5 O3 2.127175 1_545
Li5 O4 2.142101 1_555
Li6 O1 1.907671 1_555
Li6 O2 1.979899 1_655
Li6 O4 2.119468 1_655
Li6 O3 2.143832 1_555
Li7 O1 1.895896 1_545
Li7 O2 1.900469 1_655
Li7 O5 1.941507 1_555
Li7 O11 2.033660 1_555
Li8 O6 1.832093 1_555
Li8 O8 2.042542 1_555
Li8 O7 2.044628 1_555
Li8 O0 2.364395 1_645
Fe0 O4 2.043649 1_655
Fe0 O8 2.046832 1_565
Fe0 O0 2.049332 1_655
Fe0 O11 2.050374 1_565
Fe0 O7 2.099028 1_555
Fe0 O3 2.101069 1_555
Fe1 O11 2.076595 1_555
Fe1 O0 2.076684 1_555
Fe1 O7 2.076753 1_555
Fe1 O3 2.076761 1_555
Fe1 O8 2.076884 1_555
Fe1 O4 2.077229 1_555
Fe2 O7 2.047880 1_455
Fe2 O3 2.049788 1_545
Fe2 O11 2.057982 1_455
Fe2 O0 2.058022 1_545
Fe2 O8 2.104460 1_555
Fe2 O4 2.105226 1_555
Fe3 O6 2.043254 1_555
Fe3 O5 2.043694 1_554
Fe3 O1 2.057935 1_544
Fe3 O9 2.059349 1_455
Fe3 O10 2.102686 1_555
Fe3 O2 2.106619 1_554
Fe4 O6 2.049990 1_555
Fe4 O5 2.050631 1_554
Fe4 O2 2.062628 1_654
Fe4 O10 2.064212 1_565
Fe4 O9 2.104900 1_555
Fe4 O1 2.108017 1_554
