# generated using pymatgen
data_LiTiFe2O5
_symmetry_space_group_name_H-M   'P 1'
_cell_length_a   5.41486900
_cell_length_b   5.45195750
_cell_length_c   7.62950016
_cell_angle_alpha   80.70153115
_cell_angle_beta   70.34496857
_cell_angle_gamma   65.37911459
_symmetry_Int_Tables_number   1
_chemical_formula_structural   LiTiFe2O5
_chemical_formula_sum   'Li2 Ti2 Fe4 O10'
_cell_volume   192.76712453
_cell_formula_units_Z   2
loop_
 _symmetry_equiv_pos_site_id
 _symmetry_equiv_pos_as_xyz
  1  'x, y, z'
loop_
 _atom_site_type_symbol
 _atom_site_label
 _atom_site_symmetry_multiplicity
 _atom_site_fract_x
 _atom_site_fract_y
 _atom_site_fract_z
 _atom_site_occupancy
  Li  Li0  1  0.00466900  0.00712300  0.99296600  1
  Li  Li1  1  0.68534900  0.49481100  0.60613900  1
  Ti  Ti0  1  0.75398000  0.03869100  0.41011800  1
  Ti  Ti1  1  0.08788500  0.51277600  0.78671400  1
  Fe  Fe0  1  0.94885600  0.52376100  0.20846900  1
  Fe  Fe1  1  0.50732200  0.49158100  0.00225800  1
  Fe  Fe2  1  0.19707300  0.99406300  0.60471800  1
  Fe  Fe3  1  0.39863400  0.97246900  0.18584100  1
  O  O0  1  0.23929100  0.28358800  0.00445300  1
  O  O1  1  0.43185400  0.23351900  0.59710100  1
  O  O2  1  0.00846800  0.22092400  0.40075900  1
  O  O3  1  0.90438700  0.27594200  0.78498300  1
  O  O4  1  0.65167700  0.21596000  0.20012900  1
  O  O5  1  0.32047200  0.71180200  0.79374800  1
  O  O6  1  0.77016800  0.70050600  0.00597800  1
  O  O7  1  0.13278800  0.76702100  0.20327400  1
  O  O8  1  0.96847600  0.77533600  0.60487000  1
  O  O9  1  0.59044200  0.77540000  0.40775600  1
loop_
_geom_bond_atom_site_label_1
_geom_bond_atom_site_label_2
_geom_bond_distance
_geom_bond_site_symmetry_2
Li0 O7 2.020593 1_546
Li0 O3 2.031201 1_455
Li0 O4 2.045448 1_456
Li0 O5 2.138928 1_545
Li0 O0 2.367855 1_556
Li0 O6 2.459047 1_446
Li1 O9 2.003777 1_555
Li1 O5 2.012258 1_555
Li1 O3 2.018847 1_555
Li1 O2 2.116887 1_655
Li1 O1 2.375491 1_555
Li1 O8 2.574585 1_555
Fe0 O7 1.951795 1_655
Fe0 O0 1.976543 1_655
Fe0 O6 1.999775 1_555
Fe0 O2 2.018475 1_655
Fe0 O9 2.105000 1_555
Fe1 O4 2.056731 1_555
Fe1 O5 2.109335 1_554
Fe1 O6 2.170804 1_555
Fe1 O0 2.177479 1_555
Fe1 O7 2.198739 1_555
Fe1 O3 2.208813 1_554
Fe2 O3 1.988051 1_465
Fe2 O5 1.992201 1_555
Fe2 O8 2.045176 1_455
Fe2 O2 2.094960 1_565
Fe2 O9 2.127509 1_555
Fe2 O1 2.152354 1_565
Fe3 O0 2.088542 1_565
Fe3 O6 2.108040 1_555
Fe3 O7 2.123928 1_555
Fe3 O9 2.182884 1_555
Fe3 O2 2.233793 1_565
Fe3 O4 2.305300 1_565
O0 Ti1 2.094043 1_554
O1 Ti0 1.864902 1_555
O1 Ti1 2.101488 1_555
O2 Ti0 1.985643 1_455
O3 Ti1 1.933393 1_655
O4 Ti0 1.859638 1_555
O5 Ti1 1.992334 1_555
O6 Ti1 1.988941 1_654
O7 Ti0 2.222150 1_465
O8 Ti1 1.892740 1_655
O8 Ti0 2.168025 1_565
O9 Ti0 1.980723 1_565
