# generated using pymatgen
data_Li3V2CrO6
_symmetry_space_group_name_H-M   'P 1'
_cell_length_a   2.97338521
_cell_length_b   6.69573059
_cell_length_c   11.95391461
_cell_angle_alpha   76.42549766
_cell_angle_beta   89.99223786
_cell_angle_gamma   77.16893556
_symmetry_Int_Tables_number   1
_chemical_formula_structural   Li3V2CrO6
_chemical_formula_sum   'Li6 V4 Cr2 O12'
_cell_volume   225.22578048
_cell_formula_units_Z   2
loop_
 _symmetry_equiv_pos_site_id
 _symmetry_equiv_pos_as_xyz
  1  'x, y, z'
loop_
 _atom_site_type_symbol
 _atom_site_label
 _atom_site_symmetry_multiplicity
 _atom_site_fract_x
 _atom_site_fract_y
 _atom_site_fract_z
 _atom_site_occupancy
  Li  Li0  1  0.33327400  0.33344400  0.08332600  1
  Li  Li1  1  0.33326300  0.33346800  0.58331000  1
  Li  Li2  1  0.99720100  0.00565200  0.24955900  1
  Li  Li3  1  0.99723600  0.00556700  0.74957400  1
  Li  Li4  1  0.66936800  0.66111800  0.41707300  1
  Li  Li5  1  0.66936900  0.66111400  0.91702800  1
  V  V0  1  0.99954700  0.00092600  0.00005700  1
  V  V1  1  0.66712800  0.66573500  0.66661300  1
  V  V2  1  0.99951800  0.00098200  0.50005900  1
  V  V3  1  0.66712900  0.66574900  0.16659700  1
  Cr  Cr0  1  0.33332300  0.33336400  0.33336300  1
  Cr  Cr1  1  0.33330500  0.33338700  0.83333000  1
  O  O0  1  0.49466500  0.01075000  0.88112400  1
  O  O1  1  0.49462100  0.01092900  0.38112200  1
  O  O2  1  0.17205900  0.65573500  0.28553300  1
  O  O3  1  0.17210200  0.65561000  0.78556600  1
  O  O4  1  0.16395300  0.67224700  0.04799100  1
  O  O5  1  0.16396700  0.67221600  0.54798100  1
  O  O6  1  0.50279400  0.99435400  0.61867500  1
  O  O7  1  0.50279400  0.99442900  0.11870200  1
  O  O8  1  0.83057100  0.33901700  0.21657900  1
  O  O9  1  0.83057800  0.33894800  0.71658100  1
  O  O10  1  0.83609100  0.32770800  0.45012100  1
  O  O11  1  0.83614200  0.32755500  0.95014100  1
loop_
_geom_bond_atom_site_label_1
_geom_bond_atom_site_label_2
_geom_bond_distance
_geom_bond_site_symmetry_2
Li0 O4 2.149677 1_555
Li0 O7 2.151011 1_545
Li0 O11 2.185086 1_554
Li0 O8 2.185271 1_455
Li0 O11 2.185691 1_454
Li0 O8 2.185904 1_555
Li1 O5 2.149328 1_555
Li1 O6 2.151652 1_545
Li1 O10 2.185008 1_555
Li1 O9 2.185369 1_455
Li1 O10 2.185514 1_455
Li1 O9 2.185887 1_555
Li2 O8 2.116374 1_555
Li2 O1 2.170192 1_555
Li2 O1 2.170724 1_655
Li2 O7 2.171838 1_645
Li2 O7 2.172208 1_545
Li2 O2 2.220521 1_645
Li3 O9 2.116468 1_555
Li3 O0 2.170039 1_555
Li3 O0 2.170416 1_655
Li3 O6 2.172129 1_645
Li3 O6 2.172621 1_545
Li3 O3 2.220766 1_645
Li4 O10 2.116614 1_555
Li4 O2 2.170241 1_655
Li4 O2 2.170537 1_555
Li4 O5 2.171850 1_555
Li4 O5 2.172747 1_655
Li4 O1 2.219856 1_565
Li5 O11 2.117523 1_555
Li5 O3 2.169675 1_655
Li5 O3 2.170046 1_555
Li5 O4 2.172371 1_556
Li5 O4 2.173278 1_656
Li5 O0 2.218765 1_565
Cr0 O10 2.033422 1_455
Cr0 O10 2.033435 1_555
Cr0 O8 2.033618 1_455
Cr0 O8 2.033668 1_555
Cr0 O2 2.043779 1_555
Cr0 O1 2.044154 1_555
Cr1 O9 2.033425 1_555
Cr1 O9 2.033467 1_455
Cr1 O11 2.033657 1_555
Cr1 O11 2.033726 1_455
Cr1 O3 2.042824 1_555
Cr1 O0 2.045436 1_555
O0 V0 2.047303 1_456
O0 V0 2.047449 1_556
O1 V2 2.047272 1_555
O1 V2 2.047327 1_455
O2 V3 2.047204 1_455
O2 V3 2.047261 1_555
O3 V1 2.047221 1_455
O3 V1 2.047327 1_555
O4 V3 2.047729 1_555
O4 V3 2.047768 1_455
O4 V0 2.083477 1_465
O5 V1 2.047945 1_555
O5 V1 2.048012 1_455
O5 V2 2.084020 1_465
O6 V2 2.047651 1_565
O6 V2 2.047763 1_465
O6 V1 2.083101 1_555
O7 V0 2.047935 1_565
O7 V0 2.048205 1_465
O7 V3 2.083470 1_555
O8 V3 2.072078 1_555
O9 V1 2.072416 1_555
O10 V2 2.072020 1_555
O11 V0 2.071401 1_556
