# generated using pymatgen
data_Li4MnV3(P2O7)4
_symmetry_space_group_name_H-M   'P 1'
_cell_length_a   8.40865200
_cell_length_b   4.97970000
_cell_length_c   26.78349151
_cell_angle_alpha   88.63337522
_cell_angle_beta   90.00000000
_cell_angle_gamma   90.00000000
_symmetry_Int_Tables_number   1
_chemical_formula_structural   Li4MnV3(P2O7)4
_chemical_formula_sum   'Li8 Mn2 V6 P16 O56'
_cell_volume   1121.17446561
_cell_formula_units_Z   2
loop_
 _symmetry_equiv_pos_site_id
 _symmetry_equiv_pos_as_xyz
  1  'x, y, z'
loop_
 _atom_site_type_symbol
 _atom_site_label
 _atom_site_symmetry_multiplicity
 _atom_site_fract_x
 _atom_site_fract_y
 _atom_site_fract_z
 _atom_site_occupancy
  Li  Li0  1  0.36261800  0.15968100  0.32999100  1
  Li  Li1  1  0.35767400  0.15818800  0.83194500  1
  Li  Li2  1  0.86045800  0.34040800  0.41838300  1
  Li  Li3  1  0.86231500  0.33782700  0.91707300  1
  Li  Li4  1  0.36231500  0.66217300  0.08292700  1
  Li  Li5  1  0.36045800  0.65959200  0.58161700  1
  Li  Li6  1  0.85767400  0.84181200  0.16805500  1
  Li  Li7  1  0.86261800  0.84031900  0.67000900  1
  Mn  Mn0  1  0.00003500  0.14922600  0.81628800  1
  Mn  Mn1  1  0.50003500  0.85077400  0.18371200  1
  V  V0  1  0.99994400  0.14903100  0.31816300  1
  V  V1  1  0.49954700  0.35142400  0.43204000  1
  V  V2  1  0.49708700  0.34966400  0.93195300  1
  V  V3  1  0.99708700  0.65033600  0.06804700  1
  V  V4  1  0.99954700  0.64857600  0.56796000  1
  V  V5  1  0.49994400  0.85096900  0.68183700  1
  P  P0  1  0.17949100  0.13876100  0.12937300  1
  P  P1  1  0.78368300  0.17245500  0.02174700  1
  P  P2  1  0.18128200  0.13878100  0.63067600  1
  P  P3  1  0.78498700  0.17100500  0.52189600  1
  P  P4  1  0.28100500  0.33158800  0.22867700  1
  P  P5  1  0.67949100  0.35978700  0.11932400  1
  P  P6  1  0.28952400  0.33166600  0.72793800  1
  P  P7  1  0.68074400  0.36110500  0.61957200  1
  P  P8  1  0.18074400  0.63889500  0.38042800  1
  P  P9  1  0.78952400  0.66833400  0.27206200  1
  P  P10  1  0.17949100  0.64021300  0.88067600  1
  P  P11  1  0.78100500  0.66841200  0.77132300  1
  P  P12  1  0.28498700  0.82899500  0.47810400  1
  P  P13  1  0.68128200  0.86121900  0.36932400  1
  P  P14  1  0.28368300  0.82754500  0.97825300  1
  P  P15  1  0.67949100  0.86123900  0.87062700  1
  O  O0  1  0.84329000  0.00294100  0.37306000  1
  O  O1  1  0.54198300  0.05456300  0.37900500  1
  O  O2  1  0.68284500  0.10364600  0.15115400  1
  O  O3  1  0.83951500  0.99757500  0.87669900  1
  O  O4  1  0.53719200  0.05198200  0.88001900  1
  O  O5  1  0.42705100  0.15293600  0.23122500  1
  O  O6  1  0.67649900  0.09717000  0.65083900  1
  O  O7  1  0.32655700  0.11775600  0.46252100  1
  O  O8  1  0.15543100  0.21697500  0.18738100  1
  O  O9  1  0.43544400  0.14385300  0.72710600  1
  O  O10  1  0.69799000  0.19192700  0.47175000  1
  O  O11  1  0.33026500  0.11833400  0.96354500  1
  O  O12  1  0.65390500  0.27480200  0.06165800  1
  O  O13  1  0.15573400  0.22203300  0.68838800  1
  O  O14  1  0.69517700  0.19331100  0.97171500  1
  O  O15  1  0.18887700  0.30664300  0.27817600  1
  O  O16  1  0.93049400  0.35887600  0.02146600  1
  O  O17  1  0.65398700  0.28013700  0.56182100  1
  O  O18  1  0.83044600  0.38082100  0.28934200  1
  O  O19  1  0.20832500  0.31772200  0.77832800  1
  O  O20  1  0.16926100  0.40774400  0.09875300  1
  O  O21  1  0.93123800  0.35805000  0.52165200  1
  O  O22  1  0.81738400  0.38062600  0.78531500  1
  O  O23  1  0.17696800  0.40116000  0.59885100  1
  O  O24  1  0.04124400  0.44586900  0.37091600  1
  O  O25  1  0.84175200  0.50927500  0.12141200  1
  O  O26  1  0.34260900  0.49719800  0.37659700  1
  O  O27  1  0.03981100  0.45380200  0.87158000  1
  O  O28  1  0.53981100  0.54619800  0.12842000  1
  O  O29  1  0.84260900  0.50280200  0.62340300  1
  O  O30  1  0.34175200  0.49072500  0.87858800  1
  O  O31  1  0.54124400  0.55413100  0.62908400  1
  O  O32  1  0.67696800  0.59884000  0.40114900  1
  O  O33  1  0.31738400  0.61937400  0.21468500  1
  O  O34  1  0.43123800  0.64195000  0.47834800  1
  O  O35  1  0.66926100  0.59225600  0.90124700  1
  O  O36  1  0.70832500  0.68227800  0.22167200  1
  O  O37  1  0.33044600  0.61917900  0.71065800  1
  O  O38  1  0.15398700  0.71986300  0.43817900  1
  O  O39  1  0.43049400  0.64112400  0.97853400  1
  O  O40  1  0.68887700  0.69335700  0.72182400  1
  O  O41  1  0.19517700  0.80668900  0.02828500  1
  O  O42  1  0.65573400  0.77796700  0.31161200  1
  O  O43  1  0.15390500  0.72519800  0.93834200  1
  O  O44  1  0.83026500  0.88166600  0.03645500  1
  O  O45  1  0.19799000  0.80807300  0.52825000  1
  O  O46  1  0.93544400  0.85614700  0.27289400  1
  O  O47  1  0.65543100  0.78302500  0.81261900  1
  O  O48  1  0.82655700  0.88224400  0.53747900  1
  O  O49  1  0.17649900  0.90283000  0.34916100  1
  O  O50  1  0.92705100  0.84706400  0.76877500  1
  O  O51  1  0.03719200  0.94801800  0.11998100  1
  O  O52  1  0.33951500  0.00242500  0.12330100  1
  O  O53  1  0.18284500  0.89635400  0.84884600  1
  O  O54  1  0.04198300  0.94543700  0.62099500  1
  O  O55  1  0.34329000  0.99705900  0.62694000  1
loop_
_geom_bond_atom_site_label_1
_geom_bond_atom_site_label_2
_geom_bond_distance
_geom_bond_site_symmetry_2
Li0 O1 2.058957 1_555
Li0 O49 2.077859 1_545
Li0 O26 2.124012 1_555
Li0 O15 2.132460 1_555
Li1 O53 2.009457 1_545
Li1 O4 2.045413 1_555
Li1 O19 2.053299 1_555
Li1 O30 2.102231 1_555
Li2 O24 2.042337 1_655
Li2 O32 2.054611 1_555
Li2 O10 2.098969 1_555
Li2 O0 2.101368 1_555
Li3 O27 2.003041 1_655
Li3 O3 2.040665 1_545
Li3 O35 2.096300 1_555
Li3 O14 2.141182 1_555
Li4 O28 2.003041 1_555
Li4 O52 2.040665 1_565
Li4 O20 2.096300 1_555
Li4 O41 2.141182 1_555
Li5 O31 2.042337 1_555
Li5 O23 2.054611 1_555
Li5 O45 2.098969 1_555
Li5 O55 2.101368 1_555
Li6 O2 2.009457 1_565
Li6 O51 2.045413 1_655
Li6 O36 2.053299 1_555
Li6 O25 2.102231 1_555
Li7 O54 2.058957 1_655
Li7 O6 2.077859 1_565
Li7 O29 2.124012 1_555
Li7 O40 2.132460 1_555
Mn0 O22 2.080676 1_455
Mn0 O50 2.086008 1_445
Mn0 O53 2.157922 1_545
Mn0 O27 2.170824 1_555
Mn0 O19 2.182784 1_555
Mn0 O3 2.225271 1_445
Mn1 O33 2.080676 1_555
Mn1 O5 2.086008 1_565
Mn1 O2 2.157922 1_565
Mn1 O28 2.170824 1_555
Mn1 O36 2.182784 1_555
Mn1 O52 2.225271 1_565
O0 P13 1.538576 1_545
O0 V0 2.091707 1_555
O1 P13 1.542108 1_545
O1 V1 2.104878 1_555
O2 P5 1.517442 1_555
O3 P15 1.517643 1_555
O4 P15 1.551964 1_545
O4 V2 2.084298 1_555
O5 P4 1.517009 1_555
O6 P7 1.541917 1_555
O6 V5 2.085147 1_545
O7 P12 1.528212 1_545
O7 V1 2.022630 1_555
O8 P0 1.623373 1_555
O8 P4 1.641385 1_555
O9 P6 1.543274 1_555
O9 V5 1.993919 1_545
O10 P3 1.530748 1_555
O10 V1 2.122752 1_555
O11 P14 1.542148 1_545
O11 V2 1.991021 1_555
O12 P1 1.618409 1_555
O12 P5 1.625433 1_555
O13 P2 1.624150 1_555
O13 P6 1.647220 1_555
O14 P1 1.534174 1_556
O14 V2 2.115481 1_555
O15 P4 1.537960 1_555
O15 V0 2.060779 1_455
O16 P1 1.544490 1_555
O16 V3 2.015676 1_555
O17 P7 1.623405 1_555
O17 P3 1.637039 1_555
O18 P9 1.533246 1_555
O18 V0 1.979138 1_555
O19 P6 1.512616 1_555
O20 P0 1.556188 1_555
O20 V3 2.045558 1_455
O21 P3 1.542613 1_555
O21 V4 2.011682 1_555
O22 P11 1.504041 1_555
O23 P2 1.543332 1_555
O23 V4 2.092740 1_455
O24 P8 1.541577 1_555
O24 V0 2.097977 1_455
O25 P5 1.555902 1_555
O25 V3 2.048044 1_555
O26 P8 1.537650 1_555
O26 V1 2.102871 1_555
O27 P10 1.520304 1_555
O28 P5 1.520304 1_555
O29 P7 1.537650 1_555
O29 V4 2.102871 1_555
O30 P10 1.555902 1_555
O30 V2 2.048044 1_555
O31 P7 1.541577 1_555
O31 V5 2.097977 1_555
O32 P13 1.543332 1_555
O32 V1 2.092740 1_555
O33 P4 1.504041 1_555
O34 P12 1.542613 1_555
O34 V1 2.011682 1_555
O35 P15 1.556188 1_555
O35 V2 2.045558 1_555
O36 P9 1.512616 1_555
O37 P6 1.533246 1_555
O37 V5 1.979138 1_555
O38 P8 1.623405 1_555
O38 P12 1.637039 1_555
O39 P14 1.544490 1_555
O39 V2 2.015676 1_555
O40 P11 1.537960 1_555
O40 V5 2.060779 1_555
O41 P14 1.534174 1_554
O41 V3 2.115481 1_455
O42 P13 1.624150 1_555
O42 P9 1.647220 1_555
O43 P14 1.618409 1_555
O43 P10 1.625433 1_555
O44 P1 1.542148 1_565
O44 V3 1.991021 1_555
O45 P12 1.530748 1_555
O45 V4 2.122752 1_455
O46 P9 1.543274 1_555
O46 V0 1.993919 1_565
O47 P15 1.623373 1_555
O47 P11 1.641385 1_555
O48 P3 1.528212 1_565
O48 V4 2.022630 1_555
O49 P8 1.541917 1_555
O49 V0 2.085147 1_465
O50 P11 1.517009 1_555
O51 P0 1.551964 1_565
O51 V3 2.084298 1_455
O52 P0 1.517643 1_555
O53 P10 1.517442 1_555
O54 P2 1.542108 1_565
O54 V4 2.104878 1_455
O55 P2 1.538576 1_565
O55 V5 2.091707 1_555
