# generated using pymatgen
data_Li5MnO4
_symmetry_space_group_name_H-M   'P 1'
_cell_length_a   8.84405200
_cell_length_b   9.46759200
_cell_length_c   9.47431000
_cell_angle_alpha   90.00000000
_cell_angle_beta   90.00000000
_cell_angle_gamma   90.00000000
_symmetry_Int_Tables_number   1
_chemical_formula_structural   Li5MnO4
_chemical_formula_sum   'Li40 Mn8 O32'
_cell_volume   793.30174975
_cell_formula_units_Z   8
loop_
 _symmetry_equiv_pos_site_id
 _symmetry_equiv_pos_as_xyz
  1  'x, y, z'
loop_
 _atom_site_type_symbol
 _atom_site_label
 _atom_site_symmetry_multiplicity
 _atom_site_fract_x
 _atom_site_fract_y
 _atom_site_fract_z
 _atom_site_occupancy
  Li  Li0  1  0.11298900  0.13932600  0.60681900  1
  Li  Li1  1  0.11298900  0.63932600  0.89318100  1
  Li  Li2  1  0.11259300  0.83835600  0.11750200  1
  Li  Li3  1  0.11259300  0.33835600  0.38249800  1
  Li  Li4  1  0.12411800  0.37972000  0.85834300  1
  Li  Li5  1  0.12411800  0.87972000  0.64165700  1
  Li  Li6  1  0.15619200  0.11185900  0.86953600  1
  Li  Li7  1  0.15619200  0.61185900  0.63046400  1
  Li  Li8  1  0.16604800  0.39103500  0.11827800  1
  Li  Li9  1  0.16604800  0.89103500  0.38172200  1
  Li  Li10  1  0.33395200  0.89103500  0.88172200  1
  Li  Li11  1  0.33395200  0.39103500  0.61827800  1
  Li  Li12  1  0.34380800  0.61185900  0.13046400  1
  Li  Li13  1  0.34380800  0.11185900  0.36953600  1
  Li  Li14  1  0.37588200  0.87972000  0.14165700  1
  Li  Li15  1  0.37588200  0.37972000  0.35834300  1
  Li  Li16  1  0.38740700  0.83835600  0.61750200  1
  Li  Li17  1  0.38740700  0.33835600  0.88249800  1
  Li  Li18  1  0.38701100  0.13932600  0.10681900  1
  Li  Li19  1  0.38701100  0.63932600  0.39318100  1
  Li  Li20  1  0.61298900  0.36067400  0.60681900  1
  Li  Li21  1  0.61298900  0.86067400  0.89318100  1
  Li  Li22  1  0.61259300  0.66164400  0.11750200  1
  Li  Li23  1  0.61259300  0.16164400  0.38249800  1
  Li  Li24  1  0.62411800  0.62028000  0.64165700  1
  Li  Li25  1  0.62411800  0.12028000  0.85834300  1
  Li  Li26  1  0.65619200  0.88814100  0.63046400  1
  Li  Li27  1  0.65619200  0.38814100  0.86953600  1
  Li  Li28  1  0.66604800  0.10896500  0.11827800  1
  Li  Li29  1  0.66604800  0.60896500  0.38172200  1
  Li  Li30  1  0.83395200  0.10896500  0.61827800  1
  Li  Li31  1  0.83395200  0.60896500  0.88172200  1
  Li  Li32  1  0.84380800  0.38814100  0.36953600  1
  Li  Li33  1  0.84380800  0.88814100  0.13046400  1
  Li  Li34  1  0.87588200  0.62028000  0.14165700  1
  Li  Li35  1  0.87588200  0.12028000  0.35834300  1
  Li  Li36  1  0.88740700  0.66164400  0.61750200  1
  Li  Li37  1  0.88740700  0.16164400  0.88249800  1
  Li  Li38  1  0.88701100  0.36067400  0.10681900  1
  Li  Li39  1  0.88701100  0.86067400  0.39318100  1
  Mn  Mn0  1  0.09470500  0.11825700  0.14037200  1
  Mn  Mn1  1  0.09470500  0.61825700  0.35962800  1
  Mn  Mn2  1  0.40529500  0.11825700  0.64037200  1
  Mn  Mn3  1  0.40529500  0.61825700  0.85962800  1
  Mn  Mn4  1  0.59470500  0.38174300  0.14037200  1
  Mn  Mn5  1  0.59470500  0.88174300  0.35962800  1
  Mn  Mn6  1  0.90529500  0.38174300  0.64037200  1
  Mn  Mn7  1  0.90529500  0.88174300  0.85962800  1
  O  O0  1  0.00619900  0.48048200  0.24121200  1
  O  O1  1  0.00619900  0.98048200  0.25878800  1
  O  O2  1  0.04172200  0.25131600  0.00037400  1
  O  O3  1  0.04172200  0.75131600  0.49962600  1
  O  O4  1  0.22848200  0.99646300  0.02762400  1
  O  O5  1  0.22848200  0.49646300  0.47237600  1
  O  O6  1  0.23878600  0.23965300  0.24574200  1
  O  O7  1  0.23878600  0.73965300  0.25425800  1
  O  O8  1  0.26121400  0.23965300  0.74574200  1
  O  O9  1  0.26121400  0.73965300  0.75425800  1
  O  O10  1  0.27151800  0.99646300  0.52762400  1
  O  O11  1  0.27151800  0.49646300  0.97237600  1
  O  O12  1  0.45827800  0.25131600  0.50037400  1
  O  O13  1  0.45827800  0.75131600  0.99962600  1
  O  O14  1  0.49380100  0.48048200  0.74121200  1
  O  O15  1  0.49380100  0.98048200  0.75878800  1
  O  O16  1  0.50619900  0.01951800  0.24121200  1
  O  O17  1  0.50619900  0.51951800  0.25878800  1
  O  O18  1  0.54172200  0.24868400  0.00037400  1
  O  O19  1  0.54172200  0.74868400  0.49962600  1
  O  O20  1  0.72848200  0.50353700  0.02762400  1
  O  O21  1  0.72848200  0.00353700  0.47237600  1
  O  O22  1  0.73878600  0.26034700  0.24574200  1
  O  O23  1  0.73878600  0.76034700  0.25425800  1
  O  O24  1  0.76121400  0.26034700  0.74574200  1
  O  O25  1  0.76121400  0.76034700  0.75425800  1
  O  O26  1  0.77151800  0.50353700  0.52762400  1
  O  O27  1  0.77151800  0.00353700  0.97237600  1
  O  O28  1  0.95827800  0.74868400  0.99962600  1
  O  O29  1  0.95827800  0.24868400  0.50037400  1
  O  O30  1  0.99380100  0.01951800  0.74121200  1
  O  O31  1  0.99380100  0.51951800  0.75878800  1
loop_
_geom_bond_atom_site_label_1
_geom_bond_atom_site_label_2
_geom_bond_distance
_geom_bond_site_symmetry_2
Li0 O29 1.990274 1_455
Li0 O30 2.004745 1_455
Li0 O8 2.086406 1_555
Li0 O10 2.087614 1_545
Li1 O28 1.990274 1_455
Li1 O31 2.004745 1_455
Li1 O9 2.086406 1_555
Li1 O11 2.087614 1_555
Li2 O7 1.948742 1_555
Li2 O28 1.957189 1_454
Li2 O4 2.004064 1_555
Li2 O1 2.118449 1_555
Li3 O6 1.948742 1_555
Li3 O29 1.957189 1_455
Li3 O5 2.004064 1_555
Li3 O0 2.118449 1_555
Li4 O2 1.954394 1_556
Li4 O31 1.992427 1_455
Li4 O11 2.021947 1_555
Li4 O8 2.089677 1_555
Li5 O3 1.954394 1_555
Li5 O30 1.992427 1_465
Li5 O10 2.021947 1_555
Li5 O9 2.089677 1_555
Li6 O8 1.924104 1_555
Li6 O4 1.961042 1_546
Li6 O2 2.074794 1_556
Li6 O30 2.074870 1_455
Li7 O9 1.924104 1_555
Li7 O5 1.961042 1_555
Li7 O3 2.074794 1_555
Li7 O31 2.074870 1_455
Li8 O11 1.943501 1_554
Li8 O6 1.981499 1_555
Li8 O0 2.017993 1_555
Li8 O2 2.051007 1_555
Li9 O10 1.943501 1_555
Li9 O7 1.981499 1_555
Li9 O1 2.017993 1_555
Li9 O3 2.051007 1_555
Li10 O4 1.943501 1_556
Li10 O9 1.981499 1_555
Li10 O15 2.017993 1_555
Li10 O13 2.051007 1_555
Li11 O5 1.943501 1_555
Li11 O8 1.981499 1_555
Li11 O14 2.017993 1_555
Li11 O12 2.051007 1_555
Li12 O7 1.924104 1_555
Li12 O11 1.961042 1_554
Li12 O13 2.074794 1_554
Li12 O17 2.074870 1_555
Li13 O6 1.924104 1_555
Li13 O10 1.961042 1_545
Li13 O12 2.074794 1_555
Li13 O16 2.074870 1_555
Li14 O13 1.954394 1_554
Li14 O16 1.992427 1_565
Li14 O4 2.021947 1_555
Li14 O7 2.089677 1_555
Li15 O12 1.954394 1_555
Li15 O17 1.992427 1_555
Li15 O5 2.021947 1_555
Li15 O6 2.089677 1_555
Li16 O9 1.948742 1_555
Li16 O19 1.957189 1_555
Li16 O10 2.004064 1_555
Li16 O15 2.118449 1_555
Li17 O8 1.948742 1_555
Li17 O18 1.957189 1_556
Li17 O11 2.004064 1_555
Li17 O14 2.118449 1_555
Li18 O18 1.990274 1_555
Li18 O16 2.004745 1_555
Li18 O6 2.086406 1_555
Li18 O4 2.087614 1_545
Li19 O19 1.990274 1_555
Li19 O17 2.004745 1_555
Li19 O7 2.086406 1_555
Li19 O5 2.087614 1_555
Li20 O12 1.990274 1_555
Li20 O14 2.004745 1_555
Li20 O24 2.086406 1_555
Li20 O26 2.087614 1_555
Li21 O13 1.990274 1_555
Li21 O15 2.004745 1_555
Li21 O25 2.086406 1_555
Li21 O27 2.087614 1_565
Li22 O23 1.948742 1_555
Li22 O13 1.957189 1_554
Li22 O20 2.004064 1_555
Li22 O17 2.118449 1_555
Li23 O22 1.948742 1_555
Li23 O12 1.957189 1_555
Li23 O21 2.004064 1_555
Li23 O16 2.118449 1_555
Li24 O19 1.954394 1_555
Li24 O14 1.992427 1_555
Li24 O26 2.021947 1_555
Li24 O25 2.089677 1_555
Li25 O18 1.954394 1_556
Li25 O15 1.992427 1_545
Li25 O27 2.021947 1_555
Li25 O24 2.089677 1_555
Li26 O25 1.924104 1_555
Li26 O21 1.961042 1_565
Li26 O19 2.074794 1_555
Li26 O15 2.074870 1_555
Li27 O24 1.924104 1_555
Li27 O20 1.961042 1_556
Li27 O18 2.074794 1_556
Li27 O14 2.074870 1_555
Li28 O27 1.943501 1_554
Li28 O22 1.981499 1_555
Li28 O16 2.017993 1_555
Li28 O18 2.051007 1_555
Li29 O26 1.943501 1_555
Li29 O23 1.981499 1_555
Li29 O17 2.017993 1_555
Li29 O19 2.051007 1_555
Li30 O21 1.943501 1_555
Li30 O24 1.981499 1_555
Li30 O30 2.017993 1_555
Li30 O29 2.051007 1_555
Li31 O20 1.943501 1_556
Li31 O25 1.981499 1_555
Li31 O31 2.017993 1_555
Li31 O28 2.051007 1_555
Li32 O22 1.924104 1_555
Li32 O26 1.961042 1_555
Li32 O29 2.074794 1_555
Li32 O0 2.074870 1_655
Li33 O23 1.924104 1_555
Li33 O27 1.961042 1_564
Li33 O28 2.074794 1_554
Li33 O1 2.074870 1_655
Li34 O28 1.954394 1_554
Li34 O0 1.992427 1_655
Li34 O20 2.021947 1_555
Li34 O23 2.089677 1_555
Li35 O29 1.954394 1_555
Li35 O1 1.992427 1_645
Li35 O21 2.021947 1_555
Li35 O22 2.089677 1_555
Li36 O25 1.948742 1_555
Li36 O3 1.957189 1_655
Li36 O26 2.004064 1_555
Li36 O31 2.118449 1_555
Li37 O24 1.948742 1_555
Li37 O2 1.957189 1_656
Li37 O27 2.004064 1_555
Li37 O30 2.118449 1_555
Li38 O2 1.990274 1_655
Li38 O0 2.004745 1_655
Li38 O22 2.086406 1_555
Li38 O20 2.087614 1_555
Li39 O3 1.990274 1_655
Li39 O1 2.004745 1_655
Li39 O23 2.086406 1_555
Li39 O21 2.087614 1_565
Mn0 O2 1.888341 1_555
Mn0 O1 1.890194 1_545
Mn0 O4 1.967359 1_545
Mn0 O6 1.985274 1_555
Mn1 O3 1.888341 1_555
Mn1 O0 1.890194 1_555
Mn1 O5 1.967359 1_555
Mn1 O7 1.985274 1_555
Mn2 O12 1.888341 1_555
Mn2 O15 1.890194 1_545
Mn2 O10 1.967359 1_545
Mn2 O8 1.985274 1_555
Mn3 O13 1.888341 1_555
Mn3 O14 1.890194 1_555
Mn3 O11 1.967359 1_555
Mn3 O9 1.985274 1_555
Mn4 O18 1.888341 1_555
Mn4 O17 1.890194 1_555
Mn4 O20 1.967359 1_555
Mn4 O22 1.985274 1_555
Mn5 O19 1.888341 1_555
Mn5 O16 1.890194 1_565
Mn5 O21 1.967359 1_565
Mn5 O23 1.985274 1_555
Mn6 O29 1.888341 1_555
Mn6 O31 1.890194 1_555
Mn6 O26 1.967359 1_555
Mn6 O24 1.985274 1_555
Mn7 O28 1.888341 1_555
Mn7 O30 1.890194 1_565
Mn7 O27 1.967359 1_565
Mn7 O25 1.985274 1_555
