# generated using pymatgen
data_BaTlP3O11
_symmetry_space_group_name_H-M   'P 1'
_cell_length_a   12.25812100
_cell_length_b   7.20345500
_cell_length_c   13.12457889
_cell_angle_alpha   68.51917624
_cell_angle_beta   90.00000000
_cell_angle_gamma   90.00000000
_symmetry_Int_Tables_number   1
_chemical_formula_structural   BaTlP3O11
_chemical_formula_sum   'Ba4 Tl4 P12 O44'
_cell_volume   1078.41335975
_cell_formula_units_Z   4
loop_
 _symmetry_equiv_pos_site_id
 _symmetry_equiv_pos_as_xyz
  1  'x, y, z'
loop_
 _atom_site_type_symbol
 _atom_site_label
 _atom_site_symmetry_multiplicity
 _atom_site_fract_x
 _atom_site_fract_y
 _atom_site_fract_z
 _atom_site_occupancy
  Ba  Ba0  1  0.53051400  0.54602200  0.16604500  1
  Ba  Ba1  1  0.96948600  0.54602200  0.66604500  1
  Ba  Ba2  1  0.46948600  0.45397800  0.83395500  1
  Ba  Ba3  1  0.03051400  0.45397800  0.33395500  1
  Tl  Tl0  1  0.74686300  0.81975600  0.89608900  1
  Tl  Tl1  1  0.75313700  0.81975600  0.39608900  1
  Tl  Tl2  1  0.25313700  0.18024400  0.10391100  1
  Tl  Tl3  1  0.24686300  0.18024400  0.60391100  1
  P  P0  1  0.64595100  0.13128900  0.06637600  1
  P  P1  1  0.85404900  0.13128900  0.56637600  1
  P  P2  1  0.35404900  0.86871100  0.93362400  1
  P  P3  1  0.14595100  0.86871100  0.43362400  1
  P  P4  1  0.83220700  0.33601400  0.91502700  1
  P  P5  1  0.66779300  0.33601400  0.41502700  1
  P  P6  1  0.16779300  0.66398600  0.08497300  1
  P  P7  1  0.33220700  0.66398600  0.58497300  1
  P  P8  1  0.81251100  0.34578600  0.12816700  1
  P  P9  1  0.68748900  0.34578600  0.62816700  1
  P  P10  1  0.18748900  0.65421400  0.87183300  1
  P  P11  1  0.31251100  0.65421400  0.37183300  1
  O  O0  1  0.88528400  0.31733800  0.03068600  1
  O  O1  1  0.61471600  0.31733800  0.53068600  1
  O  O2  1  0.11471600  0.68266200  0.96931400  1
  O  O3  1  0.38528400  0.68266200  0.46931400  1
  O  O4  1  0.73125500  0.15081500  0.15733400  1
  O  O5  1  0.76874500  0.15081500  0.65733400  1
  O  O6  1  0.26874500  0.84918500  0.84266600  1
  O  O7  1  0.23125500  0.84918500  0.34266600  1
  O  O8  1  0.71537000  0.22661600  0.95200800  1
  O  O9  1  0.78463000  0.22661600  0.45200800  1
  O  O10  1  0.28463000  0.77338400  0.04799200  1
  O  O11  1  0.21537000  0.77338400  0.54799200  1
  O  O12  1  0.62563400  0.91670600  0.08818600  1
  O  O13  1  0.87436600  0.91670600  0.58818600  1
  O  O14  1  0.37436600  0.08329400  0.91181400  1
  O  O15  1  0.12563400  0.08329400  0.41181400  1
  O  O16  1  0.55130700  0.27415500  0.05132400  1
  O  O17  1  0.94869300  0.27415500  0.55132400  1
  O  O18  1  0.44869300  0.72584500  0.94867600  1
  O  O19  1  0.05130700  0.72584500  0.44867600  1
  O  O20  1  0.81830300  0.55304300  0.84262000  1
  O  O21  1  0.68169700  0.55304300  0.34262000  1
  O  O22  1  0.18169700  0.44695700  0.15738000  1
  O  O23  1  0.31830300  0.44695700  0.65738000  1
  O  O24  1  0.89776000  0.22668300  0.85748800  1
  O  O25  1  0.60224000  0.22668300  0.35748800  1
  O  O26  1  0.10224000  0.77331700  0.14251200  1
  O  O27  1  0.39776000  0.77331700  0.64251200  1
  O  O28  1  0.74080600  0.52784800  0.07968200  1
  O  O29  1  0.75919400  0.52784800  0.57968200  1
  O  O30  1  0.25919400  0.47215200  0.92031800  1
  O  O31  1  0.24080600  0.47215200  0.42031800  1
  O  O32  1  0.88350900  0.31922900  0.22394200  1
  O  O33  1  0.61649100  0.31922900  0.72394200  1
  O  O34  1  0.11649100  0.68077100  0.77605800  1
  O  O35  1  0.38350900  0.68077100  0.27605800  1
  O  O36  1  0.61382400  0.89618800  0.44860000  1
  O  O37  1  0.88617600  0.89618800  0.94860000  1
  O  O38  1  0.38617600  0.10381200  0.55140000  1
  O  O39  1  0.11382400  0.10381200  0.05140000  1
  O  O40  1  0.60853100  0.76938200  0.82895800  1
  O  O41  1  0.89146900  0.76938200  0.32895800  1
  O  O42  1  0.39146900  0.23061800  0.17104200  1
  O  O43  1  0.10853100  0.23061800  0.67104200  1
loop_
_geom_bond_atom_site_label_1
_geom_bond_atom_site_label_2
_geom_bond_distance
_geom_bond_site_symmetry_2
Ba0 O35 2.701964 1_555
Ba0 O12 2.745065 1_555
Ba0 O42 2.821743 1_555
Ba0 O28 2.838232 1_555
Ba0 O18 2.848912 1_554
Ba0 O25 2.853904 1_555
Ba0 O16 2.885618 1_555
Ba0 O21 2.982197 1_555
Ba1 O34 2.701964 1_655
Ba1 O13 2.745065 1_555
Ba1 O43 2.821743 1_655
Ba1 O29 2.838232 1_555
Ba1 O19 2.848912 1_655
Ba1 O24 2.853904 1_555
Ba1 O17 2.885618 1_555
Ba1 O20 2.982197 1_555
Ba2 O33 2.701964 1_555
Ba2 O14 2.745065 1_555
Ba2 O40 2.821743 1_555
Ba2 O30 2.838232 1_555
Ba2 O16 2.848912 1_556
Ba2 O27 2.853904 1_555
Ba2 O18 2.885618 1_555
Ba2 O23 2.982197 1_555
Ba3 O32 2.701964 1_455
Ba3 O15 2.745065 1_555
Ba3 O41 2.821743 1_455
Ba3 O31 2.838232 1_555
Ba3 O17 2.848912 1_455
Ba3 O26 2.853904 1_555
Ba3 O19 2.885618 1_555
Ba3 O22 2.982197 1_555
O0 P4 1.611241 1_554
O0 P8 1.632984 1_555
O1 P5 1.611241 1_555
O1 P9 1.632984 1_555
O2 P6 1.611241 1_556
O2 P10 1.632984 1_555
O3 P7 1.611241 1_555
O3 P11 1.632984 1_555
O4 P0 1.631350 1_555
O4 P8 1.648458 1_555
O5 P1 1.631350 1_555
O5 P9 1.648458 1_555
O6 P2 1.631350 1_555
O6 P10 1.648458 1_555
O7 P3 1.631350 1_555
O7 P11 1.648458 1_555
O8 P4 1.621008 1_555
O8 P0 1.641296 1_556
O9 P5 1.621008 1_555
O9 P1 1.641296 1_555
O10 P6 1.621008 1_555
O10 P2 1.641296 1_554
O11 P7 1.621008 1_555
O11 P3 1.641296 1_555
O12 P0 1.486345 1_565
O13 P1 1.486345 1_565
O14 P2 1.486345 1_545
O15 P3 1.486345 1_545
O16 P0 1.514992 1_555
O17 P1 1.514992 1_555
O18 P2 1.514992 1_555
O19 P3 1.514992 1_555
O20 P4 1.512663 1_555
O20 Tl0 2.436803 1_555
O21 P5 1.512663 1_555
O21 Tl1 2.436803 1_555
O22 P6 1.512663 1_555
O22 Tl2 2.436803 1_555
O23 P7 1.512663 1_555
O23 Tl3 2.436803 1_555
O24 P4 1.507257 1_555
O25 P5 1.507257 1_555
O26 P6 1.507257 1_555
O27 P7 1.507257 1_555
O28 P8 1.512045 1_555
O28 Tl0 2.553891 1_554
O29 P9 1.512045 1_555
O29 Tl1 2.553891 1_555
O30 P10 1.512045 1_555
O30 Tl2 2.553891 1_556
O31 P11 1.512045 1_555
O31 Tl3 2.553891 1_555
O32 P8 1.482556 1_555
O33 P9 1.482556 1_555
O34 P10 1.482556 1_555
O35 P11 1.482556 1_555
O36 Tl1 1.993063 1_555
O37 Tl0 1.993063 1_555
O38 Tl3 1.993063 1_555
O39 Tl2 1.993063 1_555
O40 Tl0 2.004361 1_555
O41 Tl1 2.004361 1_555
O42 Tl2 2.004361 1_555
O43 Tl3 2.004361 1_555
