# generated using pymatgen
data_SrLu2O4
_symmetry_space_group_name_H-M   'P 1'
_cell_length_a   3.30980134
_cell_length_b   9.91226929
_cell_length_c   11.65101766
_cell_angle_alpha   90.00000000
_cell_angle_beta   90.00000000
_cell_angle_gamma   90.00000000
_symmetry_Int_Tables_number   1
_chemical_formula_structural   SrLu2O4
_chemical_formula_sum   'Sr4 Lu8 O16'
_cell_volume   382.24241840
_cell_formula_units_Z   4
loop_
 _symmetry_equiv_pos_site_id
 _symmetry_equiv_pos_as_xyz
  1  'x, y, z'
loop_
 _atom_site_type_symbol
 _atom_site_label
 _atom_site_symmetry_multiplicity
 _atom_site_fract_x
 _atom_site_fract_y
 _atom_site_fract_z
 _atom_site_occupancy
  Sr  Sr0  1  0.75000000  0.24630173  0.65076787  1
  Sr  Sr1  1  0.25000000  0.25369827  0.15076787  1
  Sr  Sr2  1  0.75000000  0.74630173  0.84923213  1
  Sr  Sr3  1  0.25000000  0.75369827  0.34923213  1
  Lu  Lu0  1  0.75000000  0.07314733  0.88801643  1
  Lu  Lu1  1  0.75000000  0.07852399  0.39126027  1
  Lu  Lu2  1  0.25000000  0.42147601  0.89126027  1
  Lu  Lu3  1  0.25000000  0.42685267  0.38801643  1
  Lu  Lu4  1  0.75000000  0.57314733  0.61198357  1
  Lu  Lu5  1  0.75000000  0.57852399  0.10873973  1
  Lu  Lu6  1  0.25000000  0.92147601  0.60873973  1
  Lu  Lu7  1  0.25000000  0.92685267  0.11198357  1
  O  O0  1  0.25000000  0.01860697  0.28322478  1
  O  O1  1  0.75000000  0.07453088  0.07554987  1
  O  O2  1  0.25000000  0.12097445  0.51999829  1
  O  O3  1  0.25000000  0.20960348  0.83214430  1
  O  O4  1  0.75000000  0.29039652  0.33214430  1
  O  O5  1  0.75000000  0.37902555  0.01999829  1
  O  O6  1  0.25000000  0.42546912  0.57554987  1
  O  O7  1  0.75000000  0.48139303  0.78322478  1
  O  O8  1  0.25000000  0.51860697  0.21677522  1
  O  O9  1  0.75000000  0.57453088  0.42445013  1
  O  O10  1  0.25000000  0.62097445  0.98000171  1
  O  O11  1  0.25000000  0.70960348  0.66785570  1
  O  O12  1  0.75000000  0.79039652  0.16785570  1
  O  O13  1  0.75000000  0.87902555  0.48000171  1
  O  O14  1  0.25000000  0.92546912  0.92445013  1
  O  O15  1  0.75000000  0.98139303  0.71677522  1
loop_
_geom_bond_atom_site_label_1
_geom_bond_atom_site_label_2
_geom_bond_distance
_geom_bond_site_symmetry_2
Lu0 O1 2.184998 1_556
Lu0 O15 2.192656 1_545
Lu0 O3 2.234268 1_555
Lu0 O3 2.234268 1_655
Lu0 O14 2.249817 1_545
Lu0 O14 2.249817 1_645
Lu1 O0 2.162363 1_555
Lu1 O0 2.162363 1_655
Lu1 O4 2.210197 1_555
Lu1 O13 2.231467 1_545
Lu1 O2 2.272782 1_555
Lu1 O2 2.272782 1_655
Lu2 O7 2.162363 1_555
Lu2 O7 2.162363 1_455
Lu2 O3 2.210197 1_555
Lu2 O10 2.231467 1_555
Lu2 O5 2.272782 1_556
Lu2 O5 2.272782 1_456
Lu3 O6 2.184998 1_555
Lu3 O8 2.192656 1_555
Lu3 O4 2.234268 1_455
Lu3 O4 2.234268 1_555
Lu3 O9 2.249817 1_455
Lu3 O9 2.249817 1_555
Lu4 O9 2.184998 1_555
Lu4 O7 2.192656 1_555
Lu4 O11 2.234268 1_655
Lu4 O11 2.234268 1_555
Lu4 O6 2.249817 1_555
Lu4 O6 2.249817 1_655
Lu5 O8 2.162363 1_555
Lu5 O8 2.162363 1_655
Lu5 O12 2.210197 1_555
Lu5 O5 2.231467 1_555
Lu5 O10 2.272782 1_554
Lu5 O10 2.272782 1_654
Lu6 O15 2.162363 1_455
Lu6 O15 2.162363 1_555
Lu6 O11 2.210197 1_555
Lu6 O2 2.231467 1_565
Lu6 O13 2.272782 1_555
Lu6 O13 2.272782 1_455
Lu7 O14 2.184998 1_554
Lu7 O0 2.192656 1_565
Lu7 O12 2.234268 1_455
Lu7 O12 2.234268 1_555
Lu7 O1 2.249817 1_465
Lu7 O1 2.249817 1_565
O0 Sr3 2.736149 1_545
O0 Sr1 2.794976 1_555
O1 Sr1 2.580839 1_555
O1 Sr1 2.580839 1_655
O2 Sr0 2.569689 1_555
O2 Sr0 2.569689 1_455
O3 Sr0 2.708638 1_555
O3 Sr0 2.708638 1_455
O4 Sr1 2.708638 1_555
O4 Sr1 2.708638 1_655
O5 Sr1 2.569689 1_655
O5 Sr1 2.569689 1_555
O6 Sr0 2.580839 1_455
O6 Sr0 2.580839 1_555
O7 Sr2 2.736149 1_555
O7 Sr0 2.794976 1_555
O8 Sr1 2.736149 1_555
O8 Sr3 2.794976 1_555
O9 Sr3 2.580839 1_555
O9 Sr3 2.580839 1_655
O10 Sr2 2.569689 1_455
O10 Sr2 2.569689 1_555
O11 Sr2 2.708638 1_455
O11 Sr2 2.708638 1_555
O12 Sr3 2.708638 1_555
O12 Sr3 2.708638 1_655
O13 Sr3 2.569689 1_555
O13 Sr3 2.569689 1_655
O14 Sr2 2.580839 1_555
O14 Sr2 2.580839 1_455
O15 Sr0 2.736149 1_565
O15 Sr2 2.794976 1_555
