# generated using pymatgen
data_K2Cu5H8(Cl4O3)2
_symmetry_space_group_name_H-M   'P 1'
_cell_length_a   11.59085232
_cell_length_b   6.70385100
_cell_length_c   11.90242255
_cell_angle_alpha   90.00000000
_cell_angle_beta   90.76807409
_cell_angle_gamma   90.00000000
_symmetry_Int_Tables_number   1
_chemical_formula_structural   K2Cu5H8(Cl4O3)2
_chemical_formula_sum   'K4 Cu10 H16 Cl16 O12'
_cell_volume   924.77496862
_cell_formula_units_Z   2
loop_
 _symmetry_equiv_pos_site_id
 _symmetry_equiv_pos_as_xyz
  1  'x, y, z'
loop_
 _atom_site_type_symbol
 _atom_site_label
 _atom_site_symmetry_multiplicity
 _atom_site_fract_x
 _atom_site_fract_y
 _atom_site_fract_z
 _atom_site_occupancy
  K  K0  1  0.91516900  0.40854000  0.17619100  1
  K  K1  1  0.08483100  0.90854000  0.32380900  1
  K  K2  1  0.08483100  0.59146000  0.82380900  1
  K  K3  1  0.91516900  0.09146000  0.67619100  1
  Cu  Cu0  1  0.50000000  0.00000000  0.50000000  1
  Cu  Cu1  1  0.50000000  0.50000000  0.00000000  1
  Cu  Cu2  1  0.71964900  0.99398400  0.30531100  1
  Cu  Cu3  1  0.28035100  0.49398400  0.19468900  1
  Cu  Cu4  1  0.28035100  0.00601600  0.69468900  1
  Cu  Cu5  1  0.71964900  0.50601600  0.80531100  1
  Cu  Cu6  1  0.48693200  0.16033000  0.23728600  1
  Cu  Cu7  1  0.51306800  0.66033000  0.26271400  1
  Cu  Cu8  1  0.51306800  0.83967000  0.76271400  1
  Cu  Cu9  1  0.48693200  0.33967000  0.73728600  1
  H  H0  1  0.61433100  0.89674400  0.13218300  1
  H  H1  1  0.38566900  0.39674400  0.36781700  1
  H  H2  1  0.38566900  0.10325600  0.86781700  1
  H  H3  1  0.61433100  0.60325600  0.63218300  1
  H  H4  1  0.61936500  0.26420400  0.40945500  1
  H  H5  1  0.38063500  0.76420400  0.09054500  1
  H  H6  1  0.38063500  0.73579600  0.59054500  1
  H  H7  1  0.61936500  0.23579600  0.90945500  1
  H  H8  1  0.87822100  0.64005400  0.46488000  1
  H  H9  1  0.12177900  0.14005400  0.03512000  1
  H  H10  1  0.12177900  0.35994600  0.53512000  1
  H  H11  1  0.87822100  0.85994600  0.96488000  1
  H  H12  1  0.96254100  0.49290800  0.41056200  1
  H  H13  1  0.03745900  0.99290800  0.08943800  1
  H  H14  1  0.03745900  0.50709200  0.58943700  1
  H  H15  1  0.96254100  0.00709200  0.91056300  1
  Cl  Cl0  1  0.36197600  0.91028800  0.36642600  1
  Cl  Cl1  1  0.63802400  0.41028800  0.13357400  1
  Cl  Cl2  1  0.63802400  0.08971200  0.63357400  1
  Cl  Cl3  1  0.36197600  0.58971200  0.86642600  1
  Cl  Cl4  1  0.37452100  0.14751800  0.08021900  1
  Cl  Cl5  1  0.62547900  0.64751800  0.41978100  1
  Cl  Cl6  1  0.62547900  0.85248200  0.91978100  1
  Cl  Cl7  1  0.37452100  0.35248200  0.58021900  1
  Cl  Cl8  1  0.85416100  0.13812900  0.41126000  1
  Cl  Cl9  1  0.14583900  0.63812900  0.08874000  1
  Cl  Cl10  1  0.14583900  0.86187100  0.58874000  1
  Cl  Cl11  1  0.85416100  0.36187100  0.91126000  1
  Cl  Cl12  1  0.83854700  0.88667300  0.17037800  1
  Cl  Cl13  1  0.16145300  0.38667300  0.32962200  1
  Cl  Cl14  1  0.16145300  0.11332700  0.82962200  1
  Cl  Cl15  1  0.83854700  0.61332700  0.67037800  1
  O  O0  1  0.58666500  0.91436800  0.20936200  1
  O  O1  1  0.41333500  0.41436800  0.29063800  1
  O  O2  1  0.41333500  0.08563200  0.79063800  1
  O  O3  1  0.58666500  0.58563200  0.70936200  1
  O  O4  1  0.58763700  0.13936600  0.37899200  1
  O  O5  1  0.41236300  0.63936600  0.12100800  1
  O  O6  1  0.41236300  0.86063400  0.62100800  1
  O  O7  1  0.58763700  0.36063400  0.87899200  1
  O  O8  1  0.93134100  0.62820700  0.40255800  1
  O  O9  1  0.06865900  0.12820700  0.09744200  1
  O  O10  1  0.06865900  0.37179300  0.59744200  1
  O  O11  1  0.93134100  0.87179300  0.90255800  1
loop_
_geom_bond_atom_site_label_1
_geom_bond_atom_site_label_2
_geom_bond_distance
_geom_bond_site_symmetry_2
K0 O9 2.760467 1_655
K0 O8 3.074008 1_555
K1 O8 2.760467 1_455
K1 O9 3.074008 1_565
K2 O11 2.760467 1_455
K2 O10 3.074008 1_555
K3 O10 2.760467 1_655
K3 O11 3.074008 1_545
Cu0 O6 2.004588 1_545
Cu0 O4 2.004588 1_555
Cu1 O5 2.004588 1_555
Cu1 O7 2.004588 1_554
Cu2 O0 1.979345 1_555
Cu2 O4 2.023922 1_565
Cu3 O1 1.979345 1_555
Cu3 O5 2.023922 1_555
Cu4 O2 1.979345 1_555
Cu4 O6 2.023922 1_545
Cu5 O3 1.979345 1_555
Cu5 O7 2.023922 1_555
Cu6 O1 2.011415 1_555
Cu6 O4 2.043093 1_555
Cu6 O0 2.043508 1_545
Cu7 O0 2.011415 1_555
Cu7 O5 2.043093 1_555
Cu7 O1 2.043508 1_555
Cu8 O3 2.011415 1_555
Cu8 O6 2.043093 1_555
Cu8 O2 2.043508 1_565
Cu9 O2 2.011415 1_555
Cu9 O7 2.043093 1_555
Cu9 O3 2.043508 1_555
H0 O0 0.984147 1_555
H1 O1 0.984147 1_555
H2 O2 0.984147 1_555
H3 O3 0.984147 1_555
H4 O4 0.981595 1_555
H5 O5 0.981595 1_555
H6 O6 0.981595 1_555
H7 O7 0.981595 1_555
H8 O8 0.973595 1_555
H9 O9 0.973595 1_555
H10 O10 0.973595 1_555
H11 O11 0.973595 1_555
H12 O8 0.980625 1_555
H12 K0 2.891728 1_555
H13 O9 0.980625 1_565
H13 K1 2.891728 1_555
H14 O10 0.980626 1_555
H14 K2 2.891739 1_555
H15 O11 0.980626 1_545
H15 K3 2.891739 1_555
Cl0 Cu0 2.319603 1_565
Cl0 Cu6 2.707360 1_565
Cl0 Cu7 2.730690 1_555
Cl0 K1 3.245446 1_555
Cl1 Cu1 2.319603 1_555
Cl1 Cu7 2.707360 1_555
Cl1 Cu6 2.730690 1_555
Cl1 K0 3.245446 1_555
Cl2 Cu0 2.319603 1_555
Cl2 Cu8 2.707360 1_545
Cl2 Cu9 2.730690 1_555
Cl2 K3 3.245446 1_555
Cl3 Cu1 2.319603 1_556
Cl3 Cu9 2.707360 1_555
Cl3 Cu8 2.730690 1_555
Cl3 K2 3.245446 1_555
Cl4 Cu6 2.265981 1_555
Cl4 Cu3 2.912443 1_555
Cl4 Cu1 2.940729 1_555
Cl5 Cu7 2.265981 1_555
Cl5 Cu2 2.912443 1_555
Cl5 Cu0 2.940729 1_565
Cl6 Cu8 2.265981 1_555
Cl6 Cu5 2.912443 1_555
Cl6 Cu1 2.940729 1_556
Cl7 Cu9 2.265981 1_555
Cl7 Cu4 2.912443 1_555
Cl7 Cu0 2.940729 1_555
Cl8 Cu2 2.214078 1_545
Cl8 K3 3.237526 1_555
Cl8 K1 3.267328 1_645
Cl8 K0 3.415772 1_555
Cl9 Cu3 2.214078 1_555
Cl9 K2 3.237526 1_554
Cl9 K0 3.267328 1_455
Cl9 K1 3.415772 1_555
Cl10 Cu4 2.214078 1_565
Cl10 K1 3.237526 1_555
Cl10 K3 3.267328 1_465
Cl10 K2 3.415772 1_555
Cl11 Cu5 2.214078 1_555
Cl11 K0 3.237526 1_556
Cl11 K2 3.267328 1_655
Cl11 K3 3.415772 1_555
Cl12 Cu2 2.248431 1_555
Cl12 K0 3.326566 1_555
Cl12 K1 3.371307 1_655
Cl12 K0 3.609920 1_565
Cl13 Cu3 2.248431 1_555
Cl13 K1 3.326566 1_545
Cl13 K0 3.371307 1_455
Cl13 K1 3.609920 1_555
Cl14 Cu4 2.248431 1_555
Cl14 K2 3.326566 1_555
Cl14 K3 3.371307 1_455
Cl14 K2 3.609920 1_545
Cl15 Cu5 2.248431 1_555
Cl15 K3 3.326566 1_565
Cl15 K2 3.371307 1_655
Cl15 K3 3.609920 1_555
