# generated using pymatgen
data_Mn3V(PO4)6
_symmetry_space_group_name_H-M   'P 1'
_cell_length_a   8.68065069
_cell_length_b   8.68065069
_cell_length_c   8.68065065
_cell_angle_alpha   58.25951297
_cell_angle_beta   58.25951297
_cell_angle_gamma   58.25950996
_symmetry_Int_Tables_number   1
_chemical_formula_structural   Mn3V(PO4)6
_chemical_formula_sum   'Mn3 V1 P6 O24'
_cell_volume   444.09164076
_cell_formula_units_Z   1
loop_
 _symmetry_equiv_pos_site_id
 _symmetry_equiv_pos_as_xyz
  1  'x, y, z'
loop_
 _atom_site_type_symbol
 _atom_site_label
 _atom_site_symmetry_multiplicity
 _atom_site_fract_x
 _atom_site_fract_y
 _atom_site_fract_z
 _atom_site_occupancy
  Mn  Mn0  1  0.85574900  0.85574900  0.85574900  1
  Mn  Mn1  1  0.64336100  0.64336100  0.64336100  1
  Mn  Mn2  1  0.35600300  0.35600300  0.35600300  1
  V  V0  1  0.13999400  0.13999400  0.13999400  1
  P  P0  1  0.96502500  0.25021700  0.53563300  1
  P  P1  1  0.53563300  0.96502500  0.25021700  1
  P  P2  1  0.25021700  0.53563300  0.96502500  1
  P  P3  1  0.74476600  0.46910400  0.03392400  1
  P  P4  1  0.46910400  0.03392400  0.74476600  1
  P  P5  1  0.03392400  0.74476600  0.46910400  1
  O  O0  1  0.85767700  0.72878200  0.48558200  1
  O  O1  1  0.72878200  0.48558200  0.85767700  1
  O  O2  1  0.94015400  0.07383100  0.72091000  1
  O  O3  1  0.48558200  0.85767700  0.72878200  1
  O  O4  1  0.77953000  0.42710400  0.55589400  1
  O  O5  1  0.99731300  0.21983100  0.35874300  1
  O  O6  1  0.72091000  0.94015400  0.07383100  1
  O  O7  1  0.55589400  0.77953000  0.42710400  1
  O  O8  1  0.42710400  0.55589400  0.77953000  1
  O  O9  1  0.77294500  0.64104800  0.01193400  1
  O  O10  1  0.92678100  0.28474400  0.06262500  1
  O  O11  1  0.64104800  0.01193400  0.77294500  1
  O  O12  1  0.35874300  0.99731300  0.21983100  1
  O  O13  1  0.07383100  0.72091000  0.94015400  1
  O  O14  1  0.21983100  0.35874300  0.99731300  1
  O  O15  1  0.57280600  0.44069300  0.21996000  1
  O  O16  1  0.44069300  0.21996000  0.57280600  1
  O  O17  1  0.28474400  0.06262500  0.92678100  1
  O  O18  1  0.01193400  0.77294500  0.64104800  1
  O  O19  1  0.21996000  0.57280600  0.44069300  1
  O  O20  1  0.51345800  0.13945100  0.27443100  1
  O  O21  1  0.06262500  0.92678100  0.28474400  1
  O  O22  1  0.27443100  0.51345800  0.13945100  1
  O  O23  1  0.13945100  0.27443000  0.51345800  1
loop_
_geom_bond_atom_site_label_1
_geom_bond_atom_site_label_2
_geom_bond_distance
_geom_bond_site_symmetry_2
Mn0 O11 1.885183 1_565
Mn0 O18 1.885183 1_655
Mn0 O9 1.885183 1_556
Mn0 O13 1.927782 1_655
Mn0 O6 1.927782 1_556
Mn0 O2 1.927782 1_565
Mn1 O3 1.894406 1_555
Mn1 O1 1.894407 1_555
Mn1 O0 1.894407 1_555
Mn1 O4 1.928333 1_555
Mn1 O7 1.928333 1_555
Mn1 O8 1.928333 1_555
Mn2 O20 1.892654 1_555
Mn2 O22 1.892654 1_555
Mn2 O23 1.892658 1_555
Mn2 O19 1.918548 1_555
Mn2 O16 1.918548 1_555
Mn2 O15 1.918548 1_555
O0 P5 1.533832 1_655
O1 P3 1.533832 1_556
O2 P0 1.539222 1_555
O3 P4 1.533832 1_565
O4 P0 1.538259 1_555
O5 P0 1.549676 1_555
O5 V0 1.904484 1_655
O6 P1 1.539222 1_555
O7 P1 1.538259 1_555
O8 P2 1.538259 1_555
O9 P3 1.536010 1_555
O10 P3 1.566488 1_555
O10 V0 1.851636 1_655
O11 P4 1.536010 1_555
O12 P1 1.549676 1_555
O12 V0 1.904484 1_565
O13 P2 1.539221 1_555
O14 P2 1.549676 1_555
O14 V0 1.904484 1_556
O15 P3 1.526095 1_555
O16 P4 1.526095 1_555
O17 P4 1.566489 1_555
O17 V0 1.851636 1_556
O18 P5 1.536010 1_555
O19 P5 1.526095 1_555
O20 P1 1.536052 1_545
O21 P5 1.566489 1_555
O21 V0 1.851636 1_565
O22 P2 1.536052 1_554
O23 P0 1.536047 1_455
