# generated using pymatgen
data_Li2TiCr3O8
_symmetry_space_group_name_H-M   'P 1'
_cell_length_a   5.98347156
_cell_length_b   5.98489855
_cell_length_c   6.00187807
_cell_angle_alpha   58.35594729
_cell_angle_beta   121.61547297
_cell_angle_gamma   121.20191745
_symmetry_Int_Tables_number   1
_chemical_formula_structural   Li2TiCr3O8
_chemical_formula_sum   'Li2 Ti1 Cr3 O8'
_cell_volume   146.80286355
_cell_formula_units_Z   1
loop_
 _symmetry_equiv_pos_site_id
 _symmetry_equiv_pos_as_xyz
  1  'x, y, z'
loop_
 _atom_site_type_symbol
 _atom_site_label
 _atom_site_symmetry_multiplicity
 _atom_site_fract_x
 _atom_site_fract_y
 _atom_site_fract_z
 _atom_site_occupancy
  Li  Li0  1  0.00000000  0.00001400  0.49998800  1
  Li  Li1  1  0.50001800  0.50004200  0.49998400  1
  Ti  Ti0  1  0.00001200  0.00000100  0.00000500  1
  Cr  Cr0  1  0.49997000  0.50000800  0.00010800  1
  Cr  Cr1  1  0.50000300  0.99979900  0.49999500  1
  Cr  Cr2  1  0.99991200  0.50003300  0.49997000  1
  O  O0  1  0.73596600  0.26552500  0.27244900  1
  O  O1  1  0.26242200  0.23549200  0.24178200  1
  O  O2  1  0.76416700  0.73831000  0.24184900  1
  O  O3  1  0.76232600  0.23781900  0.73098900  1
  O  O4  1  0.23771600  0.76222500  0.26901800  1
  O  O5  1  0.23585800  0.26170100  0.75816300  1
  O  O6  1  0.73760600  0.76455900  0.75821700  1
  O  O7  1  0.26402700  0.73447300  0.72748200  1
loop_
_geom_bond_atom_site_label_1
_geom_bond_atom_site_label_2
_geom_bond_distance
_geom_bond_site_symmetry_2
Li0 O2 2.192929 1_445
Li0 O5 2.192999 1_555
Li0 O6 2.195450 1_445
Li0 O1 2.195460 1_555
Li0 O0 2.224423 1_455
Li0 O7 2.224564 1_545
Li1 O4 2.198940 1_555
Li1 O3 2.199119 1_555
Li1 O2 2.201309 1_555
Li1 O5 2.201513 1_555
Li1 O6 2.204999 1_555
Li1 O1 2.205005 1_555
Cr0 O7 1.964940 1_554
Cr0 O0 1.965079 1_555
Cr0 O1 2.012732 1_555
Cr0 O6 2.013981 1_554
Cr0 O2 2.017116 1_555
Cr0 O5 2.017948 1_554
Cr1 O7 1.950007 1_555
Cr1 O0 1.950360 1_565
Cr1 O6 1.969663 1_555
Cr1 O4 1.970201 1_555
Cr1 O1 1.971406 1_565
Cr1 O3 1.972091 1_565
Cr2 O7 1.944527 1_655
Cr2 O0 1.944763 1_555
Cr2 O3 1.969290 1_555
Cr2 O4 1.969900 1_655
Cr2 O2 1.974430 1_555
Cr2 O5 1.975483 1_655
O1 Ti0 2.005436 1_555
O2 Ti0 2.005853 1_665
O3 Ti0 1.983402 1_656
O4 Ti0 1.983306 1_565
O5 Ti0 2.005851 1_556
O6 Ti0 2.005282 1_666
