# generated using pymatgen
data_Ca2MnFeSi4(HO3)5
_symmetry_space_group_name_H-M   'P 1'
_cell_length_a   8.86456200
_cell_length_b   9.04924183
_cell_length_c   10.20013402
_cell_angle_alpha   78.01541226
_cell_angle_beta   67.33679797
_cell_angle_gamma   64.57020596
_symmetry_Int_Tables_number   1
_chemical_formula_structural   Ca2MnFeSi4(HO3)5
_chemical_formula_sum   'Ca4 Mn2 Fe2 Si8 H10 O30'
_cell_volume   681.02111517
_cell_formula_units_Z   2
loop_
 _symmetry_equiv_pos_site_id
 _symmetry_equiv_pos_as_xyz
  1  'x, y, z'
loop_
 _atom_site_type_symbol
 _atom_site_label
 _atom_site_symmetry_multiplicity
 _atom_site_fract_x
 _atom_site_fract_y
 _atom_site_fract_z
 _atom_site_occupancy
  Ca  Ca0  1  0.58062200  0.81519800  0.42246700  1
  Ca  Ca1  1  0.86823000  0.30116700  0.49674800  1
  Ca  Ca2  1  0.13177000  0.69883300  0.50325200  1
  Ca  Ca3  1  0.41937800  0.18480200  0.57753300  1
  Mn  Mn0  1  0.29330600  0.98388600  0.22387000  1
  Mn  Mn1  1  0.70669400  0.01611400  0.77613000  1
  Fe  Fe0  1  0.98137100  0.15780000  0.12961300  1
  Fe  Fe1  1  0.01862900  0.84220000  0.87038700  1
  Si  Si0  1  0.61726700  0.79753400  0.96249500  1
  Si  Si1  1  0.04053000  0.80722000  0.21228400  1
  Si  Si2  1  0.02488300  0.51015800  0.16741700  1
  Si  Si3  1  0.61619600  0.16515800  0.21823400  1
  Si  Si4  1  0.38380400  0.83484200  0.78176600  1
  Si  Si5  1  0.97511700  0.48984200  0.83258300  1
  Si  Si6  1  0.95947000  0.19278000  0.78771600  1
  Si  Si7  1  0.38273300  0.20246600  0.03750500  1
  H  H0  1  0.75418200  0.55893200  0.15070400  1
  H  H1  1  0.21330500  0.97282400  0.49511500  1
  H  H2  1  0.95841700  0.60544300  0.37518900  1
  H  H3  1  0.62975900  0.31942900  0.23400100  1
  H  H4  1  0.66370900  0.35782600  0.83250400  1
  H  H5  1  0.33629100  0.64217400  0.16749600  1
  H  H6  1  0.37024100  0.68057100  0.76599900  1
  H  H7  1  0.04158300  0.39455700  0.62481100  1
  H  H8  1  0.78669500  0.02717600  0.50488500  1
  H  H9  1  0.24581800  0.44106800  0.84929600  1
  O  O0  1  0.17193000  0.95780000  0.83767400  1
  O  O1  1  0.78802800  0.61891700  0.92497400  1
  O  O2  1  0.54408000  0.81366800  0.13468400  1
  O  O3  1  0.47082700  0.78568500  0.90900100  1
  O  O4  1  0.13392900  0.53070600  0.84544100  1
  O  O5  1  0.90516400  0.80441200  0.37525700  1
  O  O6  1  0.00589400  0.70545900  0.10630700  1
  O  O7  1  0.14444700  0.92990900  0.12415500  1
  O  O8  1  0.99367600  0.49470800  0.33901800  1
  O  O9  1  0.50759300  0.08808800  0.35929300  1
  O  O10  1  0.22574100  0.65636000  0.24501500  1
  O  O11  1  0.60159500  0.52019300  0.44702400  1
  O  O12  1  0.04574800  0.17256400  0.27736400  1
  O  O13  1  0.65326900  0.56235900  0.53948700  1
  O  O14  1  0.27844000  0.88146400  0.43149700  1
  O  O15  1  0.72156000  0.11853600  0.56850300  1
  O  O16  1  0.34673100  0.43764100  0.46051300  1
  O  O17  1  0.95425200  0.82743600  0.72263600  1
  O  O18  1  0.39840500  0.47980700  0.55297600  1
  O  O19  1  0.77425900  0.34364000  0.75498500  1
  O  O20  1  0.49240700  0.91191200  0.64070700  1
  O  O21  1  0.00632400  0.50529200  0.66098200  1
  O  O22  1  0.85555300  0.07009100  0.87584500  1
  O  O23  1  0.99410600  0.29454100  0.89369300  1
  O  O24  1  0.09483600  0.19558800  0.62474300  1
  O  O25  1  0.86607100  0.46929400  0.15455900  1
  O  O26  1  0.52917300  0.21431500  0.09099900  1
  O  O27  1  0.45592000  0.18633200  0.86531600  1
  O  O28  1  0.21197200  0.38108300  0.07502600  1
  O  O29  1  0.82807000  0.04220000  0.16232600  1
loop_
_geom_bond_atom_site_label_1
_geom_bond_atom_site_label_2
_geom_bond_distance
_geom_bond_site_symmetry_2
Ca0 O20 2.283142 1_555
Ca0 O9 2.284771 1_565
Ca0 O13 2.295032 1_555
Ca0 O14 2.448848 1_555
Ca0 O11 2.560442 1_555
Ca0 O5 2.688653 1_555
Ca0 O2 3.078204 1_555
Ca1 O13 2.308122 1_555
Ca1 O15 2.359477 1_555
Ca1 O12 2.373443 1_655
Ca1 O8 2.452779 1_555
Ca1 O19 2.496886 1_555
Ca1 O11 2.501067 1_555
Ca1 O24 2.550926 1_655
Ca2 O16 2.308122 1_555
Ca2 O14 2.359477 1_555
Ca2 O17 2.373443 1_455
Ca2 O21 2.452779 1_555
Ca2 O10 2.496886 1_555
Ca2 O18 2.501067 1_555
Ca2 O5 2.550926 1_455
Ca3 O9 2.283142 1_555
Ca3 O20 2.284771 1_545
Ca3 O16 2.295032 1_555
Ca3 O15 2.448848 1_555
Ca3 O18 2.560442 1_555
Ca3 O24 2.688653 1_555
Ca3 O27 3.078204 1_555
Mn0 O2 2.055421 1_555
Mn0 O12 2.067613 1_565
Mn0 O14 2.106233 1_555
Mn0 O7 2.192831 1_555
Mn1 O27 2.055421 1_555
Mn1 O17 2.067613 1_545
Mn1 O15 2.106233 1_555
Mn1 O22 2.192831 1_555
Fe0 O12 1.851131 1_655
Fe0 O7 1.941930 1_645
Fe0 O29 1.943927 1_555
Fe0 O23 2.451271 1_554
Fe0 O25 2.584210 1_555
Fe1 O17 1.851131 1_455
Fe1 O22 1.941930 1_465
Fe1 O0 1.943927 1_555
Fe1 O6 2.451271 1_556
Fe1 O4 2.584210 1_555
H0 O25 0.984449 1_555
H1 O14 0.980853 1_555
H2 O8 1.016684 1_555
H2 O5 1.653791 1_555
H3 Si3 1.497172 1_555
H4 O19 0.969033 1_555
H5 O10 0.969033 1_555
H6 Si4 1.497172 1_555
H7 O21 1.016684 1_555
H7 O24 1.653791 1_555
H8 O15 0.980853 1_555
H9 O4 0.984449 1_555
O0 Si4 1.653532 1_555
O0 Si6 2.275637 1_465
O1 Si5 1.609963 1_555
O1 Si0 1.661209 1_555
O2 Si0 1.635246 1_554
O3 Si0 1.638305 1_555
O3 Si4 1.647528 1_555
O4 Si5 1.656911 1_455
O5 Si1 1.635660 1_655
O6 Si2 1.705339 1_555
O6 Si1 1.738606 1_555
O7 Si1 1.647725 1_555
O8 Si2 1.648712 1_655
O9 Si3 1.604950 1_555
O10 Si1 1.725959 1_555
O11 O13 1.370187 1_555
O11 O18 1.856615 1_555
O16 O18 1.370187 1_555
O19 Si6 1.725959 1_555
O20 Si4 1.604950 1_555
O21 Si5 1.648712 1_455
O22 Si6 1.647725 1_555
O23 Si5 1.705339 1_555
O23 Si6 1.738606 1_555
O24 Si6 1.635660 1_455
O25 Si2 1.656911 1_655
O26 Si7 1.638305 1_555
O26 Si3 1.647528 1_555
O27 Si7 1.635246 1_556
O28 Si2 1.609963 1_555
O28 Si7 1.661209 1_555
O29 Si3 1.653532 1_555
O29 Si1 2.275637 1_645
