# generated using pymatgen
data_PtC4(NCl3)2
_symmetry_space_group_name_H-M   'P 1'
_cell_length_a   7.47242570
_cell_length_b   7.47242570
_cell_length_c   7.47242570
_cell_angle_alpha   126.33300121
_cell_angle_beta   110.54427374
_cell_angle_gamma   93.24419631
_symmetry_Int_Tables_number   1
_chemical_formula_structural   PtC4(NCl3)2
_chemical_formula_sum   'Pt1 C4 N2 Cl6'
_cell_volume   294.76166207
_cell_formula_units_Z   1
loop_
 _symmetry_equiv_pos_site_id
 _symmetry_equiv_pos_as_xyz
  1  'x, y, z'
loop_
 _atom_site_type_symbol
 _atom_site_label
 _atom_site_symmetry_multiplicity
 _atom_site_fract_x
 _atom_site_fract_y
 _atom_site_fract_z
 _atom_site_occupancy
  Pt  Pt0  1  0.00000000  0.00000000  0.00000000  1
  C  C0  1  0.10266100  0.37797600  0.72468500  1
  C  C1  1  0.34671000  0.62202400  0.72468500  1
  C  C2  1  0.65329000  0.37797600  0.27531500  1
  C  C3  1  0.89733900  0.62202400  0.27531500  1
  N  N0  1  0.22734900  0.50000000  0.72734900  1
  N  N1  1  0.77265100  0.50000000  0.27265100  1
  Cl  Cl0  1  0.83599500  0.07974100  0.24374600  1
  Cl  Cl1  1  0.16400500  0.92025900  0.75625400  1
  Cl  Cl2  1  0.83599500  0.59224800  0.75625400  1
  Cl  Cl3  1  0.16400500  0.40775200  0.24374600  1
  Cl  Cl4  1  0.27646300  0.00000000  0.27646300  1
  Cl  Cl5  1  0.72353700  0.00000000  0.72353700  1
loop_
_geom_bond_atom_site_label_1
_geom_bond_atom_site_label_2
_geom_bond_distance
_geom_bond_site_symmetry_2
C0 N0 1.252688 1_555
C1 N0 1.252693 1_555
C2 N1 1.252693 1_555
C3 N1 1.252688 1_555
Cl0 Pt0 2.353215 1_655
Cl1 Pt0 2.353215 1_566
Cl2 Pt0 2.353221 1_666
Cl3 Pt0 2.353221 1_555
Cl4 Pt0 2.353743 1_555
Cl5 Pt0 2.353743 1_656
