# generated using pymatgen
data_HfCrO3
_symmetry_space_group_name_H-M   'P 1'
_cell_length_a   4.90680400
_cell_length_b   5.32920500
_cell_length_c   9.36186300
_cell_angle_alpha   90.00000000
_cell_angle_beta   90.00000000
_cell_angle_gamma   90.00000000
_symmetry_Int_Tables_number   1
_chemical_formula_structural   HfCrO3
_chemical_formula_sum   'Hf4 Cr4 O12'
_cell_volume   244.80676715
_cell_formula_units_Z   4
loop_
 _symmetry_equiv_pos_site_id
 _symmetry_equiv_pos_as_xyz
  1  'x, y, z'
loop_
 _atom_site_type_symbol
 _atom_site_label
 _atom_site_symmetry_multiplicity
 _atom_site_fract_x
 _atom_site_fract_y
 _atom_site_fract_z
 _atom_site_occupancy
  Hf  Hf0  1  0.04829700  0.95641300  0.75000000  1
  Hf  Hf1  1  0.45170300  0.45641300  0.75000000  1
  Hf  Hf2  1  0.54829700  0.54358700  0.25000000  1
  Hf  Hf3  1  0.95170300  0.04358700  0.25000000  1
  Cr  Cr0  1  0.00000000  0.50000000  0.50000000  1
  Cr  Cr1  1  0.50000000  0.00000000  0.50000000  1
  Cr  Cr2  1  0.00000000  0.50000000  0.00000000  1
  Cr  Cr3  1  0.50000000  0.00000000  0.00000000  1
  O  O0  1  0.19367800  0.35983600  0.25000000  1
  O  O1  1  0.30632200  0.85983700  0.25000000  1
  O  O2  1  0.69367800  0.14016400  0.75000000  1
  O  O3  1  0.80632200  0.64016300  0.75000000  1
  O  O4  1  0.21401900  0.22121300  0.60426200  1
  O  O5  1  0.21401900  0.22121300  0.89573800  1
  O  O6  1  0.28598100  0.72121300  0.60426200  1
  O  O7  1  0.28598100  0.72121300  0.89573800  1
  O  O8  1  0.71401900  0.27878700  0.10426200  1
  O  O9  1  0.71401900  0.27878700  0.39573800  1
  O  O10  1  0.78598100  0.77878700  0.10426200  1
  O  O11  1  0.78598100  0.77878700  0.39573800  1
loop_
_geom_bond_atom_site_label_1
_geom_bond_atom_site_label_2
_geom_bond_distance
_geom_bond_site_symmetry_2
Hf0 O2 1.996668 1_465
Hf0 O3 2.061596 1_455
Hf0 O4 2.124660 1_565
Hf0 O5 2.124660 1_565
Hf0 O6 2.189246 1_555
Hf0 O7 2.189246 1_555
Hf1 O3 1.996666 1_555
Hf1 O2 2.061592 1_555
Hf1 O6 2.124660 1_555
Hf1 O7 2.124660 1_555
Hf1 O4 2.189246 1_555
Hf1 O5 2.189246 1_555
Hf2 O0 1.996668 1_555
Hf2 O1 2.061596 1_555
Hf2 O9 2.124660 1_555
Hf2 O8 2.124660 1_555
Hf2 O11 2.189246 1_555
Hf2 O10 2.189246 1_555
Hf3 O1 1.996666 1_645
Hf3 O0 2.061592 1_655
Hf3 O11 2.124660 1_545
Hf3 O10 2.124660 1_545
Hf3 O9 2.189246 1_555
Hf3 O8 2.189246 1_555
Cr0 O4 2.064680 1_555
Cr0 O11 2.064680 1_455
Cr0 O6 2.076450 1_555
Cr0 O9 2.076450 1_455
Cr0 O3 2.634174 1_455
Cr0 O0 2.634175 1_555
Cr1 O9 2.064680 1_555
Cr1 O6 2.064680 1_545
Cr1 O4 2.076450 1_555
Cr1 O11 2.076450 1_545
Cr1 O1 2.634174 1_545
Cr1 O2 2.634175 1_555
Cr2 O5 2.064680 1_554
Cr2 O10 2.064680 1_455
Cr2 O7 2.076450 1_554
Cr2 O8 2.076450 1_455
Cr2 O3 2.634174 1_454
Cr2 O0 2.634175 1_555
Cr3 O7 2.064680 1_544
Cr3 O8 2.064680 1_555
Cr3 O5 2.076450 1_554
Cr3 O10 2.076450 1_545
Cr3 O1 2.634174 1_545
Cr3 O2 2.634175 1_554
