# generated using pymatgen
data_LiMn2F5
_symmetry_space_group_name_H-M   'P 1'
_cell_length_a   5.22379300
_cell_length_b   7.49363000
_cell_length_c   9.93141400
_cell_angle_alpha   90.00000000
_cell_angle_beta   90.00000000
_cell_angle_gamma   90.00000000
_symmetry_Int_Tables_number   1
_chemical_formula_structural   LiMn2F5
_chemical_formula_sum   'Li4 Mn8 F20'
_cell_volume   388.76690862
_cell_formula_units_Z   4
loop_
 _symmetry_equiv_pos_site_id
 _symmetry_equiv_pos_as_xyz
  1  'x, y, z'
loop_
 _atom_site_type_symbol
 _atom_site_label
 _atom_site_symmetry_multiplicity
 _atom_site_fract_x
 _atom_site_fract_y
 _atom_site_fract_z
 _atom_site_occupancy
  Li  Li0  1  0.75443100  0.12008600  0.50189300  1
  Li  Li1  1  0.25443100  0.37991400  0.00189300  1
  Li  Li2  1  0.74556900  0.62008600  0.50189300  1
  Li  Li3  1  0.24556900  0.87991400  0.00189300  1
  Mn  Mn0  1  0.26104200  0.97660200  0.36284100  1
  Mn  Mn1  1  0.23413900  0.28167200  0.64342300  1
  Mn  Mn2  1  0.73413900  0.21832800  0.14342300  1
  Mn  Mn3  1  0.76104200  0.52339800  0.86284100  1
  Mn  Mn4  1  0.23895800  0.47660200  0.36284100  1
  Mn  Mn5  1  0.26586100  0.78167200  0.64342300  1
  Mn  Mn6  1  0.76586100  0.71832800  0.14342300  1
  Mn  Mn7  1  0.73895800  0.02339800  0.86284100  1
  F  F0  1  0.42013400  0.03643300  0.56944200  1
  F  F1  1  0.64144000  0.06589200  0.31648700  1
  F  F2  1  0.02583500  0.12471900  0.00970100  1
  F  F3  1  0.88565200  0.15264600  0.69181500  1
  F  F4  1  0.07404100  0.22140400  0.41591800  1
  F  F5  1  0.57404100  0.27859600  0.91591800  1
  F  F6  1  0.38565200  0.34735400  0.19181500  1
  F  F7  1  0.52583500  0.37528100  0.50970100  1
  F  F8  1  0.14144000  0.43410800  0.81648700  1
  F  F9  1  0.92013400  0.46356700  0.06944200  1
  F  F10  1  0.07986600  0.53643300  0.56944200  1
  F  F11  1  0.85856000  0.56589200  0.31648700  1
  F  F12  1  0.47416500  0.62471900  0.00970100  1
  F  F13  1  0.61434800  0.65264600  0.69181500  1
  F  F14  1  0.42595900  0.72140400  0.41591800  1
  F  F15  1  0.92595900  0.77859600  0.91591800  1
  F  F16  1  0.11434800  0.84735400  0.19181500  1
  F  F17  1  0.97416500  0.87528100  0.50970100  1
  F  F18  1  0.35856000  0.93410800  0.81648700  1
  F  F19  1  0.57986600  0.96356700  0.06944200  1
loop_
_geom_bond_atom_site_label_1
_geom_bond_atom_site_label_2
_geom_bond_distance
_geom_bond_site_symmetry_2
F0 Li0 1.972959 1_555
F0 Mn5 2.198613 1_545
F0 Mn1 2.204789 1_555
F0 Mn0 2.258702 1_545
F1 Li0 1.975818 1_555
F1 Mn2 2.119789 1_555
F1 Mn0 2.146691 1_545
F2 Mn2 2.139537 1_455
F2 Li3 2.165380 1_545
F2 Mn7 2.224756 1_454
F2 Li1 2.255884 1_555
F3 Li0 2.021665 1_555
F3 Mn7 2.100067 1_555
F3 Mn1 2.116545 1_655
F4 Li0 2.023115 1_455
F4 Mn0 2.144140 1_545
F4 Mn4 2.162673 1_555
F4 Mn1 2.451223 1_555
F5 Li1 2.023115 1_556
F5 Mn3 2.144140 1_555
F5 Mn7 2.162673 1_555
F5 Mn2 2.451223 1_556
F6 Li1 2.021665 1_555
F6 Mn4 2.100067 1_555
F6 Mn2 2.116545 1_555
F7 Mn1 2.139537 1_555
F7 Li2 2.165380 1_555
F7 Mn4 2.224756 1_555
F7 Li0 2.255884 1_555
F8 Li1 1.975818 1_556
F8 Mn1 2.119789 1_555
F8 Mn3 2.146691 1_455
F9 Li1 1.972959 1_655
F9 Mn6 2.198613 1_555
F9 Mn2 2.204789 1_555
F9 Mn3 2.258702 1_554
F10 Li2 1.972959 1_455
F10 Mn1 2.198613 1_555
F10 Mn5 2.204789 1_555
F10 Mn4 2.258702 1_555
F11 Li2 1.975818 1_555
F11 Mn6 2.119789 1_555
F11 Mn4 2.146691 1_655
F12 Mn6 2.139537 1_555
F12 Li1 2.165380 1_555
F12 Mn3 2.224756 1_554
F12 Li3 2.255884 1_555
F13 Li2 2.021665 1_555
F13 Mn3 2.100067 1_555
F13 Mn5 2.116545 1_555
F14 Li2 2.023115 1_555
F14 Mn4 2.144140 1_555
F14 Mn0 2.162673 1_555
F14 Mn5 2.451223 1_555
F15 Li3 2.023115 1_656
F15 Mn7 2.144140 1_565
F15 Mn3 2.162673 1_555
F15 Mn6 2.451223 1_556
F16 Li3 2.021665 1_555
F16 Mn0 2.100067 1_555
F16 Mn6 2.116545 1_455
F17 Mn5 2.139537 1_655
F17 Li0 2.165380 1_565
F17 Mn0 2.224756 1_655
F17 Li2 2.255884 1_555
F18 Li3 1.975818 1_556
F18 Mn5 2.119789 1_555
F18 Mn7 2.146691 1_565
F19 Li3 1.972959 1_555
F19 Mn2 2.198613 1_565
F19 Mn6 2.204789 1_555
F19 Mn7 2.258702 1_564
