# generated using pymatgen
data_Li3Mn3(FeO5)2
_symmetry_space_group_name_H-M   'P 1'
_cell_length_a   5.10228700
_cell_length_b   5.16359147
_cell_length_c   7.92285221
_cell_angle_alpha   71.97041677
_cell_angle_beta   72.14823599
_cell_angle_gamma   80.75393412
_symmetry_Int_Tables_number   1
_chemical_formula_structural   Li3Mn3(FeO5)2
_chemical_formula_sum   'Li3 Mn3 Fe2 O10'
_cell_volume   188.43044798
_cell_formula_units_Z   1
loop_
 _symmetry_equiv_pos_site_id
 _symmetry_equiv_pos_as_xyz
  1  'x, y, z'
loop_
 _atom_site_type_symbol
 _atom_site_label
 _atom_site_symmetry_multiplicity
 _atom_site_fract_x
 _atom_site_fract_y
 _atom_site_fract_z
 _atom_site_occupancy
  Li  Li0  1  0.20981200  0.48401600  0.58514100  1
  Li  Li1  1  0.50000000  0.00000000  0.50000000  1
  Li  Li2  1  0.79018800  0.51598400  0.41485900  1
  Mn  Mn0  1  0.00000000  0.50000000  0.00000000  1
  Mn  Mn1  1  0.69465700  0.00879700  0.10138400  1
  Mn  Mn2  1  0.30534300  0.99120300  0.89861600  1
  Fe  Fe0  1  0.11621000  0.00158800  0.31450600  1
  Fe  Fe1  1  0.88379000  0.99841200  0.68549400  1
  O  O0  1  0.03322300  0.77253800  0.12814300  1
  O  O1  1  0.35384400  0.20358600  0.05167900  1
  O  O2  1  0.11509700  0.23121100  0.46908700  1
  O  O3  1  0.20454800  0.75851300  0.78045500  1
  O  O4  1  0.47845500  0.80193400  0.32545100  1
  O  O5  1  0.52154500  0.19806600  0.67454900  1
  O  O6  1  0.79545200  0.24148700  0.21954500  1
  O  O7  1  0.88490300  0.76878900  0.53091300  1
  O  O8  1  0.64615600  0.79641400  0.94832100  1
  O  O9  1  0.96677700  0.22746200  0.87185700  1
loop_
_geom_bond_atom_site_label_1
_geom_bond_atom_site_label_2
_geom_bond_distance
_geom_bond_site_symmetry_2
Li0 O2 2.000287 1_555
Li0 O7 2.087418 1_455
Li0 O5 2.121422 1_555
Li0 O9 2.321823 1_455
Li0 O4 2.389586 1_555
Li0 O3 2.392549 1_555
Li1 O5 1.993840 1_555
Li1 O4 1.993840 1_545
Li1 O7 2.168555 1_545
Li1 O2 2.168555 1_555
Li1 O6 2.366412 1_555
Li1 O3 2.366412 1_545
Li2 O7 2.000287 1_555
Li2 O2 2.087418 1_655
Li2 O4 2.121422 1_555
Li2 O0 2.321823 1_655
Li2 O5 2.389586 1_555
Li2 O6 2.392549 1_555
Mn0 O3 1.947831 1_554
Mn0 O6 1.947831 1_455
Mn0 O0 2.026450 1_555
Mn0 O9 2.026450 1_454
Mn0 O1 2.224206 1_555
Mn0 O8 2.224206 1_454
Mn1 O4 1.874441 1_545
Mn1 O6 1.942830 1_555
Mn1 O1 1.950184 1_555
Mn1 O8 1.956776 1_544
Mn1 O0 1.975996 1_645
Mn1 O9 2.048003 1_554
Mn2 O5 1.874441 1_565
Mn2 O3 1.942830 1_555
Mn2 O8 1.950184 1_555
Mn2 O1 1.956776 1_566
Mn2 O9 1.975996 1_465
Mn2 O0 2.048003 1_556
Fe0 O7 1.927955 1_445
Fe0 O2 1.948916 1_555
Fe0 O4 1.979162 1_545
Fe0 O6 2.074976 1_455
Fe0 O1 2.099549 1_555
Fe0 O0 2.320235 1_545
Fe1 O2 1.927955 1_665
Fe1 O7 1.948916 1_555
Fe1 O5 1.979162 1_565
Fe1 O3 2.074976 1_655
Fe1 O8 2.099549 1_555
Fe1 O9 2.320235 1_565
