# generated using pymatgen
data_Rb10Al24Cd7(SiO4)24
_symmetry_space_group_name_H-M   'P 1'
_cell_length_a   17.82216700
_cell_length_b   17.82631076
_cell_length_c   17.83688915
_cell_angle_alpha   60.10388980
_cell_angle_beta   60.06538753
_cell_angle_gamma   60.03464071
_symmetry_Int_Tables_number   1
_chemical_formula_structural   Rb10Al24Cd7(SiO4)24
_chemical_formula_sum   'Rb10 Al24 Cd7 Si24 O96'
_cell_volume   4013.23206330
_cell_formula_units_Z   1
loop_
 _symmetry_equiv_pos_site_id
 _symmetry_equiv_pos_as_xyz
  1  'x, y, z'
loop_
 _atom_site_type_symbol
 _atom_site_label
 _atom_site_symmetry_multiplicity
 _atom_site_fract_x
 _atom_site_fract_y
 _atom_site_fract_z
 _atom_site_occupancy
  Rb  Rb0  1  0.74085500  0.74070100  0.27296600  1
  Rb  Rb1  1  0.58974800  0.15473300  0.58888000  1
  Rb  Rb2  1  0.15612600  0.59071600  0.58770600  1
  Rb  Rb3  1  0.59141300  0.59139600  0.15764100  1
  Rb  Rb4  1  0.25052700  0.75050400  0.25076000  1
  Rb  Rb5  1  0.75052200  0.25030300  0.25102300  1
  Rb  Rb6  1  0.16079100  0.16168200  0.58751000  1
  Rb  Rb7  1  0.59047100  0.15522900  0.16354500  1
  Rb  Rb8  1  0.15521700  0.58945500  0.16363200  1
  Rb  Rb9  1  0.24938500  0.24955200  0.25032900  1
  Al  Al0  1  0.60741800  0.78797300  0.96389500  1
  Al  Al1  1  0.96490300  0.60801400  0.78856000  1
  Al  Al2  1  0.78869600  0.96332100  0.60722300  1
  Al  Al3  1  0.78903600  0.13861600  0.96896200  1
  Al  Al4  1  0.13905600  0.96880900  0.78904500  1
  Al  Al5  1  0.13912000  0.60209500  0.96952600  1
  Al  Al6  1  0.21429500  0.39819700  0.86079500  1
  Al  Al7  1  0.60188300  0.13790800  0.78903500  1
  Al  Al8  1  0.97006800  0.13727200  0.60244900  1
  Al  Al9  1  0.39890200  0.02704100  0.85934100  1
  Al  Al10  1  0.13943900  0.78958200  0.60159700  1
  Al  Al11  1  0.96654300  0.78970800  0.13719100  1
  Al  Al12  1  0.02641200  0.21614600  0.86013300  1
  Al  Al13  1  0.86002300  0.21522700  0.39616900  1
  Al  Al14  1  0.60533300  0.96616300  0.13859000  1
  Al  Al15  1  0.02941300  0.85799900  0.39683900  1
  Al  Al16  1  0.39648900  0.85970600  0.21417100  1
  Al  Al17  1  0.78923600  0.60499200  0.13879300  1
  Al  Al18  1  0.85868100  0.39691900  0.03043200  1
  Al  Al19  1  0.85825400  0.02994500  0.21610300  1
  Al  Al20  1  0.21555200  0.85954100  0.02960200  1
  Al  Al21  1  0.21585800  0.02891000  0.39542700  1
  Al  Al22  1  0.02982900  0.39629100  0.21474100  1
  Al  Al23  1  0.39587000  0.21415700  0.02973800  1
  Cd  Cd0  1  0.99818200  0.99896100  0.00749700  1
  Cd  Cd1  1  0.99407800  0.50201200  0.00277600  1
  Cd  Cd2  1  0.50236600  0.99274600  0.00248600  1
  Cd  Cd3  1  0.99950100  0.99883300  0.49453200  1
  Cd  Cd4  1  0.16750200  0.77545800  0.77709400  1
  Cd  Cd5  1  0.77921800  0.15676200  0.78010800  1
  Cd  Cd6  1  0.21520100  0.21608000  0.85413700  1
  Si  Si0  1  0.78932800  0.60415800  0.96383000  1
  Si  Si1  1  0.60490000  0.96418000  0.78920500  1
  Si  Si2  1  0.96481900  0.78913500  0.60444900  1
  Si  Si3  1  0.14192000  0.78879600  0.96486100  1
  Si  Si4  1  0.96636600  0.13858300  0.78923700  1
  Si  Si5  1  0.60360300  0.14084300  0.96599900  1
  Si  Si6  1  0.14096700  0.60469100  0.78805900  1
  Si  Si7  1  0.39700400  0.21087300  0.85646700  1
  Si  Si8  1  0.14275400  0.96575100  0.60339200  1
  Si  Si9  1  0.03536500  0.39920700  0.85526600  1
  Si  Si10  1  0.78871700  0.14016200  0.60398700  1
  Si  Si11  1  0.78972100  0.96484900  0.14125600  1
  Si  Si12  1  0.21014900  0.03646200  0.85672700  1
  Si  Si13  1  0.21091100  0.85487900  0.39763100  1
  Si  Si14  1  0.96491000  0.60382700  0.14123700  1
  Si  Si15  1  0.85299600  0.03667600  0.39984500  1
  Si  Si16  1  0.60398100  0.78885600  0.14181700  1
  Si  Si17  1  0.85433700  0.39874300  0.21091900  1
  Si  Si18  1  0.39954100  0.85412200  0.03621000  1
  Si  Si19  1  0.03699700  0.85374700  0.21037000  1
  Si  Si20  1  0.85524700  0.21032800  0.03679800  1
  Si  Si21  1  0.03739800  0.21020400  0.39805900  1
  Si  Si22  1  0.39922700  0.03696400  0.21006700  1
  Si  Si23  1  0.21022100  0.39771300  0.03688800  1
  O  O0  1  0.68699500  0.67854100  0.98361200  1
  O  O1  1  0.41039200  0.95841700  0.96927400  1
  O  O2  1  0.97101200  0.40907900  0.95814600  1
  O  O3  1  0.77705600  0.50491100  0.00149400  1
  O  O4  1  0.63261100  0.85857300  0.85125600  1
  O  O5  1  0.85274300  0.63211500  0.85818800  1
  O  O6  1  0.50537900  0.00648100  0.77455200  1
  O  O7  1  0.95819600  0.16053200  0.96902800  1
  O  O8  1  0.16054400  0.97096500  0.95795900  1
  O  O9  1  0.67923800  0.98633800  0.68738300  1
  O  O10  1  0.98732700  0.68675400  0.67888700  1
  O  O11  1  0.21783100  0.78070900  0.99514700  1
  O  O12  1  0.85875200  0.85101800  0.63385400  1
  O  O13  1  0.15505600  0.68770300  0.97526100  1
  O  O14  1  0.68213800  0.15365300  0.97533700  1
  O  O15  1  0.00023600  0.21335000  0.77904500  1
  O  O16  1  0.00379400  0.77541700  0.50584500  1
  O  O17  1  0.95717700  0.96902700  0.40970100  1
  O  O18  1  0.50605800  0.21775700  0.99622700  1
  O  O19  1  0.85470600  0.15304200  0.84904500  1
  O  O20  1  0.15725800  0.84907500  0.85221500  1
  O  O21  1  0.97945400  0.15007600  0.68796100  1
  O  O22  1  0.16013800  0.41267000  0.96968200  1
  O  O23  1  0.15706300  0.63940800  0.84968600  1
  O  O24  1  0.64001000  0.15462000  0.85435700  1
  O  O25  1  0.41046300  0.16111100  0.95769400  1
  O  O26  1  0.15422600  0.97841200  0.68096800  1
  O  O27  1  0.31824000  0.31030900  0.84422200  1
  O  O28  1  0.03649900  0.59908000  0.84062700  1
  O  O29  1  0.59406100  0.02679700  0.84302300  1
  O  O30  1  0.85097500  0.15241800  0.64191800  1
  O  O31  1  0.15775300  0.85390300  0.64053800  1
  O  O32  1  0.21631200  0.50606000  0.77783200  1
  O  O33  1  0.49518600  0.21449300  0.77533200  1
  O  O34  1  0.96896900  0.95751900  0.16330800  1
  O  O35  1  0.77616700  0.00297700  0.21486900  1
  O  O36  1  0.21822200  0.99819600  0.50593400  1
  O  O37  1  0.15667100  0.68309200  0.68799600  1
  O  O38  1  0.68804200  0.15539700  0.68278800  1
  O  O39  1  0.14621100  0.35788800  0.84953100  1
  O  O40  1  0.35694800  0.14701000  0.84998700  1
  O  O41  1  0.01787800  0.49786000  0.77506300  1
  O  O42  1  0.84106900  0.03578800  0.59745000  1
  O  O43  1  0.02734800  0.84254400  0.59509100  1
  O  O44  1  0.02828500  0.32022200  0.84151500  1
  O  O45  1  0.30968800  0.02824300  0.84357300  1
  O  O46  1  0.85116400  0.85702500  0.15734200  1
  O  O47  1  0.77962100  0.21785200  0.50691000  1
  O  O48  1  0.21853600  0.77555400  0.49693300  1
  O  O49  1  0.14571200  0.14665600  0.84988200  1
  O  O50  1  0.68752100  0.98159000  0.15053700  1
  O  O51  1  0.98196700  0.68024800  0.14998800  1
  O  O52  1  0.96972500  0.16162100  0.41231900  1
  O  O53  1  0.16188900  0.95752000  0.41164900  1
  O  O54  1  0.00402600  0.50579300  0.21470800  1
  O  O55  1  0.63344700  0.85142800  0.15817100  1
  O  O56  1  0.85702100  0.63347200  0.15869000  1
  O  O57  1  0.31193800  0.84236900  0.32106500  1
  O  O58  1  0.84139300  0.32209300  0.31231700  1
  O  O59  1  0.77401500  0.01194800  0.49965500  1
  O  O60  1  0.21198800  0.01625600  0.77607500  1
  O  O61  1  0.02510600  0.03401200  0.84222700  1
  O  O62  1  0.50520900  0.77691400  0.21649600  1
  O  O63  1  0.77503900  0.49813100  0.21604300  1
  O  O64  1  0.84529600  0.14295100  0.36854900  1
  O  O65  1  0.14420800  0.84594200  0.36715900  1
  O  O66  1  0.41111900  0.96991800  0.16218600  1
  O  O67  1  0.95792500  0.41049600  0.16265200  1
  O  O68  1  0.67990600  0.68661200  0.15622600  1
  O  O69  1  0.83872500  0.02671000  0.32291800  1
  O  O70  1  0.59753600  0.83962500  0.03601700  1
  O  O71  1  0.36572000  0.84738100  0.14233100  1
  O  O72  1  0.84688000  0.36568300  0.14488000  1
  O  O73  1  0.84130200  0.59535800  0.02689400  1
  O  O74  1  0.02607700  0.83937400  0.31169700  1
  O  O75  1  0.84653800  0.14431800  0.14245400  1
  O  O76  1  0.14327000  0.84573000  0.14348000  1
  O  O77  1  0.49875200  0.77557100  0.01030900  1
  O  O78  1  0.03721700  0.02347000  0.59843800  1
  O  O79  1  0.01141800  0.21552000  0.49837500  1
  O  O80  1  0.01289300  0.77512500  0.21226400  1
  O  O81  1  0.32229900  0.84350800  0.02285100  1
  O  O82  1  0.84560800  0.31083200  0.02277100  1
  O  O83  1  0.14375100  0.14368200  0.36864300  1
  O  O84  1  0.77697200  0.21688900  0.00837100  1
  O  O85  1  0.02667100  0.31127400  0.32157300  1
  O  O86  1  0.32267500  0.02624000  0.31146600  1
  O  O87  1  0.84216800  0.02618700  0.03514700  1
  O  O88  1  0.03651200  0.84162300  0.02264900  1
  O  O89  1  0.49907400  0.01313400  0.21421500  1
  O  O90  1  0.14500900  0.36632900  0.14299000  1
  O  O91  1  0.36740700  0.14365700  0.14418800  1
  O  O92  1  0.21765600  0.49702000  0.00956500  1
  O  O93  1  0.02624000  0.59705500  0.03506200  1
  O  O94  1  0.59770100  0.03625800  0.02477700  1
  O  O95  1  0.31138800  0.32109200  0.02313800  1
loop_
_geom_bond_atom_site_label_1
_geom_bond_atom_site_label_2
_geom_bond_distance
_geom_bond_site_symmetry_2
Al0 O4 1.722113 1_555
Al0 O0 1.729366 1_555
Al0 O77 1.769190 1_556
Al0 O70 1.823842 1_556
Al1 O5 1.708534 1_555
Al1 O10 1.731951 1_555
Al1 O41 1.788193 1_655
Al1 O28 1.829832 1_655
Al2 O12 1.714450 1_555
Al2 O9 1.737743 1_555
Al2 O59 1.765699 1_565
Al2 O42 1.840671 1_565
Al3 O84 1.736222 1_556
Al3 O14 1.737361 1_555
Al3 O87 1.779993 1_556
Al3 O19 1.806908 1_555
Al4 O26 1.736592 1_555
Al4 O60 1.749705 1_565
Al4 O61 1.787064 1_565
Al4 O20 1.790601 1_555
Al5 O92 1.738614 1_556
Al5 O13 1.742877 1_555
Al5 O93 1.774987 1_556
Al5 O23 1.796340 1_555
Al6 O27 1.729057 1_555
Al6 O32 1.751513 1_555
Al6 O22 1.774875 1_555
Al6 O39 1.813081 1_555
Al7 O38 1.741127 1_555
Al7 O33 1.754259 1_555
Al7 O29 1.763634 1_555
Al7 O24 1.801786 1_555
Al8 O79 1.736409 1_655
Al8 O21 1.745379 1_555
Al8 O78 1.785159 1_655
Al8 O30 1.788639 1_555
Al9 O45 1.736054 1_555
Al9 O6 1.736714 1_555
Al9 O1 1.772766 1_545
Al9 O40 1.825367 1_555
Al10 O48 1.738306 1_555
Al10 O37 1.745445 1_555
Al10 O43 1.770228 1_555
Al10 O31 1.815963 1_555
Al11 O51 1.737216 1_555
Al11 O46 1.739232 1_555
Al11 O80 1.756555 1_655
Al11 O88 1.819601 1_655
Al12 O44 1.729197 1_555
Al12 O15 1.755156 1_555
Al12 O7 1.778015 1_455
Al12 O49 1.815306 1_555
Al13 O58 1.731995 1_555
Al13 O64 1.752490 1_555
Al13 O47 1.776941 1_555
Al13 O52 1.799999 1_555
Al14 O55 1.730640 1_555
Al14 O50 1.743251 1_555
Al14 O89 1.760524 1_565
Al14 O94 1.810566 1_565
Al15 O74 1.741434 1_555
Al15 O16 1.757326 1_555
Al15 O65 1.762202 1_555
Al15 O17 1.799955 1_455
Al16 O57 1.735492 1_555
Al16 O71 1.758771 1_555
Al16 O62 1.759774 1_555
Al16 O66 1.800593 1_555
Al17 O68 1.739128 1_555
Al17 O56 1.750245 1_555
Al17 O63 1.763061 1_555
Al17 O73 1.791193 1_555
Al18 O82 1.739537 1_555
Al18 O3 1.746414 1_555
Al18 O72 1.754124 1_555
Al18 O2 1.815515 1_554
Al19 O69 1.732959 1_555
Al19 O75 1.762032 1_555
Al19 O35 1.765539 1_555
Al19 O34 1.805490 1_545
Al20 O81 1.725704 1_555
Al20 O76 1.747236 1_555
Al20 O11 1.770076 1_554
Al20 O8 1.820502 1_554
Al21 O86 1.733312 1_555
Al21 O83 1.754289 1_555
Al21 O36 1.780676 1_545
Al21 O53 1.790636 1_545
Al22 O85 1.740822 1_555
Al22 O90 1.761029 1_555
Al22 O54 1.767554 1_555
Al22 O67 1.788617 1_455
Al23 O95 1.732254 1_555
Al23 O91 1.746431 1_555
Al23 O18 1.770318 1_554
Al23 O25 1.801462 1_554
Cd0 O34 2.331122 1_555
Cd0 O87 2.394148 1_565
Cd0 O7 2.396213 1_564
Cd0 O8 2.418305 1_654
Cd0 O88 2.433307 1_655
Cd0 O61 2.522382 1_664
Cd1 O73 2.320819 1_555
Cd1 O67 2.405700 1_555
Cd1 O93 2.408928 1_655
Cd1 O2 2.422554 1_554
Cd1 O28 2.463009 1_654
Cd1 O22 2.475670 1_654
Cd2 O70 2.333526 1_555
Cd2 O1 2.396852 1_554
Cd2 O29 2.400016 1_564
Cd2 O66 2.409722 1_555
Cd2 O94 2.438190 1_565
Cd2 O25 2.516729 1_564
Cd3 O17 2.341310 1_555
Cd3 O43 2.398180 1_655
Cd3 O53 2.406218 1_655
Cd3 O52 2.418540 1_565
Cd3 O42 2.439440 1_565
Cd3 O78 2.535607 1_665
Cd4 O23 2.161713 1_555
Cd4 O31 2.168579 1_555
Cd4 O20 2.195521 1_555
Cd5 O30 2.159272 1_555
Cd5 O24 2.162335 1_555
Cd5 O19 2.192479 1_555
Cd6 O39 2.167425 1_555
Cd6 O40 2.168038 1_555
Cd6 O49 2.188514 1_555
O0 Si0 1.617812 1_555
O0 Rb3 2.740420 1_556
O1 Si18 1.683875 1_556
O2 Si9 1.653368 1_655
O3 Si0 1.638391 1_554
O4 Si1 1.597715 1_555
O5 Si0 1.605451 1_555
O6 Si1 1.647115 1_545
O6 Rb1 3.238541 1_555
O7 Si20 1.686641 1_556
O8 Si12 1.655766 1_565
O9 Si1 1.617410 1_555
O9 Rb1 2.719974 1_565
O10 Si2 1.624596 1_555
O10 Rb2 2.715501 1_655
O11 Si3 1.612414 1_555
O12 Si2 1.602980 1_555
O13 Si3 1.620333 1_555
O13 Rb8 2.914646 1_556
O14 Si5 1.621363 1_555
O14 Rb7 2.917897 1_556
O15 Si4 1.620640 1_455
O15 Rb6 3.384587 1_555
O16 Si2 1.635671 1_455
O16 Rb2 3.252345 1_555
O17 Si15 1.676399 1_565
O18 Si5 1.616544 1_555
O19 Si4 1.675601 1_555
O20 Si3 1.691004 1_555
O21 Si4 1.617995 1_555
O21 Rb6 2.866542 1_655
O22 Si23 1.678187 1_556
O23 Si6 1.686364 1_555
O24 Si5 1.681937 1_555
O25 Si7 1.651538 1_555
O26 Si8 1.627014 1_555
O26 Rb6 2.867790 1_565
O27 Si7 1.610791 1_555
O28 Si6 1.644961 1_555
O29 Si1 1.694834 1_545
O30 Si10 1.695692 1_555
O31 Si8 1.677283 1_555
O32 Si6 1.626205 1_555
O32 Rb2 3.440972 1_555
O33 Si7 1.628736 1_555
O33 Rb1 3.343661 1_555
O34 Si19 1.680452 1_655
O35 Si11 1.628936 1_545
O36 Si8 1.614555 1_555
O36 Rb6 3.379248 1_565
O37 Si6 1.619495 1_555
O37 Rb2 2.980208 1_555
O38 Si10 1.626499 1_555
O38 Rb1 2.973837 1_555
O39 Si9 1.695732 1_555
O40 Si7 1.686543 1_555
O41 Si9 1.620474 1_555
O41 Rb2 3.212607 1_555
O42 Si10 1.649089 1_555
O43 Si2 1.700603 1_455
O44 Si9 1.615923 1_555
O45 Si12 1.607113 1_555
O46 Si11 1.623933 1_555
O46 Rb0 2.860240 1_555
O47 Si10 1.614902 1_555
O47 Rb1 3.475716 1_555
O48 Si13 1.645244 1_555
O48 Rb2 3.355767 1_555
O49 Si12 1.685161 1_555
O50 Si11 1.624615 1_555
O50 Rb7 2.755690 1_565
O51 Si14 1.626554 1_555
O51 Rb8 2.752764 1_655
O52 Si21 1.669448 1_655
O53 Si13 1.677739 1_555
O54 Si14 1.633768 1_455
O55 Si16 1.633230 1_555
O55 Rb0 2.803827 1_555
O56 Si14 1.620163 1_555
O56 Rb0 2.795342 1_555
O57 Si13 1.614041 1_555
O58 Si17 1.620591 1_555
O59 Si15 1.637580 1_555
O59 Rb1 3.204406 1_555
O60 Si12 1.630346 1_555
O60 Rb6 3.297521 1_555
O61 Si4 1.657082 1_455
O62 Si16 1.633981 1_555
O63 Si17 1.635813 1_555
O64 Si15 1.637700 1_555
O64 Rb5 2.686154 1_555
O65 Si13 1.629233 1_555
O65 Rb4 2.677685 1_555
O66 Si22 1.669318 1_565
O67 Si17 1.677414 1_555
O68 Si16 1.623413 1_555
O68 Rb3 2.821474 1_555
O69 Si15 1.617237 1_555
O70 Si16 1.674371 1_555
O71 Si18 1.633288 1_555
O71 Rb4 2.680887 1_555
O72 Si17 1.636764 1_555
O72 Rb5 2.676894 1_555
O73 Si0 1.693155 1_554
O74 Si19 1.614686 1_555
O75 Si20 1.624884 1_555
O75 Rb5 2.712613 1_555
O76 Si19 1.635698 1_555
O76 Rb4 2.714457 1_555
O77 Si18 1.629998 1_555
O78 Si8 1.657177 1_545
O79 Si21 1.650272 1_555
O79 Rb6 3.269051 1_555
O80 Si19 1.640051 1_555
O81 Si18 1.618696 1_555
O82 Si20 1.609530 1_555
O83 Si21 1.629899 1_555
O83 Rb9 2.678344 1_555
O84 Si20 1.643390 1_555
O85 Si21 1.615504 1_555
O86 Si22 1.619349 1_555
O87 Si11 1.686364 1_545
O88 Si3 1.657180 1_554
O89 Si22 1.642390 1_555
O90 Si23 1.626130 1_555
O90 Rb9 2.678169 1_555
O91 Si22 1.636916 1_555
O91 Rb9 2.682148 1_555
O92 Si23 1.642799 1_555
O93 Si14 1.681088 1_455
O94 Si5 1.650287 1_554
O95 Si23 1.615277 1_555
