# generated using pymatgen
data_Al2O3
_symmetry_space_group_name_H-M   'P 1'
_cell_length_a   5.50409319
_cell_length_b   8.24037900
_cell_length_c   5.41863035
_cell_angle_alpha   90.00000000
_cell_angle_beta   58.59694035
_cell_angle_gamma   90.00000000
_symmetry_Int_Tables_number   1
_chemical_formula_structural   Al2O3
_chemical_formula_sum   'Al8 O12'
_cell_volume   209.76726003
_cell_formula_units_Z   4
loop_
 _symmetry_equiv_pos_site_id
 _symmetry_equiv_pos_as_xyz
  1  'x, y, z'
loop_
 _atom_site_type_symbol
 _atom_site_label
 _atom_site_symmetry_multiplicity
 _atom_site_fract_x
 _atom_site_fract_y
 _atom_site_fract_z
 _atom_site_occupancy
  Al  Al0  1  0.94835837  0.04296559  0.28394144  1
  Al  Al1  1  0.94835837  0.45703441  0.78394144  1
  Al  Al2  1  0.53412873  0.34406602  0.70444068  1
  Al  Al3  1  0.46587127  0.84406602  0.79555932  1
  Al  Al4  1  0.53412873  0.15593398  0.20444068  1
  Al  Al5  1  0.46587127  0.65593398  0.29555932  1
  Al  Al6  1  0.05164163  0.54296559  0.21605856  1
  Al  Al7  1  0.05164163  0.95703441  0.71605856  1
  O  O0  1  0.17437368  0.10944196  0.43180486  1
  O  O1  1  0.32010825  0.70503099  0.08070497  1
  O  O2  1  0.17437368  0.39055804  0.93180486  1
  O  O3  1  0.25013223  0.47983868  0.42220071  1
  O  O4  1  0.74986777  0.97983868  0.07779929  1
  O  O5  1  0.32010825  0.79496901  0.58070497  1
  O  O6  1  0.67989175  0.20503099  0.41929503  1
  O  O7  1  0.25013223  0.02016132  0.92220071  1
  O  O8  1  0.74986777  0.52016132  0.57779929  1
  O  O9  1  0.82562632  0.60944196  0.06819514  1
  O  O10  1  0.67989175  0.29496901  0.91929503  1
  O  O11  1  0.82562632  0.89055804  0.56819514  1
loop_
_geom_bond_atom_site_label_1
_geom_bond_atom_site_label_2
_geom_bond_distance
_geom_bond_site_symmetry_2
Al0 O7 1.800965 1_654
Al0 O11 1.822559 1_545
Al0 O6 1.837259 1_555
Al0 O0 1.878371 1_655
Al0 O4 1.995900 1_545
Al1 O3 1.800965 1_655
Al1 O9 1.822559 1_556
Al1 O10 1.837259 1_555
Al1 O2 1.878371 1_655
Al1 O8 1.995900 1_555
Al2 O2 1.744492 1_555
Al2 O6 1.746944 1_555
Al2 O10 1.770913 1_555
Al2 O8 1.771280 1_555
Al3 O11 1.744492 1_555
Al3 O1 1.746944 1_556
Al3 O5 1.770913 1_555
Al3 O7 1.771280 1_565
Al4 O0 1.744492 1_555
Al4 O10 1.746944 1_554
Al4 O6 1.770913 1_555
Al4 O4 1.771280 1_545
Al5 O9 1.744492 1_555
Al5 O5 1.746944 1_555
Al5 O1 1.770913 1_555
Al5 O3 1.771280 1_555
Al6 O8 1.800965 1_455
Al6 O2 1.822559 1_554
Al6 O1 1.837259 1_555
Al6 O9 1.878371 1_455
Al6 O3 1.995900 1_555
Al7 O4 1.800965 1_456
Al7 O0 1.822559 1_565
Al7 O5 1.837259 1_555
Al7 O11 1.878371 1_455
Al7 O7 1.995900 1_565
