# generated using pymatgen
data_PtN4(Cl2O)2
_symmetry_space_group_name_H-M   'P 1'
_cell_length_a   8.29052600
_cell_length_b   7.67831500
_cell_length_c   9.65104258
_cell_angle_alpha   85.61390676
_cell_angle_beta   90.00000000
_cell_angle_gamma   90.00000000
_symmetry_Int_Tables_number   1
_chemical_formula_structural   PtN4(Cl2O)2
_chemical_formula_sum   'Pt2 N8 Cl8 O4'
_cell_volume   612.55977868
_cell_formula_units_Z   2
loop_
 _symmetry_equiv_pos_site_id
 _symmetry_equiv_pos_as_xyz
  1  'x, y, z'
loop_
 _atom_site_type_symbol
 _atom_site_label
 _atom_site_symmetry_multiplicity
 _atom_site_fract_x
 _atom_site_fract_y
 _atom_site_fract_z
 _atom_site_occupancy
  Pt  Pt0  1  0.50000000  0.00000000  0.50000000  1
  Pt  Pt1  1  0.00000000  0.00000000  0.00000000  1
  N  N0  1  0.50079000  0.15339100  0.33255500  1
  N  N1  1  0.00079000  0.84660900  0.16744500  1
  N  N2  1  0.49921000  0.84660900  0.66744500  1
  N  N3  1  0.99921000  0.15339100  0.83255500  1
  N  N4  1  0.49157700  0.24205700  0.23556100  1
  N  N5  1  0.99157700  0.75794300  0.26443900  1
  N  N6  1  0.50842300  0.75794300  0.76443900  1
  N  N7  1  0.00842300  0.24205700  0.73556100  1
  Cl  Cl0  1  0.77929000  0.98246800  0.51265800  1
  Cl  Cl1  1  0.27929000  0.01753200  0.98734200  1
  Cl  Cl2  1  0.22071000  0.01753200  0.48734200  1
  Cl  Cl3  1  0.72071000  0.98246800  0.01265800  1
  Cl  Cl4  1  0.80445800  0.42303200  0.42988500  1
  Cl  Cl5  1  0.30445800  0.57696800  0.07011500  1
  Cl  Cl6  1  0.19554200  0.57696800  0.57011500  1
  Cl  Cl7  1  0.69554200  0.42303200  0.92988500  1
  O  O0  1  0.34252600  0.44648800  0.57772500  1
  O  O1  1  0.84252600  0.55351200  0.92227500  1
  O  O2  1  0.65747400  0.55351200  0.42227500  1
  O  O3  1  0.15747400  0.44648800  0.07772500  1
loop_
_geom_bond_atom_site_label_1
_geom_bond_atom_site_label_2
_geom_bond_distance
_geom_bond_site_symmetry_2
N0 N4 1.117194 1_555
N0 Pt0 1.925517 1_555
N1 N5 1.117194 1_455
N1 Pt1 1.925517 1_565
N2 N6 1.117194 1_555
N2 Pt0 1.925517 1_565
N3 N7 1.117194 1_655
N3 Pt1 1.925517 1_656
Cl0 Pt0 2.322044 1_565
Cl1 Pt1 2.322044 1_556
Cl2 Pt0 2.322044 1_555
Cl3 Pt1 2.322044 1_665
Cl4 O2 1.575690 1_555
Cl5 O3 1.575690 1_555
Cl6 O0 1.575690 1_555
Cl7 O1 1.575690 1_555
