# generated using pymatgen
data_NaLaO2
_symmetry_space_group_name_H-M   'P 1'
_cell_length_a   7.85862315
_cell_length_b   7.85862315
_cell_length_c   6.44321806
_cell_angle_alpha   76.26872770
_cell_angle_beta   76.26872770
_cell_angle_gamma   127.45693004
_symmetry_Int_Tables_number   1
_chemical_formula_structural   NaLaO2
_chemical_formula_sum   'Na4 La4 O8'
_cell_volume   266.61096344
_cell_formula_units_Z   4
loop_
 _symmetry_equiv_pos_site_id
 _symmetry_equiv_pos_as_xyz
  1  'x, y, z'
loop_
 _atom_site_type_symbol
 _atom_site_label
 _atom_site_symmetry_multiplicity
 _atom_site_fract_x
 _atom_site_fract_y
 _atom_site_fract_z
 _atom_site_occupancy
  Na  Na0  1  0.19483900  0.80516100  0.75000000  1
  Na  Na1  1  0.56934700  0.43065300  0.25000000  1
  Na  Na2  1  0.43065300  0.56934700  0.75000000  1
  Na  Na3  1  0.80516100  0.19483900  0.25000000  1
  La  La0  1  0.05725500  0.94274500  0.25000000  1
  La  La1  1  0.31799400  0.68200600  0.25000000  1
  La  La2  1  0.68200600  0.31799400  0.75000000  1
  La  La3  1  0.94274500  0.05725500  0.75000000  1
  O  O0  1  0.06993800  0.44338400  0.70312600  1
  O  O1  1  0.16544900  0.28906300  0.29698600  1
  O  O2  1  0.71093700  0.83455100  0.20301400  1
  O  O3  1  0.44338400  0.06993800  0.20312600  1
  O  O4  1  0.55661600  0.93006200  0.79687400  1
  O  O5  1  0.28906300  0.16544900  0.79698600  1
  O  O6  1  0.83455100  0.71093700  0.70301400  1
  O  O7  1  0.93006200  0.55661600  0.29687400  1
loop_
_geom_bond_atom_site_label_1
_geom_bond_atom_site_label_2
_geom_bond_distance
_geom_bond_site_symmetry_2
Na0 O0 2.508339 1_555
Na0 O4 2.508339 1_555
Na0 O5 2.572908 1_565
Na0 O6 2.572908 1_455
Na0 O3 2.978117 1_565
Na0 O7 2.978117 1_456
Na1 O3 2.498403 1_555
Na1 O7 2.498403 1_555
Na1 O1 2.548059 1_555
Na1 O2 2.548059 1_555
Na1 O5 2.976615 1_555
Na1 O6 2.976615 1_554
Na2 O4 2.498403 1_555
Na2 O0 2.498403 1_555
Na2 O5 2.548059 1_555
Na2 O6 2.548059 1_555
Na2 O2 2.976615 1_555
Na2 O1 2.976615 1_556
Na3 O3 2.508339 1_555
Na3 O7 2.508339 1_555
Na3 O2 2.572908 1_545
Na3 O1 2.572908 1_655
Na3 O0 2.978117 1_654
Na3 O4 2.978117 1_545
La0 O2 2.433170 1_455
La0 O1 2.433170 1_565
La0 O3 2.455712 1_565
La0 O7 2.455712 1_455
La0 O5 2.464539 1_564
La0 O6 2.464539 1_455
La1 O2 2.438371 1_555
La1 O1 2.438371 1_555
La1 O0 2.468438 1_555
La1 O4 2.468438 1_554
La1 O7 2.474652 1_455
La1 O3 2.474652 1_565
La2 O5 2.438371 1_555
La2 O6 2.438371 1_555
La2 O3 2.468438 1_556
La2 O7 2.468438 1_555
La2 O4 2.474652 1_545
La2 O0 2.474652 1_655
La3 O6 2.433170 1_545
La3 O5 2.433170 1_655
La3 O0 2.455712 1_655
La3 O4 2.455712 1_545
La3 O1 2.464539 1_655
La3 O2 2.464539 1_546
