# generated using pymatgen
data_LiMn(SiO3)2
_symmetry_space_group_name_H-M   'P 1'
_cell_length_a   5.38540300
_cell_length_b   8.65787400
_cell_length_c   18.24353800
_cell_angle_alpha   90.00000000
_cell_angle_beta   90.00000000
_cell_angle_gamma   90.00000000
_symmetry_Int_Tables_number   1
_chemical_formula_structural   LiMn(SiO3)2
_chemical_formula_sum   'Li8 Mn8 Si16 O48'
_cell_volume   850.62576807
_cell_formula_units_Z   8
loop_
 _symmetry_equiv_pos_site_id
 _symmetry_equiv_pos_as_xyz
  1  'x, y, z'
loop_
 _atom_site_type_symbol
 _atom_site_label
 _atom_site_symmetry_multiplicity
 _atom_site_fract_x
 _atom_site_fract_y
 _atom_site_fract_z
 _atom_site_occupancy
  Li  Li0  1  0.62878900  0.00617200  0.12425300  1
  Li  Li1  1  0.12878900  0.49382800  0.12425300  1
  Li  Li2  1  0.12878900  0.99382800  0.37574700  1
  Li  Li3  1  0.62878900  0.50617200  0.37574700  1
  Li  Li4  1  0.37121100  0.49382800  0.62425300  1
  Li  Li5  1  0.87121100  0.00617200  0.62425300  1
  Li  Li6  1  0.37121100  0.99382800  0.87574700  1
  Li  Li7  1  0.87121100  0.50617200  0.87574700  1
  Mn  Mn0  1  0.63063300  0.65390900  0.12492800  1
  Mn  Mn1  1  0.13063300  0.84609100  0.12492800  1
  Mn  Mn2  1  0.13063300  0.34609100  0.37507200  1
  Mn  Mn3  1  0.63063300  0.15390900  0.37507200  1
  Mn  Mn4  1  0.36936700  0.84609100  0.62492800  1
  Mn  Mn5  1  0.86936700  0.65390900  0.62492800  1
  Mn  Mn6  1  0.36936700  0.34609100  0.87507200  1
  Mn  Mn7  1  0.86936700  0.15390900  0.87507200  1
  Si  Si0  1  0.71896400  0.33413500  0.02589300  1
  Si  Si1  1  0.21896400  0.16586500  0.02589300  1
  Si  Si2  1  0.46407900  0.33665000  0.22376300  1
  Si  Si3  1  0.96407900  0.16335000  0.22376300  1
  Si  Si4  1  0.46407900  0.83665000  0.27623700  1
  Si  Si5  1  0.96407900  0.66335000  0.27623700  1
  Si  Si6  1  0.71896400  0.83413500  0.47410700  1
  Si  Si7  1  0.21896400  0.66586500  0.47410700  1
  Si  Si8  1  0.78103600  0.33413500  0.52589300  1
  Si  Si9  1  0.28103600  0.16586500  0.52589300  1
  Si  Si10  1  0.03592100  0.33665000  0.72376300  1
  Si  Si11  1  0.53592100  0.16335000  0.72376300  1
  Si  Si12  1  0.03592100  0.83665000  0.77623700  1
  Si  Si13  1  0.53592100  0.66335000  0.77623700  1
  Si  Si14  1  0.78103600  0.83413500  0.97410700  1
  Si  Si15  1  0.28103600  0.66586500  0.97410700  1
  O  O0  1  0.93362300  0.20901100  0.05286800  1
  O  O1  1  0.43362300  0.29098900  0.05286800  1
  O  O2  1  0.77905600  0.82690200  0.06480000  1
  O  O3  1  0.27905600  0.67309800  0.06480000  1
  O  O4  1  0.79452000  0.49739700  0.06351400  1
  O  O5  1  0.29452000  0.00260300  0.06351400  1
  O  O6  1  0.47376100  0.83222200  0.18589900  1
  O  O7  1  0.97376100  0.66777800  0.18589900  1
  O  O8  1  0.96990500  0.99135600  0.18875600  1
  O  O9  1  0.46990500  0.50864400  0.18875600  1
  O  O10  1  0.19186900  0.27263400  0.19346600  1
  O  O11  1  0.69186900  0.22736600  0.19346600  1
  O  O12  1  0.19186900  0.77263400  0.30653400  1
  O  O13  1  0.69186900  0.72736600  0.30653400  1
  O  O14  1  0.96990500  0.49135600  0.31124400  1
  O  O15  1  0.46990500  0.00864400  0.31124400  1
  O  O16  1  0.47376100  0.33222200  0.31410100  1
  O  O17  1  0.97376100  0.16777800  0.31410100  1
  O  O18  1  0.79452000  0.99739700  0.43648600  1
  O  O19  1  0.29452000  0.50260300  0.43648600  1
  O  O20  1  0.77905600  0.32690200  0.43520000  1
  O  O21  1  0.27905600  0.17309800  0.43520000  1
  O  O22  1  0.43362300  0.79098900  0.44713200  1
  O  O23  1  0.93362300  0.70901100  0.44713200  1
  O  O24  1  0.06637700  0.29098900  0.55286800  1
  O  O25  1  0.56637700  0.20901100  0.55286800  1
  O  O26  1  0.72094400  0.82690200  0.56480000  1
  O  O27  1  0.22094400  0.67309800  0.56480000  1
  O  O28  1  0.70548000  0.49739700  0.56351400  1
  O  O29  1  0.20548000  0.00260300  0.56351400  1
  O  O30  1  0.02623900  0.83222200  0.68589900  1
  O  O31  1  0.52623900  0.66777800  0.68589900  1
  O  O32  1  0.53009500  0.99135600  0.68875600  1
  O  O33  1  0.03009500  0.50864400  0.68875600  1
  O  O34  1  0.30813100  0.27263400  0.69346600  1
  O  O35  1  0.80813100  0.22736600  0.69346600  1
  O  O36  1  0.30813100  0.77263400  0.80653400  1
  O  O37  1  0.80813100  0.72736600  0.80653400  1
  O  O38  1  0.53009500  0.49135600  0.81124400  1
  O  O39  1  0.03009500  0.00864400  0.81124400  1
  O  O40  1  0.02623900  0.33222200  0.81410100  1
  O  O41  1  0.52623900  0.16777800  0.81410100  1
  O  O42  1  0.70548000  0.99739700  0.93648600  1
  O  O43  1  0.20548000  0.50260300  0.93648600  1
  O  O44  1  0.72094400  0.32690200  0.93520000  1
  O  O45  1  0.22094400  0.17309800  0.93520000  1
  O  O46  1  0.06637700  0.79098900  0.94713200  1
  O  O47  1  0.56637700  0.70901100  0.94713200  1
loop_
_geom_bond_atom_site_label_1
_geom_bond_atom_site_label_2
_geom_bond_distance
_geom_bond_site_symmetry_2
Li0 O6 2.056697 1_545
Li0 O2 2.059203 1_545
Li0 O5 2.114108 1_555
Li0 O8 2.185399 1_545
Li0 O11 2.318897 1_555
Li1 O7 2.056697 1_455
Li1 O3 2.059203 1_555
Li1 O4 2.114108 1_455
Li1 O9 2.185399 1_555
Li1 O10 2.318897 1_555
Li2 O17 2.056697 1_465
Li2 O21 2.059203 1_565
Li2 O18 2.114108 1_455
Li2 O15 2.185399 1_565
Li2 O12 2.318897 1_555
Li3 O16 2.056697 1_555
Li3 O20 2.059203 1_555
Li3 O19 2.114108 1_555
Li3 O14 2.185399 1_555
Li3 O13 2.318897 1_555
Li4 O31 2.056697 1_555
Li4 O27 2.059203 1_555
Li4 O28 2.114108 1_555
Li4 O33 2.185399 1_555
Li4 O34 2.318897 1_555
Li5 O30 2.056697 1_645
Li5 O26 2.059203 1_545
Li5 O29 2.114108 1_655
Li5 O32 2.185399 1_545
Li5 O35 2.318897 1_555
Li6 O41 2.056697 1_565
Li6 O45 2.059203 1_565
Li6 O42 2.114108 1_555
Li6 O39 2.185399 1_565
Li6 O36 2.318897 1_555
Li7 O40 2.056697 1_655
Li7 O44 2.059203 1_555
Li7 O43 2.114108 1_655
Li7 O38 2.185399 1_555
Li7 O37 2.318897 1_555
Mn0 O9 1.920144 1_555
Mn0 O4 1.967355 1_555
Mn0 O2 2.021253 1_555
Mn0 O6 2.081909 1_555
Mn0 O7 2.160176 1_555
Mn0 O3 2.194492 1_555
Mn1 O8 1.920144 1_455
Mn1 O5 1.967355 1_565
Mn1 O3 2.021253 1_555
Mn1 O7 2.081909 1_455
Mn1 O6 2.160176 1_555
Mn1 O2 2.194492 1_455
Mn2 O14 1.920144 1_455
Mn2 O19 1.967355 1_555
Mn2 O21 2.021253 1_555
Mn2 O17 2.081909 1_455
Mn2 O16 2.160176 1_555
Mn2 O20 2.194492 1_455
Mn3 O15 1.920144 1_555
Mn3 O18 1.967355 1_545
Mn3 O20 2.021253 1_555
Mn3 O16 2.081909 1_555
Mn3 O17 2.160176 1_555
Mn3 O21 2.194492 1_555
Mn4 O32 1.920144 1_555
Mn4 O29 1.967355 1_565
Mn4 O27 2.021253 1_555
Mn4 O31 2.081909 1_555
Mn4 O30 2.160176 1_555
Mn4 O26 2.194492 1_555
Mn5 O33 1.920144 1_655
Mn5 O28 1.967355 1_555
Mn5 O26 2.021253 1_555
Mn5 O30 2.081909 1_655
Mn5 O31 2.160176 1_555
Mn5 O27 2.194492 1_655
Mn6 O38 1.920144 1_555
Mn6 O43 1.967355 1_555
Mn6 O45 2.021253 1_555
Mn6 O41 2.081909 1_555
Mn6 O40 2.160176 1_555
Mn6 O44 2.194492 1_555
Mn7 O39 1.920144 1_655
Mn7 O42 1.967355 1_545
Mn7 O44 2.021253 1_555
Mn7 O40 2.081909 1_655
Mn7 O41 2.160176 1_555
Mn7 O45 2.194492 1_655
O0 Si1 1.656230 1_655
O0 Si0 1.658955 1_555
O1 Si0 1.656230 1_555
O1 Si1 1.658955 1_555
O2 Si14 1.655780 1_554
O3 Si15 1.655780 1_554
O4 Si0 1.623150 1_555
O5 Si1 1.623150 1_555
O6 Si4 1.649355 1_555
O7 Si5 1.649355 1_555
O8 Si3 1.620582 1_565
O9 Si2 1.620582 1_555
O10 Si3 1.644880 1_455
O10 Si2 1.661845 1_555
O11 Si2 1.644880 1_555
O11 Si3 1.661845 1_555
O12 Si5 1.644880 1_455
O12 Si4 1.661845 1_555
O13 Si4 1.644880 1_555
O13 Si5 1.661845 1_555
O14 Si5 1.620582 1_555
O15 Si4 1.620582 1_545
O16 Si2 1.649355 1_555
O17 Si3 1.649355 1_555
O18 Si6 1.623150 1_555
O19 Si7 1.623150 1_555
O20 Si8 1.655780 1_555
O21 Si9 1.655780 1_555
O22 Si6 1.656230 1_555
O22 Si7 1.658955 1_555
O23 Si7 1.656230 1_655
O23 Si6 1.658955 1_555
O24 Si8 1.656230 1_455
O24 Si9 1.658955 1_555
O25 Si9 1.656230 1_555
O25 Si8 1.658955 1_555
O26 Si6 1.655780 1_555
O27 Si7 1.655780 1_555
O28 Si8 1.623150 1_555
O29 Si9 1.623150 1_555
O30 Si12 1.649355 1_555
O31 Si13 1.649355 1_555
O32 Si11 1.620582 1_565
O33 Si10 1.620582 1_555
O34 Si11 1.644880 1_555
O34 Si10 1.661845 1_555
O35 Si10 1.644880 1_655
O35 Si11 1.661845 1_555
O36 Si13 1.644880 1_555
O36 Si12 1.661845 1_555
O37 Si12 1.644880 1_655
O37 Si13 1.661845 1_555
O38 Si13 1.620582 1_555
O39 Si12 1.620582 1_545
O40 Si10 1.649355 1_555
O41 Si11 1.649355 1_555
O42 Si14 1.623150 1_555
O43 Si15 1.623150 1_555
O44 Si0 1.655780 1_556
O45 Si1 1.655780 1_556
O46 Si14 1.656230 1_455
O46 Si15 1.658955 1_555
O47 Si15 1.656230 1_555
O47 Si14 1.658955 1_555
