# generated using pymatgen
data_Na7Mn11O24
_symmetry_space_group_name_H-M   'P 1'
_cell_length_a   6.06182700
_cell_length_b   8.75783847
_cell_length_c   10.52027694
_cell_angle_alpha   113.49211126
_cell_angle_beta   105.14942324
_cell_angle_gamma   90.01870423
_symmetry_Int_Tables_number   1
_chemical_formula_structural   Na7Mn11O24
_chemical_formula_sum   'Na7 Mn11 O24'
_cell_volume   490.95627910
_cell_formula_units_Z   1
loop_
 _symmetry_equiv_pos_site_id
 _symmetry_equiv_pos_as_xyz
  1  'x, y, z'
loop_
 _atom_site_type_symbol
 _atom_site_label
 _atom_site_symmetry_multiplicity
 _atom_site_fract_x
 _atom_site_fract_y
 _atom_site_fract_z
 _atom_site_occupancy
  Na  Na0  1  0.50000000  0.00000000  0.50000000  1
  Na  Na1  1  0.92066000  0.03762100  0.34564100  1
  Na  Na2  1  0.07934000  0.96237900  0.65435900  1
  Na  Na3  1  0.41912600  0.28161300  0.33752300  1
  Na  Na4  1  0.24481200  0.35307100  0.98141400  1
  Na  Na5  1  0.75518800  0.64692900  0.01858600  1
  Na  Na6  1  0.58087400  0.71838700  0.66247700  1
  Mn  Mn0  1  0.33146600  0.81314600  0.15047100  1
  Mn  Mn1  1  0.50000000  0.00000000  0.00000000  1
  Mn  Mn2  1  0.00000000  0.00000000  0.00000000  1
  Mn  Mn3  1  0.84374500  0.32623900  0.17257400  1
  Mn  Mn4  1  0.66853400  0.18685400  0.84952900  1
  Mn  Mn5  1  0.00000000  0.50000000  0.50000000  1
  Mn  Mn6  1  0.34342100  0.34833000  0.68410200  1
  Mn  Mn7  1  0.16117400  0.65377700  0.31596000  1
  Mn  Mn8  1  0.83882600  0.34622300  0.68404000  1
  Mn  Mn9  1  0.65657900  0.65167000  0.31589800  1
  Mn  Mn10  1  0.15625500  0.67376100  0.82742600  1
  O  O0  1  0.17222800  0.85697700  0.29156200  1
  O  O1  1  0.62580500  0.85017400  0.28415400  1
  O  O2  1  0.34922300  0.03336800  0.14889600  1
  O  O3  1  0.53256700  0.28521500  0.55602100  1
  O  O4  1  0.14313600  0.90189500  0.84457000  1
  O  O5  1  0.65077700  0.96663200  0.85110400  1
  O  O6  1  0.85686400  0.09810500  0.15543000  1
  O  O7  1  0.03046400  0.26997400  0.55083200  1
  O  O8  1  0.95995900  0.23499800  0.00545900  1
  O  O9  1  0.55349600  0.24081100  0.02446800  1
  O  O10  1  0.37419500  0.14982600  0.71584600  1
  O  O11  1  0.82777200  0.14302300  0.70843800  1
  O  O12  1  0.12990100  0.43340800  0.33146300  1
  O  O13  1  0.71251800  0.43216400  0.33701300  1
  O  O14  1  0.96953600  0.73002600  0.44916800  1
  O  O15  1  0.65828900  0.40682400  0.82671500  1
  O  O16  1  0.84619700  0.55275900  0.18092800  1
  O  O17  1  0.46743300  0.71478500  0.44397900  1
  O  O18  1  0.15380300  0.44724100  0.81907200  1
  O  O19  1  0.34171100  0.59317600  0.17328500  1
  O  O20  1  0.28748200  0.56783600  0.66298700  1
  O  O21  1  0.87009900  0.56659200  0.66853700  1
  O  O22  1  0.04004100  0.76500200  0.99454100  1
  O  O23  1  0.44650400  0.75918900  0.97553200  1
loop_
_geom_bond_atom_site_label_1
_geom_bond_atom_site_label_2
_geom_bond_distance
_geom_bond_site_symmetry_2
Na0 O3 2.321824 1_555
Na0 O17 2.321824 1_545
Na0 O11 2.420028 1_555
Na0 O0 2.420028 1_545
Na0 O1 2.447442 1_545
Na0 O10 2.447442 1_555
Na1 O1 2.203456 1_545
Na1 O6 2.207977 1_555
Na1 O0 2.211230 1_645
Na1 O7 2.233787 1_655
Na2 O10 2.203456 1_565
Na2 O4 2.207977 1_555
Na2 O11 2.211230 1_465
Na2 O14 2.233787 1_455
Na3 O12 2.203599 1_555
Na3 O3 2.207644 1_555
Na3 O13 2.215988 1_555
Na3 O2 2.228105 1_555
Na4 O18 2.128888 1_555
Na4 O8 2.133202 1_456
Na4 O9 2.141573 1_556
Na4 O19 2.199270 1_556
Na5 O16 2.128888 1_555
Na5 O22 2.133202 1_654
Na5 O23 2.141573 1_554
Na5 O15 2.199270 1_554
Na6 O21 2.203599 1_555
Na6 O17 2.207644 1_555
Na6 O20 2.215988 1_555
Na6 O5 2.228105 1_555
Mn0 O0 1.891339 1_555
Mn0 O1 1.895000 1_555
Mn0 O2 1.938530 1_565
Mn0 O22 1.980645 1_554
Mn0 O23 2.018501 1_554
Mn0 O19 2.033132 1_555
Mn1 O2 1.938555 1_555
Mn1 O5 1.938555 1_544
Mn1 O23 2.035277 1_544
Mn1 O9 2.035277 1_555
Mn1 O4 2.263073 1_544
Mn1 O6 2.263073 1_555
Mn2 O4 1.945970 1_544
Mn2 O6 1.945970 1_455
Mn2 O8 2.052136 1_455
Mn2 O22 2.052136 1_544
Mn2 O5 2.218544 1_444
Mn2 O2 2.218544 1_555
Mn3 O9 1.928732 1_555
Mn3 O6 1.936753 1_555
Mn3 O8 1.937370 1_555
Mn3 O16 1.950335 1_555
Mn3 O12 1.979040 1_655
Mn3 O13 1.981508 1_555
Mn4 O11 1.891339 1_555
Mn4 O10 1.895000 1_555
Mn4 O5 1.938530 1_545
Mn4 O8 1.980645 1_556
Mn4 O9 2.018501 1_556
Mn4 O15 2.033132 1_555
Mn5 O13 1.988796 1_455
Mn5 O20 1.988796 1_555
Mn5 O12 2.002389 1_555
Mn5 O21 2.002389 1_455
Mn5 O14 2.277260 1_455
Mn5 O7 2.277260 1_555
Mn6 O10 1.897129 1_555
Mn6 O3 1.910470 1_555
Mn6 O7 1.969130 1_555
Mn6 O18 1.990188 1_555
Mn6 O15 2.011545 1_555
Mn6 O20 2.039963 1_555
Mn7 O0 1.900104 1_555
Mn7 O17 1.914340 1_555
Mn7 O14 1.965864 1_455
Mn7 O19 1.989006 1_555
Mn7 O16 2.006376 1_455
Mn7 O12 2.013489 1_555
Mn8 O11 1.900104 1_555
Mn8 O3 1.914340 1_555
Mn8 O7 1.965864 1_655
Mn8 O15 1.989006 1_555
Mn8 O18 2.006376 1_655
Mn8 O21 2.013489 1_555
Mn9 O1 1.897129 1_555
Mn9 O17 1.910470 1_555
Mn9 O14 1.969130 1_555
Mn9 O16 1.990188 1_555
Mn9 O19 2.011545 1_555
Mn9 O13 2.039963 1_555
Mn10 O23 1.928732 1_555
Mn10 O4 1.936753 1_555
Mn10 O22 1.937370 1_555
Mn10 O18 1.950335 1_555
Mn10 O21 1.979040 1_455
Mn10 O20 1.981508 1_555
