# generated using pymatgen
data_LiVP2O7
_symmetry_space_group_name_H-M   'P 1'
_cell_length_a   7.93577100
_cell_length_b   6.41110701
_cell_length_c   6.16668059
_cell_angle_alpha   109.39613720
_cell_angle_beta   103.69886965
_cell_angle_gamma   98.96087616
_symmetry_Int_Tables_number   1
_chemical_formula_structural   LiVP2O7
_chemical_formula_sum   'Li2 V2 P4 O14'
_cell_volume   277.95312444
_cell_formula_units_Z   2
loop_
 _symmetry_equiv_pos_site_id
 _symmetry_equiv_pos_as_xyz
  1  'x, y, z'
loop_
 _atom_site_type_symbol
 _atom_site_label
 _atom_site_symmetry_multiplicity
 _atom_site_fract_x
 _atom_site_fract_y
 _atom_site_fract_z
 _atom_site_occupancy
  Li  Li0  1  0.00000000  0.00000000  0.00000000  1
  Li  Li1  1  0.00000000  0.50000000  0.00000000  1
  V  V0  1  0.36828400  0.22828300  0.67976500  1
  V  V1  1  0.63171600  0.77171700  0.32023500  1
  P  P0  1  0.82095300  0.21120400  0.54604300  1
  P  P1  1  0.44775900  0.31702200  0.22980500  1
  P  P2  1  0.55224100  0.68297800  0.77019500  1
  P  P3  1  0.17904700  0.78879600  0.45395700  1
  O  O0  1  0.78544300  0.03729700  0.38379000  1
  O  O1  1  0.69546000  0.19447700  0.71688200  1
  O  O2  1  0.40886200  0.20539600  0.99847100  1
  O  O3  1  0.27568400  0.20814100  0.32471500  1
  O  O4  1  0.72306800  0.34368300  0.39687300  1
  O  O5  1  0.08853700  0.31649100  0.68627600  1
  O  O6  1  0.57899200  0.49628900  0.77332800  1
  O  O7  1  0.42100800  0.50371100  0.22667200  1
  O  O8  1  0.91146300  0.68350900  0.31372400  1
  O  O9  1  0.27693200  0.65631700  0.60312700  1
  O  O10  1  0.72431600  0.79185900  0.67528500  1
  O  O11  1  0.59113800  0.79460400  0.00152900  1
  O  O12  1  0.30454000  0.80552300  0.28311800  1
  O  O13  1  0.21455700  0.96270300  0.61621000  1
loop_
_geom_bond_atom_site_label_1
_geom_bond_atom_site_label_2
_geom_bond_distance
_geom_bond_site_symmetry_2
Li0 O3 2.411952 1_555
Li0 O10 2.411952 1_444
Li1 O5 2.238341 1_554
Li1 O8 2.238341 1_455
O0 P0 1.162431 1_555
O0 V1 1.795595 1_545
O1 P0 1.628455 1_555
O1 V0 2.601422 1_555
O2 P1 1.298863 1_556
O2 V0 1.973414 1_555
O3 P1 1.745709 1_555
O3 V0 2.090717 1_555
O4 P0 1.599057 1_555
O4 P1 2.136479 1_555
O5 P0 2.002166 1_455
O5 V0 2.380773 1_555
O6 P2 1.253211 1_555
O6 V0 2.017609 1_555
O7 P1 1.253211 1_555
O7 V1 2.017609 1_555
O8 P3 2.002166 1_655
O8 V1 2.380773 1_555
O9 P3 1.599057 1_555
O9 P2 2.136479 1_555
O10 P2 1.745709 1_555
O10 V1 2.090717 1_555
O11 P2 1.298863 1_554
O11 V1 1.973414 1_555
O12 P3 1.628455 1_555
O12 V1 2.601422 1_555
O13 P3 1.162431 1_555
O13 V0 1.795595 1_565
