# generated using pymatgen
data_Li3Fe2P2(CO7)2
_symmetry_space_group_name_H-M   'P 1'
_cell_length_a   8.25822400
_cell_length_b   8.26726249
_cell_length_c   8.39209638
_cell_angle_alpha   93.78981480
_cell_angle_beta   92.72274774
_cell_angle_gamma   103.07977218
_symmetry_Int_Tables_number   1
_chemical_formula_structural   Li3Fe2P2(CO7)2
_chemical_formula_sum   'Li6 Fe4 P4 C4 O28'
_cell_volume   555.71653203
_cell_formula_units_Z   2
loop_
 _symmetry_equiv_pos_site_id
 _symmetry_equiv_pos_as_xyz
  1  'x, y, z'
loop_
 _atom_site_type_symbol
 _atom_site_label
 _atom_site_symmetry_multiplicity
 _atom_site_fract_x
 _atom_site_fract_y
 _atom_site_fract_z
 _atom_site_occupancy
  Li  Li0  1  0.26174900  0.00680100  0.89100000  1
  Li  Li1  1  0.76350600  0.50314500  0.89688900  1
  Li  Li2  1  0.89615600  0.86252100  0.71900700  1
  Li  Li3  1  0.10384400  0.13747900  0.28099300  1
  Li  Li4  1  0.23649400  0.49685500  0.10311100  1
  Li  Li5  1  0.73825100  0.99319900  0.10900000  1
  Fe  Fe0  1  0.02683200  0.28066700  0.67462800  1
  Fe  Fe1  1  0.52063700  0.77443100  0.66044400  1
  Fe  Fe2  1  0.97316800  0.71933300  0.32537200  1
  Fe  Fe3  1  0.47936300  0.22556900  0.33955600  1
  P  P0  1  0.23187600  0.99019900  0.57722900  1
  P  P1  1  0.74028100  0.49060400  0.57989700  1
  P  P2  1  0.76812400  0.00980100  0.42277100  1
  P  P3  1  0.25971900  0.50939600  0.42010300  1
  C  C0  1  0.98190800  0.21701100  0.96170000  1
  C  C1  1  0.48033300  0.72911100  0.95569200  1
  C  C2  1  0.01809200  0.78298900  0.03830000  1
  C  C3  1  0.51966700  0.27088900  0.04430800  1
  O  O0  1  0.09430800  0.34744300  0.92977100  1
  O  O1  1  0.60136600  0.85171200  0.92665400  1
  O  O2  1  0.04504200  0.82825200  0.89833400  1
  O  O3  1  0.89524800  0.13235400  0.83667700  1
  O  O4  1  0.56001800  0.31429400  0.90780000  1
  O  O5  1  0.39392500  0.64642000  0.82929100  1
  O  O6  1  0.17950600  0.11729200  0.69673200  1
  O  O7  1  0.36670500  0.92929100  0.67595000  1
  O  O8  1  0.86030300  0.42231800  0.69127100  1
  O  O9  1  0.69537700  0.63033700  0.69326100  1
  O  O10  1  0.07570000  0.84657900  0.52956900  1
  O  O11  1  0.70711200  0.93246500  0.57845200  1
  O  O12  1  0.18433800  0.44246500  0.57254600  1
  O  O13  1  0.58305100  0.35049600  0.53010400  1
  O  O14  1  0.92430000  0.15342100  0.47043100  1
  O  O15  1  0.29288800  0.06753500  0.42154800  1
  O  O16  1  0.81566200  0.55753500  0.42745400  1
  O  O17  1  0.41694900  0.64950400  0.46989600  1
  O  O18  1  0.82049400  0.88270800  0.30326800  1
  O  O19  1  0.13969700  0.57768200  0.30872900  1
  O  O20  1  0.63329500  0.07070900  0.32405000  1
  O  O21  1  0.30462300  0.36966300  0.30673900  1
  O  O22  1  0.10475200  0.86764600  0.16332300  1
  O  O23  1  0.95495800  0.17174800  0.10166600  1
  O  O24  1  0.60607500  0.35358000  0.17070900  1
  O  O25  1  0.43998200  0.68570600  0.09220000  1
  O  O26  1  0.39863400  0.14828800  0.07334600  1
  O  O27  1  0.90569200  0.65255700  0.07022900  1
loop_
_geom_bond_atom_site_label_1
_geom_bond_atom_site_label_2
_geom_bond_distance
_geom_bond_site_symmetry_2
Li0 O26 1.997086 1_556
Li0 O2 2.052372 1_545
Li0 O6 2.079926 1_555
Li0 O7 2.160096 1_545
Li1 O27 1.991071 1_556
Li1 O4 2.028769 1_555
Li1 O8 2.069656 1_555
Li1 O9 2.180930 1_555
Li2 O2 1.973591 1_655
Li2 O11 2.118197 1_555
Li2 O9 2.225101 1_555
Li2 O10 2.242302 1_655
Li2 O3 2.380894 1_565
Li3 O23 1.973591 1_455
Li3 O15 2.118197 1_555
Li3 O21 2.225101 1_555
Li3 O14 2.242302 1_455
Li3 O22 2.380894 1_545
Li4 O0 1.991071 1_554
Li4 O25 2.028769 1_555
Li4 O19 2.069656 1_555
Li4 O21 2.180930 1_555
Li5 O1 1.997086 1_554
Li5 O23 2.052372 1_565
Li5 O18 2.079926 1_555
Li5 O20 2.160096 1_565
Fe0 O12 1.919603 1_555
Fe0 O14 1.995207 1_455
Fe0 O8 2.001931 1_455
Fe0 O6 2.056705 1_555
Fe0 O3 2.071572 1_455
Fe0 O0 2.188857 1_555
Fe1 O17 1.899557 1_555
Fe1 O11 1.964878 1_555
Fe1 O7 2.000574 1_555
Fe1 O5 2.015115 1_555
Fe1 O9 2.088301 1_555
Fe1 O1 2.306665 1_555
Fe2 O16 1.919603 1_555
Fe2 O10 1.995207 1_655
Fe2 O19 2.001931 1_655
Fe2 O18 2.056705 1_555
Fe2 O22 2.071572 1_655
Fe2 O27 2.188857 1_555
Fe3 O13 1.899557 1_555
Fe3 O15 1.964878 1_555
Fe3 O20 2.000574 1_555
Fe3 O24 2.015115 1_555
Fe3 O21 2.088301 1_555
Fe3 O26 2.306665 1_555
C0 O23 1.270633 1_556
C0 O0 1.305740 1_655
C0 O3 1.306797 1_555
C1 O25 1.260424 1_556
C1 O1 1.297308 1_555
C1 O5 1.308892 1_555
C2 O2 1.270633 1_554
C2 O27 1.305740 1_455
C2 O22 1.306797 1_555
C3 O4 1.260424 1_554
C3 O26 1.297308 1_555
C3 O24 1.308892 1_555
O6 P0 1.550610 1_545
O7 P0 1.549506 1_555
O8 P1 1.552324 1_555
O9 P1 1.568196 1_555
O10 P0 1.558293 1_555
O11 P2 1.548133 1_565
O12 P3 1.530911 1_555
O13 P1 1.551122 1_555
O14 P2 1.558293 1_555
O15 P0 1.548133 1_545
O16 P1 1.530911 1_555
O17 P3 1.551122 1_555
O18 P2 1.550610 1_565
O19 P3 1.552324 1_555
O20 P2 1.549506 1_555
O21 P3 1.568196 1_555
