# generated using pymatgen
data_Li3Mn4O8
_symmetry_space_group_name_H-M   'P 1'
_cell_length_a   6.07246900
_cell_length_b   6.09181140
_cell_length_c   8.09865611
_cell_angle_alpha   90.35748323
_cell_angle_beta   90.40501026
_cell_angle_gamma   93.05834054
_symmetry_Int_Tables_number   1
_chemical_formula_structural   Li3Mn4O8
_chemical_formula_sum   'Li6 Mn8 O16'
_cell_volume   299.14747060
_cell_formula_units_Z   2
loop_
 _symmetry_equiv_pos_site_id
 _symmetry_equiv_pos_as_xyz
  1  'x, y, z'
loop_
 _atom_site_type_symbol
 _atom_site_label
 _atom_site_symmetry_multiplicity
 _atom_site_fract_x
 _atom_site_fract_y
 _atom_site_fract_z
 _atom_site_occupancy
  Li  Li0  1  0.26115100  0.73930300  0.75047400  1
  Li  Li1  1  0.50000000  0.50000000  0.00000000  1
  Li  Li2  1  0.00000000  0.00000000  0.00000000  1
  Li  Li3  1  0.73884900  0.26069700  0.24952600  1
  Li  Li4  1  0.00000000  0.00000000  0.50000000  1
  Li  Li5  1  0.50000000  0.50000000  0.50000000  1
  Mn  Mn0  1  0.00000000  0.50000000  0.00000000  1
  Mn  Mn1  1  0.25012400  0.74991100  0.25008000  1
  Mn  Mn2  1  0.24654700  0.25035900  0.25097700  1
  Mn  Mn3  1  0.50000000  0.00000000  0.50000000  1
  Mn  Mn4  1  0.74990000  0.75288100  0.24986100  1
  Mn  Mn5  1  0.25010000  0.24711900  0.75013900  1
  Mn  Mn6  1  0.75345300  0.74964100  0.74902300  1
  Mn  Mn7  1  0.74987600  0.25008900  0.74992000  1
  O  O0  1  0.98184100  0.49601700  0.76165700  1
  O  O1  1  0.21895000  0.28202400  0.99407000  1
  O  O2  1  0.22929200  0.73015000  0.01061300  1
  O  O3  1  0.48074300  0.99522800  0.26138400  1
  O  O4  1  0.51352000  0.46932100  0.75091300  1
  O  O5  1  0.78105000  0.71797600  0.00593000  1
  O  O6  1  0.77070800  0.26985000  0.98938700  1
  O  O7  1  0.01863500  0.96430300  0.25081200  1
  O  O8  1  0.01815900  0.50398300  0.23834300  1
  O  O9  1  0.27182200  0.76970400  0.49012400  1
  O  O10  1  0.27860300  0.21819400  0.50719100  1
  O  O11  1  0.48648000  0.53067900  0.24908700  1
  O  O12  1  0.72817800  0.23029600  0.50987600  1
  O  O13  1  0.72139700  0.78180600  0.49280900  1
  O  O14  1  0.98136500  0.03569700  0.74918800  1
  O  O15  1  0.51925700  0.00477200  0.73861600  1
loop_
_geom_bond_atom_site_label_1
_geom_bond_atom_site_label_2
_geom_bond_distance
_geom_bond_site_symmetry_2
Li0 O2 2.117810 1_556
Li0 O9 2.118898 1_555
Li0 O15 2.194237 1_565
Li0 O0 2.194780 1_455
Li0 O4 2.307053 1_555
Li0 O14 2.544427 1_465
Li1 O11 2.027393 1_555
Li1 O4 2.027393 1_554
Li1 O5 2.105821 1_555
Li1 O1 2.105821 1_554
Li1 O6 2.218512 1_554
Li1 O2 2.218512 1_555
Li2 O14 2.047173 1_454
Li2 O7 2.047173 1_545
Li2 O1 2.116577 1_554
Li2 O5 2.116577 1_445
Li2 O2 2.211947 1_545
Li2 O6 2.211947 1_454
Li3 O6 2.117810 1_554
Li3 O12 2.118898 1_555
Li3 O3 2.194237 1_545
Li3 O8 2.194780 1_655
Li3 O11 2.307053 1_555
Li3 O7 2.544427 1_645
Li4 O14 2.033015 1_455
Li4 O7 2.033015 1_545
Li4 O10 2.095246 1_555
Li4 O13 2.095246 1_445
Li4 O12 2.224124 1_455
Li4 O9 2.224124 1_545
Li5 O4 2.043269 1_555
Li5 O11 2.043269 1_555
Li5 O13 2.124628 1_555
Li5 O10 2.124628 1_555
Li5 O9 2.206511 1_555
Li5 O12 2.206511 1_555
Mn0 O2 1.923608 1_555
Mn0 O6 1.923608 1_454
Mn0 O5 1.929193 1_455
Mn0 O1 1.929193 1_554
Mn0 O8 1.932554 1_555
Mn0 O0 1.932554 1_454
Mn1 O2 1.945150 1_555
Mn1 O9 1.950109 1_555
Mn1 O7 1.969189 1_555
Mn1 O3 1.994002 1_555
Mn1 O8 2.002195 1_555
Mn1 O11 2.012021 1_555
Mn2 O10 2.094110 1_555
Mn2 O1 2.097075 1_554
Mn2 O8 2.132986 1_555
Mn2 O3 2.163555 1_545
Mn2 O7 2.166720 1_545
Mn2 O11 2.185014 1_555
Mn3 O12 1.919398 1_555
Mn3 O9 1.919398 1_545
Mn3 O15 1.935122 1_555
Mn3 O3 1.935122 1_545
Mn3 O13 1.941253 1_545
Mn3 O10 1.941253 1_555
Mn4 O13 1.983938 1_555
Mn4 O5 1.996993 1_555
Mn4 O7 2.024187 1_655
Mn4 O11 2.039550 1_555
Mn4 O3 2.262211 1_555
Mn4 O8 2.285880 1_655
Mn5 O10 1.983938 1_555
Mn5 O1 1.996993 1_555
Mn5 O14 2.024187 1_455
Mn5 O4 2.039550 1_555
Mn5 O15 2.262211 1_555
Mn5 O0 2.285880 1_455
Mn6 O13 2.094110 1_555
Mn6 O5 2.097075 1_556
Mn6 O0 2.132986 1_555
Mn6 O15 2.163555 1_565
Mn6 O14 2.166720 1_565
Mn6 O4 2.185014 1_555
Mn7 O6 1.945150 1_555
Mn7 O12 1.950109 1_555
Mn7 O14 1.969189 1_555
Mn7 O15 1.994002 1_555
Mn7 O0 2.002195 1_555
Mn7 O4 2.012021 1_555
