# generated using pymatgen
data_Mn3V(PO4)4
_symmetry_space_group_name_H-M   'P 1'
_cell_length_a   6.00301100
_cell_length_b   4.91491200
_cell_length_c   9.94312363
_cell_angle_alpha   89.42676894
_cell_angle_beta   90.00000000
_cell_angle_gamma   90.00000000
_symmetry_Int_Tables_number   1
_chemical_formula_structural   Mn3V(PO4)4
_chemical_formula_sum   'Mn3 V1 P4 O16'
_cell_volume   293.34992997
_cell_formula_units_Z   1
loop_
 _symmetry_equiv_pos_site_id
 _symmetry_equiv_pos_as_xyz
  1  'x, y, z'
loop_
 _atom_site_type_symbol
 _atom_site_label
 _atom_site_symmetry_multiplicity
 _atom_site_fract_x
 _atom_site_fract_y
 _atom_site_fract_z
 _atom_site_occupancy
  Mn  Mn0  1  0.50000000  0.93237900  0.28685200  1
  Mn  Mn1  1  0.50000000  0.55211600  0.77881900  1
  Mn  Mn2  1  0.00000000  0.42814300  0.21664600  1
  V  V0  1  0.00000000  0.04847600  0.71929000  1
  P  P0  1  0.00000000  0.90733100  0.40163800  1
  P  P1  1  0.00000000  0.61047000  0.90094000  1
  P  P2  1  0.50000000  0.41384400  0.10367100  1
  P  P3  1  0.50000000  0.06802800  0.59264200  1
  O  O0  1  0.00000000  0.84166400  0.55557200  1
  O  O1  1  0.20115900  0.76598100  0.33274600  1
  O  O2  1  0.79884100  0.76598100  0.33274600  1
  O  O3  1  0.50000000  0.76255000  0.60532100  1
  O  O4  1  0.50000000  0.72481800  0.12552500  1
  O  O5  1  0.19448600  0.76939900  0.82779300  1
  O  O6  1  0.80551400  0.76939900  0.82779300  1
  O  O7  1  0.00000000  0.65304900  0.05265700  1
  O  O8  1  0.50000000  0.35883200  0.95406200  1
  O  O9  1  0.70098300  0.26885100  0.17499700  1
  O  O10  1  0.29901700  0.26885100  0.17499700  1
  O  O11  1  0.00000000  0.30517800  0.86926800  1
  O  O12  1  0.00000000  0.21848500  0.38300300  1
  O  O13  1  0.70670900  0.20330300  0.66894300  1
  O  O14  1  0.29329100  0.20330300  0.66894300  1
  O  O15  1  0.50000000  0.15956800  0.44513500  1
loop_
_geom_bond_atom_site_label_1
_geom_bond_atom_site_label_2
_geom_bond_distance
_geom_bond_site_symmetry_2
Mn0 O4 1.909596 1_555
Mn0 O15 1.938794 1_565
Mn0 O1 2.021846 1_555
Mn0 O2 2.021846 1_555
Mn0 O9 2.321774 1_565
Mn0 O10 2.321774 1_565
Mn1 O8 1.976235 1_555
Mn1 O3 2.002502 1_555
Mn1 O6 2.179809 1_555
Mn1 O5 2.179809 1_555
Mn1 O14 2.389550 1_555
Mn1 O13 2.389550 1_555
Mn2 O12 1.940051 1_555
Mn2 O7 1.960756 1_555
Mn2 O9 2.003237 1_455
Mn2 O10 2.003237 1_555
Mn2 O1 2.363527 1_555
Mn2 O2 2.363527 1_455
O0 P0 1.561080 1_555
O0 V0 1.927760 1_565
O1 P0 1.555503 1_555
O2 P0 1.555503 1_655
O3 P3 1.505424 1_565
O4 P2 1.545930 1_555
O5 P1 1.578234 1_555
O5 V0 2.092553 1_565
O6 P1 1.578234 1_655
O6 V0 2.092553 1_665
O7 P1 1.525060 1_554
O8 P2 1.514612 1_556
O9 P2 1.567273 1_555
O10 P2 1.567273 1_555
O11 P1 1.536255 1_555
O11 V0 1.962977 1_555
O12 P0 1.538637 1_545
O13 P3 1.602340 1_555
O13 V0 1.980369 1_655
O14 P3 1.602340 1_555
O14 V0 1.980369 1_555
O15 P3 1.529826 1_555
