# generated using pymatgen
data_AgB11H6CBr6
_symmetry_space_group_name_H-M   'P 1'
_cell_length_a   11.36629500
_cell_length_b   12.04997000
_cell_length_c   13.16828300
_cell_angle_alpha   90.00000000
_cell_angle_beta   90.00000000
_cell_angle_gamma   90.00000000
_symmetry_Int_Tables_number   1
_chemical_formula_structural   AgB11H6CBr6
_chemical_formula_sum   'Ag4 B44 H24 C4 Br24'
_cell_volume   1803.57430988
_cell_formula_units_Z   4
loop_
 _symmetry_equiv_pos_site_id
 _symmetry_equiv_pos_as_xyz
  1  'x, y, z'
loop_
 _atom_site_type_symbol
 _atom_site_label
 _atom_site_symmetry_multiplicity
 _atom_site_fract_x
 _atom_site_fract_y
 _atom_site_fract_z
 _atom_site_occupancy
  Ag  Ag0  1  0.00000000  0.50000000  0.50000000  1
  Ag  Ag1  1  0.50000000  0.00000000  0.00000000  1
  Ag  Ag2  1  0.50000000  0.50000000  0.50000000  1
  Ag  Ag3  1  0.00000000  0.00000000  0.00000000  1
  B  B0  1  0.17172700  0.91925600  0.49700200  1
  B  B1  1  0.32827300  0.41925600  0.00299800  1
  B  B2  1  0.67172700  0.08074400  0.50299800  1
  B  B3  1  0.82827300  0.58074400  0.99700200  1
  B  B4  1  0.82827300  0.08074400  0.50299800  1
  B  B5  1  0.67172700  0.58074400  0.99700200  1
  B  B6  1  0.32827300  0.91925600  0.49700200  1
  B  B7  1  0.17172700  0.41925600  0.00299800  1
  B  B8  1  0.12338000  0.85772600  0.61304300  1
  B  B9  1  0.37662000  0.35772600  0.88695700  1
  B  B10  1  0.62338000  0.14227400  0.38695700  1
  B  B11  1  0.87662000  0.64227400  0.11304300  1
  B  B12  1  0.87662000  0.14227400  0.38695700  1
  B  B13  1  0.62338000  0.64227400  0.11304300  1
  B  B14  1  0.37662000  0.85772600  0.61304300  1
  B  B15  1  0.12338000  0.35772600  0.88695700  1
  B  B16  1  0.25000000  0.81962500  0.68497600  1
  B  B17  1  0.25000000  0.31962500  0.81502400  1
  B  B18  1  0.75000000  0.18037500  0.31502400  1
  B  B19  1  0.75000000  0.68037500  0.18497600  1
  B  B20  1  0.12239300  0.77960900  0.49878500  1
  B  B21  1  0.37760700  0.27960900  0.00121500  1
  B  B22  1  0.62239300  0.22039100  0.50121500  1
  B  B23  1  0.87760700  0.72039100  0.99878500  1
  B  B24  1  0.87760700  0.22039100  0.50121500  1
  B  B25  1  0.62239300  0.72039100  0.99878500  1
  B  B26  1  0.37760700  0.77960900  0.49878500  1
  B  B27  1  0.12239300  0.27960900  0.00121500  1
  B  B28  1  0.17134000  0.71766100  0.61517300  1
  B  B29  1  0.32866000  0.21766100  0.88482700  1
  B  B30  1  0.67134000  0.28233900  0.38482700  1
  B  B31  1  0.82866000  0.78233900  0.11517300  1
  B  B32  1  0.82866000  0.28233900  0.38482700  1
  B  B33  1  0.67134000  0.78233900  0.11517300  1
  B  B34  1  0.32866000  0.71766100  0.61517300  1
  B  B35  1  0.17134000  0.21766100  0.88482700  1
  B  B36  1  0.25000000  0.81776400  0.42521500  1
  B  B37  1  0.25000000  0.31776400  0.07478500  1
  B  B38  1  0.75000000  0.18223600  0.57478500  1
  B  B39  1  0.75000000  0.68223600  0.92521500  1
  B  B40  1  0.25000000  0.69290700  0.49939700  1
  B  B41  1  0.25000000  0.19290700  0.00060300  1
  B  B42  1  0.75000000  0.30709300  0.50060300  1
  B  B43  1  0.75000000  0.80709300  0.99939700  1
  H  H0  1  0.25000000  0.01262700  0.64315100  1
  H  H1  1  0.25000000  0.51262700  0.85684900  1
  H  H2  1  0.75000000  0.98737300  0.35684900  1
  H  H3  1  0.75000000  0.48737300  0.14315100  1
  H  H4  1  0.12066000  0.99709200  0.46385700  1
  H  H5  1  0.37934000  0.49709200  0.03614300  1
  H  H6  1  0.62066000  0.00290800  0.53614300  1
  H  H7  1  0.87934000  0.50290800  0.96385700  1
  H  H8  1  0.87934000  0.00290800  0.53614300  1
  H  H9  1  0.62066000  0.50290800  0.96385700  1
  H  H10  1  0.37934000  0.99709200  0.46385700  1
  H  H11  1  0.12066000  0.49709200  0.03614300  1
  H  H12  1  0.03943800  0.89380400  0.65514200  1
  H  H13  1  0.46056200  0.39380400  0.84485800  1
  H  H14  1  0.53943800  0.10619600  0.34485800  1
  H  H15  1  0.96056200  0.60619600  0.15514200  1
  H  H16  1  0.96056200  0.10619600  0.34485800  1
  H  H17  1  0.53943800  0.60619600  0.15514200  1
  H  H18  1  0.46056200  0.89380400  0.65514200  1
  H  H19  1  0.03943800  0.39380400  0.84485800  1
  H  H20  1  0.25000000  0.83177300  0.77445300  1
  H  H21  1  0.25000000  0.33177300  0.72554700  1
  H  H22  1  0.75000000  0.16822700  0.22554700  1
  H  H23  1  0.75000000  0.66822700  0.27445300  1
  C  C0  1  0.25000000  0.93197600  0.60667800  1
  C  C1  1  0.25000000  0.43197600  0.89332200  1
  C  C2  1  0.75000000  0.06802400  0.39332200  1
  C  C3  1  0.75000000  0.56802400  0.10667800  1
  Br  Br0  1  0.97324700  0.73111100  0.43587000  1
  Br  Br1  1  0.52675300  0.23111100  0.06413000  1
  Br  Br2  1  0.47324700  0.26888900  0.56413000  1
  Br  Br3  1  0.02675300  0.76888900  0.93587000  1
  Br  Br4  1  0.02675300  0.26888900  0.56413000  1
  Br  Br5  1  0.47324700  0.76888900  0.93587000  1
  Br  Br6  1  0.52675300  0.73111100  0.43587000  1
  Br  Br7  1  0.97324700  0.23111100  0.06413000  1
  Br  Br8  1  0.07947900  0.59923000  0.68218400  1
  Br  Br9  1  0.42052100  0.09923000  0.81781600  1
  Br  Br10  1  0.57947900  0.40077000  0.31781600  1
  Br  Br11  1  0.92052100  0.90077000  0.18218400  1
  Br  Br12  1  0.92052100  0.40077000  0.31781600  1
  Br  Br13  1  0.57947900  0.90077000  0.18218400  1
  Br  Br14  1  0.42052100  0.59923000  0.68218400  1
  Br  Br15  1  0.07947900  0.09923000  0.81781600  1
  Br  Br16  1  0.25000000  0.81450100  0.27663400  1
  Br  Br17  1  0.25000000  0.31450100  0.22336600  1
  Br  Br18  1  0.75000000  0.18549900  0.72336600  1
  Br  Br19  1  0.75000000  0.68549900  0.77663400  1
  Br  Br20  1  0.25000000  0.54609400  0.43349800  1
  Br  Br21  1  0.25000000  0.04609400  0.06650200  1
  Br  Br22  1  0.75000000  0.45390600  0.56650200  1
  Br  Br23  1  0.75000000  0.95390600  0.93349800  1
loop_
_geom_bond_atom_site_label_1
_geom_bond_atom_site_label_2
_geom_bond_distance
_geom_bond_site_symmetry_2
Ag0 Br12 2.828654 1_455
Ag0 Br8 2.828654 1_555
Ag0 Br0 2.925949 1_455
Ag0 Br4 2.925949 1_555
Ag0 Br20 3.024884 1_555
Ag0 Br22 3.024884 1_455
Ag1 Br13 2.828654 1_545
Ag1 Br9 2.828654 1_554
Ag1 Br5 2.925949 1_544
Ag1 Br1 2.925949 1_555
Ag1 Br23 3.024884 1_544
Ag1 Br21 3.024884 1_555
Ag2 Br10 2.828654 1_555
Ag2 Br14 2.828654 1_555
Ag2 Br6 2.925949 1_555
Ag2 Br2 2.925949 1_555
Ag2 Br22 3.024884 1_555
Ag2 Br20 3.024884 1_555
Ag3 Br11 2.828654 1_445
Ag3 Br15 2.828654 1_554
Ag3 Br3 2.925949 1_544
Ag3 Br7 2.925949 1_455
Ag3 Br23 3.024884 1_444
Ag3 Br21 3.024884 1_555
B0 H4 1.186217 1_555
B0 C0 1.703190 1_555
B1 H5 1.186217 1_555
B1 C1 1.703190 1_554
B2 H6 1.186217 1_555
B2 C2 1.703190 1_555
B3 H7 1.186217 1_555
B3 C3 1.703190 1_556
B4 H8 1.186217 1_555
B4 C2 1.703190 1_555
B5 H9 1.186217 1_555
B5 C3 1.703190 1_556
B6 H10 1.186217 1_555
B6 C0 1.703190 1_555
B7 H11 1.186217 1_555
B7 C1 1.703190 1_554
B8 H12 1.186023 1_555
B8 C0 1.696711 1_555
B9 H13 1.186023 1_555
B9 C1 1.696711 1_555
B10 H14 1.186023 1_555
B10 C2 1.696711 1_555
B11 H15 1.186023 1_555
B11 C3 1.696711 1_555
B12 H16 1.186023 1_555
B12 C2 1.696711 1_555
B13 H17 1.186023 1_555
B13 C3 1.696711 1_555
B14 H18 1.186023 1_555
B14 C0 1.696711 1_555
B15 H19 1.186023 1_555
B15 C1 1.696711 1_555
B16 H20 1.187317 1_555
B16 C0 1.701737 1_555
B17 H21 1.187317 1_555
B17 C1 1.701737 1_555
B18 H22 1.187317 1_555
B18 C2 1.701737 1_555
B19 H23 1.187317 1_555
B19 C3 1.701737 1_555
B20 Br0 1.975281 1_455
B21 Br1 1.975281 1_555
B22 Br2 1.975281 1_555
B23 Br3 1.975281 1_655
B24 Br4 1.975281 1_655
B25 Br5 1.975281 1_555
B26 Br6 1.975281 1_555
B27 Br7 1.975281 1_455
B28 Br8 1.976217 1_555
B29 Br9 1.976217 1_555
B30 Br10 1.976217 1_555
B31 Br11 1.976217 1_555
B32 Br12 1.976217 1_555
B33 Br13 1.976217 1_555
B34 Br14 1.976217 1_555
B35 Br15 1.976217 1_555
B36 Br16 1.956952 1_555
B37 Br17 1.956952 1_555
B38 Br18 1.956952 1_555
B39 Br19 1.956952 1_555
B40 Br20 1.970463 1_555
B41 Br21 1.970463 1_555
B42 Br22 1.970463 1_555
B43 Br23 1.970463 1_555
C0 H0 1.084045 1_565
C1 H1 1.084045 1_555
C2 H2 1.084045 1_545
C3 H3 1.084045 1_555
