# generated using pymatgen
data_Mn3(O2F)2
_symmetry_space_group_name_H-M   'P 1'
_cell_length_a   10.30623433
_cell_length_b   10.30623433
_cell_length_c   3.08295400
_cell_angle_alpha   90.00000000
_cell_angle_beta   90.00000000
_cell_angle_gamma   143.05720098
_symmetry_Int_Tables_number   1
_chemical_formula_structural   Mn3(O2F)2
_chemical_formula_sum   'Mn6 O8 F4'
_cell_volume   196.81315467
_cell_formula_units_Z   2
loop_
 _symmetry_equiv_pos_site_id
 _symmetry_equiv_pos_as_xyz
  1  'x, y, z'
loop_
 _atom_site_type_symbol
 _atom_site_label
 _atom_site_symmetry_multiplicity
 _atom_site_fract_x
 _atom_site_fract_y
 _atom_site_fract_z
 _atom_site_occupancy
  Mn  Mn0  1  0.84004100  0.15995900  0.00000000  1
  Mn  Mn1  1  0.00000000  0.00000000  0.50000000  1
  Mn  Mn2  1  0.34072600  0.65927400  0.50000000  1
  Mn  Mn3  1  0.15995900  0.84004100  0.00000000  1
  Mn  Mn4  1  0.50000000  0.50000000  0.00000000  1
  Mn  Mn5  1  0.65927400  0.34072600  0.50000000  1
  O  O0  1  0.90095000  0.09905000  0.50000000  1
  O  O1  1  0.14201000  0.47393900  0.00000000  1
  O  O2  1  0.52606100  0.85799000  0.00000000  1
  O  O3  1  0.85799000  0.52606100  0.00000000  1
  O  O4  1  0.09905000  0.90095000  0.50000000  1
  O  O5  1  0.43675800  0.56324200  0.50000000  1
  O  O6  1  0.56324200  0.43675800  0.50000000  1
  O  O7  1  0.47393900  0.14201000  0.00000000  1
  F  F0  1  0.19285800  0.19285800  0.00000000  1
  F  F1  1  0.23269300  0.76730700  0.50000000  1
  F  F2  1  0.80714200  0.80714200  0.00000000  1
  F  F3  1  0.76730700  0.23269300  0.50000000  1
loop_
_geom_bond_atom_site_label_1
_geom_bond_atom_site_label_2
_geom_bond_distance
_geom_bond_site_symmetry_2
Mn0 O0 1.947862 1_555
Mn0 O0 1.947862 1_554
Mn0 O2 2.014705 1_545
Mn0 O1 2.014705 1_655
Mn1 O0 1.936482 1_455
Mn1 O4 1.936482 1_545
Mn2 O5 1.877479 1_555
Mn2 O1 1.991461 1_555
Mn2 O1 1.991461 1_556
Mn2 O2 1.991461 1_555
Mn2 O2 1.991461 1_556
Mn3 O4 1.947862 1_555
Mn3 O4 1.947862 1_554
Mn3 O3 2.014705 1_455
Mn3 O7 2.014705 1_565
Mn4 O6 1.976076 1_554
Mn4 O6 1.976076 1_555
Mn4 O5 1.976076 1_555
Mn4 O5 1.976076 1_554
Mn5 O6 1.877479 1_555
Mn5 O7 1.991461 1_555
Mn5 O7 1.991461 1_556
Mn5 O3 1.991461 1_555
Mn5 O3 1.991461 1_556
F0 Mn1 1.990596 1_555
F0 Mn1 1.990596 1_554
F0 Mn4 2.005844 1_555
F1 Mn3 2.097190 1_556
F1 Mn3 2.097190 1_555
F1 Mn2 2.112105 1_555
F2 Mn1 1.990596 1_665
F2 Mn1 1.990596 1_664
F2 Mn4 2.005844 1_555
F3 Mn0 2.097190 1_555
F3 Mn0 2.097190 1_556
F3 Mn5 2.112105 1_555
