# generated using pymatgen
data_Li3Co2(SiO4)2
_symmetry_space_group_name_H-M   'P 1'
_cell_length_a   11.02829600
_cell_length_b   5.03463800
_cell_length_c   6.11752791
_cell_angle_alpha   89.87779444
_cell_angle_beta   90.00000000
_cell_angle_gamma   90.00000000
_symmetry_Int_Tables_number   1
_chemical_formula_structural   Li3Co2(SiO4)2
_chemical_formula_sum   'Li6 Co4 Si4 O16'
_cell_volume   339.66565471
_cell_formula_units_Z   2
loop_
 _symmetry_equiv_pos_site_id
 _symmetry_equiv_pos_as_xyz
  1  'x, y, z'
loop_
 _atom_site_type_symbol
 _atom_site_label
 _atom_site_symmetry_multiplicity
 _atom_site_fract_x
 _atom_site_fract_y
 _atom_site_fract_z
 _atom_site_occupancy
  Li  Li0  1  0.08556500  0.56889300  0.75681300  1
  Li  Li1  1  0.58556500  0.43110700  0.24318700  1
  Li  Li2  1  0.92256200  0.91798000  0.24904500  1
  Li  Li3  1  0.41475500  0.06537600  0.24960600  1
  Li  Li4  1  0.42256200  0.08202000  0.75095500  1
  Li  Li5  1  0.91475500  0.93462400  0.75039400  1
  Co  Co0  1  0.66807400  0.92201000  0.99288900  1
  Co  Co1  1  0.16807400  0.07799000  0.00711100  1
  Co  Co2  1  0.32877300  0.57502600  0.50012800  1
  Co  Co3  1  0.82877300  0.42497400  0.49987200  1
  Si  Si0  1  0.33105000  0.58081600  0.99627300  1
  Si  Si1  1  0.83105000  0.41918400  0.00372700  1
  Si  Si2  1  0.66427300  0.92281300  0.49684700  1
  Si  Si3  1  0.16427300  0.07718700  0.50315300  1
  O  O0  1  0.39953000  0.47613000  0.76906300  1
  O  O1  1  0.90329200  0.52590000  0.77753600  1
  O  O2  1  0.33324700  0.90767700  0.00020000  1
  O  O3  1  0.19322400  0.46209100  0.99077400  1
  O  O4  1  0.69322400  0.53790900  0.00922600  1
  O  O5  1  0.83324700  0.09232300  0.99980000  1
  O  O6  1  0.89953000  0.52387000  0.23093700  1
  O  O7  1  0.40329200  0.47410000  0.22246400  1
  O  O8  1  0.08980100  0.00019000  0.28299300  1
  O  O9  1  0.59171600  0.03137500  0.27792100  1
  O  O10  1  0.67897800  0.59576200  0.47890600  1
  O  O11  1  0.17897800  0.40423800  0.52109400  1
  O  O12  1  0.30695000  0.95566300  0.49881200  1
  O  O13  1  0.80695000  0.04433700  0.50118800  1
  O  O14  1  0.09171600  0.96862500  0.72207900  1
  O  O15  1  0.58980100  0.99981000  0.71700700  1
loop_
_geom_bond_atom_site_label_1
_geom_bond_atom_site_label_2
_geom_bond_distance
_geom_bond_site_symmetry_2
Li0 O3 1.934950 1_555
Li0 O11 1.957806 1_555
Li0 O14 2.024378 1_555
Li0 O1 2.025723 1_455
Li1 O4 1.934950 1_555
Li1 O10 1.957806 1_555
Li1 O9 2.024378 1_555
Li1 O7 2.025723 1_555
Li2 O8 1.901703 1_665
Li2 O6 2.003692 1_555
Li2 O5 2.014908 1_564
Li2 O13 2.100905 1_565
Li3 O2 1.942023 1_545
Li3 O9 1.966682 1_555
Li3 O12 2.009773 1_545
Li3 O7 2.067980 1_555
Li4 O15 1.901703 1_545
Li4 O0 2.003692 1_555
Li4 O2 2.014908 1_546
Li4 O12 2.100905 1_545
Li5 O5 1.942023 1_565
Li5 O14 1.966682 1_655
Li5 O13 2.009773 1_565
Li5 O1 2.067980 1_555
Co0 O15 1.934977 1_555
Co0 O4 1.955943 1_556
Co0 O5 2.013785 1_565
Co0 O9 2.014165 1_566
Co1 O8 1.934977 1_555
Co1 O3 1.955943 1_554
Co1 O2 2.013785 1_545
Co1 O14 2.014165 1_544
Co2 O11 1.866650 1_555
Co2 O0 1.886815 1_555
Co2 O12 1.931423 1_555
Co2 O7 1.955136 1_555
Co3 O10 1.866650 1_555
Co3 O6 1.886815 1_555
Co3 O13 1.931423 1_555
Co3 O1 1.955136 1_555
O0 Si0 1.668312 1_555
O1 Si1 1.683729 1_556
O2 Si0 1.646032 1_554
O3 Si0 1.633666 1_555
O4 Si1 1.633666 1_555
O5 Si1 1.646032 1_556
O6 Si1 1.668312 1_555
O7 Si0 1.683729 1_554
O8 Si3 1.625115 1_555
O9 Si2 1.652148 1_545
O10 Si2 1.658419 1_555
O11 Si3 1.658419 1_555
O12 Si3 1.688479 1_565
O13 Si2 1.688479 1_545
O14 Si3 1.652148 1_565
O15 Si2 1.625115 1_555
