# generated using pymatgen
data_NaVPO5
_symmetry_space_group_name_H-M   'P 1'
_cell_length_a   6.48782800
_cell_length_b   7.83541200
_cell_length_c   7.44918100
_cell_angle_alpha   90.00052552
_cell_angle_beta   90.00000000
_cell_angle_gamma   90.00007189
_symmetry_Int_Tables_number   1
_chemical_formula_structural   NaVPO5
_chemical_formula_sum   'Na4 V4 P4 O20'
_cell_volume   378.67766626
_cell_formula_units_Z   4
loop_
 _symmetry_equiv_pos_site_id
 _symmetry_equiv_pos_as_xyz
  1  'x, y, z'
loop_
 _atom_site_type_symbol
 _atom_site_label
 _atom_site_symmetry_multiplicity
 _atom_site_fract_x
 _atom_site_fract_y
 _atom_site_fract_z
 _atom_site_occupancy
  Na  Na0  1  0.99998300  0.49999800  0.00001500  1
  Na  Na1  1  0.50001900  0.49999900  0.00001500  1
  Na  Na2  1  0.99996700  0.00000900  0.49998700  1
  Na  Na3  1  0.50003000  0.00001100  0.49998600  1
  V  V0  1  0.24999900  0.71296000  0.33122200  1
  V  V1  1  0.25000100  0.78706500  0.83123700  1
  V  V2  1  0.75000000  0.21304300  0.16851500  1
  V  V3  1  0.75000100  0.28695600  0.66854800  1
  P  P0  1  0.25000000  0.10568400  0.12422700  1
  P  P1  1  0.75000000  0.60570100  0.37581800  1
  P  P2  1  0.25000000  0.39431500  0.62426000  1
  P  P3  1  0.75000100  0.89427800  0.87578100  1
  O  O0  1  0.75000000  0.99158100  0.05643200  1
  O  O1  1  0.24999900  0.49163400  0.44361800  1
  O  O2  1  0.75000000  0.50839100  0.55644700  1
  O  O3  1  0.25000100  0.00835100  0.94363900  1
  O  O4  1  0.25000000  0.67941400  0.10379400  1
  O  O5  1  0.75000000  0.17956200  0.39594400  1
  O  O6  1  0.25000000  0.82057900  0.60391400  1
  O  O7  1  0.75000000  0.32044500  0.89595300  1
  O  O8  1  0.75000000  0.47740700  0.21577900  1
  O  O9  1  0.24999900  0.97734600  0.28423400  1
  O  O10  1  0.74999900  0.02262100  0.71576100  1
  O  O11  1  0.25000000  0.52266400  0.78423000  1
  O  O12  1  0.05900700  0.22501600  0.13585300  1
  O  O13  1  0.44099400  0.22501500  0.13585400  1
  O  O14  1  0.55893600  0.72497900  0.36432300  1
  O  O15  1  0.94106300  0.72497900  0.36432400  1
  O  O16  1  0.05900000  0.27499200  0.63589100  1
  O  O17  1  0.44100000  0.27499200  0.63589000  1
  O  O18  1  0.55896000  0.77500600  0.86425600  1
  O  O19  1  0.94104200  0.77500600  0.86425500  1
loop_
_geom_bond_atom_site_label_1
_geom_bond_atom_site_label_2
_geom_bond_distance
_geom_bond_site_symmetry_2
Na0 O4 2.281443 1_655
Na0 O7 2.282662 1_554
Na0 O8 2.290202 1_555
Na0 O11 2.290513 1_654
Na0 O19 2.410844 1_554
Na0 O12 2.410991 1_655
Na1 O4 2.281450 1_555
Na1 O7 2.282661 1_554
Na1 O8 2.290194 1_555
Na1 O11 2.290522 1_554
Na1 O18 2.410833 1_554
Na1 O13 2.411008 1_555
Na2 O6 2.281969 1_645
Na2 O5 2.282552 1_555
Na2 O10 2.290196 1_555
Na2 O9 2.290411 1_645
Na2 O15 2.410639 1_545
Na2 O16 2.411196 1_655
Na3 O6 2.281965 1_545
Na3 O5 2.282551 1_555
Na3 O10 2.290204 1_555
Na3 O9 2.290402 1_545
Na3 O14 2.410656 1_545
Na3 O17 2.411180 1_555
O0 P3 1.546662 1_554
O0 V2 1.925657 1_565
O1 P2 1.546677 1_555
O1 V0 1.925723 1_555
O2 P1 1.546558 1_555
O2 V3 1.925538 1_555
O3 P0 1.546369 1_556
O3 V1 1.925446 1_545
O4 V0 1.714419 1_555
O4 V1 2.198575 1_554
O5 V2 1.714353 1_555
O5 V3 2.198112 1_555
O6 V1 1.713612 1_555
O6 V0 2.199393 1_555
O7 V3 1.714181 1_555
O7 V2 2.197862 1_556
O8 P1 1.559398 1_555
O8 V2 2.101106 1_555
O9 P0 1.559452 1_565
O9 V0 2.100939 1_555
O10 P3 1.559552 1_545
O10 V3 2.100825 1_555
O11 P2 1.559283 1_555
O11 V1 2.101072 1_555
O12 P0 1.554734 1_555
O12 V2 2.021672 1_455
O13 P0 1.554733 1_555
O13 V2 2.021665 1_555
O14 P1 1.554794 1_555
O14 V0 2.021635 1_555
O15 P1 1.554786 1_555
O15 V0 2.021629 1_655
O16 P2 1.554729 1_555
O16 V3 2.021613 1_455
O17 P2 1.554730 1_555
O17 V3 2.021626 1_555
O18 P3 1.554656 1_555
O18 V1 2.021717 1_555
O19 P3 1.554658 1_555
O19 V1 2.021716 1_655
