# generated using pymatgen
data_Na2B4H8O11
_symmetry_space_group_name_H-M   'P 1'
_cell_length_a   9.19362600
_cell_length_b   7.12312100
_cell_length_c   15.79437568
_cell_angle_alpha   71.07533725
_cell_angle_beta   90.00000000
_cell_angle_gamma   90.00000000
_symmetry_Int_Tables_number   1
_chemical_formula_structural   Na2B4H8O11
_chemical_formula_sum   'Na8 B16 H32 O44'
_cell_volume   978.42128186
_cell_formula_units_Z   4
loop_
 _symmetry_equiv_pos_site_id
 _symmetry_equiv_pos_as_xyz
  1  'x, y, z'
loop_
 _atom_site_type_symbol
 _atom_site_label
 _atom_site_symmetry_multiplicity
 _atom_site_fract_x
 _atom_site_fract_y
 _atom_site_fract_z
 _atom_site_occupancy
  Na  Na0  1  0.96418000  0.68053500  0.81006400  1
  Na  Na1  1  0.46418000  0.31946500  0.68993600  1
  Na  Na2  1  0.03582000  0.31946500  0.18993600  1
  Na  Na3  1  0.53582000  0.68053500  0.31006400  1
  Na  Na4  1  0.87080400  0.81175700  0.57244000  1
  Na  Na5  1  0.37080400  0.18824300  0.92756000  1
  Na  Na6  1  0.12919600  0.18824300  0.42756000  1
  Na  Na7  1  0.62919600  0.81175700  0.07244000  1
  B  B0  1  0.67068000  0.44598700  0.92102500  1
  B  B1  1  0.17068000  0.55401300  0.57897500  1
  B  B2  1  0.32932000  0.55401300  0.07897500  1
  B  B3  1  0.82932000  0.44598700  0.42102500  1
  B  B4  1  0.73352400  0.44616800  0.76765900  1
  B  B5  1  0.23352400  0.55383200  0.73234100  1
  B  B6  1  0.26647600  0.55383200  0.23234100  1
  B  B7  1  0.76647600  0.44616800  0.26765900  1
  B  B8  1  0.98217100  0.42781100  0.69948000  1
  B  B9  1  0.48217100  0.57218900  0.80052000  1
  B  B10  1  0.01782900  0.57218900  0.30052000  1
  B  B11  1  0.51782900  0.42781100  0.19948000  1
  B  B12  1  0.81677300  0.13279500  0.74136300  1
  B  B13  1  0.31677300  0.86720500  0.75863700  1
  B  B14  1  0.18322700  0.86720500  0.25863700  1
  B  B15  1  0.68322700  0.13279500  0.24136300  1
  H  H0  1  0.60175300  0.73663600  0.63310700  1
  H  H1  1  0.10175300  0.26336400  0.86689300  1
  H  H2  1  0.39824700  0.26336400  0.36689300  1
  H  H3  1  0.89824700  0.73663600  0.13310700  1
  H  H4  1  0.69418000  0.89065200  0.75163000  1
  H  H5  1  0.19418000  0.10934800  0.74837000  1
  H  H6  1  0.30582000  0.10934800  0.24837000  1
  H  H7  1  0.80582000  0.89065200  0.25163000  1
  H  H8  1  0.62460600  0.05001400  0.87398100  1
  H  H9  1  0.12460600  0.94998600  0.62601900  1
  H  H10  1  0.37539400  0.94998600  0.12601900  1
  H  H11  1  0.87539400  0.05001400  0.37398100  1
  H  H12  1  0.87159100  0.43587600  0.54560300  1
  H  H13  1  0.37159100  0.56412400  0.95439700  1
  H  H14  1  0.12840900  0.56412400  0.45439700  1
  H  H15  1  0.62840900  0.43587600  0.04560300  1
  H  H16  1  0.51731300  0.88057200  0.87872100  1
  H  H17  1  0.01731300  0.11942800  0.62127900  1
  H  H18  1  0.48268700  0.11942800  0.12127900  1
  H  H19  1  0.98268700  0.88057200  0.37872100  1
  H  H20  1  0.61682000  0.29286700  0.54431100  1
  H  H21  1  0.11682000  0.70713300  0.95568900  1
  H  H22  1  0.38318000  0.70713300  0.45568900  1
  H  H23  1  0.88318000  0.29286700  0.04431100  1
  H  H24  1  0.96951500  0.78555700  0.98481800  1
  H  H25  1  0.46951500  0.21444300  0.51518200  1
  H  H26  1  0.03048500  0.21444300  0.01518200  1
  H  H27  1  0.53048500  0.78555700  0.48481800  1
  H  H28  1  0.58412700  0.96681900  0.57748500  1
  H  H29  1  0.08412700  0.03318100  0.92251500  1
  H  H30  1  0.41587300  0.03318100  0.42251500  1
  H  H31  1  0.91587300  0.96681900  0.07748500  1
  O  O0  1  0.52695000  0.48526700  0.89721700  1
  O  O1  1  0.02695000  0.51473300  0.60278300  1
  O  O2  1  0.47305000  0.51473300  0.10278300  1
  O  O3  1  0.97305000  0.48526700  0.39721700  1
  O  O4  1  0.59829400  0.55697300  0.73941000  1
  O  O5  1  0.09829400  0.44302700  0.76059000  1
  O  O6  1  0.40170600  0.44302700  0.26059000  1
  O  O7  1  0.90170600  0.55697300  0.23941000  1
  O  O8  1  0.70820600  0.23194700  0.76892000  1
  O  O9  1  0.20820600  0.76805300  0.73108000  1
  O  O10  1  0.29179400  0.76805300  0.23108000  1
  O  O11  1  0.79179400  0.23194700  0.26892000  1
  O  O12  1  0.85061600  0.53438100  0.70707000  1
  O  O13  1  0.35061600  0.46561900  0.79293000  1
  O  O14  1  0.14938400  0.46561900  0.29293000  1
  O  O15  1  0.64938400  0.53438100  0.20707000  1
  O  O16  1  0.95173500  0.21096700  0.71353700  1
  O  O17  1  0.45173500  0.78903300  0.78646300  1
  O  O18  1  0.04826500  0.78903300  0.28646300  1
  O  O19  1  0.54826500  0.21096700  0.21353700  1
  O  O20  1  0.79411200  0.93941700  0.74056300  1
  O  O21  1  0.29411200  0.06058300  0.75943700  1
  O  O22  1  0.20588800  0.06058300  0.25943700  1
  O  O23  1  0.70588800  0.93941700  0.24056300  1
  O  O24  1  0.78930800  0.41270600  0.50953600  1
  O  O25  1  0.28930800  0.58729400  0.99046400  1
  O  O26  1  0.21069200  0.58729400  0.49046400  1
  O  O27  1  0.71069200  0.41270600  0.00953600  1
  O  O28  1  0.52786000  0.21460200  0.56844700  1
  O  O29  1  0.02786000  0.78539800  0.93155300  1
  O  O30  1  0.47214000  0.78539800  0.43155300  1
  O  O31  1  0.97214000  0.21460200  0.06844700  1
  O  O32  1  0.77499300  0.43533200  0.86138100  1
  O  O33  1  0.27499300  0.56466800  0.63861900  1
  O  O34  1  0.22500700  0.56466800  0.13861900  1
  O  O35  1  0.72500700  0.43533200  0.36138100  1
  O  O36  1  0.55812800  0.95574000  0.91607900  1
  O  O37  1  0.05812800  0.04426000  0.58392100  1
  O  O38  1  0.44187200  0.04426000  0.08392100  1
  O  O39  1  0.94187200  0.95574000  0.41607900  1
  O  O40  1  0.61880600  0.83833600  0.57285400  1
  O  O41  1  0.11880600  0.16166400  0.92714600  1
  O  O42  1  0.38119400  0.16166400  0.42714600  1
  O  O43  1  0.88119400  0.83833600  0.07285400  1
loop_
_geom_bond_atom_site_label_1
_geom_bond_atom_site_label_2
_geom_bond_distance
_geom_bond_site_symmetry_2
Na0 O29 2.347838 1_655
Na0 O20 2.395233 1_555
Na0 O32 2.411335 1_555
Na0 O5 2.418794 1_655
Na0 O12 2.432828 1_555
Na0 O9 2.544339 1_655
Na1 O28 2.347838 1_555
Na1 O21 2.395233 1_555
Na1 O33 2.411335 1_555
Na1 O4 2.418794 1_555
Na1 O13 2.432828 1_555
Na1 O8 2.544339 1_555
Na2 O31 2.347838 1_455
Na2 O22 2.395233 1_555
Na2 O34 2.411335 1_555
Na2 O7 2.418794 1_455
Na2 O14 2.432828 1_555
Na2 O11 2.544339 1_455
Na3 O30 2.347838 1_555
Na3 O23 2.395233 1_555
Na3 O35 2.411335 1_555
Na3 O6 2.418794 1_555
Na3 O15 2.432828 1_555
Na3 O10 2.544339 1_555
Na4 O40 2.324680 1_555
Na4 O12 2.394694 1_555
Na4 O39 2.436159 1_555
Na4 O37 2.436480 1_665
Na4 O1 2.471663 1_655
Na5 O41 2.324680 1_555
Na5 O13 2.394694 1_555
Na5 O38 2.436159 1_556
Na5 O36 2.436480 1_545
Na5 O0 2.471663 1_555
Na6 O42 2.324680 1_555
Na6 O14 2.394694 1_555
Na6 O37 2.436159 1_555
Na6 O39 2.436480 1_445
Na6 O3 2.471663 1_455
Na7 O43 2.324680 1_555
Na7 O15 2.394694 1_555
Na7 O36 2.436159 1_554
Na7 O38 2.436480 1_565
Na7 O2 2.471663 1_555
B0 O32 1.363556 1_555
B0 O0 1.377512 1_555
B0 O27 1.389563 1_556
B1 O33 1.363556 1_555
B1 O1 1.377512 1_555
B1 O26 1.389563 1_555
B2 O34 1.363556 1_555
B2 O2 1.377512 1_555
B2 O25 1.389563 1_554
B3 O35 1.363556 1_555
B3 O3 1.377512 1_555
B3 O24 1.389563 1_555
B4 O12 1.442020 1_555
B4 O4 1.462630 1_555
B4 O32 1.506130 1_555
B4 O8 1.537303 1_555
B5 O13 1.442020 1_555
B5 O5 1.462630 1_555
B5 O33 1.506130 1_555
B5 O9 1.537303 1_555
B6 O14 1.442020 1_555
B6 O6 1.462630 1_555
B6 O34 1.506130 1_555
B6 O10 1.537303 1_555
B7 O15 1.442020 1_555
B7 O7 1.462630 1_555
B7 O35 1.506130 1_555
B7 O11 1.537303 1_555
B8 O12 1.453431 1_555
B8 O5 1.466614 1_655
B8 O1 1.507319 1_655
B8 O16 1.513590 1_555
B9 O13 1.453431 1_555
B9 O4 1.466614 1_555
B9 O0 1.507319 1_555
B9 O17 1.513590 1_555
B10 O14 1.453431 1_555
B10 O7 1.466614 1_455
B10 O3 1.507319 1_455
B10 O18 1.513590 1_555
B11 O15 1.453431 1_555
B11 O6 1.466614 1_555
B11 O2 1.507319 1_555
B11 O19 1.513590 1_555
B12 O8 1.372555 1_555
B12 O16 1.372601 1_555
B12 O20 1.397224 1_545
B13 O9 1.372555 1_555
B13 O17 1.372601 1_555
B13 O21 1.397224 1_565
B14 O10 1.372555 1_555
B14 O18 1.372601 1_555
B14 O22 1.397224 1_565
B15 O11 1.372555 1_555
B15 O19 1.372601 1_555
B15 O23 1.397224 1_545
H0 O40 1.003912 1_555
H1 O41 1.003912 1_555
H2 O42 1.003912 1_555
H3 O43 1.003912 1_555
H4 O20 0.977705 1_555
H5 O21 0.977705 1_555
H6 O22 0.977705 1_555
H7 O23 0.977705 1_555
H8 O36 0.988414 1_545
H9 O37 0.988414 1_565
H10 O38 0.988414 1_565
H11 O39 0.988414 1_545
H12 O24 0.992468 1_555
H13 O25 0.992468 1_555
H14 O26 0.992468 1_555
H15 O27 0.992468 1_555
H16 O36 0.990238 1_555
H17 O37 0.990238 1_555
H18 O38 0.990238 1_555
H19 O39 0.990238 1_555
H20 O28 0.993564 1_555
H21 O29 0.993564 1_555
H22 O30 0.993564 1_555
H23 O31 0.993564 1_555
H24 O29 0.998054 1_655
H25 O28 0.998054 1_555
H26 O31 0.998054 1_455
H27 O30 0.998054 1_555
H28 O40 0.993988 1_555
H29 O41 0.993988 1_555
H30 O42 0.993988 1_555
H31 O43 0.993988 1_555
