# generated using pymatgen
data_Li5(NbS2)7
_symmetry_space_group_name_H-M   'P 1'
_cell_length_a   12.18035624
_cell_length_b   12.18035624
_cell_length_c   16.43234633
_cell_angle_alpha   53.20986595
_cell_angle_beta   53.20986595
_cell_angle_gamma   27.78748686
_symmetry_Int_Tables_number   1
_chemical_formula_structural   Li5(NbS2)7
_chemical_formula_sum   'Li10 Nb14 S28'
_cell_volume   894.47454994
_cell_formula_units_Z   2
loop_
 _symmetry_equiv_pos_site_id
 _symmetry_equiv_pos_as_xyz
  1  'x, y, z'
loop_
 _atom_site_type_symbol
 _atom_site_label
 _atom_site_symmetry_multiplicity
 _atom_site_fract_x
 _atom_site_fract_y
 _atom_site_fract_z
 _atom_site_occupancy
  Li  Li0  1  0.57228800  0.07223800  0.99997100  1
  Li  Li1  1  0.00000000  0.50000000  0.00000000  1
  Li  Li2  1  0.78585500  0.28549200  0.50001600  1
  Li  Li3  1  0.71450800  0.21414500  0.99998400  1
  Li  Li4  1  0.42771200  0.92776200  0.00002900  1
  Li  Li5  1  0.21414500  0.71450800  0.49998400  1
  Li  Li6  1  0.28549200  0.78585500  0.00001600  1
  Li  Li7  1  0.07223800  0.57228800  0.49997100  1
  Li  Li8  1  0.92776200  0.42771200  0.50002900  1
  Li  Li9  1  0.50000000  0.00000000  0.50000000  1
  Nb  Nb0  1  0.89083500  0.39487300  0.25005400  1
  Nb  Nb1  1  0.67800100  0.17967600  0.74986300  1
  Nb  Nb2  1  0.74988200  0.25011800  0.25000000  1
  Nb  Nb3  1  0.32199900  0.82032400  0.25013700  1
  Nb  Nb4  1  0.10916500  0.60512700  0.74994600  1
  Nb  Nb5  1  0.60512700  0.10916500  0.24994600  1
  Nb  Nb6  1  0.96348800  0.46496100  0.75073000  1
  Nb  Nb7  1  0.17967600  0.67800100  0.24986300  1
  Nb  Nb8  1  0.82032400  0.32199900  0.75013700  1
  Nb  Nb9  1  0.53503900  0.03651200  0.74927000  1
  Nb  Nb10  1  0.03651200  0.53503900  0.24927000  1
  Nb  Nb11  1  0.39487300  0.89083500  0.75005400  1
  Nb  Nb12  1  0.25011800  0.74988200  0.75000000  1
  Nb  Nb13  1  0.46496100  0.96348800  0.25073000  1
  S  S0  1  0.27851600  0.11146100  0.12854800  1
  S  S1  1  0.70701700  0.53916700  0.12878300  1
  S  S2  1  0.60339200  0.43497200  0.37117800  1
  S  S3  1  0.39660800  0.56502800  0.62882200  1
  S  S4  1  0.29298300  0.46083300  0.87121700  1
  S  S5  1  0.56502800  0.39660800  0.12882200  1
  S  S6  1  0.15003000  0.31693100  0.87129300  1
  S  S7  1  0.17519600  0.00738200  0.37085700  1
  S  S8  1  0.25514700  0.42011500  0.62884000  1
  S  S9  1  0.46083300  0.29298300  0.37121700  1
  S  S10  1  0.42011500  0.25514700  0.12884000  1
  S  S11  1  0.13408700  0.96967000  0.12892300  1
  S  S12  1  0.31693100  0.15003000  0.37129300  1
  S  S13  1  0.72148400  0.88853900  0.87145200  1
  S  S14  1  0.11146100  0.27851600  0.62854800  1
  S  S15  1  0.00738200  0.17519600  0.87085700  1
  S  S16  1  0.82480400  0.99261800  0.62914300  1
  S  S17  1  0.03033000  0.86591300  0.37107700  1
  S  S18  1  0.99261800  0.82480400  0.12914300  1
  S  S19  1  0.88853900  0.72148400  0.37145200  1
  S  S20  1  0.57988500  0.74485300  0.87116000  1
  S  S21  1  0.68306900  0.84997000  0.62870700  1
  S  S22  1  0.96967000  0.13408700  0.62892300  1
  S  S23  1  0.84997000  0.68306900  0.12870700  1
  S  S24  1  0.74485300  0.57988500  0.37116000  1
  S  S25  1  0.53916700  0.70701700  0.62878300  1
  S  S26  1  0.43497200  0.60339200  0.87117800  1
  S  S27  1  0.86591300  0.03033000  0.87107700  1
loop_
_geom_bond_atom_site_label_1
_geom_bond_atom_site_label_2
_geom_bond_distance
_geom_bond_site_symmetry_2
Li0 S10 2.554690 1_556
Li0 S27 2.555246 1_555
Li0 S23 2.564370 1_546
Li0 S4 2.566855 1_555
Li0 S0 2.573910 1_556
Li0 S13 2.576327 1_545
Li1 S13 2.563214 1_454
Li1 S0 2.563214 1_555
Li1 S4 2.567583 1_554
Li1 S1 2.567583 1_455
Li1 S6 2.567925 1_554
Li1 S23 2.567925 1_455
Li2 S24 2.568003 1_555
Li2 S2 2.568183 1_555
Li2 S22 2.568398 1_555
Li2 S16 2.568660 1_545
Li2 S7 2.569231 1_655
Li2 S3 2.569238 1_555
Li3 S10 2.568003 1_556
Li3 S5 2.568183 1_556
Li3 S27 2.568398 1_555
Li3 S15 2.568660 1_655
Li3 S18 2.569231 1_546
Li3 S26 2.569238 1_555
Li4 S20 2.554690 1_554
Li4 S11 2.555246 1_555
Li4 S6 2.564370 1_564
Li4 S1 2.566855 1_555
Li4 S13 2.573910 1_554
Li4 S0 2.576327 1_565
Li5 S8 2.568003 1_555
Li5 S3 2.568183 1_555
Li5 S17 2.568398 1_555
Li5 S7 2.568660 1_565
Li5 S16 2.569231 1_455
Li5 S2 2.569238 1_555
Li6 S20 2.568003 1_554
Li6 S26 2.568183 1_554
Li6 S11 2.568398 1_555
Li6 S18 2.568660 1_455
Li6 S15 2.569231 1_564
Li6 S5 2.569238 1_555
Li7 S8 2.554690 1_555
Li7 S17 2.555246 1_555
Li7 S21 2.564370 1_455
Li7 S9 2.566855 1_555
Li7 S14 2.573910 1_555
Li7 S19 2.576327 1_455
Li8 S24 2.554690 1_555
Li8 S22 2.555246 1_555
Li8 S12 2.564370 1_655
Li8 S25 2.566855 1_555
Li8 S19 2.573910 1_555
Li8 S14 2.576327 1_655
Li9 S19 2.563214 1_545
Li9 S14 2.563214 1_555
Li9 S9 2.567583 1_555
Li9 S25 2.567583 1_545
Li9 S12 2.567925 1_555
Li9 S21 2.567925 1_545
Nb0 S24 2.498731 1_555
Nb0 S2 2.500031 1_555
Nb0 S1 2.501906 1_555
Nb0 S23 2.501908 1_555
Nb0 S7 2.510385 1_655
Nb0 S0 2.514315 1_655
Nb1 S3 2.500632 1_555
Nb1 S22 2.500749 1_555
Nb1 S4 2.501869 1_555
Nb1 S27 2.503802 1_555
Nb1 S16 2.506028 1_545
Nb1 S13 2.511089 1_545
Nb2 S2 2.494888 1_555
Nb2 S5 2.494888 1_555
Nb2 S1 2.495809 1_555
Nb2 S9 2.495809 1_555
Nb2 S17 2.496154 1_645
Nb2 S11 2.496154 1_645
Nb3 S2 2.500632 1_555
Nb3 S17 2.500749 1_555
Nb3 S1 2.501869 1_555
Nb3 S11 2.503802 1_555
Nb3 S7 2.506028 1_565
Nb3 S0 2.511089 1_565
Nb4 S8 2.498731 1_555
Nb4 S3 2.500031 1_555
Nb4 S4 2.501906 1_555
Nb4 S6 2.501908 1_555
Nb4 S16 2.510385 1_455
Nb4 S13 2.514315 1_455
Nb5 S10 2.498731 1_555
Nb5 S5 2.500031 1_555
Nb5 S9 2.501906 1_555
Nb5 S12 2.501908 1_555
Nb5 S18 2.510385 1_545
Nb5 S19 2.514315 1_545
Nb6 S20 2.488277 1_555
Nb6 S6 2.490567 1_655
Nb6 S15 2.493948 1_655
Nb6 S21 2.505607 1_555
Nb6 S8 2.506939 1_655
Nb6 S14 2.514261 1_655
Nb7 S5 2.500632 1_555
Nb7 S11 2.500749 1_555
Nb7 S9 2.501869 1_555
Nb7 S17 2.503802 1_555
Nb7 S18 2.506028 1_455
Nb7 S19 2.511089 1_455
Nb8 S26 2.500632 1_555
Nb8 S27 2.500749 1_555
Nb8 S25 2.501869 1_555
Nb8 S22 2.503802 1_555
Nb8 S15 2.506028 1_655
Nb8 S14 2.511089 1_655
Nb9 S8 2.488277 1_555
Nb9 S21 2.490567 1_545
Nb9 S16 2.493948 1_545
Nb9 S6 2.505607 1_555
Nb9 S20 2.506939 1_545
Nb9 S13 2.514261 1_545
Nb10 S10 2.488277 1_555
Nb10 S23 2.490567 1_455
Nb10 S18 2.493948 1_455
Nb10 S12 2.505607 1_555
Nb10 S24 2.506939 1_455
Nb10 S19 2.514261 1_455
Nb11 S20 2.498731 1_555
Nb11 S26 2.500031 1_555
Nb11 S25 2.501906 1_555
Nb11 S21 2.501908 1_555
Nb11 S15 2.510385 1_565
Nb11 S14 2.514315 1_565
Nb12 S26 2.494888 1_555
Nb12 S3 2.494888 1_555
Nb12 S25 2.495809 1_555
Nb12 S4 2.495809 1_555
Nb12 S27 2.496154 1_465
Nb12 S22 2.496154 1_465
Nb13 S24 2.488277 1_555
Nb13 S12 2.490567 1_565
Nb13 S7 2.493948 1_565
Nb13 S23 2.505607 1_555
Nb13 S10 2.506939 1_565
Nb13 S0 2.514261 1_565
