# generated using pymatgen
data_Zn2As2O7
_symmetry_space_group_name_H-M   'P 1'
_cell_length_a   5.27782000
_cell_length_b   14.14268600
_cell_length_c   16.96831600
_cell_angle_alpha   90.00000000
_cell_angle_beta   90.00000000
_cell_angle_gamma   90.00000000
_symmetry_Int_Tables_number   1
_chemical_formula_structural   Zn2As2O7
_chemical_formula_sum   'Zn16 As16 O56'
_cell_volume   1266.55839283
_cell_formula_units_Z   8
loop_
 _symmetry_equiv_pos_site_id
 _symmetry_equiv_pos_as_xyz
  1  'x, y, z'
loop_
 _atom_site_type_symbol
 _atom_site_label
 _atom_site_symmetry_multiplicity
 _atom_site_fract_x
 _atom_site_fract_y
 _atom_site_fract_z
 _atom_site_occupancy
  Zn  Zn0  1  0.08937100  0.45071100  0.08594700  1
  Zn  Zn1  1  0.08937100  0.04928900  0.58594700  1
  Zn  Zn2  1  0.08937100  0.45071100  0.41405300  1
  Zn  Zn3  1  0.08937100  0.04928900  0.91405300  1
  Zn  Zn4  1  0.31335200  0.24614300  0.15617400  1
  Zn  Zn5  1  0.31335200  0.24614300  0.34382600  1
  Zn  Zn6  1  0.31335200  0.25385700  0.65617400  1
  Zn  Zn7  1  0.31335200  0.25385700  0.84382600  1
  Zn  Zn8  1  0.68664800  0.74614300  0.15617400  1
  Zn  Zn9  1  0.68664800  0.74614300  0.34382600  1
  Zn  Zn10  1  0.68664800  0.75385700  0.65617400  1
  Zn  Zn11  1  0.68664800  0.75385700  0.84382600  1
  Zn  Zn12  1  0.91062900  0.95071100  0.08594700  1
  Zn  Zn13  1  0.91062900  0.95071100  0.41405300  1
  Zn  Zn14  1  0.91062900  0.54928900  0.58594700  1
  Zn  Zn15  1  0.91062900  0.54928900  0.91405300  1
  As  As0  1  0.03300800  0.05855300  0.25000000  1
  As  As1  1  0.03300800  0.44144700  0.75000000  1
  As  As2  1  0.17766000  0.84824400  0.25000000  1
  As  As3  1  0.17766000  0.65175600  0.75000000  1
  As  As4  1  0.42147900  0.64139500  0.00414700  1
  As  As5  1  0.42147900  0.64139500  0.49585300  1
  As  As6  1  0.42147900  0.85860500  0.50414700  1
  As  As7  1  0.42147900  0.85860500  0.99585300  1
  As  As8  1  0.57852100  0.14139500  0.00414700  1
  As  As9  1  0.57852100  0.14139500  0.49585300  1
  As  As10  1  0.57852100  0.35860500  0.50414700  1
  As  As11  1  0.57852100  0.35860500  0.99585300  1
  As  As12  1  0.82234000  0.34824400  0.25000000  1
  As  As13  1  0.82234000  0.15175600  0.75000000  1
  As  As14  1  0.96699200  0.55855300  0.25000000  1
  As  As15  1  0.96699200  0.94144700  0.75000000  1
  O  O0  1  0.00811800  0.83156500  0.16485400  1
  O  O1  1  0.00811800  0.83156500  0.33514600  1
  O  O2  1  0.00811800  0.66843500  0.66485400  1
  O  O3  1  0.00811800  0.66843500  0.83514600  1
  O  O4  1  0.13494100  0.54742200  0.16591800  1
  O  O5  1  0.13494100  0.54742200  0.33408200  1
  O  O6  1  0.13494100  0.95257800  0.66591800  1
  O  O7  1  0.13494100  0.95257800  0.83408200  1
  O  O8  1  0.19544700  0.94481900  0.00461200  1
  O  O9  1  0.19544700  0.55518100  0.50461200  1
  O  O10  1  0.19544700  0.94481900  0.49538800  1
  O  O11  1  0.19544700  0.55518100  0.99538800  1
  O  O12  1  0.19129200  0.16423000  0.25000000  1
  O  O13  1  0.19129200  0.33577000  0.75000000  1
  O  O14  1  0.27818200  0.53189700  0.75000000  1
  O  O15  1  0.27818200  0.96810300  0.25000000  1
  O  O16  1  0.24401600  0.75000000  0.00000000  1
  O  O17  1  0.24401600  0.75000000  0.50000000  1
  O  O18  1  0.40003100  0.13961900  0.08636000  1
  O  O19  1  0.40003100  0.13961900  0.41364000  1
  O  O20  1  0.40003100  0.36038100  0.58636000  1
  O  O21  1  0.40003100  0.36038100  0.91364000  1
  O  O22  1  0.39121800  0.13910200  0.57917000  1
  O  O23  1  0.39121800  0.36089800  0.07917000  1
  O  O24  1  0.39121800  0.13910200  0.92083000  1
  O  O25  1  0.39121800  0.36089800  0.42083000  1
  O  O26  1  0.45589400  0.78674300  0.25000000  1
  O  O27  1  0.45589400  0.71325700  0.75000000  1
  O  O28  1  0.54410600  0.21325700  0.75000000  1
  O  O29  1  0.54410600  0.28674300  0.25000000  1
  O  O30  1  0.60878200  0.63910200  0.57917000  1
  O  O31  1  0.60878200  0.86089800  0.07917000  1
  O  O32  1  0.60878200  0.63910200  0.92083000  1
  O  O33  1  0.60878200  0.86089800  0.42083000  1
  O  O34  1  0.59997000  0.63961900  0.08636000  1
  O  O35  1  0.59997000  0.63961900  0.41364000  1
  O  O36  1  0.59997000  0.86038100  0.58636000  1
  O  O37  1  0.59997000  0.86038100  0.91364000  1
  O  O38  1  0.75598400  0.25000000  0.00000000  1
  O  O39  1  0.75598400  0.25000000  0.50000000  1
  O  O40  1  0.72181800  0.03189700  0.75000000  1
  O  O41  1  0.72181800  0.46810300  0.25000000  1
  O  O42  1  0.80870800  0.66423000  0.25000000  1
  O  O43  1  0.80870800  0.83577000  0.75000000  1
  O  O44  1  0.80455300  0.44481900  0.00461200  1
  O  O45  1  0.80455300  0.05518100  0.50461200  1
  O  O46  1  0.80455300  0.05518100  0.99538800  1
  O  O47  1  0.80455300  0.44481900  0.49538800  1
  O  O48  1  0.86505800  0.04742200  0.16591800  1
  O  O49  1  0.86505800  0.04742200  0.33408200  1
  O  O50  1  0.86505800  0.45257800  0.66591800  1
  O  O51  1  0.86505800  0.45257800  0.83408200  1
  O  O52  1  0.99188200  0.33156500  0.16485400  1
  O  O53  1  0.99188200  0.33156500  0.33514600  1
  O  O54  1  0.99188200  0.16843500  0.66485400  1
  O  O55  1  0.99188200  0.16843500  0.83514600  1
loop_
_geom_bond_atom_site_label_1
_geom_bond_atom_site_label_2
_geom_bond_distance
_geom_bond_site_symmetry_2
As0 O49 1.687028 1_455
As0 O48 1.687028 1_455
As0 O12 1.712187 1_555
As0 O15 1.819550 1_545
As1 O51 1.687028 1_455
As1 O50 1.687028 1_455
As1 O13 1.712187 1_555
As1 O14 1.819550 1_555
As2 O26 1.706732 1_555
As2 O0 1.715731 1_555
As2 O1 1.715731 1_555
As2 O15 1.776212 1_555
As3 O27 1.706732 1_555
As3 O3 1.715731 1_555
As3 O2 1.715731 1_555
As3 O14 1.776212 1_555
As4 O34 1.683492 1_555
As4 O11 1.712285 1_554
As4 O32 1.725391 1_554
As4 O16 1.800388 1_555
As5 O35 1.683492 1_555
As5 O9 1.712285 1_555
As5 O30 1.725391 1_555
As5 O17 1.800388 1_555
As6 O36 1.683492 1_555
As6 O10 1.712285 1_555
As6 O33 1.725391 1_555
As6 O17 1.800388 1_555
As7 O37 1.683492 1_555
As7 O8 1.712285 1_556
As7 O31 1.725391 1_556
As7 O16 1.800388 1_556
As8 O18 1.683489 1_555
As8 O46 1.712285 1_554
As8 O24 1.725391 1_554
As8 O38 1.800388 1_555
As9 O19 1.683489 1_555
As9 O45 1.712285 1_555
As9 O22 1.725391 1_555
As9 O39 1.800388 1_555
As10 O20 1.683489 1_555
As10 O47 1.712285 1_555
As10 O25 1.725391 1_555
As10 O39 1.800388 1_555
As11 O21 1.683489 1_555
As11 O44 1.712285 1_556
As11 O23 1.725391 1_556
As11 O38 1.800388 1_556
As12 O29 1.706732 1_555
As12 O52 1.715731 1_555
As12 O53 1.715731 1_555
As12 O41 1.776212 1_555
As13 O28 1.706732 1_555
As13 O55 1.715731 1_555
As13 O54 1.715731 1_555
As13 O40 1.776212 1_555
As14 O5 1.687025 1_655
As14 O4 1.687025 1_655
As14 O42 1.712187 1_555
As14 O41 1.819550 1_555
As15 O6 1.687025 1_655
As15 O7 1.687025 1_655
As15 O43 1.712187 1_555
As15 O40 1.819550 1_565
O0 Zn8 2.088025 1_455
O0 Zn12 2.212876 1_455
O1 Zn9 2.088025 1_455
O1 Zn13 2.212876 1_455
O2 Zn10 2.088025 1_455
O2 Zn14 2.212876 1_455
O3 Zn11 2.088025 1_455
O3 Zn15 2.212876 1_455
O4 Zn0 1.941641 1_555
O5 Zn2 1.941641 1_555
O6 Zn1 1.941641 1_565
O7 Zn3 1.941641 1_565
O8 Zn12 2.042384 1_455
O8 Zn3 2.204006 1_564
O9 Zn14 2.042384 1_455
O9 Zn2 2.204006 1_555
O10 Zn13 2.042384 1_455
O10 Zn1 2.204006 1_565
O11 Zn15 2.042384 1_455
O11 Zn0 2.204006 1_556
O12 Zn5 2.071653 1_555
O12 Zn4 2.071653 1_555
O13 Zn7 2.071653 1_555
O13 Zn6 2.071653 1_555
O18 Zn4 1.970348 1_555
O19 Zn5 1.970348 1_555
O20 Zn6 1.970348 1_555
O21 Zn7 1.970348 1_555
O22 Zn1 2.040729 1_555
O22 Zn6 2.123703 1_555
O23 Zn0 2.040729 1_555
O23 Zn4 2.123703 1_555
O24 Zn3 2.040729 1_555
O24 Zn7 2.123703 1_555
O25 Zn2 2.040729 1_555
O25 Zn5 2.123703 1_555
O26 Zn9 2.085092 1_555
O26 Zn8 2.085092 1_555
O27 Zn11 2.085092 1_555
O27 Zn10 2.085092 1_555
O28 Zn7 2.085092 1_555
O28 Zn6 2.085092 1_555
O29 Zn5 2.085092 1_555
O29 Zn4 2.085092 1_555
O30 Zn14 2.040729 1_555
O30 Zn10 2.123703 1_555
O31 Zn12 2.040729 1_555
O31 Zn8 2.123703 1_555
O32 Zn15 2.040729 1_555
O32 Zn11 2.123703 1_555
O33 Zn13 2.040729 1_555
O33 Zn9 2.123703 1_555
O34 Zn8 1.970347 1_555
O35 Zn9 1.970347 1_555
O36 Zn10 1.970347 1_555
O37 Zn11 1.970347 1_555
O42 Zn9 2.071653 1_555
O42 Zn8 2.071653 1_555
O43 Zn11 2.071653 1_555
O43 Zn10 2.071653 1_555
O44 Zn0 2.042384 1_655
O44 Zn15 2.204006 1_554
O45 Zn1 2.042384 1_655
O45 Zn13 2.204006 1_545
O46 Zn3 2.042384 1_655
O46 Zn12 2.204006 1_546
O47 Zn2 2.042384 1_655
O47 Zn14 2.204006 1_555
O48 Zn12 1.941642 1_545
O49 Zn13 1.941642 1_545
O50 Zn14 1.941642 1_555
O51 Zn15 1.941642 1_555
O52 Zn4 2.088025 1_655
O52 Zn0 2.212876 1_655
O53 Zn5 2.088025 1_655
O53 Zn2 2.212876 1_655
O54 Zn6 2.088025 1_655
O54 Zn1 2.212876 1_655
O55 Zn7 2.088025 1_655
O55 Zn3 2.212876 1_655
