# generated using pymatgen
data_BiBr7(N3F2)2
_symmetry_space_group_name_H-M   'P 1'
_cell_length_a   12.32228900
_cell_length_b   12.32228900
_cell_length_c   12.32228900
_cell_angle_alpha   90.00000000
_cell_angle_beta   90.00000000
_cell_angle_gamma   90.00000000
_symmetry_Int_Tables_number   1
_chemical_formula_structural   BiBr7(N3F2)2
_chemical_formula_sum   'Bi4 Br28 N24 F16'
_cell_volume   1871.00165141
_cell_formula_units_Z   4
loop_
 _symmetry_equiv_pos_site_id
 _symmetry_equiv_pos_as_xyz
  1  'x, y, z'
loop_
 _atom_site_type_symbol
 _atom_site_label
 _atom_site_symmetry_multiplicity
 _atom_site_fract_x
 _atom_site_fract_y
 _atom_site_fract_z
 _atom_site_occupancy
  Bi  Bi0  1  0.50000000  0.50000000  0.00000000  1
  Bi  Bi1  1  0.50000000  0.00000000  0.50000000  1
  Bi  Bi2  1  0.00000000  0.50000000  0.50000000  1
  Bi  Bi3  1  0.00000000  0.00000000  0.00000000  1
  Br  Br0  1  0.13448000  0.60143500  0.26280700  1
  Br  Br1  1  0.86552000  0.10143500  0.23719300  1
  Br  Br2  1  0.36552000  0.39856500  0.76280700  1
  Br  Br3  1  0.63448000  0.89856500  0.73719300  1
  Br  Br4  1  0.26280700  0.13448000  0.60143500  1
  Br  Br5  1  0.23719300  0.86552000  0.10143500  1
  Br  Br6  1  0.76280700  0.36552000  0.39856500  1
  Br  Br7  1  0.73719300  0.63448000  0.89856500  1
  Br  Br8  1  0.60143500  0.26280700  0.13448000  1
  Br  Br9  1  0.10143500  0.23719300  0.86552000  1
  Br  Br10  1  0.39856500  0.76280700  0.36552000  1
  Br  Br11  1  0.89856500  0.73719300  0.63448000  1
  Br  Br12  1  0.86552000  0.39856500  0.73719300  1
  Br  Br13  1  0.13448000  0.89856500  0.76280700  1
  Br  Br14  1  0.63448000  0.60143500  0.23719300  1
  Br  Br15  1  0.36552000  0.10143500  0.26280700  1
  Br  Br16  1  0.73719300  0.86552000  0.39856500  1
  Br  Br17  1  0.76280700  0.13448000  0.89856500  1
  Br  Br18  1  0.23719300  0.63448000  0.60143500  1
  Br  Br19  1  0.26280700  0.36552000  0.10143500  1
  Br  Br20  1  0.39856500  0.73719300  0.86552000  1
  Br  Br21  1  0.89856500  0.76280700  0.13448000  1
  Br  Br22  1  0.60143500  0.23719300  0.63448000  1
  Br  Br23  1  0.10143500  0.26280700  0.36552000  1
  Br  Br24  1  0.00000000  0.00000000  0.50000000  1
  Br  Br25  1  0.00000000  0.50000000  0.00000000  1
  Br  Br26  1  0.50000000  0.00000000  0.00000000  1
  Br  Br27  1  0.50000000  0.50000000  0.50000000  1
  N  N0  1  0.97950300  0.68863400  0.52480700  1
  N  N1  1  0.02049700  0.18863400  0.97519300  1
  N  N2  1  0.52049700  0.31136600  0.02480700  1
  N  N3  1  0.47950300  0.81136600  0.47519300  1
  N  N4  1  0.52480700  0.97950300  0.68863400  1
  N  N5  1  0.97519300  0.02049700  0.18863400  1
  N  N6  1  0.02480700  0.52049700  0.31136600  1
  N  N7  1  0.47519300  0.47950300  0.81136600  1
  N  N8  1  0.68863400  0.52480700  0.97950300  1
  N  N9  1  0.18863400  0.97519300  0.02049700  1
  N  N10  1  0.31136600  0.02480700  0.52049700  1
  N  N11  1  0.81136600  0.47519300  0.47950300  1
  N  N12  1  0.02049700  0.31136600  0.47519300  1
  N  N13  1  0.97950300  0.81136600  0.02480700  1
  N  N14  1  0.47950300  0.68863400  0.97519300  1
  N  N15  1  0.52049700  0.18863400  0.52480700  1
  N  N16  1  0.47519300  0.02049700  0.31136600  1
  N  N17  1  0.02480700  0.97950300  0.81136600  1
  N  N18  1  0.97519300  0.47950300  0.68863400  1
  N  N19  1  0.52480700  0.52049700  0.18863400  1
  N  N20  1  0.31136600  0.47519300  0.02049700  1
  N  N21  1  0.81136600  0.02480700  0.97950300  1
  N  N22  1  0.68863400  0.97519300  0.47950300  1
  N  N23  1  0.18863400  0.52480700  0.52049700  1
  F  F0  1  0.28796800  0.71203200  0.21203200  1
  F  F1  1  0.71203200  0.21203200  0.28796800  1
  F  F2  1  0.21203200  0.28796800  0.71203200  1
  F  F3  1  0.78796800  0.78796800  0.78796800  1
  F  F4  1  0.71203200  0.28796800  0.78796800  1
  F  F5  1  0.28796800  0.78796800  0.71203200  1
  F  F6  1  0.78796800  0.71203200  0.28796800  1
  F  F7  1  0.21203200  0.21203200  0.21203200  1
  F  F8  1  0.09014700  0.90985300  0.40985300  1
  F  F9  1  0.90985300  0.40985300  0.09014700  1
  F  F10  1  0.40985300  0.09014700  0.90985300  1
  F  F11  1  0.59014700  0.59014700  0.59014700  1
  F  F12  1  0.90985300  0.09014700  0.59014700  1
  F  F13  1  0.09014700  0.59014700  0.90985300  1
  F  F14  1  0.59014700  0.90985300  0.09014700  1
  F  F15  1  0.40985300  0.40985300  0.40985300  1
loop_
_geom_bond_atom_site_label_1
_geom_bond_atom_site_label_2
_geom_bond_distance
_geom_bond_site_symmetry_2
Bi0 N20 2.357982 1_555
Bi0 N19 2.357982 1_555
Bi0 N2 2.357982 1_555
Bi0 N14 2.357982 1_554
Bi0 N8 2.357982 1_554
Bi0 N7 2.357982 1_554
Bi1 N16 2.357982 1_555
Bi1 N15 2.357982 1_555
Bi1 N10 2.357982 1_555
Bi1 N4 2.357982 1_545
Bi1 N22 2.357982 1_545
Bi1 N3 2.357982 1_545
Bi2 N12 2.357982 1_555
Bi2 N23 2.357982 1_555
Bi2 N6 2.357982 1_555
Bi2 N0 2.357982 1_455
Bi2 N18 2.357982 1_455
Bi2 N11 2.357982 1_455
Bi3 N9 2.357982 1_545
Bi3 N1 2.357982 1_554
Bi3 N5 2.357982 1_455
Bi3 N21 2.357982 1_454
Bi3 N13 2.357982 1_445
Bi3 N17 2.357982 1_544
Br0 N6 1.782993 1_555
Br0 F0 2.413671 1_555
Br1 N5 1.782993 1_555
Br1 F1 2.413671 1_555
Br2 N7 1.782993 1_555
Br2 F2 2.413671 1_555
Br3 N4 1.782993 1_555
Br3 F3 2.413671 1_555
Br4 N10 1.782993 1_555
Br4 F2 2.413671 1_555
Br5 N9 1.782993 1_555
Br5 F0 2.413671 1_555
Br6 N11 1.782993 1_555
Br6 F1 2.413671 1_555
Br7 N8 1.782993 1_555
Br7 F3 2.413671 1_555
Br8 N2 1.782993 1_555
Br8 F1 2.413671 1_555
Br9 N1 1.782993 1_555
Br9 F2 2.413671 1_555
Br10 N3 1.782993 1_555
Br10 F0 2.413671 1_555
Br11 N0 1.782993 1_555
Br11 F3 2.413671 1_555
Br12 N18 1.782993 1_555
Br12 F4 2.413671 1_555
Br13 N17 1.782993 1_555
Br13 F5 2.413671 1_555
Br14 N19 1.782993 1_555
Br14 F6 2.413671 1_555
Br15 N16 1.782993 1_555
Br15 F7 2.413671 1_555
Br16 N22 1.782993 1_555
Br16 F6 2.413671 1_555
Br17 N21 1.782993 1_555
Br17 F4 2.413671 1_555
Br18 N23 1.782993 1_555
Br18 F5 2.413671 1_555
Br19 N20 1.782993 1_555
Br19 F7 2.413671 1_555
Br20 N14 1.782993 1_555
Br20 F5 2.413671 1_555
Br21 N13 1.782993 1_555
Br21 F6 2.413671 1_555
Br22 N15 1.782993 1_555
Br22 F4 2.413671 1_555
Br23 N12 1.782993 1_555
Br23 F7 2.413671 1_555
Br24 F12 1.923992 1_455
Br24 F8 1.923992 1_545
Br25 F13 1.923992 1_554
Br25 F9 1.923992 1_455
Br26 F14 1.923992 1_545
Br26 F10 1.923992 1_554
Br27 F11 1.923992 1_555
Br27 F15 1.923992 1_555
