# generated using pymatgen
data_LaAlO3
_symmetry_space_group_name_H-M   'P 1'
_cell_length_a   6.85171400
_cell_length_b   6.85887334
_cell_length_c   9.85453549
_cell_angle_alpha   109.81046822
_cell_angle_beta   86.91555564
_cell_angle_gamma   101.58085603
_symmetry_Int_Tables_number   1
_chemical_formula_structural   LaAlO3
_chemical_formula_sum   'La6 Al6 O18'
_cell_volume   426.78582819
_cell_formula_units_Z   6
loop_
 _symmetry_equiv_pos_site_id
 _symmetry_equiv_pos_as_xyz
  1  'x, y, z'
loop_
 _atom_site_type_symbol
 _atom_site_label
 _atom_site_symmetry_multiplicity
 _atom_site_fract_x
 _atom_site_fract_y
 _atom_site_fract_z
 _atom_site_occupancy
  La  La0  1  0.24043200  0.74799800  0.00496800  1
  La  La1  1  0.42699100  0.87976900  0.65176400  1
  La  La2  1  0.92420800  0.73304000  0.34887300  1
  La  La3  1  0.07579200  0.26696000  0.65112700  1
  La  La4  1  0.57300900  0.12023100  0.34823600  1
  La  La5  1  0.75956800  0.25200200  0.99503200  1
  Al  Al0  1  0.38689300  0.61306000  0.29258000  1
  Al  Al1  1  0.27224900  0.24316800  0.00790400  1
  Al  Al2  1  0.95725900  0.74676200  0.70924100  1
  Al  Al3  1  0.04274100  0.25323800  0.29075900  1
  Al  Al4  1  0.72775100  0.75683200  0.99209600  1
  Al  Al5  1  0.61310700  0.38694000  0.70742000  1
  O  O0  1  0.59283300  0.94350600  0.10546800  1
  O  O1  1  0.25828800  0.79982400  0.26521400  1
  O  O2  1  0.07518100  0.89361500  0.59976600  1
  O  O3  1  0.58296600  0.79192500  0.40924300  1
  O  O4  1  0.88213500  0.65556200  0.07942600  1
  O  O5  1  0.45513600  0.44269900  0.12719600  1
  O  O6  1  0.16342000  0.64389400  0.74416500  1
  O  O7  1  0.23091800  0.46729100  0.39053200  1
  O  O8  1  0.86305600  0.88817500  0.87599500  1
  O  O9  1  0.13694400  0.11182500  0.12400500  1
  O  O10  1  0.76908200  0.53270900  0.60946800  1
  O  O11  1  0.83658000  0.35610600  0.25583500  1
  O  O12  1  0.54486400  0.55730100  0.87280400  1
  O  O13  1  0.11786500  0.34443800  0.92057400  1
  O  O14  1  0.41703400  0.20807500  0.59075700  1
  O  O15  1  0.92481900  0.10638500  0.40023400  1
  O  O16  1  0.74171200  0.20017600  0.73478600  1
  O  O17  1  0.40716700  0.05649400  0.89453200  1
loop_
_geom_bond_atom_site_label_1
_geom_bond_atom_site_label_2
_geom_bond_distance
_geom_bond_site_symmetry_2
La0 O1 2.473236 1_555
La0 O6 2.478795 1_554
La0 O4 2.542377 1_455
La0 O13 2.576833 1_554
La0 O0 2.581910 1_555
La0 O9 2.596694 1_565
La0 O12 2.721457 1_554
La0 O17 2.724557 1_564
La1 O17 2.297102 1_565
La1 O3 2.494902 1_555
La1 O2 2.517921 1_555
La1 O6 2.521183 1_555
La1 O14 2.533860 1_565
La1 O16 2.686518 1_565
La2 O11 2.390485 1_555
La2 O1 2.400211 1_655
La2 O15 2.435349 1_565
La2 O3 2.459739 1_555
La2 O2 2.523497 1_655
La2 O4 2.545667 1_555
La3 O6 2.390485 1_555
La3 O16 2.400211 1_455
La3 O2 2.435349 1_545
La3 O14 2.459739 1_555
La3 O15 2.523497 1_455
La3 O13 2.545667 1_555
La4 O0 2.297102 1_545
La4 O14 2.494902 1_555
La4 O15 2.517921 1_555
La4 O11 2.521183 1_555
La4 O3 2.533860 1_545
La4 O1 2.686518 1_545
La5 O16 2.473236 1_555
La5 O11 2.478795 1_556
La5 O13 2.542377 1_655
La5 O4 2.576833 1_556
La5 O17 2.581910 1_555
La5 O8 2.596694 1_545
La5 O5 2.721457 1_556
La5 O0 2.724557 1_546
Al0 O5 1.756904 1_555
Al0 O3 1.783277 1_555
Al0 O7 1.785392 1_555
Al0 O1 1.789705 1_555
Al1 O17 1.771039 1_554
Al1 O13 1.772052 1_554
Al1 O5 1.790147 1_555
Al1 O9 1.796996 1_555
Al2 O8 1.764827 1_555
Al2 O2 1.774039 1_655
Al2 O10 1.783971 1_555
Al2 O6 1.796840 1_655
Al3 O9 1.764827 1_555
Al3 O15 1.774039 1_455
Al3 O7 1.783971 1_555
Al3 O11 1.796840 1_455
Al4 O0 1.771039 1_556
Al4 O4 1.772052 1_556
Al4 O12 1.790147 1_555
Al4 O8 1.796996 1_555
Al5 O12 1.756904 1_555
Al5 O14 1.783277 1_555
Al5 O10 1.785392 1_555
Al5 O16 1.789705 1_555
