# generated using pymatgen
data_Na2FeO4
_symmetry_space_group_name_H-M   'P 1'
_cell_length_a   5.57443371
_cell_length_b   5.70264729
_cell_length_c   8.67742426
_cell_angle_alpha   96.81863325
_cell_angle_beta   71.71626196
_cell_angle_gamma   113.16131067
_symmetry_Int_Tables_number   1
_chemical_formula_structural   Na2FeO4
_chemical_formula_sum   'Na4 Fe2 O8'
_cell_volume   240.80669564
_cell_formula_units_Z   2
loop_
 _symmetry_equiv_pos_site_id
 _symmetry_equiv_pos_as_xyz
  1  'x, y, z'
loop_
 _atom_site_type_symbol
 _atom_site_label
 _atom_site_symmetry_multiplicity
 _atom_site_fract_x
 _atom_site_fract_y
 _atom_site_fract_z
 _atom_site_occupancy
  Na  Na0  1  0.61142100  0.26432800  0.64445200  1
  Na  Na1  1  0.38856300  0.73572800  0.35555600  1
  Na  Na2  1  0.77693600  0.76346900  0.92853000  1
  Na  Na3  1  0.22303000  0.23656600  0.07145800  1
  Fe  Fe0  1  0.30164100  0.69065200  0.75340200  1
  Fe  Fe1  1  0.69839800  0.30939100  0.24659800  1
  O  O0  1  0.60790200  0.48993200  0.15574200  1
  O  O1  1  0.39210600  0.51005000  0.84420700  1
  O  O2  1  0.45208800  0.18771600  0.41470000  1
  O  O3  1  0.54791000  0.81224500  0.58529900  1
  O  O4  1  0.73118200  0.06285900  0.12953200  1
  O  O5  1  0.26884800  0.93712000  0.87050800  1
  O  O6  1  0.99289100  0.46870000  0.28488200  1
  O  O7  1  0.00708400  0.53124600  0.71513300  1
loop_
_geom_bond_atom_site_label_1
_geom_bond_atom_site_label_2
_geom_bond_distance
_geom_bond_site_symmetry_2
Na0 O7 2.354550 1_655
Na0 O2 2.356564 1_555
Na0 O1 2.429805 1_555
Na0 O3 2.473269 1_545
Na0 O5 2.586901 1_545
Na1 O6 2.354714 1_455
Na1 O3 2.356569 1_555
Na1 O0 2.430413 1_555
Na1 O2 2.472723 1_565
Na1 O4 2.586558 1_565
Na2 O4 2.319151 1_566
Na2 O1 2.349652 1_555
Na2 O0 2.369972 1_556
Na2 O5 2.422695 1_655
Na2 O7 2.468239 1_655
Na3 O5 2.319145 1_544
Na3 O0 2.349589 1_555
Na3 O1 2.370028 1_554
Na3 O4 2.422324 1_455
Na3 O6 2.468006 1_455
Fe0 O3 1.651700 1_555
Fe0 O7 1.651977 1_555
Fe0 O1 1.669274 1_555
Fe0 O5 1.669711 1_555
Fe1 O6 1.651661 1_555
Fe1 O2 1.651876 1_555
Fe1 O0 1.669401 1_555
Fe1 O4 1.669831 1_555
