# generated using pymatgen
data_Na4Sb2C4SO16
_symmetry_space_group_name_H-M   'P 1'
_cell_length_a   10.34452925
_cell_length_b   10.10870113
_cell_length_c   10.18593992
_cell_angle_alpha   118.74844471
_cell_angle_beta   59.50821373
_cell_angle_gamma   119.29980799
_symmetry_Int_Tables_number   1
_chemical_formula_structural   Na4Sb2C4SO16
_chemical_formula_sum   'Na8 Sb4 C8 S2 O32'
_cell_volume   761.09204326
_cell_formula_units_Z   2
loop_
 _symmetry_equiv_pos_site_id
 _symmetry_equiv_pos_as_xyz
  1  'x, y, z'
loop_
 _atom_site_type_symbol
 _atom_site_label
 _atom_site_symmetry_multiplicity
 _atom_site_fract_x
 _atom_site_fract_y
 _atom_site_fract_z
 _atom_site_occupancy
  Na  Na0  1  0.91909300  0.16439800  0.32113100  1
  Na  Na1  1  0.91678100  0.16162500  0.92485500  1
  Na  Na2  1  0.92036400  0.57488800  0.32796700  1
  Na  Na3  1  0.66853000  0.43020500  0.07830800  1
  Na  Na4  1  0.33054200  0.17169100  0.91807100  1
  Na  Na5  1  0.34014300  0.58091800  0.92458800  1
  Na  Na6  1  0.07716500  0.42714000  0.66810600  1
  Na  Na7  1  0.08094600  0.81758900  0.66809200  1
  Sb  Sb0  1  0.49585800  0.99365200  0.00044400  1
  Sb  Sb1  1  0.50711100  0.99526100  0.48863000  1
  Sb  Sb2  1  0.49767900  0.49947800  0.50147200  1
  Sb  Sb3  1  0.99985700  0.99332700  0.49167200  1
  C  C0  1  0.72237100  0.16086200  0.71695000  1
  C  C1  1  0.67083900  0.22767100  0.27232200  1
  C  C2  1  0.26842900  0.21799300  0.66990800  1
  C  C3  1  0.28289700  0.22669200  0.27867300  1
  C  C4  1  0.71850600  0.78000200  0.71813300  1
  C  C5  1  0.72838600  0.78388100  0.34020400  1
  C  C6  1  0.33719200  0.78048200  0.72985100  1
  C  C7  1  0.27145800  0.83345400  0.28513900  1
  S  S0  1  0.87617800  0.62357100  0.87226100  1
  S  S1  1  0.12197700  0.37040000  0.12122900  1
  O  O0  1  0.85552900  0.17194300  0.71181400  1
  O  O1  1  0.67281100  0.10869800  0.28958500  1
  O  O2  1  0.71173900  0.14553200  0.58882200  1
  O  O3  1  0.67715300  0.21453000  0.13655400  1
  O  O4  1  0.59969600  0.16400600  0.85164500  1
  O  O5  1  0.94252700  0.56556400  0.69064400  1
  O  O6  1  0.93165600  0.55425700  0.92994800  1
  O  O7  1  0.66702900  0.36036000  0.39049100  1
  O  O8  1  0.29233000  0.11293800  0.14375800  1
  O  O9  1  0.38523300  0.20280500  0.66893800  1
  O  O10  1  0.70009300  0.56402400  0.93203100  1
  O  O11  1  0.94063600  0.80096500  0.92567000  1
  O  O12  1  0.85416300  0.78290400  0.59670700  1
  O  O13  1  0.72408600  0.64796900  0.32851100  1
  O  O14  1  0.40964000  0.34919300  0.29390600  1
  O  O15  1  0.13384100  0.10244300  0.67628400  1
  O  O16  1  0.59487300  0.65556800  0.71217900  1
  O  O17  1  0.85515600  0.90874600  0.34715800  1
  O  O18  1  0.28250800  0.35417100  0.66747800  1
  O  O19  1  0.14804900  0.21874200  0.39881100  1
  O  O20  1  0.29818300  0.42496100  0.05773400  1
  O  O21  1  0.06175400  0.19054300  0.06214000  1
  O  O22  1  0.60531700  0.79498900  0.34737600  1
  O  O23  1  0.71169000  0.90737800  0.84278000  1
  O  O24  1  0.32474100  0.64457000  0.61784900  1
  O  O25  1  0.05550100  0.42552100  0.29959100  1
  O  O26  1  0.06489600  0.43236800  0.05887800  1
  O  O27  1  0.38660100  0.82438400  0.14781400  1
  O  O28  1  0.35422800  0.79467000  0.85587700  1
  O  O29  1  0.28819700  0.85282100  0.41147500  1
  O  O30  1  0.33356200  0.90077000  0.71849100  1
  O  O31  1  0.13427400  0.82294100  0.29750400  1
loop_
_geom_bond_atom_site_label_1
_geom_bond_atom_site_label_2
_geom_bond_distance
_geom_bond_site_symmetry_2
Na0 O21 2.354816 1_655
Na0 O25 2.367312 1_655
Na0 O17 2.448374 1_545
Na0 O1 2.482667 1_555
Na0 O2 2.497304 1_555
Na0 O19 2.597613 1_655
Na1 O21 2.365557 1_656
Na1 O3 2.417479 1_556
Na1 O15 2.428696 1_655
Na1 O26 2.475078 1_656
Na1 O23 2.490321 1_545
Na1 O0 2.607514 1_555
Na2 O25 2.356613 1_655
Na2 O31 2.429239 1_655
Na2 O26 2.444302 1_655
Na2 O7 2.459376 1_555
Na2 O13 2.474081 1_555
Na2 O12 2.520697 1_555
Na3 O10 2.273614 1_554
Na3 O6 2.360680 1_554
Na3 O14 2.506078 1_555
Na3 O13 2.553967 1_555
Na3 O3 2.569337 1_555
Na3 O4 2.625889 1_554
Na4 O20 2.354281 1_556
Na4 O8 2.440290 1_556
Na4 O9 2.448533 1_555
Na4 O21 2.455546 1_556
Na4 O30 2.509531 1_545
Na4 O4 2.542703 1_555
Na5 O20 2.302758 1_556
Na5 O27 2.454876 1_556
Na5 O16 2.456149 1_555
Na5 O26 2.464077 1_556
Na5 O28 2.494597 1_555
Na5 O18 2.634510 1_555
Na6 O5 2.285717 1_455
Na6 O6 2.356397 1_455
Na6 O24 2.427829 1_555
Na6 O0 2.527779 1_455
Na6 O19 2.532176 1_555
Na6 O18 2.563490 1_555
Na7 O5 2.291780 1_455
Na7 O11 2.310712 1_455
Na7 O29 2.452899 1_555
Na7 O30 2.568053 1_555
Na7 O12 2.614571 1_455
Na7 O15 2.621257 1_565
C0 O2 1.293772 1_555
C0 O0 1.301599 1_555
C0 O4 1.313167 1_555
C1 O3 1.294028 1_555
C1 O7 1.303860 1_555
C1 O1 1.307215 1_555
C2 O9 1.285150 1_555
C2 O15 1.302484 1_555
C2 O18 1.322760 1_555
C3 O8 1.293826 1_555
C3 O19 1.304742 1_555
C3 O14 1.307304 1_555
C4 O16 1.285434 1_555
C4 O23 1.303973 1_555
C4 O12 1.316475 1_555
C5 O22 1.294738 1_555
C5 O13 1.300732 1_555
C5 O17 1.306179 1_555
C6 O24 1.293791 1_555
C6 O30 1.295296 1_555
C6 O28 1.314243 1_555
C7 O29 1.294182 1_555
C7 O27 1.294776 1_555
C7 O31 1.313352 1_555
O0 Sb3 2.421507 1_545
O1 Sb1 2.269233 1_545
O2 Sb1 2.320273 1_545
O3 Sb0 2.446860 1_545
O4 Sb0 2.337634 1_546
O5 S0 1.516279 1_555
O6 S0 1.515717 1_555
O7 Sb2 2.279669 1_555
O8 Sb0 2.385431 1_545
O9 Sb1 2.428332 1_545
O10 S0 1.484878 1_555
O11 S0 1.488498 1_555
O12 Sb3 2.314233 1_555
O13 Sb2 2.399551 1_555
O14 Sb2 2.262218 1_555
O15 Sb3 2.413952 1_445
O16 Sb2 2.342333 1_555
O17 Sb3 2.216128 1_555
O18 Sb2 2.311016 1_555
O19 Sb3 2.370611 1_445
O20 S1 1.485854 1_555
O21 S1 1.508383 1_555
O22 Sb1 2.220009 1_555
O23 Sb0 2.290049 1_556
O24 Sb2 2.345282 1_555
O25 S1 1.489110 1_555
O26 S1 1.506556 1_555
O27 Sb0 2.305358 1_555
O28 Sb0 2.194697 1_556
O29 Sb1 2.311986 1_555
O30 Sb1 2.413398 1_555
O31 Sb3 2.255674 1_455
