# generated using pymatgen
data_AgAsO3
_symmetry_space_group_name_H-M   'P 1'
_cell_length_a   7.77896083
_cell_length_b   7.77896083
_cell_length_c   5.15800273
_cell_angle_alpha   81.14945767
_cell_angle_beta   81.14945767
_cell_angle_gamma   88.23298173
_symmetry_Int_Tables_number   1
_chemical_formula_structural   AgAsO3
_chemical_formula_sum   'Ag4 As4 O12'
_cell_volume   304.72545222
_cell_formula_units_Z   4
loop_
 _symmetry_equiv_pos_site_id
 _symmetry_equiv_pos_as_xyz
  1  'x, y, z'
loop_
 _atom_site_type_symbol
 _atom_site_label
 _atom_site_symmetry_multiplicity
 _atom_site_fract_x
 _atom_site_fract_y
 _atom_site_fract_z
 _atom_site_occupancy
  Ag  Ag0  1  0.22633900  0.77366100  0.75000000  1
  Ag  Ag1  1  0.59615900  0.40384100  0.75000000  1
  Ag  Ag2  1  0.40384100  0.59615900  0.25000000  1
  Ag  Ag3  1  0.77366100  0.22633900  0.25000000  1
  As  As0  1  0.70068600  0.87800700  0.77057900  1
  As  As1  1  0.87800700  0.70068600  0.27057900  1
  As  As2  1  0.12199300  0.29931400  0.72942100  1
  As  As3  1  0.29931400  0.12199300  0.22942100  1
  O  O0  1  0.88912400  0.80409600  0.55857400  1
  O  O1  1  0.80409600  0.88912400  0.05857400  1
  O  O2  1  0.54561800  0.72410000  0.82689900  1
  O  O3  1  0.91521800  0.34856200  0.84243600  1
  O  O4  1  0.72410000  0.54561800  0.32689900  1
  O  O5  1  0.34856200  0.91521800  0.34243600  1
  O  O6  1  0.65143800  0.08478200  0.65756400  1
  O  O7  1  0.27590000  0.45438200  0.67310100  1
  O  O8  1  0.08478200  0.65143800  0.15756400  1
  O  O9  1  0.45438200  0.27590000  0.17310100  1
  O  O10  1  0.19590400  0.11087600  0.94142600  1
  O  O11  1  0.11087600  0.19590400  0.44142600  1
loop_
_geom_bond_atom_site_label_1
_geom_bond_atom_site_label_2
_geom_bond_distance
_geom_bond_site_symmetry_2
Ag0 O8 2.296311 1_556
Ag0 O5 2.296311 1_555
Ag0 O2 2.582936 1_555
Ag0 O7 2.582936 1_555
Ag1 O4 2.372392 1_555
Ag1 O9 2.372392 1_556
Ag1 O7 2.591152 1_555
Ag1 O2 2.591152 1_555
Ag1 O3 2.609124 1_555
Ag1 O6 2.609124 1_555
Ag2 O2 2.372392 1_554
Ag2 O7 2.372392 1_555
Ag2 O9 2.591152 1_555
Ag2 O4 2.591152 1_555
Ag2 O5 2.609124 1_555
Ag2 O8 2.609124 1_555
Ag3 O6 2.296311 1_555
Ag3 O3 2.296311 1_554
Ag3 O4 2.582936 1_555
Ag3 O9 2.582936 1_555
As0 O6 1.678100 1_565
As0 O2 1.687323 1_555
As0 O1 1.809073 1_556
As0 O0 1.822998 1_555
As1 O8 1.678100 1_655
As1 O4 1.687323 1_555
As1 O0 1.809073 1_555
As1 O1 1.822998 1_555
As2 O3 1.678100 1_455
As2 O7 1.687323 1_555
As2 O11 1.809073 1_555
As2 O10 1.822998 1_555
As3 O5 1.678100 1_545
As3 O9 1.687323 1_555
As3 O10 1.809073 1_554
As3 O11 1.822998 1_555
