# generated using pymatgen
data_CeZr6O14
_symmetry_space_group_name_H-M   'P 1'
_cell_length_a   3.68250400
_cell_length_b   5.29756400
_cell_length_c   25.72219700
_cell_angle_alpha   90.00000000
_cell_angle_beta   90.00000000
_cell_angle_gamma   90.00000000
_symmetry_Int_Tables_number   1
_chemical_formula_structural   CeZr6O14
_chemical_formula_sum   'Ce2 Zr12 O28'
_cell_volume   501.79635169
_cell_formula_units_Z   2
loop_
 _symmetry_equiv_pos_site_id
 _symmetry_equiv_pos_as_xyz
  1  'x, y, z'
loop_
 _atom_site_type_symbol
 _atom_site_label
 _atom_site_symmetry_multiplicity
 _atom_site_fract_x
 _atom_site_fract_y
 _atom_site_fract_z
 _atom_site_occupancy
  Ce  Ce0  1  0.50000000  0.50105200  0.64362300  1
  Ce  Ce1  1  0.50000000  0.50105200  0.35637700  1
  Zr  Zr0  1  0.00000000  0.00028800  0.71712400  1
  Zr  Zr1  1  0.00000000  0.99917600  0.85841200  1
  Zr  Zr2  1  0.00000000  0.99946800  0.00000000  1
  Zr  Zr3  1  0.00000000  0.99917600  0.14158800  1
  Zr  Zr4  1  0.00000000  0.00028800  0.28287600  1
  Zr  Zr5  1  0.00000000  0.99994500  0.42983300  1
  Zr  Zr6  1  0.00000000  0.99994500  0.57016700  1
  Zr  Zr7  1  0.50000000  0.50054600  0.92924900  1
  Zr  Zr8  1  0.50000000  0.50003600  0.21214200  1
  Zr  Zr9  1  0.50000000  0.49982100  0.50000000  1
  Zr  Zr10  1  0.50000000  0.50003600  0.78785800  1
  Zr  Zr11  1  0.50000000  0.50054600  0.07075100  1
  O  O0  1  0.00000000  0.19805700  0.92923400  1
  O  O1  1  0.00000000  0.20145600  0.78822700  1
  O  O2  1  0.00000000  0.69943600  0.78672800  1
  O  O3  1  0.00000000  0.19805700  0.07076600  1
  O  O4  1  0.00000000  0.69756000  0.07112000  1
  O  O5  1  0.00000000  0.20145600  0.21177300  1
  O  O6  1  0.00000000  0.69943600  0.21327200  1
  O  O7  1  0.00000000  0.20952300  0.35635800  1
  O  O8  1  0.00000000  0.73769000  0.35674000  1
  O  O9  1  0.00000000  0.20600000  0.50000000  1
  O  O10  1  0.00000000  0.69756000  0.92888000  1
  O  O11  1  0.00000000  0.70216800  0.50000000  1
  O  O12  1  0.00000000  0.20952300  0.64364200  1
  O  O13  1  0.00000000  0.73769000  0.64326000  1
  O  O14  1  0.50000000  0.27971000  0.43099700  1
  O  O15  1  0.50000000  0.79229100  0.43212400  1
  O  O16  1  0.50000000  0.27971000  0.56900300  1
  O  O17  1  0.50000000  0.28160900  0.71882700  1
  O  O18  1  0.50000000  0.79392900  0.71861800  1
  O  O19  1  0.50000000  0.30053800  0.85877900  1
  O  O20  1  0.50000000  0.80120100  0.85760200  1
  O  O21  1  0.50000000  0.30178000  0.00000000  1
  O  O22  1  0.50000000  0.80268000  0.00000000  1
  O  O23  1  0.50000000  0.30053800  0.14122100  1
  O  O24  1  0.50000000  0.80120100  0.14239800  1
  O  O25  1  0.50000000  0.28160900  0.28117300  1
  O  O26  1  0.50000000  0.79392900  0.28138200  1
  O  O27  1  0.50000000  0.79229100  0.56787600  1
loop_
_geom_bond_atom_site_label_1
_geom_bond_atom_site_label_2
_geom_bond_distance
_geom_bond_site_symmetry_2
Ce0 O13 2.227515 1_555
Ce0 O13 2.227515 1_655
Ce0 O16 2.249219 1_555
Ce0 O17 2.256853 1_555
Ce0 O12 2.403198 1_655
Ce0 O12 2.403198 1_555
Ce0 O18 2.475569 1_555
Ce0 O27 2.485275 1_555
Ce1 O8 2.227515 1_555
Ce1 O8 2.227515 1_655
Ce1 O14 2.249219 1_555
Ce1 O25 2.256853 1_555
Ce1 O7 2.403198 1_555
Ce1 O7 2.403198 1_655
Ce1 O26 2.475569 1_555
Ce1 O15 2.485275 1_555
O0 Zr2 2.102408 1_546
O0 Zr1 2.104429 1_545
O0 Zr7 2.440916 1_555
O0 Zr7 2.440916 1_455
O1 Zr1 2.099395 1_545
O1 Zr0 2.116763 1_555
O1 Zr10 2.427390 1_455
O1 Zr10 2.427390 1_555
O2 Zr10 2.122945 1_455
O2 Zr10 2.122945 1_555
O2 Zr0 2.396990 1_565
O2 Zr1 2.433363 1_555
O3 Zr2 2.102408 1_545
O3 Zr3 2.104429 1_545
O3 Zr11 2.440916 1_455
O3 Zr11 2.440916 1_555
O4 Zr11 2.116506 1_555
O4 Zr11 2.116506 1_455
O4 Zr3 2.416309 1_555
O4 Zr2 2.429933 1_555
O5 Zr3 2.099395 1_545
O5 Zr4 2.116763 1_555
O5 Zr8 2.427390 1_555
O5 Zr8 2.427390 1_455
O6 Zr8 2.122945 1_455
O6 Zr8 2.122945 1_555
O6 Zr4 2.396990 1_565
O6 Zr3 2.433363 1_555
O7 Zr4 2.191159 1_555
O7 Zr5 2.191924 1_545
O8 Zr5 2.337737 1_555
O8 Zr4 2.354789 1_565
O9 Zr6 2.109277 1_545
O9 Zr5 2.109277 1_545
O9 Zr9 2.411019 1_455
O9 Zr9 2.411019 1_555
O10 Zr7 2.116506 1_555
O10 Zr7 2.116506 1_455
O10 Zr1 2.416309 1_555
O10 Zr2 2.429933 1_556
O11 Zr9 2.130558 1_455
O11 Zr9 2.130558 1_555
O11 Zr6 2.397074 1_555
O11 Zr5 2.397074 1_555
O12 Zr0 2.191159 1_555
O12 Zr6 2.191924 1_545
O13 Zr6 2.337737 1_555
O13 Zr0 2.354789 1_565
O14 Zr9 2.123671 1_555
O14 Zr5 2.363820 1_645
O14 Zr5 2.363820 1_545
O15 Zr5 2.145650 1_655
O15 Zr5 2.145650 1_555
O15 Zr9 2.334269 1_555
O16 Zr9 2.123671 1_555
O16 Zr6 2.363820 1_645
O16 Zr6 2.363820 1_545
O17 Zr10 2.119389 1_555
O17 Zr0 2.369213 1_655
O17 Zr0 2.369213 1_555
O18 Zr0 2.141675 1_665
O18 Zr0 2.141675 1_565
O18 Zr10 2.365580 1_555
O19 Zr7 2.099603 1_555
O19 Zr10 2.108271 1_555
O19 Zr1 2.437019 1_645
O19 Zr1 2.437019 1_545
O20 Zr1 2.119102 1_655
O20 Zr1 2.119102 1_555
O20 Zr10 2.400782 1_555
O20 Zr7 2.435809 1_555
O21 Zr11 2.102543 1_555
O21 Zr7 2.102543 1_554
O21 Zr2 2.440300 1_645
O21 Zr2 2.440300 1_545
O22 Zr2 2.115894 1_655
O22 Zr2 2.115894 1_555
O22 Zr11 2.423586 1_555
O22 Zr7 2.423586 1_554
O23 Zr11 2.099603 1_555
O23 Zr8 2.108271 1_555
O23 Zr3 2.437019 1_545
O23 Zr3 2.437019 1_645
O24 Zr3 2.119102 1_555
O24 Zr3 2.119102 1_655
O24 Zr8 2.400782 1_555
O24 Zr11 2.435809 1_555
O25 Zr8 2.119389 1_555
O25 Zr4 2.369213 1_655
O25 Zr4 2.369213 1_555
O26 Zr4 2.141675 1_565
O26 Zr4 2.141675 1_665
O26 Zr8 2.365580 1_555
O27 Zr6 2.145650 1_655
O27 Zr6 2.145650 1_555
O27 Zr9 2.334269 1_555
