# generated using pymatgen
data_Li5CoOF5
_symmetry_space_group_name_H-M   'P 1'
_cell_length_a   2.84744964
_cell_length_b   12.56947778
_cell_length_c   5.71656138
_cell_angle_alpha   76.85008997
_cell_angle_beta   90.00172607
_cell_angle_gamma   89.99603526
_symmetry_Int_Tables_number   1
_chemical_formula_structural   Li5CoOF5
_chemical_formula_sum   'Li10 Co2 O2 F10'
_cell_volume   199.23617136
_cell_formula_units_Z   2
loop_
 _symmetry_equiv_pos_site_id
 _symmetry_equiv_pos_as_xyz
  1  'x, y, z'
loop_
 _atom_site_type_symbol
 _atom_site_label
 _atom_site_symmetry_multiplicity
 _atom_site_fract_x
 _atom_site_fract_y
 _atom_site_fract_z
 _atom_site_occupancy
  Li  Li0  1  0.00000000  0.66666600  0.16666600  1
  Li  Li1  1  0.00000000  0.66666600  0.66666600  1
  Li  Li2  1  0.00085942  0.99200007  0.50410996  1
  Li  Li3  1  0.00089577  0.99218813  0.00388839  1
  Li  Li4  1  0.99910323  0.34114587  0.32944461  1
  Li  Li5  1  0.99913958  0.34133393  0.82922304  1
  Li  Li6  1  0.49981129  0.50656361  0.99604614  1
  Li  Li7  1  0.49986117  0.50658113  0.49555997  1
  Li  Li8  1  0.50013883  0.82675187  0.83777403  1
  Li  Li9  1  0.50018871  0.82676939  0.33728786  1
  Co  Co0  1  0.50000000  0.16666700  0.16666600  1
  Co  Co1  1  0.50000000  0.16666700  0.66666600  1
  O  O0  1  -0.00009324  0.16766414  0.41623953  1
  O  O1  1  0.00009324  0.16566986  0.91709247  1
  F  F0  1  0.49999894  0.66668354  0.91656461  1
  F  F1  1  0.50000106  0.66664846  0.41676839  1
  F  F2  1  0.50032540  0.98688658  0.75749002  1
  F  F3  1  0.50026821  0.98685605  0.25621356  1
  F  F4  1  0.49973179  0.34647795  0.07711944  1
  F  F5  1  0.49967460  0.34644742  0.57584298  1
  F  F6  1  0.99987699  0.50567700  0.24657449  1
  F  F7  1  0.99988645  0.50537542  0.74668266  1
  F  F8  1  0.00012201  0.82765700  0.08675851  1
  F  F9  1  0.00011255  0.82795758  0.58665034  1
loop_
_geom_bond_atom_site_label_1
_geom_bond_atom_site_label_2
_geom_bond_distance
_geom_bond_site_symmetry_2
Li2 O0 2.150109 1_565
Li3 O1 2.123397 1_564
Li4 O0 2.123397 1_655
Li5 O1 2.150109 1_655
Co0 O1 2.017397 1_554
Co0 O0 2.017397 1_655
Co0 O1 2.017831 1_654
Co0 O0 2.017831 1_555
Co0 F3 2.200866 1_545
Co0 F4 2.200866 1_555
Co1 O0 2.016872 1_655
Co1 O1 2.016872 1_555
Co1 O0 2.017184 1_555
Co1 O1 2.017184 1_655
Co1 F5 2.200497 1_555
Co1 F2 2.200497 1_545
F0 Li8 1.959231 1_555
F0 Li6 1.959852 1_555
F0 Li1 2.016876 1_555
F0 Li1 2.016941 1_655
F0 Li0 2.017631 1_656
F0 Li0 2.017687 1_556
F1 Li7 1.959219 1_555
F1 Li9 1.959865 1_555
F1 Li1 2.016872 1_655
F1 Li1 2.016937 1_555
F1 Li0 2.017635 1_555
F1 Li0 2.017691 1_655
F2 Li8 1.960030 1_555
F2 Li3 2.013366 1_556
F2 Li3 2.015608 1_656
F2 Li2 2.020481 1_555
F2 Li2 2.022691 1_655
F3 Li9 1.959450 1_555
F3 Li3 2.015660 1_555
F3 Li3 2.018251 1_655
F3 Li2 2.019009 1_555
F3 Li2 2.021328 1_655
F4 Li6 1.959438 1_554
F4 Li4 2.015658 1_555
F4 Li4 2.018253 1_455
F4 Li5 2.019007 1_554
F4 Li5 2.021330 1_454
F5 Li7 1.960018 1_555
F5 Li4 2.013364 1_555
F5 Li4 2.015610 1_455
F5 Li5 2.020479 1_555
F5 Li5 2.022693 1_455
F6 Li0 1.970490 1_655
F6 Li4 2.013846 1_555
F6 Li7 2.014977 1_655
F6 Li7 2.015100 1_555
F6 Li6 2.017556 1_654
F6 Li6 2.017758 1_554
F7 Li1 1.974182 1_655
F7 Li5 2.007852 1_555
F7 Li6 2.016985 1_655
F7 Li6 2.017346 1_555
F7 Li7 2.019424 1_655
F7 Li7 2.019463 1_555
F8 Li0 1.970514 1_555
F8 Li3 2.013846 1_555
F8 Li8 2.014973 1_454
F8 Li8 2.015100 1_554
F8 Li9 2.017556 1_455
F8 Li9 2.017762 1_555
F9 Li1 1.974194 1_555
F9 Li2 2.007864 1_555
F9 Li9 2.016979 1_455
F9 Li9 2.017344 1_555
F9 Li8 2.019426 1_455
F9 Li8 2.019469 1_555
