# generated using pymatgen
data_LiCuPO4
_symmetry_space_group_name_H-M   'P 1'
_cell_length_a   5.08725300
_cell_length_b   8.30580700
_cell_length_c   8.69045926
_cell_angle_alpha   70.09214408
_cell_angle_beta   90.00000000
_cell_angle_gamma   90.00000000
_symmetry_Int_Tables_number   1
_chemical_formula_structural   LiCuPO4
_chemical_formula_sum   'Li4 Cu4 P4 O16'
_cell_volume   345.26081542
_cell_formula_units_Z   4
loop_
 _symmetry_equiv_pos_site_id
 _symmetry_equiv_pos_as_xyz
  1  'x, y, z'
loop_
 _atom_site_type_symbol
 _atom_site_label
 _atom_site_symmetry_multiplicity
 _atom_site_fract_x
 _atom_site_fract_y
 _atom_site_fract_z
 _atom_site_occupancy
  Li  Li0  1  0.83911700  0.09409200  0.01971500  1
  Li  Li1  1  0.32415000  0.26789900  0.49498600  1
  Li  Li2  1  0.16088300  0.59409200  0.01971500  1
  Li  Li3  1  0.67585000  0.76789900  0.49498600  1
  Cu  Cu0  1  0.67169900  0.99722700  0.74677800  1
  Cu  Cu1  1  0.81280200  0.33012200  0.27060200  1
  Cu  Cu2  1  0.32830100  0.49722700  0.74677800  1
  Cu  Cu3  1  0.18719800  0.83012200  0.27060200  1
  P  P0  1  0.32704300  0.22236200  0.13678400  1
  P  P1  1  0.83425100  0.37089000  0.63082300  1
  P  P2  1  0.67295700  0.72236200  0.13678400  1
  P  P3  1  0.16574900  0.87089000  0.63082300  1
  O  O0  1  0.19546400  0.06352200  0.11345300  1
  O  O1  1  0.31300100  0.02282400  0.65752300  1
  O  O2  1  0.62697400  0.18813800  0.16362000  1
  O  O3  1  0.20433200  0.26103800  0.28471000  1
  O  O4  1  0.81221900  0.20850400  0.78461900  1
  O  O5  1  0.70663700  0.32615300  0.48717100  1
  O  O6  1  0.80453600  0.56352200  0.11345300  1
  O  O7  1  0.12694100  0.42144100  0.58822600  1
  O  O8  1  0.27184300  0.37958700  0.98219200  1
  O  O9  1  0.68699900  0.52282400  0.65752300  1
  O  O10  1  0.37302600  0.68813800  0.16362000  1
  O  O11  1  0.79566800  0.76103800  0.28471000  1
  O  O12  1  0.18778100  0.70850400  0.78461900  1
  O  O13  1  0.29336300  0.82615300  0.48717100  1
  O  O14  1  0.87305900  0.92144100  0.58822600  1
  O  O15  1  0.72815700  0.87958700  0.98219200  1
loop_
_geom_bond_atom_site_label_1
_geom_bond_atom_site_label_2
_geom_bond_distance
_geom_bond_site_symmetry_2
Li0 O4 1.942623 1_554
Li0 O0 1.968138 1_655
Li0 O15 1.998715 1_544
Li0 O2 2.001040 1_555
Li1 O3 1.945529 1_555
Li1 O7 1.998300 1_555
Li1 O5 2.000628 1_555
Li1 O1 2.045430 1_555
Li2 O12 1.942623 1_554
Li2 O6 1.968138 1_455
Li2 O8 1.998715 1_554
Li2 O10 2.001040 1_555
Li3 O11 1.945529 1_555
Li3 O14 1.998300 1_555
Li3 O13 2.000628 1_555
Li3 O9 2.045430 1_555
Cu0 O15 1.965040 1_555
Cu0 O1 1.965808 1_565
Cu0 O14 1.983634 1_555
Cu0 O4 2.022768 1_565
Cu1 O5 1.947503 1_555
Cu1 O6 1.954987 1_555
Cu1 O2 1.973698 1_555
Cu1 O3 2.064869 1_655
Cu2 O8 1.965040 1_555
Cu2 O9 1.965808 1_555
Cu2 O7 1.983634 1_555
Cu2 O12 2.022768 1_555
Cu3 O13 1.947503 1_555
Cu3 O0 1.954987 1_565
Cu3 O10 1.973698 1_555
Cu3 O11 2.064869 1_455
O0 P0 1.553023 1_555
O1 P3 1.551416 1_545
O2 P0 1.555052 1_555
O3 P0 1.557805 1_555
O4 P1 1.546096 1_555
O5 P1 1.560113 1_555
O6 P2 1.553023 1_555
O7 P1 1.557101 1_455
O8 P0 1.547359 1_556
O9 P1 1.551416 1_555
O10 P2 1.555052 1_555
O11 P2 1.557805 1_555
O12 P3 1.546096 1_555
O13 P3 1.560113 1_555
O14 P3 1.557101 1_655
O15 P2 1.547359 1_556
