# generated using pymatgen
data_K2FeP2H3(O4F)2
_symmetry_space_group_name_H-M   'P 1'
_cell_length_a   7.19947900
_cell_length_b   8.50194332
_cell_length_c   8.61899309
_cell_angle_alpha   79.98966559
_cell_angle_beta   87.45044174
_cell_angle_gamma   87.07448844
_symmetry_Int_Tables_number   1
_chemical_formula_structural   K2FeP2H3(O4F)2
_chemical_formula_sum   'K4 Fe2 P4 H6 O16 F4'
_cell_volume   518.51602050
_cell_formula_units_Z   2
loop_
 _symmetry_equiv_pos_site_id
 _symmetry_equiv_pos_as_xyz
  1  'x, y, z'
loop_
 _atom_site_type_symbol
 _atom_site_label
 _atom_site_symmetry_multiplicity
 _atom_site_fract_x
 _atom_site_fract_y
 _atom_site_fract_z
 _atom_site_occupancy
  K  K0  1  0.16869200  0.67782700  0.58538800  1
  K  K1  1  0.69301700  0.28363400  0.91264100  1
  K  K2  1  0.41713800  0.65173000  0.07490400  1
  K  K3  1  0.92602800  0.34880300  0.53968900  1
  Fe  Fe0  1  0.27129200  0.16180000  0.27850800  1
  Fe  Fe1  1  0.96151500  0.75089100  0.09434400  1
  P  P0  1  0.55578900  0.84186700  0.41920900  1
  P  P1  1  0.98304200  0.94732200  0.76305900  1
  P  P2  1  0.81668000  0.11061100  0.25712900  1
  P  P3  1  0.40522600  0.00166500  0.70054100  1
  H  H0  1  0.23229600  0.34700300  0.97732500  1
  H  H1  1  0.55252600  0.57306600  0.52851200  1
  H  H2  1  0.10162300  0.65159500  0.98056800  1
  H  H3  1  0.41707800  0.16878300  0.66688700  1
  H  H4  1  0.75269500  0.54380400  0.20970900  1
  H  H5  1  0.02223300  0.53993100  0.90654400  1
  O  O0  1  0.11496600  0.42981000  0.23166400  1
  O  O1  1  0.61910900  0.57881200  0.62895200  1
  O  O2  1  0.96543800  0.95045100  0.94933300  1
  O  O3  1  0.14320700  0.07358600  0.68714300  1
  O  O4  1  0.22080200  0.39190500  0.86223100  1
  O  O5  1  0.35615400  0.85601800  0.81932100  1
  O  O6  1  0.22700600  0.37657000  0.35645600  1
  O  O7  1  0.00600700  0.10155000  0.33165700  1
  O  O8  1  0.79302000  0.08061800  0.70220300  1
  O  O9  1  0.68720200  0.74393300  0.57176800  1
  O  O10  1  0.73573100  0.92967600  0.34519300  1
  O  O11  1  0.76450700  0.60925300  0.10515400  1
  O  O12  1  0.42181500  0.95873400  0.51719400  1
  O  O13  1  0.62860400  0.97571400  0.77218000  1
  O  O14  1  0.47554800  0.69421900  0.37641000  1
  O  O15  1  0.02424900  0.44753700  0.84512400  1
  F  F0  1  0.42739700  0.96017800  0.24703000  1
  F  F1  1  0.06189500  0.74911800  0.28917700  1
  F  F2  1  0.68589100  0.21958500  0.37076600  1
  F  F3  1  0.41678300  0.27239900  0.09608500  1
loop_
_geom_bond_atom_site_label_1
_geom_bond_atom_site_label_2
_geom_bond_distance
_geom_bond_site_symmetry_2
K0 O14 2.781078 1_555
K1 O8 2.762718 1_555
K1 O15 2.810885 1_655
K1 O13 3.132072 1_545
K1 P2 3.217986 1_556
K1 O1 3.225819 1_555
K1 O2 3.338789 1_545
K2 O11 2.527027 1_555
K2 O5 2.596171 1_554
K2 O14 2.738530 1_555
K2 O0 3.064195 1_555
K3 O6 2.619810 1_655
K3 O8 2.659137 1_555
K3 O3 2.881755 1_655
K3 O0 2.917467 1_655
K3 O7 3.010051 1_655
K3 O15 3.021495 1_655
K3 O1 3.037975 1_555
Fe0 O7 2.015058 1_555
Fe0 O6 2.057948 1_555
Fe0 O0 2.465878 1_555
Fe1 H2 1.674723 1_654
Fe1 O11 1.895807 1_555
Fe1 O2 1.925116 1_554
H0 O4 1.004520 1_555
H1 O1 1.017649 1_555
H1 O14 1.619773 1_555
H2 K2 2.446614 1_556
H3 P3 1.406081 1_555
H4 O11 0.976029 1_555
H5 O15 1.019916 1_555
O0 O6 1.372252 1_555
O2 P1 1.609591 1_555
O3 P1 1.650818 1_445
O3 P3 1.955205 1_555
O5 P3 1.509307 1_565
O7 P2 1.525271 1_455
O8 P1 1.769166 1_545
O9 P0 1.722501 1_555
O10 P0 1.581840 1_555
O10 P2 1.711246 1_565
O12 P0 1.658987 1_555
O12 P3 1.680479 1_565
O13 O8 1.554875 1_565
O13 P3 1.738108 1_565
O14 P0 1.516422 1_555
F0 P0 1.891212 1_555
F0 Fe0 2.052563 1_565
F1 Fe1 1.854854 1_455
F1 K0 2.658134 1_555
F2 P2 1.687806 1_555
F2 K3 2.699918 1_555
F3 Fe0 1.973199 1_555
F3 K1 2.480169 1_554
