# generated using pymatgen
data_K4NbFe3(PO4)6
_symmetry_space_group_name_H-M   'P 1'
_cell_length_a   10.06044800
_cell_length_b   10.06015600
_cell_length_c   10.06192933
_cell_angle_alpha   89.60980554
_cell_angle_beta   90.00000000
_cell_angle_gamma   90.00000000
_symmetry_Int_Tables_number   1
_chemical_formula_structural   K4NbFe3(PO4)6
_chemical_formula_sum   'K8 Nb2 Fe6 P12 O48'
_cell_volume   1018.34099529
_cell_formula_units_Z   2
loop_
 _symmetry_equiv_pos_site_id
 _symmetry_equiv_pos_as_xyz
  1  'x, y, z'
loop_
 _atom_site_type_symbol
 _atom_site_label
 _atom_site_symmetry_multiplicity
 _atom_site_fract_x
 _atom_site_fract_y
 _atom_site_fract_z
 _atom_site_occupancy
  K  K0  1  0.93399200  0.18608900  0.93004000  1
  K  K1  1  0.20569000  0.04353400  0.29676400  1
  K  K2  1  0.70569000  0.95646600  0.70323600  1
  K  K3  1  0.43399200  0.81391100  0.06996000  1
  K  K4  1  0.06761400  0.67948500  0.56384000  1
  K  K5  1  0.79398600  0.54477000  0.20879900  1
  K  K6  1  0.29398600  0.45523000  0.79120100  1
  K  K7  1  0.56761400  0.32051500  0.43616000  1
  Nb  Nb0  1  0.58695800  0.16677100  0.08835400  1
  Nb  Nb1  1  0.08695800  0.83322900  0.91164600  1
  Fe  Fe0  1  0.35538600  0.10760100  0.64058500  1
  Fe  Fe1  1  0.85538600  0.89239900  0.35941500  1
  Fe  Fe2  1  0.41498500  0.66122600  0.41630200  1
  Fe  Fe3  1  0.64441300  0.60487100  0.85188000  1
  Fe  Fe4  1  0.14441300  0.39512900  0.14812000  1
  Fe  Fe5  1  0.91498500  0.33877400  0.58369800  1
  P  P0  1  0.87865800  0.20748800  0.27439000  1
  P  P1  1  0.26982300  0.12772600  0.95694200  1
  P  P2  1  0.04193600  0.02463600  0.62225000  1
  P  P3  1  0.54193600  0.97536400  0.37775000  1
  P  P4  1  0.76982300  0.87227400  0.04305800  1
  P  P5  1  0.37865800  0.79251200  0.72561000  1
  P  P6  1  0.12547200  0.70766100  0.23310500  1
  P  P7  1  0.72826700  0.62395200  0.54137000  1
  P  P8  1  0.95705600  0.51614900  0.87526400  1
  P  P9  1  0.45705600  0.48385100  0.12473600  1
  P  P10  1  0.22826700  0.37604800  0.45863000  1
  P  P11  1  0.62547200  0.29233900  0.76689500  1
  O  O0  1  0.64539500  0.24810100  0.91840700  1
  O  O1  1  0.20218800  0.22523100  0.04977100  1
  O  O2  1  0.74249800  0.22564400  0.19270100  1
  O  O3  1  0.52196300  0.20074600  0.70421900  1
  O  O4  1  0.26461800  0.17221200  0.81175300  1
  O  O5  1  0.99731600  0.16634900  0.65257900  1
  O  O6  1  0.41700200  0.10129500  0.00215700  1
  O  O7  1  0.92171300  0.06133100  0.26382600  1
  O  O8  1  0.52413900  0.05708400  0.24150500  1
  O  O9  1  0.45165600  0.04922300  0.47503900  1
  O  O10  1  0.18796900  0.01373700  0.57872300  1
  O  O11  1  0.69568300  0.00872900  0.02232800  1
  O  O12  1  0.19568300  0.99127100  0.97767200  1
  O  O13  1  0.68796900  0.98626300  0.42127700  1
  O  O14  1  0.95165600  0.95077700  0.52496100  1
  O  O15  1  0.02413900  0.94291600  0.75849500  1
  O  O16  1  0.42171300  0.93866900  0.73617400  1
  O  O17  1  0.91700200  0.89870500  0.99784300  1
  O  O18  1  0.49731600  0.83365100  0.34742100  1
  O  O19  1  0.76461800  0.82778800  0.18824700  1
  O  O20  1  0.02196300  0.79925400  0.29578100  1
  O  O21  1  0.24249800  0.77435600  0.80729900  1
  O  O22  1  0.70218800  0.77476900  0.95022900  1
  O  O23  1  0.14539500  0.75189900  0.08159300  1
  O  O24  1  0.34722700  0.74836100  0.58406200  1
  O  O25  1  0.79819800  0.72847300  0.45231500  1
  O  O26  1  0.25907000  0.73067600  0.30239100  1
  O  O27  1  0.47516300  0.70135000  0.80045500  1
  O  O28  1  0.73488200  0.67198800  0.68789700  1
  O  O29  1  0.00071700  0.66792800  0.85431000  1
  O  O30  1  0.58293100  0.60058700  0.49867300  1
  O  O31  1  0.07746300  0.56281800  0.23404600  1
  O  O32  1  0.48077100  0.55278400  0.25796100  1
  O  O33  1  0.54945900  0.54676300  0.02153000  1
  O  O34  1  0.81209700  0.51576600  0.92310900  1
  O  O35  1  0.30564300  0.50736800  0.47941400  1
  O  O36  1  0.80564300  0.49263200  0.52058600  1
  O  O37  1  0.31209700  0.48423400  0.07689100  1
  O  O38  1  0.04945900  0.45323700  0.97847000  1
  O  O39  1  0.98077100  0.44721600  0.74203900  1
  O  O40  1  0.57746300  0.43718200  0.76595400  1
  O  O41  1  0.08293100  0.39941300  0.50132700  1
  O  O42  1  0.50071700  0.33207200  0.14569000  1
  O  O43  1  0.23488200  0.32801200  0.31210300  1
  O  O44  1  0.97516300  0.29865000  0.19954500  1
  O  O45  1  0.75907000  0.26932400  0.69760900  1
  O  O46  1  0.29819800  0.27152700  0.54768500  1
  O  O47  1  0.84722700  0.25163900  0.41593800  1
loop_
_geom_bond_atom_site_label_1
_geom_bond_atom_site_label_2
_geom_bond_distance
_geom_bond_site_symmetry_2
K0 O5 2.871751 1_555
K0 O17 2.970927 1_545
K0 O38 2.971137 1_655
K0 O0 2.971820 1_555
K0 O44 2.974762 1_556
K0 O1 2.982116 1_656
K0 O45 3.039886 1_555
K0 O11 3.125912 1_556
K0 O15 3.137517 1_645
K0 O39 3.260853 1_555
K0 O2 3.296806 1_556
K0 O12 3.315022 1_645
K1 O10 2.856382 1_555
K1 O7 2.881522 1_455
K1 O43 2.882103 1_555
K1 O9 3.057065 1_555
K1 O20 3.075094 1_545
K1 O1 3.075213 1_555
K1 O26 3.193009 1_545
K1 O8 3.254327 1_555
K1 O12 3.258533 1_544
K2 O13 2.856382 1_555
K2 O16 2.881522 1_555
K2 O28 2.882103 1_555
K2 O14 3.057065 1_555
K2 O3 3.075094 1_565
K2 O22 3.075213 1_555
K2 O45 3.193009 1_565
K2 O15 3.254327 1_655
K2 O11 3.258533 1_566
K3 O18 2.871751 1_555
K3 O6 2.970927 1_565
K3 O33 2.971137 1_555
K3 O23 2.971820 1_555
K3 O27 2.974762 1_554
K3 O22 2.982116 1_554
K3 O26 3.039886 1_555
K3 O12 3.125912 1_554
K3 O8 3.137517 1_565
K3 O32 3.260853 1_555
K3 O21 3.296806 1_554
K3 O11 3.315022 1_565
K4 O41 2.895206 1_555
K4 O24 2.904580 1_555
K4 O25 2.973398 1_455
K4 O20 2.982159 1_555
K4 O14 2.991350 1_455
K4 O29 3.000658 1_555
K4 O39 3.062872 1_455
K4 O35 3.078039 1_555
K4 O21 3.168462 1_555
K4 O36 3.268057 1_455
K4 O26 3.298065 1_555
K4 O15 3.334886 1_555
K5 O19 2.868556 1_555
K5 O31 2.869058 1_655
K5 O34 2.897075 1_554
K5 O44 3.076480 1_555
K5 O25 3.079376 1_555
K5 O33 3.098754 1_555
K5 O36 3.179363 1_555
K5 O32 3.190778 1_555
K5 O2 3.257096 1_555
K6 O4 2.868556 1_555
K6 O40 2.869058 1_555
K6 O37 2.897075 1_556
K6 O27 3.076480 1_555
K6 O46 3.079376 1_555
K6 O38 3.098754 1_555
K6 O35 3.179363 1_555
K6 O39 3.190778 1_455
K6 O21 3.257096 1_555
K7 O30 2.895206 1_555
K7 O47 2.904580 1_555
K7 O46 2.973398 1_555
K7 O3 2.982159 1_555
K7 O9 2.991350 1_555
K7 O42 3.000658 1_555
K7 O32 3.062872 1_555
K7 O36 3.078039 1_555
K7 O2 3.168462 1_555
K7 O35 3.268057 1_555
K7 O45 3.298065 1_555
K7 O8 3.334886 1_555
Nb0 O42 1.965726 1_555
Nb0 O2 1.977427 1_555
Nb0 O0 1.979923 1_554
Nb0 O8 1.992123 1_555
Nb0 O6 2.029142 1_555
Nb0 O11 2.044520 1_555
Nb1 O29 1.965726 1_555
Nb1 O21 1.977427 1_555
Nb1 O23 1.979923 1_556
Nb1 O15 1.992123 1_555
Nb1 O17 2.029142 1_455
Nb1 O12 2.044520 1_555
Fe0 O46 1.975698 1_555
Fe0 O9 2.017638 1_555
Fe0 O3 2.025990 1_555
Fe0 O10 2.030754 1_555
Fe0 O16 2.058231 1_545
Fe0 O4 2.058608 1_555
Fe1 O25 1.975698 1_555
Fe1 O14 2.017638 1_555
Fe1 O20 2.025990 1_655
Fe1 O13 2.030754 1_555
Fe1 O7 2.058231 1_565
Fe1 O19 2.058608 1_555
Fe2 O30 1.976607 1_555
Fe2 O35 1.998933 1_555
Fe2 O24 2.025477 1_555
Fe2 O18 2.039351 1_555
Fe2 O32 2.046997 1_555
Fe2 O26 2.061883 1_555
Fe3 O28 1.997892 1_555
Fe3 O40 2.016662 1_555
Fe3 O27 2.025399 1_555
Fe3 O34 2.038222 1_555
Fe3 O33 2.038276 1_556
Fe3 O22 2.064344 1_555
Fe4 O43 1.997892 1_555
Fe4 O31 2.016662 1_555
Fe4 O44 2.025399 1_455
Fe4 O37 2.038222 1_555
Fe4 O38 2.038276 1_554
Fe4 O1 2.064344 1_555
Fe5 O41 1.976607 1_655
Fe5 O36 1.998933 1_555
Fe5 O47 2.025477 1_555
Fe5 O5 2.039351 1_555
Fe5 O39 2.046997 1_555
Fe5 O45 2.061883 1_555
O0 P11 1.597844 1_555
O1 P1 1.519901 1_554
O2 P0 1.607281 1_555
O3 P11 1.529405 1_555
O4 P1 1.525877 1_555
O5 P2 1.527434 1_655
O6 P1 1.571136 1_554
O7 P0 1.537210 1_555
O8 P3 1.603719 1_545
O9 P3 1.531408 1_545
O10 P2 1.537177 1_555
O11 P4 1.574933 1_545
O12 P1 1.574933 1_565
O13 P3 1.537177 1_555
O14 P2 1.531408 1_665
O15 P2 1.603719 1_565
O16 P5 1.537210 1_555
O17 P4 1.571136 1_556
O18 P3 1.527434 1_555
O19 P4 1.525877 1_555
O20 P6 1.529405 1_555
O21 P5 1.607281 1_555
O22 P4 1.519901 1_556
O23 P6 1.597844 1_555
O24 P5 1.527863 1_555
O25 P7 1.546193 1_555
O26 P6 1.532420 1_555
O27 P5 1.530171 1_555
O28 P7 1.556070 1_555
O29 P8 1.601404 1_455
O30 P7 1.542421 1_555
O31 P6 1.535073 1_555
O32 P9 1.532134 1_555
O33 P9 1.527803 1_555
O34 P8 1.535754 1_555
O35 P10 1.548795 1_555
O36 P7 1.548795 1_555
O37 P9 1.535754 1_555
O38 P8 1.527803 1_455
O39 P8 1.532134 1_555
O40 P11 1.535073 1_555
O41 P10 1.542421 1_555
O42 P9 1.601404 1_555
O43 P10 1.556070 1_555
O44 P0 1.530171 1_555
O45 P11 1.532420 1_555
O46 P10 1.546193 1_555
O47 P0 1.527863 1_555
