# generated using pymatgen
data_CoO2
_symmetry_space_group_name_H-M   'P 1'
_cell_length_a   5.71091094
_cell_length_b   5.71091094
_cell_length_c   5.71091036
_cell_angle_alpha   59.41062866
_cell_angle_beta   59.41062866
_cell_angle_gamma   59.41061864
_symmetry_Int_Tables_number   1
_chemical_formula_structural   CoO2
_chemical_formula_sum   'Co4 O8'
_cell_volume   129.93833539
_cell_formula_units_Z   4
loop_
 _symmetry_equiv_pos_site_id
 _symmetry_equiv_pos_as_xyz
  1  'x, y, z'
loop_
 _atom_site_type_symbol
 _atom_site_label
 _atom_site_symmetry_multiplicity
 _atom_site_fract_x
 _atom_site_fract_y
 _atom_site_fract_z
 _atom_site_occupancy
  Co  Co0  1  0.50469100  0.98828000  0.50469100  1
  Co  Co1  1  0.98828000  0.50469100  0.50469100  1
  Co  Co2  1  0.50469100  0.50469100  0.98828000  1
  Co  Co3  1  0.12219100  0.12219100  0.12219100  1
  O  O0  1  0.73638200  0.73638200  0.73638200  1
  O  O1  1  0.74838900  0.74838900  0.30049500  1
  O  O2  1  0.30049500  0.74838900  0.74838900  1
  O  O3  1  0.74838900  0.30049500  0.74838900  1
  O  O4  1  0.24065800  0.73050300  0.24065800  1
  O  O5  1  0.73050300  0.24065800  0.24065800  1
  O  O6  1  0.24065800  0.24065800  0.73050300  1
  O  O7  1  0.25967400  0.25967400  0.25967400  1
loop_
_geom_bond_atom_site_label_1
_geom_bond_atom_site_label_2
_geom_bond_distance
_geom_bond_site_symmetry_2
Co0 O1 1.790913 1_555
Co0 O2 1.790913 1_555
Co0 O0 1.865029 1_555
Co0 O6 1.927386 1_565
Co0 O5 1.927386 1_565
Co0 O7 1.973914 1_565
Co1 O1 1.790913 1_555
Co1 O3 1.790913 1_555
Co1 O0 1.865029 1_555
Co1 O6 1.927386 1_655
Co1 O4 1.927386 1_655
Co1 O7 1.973914 1_655
Co2 O2 1.790913 1_555
Co2 O3 1.790913 1_555
Co2 O0 1.865029 1_555
Co2 O4 1.927386 1_556
Co2 O5 1.927386 1_556
Co2 O7 1.973914 1_556
Co3 O6 1.817823 1_554
Co3 O4 1.817823 1_545
Co3 O5 1.817823 1_455
Co3 O7 1.931747 1_555
