# generated using pymatgen
data_LiVF4
_symmetry_space_group_name_H-M   'P 1'
_cell_length_a   7.87771100
_cell_length_b   7.98148487
_cell_length_c   7.98276922
_cell_angle_alpha   97.00011571
_cell_angle_beta   97.95846584
_cell_angle_gamma   97.84519494
_symmetry_Int_Tables_number   1
_chemical_formula_structural   LiVF4
_chemical_formula_sum   'Li6 V6 F24'
_cell_volume   487.34128339
_cell_formula_units_Z   6
loop_
 _symmetry_equiv_pos_site_id
 _symmetry_equiv_pos_as_xyz
  1  'x, y, z'
loop_
 _atom_site_type_symbol
 _atom_site_label
 _atom_site_symmetry_multiplicity
 _atom_site_fract_x
 _atom_site_fract_y
 _atom_site_fract_z
 _atom_site_occupancy
  Li  Li0  1  0.49056200  0.23597900  0.57255600  1
  Li  Li1  1  0.76231500  0.44160600  0.52397700  1
  Li  Li2  1  0.40267000  0.51848400  0.73450300  1
  Li  Li3  1  0.56462700  0.47843700  0.23641000  1
  Li  Li4  1  0.50108900  0.74930200  0.43503200  1
  Li  Li5  1  0.10422500  0.82865200  0.26987600  1
  V  V0  1  0.45154500  0.08292400  0.17341000  1
  V  V1  1  0.08147400  0.18332400  0.44672400  1
  V  V2  1  0.82190000  0.55115800  0.91308700  1
  V  V3  1  0.17605500  0.44358200  0.08512100  1
  V  V4  1  0.91871900  0.83050200  0.56201600  1
  V  V5  1  0.55919800  0.91838600  0.83062400  1
  F  F0  1  0.45878800  0.07607200  0.70897700  1
  F  F1  1  0.08531300  0.03771200  0.64622700  1
  F  F2  1  0.24722500  0.05149600  0.31701300  1
  F  F3  1  0.65088000  0.08825700  0.03411700  1
  F  F4  1  0.96507400  0.36402400  0.90962000  1
  F  F5  1  0.91168100  0.29268000  0.53807600  1
  F  F6  1  0.56483500  0.27921100  0.35731000  1
  F  F7  1  0.33699200  0.26024100  0.07102600  1
  F  F8  1  0.63545600  0.43587900  0.71572000  1
  F  F9  1  0.28609700  0.33514900  0.56412600  1
  F  F10  1  0.06309500  0.32221500  0.25251200  1
  F  F11  1  0.70848800  0.46442700  0.08341300  1
  F  F12  1  0.29541900  0.53878600  0.92207400  1
  F  F13  1  0.93282600  0.67126700  0.74487500  1
  F  F14  1  0.71977300  0.64794300  0.43896300  1
  F  F15  1  0.36066100  0.56619000  0.26817700  1
  F  F16  1  0.68214300  0.74297800  0.93713400  1
  F  F17  1  0.44541800  0.72953400  0.65500300  1
  F  F18  1  0.08182400  0.71790100  0.45974700  1
  F  F19  1  0.03672400  0.64775200  0.09544900  1
  F  F20  1  0.35729700  0.91185600  0.97618000  1
  F  F21  1  0.74434800  0.93791900  0.67236200  1
  F  F22  1  0.92544400  0.96355300  0.35009200  1
  F  F23  1  0.54035900  0.92396900  0.30458900  1
loop_
_geom_bond_atom_site_label_1
_geom_bond_atom_site_label_2
_geom_bond_distance
_geom_bond_site_symmetry_2
F0 Li0 1.790137 1_555
F0 V5 1.873403 1_545
F1 V4 1.949777 1_445
F1 V1 2.082152 1_555
F2 Li5 1.935624 1_545
F2 V1 2.090001 1_555
F2 V0 2.106792 1_555
F3 V5 1.967143 1_544
F3 V0 2.044721 1_555
F4 V2 1.990529 1_555
F4 V3 1.994651 1_656
F5 Li1 1.785455 1_555
F5 V1 1.875209 1_655
F6 Li0 1.944637 1_555
F6 Li3 1.958128 1_555
F6 V0 2.025082 1_555
F6 Li1 2.079994 1_555
F7 V0 1.977787 1_555
F7 V3 2.065720 1_555
F7 Li3 2.433737 1_555
F8 Li1 1.942119 1_555
F8 Li0 1.962587 1_555
F8 V2 2.030534 1_555
F8 Li2 2.049922 1_555
F9 Li0 1.885858 1_555
F9 Li2 1.906975 1_555
F9 V1 1.927895 1_555
F10 V3 1.981216 1_555
F10 V1 2.013457 1_555
F11 Li3 1.781326 1_555
F11 V2 1.876988 1_554
F12 Li2 1.819524 1_555
F12 V3 1.881644 1_556
F13 V2 1.973756 1_555
F13 V4 2.050423 1_555
F13 Li1 2.481508 1_555
F14 Li1 1.909237 1_555
F14 Li4 1.998734 1_555
F14 V4 2.036096 1_555
F14 Li3 2.099229 1_555
F15 Li3 1.874404 1_555
F15 Li4 1.951931 1_555
F15 V3 1.970381 1_555
F16 V2 2.009976 1_555
F16 V5 2.013276 1_555
F17 Li2 1.875783 1_555
F17 Li4 1.887479 1_555
F17 V5 1.951663 1_555
F18 Li5 1.862232 1_555
F18 V4 1.884682 1_455
F19 Li5 1.844348 1_555
F19 V2 2.065337 1_454
F19 V3 2.085108 1_555
F20 V0 1.941636 1_566
F20 V5 2.094386 1_555
F21 V4 1.967322 1_555
F21 V5 2.060095 1_555
F22 V1 2.000446 1_665
F22 Li5 2.012101 1_655
F22 V4 2.107100 1_555
F23 Li4 1.857100 1_555
F23 V0 1.886514 1_565
