# generated using pymatgen
data_Li2Cu2Si8O19
_symmetry_space_group_name_H-M   'P 1'
_cell_length_a   4.92570800
_cell_length_b   7.18828555
_cell_length_c   12.33772023
_cell_angle_alpha   73.70058847
_cell_angle_beta   78.57431242
_cell_angle_gamma   70.19949084
_symmetry_Int_Tables_number   1
_chemical_formula_structural   Li2Cu2Si8O19
_chemical_formula_sum   'Li2 Cu2 Si8 O19'
_cell_volume   391.92391788
_cell_formula_units_Z   1
loop_
 _symmetry_equiv_pos_site_id
 _symmetry_equiv_pos_as_xyz
  1  'x, y, z'
loop_
 _atom_site_type_symbol
 _atom_site_label
 _atom_site_symmetry_multiplicity
 _atom_site_fract_x
 _atom_site_fract_y
 _atom_site_fract_z
 _atom_site_occupancy
  Li  Li0  1  0.45722200  0.42402300  0.36894500  1
  Li  Li1  1  0.23958700  0.57641700  0.63512400  1
  Cu  Cu0  1  0.72812600  0.00477600  0.59531400  1
  Cu  Cu1  1  0.33716000  0.99211800  0.40265600  1
  Si  Si0  1  0.77007800  0.68698400  0.06970900  1
  Si  Si1  1  0.14587800  0.14771100  0.83211200  1
  Si  Si2  1  0.06889600  0.28120200  0.57879700  1
  Si  Si3  1  0.22053200  0.27098300  0.17101700  1
  Si  Si4  1  0.66308300  0.72889900  0.82784200  1
  Si  Si5  1  0.93266700  0.71638900  0.42158000  1
  Si  Si6  1  0.12791500  0.84964300  0.16794500  1
  Si  Si7  1  0.52944200  0.31045300  0.92971900  1
  O  O0  1  0.85585700  0.85845200  0.10829500  1
  O  O1  1  0.42020500  0.73658900  0.09683600  1
  O  O2  1  0.12201700  0.29703400  0.70439100  1
  O  O3  1  0.74803800  0.27788700  0.57152400  1
  O  O4  1  0.92719600  0.46626600  0.14725500  1
  O  O5  1  0.33571500  0.09243300  0.54221600  1
  O  O6  1  0.32694500  0.24589600  0.29191500  1
  O  O7  1  0.36803900  0.92492500  0.82594600  1
  O  O8  1  0.47426900  0.30492900  0.06487300  1
  O  O9  1  0.84358900  0.69836300  0.93385800  1
  O  O10  1  0.12129000  0.07364900  0.17201600  1
  O  O11  1  0.86632900  0.75429000  0.70757800  1
  O  O12  1  0.97276100  0.90701800  0.45755800  1
  O  O13  1  0.54611900  0.53091900  0.85143600  1
  O  O14  1  0.60184300  0.71880900  0.42791600  1
  O  O15  1  0.12683000  0.70123400  0.29604000  1
  O  O16  1  0.12712500  0.49923200  0.50077000  1
  O  O17  1  0.25433800  0.26106600  0.90355200  1
  O  O18  1  0.82401700  0.13834300  0.89244700  1
loop_
_geom_bond_atom_site_label_1
_geom_bond_atom_site_label_2
_geom_bond_distance
_geom_bond_site_symmetry_2
Li0 O16 2.105124 1_555
Li0 O6 2.106143 1_555
Li0 O15 2.192058 1_555
Li1 O11 2.052311 1_455
Li1 O16 2.109663 1_555
Li1 O2 2.174262 1_555
Cu0 O3 1.935336 1_555
Cu0 O11 1.940920 1_545
Cu0 O5 2.001787 1_555
Cu0 O12 2.029718 1_545
Cu1 O14 1.933552 1_555
Cu1 O6 1.939874 1_565
Cu1 O12 2.020984 1_455
Cu1 O5 2.042891 1_565
O0 Si6 1.627428 1_655
O0 Si0 1.638980 1_555
O1 Si6 1.615561 1_555
O1 Si0 1.622132 1_555
O2 Si1 1.639374 1_555
O2 Si2 1.662017 1_555
O3 Si2 1.609147 1_655
O4 Si0 1.625109 1_555
O4 Si3 1.645252 1_655
O5 Si2 1.634865 1_555
O6 Si3 1.620767 1_555
O7 Si1 1.617418 1_565
O7 Si4 1.644914 1_555
O8 Si7 1.626827 1_554
O8 Si3 1.647845 1_555
O9 Si0 1.627804 1_556
O9 Si4 1.648317 1_555
O10 Si6 1.614169 1_545
O10 Si3 1.645848 1_555
O11 Si4 1.618777 1_555
O12 Si5 1.635007 1_555
O13 Si7 1.627479 1_555
O13 Si4 1.642707 1_555
O14 Si5 1.610252 1_555
O15 Si6 1.640098 1_555
O15 Si5 1.662168 1_455
O16 Si5 1.676438 1_455
O16 Si2 1.677373 1_555
O17 Si1 1.615814 1_555
O17 Si7 1.621752 1_555
O18 Si1 1.627499 1_655
O18 Si7 1.638975 1_555
