# generated using pymatgen
data_Sb11S18
_symmetry_space_group_name_H-M   'P 1'
_cell_length_a   6.86175400
_cell_length_b   7.73274479
_cell_length_c   15.42589276
_cell_angle_alpha   75.77083803
_cell_angle_beta   81.20405580
_cell_angle_gamma   73.48922088
_symmetry_Int_Tables_number   1
_chemical_formula_structural   Sb11S18
_chemical_formula_sum   'Sb11 S18'
_cell_volume   757.63098587
_cell_formula_units_Z   1
loop_
 _symmetry_equiv_pos_site_id
 _symmetry_equiv_pos_as_xyz
  1  'x, y, z'
loop_
 _atom_site_type_symbol
 _atom_site_label
 _atom_site_symmetry_multiplicity
 _atom_site_fract_x
 _atom_site_fract_y
 _atom_site_fract_z
 _atom_site_occupancy
  Sb  Sb0  1  0.28475700  0.21554300  0.92230200  1
  Sb  Sb1  1  0.14699700  0.86679900  0.19659900  1
  Sb  Sb2  1  0.52515700  0.57636400  0.60999300  1
  Sb  Sb3  1  0.48337700  0.93358300  0.38622100  1
  Sb  Sb4  1  0.28262700  0.71768100  0.92075300  1
  Sb  Sb5  1  0.71493200  0.29124700  0.06777600  1
  Sb  Sb6  1  0.15242100  0.36622100  0.19315700  1
  Sb  Sb7  1  0.52293200  0.05606800  0.60894400  1
  Sb  Sb8  1  0.49380800  0.42683000  0.39306300  1
  Sb  Sb9  1  0.88818200  0.12535100  0.80126800  1
  Sb  Sb10  1  0.72161700  0.78625000  0.06449300  1
  S  S0  1  0.98486200  0.99746400  0.00262700  1
  S  S1  1  0.14025500  0.31780500  0.77413500  1
  S  S2  1  0.53371700  0.42206900  0.87653900  1
  S  S3  1  0.19806400  0.77392100  0.35859200  1
  S  S4  1  0.71778900  0.58693000  0.46046300  1
  S  S5  1  0.97775600  0.50833100  0.00515200  1
  S  S6  1  0.14167700  0.83267100  0.77276200  1
  S  S7  1  0.28606400  0.91095200  0.53825100  1
  S  S8  1  0.75473200  0.73631600  0.65649100  1
  S  S9  1  0.44216700  0.08287600  0.12797700  1
  S  S10  1  0.54853200  0.91815500  0.88774800  1
  S  S11  1  0.20028700  0.26649700  0.35646700  1
  S  S12  1  0.71776300  0.09147700  0.45962600  1
  S  S13  1  0.86683500  0.17612300  0.22175400  1
  S  S14  1  0.27988000  0.41073800  0.53704700  1
  S  S15  1  0.79936100  0.22798100  0.64197300  1
  S  S16  1  0.44532900  0.57516900  0.12636400  1
  S  S17  1  0.87116500  0.67628800  0.22337600  1
loop_
_geom_bond_atom_site_label_1
_geom_bond_atom_site_label_2
_geom_bond_distance
_geom_bond_site_symmetry_2
S0 Sb10 2.687848 1_555
S0 Sb5 2.786198 1_565
S0 Sb4 2.914100 1_654
S0 Sb0 2.962949 1_664
S0 Sb9 3.132637 1_564
S0 Sb1 3.178794 1_655
S1 Sb0 2.488250 1_555
S1 Sb9 2.513388 1_455
S2 Sb0 2.568019 1_555
S2 Sb4 2.612935 1_555
S3 Sb1 2.474976 1_555
S3 Sb3 2.725150 1_555
S3 Sb8 2.852572 1_555
S4 Sb2 2.471975 1_555
S4 Sb8 2.679306 1_555
S4 Sb3 2.772686 1_555
S5 Sb10 2.621767 1_555
S5 Sb5 2.719224 1_555
S5 Sb4 2.957663 1_654
S5 Sb0 3.014158 1_654
S5 Sb6 3.130903 1_655
S6 Sb4 2.475115 1_555
S6 Sb9 2.521676 1_465
S7 Sb3 2.515055 1_555
S7 Sb7 2.696369 1_565
S7 Sb2 2.710234 1_555
S8 Sb7 2.532054 1_565
S8 Sb2 2.532788 1_555
S9 Sb5 2.721882 1_555
S9 Sb6 2.785682 1_555
S9 Sb10 2.815516 1_545
S9 Sb1 2.900491 1_545
S10 Sb0 2.605783 1_565
S10 Sb4 2.631926 1_555
S10 Sb10 2.969697 1_556
S10 Sb9 3.146292 1_565
S11 Sb6 2.490581 1_555
S11 Sb3 2.731420 1_545
S11 Sb8 2.832564 1_555
S12 Sb7 2.474665 1_555
S12 Sb8 2.655004 1_555
S12 Sb3 2.777100 1_545
S13 Sb5 2.590560 1_555
S13 Sb1 2.679934 1_645
S13 Sb6 2.692527 1_655
S14 Sb8 2.464611 1_555
S14 Sb7 2.829092 1_555
S14 Sb2 2.872623 1_555
S15 Sb9 2.502770 1_555
S15 Sb7 2.772423 1_555
S15 Sb2 2.791129 1_555
S16 Sb5 2.686054 1_555
S16 Sb10 2.758419 1_555
S16 Sb6 2.847077 1_555
S16 Sb1 2.889422 1_555
S17 Sb1 2.640023 1_655
S17 Sb10 2.651738 1_555
S17 Sb6 2.708298 1_655
