# generated using pymatgen
data_LiVFeP2(HO5)2
_symmetry_space_group_name_H-M   'P 1'
_cell_length_a   14.50610089
_cell_length_b   7.36368620
_cell_length_c   5.21020813
_cell_angle_alpha   74.54616139
_cell_angle_beta   85.85410965
_cell_angle_gamma   91.92338725
_symmetry_Int_Tables_number   1
_chemical_formula_structural   LiVFeP2(HO5)2
_chemical_formula_sum   'Li3 V3 Fe3 P6 H6 O30'
_cell_volume   534.21213845
_cell_formula_units_Z   3
loop_
 _symmetry_equiv_pos_site_id
 _symmetry_equiv_pos_as_xyz
  1  'x, y, z'
loop_
 _atom_site_type_symbol
 _atom_site_label
 _atom_site_symmetry_multiplicity
 _atom_site_fract_x
 _atom_site_fract_y
 _atom_site_fract_z
 _atom_site_occupancy
  Li  Li0  1  0.18741600  0.03670800  0.74131400  1
  Li  Li1  1  0.47850100  0.63046500  0.59243600  1
  Li  Li2  1  0.81287800  0.96448300  0.25937500  1
  V  V0  1  0.16646000  0.66000300  0.33807100  1
  V  V1  1  0.49919300  0.00606800  0.99647400  1
  V  V2  1  0.83368300  0.33841800  0.66257300  1
  Fe  Fe0  1  0.99982700  0.99948000  0.00083300  1
  Fe  Fe1  1  0.33325900  0.33316300  0.66694100  1
  Fe  Fe2  1  0.66641400  0.66249200  0.33406600  1
  P  P0  1  0.04272300  0.26602400  0.40651200  1
  P  P1  1  0.29175000  0.06655500  0.25631600  1
  P  P2  1  0.37448600  0.59994700  0.07776900  1
  P  P3  1  0.62390700  0.39898900  0.92650100  1
  P  P4  1  0.70849600  0.93851800  0.74278900  1
  P  P5  1  0.95735700  0.73278500  0.59469300  1
  H  H0  1  0.09614500  0.74466800  0.90266100  1
  H  H1  1  0.23141300  0.56430800  0.78293000  1
  H  H2  1  0.43532000  0.10239700  0.55117500  1
  H  H3  1  0.56961000  0.92036500  0.43195900  1
  H  H4  1  0.77028900  0.42709500  0.21872000  1
  H  H5  1  0.90383500  0.25515700  0.09911400  1
  O  O0  1  0.05816000  0.13095900  0.23276400  1
  O  O1  1  0.07326100  0.18152800  0.68815900  1
  O  O2  1  0.06220100  0.68608400  0.58709500  1
  O  O3  1  0.10155600  0.45324500  0.27099000  1
  O  O4  1  0.26537100  0.14454200  0.96693500  1
  O  O5  1  0.11052200  0.82574800  0.02053300  1
  O  O6  1  0.23089500  0.50696000  0.63180800  1
  O  O7  1  0.27486200  0.20423900  0.42954800  1
  O  O8  1  0.39567300  0.01530300  0.25808200  1
  O  O9  1  0.22840100  0.88828100  0.40051800  1
  O  O10  1  0.27081000  0.65125300  0.07612600  1
  O  O11  1  0.39183200  0.46293700  0.90362200  1
  O  O12  1  0.43542800  0.15949500  0.70252600  1
  O  O13  1  0.40128600  0.52182000  0.36670300  1
  O  O14  1  0.43818300  0.77843600  0.93366100  1
  O  O15  1  0.56463200  0.21299100  0.06363400  1
  O  O16  1  0.59260800  0.48475000  0.64587900  1
  O  O17  1  0.55555500  0.83933600  0.31367800  1
  O  O18  1  0.60962300  0.53647500  0.09717300  1
  O  O19  1  0.72801200  0.35004500  0.91719800  1
  O  O20  1  0.77147000  0.11581000  0.59371500  1
  O  O21  1  0.60371600  0.98423100  0.74034700  1
  O  O22  1  0.72553200  0.79910900  0.57193700  1
  O  O23  1  0.77257100  0.48786700  0.36606000  1
  O  O24  1  0.88947200  0.17344400  0.98211300  1
  O  O25  1  0.73464400  0.86406300  0.03105400  1
  O  O26  1  0.89843900  0.54642900  0.73003700  1
  O  O27  1  0.93821200  0.31245400  0.41440200  1
  O  O28  1  0.92687900  0.81757600  0.31278200  1
  O  O29  1  0.94203700  0.86876300  0.76720800  1
loop_
_geom_bond_atom_site_label_1
_geom_bond_atom_site_label_2
_geom_bond_distance
_geom_bond_site_symmetry_2
Li0 O4 1.980037 1_555
Li0 O1 1.995880 1_555
Li0 O5 2.053891 1_546
Li0 O7 2.073316 1_555
Li0 O9 2.371939 1_545
Li1 O13 1.977286 1_555
Li1 O16 1.998836 1_555
Li1 O17 2.045439 1_555
Li1 O11 2.065538 1_555
Li1 O14 2.369572 1_555
Li2 O25 1.964065 1_555
Li2 O28 2.002156 1_555
Li2 O24 2.039014 1_564
Li2 O22 2.069209 1_555
Li2 O20 2.359053 1_565
Fe0 O29 1.956713 1_554
Fe0 O0 1.957034 1_665
Fe0 O28 2.012857 1_555
Fe0 O1 2.018696 1_664
Fe0 O24 2.075280 1_564
Fe0 O5 2.077824 1_655
Fe1 O4 1.967411 1_555
Fe1 O7 1.967741 1_555
Fe1 O13 1.969109 1_555
Fe1 O11 1.969979 1_555
Fe1 O12 1.976598 1_555
Fe1 O6 1.979474 1_555
Fe2 O18 1.941455 1_555
Fe2 O16 2.004977 1_555
Fe2 O22 2.010895 1_555
Fe2 O25 2.025304 1_555
Fe2 O23 2.026933 1_555
Fe2 O17 2.093970 1_555
H0 O5 0.991309 1_556
H1 O6 0.988024 1_555
H2 O12 0.987650 1_555
H3 O17 0.991633 1_555
H4 O23 0.988148 1_555
H5 O24 0.991212 1_554
O0 P0 1.524561 1_555
O1 P0 1.537096 1_555
O2 P5 1.570527 1_455
O2 V0 1.968805 1_555
O3 P0 1.562908 1_555
O3 V0 1.887202 1_555
O4 P1 1.544740 1_556
O5 V0 2.017352 1_555
O6 V0 1.960694 1_555
O7 P1 1.541085 1_555
O8 P1 1.566357 1_555
O8 V1 1.969212 1_554
O9 P1 1.557511 1_565
O9 V0 1.992789 1_555
O10 P2 1.562979 1_555
O10 V0 1.978084 1_555
O11 P2 1.541537 1_556
O12 V1 1.957156 1_555
O13 P2 1.544813 1_555
O14 P2 1.561169 1_556
O14 V1 1.983605 1_565
O15 P3 1.560875 1_554
O15 V1 1.892177 1_554
O16 P3 1.538132 1_555
O17 V1 2.022045 1_564
O18 P3 1.525074 1_554
O19 P3 1.564634 1_555
O19 V2 1.972899 1_555
O20 P4 1.555352 1_545
O20 V2 1.972589 1_555
O21 P4 1.567985 1_555
O21 V1 1.985892 1_565
O22 P4 1.542574 1_555
O23 V2 1.934200 1_555
O24 V2 2.021255 1_555
O25 P4 1.535489 1_554
O26 P5 1.558612 1_555
O26 V2 1.894788 1_555
O27 P0 1.565329 1_655
O27 V2 1.968595 1_555
O28 P5 1.538316 1_555
O29 P5 1.524988 1_555
