# generated using pymatgen
data_Li4Mn3(OF3)3
_symmetry_space_group_name_H-M   'P 1'
_cell_length_a   5.66571000
_cell_length_b   5.85769667
_cell_length_c   6.27007352
_cell_angle_alpha   98.45195464
_cell_angle_beta   99.49098872
_cell_angle_gamma   96.97759435
_symmetry_Int_Tables_number   1
_chemical_formula_structural   Li4Mn3(OF3)3
_chemical_formula_sum   'Li4 Mn3 O3 F9'
_cell_volume   200.73649411
_cell_formula_units_Z   1
loop_
 _symmetry_equiv_pos_site_id
 _symmetry_equiv_pos_as_xyz
  1  'x, y, z'
loop_
 _atom_site_type_symbol
 _atom_site_label
 _atom_site_symmetry_multiplicity
 _atom_site_fract_x
 _atom_site_fract_y
 _atom_site_fract_z
 _atom_site_occupancy
  Li  Li0  1  0.88464300  0.68022500  0.43906600  1
  Li  Li1  1  0.68298100  0.39154000  0.85995000  1
  Li  Li2  1  0.39755300  0.85698700  0.67684200  1
  Li  Li3  1  0.13791700  0.34031300  0.59981100  1
  Mn  Mn0  1  0.59261300  0.15025700  0.32927700  1
  Mn  Mn1  1  0.35201900  0.61894200  0.14839400  1
  Mn  Mn2  1  0.99655700  0.00062600  0.00611100  1
  O  O0  1  0.89561900  0.09889100  0.26051500  1
  O  O1  1  0.56704700  0.40138100  0.19002800  1
  O  O2  1  0.32225200  0.95053600  0.12472800  1
  F  F0  1  0.90413100  0.69022500  0.02948300  1
  F  F1  1  0.80812300  0.38167400  0.57706200  1
  F  F2  1  0.61284800  0.84238100  0.43309300  1
  F  F3  1  0.38184200  0.17830700  0.53667300  1
  F  F4  1  0.69096300  0.04119600  0.86049800  1
  F  F5  1  0.19662800  0.59168900  0.39960200  1
  F  F6  1  0.41068400  0.58842800  0.84600700  1
  F  F7  1  0.06819200  0.89346800  0.71898600  1
  F  F8  1  0.09739100  0.30293300  0.96387500  1
loop_
_geom_bond_atom_site_label_1
_geom_bond_atom_site_label_2
_geom_bond_distance
_geom_bond_site_symmetry_2
Li0 O1 2.439998 1_555
Li1 O1 2.267271 1_556
Li3 O0 2.468020 1_455
Mn0 O1 1.826132 1_555
Mn0 O0 1.885494 1_555
Mn0 O2 1.958467 1_545
Mn1 O1 1.883246 1_555
Mn1 O2 1.994832 1_555
Mn2 O0 1.820367 1_555
Mn2 O2 1.946134 1_645
F0 Mn2 1.863860 1_565
F0 Li1 2.059715 1_554
F0 Mn1 2.625772 1_655
F1 Li3 1.898066 1_655
F1 Li1 2.011647 1_555
F1 Mn0 2.023703 1_555
F1 Li0 2.092675 1_555
F2 Li0 1.903099 1_555
F2 Mn0 2.014939 1_565
F2 Li2 2.105403 1_555
F2 Mn1 2.248716 1_555
F3 Li3 1.831904 1_555
F3 Mn0 1.908146 1_555
F3 Li2 2.196400 1_545
F3 Li1 2.485400 1_555
F4 Mn2 1.878898 1_556
F4 Li2 1.954859 1_545
F4 Li1 2.058686 1_555
F5 Mn1 1.943860 1_555
F5 Li0 1.945226 1_455
F5 Li3 2.101612 1_555
F5 Li2 2.203668 1_555
F6 Mn1 1.964647 1_556
F6 Li2 2.024411 1_555
F6 Li1 2.033549 1_555
F6 Li3 2.211692 1_555
F7 Mn2 1.941769 1_466
F7 Li2 1.959742 1_555
F7 Li0 2.039656 1_455
F8 Mn2 1.863941 1_456
F8 Mn1 2.239972 1_556
F8 Li3 2.370439 1_555
F8 Li1 2.469355 1_455
