# generated using pymatgen
data_Sc2Si2O7
_symmetry_space_group_name_H-M   'P 1'
_cell_length_a   6.62745730
_cell_length_b   6.62745730
_cell_length_c   6.62745730
_cell_angle_alpha   60.00000000
_cell_angle_beta   60.00000000
_cell_angle_gamma   60.00000000
_symmetry_Int_Tables_number   1
_chemical_formula_structural   Sc2Si2O7
_chemical_formula_sum   'Sc4 Si4 O14'
_cell_volume   205.83812510
_cell_formula_units_Z   2
loop_
 _symmetry_equiv_pos_site_id
 _symmetry_equiv_pos_as_xyz
  1  'x, y, z'
loop_
 _atom_site_type_symbol
 _atom_site_label
 _atom_site_symmetry_multiplicity
 _atom_site_fract_x
 _atom_site_fract_y
 _atom_site_fract_z
 _atom_site_occupancy
  Sc  Sc0  1  0.62500000  0.62500000  0.12500000  1
  Sc  Sc1  1  0.62500000  0.12500000  0.62500000  1
  Sc  Sc2  1  0.12500000  0.62500000  0.62500000  1
  Sc  Sc3  1  0.62500000  0.62500000  0.62500000  1
  Si  Si0  1  0.12500000  0.12500000  0.62500000  1
  Si  Si1  1  0.12500000  0.62500000  0.12500000  1
  Si  Si2  1  0.62500000  0.12500000  0.12500000  1
  Si  Si3  1  0.12500000  0.12500000  0.12500000  1
  O  O0  1  0.44931500  0.05068500  0.44931500  1
  O  O1  1  0.19931500  0.80068500  0.19931500  1
  O  O2  1  0.44931500  0.44931500  0.05068500  1
  O  O3  1  0.05068500  0.44931500  0.44931500  1
  O  O4  1  0.44931500  0.05068500  0.05068500  1
  O  O5  1  0.05068500  0.05068500  0.44931500  1
  O  O6  1  0.80068500  0.80068500  0.19931500  1
  O  O7  1  0.19931500  0.19931500  0.80068500  1
  O  O8  1  0.75000000  0.75000000  0.75000000  1
  O  O9  1  0.50000000  0.50000000  0.50000000  1
  O  O10  1  0.05068500  0.44931500  0.05068500  1
  O  O11  1  0.80068500  0.19931500  0.19931500  1
  O  O12  1  0.19931500  0.80068500  0.80068500  1
  O  O13  1  0.80068500  0.19931500  0.80068500  1
loop_
_geom_bond_atom_site_label_1
_geom_bond_atom_site_label_2
_geom_bond_distance
_geom_bond_site_symmetry_2
O0 Si0 1.797318 1_555
O0 Si2 1.797318 1_555
O0 Sc1 2.335936 1_555
O0 Sc3 2.335936 1_545
O1 Si1 1.797318 1_555
O1 Si3 1.797318 1_565
O1 Sc2 2.335936 1_555
O1 Sc0 2.335936 1_555
O2 Si2 1.797318 1_555
O2 Si1 1.797318 1_555
O2 Sc3 2.335936 1_554
O2 Sc0 2.335936 1_555
O3 Si0 1.797318 1_555
O3 Si1 1.797318 1_555
O3 Sc3 2.335936 1_455
O3 Sc2 2.335936 1_555
O4 Si2 1.797318 1_555
O4 Si3 1.797318 1_555
O4 Sc0 2.335936 1_545
O4 Sc1 2.335936 1_554
O5 Si0 1.797318 1_555
O5 Si3 1.797318 1_555
O5 Sc1 2.335936 1_455
O5 Sc2 2.335936 1_545
O6 Si1 1.797318 1_655
O6 Si2 1.797318 1_565
O6 Sc0 2.335936 1_555
O6 Sc3 2.335936 1_555
O7 Si0 1.797318 1_555
O7 Si3 1.797318 1_556
O7 Sc1 2.335936 1_555
O7 Sc2 2.335936 1_555
O8 Sc2 2.029236 1_655
O8 Sc3 2.029236 1_555
O8 Sc0 2.029236 1_556
O8 Sc1 2.029236 1_565
O9 Sc0 2.029236 1_555
O9 Sc3 2.029236 1_555
O9 Sc1 2.029236 1_555
O9 Sc2 2.029236 1_555
O10 Si1 1.797318 1_555
O10 Si3 1.797318 1_555
O10 Sc2 2.335936 1_554
O10 Sc0 2.335936 1_455
O11 Si2 1.797318 1_555
O11 Si3 1.797318 1_655
O11 Sc1 2.335936 1_555
O11 Sc0 2.335936 1_555
O12 Si1 1.797318 1_556
O12 Si0 1.797318 1_565
O12 Sc2 2.335936 1_555
O12 Sc3 2.335936 1_555
O13 Si2 1.797318 1_556
O13 Si0 1.797318 1_655
O13 Sc1 2.335936 1_555
O13 Sc3 2.335936 1_555
