# generated using pymatgen
data_Mn3(OF2)2
_symmetry_space_group_name_H-M   'P 1'
_cell_length_a   4.79540325
_cell_length_b   4.68357000
_cell_length_c   9.72797666
_cell_angle_alpha   89.99985579
_cell_angle_beta   88.71312590
_cell_angle_gamma   89.99997499
_symmetry_Int_Tables_number   1
_chemical_formula_structural   Mn3(OF2)2
_chemical_formula_sum   'Mn6 O4 F8'
_cell_volume   218.43142417
_cell_formula_units_Z   2
loop_
 _symmetry_equiv_pos_site_id
 _symmetry_equiv_pos_as_xyz
  1  'x, y, z'
loop_
 _atom_site_type_symbol
 _atom_site_label
 _atom_site_symmetry_multiplicity
 _atom_site_fract_x
 _atom_site_fract_y
 _atom_site_fract_z
 _atom_site_occupancy
  Mn  Mn0  1  0.96529000  0.97724600  0.00816500  1
  Mn  Mn1  1  0.99997800  0.99995700  0.33332700  1
  Mn  Mn2  1  0.03477500  0.02279200  0.65848500  1
  Mn  Mn3  1  0.49998700  0.49999100  0.83332700  1
  Mn  Mn4  1  0.53471300  0.47715300  0.15850900  1
  Mn  Mn5  1  0.46530000  0.52279100  0.50816500  1
  O  O0  1  0.19340800  0.82854100  0.49998900  1
  O  O1  1  0.30658700  0.32854800  0.66668000  1
  O  O2  1  0.69340700  0.67146300  0.99999100  1
  O  O3  1  0.80658500  0.17146600  0.16667800  1
  F  F0  1  0.21797000  0.77139700  0.17023000  1
  F  F1  1  0.18518400  0.80581300  0.84555700  1
  F  F2  1  0.28202300  0.27140400  0.99643800  1
  F  F3  1  0.31480500  0.30580600  0.32111500  1
  F  F4  1  0.68518100  0.69419700  0.34555800  1
  F  F5  1  0.71797500  0.72861800  0.67022900  1
  F  F6  1  0.78202100  0.22861000  0.49643900  1
  F  F7  1  0.81481000  0.19420600  0.82111300  1
loop_
_geom_bond_atom_site_label_1
_geom_bond_atom_site_label_2
_geom_bond_distance
_geom_bond_site_symmetry_2
Mn0 O3 1.931773 1_565
Mn0 O2 1.939566 1_554
Mn1 O3 2.049632 1_565
Mn1 O0 2.049646 1_655
Mn2 O0 1.931581 1_545
Mn2 O1 1.939255 1_555
Mn3 O1 2.049514 1_555
Mn3 O2 2.049745 1_555
Mn4 O2 1.931986 1_554
Mn4 O3 1.939195 1_555
Mn5 O1 1.931850 1_555
Mn5 O0 1.939481 1_555
F0 Mn4 2.052195 1_555
F0 Mn1 2.163682 1_455
F0 Mn0 2.229143 1_455
F1 Mn0 2.045466 1_456
F1 Mn3 2.082449 1_555
F1 Mn2 2.218942 1_565
F2 Mn0 2.051892 1_446
F2 Mn3 2.163777 1_555
F2 Mn4 2.229014 1_556
F3 Mn4 2.045323 1_555
F3 Mn1 2.082613 1_445
F3 Mn5 2.218924 1_555
F4 Mn5 2.045375 1_555
F4 Mn1 2.082230 1_555
F4 Mn4 2.218998 1_555
F5 Mn2 2.052186 1_665
F5 Mn3 2.163832 1_555
F5 Mn5 2.229082 1_555
F6 Mn5 2.051921 1_555
F6 Mn1 2.163924 1_545
F6 Mn2 2.229146 1_655
F7 Mn2 2.045749 1_655
F7 Mn3 2.082393 1_555
F7 Mn0 2.218858 1_546
