# generated using pymatgen
data_Mn3NiO8
_symmetry_space_group_name_H-M   'P 1'
_cell_length_a   5.72022769
_cell_length_b   5.72022769
_cell_length_c   5.72022746
_cell_angle_alpha   60.78785639
_cell_angle_beta   60.78785639
_cell_angle_gamma   60.78786829
_symmetry_Int_Tables_number   1
_chemical_formula_structural   Mn3NiO8
_chemical_formula_sum   'Mn3 Ni1 O8'
_cell_volume   134.70239917
_cell_formula_units_Z   1
loop_
 _symmetry_equiv_pos_site_id
 _symmetry_equiv_pos_as_xyz
  1  'x, y, z'
loop_
 _atom_site_type_symbol
 _atom_site_label
 _atom_site_symmetry_multiplicity
 _atom_site_fract_x
 _atom_site_fract_y
 _atom_site_fract_z
 _atom_site_occupancy
  Mn  Mn0  1  0.00000000  0.50000000  0.00000000  1
  Mn  Mn1  1  0.00000000  0.00000000  0.50000000  1
  Mn  Mn2  1  0.50000000  0.00000000  0.00000000  1
  Ni  Ni0  1  0.00000000  0.00000000  0.00000000  1
  O  O0  1  0.76670400  0.76670400  0.20623200  1
  O  O1  1  0.20623200  0.76670400  0.76670400  1
  O  O2  1  0.76670400  0.20623200  0.76670400  1
  O  O3  1  0.76266100  0.76266100  0.76266100  1
  O  O4  1  0.23733900  0.23733900  0.23733900  1
  O  O5  1  0.23329600  0.79376800  0.23329600  1
  O  O6  1  0.79376800  0.23329600  0.23329600  1
  O  O7  1  0.23329600  0.23329600  0.79376800  1
loop_
_geom_bond_atom_site_label_1
_geom_bond_atom_site_label_2
_geom_bond_distance
_geom_bond_site_symmetry_2
Mn0 O6 1.932061 1_455
Mn0 O1 1.932061 1_554
Mn0 O7 1.932062 1_554
Mn0 O0 1.932062 1_455
Mn0 O3 1.939276 1_454
Mn0 O4 1.939276 1_555
Mn1 O5 1.932062 1_545
Mn1 O6 1.932062 1_455
Mn1 O2 1.932062 1_455
Mn1 O1 1.932062 1_545
Mn1 O3 1.939276 1_445
Mn1 O4 1.939276 1_555
Mn2 O5 1.932061 1_545
Mn2 O2 1.932061 1_554
Mn2 O7 1.932062 1_554
Mn2 O0 1.932062 1_545
Mn2 O3 1.939276 1_544
Mn2 O4 1.939276 1_555
Ni0 O0 1.902231 1_445
Ni0 O7 1.902231 1_554
Ni0 O2 1.902231 1_454
Ni0 O1 1.902231 1_544
Ni0 O5 1.902231 1_545
Ni0 O6 1.902231 1_455
