# generated using pymatgen
data_Li4Ti4Co5O18
_symmetry_space_group_name_H-M   'P 1'
_cell_length_a   2.88716900
_cell_length_b   8.98451500
_cell_length_c   24.75377000
_cell_angle_alpha   90.00000000
_cell_angle_beta   90.00000000
_cell_angle_gamma   90.00000000
_symmetry_Int_Tables_number   1
_chemical_formula_structural   Li4Ti4Co5O18
_chemical_formula_sum   'Li8 Ti8 Co10 O36'
_cell_volume   642.10816950
_cell_formula_units_Z   2
loop_
 _symmetry_equiv_pos_site_id
 _symmetry_equiv_pos_as_xyz
  1  'x, y, z'
loop_
 _atom_site_type_symbol
 _atom_site_label
 _atom_site_symmetry_multiplicity
 _atom_site_fract_x
 _atom_site_fract_y
 _atom_site_fract_z
 _atom_site_occupancy
  Li  Li0  1  0.00000000  0.19007800  0.99060400  1
  Li  Li1  1  0.00000000  0.20118300  0.19704600  1
  Li  Li2  1  0.00000000  0.29881700  0.69704600  1
  Li  Li3  1  0.00000000  0.30992200  0.49060400  1
  Li  Li4  1  0.00000000  0.69007800  0.50939600  1
  Li  Li5  1  0.00000000  0.70118300  0.30295400  1
  Li  Li6  1  0.00000000  0.79881700  0.80295400  1
  Li  Li7  1  0.00000000  0.80992200  0.00939600  1
  Ti  Ti0  1  0.00000000  0.01446400  0.10255500  1
  Ti  Ti1  1  0.50000000  0.15523800  0.80684200  1
  Ti  Ti2  1  0.50000000  0.34476200  0.30684200  1
  Ti  Ti3  1  0.00000000  0.48553600  0.60255500  1
  Ti  Ti4  1  0.00000000  0.51446400  0.39744500  1
  Ti  Ti5  1  0.50000000  0.65523800  0.69315800  1
  Ti  Ti6  1  0.50000000  0.84476200  0.19315800  1
  Ti  Ti7  1  0.00000000  0.98553600  0.89744500  1
  Co  Co0  1  0.00000000  0.00000000  0.50000000  1
  Co  Co1  1  0.00000000  0.00555200  0.31420700  1
  Co  Co2  1  0.50000000  0.13814500  0.58395900  1
  Co  Co3  1  0.50000000  0.36185500  0.08395900  1
  Co  Co4  1  0.00000000  0.49444800  0.81420700  1
  Co  Co5  1  0.00000000  0.50000000  0.00000000  1
  Co  Co6  1  0.00000000  0.50555200  0.18579300  1
  Co  Co7  1  0.50000000  0.63814500  0.91604100  1
  Co  Co8  1  0.50000000  0.86185500  0.41604100  1
  Co  Co9  1  0.00000000  0.99444800  0.68579300  1
  O  O0  1  0.00000000  0.99462600  0.42482600  1
  O  O1  1  0.00000000  0.00537400  0.57517400  1
  O  O2  1  0.50000000  0.04653800  0.94363400  1
  O  O3  1  0.50000000  0.05388400  0.16164900  1
  O  O4  1  0.50000000  0.11608600  0.66001600  1
  O  O5  1  0.00000000  0.12175700  0.75543800  1
  O  O6  1  0.50000000  0.14248200  0.50672500  1
  O  O7  1  0.50000000  0.12777100  0.29156000  1
  O  O8  1  0.00000000  0.18332500  0.85874100  1
  O  O9  1  0.00000000  0.21855600  0.08403100  1
  O  O10  1  0.00000000  0.28144400  0.58403100  1
  O  O11  1  0.00000000  0.31667500  0.35874100  1
  O  O12  1  0.50000000  0.37222900  0.79156000  1
  O  O13  1  0.50000000  0.35751800  0.00672500  1
  O  O14  1  0.00000000  0.37824300  0.25543800  1
  O  O15  1  0.50000000  0.38391400  0.16001600  1
  O  O16  1  0.50000000  0.44611600  0.66164900  1
  O  O17  1  0.50000000  0.45346200  0.44363400  1
  O  O18  1  0.00000000  0.49462600  0.07517400  1
  O  O19  1  0.00000000  0.50537400  0.92482600  1
  O  O20  1  0.50000000  0.54653800  0.55636600  1
  O  O21  1  0.50000000  0.55388400  0.33835100  1
  O  O22  1  0.50000000  0.61608600  0.83998400  1
  O  O23  1  0.00000000  0.62175700  0.74456200  1
  O  O24  1  0.50000000  0.64248200  0.99327500  1
  O  O25  1  0.50000000  0.62777100  0.20844000  1
  O  O26  1  0.00000000  0.68332500  0.64125900  1
  O  O27  1  0.00000000  0.71855600  0.41596900  1
  O  O28  1  0.00000000  0.78144400  0.91596900  1
  O  O29  1  0.00000000  0.81667500  0.14125900  1
  O  O30  1  0.50000000  0.87222900  0.70844000  1
  O  O31  1  0.50000000  0.85751800  0.49327500  1
  O  O32  1  0.00000000  0.87824300  0.24456200  1
  O  O33  1  0.50000000  0.88391400  0.33998400  1
  O  O34  1  0.50000000  0.94611600  0.83835100  1
  O  O35  1  0.50000000  0.95346200  0.05636600  1
loop_
_geom_bond_atom_site_label_1
_geom_bond_atom_site_label_2
_geom_bond_distance
_geom_bond_site_symmetry_2
Li0 O13 2.122805 1_556
Li0 O13 2.122805 1_456
Li0 O2 2.258082 1_555
Li0 O2 2.258082 1_455
Li0 O9 2.326781 1_556
Li1 O3 2.145482 1_555
Li1 O3 2.145482 1_455
Li1 O14 2.149392 1_555
Li1 O15 2.370547 1_555
Li1 O15 2.370547 1_455
Li2 O16 2.145482 1_455
Li2 O16 2.145482 1_555
Li2 O5 2.149392 1_555
Li2 O4 2.370547 1_455
Li2 O4 2.370547 1_555
Li3 O6 2.122805 1_455
Li3 O6 2.122805 1_555
Li3 O17 2.258082 1_455
Li3 O17 2.258082 1_555
Li3 O10 2.326781 1_555
Li4 O31 2.122805 1_555
Li4 O31 2.122805 1_455
Li4 O20 2.258082 1_555
Li4 O20 2.258082 1_455
Li4 O27 2.326781 1_555
Li5 O21 2.145482 1_455
Li5 O21 2.145482 1_555
Li5 O32 2.149392 1_555
Li5 O33 2.370547 1_555
Li5 O33 2.370547 1_455
Li6 O34 2.145482 1_455
Li6 O34 2.145482 1_555
Li6 O23 2.149392 1_555
Li6 O22 2.370547 1_555
Li6 O22 2.370547 1_455
Li7 O24 2.122805 1_454
Li7 O24 2.122805 1_554
Li7 O35 2.258082 1_455
Li7 O35 2.258082 1_555
Li7 O28 2.326781 1_554
Co0 O1 1.861466 1_555
Co0 O0 1.861466 1_545
Co0 O31 1.936591 1_445
Co0 O31 1.936591 1_545
Co0 O6 1.936591 1_455
Co0 O6 1.936591 1_555
Co1 O7 1.898416 1_555
Co1 O7 1.898416 1_455
Co1 O33 1.919745 1_445
Co1 O33 1.919745 1_545
Co1 O32 2.068911 1_545
Co2 O1 1.885257 1_555
Co2 O1 1.885257 1_655
Co2 O4 1.893100 1_555
Co2 O6 1.912230 1_555
Co2 O10 1.934302 1_655
Co2 O10 1.934302 1_555
Co3 O18 1.885257 1_555
Co3 O18 1.885257 1_655
Co3 O15 1.893100 1_555
Co3 O13 1.912230 1_555
Co3 O9 1.934302 1_655
Co3 O9 1.934302 1_555
Co4 O12 1.898416 1_555
Co4 O12 1.898416 1_455
Co4 O22 1.919745 1_455
Co4 O22 1.919745 1_555
Co4 O23 2.068911 1_555
Co5 O19 1.861466 1_554
Co5 O18 1.861466 1_555
Co5 O13 1.936591 1_455
Co5 O13 1.936591 1_555
Co5 O24 1.936591 1_554
Co5 O24 1.936591 1_454
Co6 O25 1.898416 1_455
Co6 O25 1.898416 1_555
Co6 O15 1.919745 1_555
Co6 O15 1.919745 1_455
Co6 O14 2.068911 1_555
Co7 O19 1.885257 1_555
Co7 O19 1.885257 1_655
Co7 O22 1.893100 1_555
Co7 O24 1.912230 1_555
Co7 O28 1.934302 1_555
Co7 O28 1.934302 1_655
Co8 O0 1.885257 1_555
Co8 O0 1.885257 1_655
Co8 O33 1.893100 1_555
Co8 O31 1.912230 1_555
Co8 O27 1.934302 1_655
Co8 O27 1.934302 1_555
Co9 O30 1.898416 1_455
Co9 O30 1.898416 1_555
Co9 O4 1.919745 1_565
Co9 O4 1.919745 1_465
Co9 O5 2.068911 1_565
O2 Ti7 1.921347 1_545
O2 Ti7 1.921347 1_645
O3 Ti6 2.034321 1_545
O3 Ti0 2.085463 1_555
O3 Ti0 2.085463 1_655
O5 Ti1 1.947700 1_455
O5 Ti1 1.947700 1_555
O7 Ti2 1.985921 1_555
O8 Ti1 1.948861 1_555
O8 Ti1 1.948861 1_455
O8 Ti7 2.018852 1_545
O9 Ti0 1.890131 1_555
O10 Ti3 1.890131 1_555
O11 Ti2 1.948861 1_555
O11 Ti2 1.948861 1_455
O11 Ti4 2.018852 1_555
O12 Ti1 1.985921 1_555
O14 Ti2 1.947700 1_455
O14 Ti2 1.947700 1_555
O16 Ti5 2.034321 1_555
O16 Ti3 2.085463 1_655
O16 Ti3 2.085463 1_555
O17 Ti4 1.921347 1_655
O17 Ti4 1.921347 1_555
O20 Ti3 1.921347 1_555
O20 Ti3 1.921347 1_655
O21 Ti2 2.034321 1_555
O21 Ti4 2.085463 1_555
O21 Ti4 2.085463 1_655
O23 Ti5 1.947700 1_555
O23 Ti5 1.947700 1_455
O25 Ti6 1.985921 1_555
O26 Ti5 1.948861 1_555
O26 Ti5 1.948861 1_455
O26 Ti3 2.018852 1_555
O27 Ti4 1.890131 1_555
O28 Ti7 1.890131 1_555
O29 Ti6 1.948861 1_555
O29 Ti6 1.948861 1_455
O29 Ti0 2.018852 1_565
O30 Ti5 1.985921 1_555
O32 Ti6 1.947700 1_555
O32 Ti6 1.947700 1_455
O34 Ti1 2.034321 1_565
O34 Ti7 2.085463 1_555
O34 Ti7 2.085463 1_655
O35 Ti0 1.921347 1_565
O35 Ti0 1.921347 1_665
