# generated using pymatgen
data_Li8TiS6
_symmetry_space_group_name_H-M   'P 1'
_cell_length_a   7.23144355
_cell_length_b   7.23144355
_cell_length_c   7.23144327
_cell_angle_alpha   55.37846043
_cell_angle_beta   55.37846043
_cell_angle_gamma   55.37845230
_symmetry_Int_Tables_number   1
_chemical_formula_structural   Li8TiS6
_chemical_formula_sum   'Li8 Ti1 S6'
_cell_volume   238.69123319
_cell_formula_units_Z   1
loop_
 _symmetry_equiv_pos_site_id
 _symmetry_equiv_pos_as_xyz
  1  'x, y, z'
loop_
 _atom_site_type_symbol
 _atom_site_label
 _atom_site_symmetry_multiplicity
 _atom_site_fract_x
 _atom_site_fract_y
 _atom_site_fract_z
 _atom_site_occupancy
  Li  Li0  1  0.51664400  0.89720300  0.22752800  1
  Li  Li1  1  0.77247200  0.48335600  0.10279700  1
  Li  Li2  1  0.10279700  0.77247200  0.48335600  1
  Li  Li3  1  0.65856500  0.65856500  0.65856500  1
  Li  Li4  1  0.34143500  0.34143500  0.34143500  1
  Li  Li5  1  0.89720300  0.22752800  0.51664400  1
  Li  Li6  1  0.22752800  0.51664400  0.89720300  1
  Li  Li7  1  0.48335600  0.10279700  0.77247200  1
  Ti  Ti0  1  0.00000000  0.00000000  0.00000000  1
  S  S0  1  0.37808000  0.76420200  0.08838700  1
  S  S1  1  0.91161200  0.62192000  0.23579800  1
  S  S2  1  0.23579800  0.91161300  0.62192000  1
  S  S3  1  0.76420200  0.08838800  0.37808000  1
  S  S4  1  0.08838700  0.37808000  0.76420200  1
  S  S5  1  0.62192000  0.23579800  0.91161300  1
loop_
_geom_bond_atom_site_label_1
_geom_bond_atom_site_label_2
_geom_bond_distance
_geom_bond_site_symmetry_2
Li0 S5 2.362121 1_564
Li0 S1 2.392124 1_555
Li0 S2 2.405205 1_555
Li0 S0 2.506370 1_555
Li1 S4 2.362120 1_654
Li1 S3 2.392125 1_555
Li1 S0 2.405205 1_555
Li1 S1 2.506364 1_555
Li2 S3 2.362122 1_465
Li2 S0 2.392130 1_555
Li2 S4 2.405205 1_555
Li2 S2 2.506370 1_555
Li3 S2 2.603447 1_555
Li3 S5 2.603448 1_555
Li3 S1 2.603448 1_555
Li3 S4 2.851723 1_655
Li3 S0 2.851723 1_556
Li3 S3 2.851729 1_565
Li4 S4 2.603447 1_555
Li4 S3 2.603447 1_555
Li4 S0 2.603448 1_555
Li4 S5 2.851723 1_554
Li4 S2 2.851723 1_545
Li4 S1 2.851729 1_455
Li5 S2 2.362120 1_645
Li5 S5 2.392130 1_555
Li5 S1 2.405203 1_555
Li5 S3 2.506364 1_555
Li6 S1 2.362122 1_456
Li6 S2 2.392130 1_555
Li6 S5 2.405205 1_555
Li6 S4 2.506370 1_555
Li7 S0 2.362121 1_546
Li7 S4 2.392130 1_555
Li7 S3 2.405203 1_555
Li7 S5 2.506370 1_555
S0 Ti0 2.498201 1_565
S1 Ti0 2.498205 1_665
S2 Ti0 2.498202 1_566
S3 Ti0 2.498205 1_655
S4 Ti0 2.498202 1_556
S5 Ti0 2.498201 1_656
