# generated using pymatgen
data_Li7V5O12
_symmetry_space_group_name_H-M   'P 1'
_cell_length_a   5.08884200
_cell_length_b   5.16459401
_cell_length_c   9.90634840
_cell_angle_alpha   84.72172072
_cell_angle_beta   100.89722972
_cell_angle_gamma   119.46631962
_symmetry_Int_Tables_number   1
_chemical_formula_structural   Li7V5O12
_chemical_formula_sum   'Li7 V5 O12'
_cell_volume   222.59060992
_cell_formula_units_Z   1
loop_
 _symmetry_equiv_pos_site_id
 _symmetry_equiv_pos_as_xyz
  1  'x, y, z'
loop_
 _atom_site_type_symbol
 _atom_site_label
 _atom_site_symmetry_multiplicity
 _atom_site_fract_x
 _atom_site_fract_y
 _atom_site_fract_z
 _atom_site_occupancy
  Li  Li0  1  0.90124400  0.82589800  0.74730200  1
  Li  Li1  1  0.40898500  0.81499300  0.25457500  1
  Li  Li2  1  0.24549400  0.48697900  0.74775500  1
  Li  Li3  1  0.50000000  0.50000000  0.50000000  1
  Li  Li4  1  0.09875600  0.17410200  0.25269800  1
  Li  Li5  1  0.75450600  0.51302100  0.25224500  1
  Li  Li6  1  0.59101500  0.18500700  0.74542500  1
  V  V0  1  0.00000000  0.50000000  0.00000000  1
  V  V1  1  0.66678200  0.83378000  0.00018100  1
  V  V2  1  0.33321800  0.16622000  0.99981900  1
  V  V3  1  0.16022900  0.81958000  0.50176800  1
  V  V4  1  0.83977100  0.18042000  0.49823200  1
  O  O0  1  0.29047100  0.83262500  0.88531400  1
  O  O1  1  0.04128900  0.83303400  0.11657400  1
  O  O2  1  0.82788500  0.84819500  0.38857700  1
  O  O3  1  0.52122600  0.84848500  0.61221300  1
  O  O4  1  0.88945500  0.49357700  0.61286500  1
  O  O5  1  0.37656400  0.49943100  0.11876300  1
  O  O6  1  0.11054500  0.50642300  0.38713500  1
  O  O7  1  0.95871100  0.16696600  0.88342600  1
  O  O8  1  0.62343600  0.50056900  0.88123700  1
  O  O9  1  0.17211500  0.15180500  0.61142300  1
  O  O10  1  0.70952900  0.16737500  0.11468600  1
  O  O11  1  0.47877400  0.15151500  0.38778700  1
loop_
_geom_bond_atom_site_label_1
_geom_bond_atom_site_label_2
_geom_bond_distance
_geom_bond_site_symmetry_2
Li0 O8 2.131717 1_555
Li0 O9 2.132395 1_665
Li0 O0 2.170439 1_655
Li0 O3 2.181512 1_555
Li0 O7 2.188124 1_565
Li0 O4 2.238743 1_555
Li1 O11 2.127382 1_565
Li1 O5 2.132690 1_555
Li1 O6 2.135070 1_555
Li1 O1 2.135347 1_555
Li1 O2 2.224437 1_555
Li1 O10 2.273889 1_565
Li2 O4 2.050962 1_455
Li2 O8 2.091694 1_555
Li2 O9 2.136220 1_555
Li2 O7 2.151200 1_455
Li2 O3 2.220659 1_555
Li2 O0 2.241357 1_555
Li3 O4 2.097395 1_555
Li3 O6 2.097395 1_555
Li3 O2 2.148354 1_555
Li3 O9 2.148354 1_555
Li3 O11 2.148960 1_555
Li3 O3 2.148960 1_555
Li4 O5 2.131717 1_555
Li4 O2 2.132395 1_445
Li4 O10 2.170439 1_455
Li4 O11 2.181512 1_555
Li4 O1 2.188124 1_545
Li4 O6 2.238743 1_555
Li5 O6 2.050962 1_655
Li5 O5 2.091694 1_555
Li5 O2 2.136220 1_555
Li5 O1 2.151200 1_655
Li5 O11 2.220659 1_555
Li5 O10 2.241357 1_555
Li6 O3 2.127382 1_545
Li6 O8 2.132690 1_555
Li6 O4 2.135070 1_555
Li6 O7 2.135347 1_555
Li6 O9 2.224437 1_555
Li6 O0 2.273889 1_545
O0 V1 2.031788 1_556
O0 V2 2.049364 1_565
O0 V0 2.050481 1_556
O1 V1 2.033999 1_455
O1 V0 2.062589 1_555
O1 V2 2.067426 1_564
O2 V3 1.907321 1_655
O2 V4 2.084139 1_565
O3 V3 1.895898 1_555
O3 V4 2.107950 1_565
O4 V4 1.948412 1_555
O4 V3 1.973496 1_655
O5 V0 2.051529 1_555
O5 V2 2.073618 1_554
O5 V1 2.077653 1_555
O6 V3 1.948412 1_555
O6 V4 1.973496 1_455
O7 V2 2.033999 1_655
O7 V0 2.062589 1_656
O7 V1 2.067426 1_546
O8 V0 2.051529 1_656
O8 V1 2.073618 1_556
O8 V2 2.077653 1_555
O9 V4 1.907321 1_455
O9 V3 2.084139 1_545
O10 V2 2.031788 1_554
O10 V1 2.049364 1_545
O10 V0 2.050481 1_655
O11 V4 1.895898 1_555
O11 V3 2.107950 1_545
