# generated using pymatgen
data_Na8SnO6
_symmetry_space_group_name_H-M   'P 1'
_cell_length_a   6.39008444
_cell_length_b   6.39008470
_cell_length_c   12.66609357
_cell_angle_alpha   89.99994120
_cell_angle_beta   89.99995374
_cell_angle_gamma   120.00540463
_symmetry_Int_Tables_number   1
_chemical_formula_structural   Na8SnO6
_chemical_formula_sum   'Na16 Sn2 O12'
_cell_volume   447.88124923
_cell_formula_units_Z   2
loop_
 _symmetry_equiv_pos_site_id
 _symmetry_equiv_pos_as_xyz
  1  'x, y, z'
loop_
 _atom_site_type_symbol
 _atom_site_label
 _atom_site_symmetry_multiplicity
 _atom_site_fract_x
 _atom_site_fract_y
 _atom_site_fract_z
 _atom_site_occupancy
  Na  Na0  1  -0.00003717  0.69879579  0.76859632  1
  Na  Na1  1  -0.00004272  0.60146445  0.12562594  1
  Na  Na2  1  0.00004155  0.39849889  0.62563784  1
  Na  Na3  1  0.00003669  0.30123262  0.26864672  1
  Na  Na4  1  0.33338518  0.66671769  0.40942517  1
  Na  Na5  1  0.33328458  0.66661671  0.90926351  1
  Na  Na6  1  0.30116805  0.30116801  0.76860209  1
  Na  Na7  1  0.39848610  0.39848610  0.12562712  1
  Na  Na8  1  0.60154858  0.60154856  0.62563822  1
  Na  Na9  1  0.30123264  0.00003668  0.26864669  1
  Na  Na10  1  0.69880309  0.69880312  0.26865362  1
  Na  Na11  1  0.39849881  0.00004154  0.62563785  1
  Na  Na12  1  0.66661664  0.33328458  0.90926354  1
  Na  Na13  1  0.66671764  0.33338512  0.40942517  1
  Na  Na14  1  0.60146440  -0.00004271  0.12562593  1
  Na  Na15  1  0.69879575  -0.00003718  0.76859633  1
  Sn  Sn0  1  -0.00000474  -0.00000479  0.99648806  1
  Sn  Sn1  1  0.00000264  0.00000244  0.49665000  1
  O  O0  1  -0.00000902  0.70575074  0.95090713  1
  O  O1  1  0.00001127  0.29420618  0.45100529  1
  O  O2  1  0.33333425  0.66666691  0.21994471  1
  O  O3  1  0.00000613  0.00000618  0.15488125  1
  O  O4  1  -0.00000647  -0.00000652  0.65499141  1
  O  O5  1  0.33333286  0.66666557  0.71988961  1
  O  O6  1  0.29426212  0.29426212  0.95090597  1
  O  O7  1  0.29420633  0.00001125  0.45100532  1
  O  O8  1  0.70578184  0.70578189  0.45100469  1
  O  O9  1  0.66666548  0.33333300  0.71988962  1
  O  O10  1  0.66666683  0.33333418  0.21994472  1
  O  O11  1  0.70575066  -0.00000911  0.95090714  1
loop_
_geom_bond_atom_site_label_1
_geom_bond_atom_site_label_2
_geom_bond_distance
_geom_bond_site_symmetry_2
Na0 O0 2.309592 1_555
Na0 O9 2.322893 1_455
Na0 O5 2.323405 1_555
Na0 O4 2.403024 1_565
Na1 O10 2.291075 1_455
Na1 O2 2.291564 1_555
Na1 O0 2.311132 1_554
Na1 O3 2.573378 1_565
Na2 O5 2.290705 1_555
Na2 O9 2.291180 1_455
Na2 O1 2.310102 1_555
Na2 O4 2.573330 1_555
Na3 O1 2.310205 1_555
Na3 O2 2.322776 1_555
Na3 O10 2.323289 1_455
Na3 O3 2.404392 1_555
Na4 O8 2.325570 1_555
Na4 O7 2.325785 1_565
Na4 O1 2.325935 1_555
Na4 O2 2.399977 1_555
Na5 O6 2.325597 1_555
Na5 O0 2.325805 1_555
Na5 O11 2.325956 1_565
Na5 O5 2.398628 1_555
Na6 O6 2.309499 1_555
Na6 O9 2.323283 1_555
Na6 O5 2.323284 1_555
Na6 O4 2.402905 1_555
Na7 O10 2.291466 1_555
Na7 O2 2.291467 1_555
Na7 O6 2.311063 1_554
Na7 O3 2.572933 1_555
Na8 O9 2.291090 1_555
Na8 O5 2.291092 1_555
Na8 O8 2.310015 1_555
Na8 O4 2.572894 1_665
Na9 O7 2.310206 1_555
Na9 O10 2.322776 1_555
Na9 O2 2.323289 1_545
Na9 O3 2.404392 1_555
Na10 O8 2.310106 1_555
Na10 O2 2.323173 1_555
Na10 O10 2.323173 1_555
Na10 O3 2.404274 1_665
Na11 O9 2.290706 1_555
Na11 O5 2.291179 1_545
Na11 O7 2.310101 1_555
Na11 O4 2.573329 1_555
Na12 O6 2.325597 1_555
Na12 O11 2.325805 1_555
Na12 O0 2.325957 1_655
Na12 O9 2.398628 1_555
Na13 O8 2.325571 1_555
Na13 O1 2.325785 1_655
Na13 O7 2.325935 1_555
Na13 O10 2.399977 1_555
Na14 O2 2.291074 1_545
Na14 O10 2.291564 1_555
Na14 O11 2.311132 1_554
Na14 O3 2.573378 1_655
Na15 O11 2.309592 1_555
Na15 O5 2.322893 1_545
Na15 O9 2.323406 1_555
Na15 O4 2.403025 1_655
O0 Sn0 1.966874 1_565
O1 Sn1 1.966848 1_555
O3 Sn0 2.006223 1_554
O4 Sn1 2.005567 1_555
O6 Sn0 1.966880 1_555
O7 Sn1 1.966847 1_555
O8 Sn1 1.966835 1_665
O11 Sn0 1.966874 1_655
