# generated using pymatgen
data_Li4Ti2Cr3Ni3O16
_symmetry_space_group_name_H-M   'P 1'
_cell_length_a   5.88139642
_cell_length_b   5.88139642
_cell_length_c   9.45267878
_cell_angle_alpha   88.07875345
_cell_angle_beta   88.07875345
_cell_angle_gamma   59.10673824
_symmetry_Int_Tables_number   1
_chemical_formula_structural   Li4Ti2Cr3Ni3O16
_chemical_formula_sum   'Li4 Ti2 Cr3 Ni3 O16'
_cell_volume   280.37787175
_cell_formula_units_Z   1
loop_
 _symmetry_equiv_pos_site_id
 _symmetry_equiv_pos_as_xyz
  1  'x, y, z'
loop_
 _atom_site_type_symbol
 _atom_site_label
 _atom_site_symmetry_multiplicity
 _atom_site_fract_x
 _atom_site_fract_y
 _atom_site_fract_z
 _atom_site_occupancy
  Li  Li0  1  0.66059700  0.66059700  0.10820300  1
  Li  Li1  1  0.99774100  0.99774100  0.00720200  1
  Li  Li2  1  0.99710100  0.99710100  0.50480000  1
  Li  Li3  1  0.33664600  0.33664600  0.60396700  1
  Ti  Ti0  1  0.66305600  0.66305600  0.49982600  1
  Ti  Ti1  1  0.33203000  0.33203000  0.00187700  1
  Cr  Cr0  1  0.34653200  0.83607300  0.78041900  1
  Cr  Cr1  1  0.83607300  0.34653200  0.78041900  1
  Cr  Cr2  1  0.17081600  0.17081600  0.27853700  1
  Ni  Ni0  1  0.82960300  0.82960300  0.79106300  1
  Ni  Ni1  1  0.16716800  0.65711600  0.28805900  1
  Ni  Ni2  1  0.65711600  0.16716800  0.28805900  1
  O  O0  1  0.33725800  0.84502200  0.40445600  1
  O  O1  1  0.52053500  0.52053500  0.65792400  1
  O  O2  1  0.64877900  0.64877900  0.89661500  1
  O  O3  1  0.00757000  0.00757000  0.69606400  1
  O  O4  1  0.00024700  0.00024700  0.19609600  1
  O  O5  1  0.84502200  0.33725800  0.40445600  1
  O  O6  1  0.50976200  0.96161400  0.65821500  1
  O  O7  1  0.96161400  0.50976200  0.65821500  1
  O  O8  1  0.16871100  0.16871100  0.89999900  1
  O  O9  1  0.83634800  0.83634800  0.40433500  1
  O  O10  1  0.03231600  0.46794700  0.15650200  1
  O  O11  1  0.46794700  0.03231600  0.15650200  1
  O  O12  1  0.32774400  0.32774400  0.38919200  1
  O  O13  1  0.17716200  0.66412000  0.90820700  1
  O  O14  1  0.47396700  0.47396700  0.16696300  1
  O  O15  1  0.66412000  0.17716200  0.90820700  1
loop_
_geom_bond_atom_site_label_1
_geom_bond_atom_site_label_2
_geom_bond_distance
_geom_bond_site_symmetry_2
Li0 O10 1.939171 1_655
Li0 O11 1.939171 1_565
Li0 O14 1.968150 1_555
Li0 O2 2.008372 1_554
Li1 O4 1.786726 1_665
Li1 O15 1.941637 1_564
Li1 O13 1.941637 1_654
Li1 O8 1.987654 1_664
Li2 O3 1.815245 1_665
Li2 O9 1.930786 1_555
Li2 O5 1.947881 1_565
Li2 O0 1.947881 1_655
Li3 O6 1.953919 1_545
Li3 O7 1.953919 1_455
Li3 O1 1.968410 1_555
Li3 O12 2.035746 1_555
Cr0 O6 1.843241 1_555
Cr0 O3 1.901396 1_565
Cr0 O2 1.902315 1_555
Cr0 O1 1.986566 1_555
Cr0 O8 2.041283 1_565
Cr0 O13 2.084723 1_555
Cr1 O7 1.843241 1_555
Cr1 O3 1.901396 1_655
Cr1 O2 1.902315 1_555
Cr1 O1 1.986566 1_555
Cr1 O8 2.041283 1_655
Cr1 O15 2.084723 1_555
Cr2 O11 1.874622 1_555
Cr2 O10 1.874622 1_555
Cr2 O4 1.938637 1_555
Cr2 O12 1.949869 1_555
Cr2 O0 2.011370 1_545
Cr2 O5 2.011370 1_455
Ni0 O3 1.999126 1_665
Ni0 O2 2.068016 1_555
Ni0 O7 2.076438 1_555
Ni0 O6 2.076438 1_555
Ni0 O13 2.094860 1_655
Ni0 O15 2.094860 1_565
Ni1 O12 1.901612 1_555
Ni1 O14 1.916966 1_555
Ni1 O4 1.922829 1_565
Ni1 O9 1.983204 1_455
Ni1 O10 2.116211 1_555
Ni1 O0 2.173310 1_555
Ni2 O12 1.901612 1_555
Ni2 O14 1.916966 1_555
Ni2 O4 1.922829 1_655
Ni2 O9 1.983204 1_545
Ni2 O11 2.116211 1_555
Ni2 O5 2.173310 1_555
O0 Ti0 1.890769 1_555
O1 Ti0 2.047469 1_555
O5 Ti0 1.890769 1_555
O6 Ti0 2.144264 1_555
O7 Ti0 2.144264 1_555
O8 Ti1 1.960661 1_556
O9 Ti0 1.958474 1_555
O10 Ti1 2.083554 1_555
O11 Ti1 2.083554 1_555
O13 Ti1 1.881413 1_556
O14 Ti1 2.172375 1_555
O15 Ti1 1.881413 1_556
