# generated using pymatgen
data_Li3Nb(CuO2)4
_symmetry_space_group_name_H-M   'P 1'
_cell_length_a   6.24157627
_cell_length_b   6.24157627
_cell_length_c   5.92263267
_cell_angle_alpha   62.90392767
_cell_angle_beta   62.90392767
_cell_angle_gamma   54.72620680
_symmetry_Int_Tables_number   1
_chemical_formula_structural   Li3Nb(CuO2)4
_chemical_formula_sum   'Li3 Nb1 Cu4 O8'
_cell_volume   161.70788947
_cell_formula_units_Z   1
loop_
 _symmetry_equiv_pos_site_id
 _symmetry_equiv_pos_as_xyz
  1  'x, y, z'
loop_
 _atom_site_type_symbol
 _atom_site_label
 _atom_site_symmetry_multiplicity
 _atom_site_fract_x
 _atom_site_fract_y
 _atom_site_fract_z
 _atom_site_occupancy
  Li  Li0  1  0.00000000  0.50000000  0.00000000  1
  Li  Li1  1  0.50000000  0.00000000  0.00000000  1
  Li  Li2  1  0.00000000  0.00000000  0.50000000  1
  Nb  Nb0  1  0.50000000  0.50000000  0.00000000  1
  Cu  Cu0  1  0.00000000  0.00000000  0.00000000  1
  Cu  Cu1  1  0.50000000  0.00000000  0.50000000  1
  Cu  Cu2  1  0.00000000  0.50000000  0.50000000  1
  Cu  Cu3  1  0.50000000  0.50000000  0.50000000  1
  O  O0  1  0.71659900  0.71659900  0.76618100  1
  O  O1  1  0.26629900  0.78125000  0.21019000  1
  O  O2  1  0.78125000  0.26629900  0.21019000  1
  O  O3  1  0.28340100  0.28340100  0.23381900  1
  O  O4  1  0.29061900  0.29061900  0.68083500  1
  O  O5  1  0.73370100  0.21875000  0.78981000  1
  O  O6  1  0.21875000  0.73370100  0.78981000  1
  O  O7  1  0.70938100  0.70938100  0.31916500  1
loop_
_geom_bond_atom_site_label_1
_geom_bond_atom_site_label_2
_geom_bond_distance
_geom_bond_site_symmetry_2
Li0 O3 2.153685 1_555
Li0 O0 2.153685 1_454
Li0 O6 2.153891 1_554
Li0 O2 2.153891 1_455
Li0 O7 2.227190 1_455
Li0 O4 2.227190 1_554
Li1 O3 2.153685 1_555
Li1 O0 2.153685 1_544
Li1 O5 2.153891 1_554
Li1 O1 2.153891 1_545
Li1 O7 2.227190 1_545
Li1 O4 2.227190 1_554
Li2 O2 2.118462 1_455
Li2 O1 2.118462 1_545
Li2 O5 2.118462 1_455
Li2 O6 2.118462 1_545
Nb0 O6 2.034244 1_554
Nb0 O5 2.034244 1_554
Nb0 O1 2.034244 1_555
Nb0 O2 2.034244 1_555
Nb0 O3 2.067137 1_555
Nb0 O0 2.067137 1_554
Cu0 O2 1.972829 1_455
Cu0 O1 1.972829 1_545
Cu0 O6 1.972829 1_544
Cu0 O5 1.972829 1_454
Cu1 O4 1.975371 1_555
Cu1 O7 1.975371 1_545
Cu1 O3 2.020188 1_555
Cu1 O0 2.020188 1_545
Cu1 O2 2.610853 1_555
Cu1 O6 2.610853 1_545
Cu2 O4 1.975371 1_555
Cu2 O7 1.975371 1_455
Cu2 O0 2.020188 1_455
Cu2 O3 2.020188 1_555
Cu2 O1 2.610853 1_555
Cu2 O5 2.610853 1_455
Cu3 O7 1.996330 1_555
Cu3 O4 1.996330 1_555
Cu3 O5 2.175770 1_555
Cu3 O6 2.175770 1_555
Cu3 O1 2.175770 1_555
Cu3 O2 2.175770 1_555
