# generated using pymatgen
data_NaH4CSNO2
_symmetry_space_group_name_H-M   'P 1'
_cell_length_a   9.21847758
_cell_length_b   9.21847758
_cell_length_c   6.43037896
_cell_angle_alpha   77.33707674
_cell_angle_beta   77.33707674
_cell_angle_gamma   97.75050268
_symmetry_Int_Tables_number   1
_chemical_formula_structural   NaH4CSNO2
_chemical_formula_sum   'Na4 H16 C4 S4 N4 O8'
_cell_volume   510.50230008
_cell_formula_units_Z   4
loop_
 _symmetry_equiv_pos_site_id
 _symmetry_equiv_pos_as_xyz
  1  'x, y, z'
loop_
 _atom_site_type_symbol
 _atom_site_label
 _atom_site_symmetry_multiplicity
 _atom_site_fract_x
 _atom_site_fract_y
 _atom_site_fract_z
 _atom_site_occupancy
  Na  Na0  1  0.93415000  0.06585000  0.75000000  1
  Na  Na1  1  0.06585000  0.93415000  0.25000000  1
  Na  Na2  1  0.19932400  0.80067600  0.75000000  1
  Na  Na3  1  0.80067600  0.19932400  0.25000000  1
  H  H0  1  0.97534300  0.63271600  0.16484700  1
  H  H1  1  0.36728400  0.02465700  0.33515300  1
  H  H2  1  0.02465700  0.36728400  0.83515300  1
  H  H3  1  0.63271600  0.97534300  0.66484700  1
  H  H4  1  0.13835100  0.62942000  0.18885800  1
  H  H5  1  0.37058000  0.86164900  0.31114200  1
  H  H6  1  0.86164900  0.37058000  0.81114200  1
  H  H7  1  0.62942000  0.13835100  0.68885800  1
  H  H8  1  0.24115800  0.50485300  0.60446100  1
  H  H9  1  0.49514700  0.75884200  0.89553900  1
  H  H10  1  0.75884200  0.49514700  0.39553900  1
  H  H11  1  0.50485300  0.24115800  0.10446100  1
  H  H12  1  0.25959000  0.49582600  0.84327900  1
  H  H13  1  0.50417400  0.74041000  0.65672100  1
  H  H14  1  0.74041000  0.50417400  0.15672100  1
  H  H15  1  0.49582600  0.25959000  0.34327900  1
  C  C0  1  0.85028600  0.70186200  0.70511100  1
  C  C1  1  0.29813800  0.14971400  0.79488900  1
  C  C2  1  0.14971400  0.29813800  0.29488900  1
  C  C3  1  0.70186200  0.85028600  0.20511100  1
  S  S0  1  0.71710800  0.55246300  0.75741100  1
  S  S1  1  0.44753700  0.28289200  0.74258900  1
  S  S2  1  0.28289200  0.44753700  0.24258900  1
  S  S3  1  0.55246300  0.71710800  0.25741100  1
  N  N0  1  0.94492000  0.81180600  0.66977000  1
  N  N1  1  0.18819400  0.05508000  0.83023000  1
  N  N2  1  0.05508000  0.18819400  0.33023000  1
  N  N3  1  0.81180600  0.94492000  0.16977000  1
  O  O0  1  0.07385200  0.70042300  0.14045800  1
  O  O1  1  0.29957700  0.92614800  0.35954200  1
  O  O2  1  0.92614800  0.29957700  0.85954200  1
  O  O3  1  0.70042300  0.07385200  0.64045800  1
  O  O4  1  0.19692800  0.52978000  0.74333200  1
  O  O5  1  0.47022000  0.80307200  0.75666800  1
  O  O6  1  0.80307200  0.47022000  0.25666800  1
  O  O7  1  0.52978000  0.19692800  0.24333200  1
loop_
_geom_bond_atom_site_label_1
_geom_bond_atom_site_label_2
_geom_bond_distance
_geom_bond_site_symmetry_2
Na0 O2 2.414423 1_555
Na0 O3 2.414423 1_555
Na1 O1 2.414423 1_555
Na1 O0 2.414423 1_555
Na2 O0 2.432515 1_556
Na2 O1 2.432515 1_555
Na2 O4 2.504209 1_555
Na2 O5 2.504209 1_555
Na3 O3 2.432515 1_555
Na3 O2 2.432515 1_554
Na3 O7 2.504209 1_555
Na3 O6 2.504209 1_555
H0 O0 0.990244 1_655
H1 O1 0.990244 1_545
H2 O2 0.990244 1_455
H3 O3 0.990244 1_565
H4 O0 0.987726 1_555
H5 O1 0.987726 1_555
H6 O2 0.987726 1_555
H7 O3 0.987726 1_555
H8 O4 0.985946 1_555
H9 O5 0.985946 1_555
H10 O6 0.985946 1_555
H11 O7 0.985946 1_555
H12 O4 0.983893 1_555
H13 O5 0.983893 1_555
H14 O6 0.983893 1_555
H15 O7 0.983893 1_555
C0 N0 1.188919 1_555
C0 S0 1.636146 1_555
C1 N1 1.188919 1_555
C1 S1 1.636146 1_555
C2 N2 1.188919 1_555
C2 S2 1.636146 1_555
C3 N3 1.188919 1_555
C3 S3 1.636146 1_555
N0 Na0 2.516045 1_565
N0 Na2 2.519701 1_655
N0 Na1 2.609164 1_655
N1 Na0 2.516045 1_455
N1 Na2 2.519701 1_545
N1 Na1 2.609164 1_546
N2 Na1 2.516045 1_545
N2 Na3 2.519701 1_455
N2 Na0 2.609164 1_455
N3 Na1 2.516045 1_655
N3 Na3 2.519701 1_565
N3 Na0 2.609164 1_564
