# generated using pymatgen
data_Li15Zr7(Cu3O14)2
_symmetry_space_group_name_H-M   'P 1'
_cell_length_a   5.40174000
_cell_length_b   8.07486213
_cell_length_c   13.13338939
_cell_angle_alpha   88.77790390
_cell_angle_beta   80.85170780
_cell_angle_gamma   87.01715657
_symmetry_Int_Tables_number   1
_chemical_formula_structural   Li15Zr7(Cu3O14)2
_chemical_formula_sum   'Li15 Zr7 Cu6 O28'
_cell_volume   564.75378269
_cell_formula_units_Z   1
loop_
 _symmetry_equiv_pos_site_id
 _symmetry_equiv_pos_as_xyz
  1  'x, y, z'
loop_
 _atom_site_type_symbol
 _atom_site_label
 _atom_site_symmetry_multiplicity
 _atom_site_fract_x
 _atom_site_fract_y
 _atom_site_fract_z
 _atom_site_occupancy
  Li  Li0  1  0.92964500  0.85259000  0.21284500  1
  Li  Li1  1  0.49914400  0.00445500  0.50195600  1
  Li  Li2  1  0.85390100  0.65604200  0.03891300  1
  Li  Li3  1  0.42131300  0.79454000  0.32307500  1
  Li  Li4  1  0.06441400  0.19572400  0.17295300  1
  Li  Li5  1  0.22250900  0.43223300  0.35521700  1
  Li  Li6  1  0.63864300  0.29016400  0.07072500  1
  Li  Li7  1  0.95263300  0.92563700  0.60733900  1
  Li  Li8  1  0.65910800  0.34897300  0.46110300  1
  Li  Li9  1  0.78511700  0.56692800  0.64646400  1
  Li  Li10  1  0.26290700  0.50412300  0.75334900  1
  Li  Li11  1  0.99997000  0.00326500  0.99758600  1
  Li  Li12  1  0.35773600  0.70721300  0.93102600  1
  Li  Li13  1  0.07355500  0.14978500  0.78401700  1
  Li  Li14  1  0.52315200  0.06787200  0.89147600  1
  Zr  Zr0  1  0.47322300  0.93119700  0.10572700  1
  Zr  Zr1  1  0.75519500  0.50365700  0.24488700  1
  Zr  Zr2  1  0.33579400  0.64453600  0.53833700  1
  Zr  Zr3  1  0.89652800  0.78771600  0.82446500  1
  Zr  Zr4  1  0.02235200  0.06858500  0.39376800  1
  Zr  Zr5  1  0.16970400  0.35108800  0.96455800  1
  Zr  Zr6  1  0.60146600  0.21508500  0.67766100  1
  Cu  Cu0  1  0.29084400  0.57136900  0.14278300  1
  Cu  Cu1  1  0.87292200  0.70905700  0.42896900  1
  Cu  Cu2  1  0.42317800  0.85697700  0.71617000  1
  Cu  Cu3  1  0.55663400  0.14439500  0.28406400  1
  Cu  Cu4  1  0.13838000  0.29106200  0.56882400  1
  Cu  Cu5  1  0.71864600  0.42879300  0.85877500  1
  O  O0  1  0.17962900  0.77813700  0.07991800  1
  O  O1  1  0.63679900  0.72502300  0.18104900  1
  O  O2  1  0.73936500  0.91848600  0.36307300  1
  O  O3  1  0.07599800  0.62466500  0.27615400  1
  O  O4  1  0.17090800  0.85068100  0.46293400  1
  O  O5  1  0.30333100  0.13387500  0.03378400  1
  O  O6  1  0.56194400  0.57663100  0.39534500  1
  O  O7  1  0.73117600  0.99289900  0.74835300  1
  O  O8  1  0.94072100  0.41732300  0.10461500  1
  O  O9  1  0.11713300  0.71772800  0.67990400  1
  O  O10  1  0.03247200  0.50745000  0.50181800  1
  O  O11  1  0.20565500  0.91864700  0.84763800  1
  O  O12  1  0.61644200  0.78651700  0.58093000  1
  O  O13  1  0.43206200  0.38572800  0.21330200  1
  O  O14  1  0.75775800  0.06983200  0.14636100  1
  O  O15  1  0.48478200  0.43744400  0.60866600  1
  O  O16  1  0.86109600  0.27463700  0.31909200  1
  O  O17  1  0.26078400  0.00788000  0.25260800  1
  O  O18  1  0.69579600  0.86453400  0.96636500  1
  O  O19  1  0.60456600  0.63287600  0.79558900  1
  O  O20  1  0.04539700  0.57605100  0.89517700  1
  O  O21  1  0.32927900  0.21014200  0.42558500  1
  O  O22  1  0.28633600  0.09847800  0.63720800  1
  O  O23  1  0.46481400  0.49211500  0.00617800  1
  O  O24  1  0.91750300  0.34518100  0.70475500  1
  O  O25  1  0.79897300  0.13599900  0.53265000  1
  O  O26  1  0.38657200  0.28385700  0.82048100  1
  O  O27  1  0.86409700  0.23412200  0.92343200  1
loop_
_geom_bond_atom_site_label_1
_geom_bond_atom_site_label_2
_geom_bond_distance
_geom_bond_site_symmetry_2
Li0 O1 2.033662 1_555
Li0 O0 2.107914 1_655
Li0 O2 2.139007 1_555
Li0 O3 2.167010 1_655
Li0 O14 2.173629 1_565
Li0 O17 2.367073 1_665
Li1 O25 2.078168 1_555
Li1 O22 2.090586 1_555
Li1 O12 2.142258 1_545
Li1 O21 2.160904 1_555
Li1 O2 2.168026 1_545
Li1 O4 2.343796 1_545
Li2 O20 2.100556 1_654
Li2 O1 2.109617 1_555
Li2 O18 2.124200 1_554
Li2 O8 2.154970 1_555
Li2 O0 2.205071 1_655
Li2 O23 2.637320 1_555
Li3 O1 2.106073 1_555
Li3 O4 2.142589 1_555
Li3 O6 2.143132 1_555
Li3 O17 2.146577 1_565
Li3 O2 2.172014 1_555
Li3 O3 2.531512 1_555
Li4 O14 2.067276 1_455
Li4 O8 2.109880 1_455
Li4 O5 2.116007 1_555
Li4 O16 2.145929 1_455
Li4 O17 2.153608 1_555
Li5 O3 2.045367 1_555
Li5 O13 2.052054 1_555
Li5 O21 2.096185 1_555
Li5 O10 2.118071 1_555
Li5 O6 2.356933 1_555
Li5 O16 2.496933 1_455
Li6 O23 2.072285 1_555
Li6 O8 2.083221 1_555
Li6 O14 2.138889 1_555
Li6 O13 2.157454 1_555
Li6 O27 2.158915 1_554
Li6 O5 2.377433 1_555
Li7 O7 2.103973 1_555
Li7 O9 2.135909 1_655
Li7 O25 2.139541 1_565
Li7 O4 2.148720 1_655
Li7 O12 2.260400 1_555
Li7 O22 2.420968 1_665
Li8 O16 2.088500 1_555
Li8 O6 2.092054 1_555
Li8 O25 2.105429 1_555
Li8 O15 2.135810 1_555
Li8 O21 2.267830 1_555
Li8 O10 2.575222 1_655
Li9 O24 2.070261 1_555
Li9 O15 2.103891 1_555
Li9 O19 2.110358 1_555
Li9 O12 2.175117 1_555
Li9 O10 2.188561 1_655
Li9 O9 2.322222 1_655
Li10 O26 2.093750 1_555
Li10 O20 2.113435 1_555
Li10 O9 2.134177 1_555
Li10 O15 2.142271 1_555
Li10 O19 2.311832 1_555
Li10 O24 2.489668 1_455
Li11 O5 2.114839 1_656
Li11 O18 2.132631 1_545
Li11 O11 2.205039 1_645
Li11 O27 2.229264 1_555
Li11 O14 2.230978 1_556
Li11 O0 2.341351 1_646
Li12 O23 2.080709 1_556
Li12 O0 2.114146 1_556
Li12 O19 2.123698 1_555
Li12 O20 2.156335 1_555
Li12 O11 2.202155 1_555
Li12 O18 2.387457 1_555
Li13 O24 2.086670 1_455
Li13 O27 2.100168 1_455
Li13 O22 2.118993 1_555
Li13 O11 2.162239 1_545
Li13 O26 2.174954 1_555
Li13 O7 2.406095 1_445
Li14 O5 2.111412 1_556
Li14 O7 2.113889 1_545
Li14 O26 2.114439 1_555
Li14 O18 2.143923 1_545
Li14 O11 2.298572 1_545
Li14 O27 2.428429 1_555
Cu0 O13 1.932138 1_555
Cu0 O0 1.955695 1_555
Cu0 O3 1.983430 1_555
Cu0 O23 1.990400 1_555
Cu0 O1 2.418842 1_555
Cu0 O8 2.438930 1_455
Cu1 O2 2.034317 1_555
Cu1 O10 2.087610 1_655
Cu1 O4 2.130586 1_655
Cu1 O6 2.145513 1_555
Cu1 O3 2.230729 1_655
Cu1 O12 2.318960 1_555
Cu2 O11 1.985068 1_555
Cu2 O12 1.989971 1_555
Cu2 O7 2.141189 1_555
Cu2 O9 2.165835 1_555
Cu2 O19 2.320019 1_555
Cu2 O22 2.330698 1_565
Cu3 O14 2.041352 1_555
Cu3 O17 2.086257 1_555
Cu3 O16 2.112746 1_555
Cu3 O21 2.119693 1_555
Cu3 O13 2.258133 1_555
Cu3 O2 2.331571 1_545
Cu4 O22 1.975597 1_555
Cu4 O24 2.025657 1_455
Cu4 O10 2.035987 1_555
Cu4 O21 2.096361 1_555
Cu4 O25 2.386642 1_455
Cu4 O15 2.395862 1_555
Cu5 O19 1.944912 1_555
Cu5 O27 1.958587 1_555
Cu5 O24 2.234564 1_555
Cu5 O23 2.239282 1_556
Cu5 O20 2.295386 1_655
Cu5 O26 2.317482 1_555
O0 Zr0 2.133161 1_555
O1 Zr1 2.072366 1_555
O1 Zr0 2.141393 1_555
O2 Zr4 2.092325 1_665
O3 Zr1 2.132119 1_455
O4 Zr4 2.140506 1_565
O4 Zr2 2.144925 1_555
O5 Zr5 2.105446 1_554
O5 Zr0 2.113492 1_545
O6 Zr2 2.136461 1_555
O6 Zr1 2.161327 1_555
O7 Zr6 2.139331 1_565
O7 Zr3 2.145068 1_555
O8 Zr1 2.068625 1_555
O8 Zr5 2.109293 1_654
O9 Zr2 2.115930 1_555
O9 Zr3 2.144826 1_455
O10 Zr2 2.145048 1_555
O11 Zr3 2.087526 1_455
O12 Zr2 2.098438 1_555
O13 Zr1 2.132053 1_555
O14 Zr0 2.089419 1_545
O15 Zr2 2.080300 1_555
O15 Zr6 2.106341 1_555
O16 Zr4 2.130773 1_655
O16 Zr1 2.165003 1_555
O17 Zr4 2.133043 1_555
O17 Zr0 2.166698 1_545
O18 Zr0 2.088102 1_556
O18 Zr3 2.090536 1_555
O19 Zr3 2.147088 1_555
O20 Zr3 2.111182 1_455
O20 Zr5 2.139631 1_555
O21 Zr4 2.160520 1_555
O22 Zr6 2.131250 1_555
O23 Zr5 2.151586 1_554
O24 Zr6 2.130797 1_555
O25 Zr4 2.086478 1_655
O25 Zr6 2.123206 1_555
O26 Zr6 2.111666 1_555
O26 Zr5 2.126104 1_555
O27 Zr5 2.092011 1_655
