# generated using pymatgen
data_Li2FeBO4
_symmetry_space_group_name_H-M   'P 1'
_cell_length_a   4.80063100
_cell_length_b   5.35830500
_cell_length_c   5.81463500
_cell_angle_alpha   90.00000000
_cell_angle_beta   90.00000000
_cell_angle_gamma   90.00000000
_symmetry_Int_Tables_number   1
_chemical_formula_structural   Li2FeBO4
_chemical_formula_sum   'Li4 Fe2 B2 O8'
_cell_volume   149.57128122
_cell_formula_units_Z   2
loop_
 _symmetry_equiv_pos_site_id
 _symmetry_equiv_pos_as_xyz
  1  'x, y, z'
loop_
 _atom_site_type_symbol
 _atom_site_label
 _atom_site_symmetry_multiplicity
 _atom_site_fract_x
 _atom_site_fract_y
 _atom_site_fract_z
 _atom_site_occupancy
  Li  Li0  1  0.99338900  0.33638500  0.75258700  1
  Li  Li1  1  0.49338900  0.66361500  0.74741300  1
  Li  Li2  1  0.99338900  0.33638500  0.24741300  1
  Li  Li3  1  0.49338900  0.66361500  0.25258700  1
  Fe  Fe0  1  0.99611400  0.85811800  0.50000000  1
  Fe  Fe1  1  0.49611400  0.14188200  0.00000000  1
  B  B0  1  0.50240100  0.17224000  0.50000000  1
  B  B1  1  0.00240100  0.82776000  0.00000000  1
  O  O0  1  0.81234000  0.16823600  0.50000000  1
  O  O1  1  0.39330500  0.90836200  0.50000000  1
  O  O2  1  0.90452800  0.69379300  0.78713000  1
  O  O3  1  0.40452800  0.30620700  0.71287000  1
  O  O4  1  0.89330500  0.09163800  0.00000000  1
  O  O5  1  0.31234000  0.83176400  0.00000000  1
  O  O6  1  0.40452800  0.30620700  0.28713000  1
  O  O7  1  0.90452800  0.69379300  0.21287000  1
loop_
_geom_bond_atom_site_label_1
_geom_bond_atom_site_label_2
_geom_bond_distance
_geom_bond_site_symmetry_2
Li0 O0 1.929843 1_555
Li0 O2 1.972291 1_555
Li0 O3 1.993760 1_655
Li0 O4 2.005071 1_556
Li1 O5 1.929843 1_556
Li1 O3 1.972291 1_555
Li1 O2 1.993760 1_555
Li1 O1 2.005071 1_555
Li2 O0 1.929843 1_555
Li2 O7 1.972291 1_555
Li2 O6 1.993760 1_655
Li2 O4 2.005071 1_555
Li3 O5 1.929843 1_555
Li3 O6 1.972291 1_555
Li3 O7 1.993760 1_555
Li3 O1 2.005071 1_555
Fe0 O0 1.881383 1_565
Fe0 O1 1.925680 1_655
Fe0 O7 1.938044 1_555
Fe0 O2 1.938044 1_555
Fe1 O5 1.881383 1_545
Fe1 O4 1.925680 1_555
Fe1 O6 1.938044 1_555
Fe1 O3 1.938044 1_554
B0 O0 1.488057 1_555
B0 O3 1.506022 1_555
B0 O6 1.506022 1_555
B0 O1 1.507818 1_545
B1 O5 1.488057 1_555
B1 O7 1.506022 1_455
B1 O2 1.506022 1_454
B1 O4 1.507818 1_465
