# generated using pymatgen
data_LiFePHO5
_symmetry_space_group_name_H-M   'P 1'
_cell_length_a   5.17902500
_cell_length_b   7.39502601
_cell_length_c   10.65120478
_cell_angle_alpha   104.24989949
_cell_angle_beta   96.72346972
_cell_angle_gamma   109.46248800
_symmetry_Int_Tables_number   1
_chemical_formula_structural   LiFePHO5
_chemical_formula_sum   'Li4 Fe4 P4 H4 O20'
_cell_volume   363.83275988
_cell_formula_units_Z   4
loop_
 _symmetry_equiv_pos_site_id
 _symmetry_equiv_pos_as_xyz
  1  'x, y, z'
loop_
 _atom_site_type_symbol
 _atom_site_label
 _atom_site_symmetry_multiplicity
 _atom_site_fract_x
 _atom_site_fract_y
 _atom_site_fract_z
 _atom_site_occupancy
  Li  Li0  1  0.45183400  0.39585200  0.19940400  1
  Li  Li1  1  0.95493500  0.92081000  0.69745300  1
  Li  Li2  1  0.04827800  0.10813600  0.30005800  1
  Li  Li3  1  0.55050100  0.60630800  0.80036900  1
  Fe  Fe0  1  0.49874400  0.00245400  0.49885000  1
  Fe  Fe1  1  0.50191900  0.50290000  0.50067800  1
  Fe  Fe2  1  0.99974400  0.00193800  0.99920200  1
  Fe  Fe3  1  0.00094300  0.50229100  0.00015400  1
  P  P0  1  0.50509300  0.95065400  0.18016000  1
  P  P1  1  0.00564100  0.44867500  0.68083500  1
  P  P2  1  0.99551100  0.55377900  0.31912200  1
  P  P3  1  0.49459500  0.05520400  0.81911900  1
  H  H0  1  0.82238900  0.81203900  0.46597800  1
  H  H1  1  0.67638500  0.69189500  0.03245900  1
  H  H2  1  0.32681600  0.31323100  0.96857100  1
  H  H3  1  0.17464400  0.19225600  0.53091100  1
  O  O0  1  0.28410500  0.04829800  0.16876900  1
  O  O1  1  0.78125500  0.54269100  0.66881600  1
  O  O2  1  0.18483100  0.30354500  0.02446700  1
  O  O3  1  0.37680300  0.72216400  0.10484100  1
  O  O4  1  0.63666800  0.99346900  0.32804500  1
  O  O5  1  0.68363200  0.80378100  0.52353000  1
  O  O6  1  0.87996000  0.21922800  0.60565200  1
  O  O7  1  0.13748600  0.49169900  0.82852900  1
  O  O8  1  0.75806100  0.05327800  0.12336100  1
  O  O9  1  0.74236400  0.45116100  0.37601400  1
  O  O10  1  0.25784900  0.55227000  0.62398000  1
  O  O11  1  0.24110300  0.95191100  0.87494400  1
  O  O12  1  0.86398200  0.51146400  0.17136600  1
  O  O13  1  0.12341000  0.78275000  0.39466900  1
  O  O14  1  0.31514000  0.20079900  0.47464000  1
  O  O15  1  0.36451000  0.01487200  0.67131300  1
  O  O16  1  0.62339600  0.28341700  0.89560700  1
  O  O17  1  0.81648800  0.70119500  0.97564600  1
  O  O18  1  0.21693900  0.45672700  0.33072700  1
  O  O19  1  0.71609600  0.95790700  0.82981200  1
loop_
_geom_bond_atom_site_label_1
_geom_bond_atom_site_label_2
_geom_bond_distance
_geom_bond_site_symmetry_2
Li0 O2 1.997871 1_555
Li0 O18 2.022988 1_555
Li0 O12 2.105991 1_555
Li0 O9 2.125612 1_555
Li0 O0 2.345170 1_555
Li1 O5 1.986426 1_555
Li1 O19 2.009193 1_555
Li1 O15 2.076355 1_665
Li1 O11 2.173966 1_655
Li1 O1 2.561383 1_555
Li2 O14 1.994318 1_555
Li2 O0 2.024458 1_555
Li2 O4 2.102589 1_445
Li2 O8 2.126311 1_455
Li2 O18 2.352250 1_555
Li3 O17 1.996031 1_555
Li3 O1 2.013736 1_555
Li3 O7 2.109731 1_555
Li3 O10 2.132283 1_555
Li3 O19 2.375699 1_555
Fe0 O4 2.025054 1_545
Fe0 O15 2.030912 1_555
Fe0 O13 2.037751 1_545
Fe0 O14 2.044578 1_555
Fe0 O5 2.052601 1_545
Fe0 O6 2.056477 1_555
Fe1 O9 1.978577 1_555
Fe1 O10 1.978913 1_555
Fe1 O5 2.044506 1_555
Fe1 O14 2.048335 1_555
Fe1 O1 2.058386 1_555
Fe1 O18 2.075087 1_555
Fe2 O11 1.976238 1_645
Fe2 O8 1.979090 1_556
Fe2 O17 2.042759 1_545
Fe2 O2 2.045807 1_656
Fe2 O0 2.069853 1_656
Fe2 O19 2.071385 1_545
Fe3 O12 2.026663 1_455
Fe3 O7 2.029028 1_554
Fe3 O3 2.041163 1_555
Fe3 O16 2.043759 1_454
Fe3 O2 2.048543 1_555
Fe3 O17 2.052140 1_454
H0 O5 0.994109 1_555
H1 O17 0.993703 1_554
H2 O2 0.994345 1_556
H3 O14 0.991358 1_555
O0 P0 1.551558 1_545
O1 P1 1.548426 1_655
O3 P0 1.549138 1_555
O4 P0 1.550830 1_555
O6 P1 1.554676 1_655
O7 P1 1.549029 1_555
O8 P0 1.551590 1_545
O9 P2 1.552855 1_555
O10 P1 1.551301 1_555
O11 P3 1.548776 1_565
O12 P2 1.550229 1_555
O13 P2 1.552534 1_455
O15 P3 1.551738 1_555
O16 P3 1.550006 1_555
O18 P2 1.550621 1_455
O19 P3 1.551265 1_565
