# generated using pymatgen
data_LiVF5
_symmetry_space_group_name_H-M   'P 1'
_cell_length_a   6.24420100
_cell_length_b   6.38413300
_cell_length_c   9.04962300
_cell_angle_alpha   90.00000000
_cell_angle_beta   90.00000000
_cell_angle_gamma   90.00000000
_symmetry_Int_Tables_number   1
_chemical_formula_structural   LiVF5
_chemical_formula_sum   'Li4 V4 F20'
_cell_volume   360.75244879
_cell_formula_units_Z   4
loop_
 _symmetry_equiv_pos_site_id
 _symmetry_equiv_pos_as_xyz
  1  'x, y, z'
loop_
 _atom_site_type_symbol
 _atom_site_label
 _atom_site_symmetry_multiplicity
 _atom_site_fract_x
 _atom_site_fract_y
 _atom_site_fract_z
 _atom_site_occupancy
  Li  Li0  1  0.54350900  0.77899900  0.14821300  1
  Li  Li1  1  0.04350900  0.27899900  0.35178700  1
  Li  Li2  1  0.95649100  0.77899900  0.64821300  1
  Li  Li3  1  0.45649100  0.27899900  0.85178700  1
  V  V0  1  0.07896100  0.00027600  0.00556600  1
  V  V1  1  0.57896100  0.50027600  0.49443400  1
  V  V2  1  0.42103900  0.00027600  0.50556600  1
  V  V3  1  0.92103900  0.50027600  0.99443400  1
  F  F0  1  0.37298400  0.00053000  0.00843100  1
  F  F1  1  0.82875200  0.19208700  0.00358200  1
  F  F2  1  0.82709300  0.80734300  0.04298400  1
  F  F3  1  0.98637300  0.47338800  0.19425300  1
  F  F4  1  0.06575100  0.04117800  0.20948500  1
  F  F5  1  0.56575100  0.54117800  0.29051500  1
  F  F6  1  0.48637300  0.97338800  0.30574700  1
  F  F7  1  0.32709300  0.30734300  0.45701600  1
  F  F8  1  0.32875200  0.69208700  0.49641800  1
  F  F9  1  0.87298400  0.50053000  0.49156900  1
  F  F10  1  0.12701600  0.00053000  0.50843100  1
  F  F11  1  0.67124800  0.19208700  0.50358200  1
  F  F12  1  0.67290700  0.80734300  0.54298400  1
  F  F13  1  0.51362700  0.47338800  0.69425300  1
  F  F14  1  0.43424900  0.04117800  0.70948500  1
  F  F15  1  0.93424900  0.54117800  0.79051500  1
  F  F16  1  0.01362700  0.97338800  0.80574700  1
  F  F17  1  0.17290700  0.30734300  0.95701600  1
  F  F18  1  0.17124800  0.69208700  0.99641800  1
  F  F19  1  0.62701600  0.50053000  0.99156900  1
loop_
_geom_bond_atom_site_label_1
_geom_bond_atom_site_label_2
_geom_bond_distance
_geom_bond_site_symmetry_2
F0 V0 1.836122 1_555
F0 Li0 2.175808 1_545
F0 Li3 2.332790 1_554
F1 V0 1.985143 1_655
F1 V3 2.051843 1_554
F2 Li0 2.018703 1_555
F2 V0 2.026130 1_665
F2 V3 2.092882 1_554
F3 V3 1.861665 1_554
F3 Li1 1.923481 1_655
F4 V0 1.865598 1_555
F4 Li1 1.995706 1_555
F5 V1 1.865598 1_555
F5 Li0 1.995706 1_555
F6 V2 1.861665 1_565
F6 Li0 1.923481 1_555
F7 Li1 2.018703 1_555
F7 V1 2.026130 1_555
F7 V2 2.092882 1_555
F8 V1 1.985143 1_555
F8 V2 2.051843 1_565
F9 V1 1.836122 1_555
F9 Li1 2.175808 1_655
F9 Li2 2.332790 1_555
F10 V2 1.836122 1_555
F10 Li2 2.175808 1_445
F10 Li1 2.332790 1_555
F11 V2 1.985143 1_555
F11 V1 2.051843 1_555
F12 Li2 2.018703 1_555
F12 V2 2.026130 1_565
F12 V1 2.092882 1_555
F13 V1 1.861665 1_555
F13 Li3 1.923481 1_555
F14 V2 1.865598 1_555
F14 Li3 1.995706 1_555
F15 V3 1.865598 1_555
F15 Li2 1.995706 1_555
F16 V0 1.861665 1_566
F16 Li2 1.923481 1_455
F17 Li3 2.018703 1_555
F17 V3 2.026130 1_455
F17 V0 2.092882 1_556
F18 V3 1.985143 1_455
F18 V0 2.051843 1_566
F19 V3 1.836122 1_555
F19 Li3 2.175808 1_555
F19 Li0 2.332790 1_556
