# generated using pymatgen
data_Ba2B2O5
_symmetry_space_group_name_H-M   'P 1'
_cell_length_a   5.53953799
_cell_length_b   8.49812913
_cell_length_c   12.28023391
_cell_angle_alpha   87.79405888
_cell_angle_beta   90.00000000
_cell_angle_gamma   90.00000000
_symmetry_Int_Tables_number   1
_chemical_formula_structural   Ba2B2O5
_chemical_formula_sum   'Ba8 B8 O20'
_cell_volume   577.67230709
_cell_formula_units_Z   4
loop_
 _symmetry_equiv_pos_site_id
 _symmetry_equiv_pos_as_xyz
  1  'x, y, z'
loop_
 _atom_site_type_symbol
 _atom_site_label
 _atom_site_symmetry_multiplicity
 _atom_site_fract_x
 _atom_site_fract_y
 _atom_site_fract_z
 _atom_site_occupancy
  Ba  Ba0  1  0.03359484  0.61540482  0.13386491  1
  Ba  Ba1  1  0.08012000  0.12018050  0.15291039  1
  Ba  Ba2  1  0.58012000  0.87981950  0.34708961  1
  Ba  Ba3  1  0.53359484  0.38459518  0.36613509  1
  Ba  Ba4  1  0.46640516  0.61540482  0.63386491  1
  Ba  Ba5  1  0.41988000  0.12018050  0.65291039  1
  Ba  Ba6  1  0.91988000  0.87981950  0.84708961  1
  Ba  Ba7  1  0.96640516  0.38459518  0.86613509  1
  B  B0  1  0.53566557  0.33986528  0.07835803  1
  B  B1  1  0.56084203  0.83444652  0.09523440  1
  B  B2  1  0.06084203  0.16555348  0.40476560  1
  B  B3  1  0.03566557  0.66013472  0.42164197  1
  B  B4  1  0.96433443  0.33986528  0.57835803  1
  B  B5  1  0.93915797  0.83444652  0.59523440  1
  B  B6  1  0.43915797  0.16555348  0.90476560  1
  B  B7  1  0.46433443  0.66013472  0.92164197  1
  O  O0  1  0.39861546  0.25833473  0.99764903  1
  O  O1  1  0.77950879  0.35045991  0.07277640  1
  O  O2  1  0.76897318  0.89049841  0.13917732  1
  O  O3  1  0.34165889  0.85404939  0.14117247  1
  O  O4  1  0.39276111  0.39477892  0.15889488  1
  O  O5  1  0.89276111  0.60522108  0.34110512  1
  O  O6  1  0.84165889  0.14595061  0.35882753  1
  O  O7  1  0.26897318  0.10950159  0.36082268  1
  O  O8  1  0.27950879  0.64954009  0.42722360  1
  O  O9  1  0.10138454  0.25833473  0.49764903  1
  O  O10  1  0.89861546  0.74166527  0.50235097  1
  O  O11  1  0.72049121  0.35045991  0.57277640  1
  O  O12  1  0.73102682  0.89049841  0.63917732  1
  O  O13  1  0.15834111  0.85404939  0.64117247  1
  O  O14  1  0.10723889  0.39477892  0.65889488  1
  O  O15  1  0.60723889  0.60522108  0.84110512  1
  O  O16  1  0.65834111  0.14595061  0.85882753  1
  O  O17  1  0.23102682  0.10950159  0.86082268  1
  O  O18  1  0.22049121  0.64954009  0.92722360  1
  O  O19  1  0.60138454  0.74166527  0.00235097  1
loop_
_geom_bond_atom_site_label_1
_geom_bond_atom_site_label_2
_geom_bond_distance
_geom_bond_site_symmetry_2
Ba0 O3 2.654662 1_555
Ba0 O5 2.660073 1_455
Ba0 O4 2.742984 1_555
Ba0 O18 2.745687 1_554
Ba0 O2 2.762250 1_455
Ba0 O1 2.782683 1_455
Ba0 O19 3.059181 1_455
Ba1 O2 2.614269 1_445
Ba1 O3 2.694405 1_545
Ba1 O1 2.724484 1_455
Ba1 O7 2.757487 1_555
Ba1 O0 2.820317 1_554
Ba1 O6 2.868783 1_455
Ba1 O4 2.909227 1_555
Ba2 O7 2.614269 1_565
Ba2 O6 2.694405 1_565
Ba2 O8 2.724484 1_555
Ba2 O2 2.757487 1_555
Ba2 O10 2.820317 1_555
Ba2 O3 2.868783 1_555
Ba2 O5 2.909227 1_555
Ba3 O6 2.654662 1_555
Ba3 O4 2.660073 1_555
Ba3 O5 2.742984 1_555
Ba3 O11 2.745687 1_555
Ba3 O7 2.762250 1_555
Ba3 O8 2.782683 1_555
Ba3 O9 3.059181 1_555
Ba4 O13 2.654662 1_555
Ba4 O15 2.660073 1_555
Ba4 O14 2.742984 1_555
Ba4 O8 2.745687 1_555
Ba4 O12 2.762250 1_555
Ba4 O11 2.782683 1_555
Ba4 O10 3.059181 1_555
Ba5 O12 2.614269 1_545
Ba5 O13 2.694405 1_545
Ba5 O11 2.724484 1_555
Ba5 O17 2.757487 1_555
Ba5 O9 2.820317 1_555
Ba5 O16 2.868783 1_555
Ba5 O14 2.909227 1_555
Ba6 O17 2.614269 1_665
Ba6 O16 2.694405 1_565
Ba6 O18 2.724484 1_655
Ba6 O12 2.757487 1_555
Ba6 O19 2.820317 1_556
Ba6 O13 2.868783 1_655
Ba6 O15 2.909227 1_555
Ba7 O16 2.654662 1_555
Ba7 O14 2.660073 1_655
Ba7 O15 2.742984 1_555
Ba7 O1 2.745687 1_556
Ba7 O17 2.762250 1_655
Ba7 O18 2.782683 1_655
Ba7 O0 3.059181 1_655
B0 O1 1.355335 1_555
B0 O4 1.363128 1_555
B0 O0 1.446244 1_554
B1 O3 1.351831 1_555
B1 O2 1.366447 1_555
B1 O19 1.429123 1_555
B2 O6 1.351831 1_455
B2 O7 1.366447 1_555
B2 O9 1.429123 1_555
B3 O8 1.355335 1_555
B3 O5 1.363128 1_455
B3 O10 1.446244 1_455
B4 O11 1.355335 1_555
B4 O14 1.363128 1_655
B4 O9 1.446244 1_655
B5 O13 1.351831 1_655
B5 O12 1.366447 1_555
B5 O10 1.429123 1_555
B6 O16 1.351831 1_555
B6 O17 1.366447 1_555
B6 O0 1.429123 1_555
B7 O18 1.355335 1_555
B7 O15 1.363128 1_555
B7 O19 1.446244 1_556
