# generated using pymatgen
data_FeOF
_symmetry_space_group_name_H-M   'P 1'
_cell_length_a   3.09897900
_cell_length_b   6.71518200
_cell_length_c   10.61099044
_cell_angle_alpha   71.66299990
_cell_angle_beta   90.00000000
_cell_angle_gamma   90.00000000
_symmetry_Int_Tables_number   1
_chemical_formula_structural   FeOF
_chemical_formula_sum   'Fe6 O6 F6'
_cell_volume   209.60438972
_cell_formula_units_Z   6
loop_
 _symmetry_equiv_pos_site_id
 _symmetry_equiv_pos_as_xyz
  1  'x, y, z'
loop_
 _atom_site_type_symbol
 _atom_site_label
 _atom_site_symmetry_multiplicity
 _atom_site_fract_x
 _atom_site_fract_y
 _atom_site_fract_z
 _atom_site_occupancy
  Fe  Fe0  1  0.00000000  0.02730100  0.98880200  1
  Fe  Fe1  1  0.00000000  0.64948000  0.65573900  1
  Fe  Fe2  1  0.00000000  0.31741100  0.32189000  1
  Fe  Fe3  1  0.50000000  0.17424900  0.68193600  1
  Fe  Fe4  1  0.50000000  0.84191700  0.34819400  1
  Fe  Fe5  1  0.50000000  0.47796900  0.01507100  1
  O  O0  1  0.50000000  0.47119900  0.66778400  1
  O  O1  1  0.50000000  0.14009800  0.33127000  1
  O  O2  1  0.00000000  0.09307800  0.79592300  1
  O  O3  1  0.00000000  0.76922400  0.46262200  1
  O  O4  1  0.00000000  0.44456700  0.12912500  1
  O  O5  1  0.50000000  0.19550900  0.99956300  1
  F  F0  1  0.50000000  0.80456700  0.99934000  1
  F  F1  1  0.00000000  0.23344600  0.53464400  1
  F  F2  1  0.00000000  0.89111200  0.20144000  1
  F  F3  1  0.00000000  0.57426700  0.86814800  1
  F  F4  1  0.50000000  0.86428900  0.66455700  1
  F  F5  1  0.50000000  0.53032200  0.33395000  1
loop_
_geom_bond_atom_site_label_1
_geom_bond_atom_site_label_2
_geom_bond_distance
_geom_bond_site_symmetry_2
Fe0 O5 1.941903 1_455
Fe0 O5 1.941903 1_555
Fe0 O2 1.953206 1_555
Fe1 O0 1.937586 1_455
Fe1 O0 1.937586 1_555
Fe1 O3 1.951634 1_555
Fe2 O1 1.937523 1_455
Fe2 O1 1.937523 1_555
Fe2 O4 1.952930 1_555
Fe3 O2 1.935492 1_555
Fe3 O2 1.935492 1_655
Fe3 O0 1.952041 1_555
Fe4 O3 1.934047 1_655
Fe4 O3 1.934047 1_555
Fe4 O1 1.953295 1_565
Fe5 O4 1.935219 1_555
Fe5 O4 1.935219 1_655
Fe5 O5 1.954791 1_554
F0 Fe0 2.131972 1_665
F0 Fe0 2.131972 1_565
F0 Fe5 2.146506 1_556
F1 Fe3 2.147258 1_555
F1 Fe3 2.147258 1_455
F1 Fe2 2.147893 1_555
F2 Fe4 2.147383 1_455
F2 Fe4 2.147383 1_555
F2 Fe0 2.151490 1_564
F3 Fe5 2.148308 1_556
F3 Fe5 2.148308 1_456
F3 Fe1 2.149129 1_555
F4 Fe1 2.139007 1_655
F4 Fe1 2.139007 1_555
F4 Fe3 2.146603 1_565
F5 Fe2 2.139290 1_555
F5 Fe2 2.139290 1_655
F5 Fe4 2.144771 1_555
