# generated using pymatgen
data_Fe4O5F3
_symmetry_space_group_name_H-M   'P 1'
_cell_length_a   6.13250200
_cell_length_b   4.70936000
_cell_length_c   9.40826298
_cell_angle_alpha   87.50693491
_cell_angle_beta   90.00000000
_cell_angle_gamma   90.00000000
_symmetry_Int_Tables_number   1
_chemical_formula_structural   Fe4O5F3
_chemical_formula_sum   'Fe8 O10 F6'
_cell_volume   271.45495935
_cell_formula_units_Z   2
loop_
 _symmetry_equiv_pos_site_id
 _symmetry_equiv_pos_as_xyz
  1  'x, y, z'
loop_
 _atom_site_type_symbol
 _atom_site_label
 _atom_site_symmetry_multiplicity
 _atom_site_fract_x
 _atom_site_fract_y
 _atom_site_fract_z
 _atom_site_occupancy
  Fe  Fe0  1  0.24988300  0.00042200  0.00094000  1
  Fe  Fe1  1  0.75003800  0.01398200  0.99161600  1
  Fe  Fe2  1  0.24996200  0.01398200  0.49161600  1
  Fe  Fe3  1  0.75011700  0.00042200  0.50094000  1
  Fe  Fe4  1  0.50470800  0.52512100  0.77180100  1
  Fe  Fe5  1  0.99172100  0.45600400  0.73756300  1
  Fe  Fe6  1  0.49529200  0.52512100  0.27180100  1
  Fe  Fe7  1  0.00827900  0.45600400  0.23756300  1
  O  O0  1  0.99764800  0.17599300  0.58944000  1
  O  O1  1  0.00235200  0.17599300  0.08944000  1
  O  O2  1  0.24809700  0.30469300  0.84761300  1
  O  O3  1  0.74820200  0.30774900  0.84690400  1
  O  O4  1  0.25179800  0.30774900  0.34690400  1
  O  O5  1  0.75190300  0.30469300  0.34761300  1
  O  O6  1  0.74831700  0.69753900  0.65231200  1
  O  O7  1  0.25168300  0.69753900  0.15231200  1
  O  O8  1  0.49476800  0.82174900  0.91154400  1
  O  O9  1  0.50523200  0.82174900  0.41154400  1
  F  F0  1  0.49344400  0.20451500  0.60246500  1
  F  F1  1  0.50655600  0.20451500  0.10246600  1
  F  F2  1  0.24852500  0.69654100  0.65015800  1
  F  F3  1  0.75147500  0.69654100  0.15015800  1
  F  F4  1  0.00150900  0.79569000  0.39764100  1
  F  F5  1  0.99849100  0.79569000  0.89764100  1
loop_
_geom_bond_atom_site_label_1
_geom_bond_atom_site_label_2
_geom_bond_distance
_geom_bond_site_symmetry_2
Fe0 O8 1.931901 1_544
Fe0 O1 1.934189 1_555
Fe0 O7 1.971337 1_545
Fe0 O2 1.988588 1_554
Fe1 O3 1.898384 1_555
Fe1 O1 1.970900 1_656
Fe1 O8 1.974088 1_545
Fe2 O4 1.898384 1_555
Fe2 O0 1.970900 1_455
Fe2 O9 1.974088 1_545
Fe3 O9 1.931901 1_545
Fe3 O0 1.934189 1_555
Fe3 O6 1.971337 1_545
Fe3 O5 1.988588 1_555
Fe4 O3 1.927173 1_555
Fe4 O8 1.960469 1_555
Fe4 O2 1.999588 1_555
Fe4 O6 2.018792 1_555
Fe5 O3 1.927021 1_555
Fe5 O0 1.960142 1_555
Fe5 O2 1.996870 1_655
Fe5 O6 2.021353 1_555
Fe6 O4 1.927173 1_555
Fe6 O9 1.960469 1_555
Fe6 O5 1.999588 1_555
Fe6 O7 2.018792 1_555
Fe7 O4 1.927021 1_555
Fe7 O1 1.960142 1_555
Fe7 O5 1.996870 1_455
Fe7 O7 2.021353 1_555
F0 Fe2 2.050287 1_555
F0 Fe3 2.096105 1_555
F0 Fe4 2.243174 1_555
F1 Fe1 2.050292 1_554
F1 Fe0 2.096110 1_555
F1 Fe6 2.243168 1_555
F2 Fe2 2.065388 1_565
F2 Fe4 2.085489 1_555
F2 Fe5 2.087707 1_455
F3 Fe1 2.065388 1_564
F3 Fe6 2.085489 1_555
F3 Fe7 2.087707 1_655
F4 Fe2 2.058900 1_565
F4 Fe3 2.081432 1_465
F4 Fe7 2.244677 1_555
F5 Fe1 2.058900 1_565
F5 Fe0 2.081432 1_666
F5 Fe5 2.244677 1_555
