# generated using pymatgen
data_K3Fe3P4H2O17
_symmetry_space_group_name_H-M   'P 1'
_cell_length_a   6.63132900
_cell_length_b   10.91409400
_cell_length_c   21.04297000
_cell_angle_alpha   90.00000000
_cell_angle_beta   90.00000000
_cell_angle_gamma   90.00000000
_symmetry_Int_Tables_number   1
_chemical_formula_structural   K3Fe3P4H2O17
_chemical_formula_sum   'K12 Fe12 P16 H8 O68'
_cell_volume   1522.98386059
_cell_formula_units_Z   4
loop_
 _symmetry_equiv_pos_site_id
 _symmetry_equiv_pos_as_xyz
  1  'x, y, z'
loop_
 _atom_site_type_symbol
 _atom_site_label
 _atom_site_symmetry_multiplicity
 _atom_site_fract_x
 _atom_site_fract_y
 _atom_site_fract_z
 _atom_site_occupancy
  K  K0  1  0.81367100  0.25000000  0.50000000  1
  K  K1  1  0.68632900  0.25000000  0.00000000  1
  K  K2  1  0.18632900  0.75000000  0.50000000  1
  K  K3  1  0.31367100  0.75000000  0.00000000  1
  K  K4  1  0.64179500  0.51147000  0.40444300  1
  K  K5  1  0.64179500  0.98853000  0.59555700  1
  K  K6  1  0.85820500  0.51147000  0.09555700  1
  K  K7  1  0.85820500  0.98853000  0.90444300  1
  K  K8  1  0.35820500  0.48853000  0.59555700  1
  K  K9  1  0.35820500  0.01147000  0.40444300  1
  K  K10  1  0.14179500  0.48853000  0.90444300  1
  K  K11  1  0.14179500  0.01147000  0.09555700  1
  Fe  Fe0  1  0.75000000  0.00200200  0.25000000  1
  Fe  Fe1  1  0.75000000  0.49799800  0.75000000  1
  Fe  Fe2  1  0.25000000  0.99799800  0.75000000  1
  Fe  Fe3  1  0.25000000  0.50200200  0.25000000  1
  Fe  Fe4  1  0.00062600  0.25154800  0.33750300  1
  Fe  Fe5  1  0.00062600  0.24845200  0.66249700  1
  Fe  Fe6  1  0.49937400  0.25154800  0.16249700  1
  Fe  Fe7  1  0.49937400  0.24845200  0.83750300  1
  Fe  Fe8  1  0.99937400  0.74845200  0.66249700  1
  Fe  Fe9  1  0.99937400  0.75154800  0.33750300  1
  Fe  Fe10  1  0.50062600  0.74845200  0.83750300  1
  Fe  Fe11  1  0.50062600  0.75154800  0.16249700  1
  P  P0  1  0.50023700  0.75260200  0.29501300  1
  P  P1  1  0.50023700  0.74739800  0.70498700  1
  P  P2  1  0.99976300  0.75260200  0.20498700  1
  P  P3  1  0.99976300  0.74739800  0.79501300  1
  P  P4  1  0.49976300  0.24739800  0.70498700  1
  P  P5  1  0.49976300  0.25260200  0.29501300  1
  P  P6  1  0.00023700  0.24739800  0.79501300  1
  P  P7  1  0.00023700  0.25260200  0.20498700  1
  P  P8  1  0.85154700  0.50063300  0.59750900  1
  P  P9  1  0.85154700  0.99936700  0.40249100  1
  P  P10  1  0.64845300  0.50063300  0.90249100  1
  P  P11  1  0.64845300  0.99936700  0.09750900  1
  P  P12  1  0.14845300  0.49936700  0.40249100  1
  P  P13  1  0.14845300  0.00063300  0.59750900  1
  P  P14  1  0.35154700  0.49936700  0.09750900  1
  P  P15  1  0.35154700  0.00063300  0.90249100  1
  H  H0  1  0.32225400  0.18063900  0.51329100  1
  H  H1  1  0.32225400  0.31936100  0.48670900  1
  H  H2  1  0.17774600  0.18063900  0.98670900  1
  H  H3  1  0.17774600  0.31936100  0.01329100  1
  H  H4  1  0.67774600  0.81936100  0.48670900  1
  H  H5  1  0.67774600  0.68063900  0.51329100  1
  H  H6  1  0.82225400  0.81936100  0.01329100  1
  H  H7  1  0.82225400  0.68063900  0.98670900  1
  O  O0  1  0.31621100  0.77762700  0.33716900  1
  O  O1  1  0.31621100  0.72237300  0.66283100  1
  O  O2  1  0.18378900  0.77762700  0.16283100  1
  O  O3  1  0.18378900  0.72237300  0.83716900  1
  O  O4  1  0.68378900  0.22237300  0.66283100  1
  O  O5  1  0.68378900  0.27762700  0.33716900  1
  O  O6  1  0.81621100  0.22237300  0.83716900  1
  O  O7  1  0.81621100  0.27762700  0.16283100  1
  O  O8  1  0.53543200  0.86086900  0.24554900  1
  O  O9  1  0.53543200  0.63913100  0.75445100  1
  O  O10  1  0.96456800  0.86086900  0.25445100  1
  O  O11  1  0.96456800  0.63913100  0.74554900  1
  O  O12  1  0.46456800  0.13913100  0.75445100  1
  O  O13  1  0.46456800  0.36086900  0.24554900  1
  O  O14  1  0.03543200  0.13913100  0.74554900  1
  O  O15  1  0.03543200  0.36086900  0.25445100  1
  O  O16  1  0.68957700  0.72570900  0.33457900  1
  O  O17  1  0.68957700  0.77429100  0.66542100  1
  O  O18  1  0.81042300  0.72570900  0.16542100  1
  O  O19  1  0.81042300  0.77429100  0.83457900  1
  O  O20  1  0.31042300  0.27429100  0.66542100  1
  O  O21  1  0.31042300  0.22570900  0.33457900  1
  O  O22  1  0.18957700  0.27429100  0.83457900  1
  O  O23  1  0.18957700  0.22570900  0.16542100  1
  O  O24  1  0.46098600  0.64447700  0.24558000  1
  O  O25  1  0.46098600  0.85552300  0.75442000  1
  O  O26  1  0.03901400  0.64447700  0.25442000  1
  O  O27  1  0.03901400  0.85552300  0.74558000  1
  O  O28  1  0.53901400  0.35552300  0.75442000  1
  O  O29  1  0.53901400  0.14447700  0.24558000  1
  O  O30  1  0.96098600  0.35552300  0.74558000  1
  O  O31  1  0.96098600  0.14447700  0.25442000  1
  O  O32  1  0.98584300  0.38245300  0.60057000  1
  O  O33  1  0.98584300  0.11754700  0.39943000  1
  O  O34  1  0.51415700  0.38245300  0.89943000  1
  O  O35  1  0.51415700  0.11754700  0.10057000  1
  O  O36  1  0.01415700  0.61754700  0.39943000  1
  O  O37  1  0.01415700  0.88245300  0.60057000  1
  O  O38  1  0.48584300  0.61754700  0.10057000  1
  O  O39  1  0.48584300  0.88245300  0.89943000  1
  O  O40  1  0.99624900  0.61391500  0.60105200  1
  O  O41  1  0.99624900  0.88608500  0.39894800  1
  O  O42  1  0.50375100  0.61391500  0.89894800  1
  O  O43  1  0.50375100  0.88608500  0.10105200  1
  O  O44  1  0.00375100  0.38608500  0.39894800  1
  O  O45  1  0.00375100  0.11391500  0.60105200  1
  O  O46  1  0.49624900  0.38608500  0.10105200  1
  O  O47  1  0.49624900  0.11391500  0.89894800  1
  O  O48  1  0.72850800  0.50335300  0.53648900  1
  O  O49  1  0.72850800  0.99664700  0.46351100  1
  O  O50  1  0.77149200  0.50335300  0.96351100  1
  O  O51  1  0.77149200  0.99664700  0.03648900  1
  O  O52  1  0.27149200  0.49664700  0.46351100  1
  O  O53  1  0.27149200  0.00335300  0.53648900  1
  O  O54  1  0.22850800  0.49664700  0.03648900  1
  O  O55  1  0.22850800  0.00335300  0.96351100  1
  O  O56  1  0.71470000  0.50100500  0.65766100  1
  O  O57  1  0.71470000  0.99899500  0.34233900  1
  O  O58  1  0.78530000  0.50100500  0.84233900  1
  O  O59  1  0.78530000  0.99899500  0.15766100  1
  O  O60  1  0.28530000  0.49899500  0.34233900  1
  O  O61  1  0.28530000  0.00100500  0.65766100  1
  O  O62  1  0.21470000  0.49899500  0.15766100  1
  O  O63  1  0.21470000  0.00100500  0.84233900  1
  O  O64  1  0.40690200  0.25000000  0.50000000  1
  O  O65  1  0.09309800  0.25000000  0.00000000  1
  O  O66  1  0.59309800  0.75000000  0.50000000  1
  O  O67  1  0.90690200  0.75000000  0.00000000  1
loop_
_geom_bond_atom_site_label_1
_geom_bond_atom_site_label_2
_geom_bond_distance
_geom_bond_site_symmetry_2
K0 O64 2.697419 1_555
K0 O33 2.805710 1_555
K0 O32 2.805710 1_555
K0 O44 2.883833 1_655
K0 O45 2.883833 1_655
K0 O48 2.924789 1_555
K0 O49 2.924789 1_545
K1 O65 2.697419 1_655
K1 O35 2.805710 1_555
K1 O34 2.805710 1_554
K1 O46 2.883833 1_555
K1 O47 2.883833 1_554
K1 O51 2.924789 1_545
K1 O50 2.924789 1_554
K2 O66 2.697419 1_555
K2 O36 2.805710 1_555
K2 O37 2.805710 1_555
K2 O41 2.883833 1_455
K2 O40 2.883833 1_455
K2 O53 2.924789 1_565
K2 O52 2.924789 1_555
K3 O67 2.697419 1_455
K3 O38 2.805710 1_555
K3 O39 2.805710 1_554
K3 O43 2.883833 1_555
K3 O42 2.883833 1_554
K3 O55 2.924789 1_564
K3 O54 2.924789 1_555
K4 O60 2.704638 1_555
K4 O36 2.729230 1_655
K4 O52 2.757012 1_555
K4 O44 2.765368 1_655
K4 O16 2.780112 1_555
K4 O48 2.838898 1_555
K4 O5 2.931765 1_555
K5 O61 2.704638 1_565
K5 O37 2.729230 1_655
K5 O53 2.757012 1_565
K5 O45 2.765368 1_665
K5 O17 2.780112 1_555
K5 O49 2.838898 1_555
K5 O4 2.931765 1_565
K6 O62 2.704638 1_655
K6 O38 2.729230 1_555
K6 O54 2.757012 1_655
K6 O46 2.765368 1_555
K6 O18 2.780112 1_555
K6 O50 2.838898 1_554
K6 O7 2.931765 1_555
K7 O63 2.704638 1_665
K7 O39 2.729230 1_555
K7 O55 2.757012 1_665
K7 O47 2.765368 1_565
K7 O19 2.780112 1_555
K7 O51 2.838898 1_556
K7 O6 2.931765 1_565
K8 O56 2.704638 1_555
K8 O32 2.729230 1_455
K8 O48 2.757012 1_555
K8 O40 2.765368 1_455
K8 O20 2.780112 1_555
K8 O52 2.838898 1_555
K8 O1 2.931765 1_555
K9 O57 2.704638 1_545
K9 O33 2.729230 1_455
K9 O49 2.757012 1_545
K9 O41 2.765368 1_445
K9 O21 2.780112 1_555
K9 O53 2.838898 1_555
K9 O0 2.931765 1_545
K10 O58 2.704638 1_455
K10 O34 2.729230 1_555
K10 O50 2.757012 1_455
K10 O42 2.765368 1_555
K10 O22 2.780112 1_555
K10 O54 2.838898 1_556
K10 O3 2.931765 1_555
K11 O59 2.704638 1_445
K11 O35 2.729230 1_555
K11 O51 2.757012 1_445
K11 O43 2.765368 1_545
K11 O23 2.780112 1_555
K11 O55 2.838898 1_554
K11 O2 2.931765 1_545
Fe0 O59 1.957411 1_545
Fe0 O57 1.957411 1_545
Fe0 O31 2.093839 1_555
Fe0 O29 2.093839 1_555
Fe0 O8 2.099042 1_545
Fe0 O10 2.099042 1_545
Fe1 O58 1.957411 1_555
Fe1 O56 1.957411 1_555
Fe1 O30 2.093839 1_555
Fe1 O28 2.093839 1_555
Fe1 O9 2.099042 1_555
Fe1 O11 2.099042 1_555
Fe2 O63 1.957411 1_565
Fe2 O61 1.957411 1_565
Fe2 O27 2.093839 1_555
Fe2 O25 2.093839 1_555
Fe2 O14 2.099042 1_565
Fe2 O12 2.099042 1_565
Fe3 O60 1.957411 1_555
Fe3 O62 1.957411 1_555
Fe3 O24 2.093839 1_555
Fe3 O26 2.093839 1_555
Fe3 O13 2.099042 1_555
Fe3 O15 2.099042 1_555
Fe4 O44 1.956602 1_555
Fe4 O33 1.961290 1_455
Fe4 O21 2.074544 1_555
Fe4 O31 2.119265 1_455
Fe4 O5 2.120254 1_455
Fe4 O15 2.128655 1_555
Fe5 O45 1.956602 1_555
Fe5 O32 1.961290 1_455
Fe5 O20 2.074544 1_555
Fe5 O30 2.119265 1_455
Fe5 O4 2.120254 1_455
Fe5 O14 2.128655 1_555
Fe6 O46 1.956602 1_555
Fe6 O35 1.961290 1_555
Fe6 O23 2.074544 1_555
Fe6 O29 2.119265 1_555
Fe6 O7 2.120254 1_555
Fe6 O13 2.128655 1_555
Fe7 O47 1.956602 1_555
Fe7 O34 1.961290 1_555
Fe7 O22 2.074544 1_555
Fe7 O28 2.119265 1_555
Fe7 O6 2.120254 1_555
Fe7 O12 2.128655 1_555
Fe8 O40 1.956602 1_555
Fe8 O37 1.961290 1_655
Fe8 O17 2.074544 1_555
Fe8 O27 2.119265 1_655
Fe8 O1 2.120254 1_655
Fe8 O11 2.128655 1_555
Fe9 O41 1.956602 1_555
Fe9 O36 1.961290 1_655
Fe9 O16 2.074544 1_555
Fe9 O26 2.119265 1_655
Fe9 O0 2.120254 1_655
Fe9 O10 2.128655 1_555
Fe10 O42 1.956602 1_555
Fe10 O39 1.961290 1_555
Fe10 O19 2.074544 1_555
Fe10 O25 2.119265 1_555
Fe10 O3 2.120254 1_555
Fe10 O9 2.128655 1_555
Fe11 O43 1.956602 1_555
Fe11 O38 1.961290 1_555
Fe11 O18 2.074544 1_555
Fe11 O24 2.119265 1_555
Fe11 O2 2.120254 1_555
Fe11 O8 2.128655 1_555
H0 O64 0.983046 1_555
H1 O64 0.983046 1_555
H2 O65 0.983046 1_556
H3 O65 0.983046 1_555
H4 O66 0.983046 1_555
H5 O66 0.983046 1_555
H6 O67 0.983046 1_555
H7 O67 0.983046 1_556
O0 P0 1.533214 1_555
O1 P1 1.533214 1_555
O2 P2 1.533214 1_455
O3 P3 1.533214 1_455
O4 P4 1.533214 1_555
O5 P5 1.533214 1_555
O6 P6 1.533214 1_655
O7 P7 1.533214 1_655
O8 P0 1.591900 1_555
O9 P1 1.591900 1_555
O10 P2 1.591900 1_555
O11 P3 1.591900 1_555
O12 P4 1.591900 1_555
O13 P5 1.591900 1_555
O14 P6 1.591900 1_555
O15 P7 1.591900 1_555
O16 P0 1.534868 1_555
O17 P1 1.534868 1_555
O18 P2 1.534868 1_555
O19 P3 1.534868 1_555
O20 P4 1.534868 1_555
O21 P5 1.534868 1_555
O22 P6 1.534868 1_555
O23 P7 1.534868 1_555
O24 P0 1.594492 1_555
O25 P1 1.594492 1_555
O26 P2 1.594492 1_455
O27 P3 1.594492 1_455
O28 P4 1.594492 1_555
O29 P5 1.594492 1_555
O30 P6 1.594492 1_655
O31 P7 1.594492 1_655
O32 P8 1.568727 1_555
O33 P9 1.568727 1_545
O34 P10 1.568727 1_555
O35 P11 1.568727 1_545
O36 P12 1.568727 1_555
O37 P13 1.568727 1_565
O38 P14 1.568727 1_555
O39 P15 1.568727 1_565
O40 P8 1.566824 1_555
O41 P9 1.566824 1_555
O42 P10 1.566824 1_555
O43 P11 1.566824 1_555
O44 P12 1.566824 1_555
O45 P13 1.566824 1_555
O46 P14 1.566824 1_555
O47 P15 1.566824 1_555
O48 P8 1.521630 1_555
O49 P9 1.521630 1_555
O50 P10 1.521630 1_555
O51 P11 1.521630 1_555
O52 P12 1.521630 1_555
O53 P13 1.521630 1_555
O54 P14 1.521630 1_555
O55 P15 1.521630 1_555
O56 P8 1.557473 1_555
O57 P9 1.557473 1_555
O58 P10 1.557473 1_555
O59 P11 1.557473 1_555
O60 P12 1.557473 1_555
O61 P13 1.557473 1_555
O62 P14 1.557473 1_555
O63 P15 1.557473 1_555
