# generated using pymatgen
data_Li3Co8(OF3)4
_symmetry_space_group_name_H-M   'P 1'
_cell_length_a   6.11977224
_cell_length_b   6.11977224
_cell_length_c   10.34510715
_cell_angle_alpha   72.42297165
_cell_angle_beta   72.42297165
_cell_angle_gamma   59.59084129
_symmetry_Int_Tables_number   1
_chemical_formula_structural   Li3Co8(OF3)4
_chemical_formula_sum   'Li3 Co8 O4 F12'
_cell_volume   313.25729225
_cell_formula_units_Z   1
loop_
 _symmetry_equiv_pos_site_id
 _symmetry_equiv_pos_as_xyz
  1  'x, y, z'
loop_
 _atom_site_type_symbol
 _atom_site_label
 _atom_site_symmetry_multiplicity
 _atom_site_fract_x
 _atom_site_fract_y
 _atom_site_fract_z
 _atom_site_occupancy
  Li  Li0  1  0.99965200  0.99965200  0.00494100  1
  Li  Li1  1  0.81524800  0.81524800  0.56495300  1
  Li  Li2  1  0.19316000  0.19316000  0.43362600  1
  Co  Co0  1  0.00612800  0.47785400  0.00958200  1
  Co  Co1  1  0.47785400  0.00612800  0.00958200  1
  Co  Co2  1  0.26054400  0.74653500  0.73959600  1
  Co  Co3  1  0.25068900  0.25068900  0.73451400  1
  Co  Co4  1  0.74653500  0.26054400  0.73959600  1
  Co  Co5  1  0.25942600  0.75787000  0.24484000  1
  Co  Co6  1  0.75787000  0.25942600  0.24484000  1
  Co  Co7  1  0.74282300  0.74282300  0.26330000  1
  O  O0  1  0.35604100  0.35604100  0.85671900  1
  O  O1  1  0.12501700  0.12501700  0.64995300  1
  O  O2  1  0.11754800  0.11754800  0.12095300  1
  O  O3  1  0.64228600  0.64228600  0.12928500  1
  F  F0  1  0.34999500  0.89586100  0.87273500  1
  F  F1  1  0.89586100  0.34999500  0.87273500  1
  F  F2  1  0.88050100  0.88050100  0.88308100  1
  F  F3  1  0.12419000  0.61687100  0.63580200  1
  F  F4  1  0.62447300  0.62447300  0.63881200  1
  F  F5  1  0.61687100  0.12419000  0.63580200  1
  F  F6  1  0.38742600  0.38742600  0.34909300  1
  F  F7  1  0.37384200  0.87495900  0.36935400  1
  F  F8  1  0.87866000  0.87866000  0.36808900  1
  F  F9  1  0.87495900  0.37384200  0.36935400  1
  F  F10  1  0.10109300  0.65263800  0.12456200  1
  F  F11  1  0.65263800  0.10109300  0.12456200  1
loop_
_geom_bond_atom_site_label_1
_geom_bond_atom_site_label_2
_geom_bond_distance
_geom_bond_site_symmetry_2
Li0 O2 2.013566 1_665
Li2 O1 2.098772 1_555
Co0 O2 2.018020 1_555
Co0 O3 2.079175 1_455
Co0 O0 2.166272 1_554
Co0 F10 2.170717 1_555
Co0 F1 2.202815 1_454
Co0 F2 2.262238 1_454
Co1 O2 2.018020 1_555
Co1 O3 2.079175 1_545
Co1 O0 2.166272 1_554
Co1 F11 2.170717 1_555
Co1 F0 2.202815 1_544
Co1 F2 2.262238 1_544
Co2 F4 1.997251 1_555
Co2 O1 2.033528 1_565
Co2 F3 2.050621 1_555
Co2 F0 2.180333 1_555
Co2 O0 2.187575 1_555
Co2 F2 2.237033 1_455
Co3 O1 1.832957 1_555
Co3 O0 1.958317 1_555
Co3 F3 2.000766 1_555
Co3 F5 2.000766 1_555
Co3 F1 2.107796 1_455
Co3 F0 2.107796 1_545
Co4 F4 1.997251 1_555
Co4 O1 2.033528 1_655
Co4 F5 2.050621 1_555
Co4 F1 2.180333 1_555
Co4 O0 2.187575 1_555
Co4 F2 2.237033 1_545
Co5 F6 2.037645 1_555
Co5 F7 2.067150 1_555
Co5 O2 2.067603 1_565
Co5 O3 2.135501 1_555
Co5 F8 2.152438 1_455
Co5 F10 2.178475 1_555
Co6 F6 2.037645 1_555
Co6 F9 2.067150 1_555
Co6 O2 2.067603 1_655
Co6 O3 2.135501 1_555
Co6 F8 2.152438 1_545
Co6 F11 2.178475 1_555
Co7 O3 2.023069 1_555
Co7 F7 2.036556 1_555
Co7 F9 2.036556 1_555
Co7 F8 2.084562 1_555
Co7 F11 2.127101 1_565
Co7 F10 2.127101 1_655
F0 Li0 2.060537 1_456
F1 Li0 2.060537 1_546
F2 Li0 2.073959 1_556
F3 Li1 1.887201 1_455
F4 Li1 1.900589 1_555
F5 Li1 1.887201 1_545
F6 Li2 1.940754 1_555
F7 Li2 1.901305 1_565
F8 Li1 1.909613 1_555
F9 Li2 1.901305 1_655
F10 Li0 1.992178 1_455
F11 Li0 1.992178 1_545
