# generated using pymatgen
data_Li2SiNiO4
_symmetry_space_group_name_H-M   'P 1'
_cell_length_a   5.36762504
_cell_length_b   9.83684108
_cell_length_c   6.31138400
_cell_angle_alpha   89.99765503
_cell_angle_beta   90.00175573
_cell_angle_gamma   89.98571687
_symmetry_Int_Tables_number   1
_chemical_formula_structural   Li2SiNiO4
_chemical_formula_sum   'Li8 Si4 Ni4 O16'
_cell_volume   333.24405934
_cell_formula_units_Z   4
loop_
 _symmetry_equiv_pos_site_id
 _symmetry_equiv_pos_as_xyz
  1  'x, y, z'
loop_
 _atom_site_type_symbol
 _atom_site_label
 _atom_site_symmetry_multiplicity
 _atom_site_fract_x
 _atom_site_fract_y
 _atom_site_fract_z
 _atom_site_occupancy
  Li  Li0  1  0.32848100  0.49600400  0.24993600  1
  Li  Li1  1  0.32860200  0.99600800  0.25003500  1
  Li  Li2  1  0.67153500  0.24601800  0.25000400  1
  Li  Li3  1  0.67148700  0.74606800  0.25004400  1
  Li  Li4  1  0.32847600  0.49599300  0.75007900  1
  Li  Li5  1  0.32859600  0.99602600  0.74998000  1
  Li  Li6  1  0.67151300  0.24601600  0.75000500  1
  Li  Li7  1  0.67148700  0.74606500  0.74997100  1
  Si  Si0  1  0.16680700  0.25109400  0.99993800  1
  Si  Si1  1  0.16708700  0.75123800  0.99999100  1
  Si  Si2  1  0.83321900  0.00107200  0.50001300  1
  Si  Si3  1  0.83303200  0.50121400  0.50001100  1
  Ni  Ni0  1  0.82418500  0.99431600  0.00001500  1
  Ni  Ni1  1  0.17556400  0.74421100  0.49999600  1
  Ni  Ni2  1  0.82390600  0.49467000  0.00001700  1
  Ni  Ni3  1  0.17593900  0.24440400  0.49996100  1
  O  O0  1  0.16662100  0.41896200  0.00006000  1
  O  O1  1  0.16708600  0.91907900  0.00000500  1
  O  O2  1  0.83307200  0.16899200  0.50000400  1
  O  O3  1  0.83290900  0.66907100  0.49999600  1
  O  O4  1  0.87433500  0.19701100  0.00003300  1
  O  O5  1  0.87467200  0.69726100  0.00002200  1
  O  O6  1  0.12546000  0.44717300  0.49999300  1
  O  O7  1  0.12581400  0.94701600  0.49999900  1
  O  O8  1  0.68590800  0.44819600  0.28523700  1
  O  O9  1  0.68600100  0.94808000  0.28517300  1
  O  O10  1  0.31407800  0.19810300  0.21476800  1
  O  O11  1  0.31409300  0.69812600  0.21481800  1
  O  O12  1  0.31403300  0.19810300  0.78511200  1
  O  O13  1  0.31408000  0.69812700  0.78517700  1
  O  O14  1  0.68591700  0.44820000  0.71477200  1
  O  O15  1  0.68600500  0.94808000  0.71483500  1
loop_
_geom_bond_atom_site_label_1
_geom_bond_atom_site_label_2
_geom_bond_distance
_geom_bond_site_symmetry_2
Li0 O0 1.953619 1_555
Li0 O6 1.977195 1_555
Li0 O8 1.987735 1_555
Li0 O11 2.002020 1_555
Li1 O1 1.953152 1_555
Li1 O7 1.976423 1_555
Li1 O9 1.987754 1_555
Li1 O10 2.001888 1_565
Li2 O2 1.953202 1_555
Li2 O4 1.976429 1_555
Li2 O10 1.988325 1_555
Li2 O8 2.002700 1_555
Li3 O3 1.952573 1_555
Li3 O5 1.977346 1_555
Li3 O11 1.988054 1_555
Li3 O9 2.001035 1_555
Li4 O0 1.954093 1_556
Li4 O6 1.977278 1_555
Li4 O14 1.987794 1_555
Li4 O13 2.002143 1_555
Li5 O1 1.953174 1_556
Li5 O7 1.976513 1_555
Li5 O15 1.987870 1_555
Li5 O12 2.001645 1_565
Li6 O2 1.953345 1_555
Li6 O4 1.976692 1_556
Li6 O12 1.988357 1_555
Li6 O14 2.002748 1_555
Li7 O3 1.952771 1_555
Li7 O5 1.977401 1_556
Li7 O13 1.988107 1_555
Li7 O15 2.001053 1_555
Ni0 O1 1.983617 1_655
Ni0 O9 1.999065 1_555
Ni0 O15 1.999174 1_554
Ni0 O4 2.012034 1_565
Ni1 O3 1.982378 1_455
Ni1 O13 1.999393 1_555
Ni1 O11 1.999478 1_555
Ni1 O7 2.012688 1_555
Ni2 O0 1.984424 1_655
Ni2 O8 1.999581 1_555
Ni2 O14 1.999689 1_554
Ni2 O5 2.011466 1_555
Ni3 O2 1.984433 1_455
Ni3 O12 1.998866 1_555
Ni3 O10 1.999269 1_555
Ni3 O6 2.012859 1_555
O0 Si0 1.651291 1_554
O1 Si1 1.651025 1_554
O2 Si2 1.651802 1_555
O3 Si3 1.651183 1_555
O4 Si0 1.657700 1_654
O5 Si1 1.657076 1_654
O6 Si3 1.657093 1_455
O7 Si2 1.657989 1_465
O8 Si3 1.653259 1_555
O9 Si2 1.653761 1_565
O10 Si0 1.653683 1_554
O11 Si1 1.653363 1_554
O12 Si0 1.653621 1_555
O13 Si1 1.653334 1_555
O14 Si3 1.653161 1_555
O15 Si2 1.653662 1_565
