# generated using pymatgen
data_NaPdO2
_symmetry_space_group_name_H-M   'P 1'
_cell_length_a   3.35885426
_cell_length_b   3.35885426
_cell_length_c   5.75016059
_cell_angle_alpha   69.17869518
_cell_angle_beta   69.17869518
_cell_angle_gamma   54.74136757
_symmetry_Int_Tables_number   1
_chemical_formula_structural   NaPdO2
_chemical_formula_sum   'Na1 Pd1 O2'
_cell_volume   48.54366768
_cell_formula_units_Z   1
loop_
 _symmetry_equiv_pos_site_id
 _symmetry_equiv_pos_as_xyz
  1  'x, y, z'
loop_
 _atom_site_type_symbol
 _atom_site_label
 _atom_site_symmetry_multiplicity
 _atom_site_fract_x
 _atom_site_fract_y
 _atom_site_fract_z
 _atom_site_occupancy
  Na  Na0  1  0.50000000  0.50000000  0.50000000  1
  Pd  Pd0  1  0.00000000  0.00000000  0.00000000  1
  O  O0  1  0.71546400  0.71546400  0.78873400  1
  O  O1  1  0.28453600  0.28453600  0.21126600  1
loop_
_geom_bond_atom_site_label_1
_geom_bond_atom_site_label_2
_geom_bond_distance
_geom_bond_site_symmetry_2
Na0 O1 2.401325 1_655
Na0 O0 2.401325 1_545
Na0 O1 2.401325 1_565
Na0 O0 2.401325 1_455
Na0 O1 2.473277 1_555
Na0 O0 2.473277 1_555
O0 Pd0 2.064600 1_566
O0 Pd0 2.064600 1_656
O0 Pd0 2.451092 1_666
O1 Pd0 2.064600 1_655
O1 Pd0 2.064600 1_565
O1 Pd0 2.451092 1_555
