# generated using pymatgen
data_Ti17(NO4)6
_symmetry_space_group_name_H-M   'P 1'
_cell_length_a   10.02672100
_cell_length_b   10.39394000
_cell_length_c   11.48669833
_cell_angle_alpha   68.37148190
_cell_angle_beta   90.00000000
_cell_angle_gamma   90.00000000
_symmetry_Int_Tables_number   1
_chemical_formula_structural   Ti17(NO4)6
_chemical_formula_sum   'Ti34 N12 O48'
_cell_volume   1112.82599768
_cell_formula_units_Z   2
loop_
 _symmetry_equiv_pos_site_id
 _symmetry_equiv_pos_as_xyz
  1  'x, y, z'
loop_
 _atom_site_type_symbol
 _atom_site_label
 _atom_site_symmetry_multiplicity
 _atom_site_fract_x
 _atom_site_fract_y
 _atom_site_fract_z
 _atom_site_occupancy
  Ti  Ti0  1  0.25000000  0.44759100  0.09958600  1
  Ti  Ti1  1  0.57074200  0.38568800  0.12131200  1
  Ti  Ti2  1  0.92925800  0.38568800  0.12131200  1
  Ti  Ti3  1  0.07208900  0.61210600  0.21201600  1
  Ti  Ti4  1  0.75000000  0.55437500  0.23078100  1
  Ti  Ti5  1  0.42791100  0.61210600  0.21201600  1
  Ti  Ti6  1  0.92314400  0.89366200  0.12333700  1
  Ti  Ti7  1  0.57685600  0.89366200  0.12333700  1
  Ti  Ti8  1  0.25000000  0.94839000  0.10527800  1
  Ti  Ti9  1  0.57190400  0.38811800  0.45362900  1
  Ti  Ti10  1  0.05726600  0.11317200  0.21227500  1
  Ti  Ti11  1  0.44273400  0.11317200  0.21227500  1
  Ti  Ti12  1  0.92809600  0.38811800  0.45362900  1
  Ti  Ti13  1  0.25000000  0.44622800  0.43487300  1
  Ti  Ti14  1  0.42809600  0.61188200  0.54637100  1
  Ti  Ti15  1  0.07190400  0.61188200  0.54637100  1
  Ti  Ti16  1  0.92318500  0.89353500  0.44744200  1
  Ti  Ti17  1  0.75000000  0.55377200  0.56512700  1
  Ti  Ti18  1  0.57681500  0.89353500  0.44744200  1
  Ti  Ti19  1  0.25000000  0.94842800  0.42915800  1
  Ti  Ti20  1  0.57208900  0.38789400  0.78798400  1
  Ti  Ti21  1  0.25000000  0.44562500  0.76921900  1
  Ti  Ti22  1  0.07681500  0.10646500  0.55255800  1
  Ti  Ti23  1  0.75000000  0.05157200  0.57084200  1
  Ti  Ti24  1  0.92791100  0.38789400  0.78798400  1
  Ti  Ti25  1  0.42318500  0.10646500  0.55255800  1
  Ti  Ti26  1  0.94273400  0.88682800  0.78772500  1
  Ti  Ti27  1  0.55726600  0.88682800  0.78772500  1
  Ti  Ti28  1  0.75000000  0.55240900  0.90041400  1
  Ti  Ti29  1  0.42925800  0.61431200  0.87868800  1
  Ti  Ti30  1  0.07074200  0.61431200  0.87868800  1
  Ti  Ti31  1  0.75000000  0.05161000  0.89472200  1
  Ti  Ti32  1  0.07685600  0.10633800  0.87666300  1
  Ti  Ti33  1  0.42314400  0.10633800  0.87666300  1
  N  N0  1  0.75000000  0.48368200  0.08978900  1
  N  N1  1  0.75000000  0.97020500  0.07803900  1
  N  N2  1  0.25000000  0.51877200  0.24442700  1
  N  N3  1  0.75000000  0.48081800  0.42278700  1
  N  N4  1  0.25000000  0.02222400  0.24262200  1
  N  N5  1  0.75000000  0.97000600  0.44198800  1
  N  N6  1  0.25000000  0.51918200  0.57721300  1
  N  N7  1  0.75000000  0.48122800  0.75557300  1
  N  N8  1  0.25000000  0.02999400  0.55801200  1
  N  N9  1  0.25000000  0.51631800  0.91021100  1
  N  N10  1  0.75000000  0.97777600  0.75737800  1
  N  N11  1  0.25000000  0.02979500  0.92196100  1
  O  O0  1  0.12161900  0.29954400  0.15045500  1
  O  O1  1  0.06570200  0.56478700  0.06166100  1
  O  O2  1  0.37838100  0.29954400  0.15045500  1
  O  O3  1  0.43429800  0.56478700  0.06166100  1
  O  O4  1  0.61879300  0.70174200  0.18340200  1
  O  O5  1  0.11979300  0.79665400  0.14957300  1
  O  O6  1  0.06157700  0.05930800  0.06532400  1
  O  O7  1  0.56344800  0.43831800  0.27075900  1
  O  O8  1  0.38020700  0.79665400  0.14957300  1
  O  O9  1  0.93655200  0.43831800  0.27075900  1
  O  O10  1  0.88120700  0.70174200  0.18340200  1
  O  O11  1  0.43842300  0.05930800  0.06532400  1
  O  O12  1  0.06389700  0.56329300  0.39574600  1
  O  O13  1  0.38115300  0.29884600  0.48458600  1
  O  O14  1  0.11884700  0.29884600  0.48458600  1
  O  O15  1  0.43610300  0.56329300  0.39574600  1
  O  O16  1  0.88986500  0.20592700  0.18157100  1
  O  O17  1  0.61013500  0.20592700  0.18157100  1
  O  O18  1  0.94735900  0.92561800  0.27483200  1
  O  O19  1  0.55264100  0.92561800  0.27483200  1
  O  O20  1  0.11970200  0.79629700  0.48657100  1
  O  O21  1  0.88115300  0.70115400  0.51541400  1
  O  O22  1  0.06156800  0.05922900  0.39516800  1
  O  O23  1  0.93610300  0.43670700  0.60425400  1
  O  O24  1  0.56389700  0.43670700  0.60425400  1
  O  O25  1  0.61884700  0.70115400  0.51541400  1
  O  O26  1  0.38029800  0.79629700  0.48657100  1
  O  O27  1  0.43843200  0.05922900  0.39516800  1
  O  O28  1  0.11879300  0.29825800  0.81659800  1
  O  O29  1  0.06344800  0.56168200  0.72924100  1
  O  O30  1  0.93843200  0.94077100  0.60483200  1
  O  O31  1  0.61970200  0.20370300  0.51342900  1
  O  O32  1  0.56156800  0.94077100  0.60483200  1
  O  O33  1  0.88029800  0.20370300  0.51342900  1
  O  O34  1  0.38120700  0.29825800  0.81659800  1
  O  O35  1  0.43655200  0.56168200  0.72924100  1
  O  O36  1  0.87838100  0.70045600  0.84954500  1
  O  O37  1  0.56570200  0.43521300  0.93833900  1
  O  O38  1  0.62161900  0.70045600  0.84954500  1
  O  O39  1  0.11013500  0.79407300  0.81842900  1
  O  O40  1  0.93429800  0.43521300  0.93833900  1
  O  O41  1  0.38986500  0.79407300  0.81842900  1
  O  O42  1  0.44735900  0.07438200  0.72516800  1
  O  O43  1  0.05264100  0.07438200  0.72516800  1
  O  O44  1  0.56157700  0.94069200  0.93467600  1
  O  O45  1  0.88020700  0.20334600  0.85042700  1
  O  O46  1  0.61979300  0.20334600  0.85042700  1
  O  O47  1  0.93842300  0.94069200  0.93467600  1
loop_
_geom_bond_atom_site_label_1
_geom_bond_atom_site_label_2
_geom_bond_distance
_geom_bond_site_symmetry_2
N0 Ti4 2.009981 1_555
N0 Ti28 2.024028 1_554
N0 Ti2 2.031553 1_555
N0 Ti1 2.031553 1_555
N1 Ti6 1.900646 1_555
N1 Ti7 1.900646 1_555
N1 Ti31 1.958701 1_564
N2 Ti3 1.998910 1_555
N2 Ti5 1.998910 1_555
N2 Ti13 2.034246 1_555
N2 Ti0 2.054953 1_555
N3 Ti12 1.997758 1_555
N3 Ti9 1.997758 1_555
N3 Ti17 2.040151 1_555
N3 Ti4 2.050802 1_555
N4 Ti19 1.991953 1_545
N4 Ti8 1.992577 1_545
N4 Ti11 2.122904 1_555
N4 Ti10 2.122904 1_555
N5 Ti16 1.901140 1_555
N5 Ti18 1.901140 1_555
N5 Ti23 1.958186 1_565
N6 Ti14 1.997758 1_555
N6 Ti15 1.997758 1_555
N6 Ti13 2.040151 1_555
N6 Ti21 2.050802 1_555
N7 Ti24 1.998910 1_555
N7 Ti20 1.998910 1_555
N7 Ti17 2.034246 1_555
N7 Ti28 2.054953 1_555
N8 Ti25 1.901140 1_555
N8 Ti22 1.901140 1_555
N8 Ti19 1.958186 1_545
N9 Ti21 2.009981 1_555
N9 Ti0 2.024028 1_556
N9 Ti30 2.031553 1_555
N9 Ti29 2.031553 1_555
N10 Ti23 1.991953 1_565
N10 Ti31 1.992577 1_565
N10 Ti26 2.122904 1_555
N10 Ti27 2.122904 1_555
N11 Ti33 1.900646 1_555
N11 Ti32 1.900646 1_555
N11 Ti8 1.958701 1_546
O0 Ti10 1.912869 1_555
O0 Ti0 1.924440 1_555
O0 Ti2 2.100686 1_455
O1 Ti3 1.963414 1_555
O1 Ti30 1.971639 1_554
O1 Ti0 2.167297 1_555
O1 Ti2 2.205950 1_455
O2 Ti11 1.912869 1_555
O2 Ti0 1.924440 1_555
O2 Ti1 2.100686 1_555
O3 Ti5 1.963414 1_555
O3 Ti29 1.971639 1_554
O3 Ti0 2.167297 1_555
O3 Ti1 2.205950 1_555
O4 Ti7 1.901974 1_555
O4 Ti4 1.938708 1_555
O4 Ti5 2.100808 1_555
O5 Ti3 1.846195 1_555
O5 Ti8 1.964471 1_555
O5 Ti6 2.184320 1_455
O6 Ti10 1.965006 1_555
O6 Ti32 2.043966 1_554
O6 Ti6 2.118777 1_445
O6 Ti8 2.172333 1_545
O7 Ti9 1.970756 1_555
O7 Ti1 1.985887 1_555
O7 Ti5 2.160215 1_555
O7 Ti4 2.180928 1_555
O8 Ti5 1.846195 1_555
O8 Ti8 1.964471 1_555
O8 Ti7 2.184320 1_555
O9 Ti12 1.970756 1_555
O9 Ti2 1.985887 1_555
O9 Ti3 2.160215 1_655
O9 Ti4 2.180928 1_555
O10 Ti6 1.901974 1_555
O10 Ti4 1.938708 1_555
O10 Ti3 2.100808 1_655
O11 Ti11 1.965006 1_555
O11 Ti33 2.043966 1_554
O11 Ti7 2.118777 1_545
O11 Ti8 2.172333 1_545
O12 Ti15 1.974634 1_555
O12 Ti3 1.982127 1_555
O12 Ti12 2.172297 1_455
O12 Ti13 2.182052 1_555
O13 Ti25 1.906491 1_555
O13 Ti13 1.938351 1_555
O13 Ti9 2.098156 1_555
O14 Ti22 1.906491 1_555
O14 Ti13 1.938351 1_555
O14 Ti12 2.098156 1_455
O15 Ti14 1.974634 1_555
O15 Ti5 1.982127 1_555
O15 Ti9 2.172297 1_555
O15 Ti13 2.182052 1_555
O16 Ti2 1.781224 1_555
O16 Ti10 1.902763 1_655
O17 Ti1 1.781224 1_555
O17 Ti11 1.902763 1_555
O18 Ti16 1.900980 1_555
O18 Ti6 1.903569 1_555
O18 Ti10 2.120940 1_665
O19 Ti18 1.900980 1_555
O19 Ti7 1.903569 1_555
O19 Ti11 2.120940 1_565
O20 Ti15 1.845274 1_555
O20 Ti19 1.968084 1_555
O20 Ti16 2.184305 1_455
O21 Ti16 1.906491 1_555
O21 Ti17 1.938351 1_555
O21 Ti15 2.098156 1_655
O22 Ti10 1.965050 1_555
O22 Ti22 2.046270 1_555
O22 Ti16 2.118839 1_445
O22 Ti19 2.171854 1_545
O23 Ti12 1.974634 1_555
O23 Ti24 1.982127 1_555
O23 Ti15 2.172297 1_655
O23 Ti17 2.182052 1_555
O24 Ti9 1.974634 1_555
O24 Ti20 1.982127 1_555
O24 Ti14 2.172297 1_555
O24 Ti17 2.182052 1_555
O25 Ti18 1.906491 1_555
O25 Ti17 1.938351 1_555
O25 Ti14 2.098156 1_555
O26 Ti14 1.845274 1_555
O26 Ti19 1.968084 1_555
O26 Ti18 2.184305 1_555
O27 Ti11 1.965050 1_555
O27 Ti25 2.046270 1_555
O27 Ti18 2.118839 1_545
O27 Ti19 2.171854 1_545
O28 Ti32 1.901974 1_555
O28 Ti21 1.938708 1_555
O28 Ti24 2.100808 1_455
O29 Ti15 1.970756 1_555
O29 Ti30 1.985887 1_555
O29 Ti24 2.160215 1_455
O29 Ti21 2.180928 1_555
O30 Ti26 1.965050 1_555
O30 Ti16 2.046270 1_555
O30 Ti22 2.118839 1_665
O30 Ti23 2.171854 1_565
O31 Ti9 1.845274 1_555
O31 Ti23 1.968084 1_555
O31 Ti25 2.184305 1_555
O32 Ti27 1.965050 1_555
O32 Ti18 2.046270 1_555
O32 Ti25 2.118839 1_565
O32 Ti23 2.171854 1_565
O33 Ti12 1.845274 1_555
O33 Ti23 1.968084 1_555
O33 Ti22 2.184305 1_655
O34 Ti33 1.901974 1_555
O34 Ti21 1.938708 1_555
O34 Ti20 2.100808 1_555
O35 Ti14 1.970756 1_555
O35 Ti29 1.985887 1_555
O35 Ti20 2.160215 1_555
O35 Ti21 2.180928 1_555
O36 Ti26 1.912869 1_555
O36 Ti28 1.924440 1_555
O36 Ti30 2.100686 1_655
O37 Ti20 1.963414 1_555
O37 Ti1 1.971639 1_556
O37 Ti28 2.167297 1_555
O37 Ti29 2.205950 1_555
O38 Ti27 1.912869 1_555
O38 Ti28 1.924440 1_555
O38 Ti29 2.100686 1_555
O39 Ti30 1.781224 1_555
O39 Ti26 1.902763 1_455
O40 Ti24 1.963414 1_555
O40 Ti2 1.971639 1_556
O40 Ti28 2.167297 1_555
O40 Ti30 2.205950 1_655
O41 Ti29 1.781224 1_555
O41 Ti27 1.902763 1_555
O42 Ti25 1.900980 1_555
O42 Ti33 1.903569 1_555
O42 Ti27 2.120940 1_545
O43 Ti22 1.900980 1_555
O43 Ti32 1.903569 1_555
O43 Ti26 2.120940 1_445
O44 Ti27 1.965006 1_555
O44 Ti7 2.043966 1_556
O44 Ti33 2.118777 1_565
O44 Ti31 2.172333 1_565
O45 Ti24 1.846195 1_555
O45 Ti31 1.964471 1_555
O45 Ti32 2.184320 1_655
O46 Ti20 1.846195 1_555
O46 Ti31 1.964471 1_555
O46 Ti33 2.184320 1_555
O47 Ti26 1.965006 1_555
O47 Ti6 2.043966 1_556
O47 Ti32 2.118777 1_665
O47 Ti31 2.172333 1_565
