# generated using pymatgen
data_Li2Cu(HO)4
_symmetry_space_group_name_H-M   'P 1'
_cell_length_a   6.35210500
_cell_length_b   6.39473200
_cell_length_c   8.45973300
_cell_angle_alpha   90.00000000
_cell_angle_beta   90.00000000
_cell_angle_gamma   90.00000000
_symmetry_Int_Tables_number   1
_chemical_formula_structural   Li2Cu(HO)4
_chemical_formula_sum   'Li8 Cu4 H16 O16'
_cell_volume   343.63443154
_cell_formula_units_Z   4
loop_
 _symmetry_equiv_pos_site_id
 _symmetry_equiv_pos_as_xyz
  1  'x, y, z'
loop_
 _atom_site_type_symbol
 _atom_site_label
 _atom_site_symmetry_multiplicity
 _atom_site_fract_x
 _atom_site_fract_y
 _atom_site_fract_z
 _atom_site_occupancy
  Li  Li0  1  0.01188600  0.79994900  0.74907600  1
  Li  Li1  1  0.24757900  0.50760500  0.99744700  1
  Li  Li2  1  0.25242100  0.00760500  0.49744700  1
  Li  Li3  1  0.48811400  0.29994900  0.24907600  1
  Li  Li4  1  0.51188600  0.70005100  0.74907600  1
  Li  Li5  1  0.74757900  0.99239500  0.99744700  1
  Li  Li6  1  0.75242100  0.49239500  0.49744700  1
  Li  Li7  1  0.98811400  0.20005100  0.24907600  1
  Cu  Cu0  1  0.24084000  0.50598500  0.50015400  1
  Cu  Cu1  1  0.25916000  0.00598500  0.00015400  1
  Cu  Cu2  1  0.74084000  0.99401500  0.50015400  1
  Cu  Cu3  1  0.75916000  0.49401500  0.00015400  1
  H  H0  1  0.00298600  0.23464000  0.59470600  1
  H  H1  1  0.99701400  0.76536000  0.09470600  1
  H  H2  1  0.00788700  0.23934100  0.90529000  1
  H  H3  1  0.08585500  0.52509100  0.24818000  1
  H  H4  1  0.25284400  0.83266700  0.24819600  1
  H  H5  1  0.24715600  0.33266700  0.74819600  1
  H  H6  1  0.41414500  0.02509100  0.74818000  1
  H  H7  1  0.49211300  0.73934100  0.40529000  1
  H  H8  1  0.50298600  0.26536000  0.59470600  1
  H  H9  1  0.49701400  0.73464000  0.09470600  1
  H  H10  1  0.50788700  0.26065900  0.90529000  1
  H  H11  1  0.58585500  0.97490900  0.24818000  1
  H  H12  1  0.75284400  0.66733300  0.24819600  1
  H  H13  1  0.74715600  0.16733300  0.74819600  1
  H  H14  1  0.91414500  0.47490900  0.74818000  1
  H  H15  1  0.99211300  0.76065900  0.40529000  1
  O  O0  1  0.02726200  0.72556000  0.51381700  1
  O  O1  1  0.04251400  0.78770600  0.98661400  1
  O  O2  1  0.22497800  0.48481700  0.73774100  1
  O  O3  1  0.24008200  0.51873300  0.26110000  1
  O  O4  1  0.25991800  0.01873300  0.76110000  1
  O  O5  1  0.27502200  0.98481700  0.23774100  1
  O  O6  1  0.45748600  0.28770600  0.48661400  1
  O  O7  1  0.47273800  0.22556000  0.01381700  1
  O  O8  1  0.52726200  0.77444000  0.51381700  1
  O  O9  1  0.54251400  0.71229400  0.98661400  1
  O  O10  1  0.72497800  0.01518300  0.73774100  1
  O  O11  1  0.74008200  0.98126700  0.26110000  1
  O  O12  1  0.75991800  0.48126700  0.76110000  1
  O  O13  1  0.77502200  0.51518300  0.23774100  1
  O  O14  1  0.95748600  0.21229400  0.48661400  1
  O  O15  1  0.97273800  0.27444000  0.01381700  1
loop_
_geom_bond_atom_site_label_1
_geom_bond_atom_site_label_2
_geom_bond_distance
_geom_bond_site_symmetry_2
Li0 O1 2.020421 1_555
Li0 O0 2.048618 1_555
Li0 O4 2.109505 1_565
Li0 O10 2.285819 1_465
Li0 O2 2.429475 1_555
Li1 O2 2.206546 1_555
Li1 O1 2.216629 1_555
Li1 O3 2.232077 1_556
Li1 O9 2.287257 1_555
Li1 O15 2.300049 1_456
Li1 O7 2.306020 1_556
Li2 O5 2.206546 1_545
Li2 O6 2.216629 1_555
Li2 O4 2.232077 1_555
Li2 O14 2.287257 1_455
Li2 O8 2.300049 1_545
Li2 O0 2.306020 1_545
Li3 O6 2.020421 1_555
Li3 O7 2.048618 1_555
Li3 O3 2.109505 1_555
Li3 O13 2.285819 1_555
Li3 O5 2.429475 1_545
Li4 O9 2.020421 1_555
Li4 O8 2.048618 1_555
Li4 O12 2.109505 1_555
Li4 O2 2.285819 1_555
Li4 O10 2.429475 1_565
Li5 O10 2.206546 1_565
Li5 O9 2.216629 1_555
Li5 O11 2.232077 1_556
Li5 O1 2.287257 1_655
Li5 O7 2.300049 1_566
Li5 O15 2.306020 1_566
Li6 O13 2.206546 1_555
Li6 O14 2.216629 1_555
Li6 O12 2.232077 1_555
Li6 O6 2.287257 1_555
Li6 O0 2.300049 1_655
Li6 O8 2.306020 1_555
Li7 O14 2.020421 1_555
Li7 O15 2.048618 1_555
Li7 O11 2.109505 1_545
Li7 O5 2.285819 1_645
Li7 O13 2.429475 1_555
Cu0 O0 1.955882 1_555
Cu0 O6 1.963489 1_555
Cu0 O2 2.016994 1_555
Cu0 O3 2.023981 1_555
Cu1 O7 1.955882 1_555
Cu1 O1 1.963489 1_544
Cu1 O5 2.016994 1_545
Cu1 O4 2.023981 1_554
Cu2 O8 1.955882 1_555
Cu2 O14 1.963489 1_565
Cu2 O10 2.016994 1_565
Cu2 O11 2.023981 1_555
Cu3 O15 1.955882 1_555
Cu3 O9 1.963489 1_554
Cu3 O13 2.016994 1_555
Cu3 O12 2.023981 1_554
H0 O14 0.969605 1_455
H1 O1 0.969605 1_654
H2 O15 0.971160 1_456
H3 O3 0.986583 1_555
H3 Li7 2.169302 1_455
H4 O5 0.987075 1_555
H5 O2 0.987075 1_555
H6 O4 0.986583 1_555
H6 Li4 2.169302 1_545
H7 O8 0.971160 1_555
H8 O6 0.969605 1_555
H9 O9 0.969605 1_554
H10 O7 0.971160 1_556
H11 O11 0.986583 1_555
H11 Li3 2.169302 1_565
H12 O13 0.987075 1_555
H13 O10 0.987075 1_555
H14 O12 0.986583 1_555
H14 Li0 2.169302 1_655
H15 O0 0.971160 1_655
