# generated using pymatgen
data_Sr3GeO5
_symmetry_space_group_name_H-M   'P 1'
_cell_length_a   7.52182026
_cell_length_b   7.52182026
_cell_length_c   7.52182026
_cell_angle_alpha   124.71549957
_cell_angle_beta   124.71549957
_cell_angle_gamma   82.00979454
_symmetry_Int_Tables_number   1
_chemical_formula_structural   Sr3GeO5
_chemical_formula_sum   'Sr6 Ge2 O10'
_cell_volume   276.51434904
_cell_formula_units_Z   2
loop_
 _symmetry_equiv_pos_site_id
 _symmetry_equiv_pos_as_xyz
  1  'x, y, z'
loop_
 _atom_site_type_symbol
 _atom_site_label
 _atom_site_symmetry_multiplicity
 _atom_site_fract_x
 _atom_site_fract_y
 _atom_site_fract_z
 _atom_site_occupancy
  Sr  Sr0  1  0.50533800  0.50533800  0.00000000  1
  Sr  Sr1  1  0.00533800  0.00533800  0.00000000  1
  Sr  Sr2  1  0.06872500  0.56872500  0.13524800  1
  Sr  Sr3  1  0.56872500  0.43347800  0.50000000  1
  Sr  Sr4  1  0.43347800  0.93347800  0.86475200  1
  Sr  Sr5  1  0.93347800  0.06872500  0.50000000  1
  Ge  Ge0  1  0.49953600  0.99953600  0.50000000  1
  Ge  Ge1  1  0.99953600  0.49953600  0.50000000  1
  O  O0  1  0.24282900  0.24282900  0.00000000  1
  O  O1  1  0.74282900  0.74282900  0.00000000  1
  O  O2  1  0.45497500  0.95497500  0.21804100  1
  O  O3  1  0.95497500  0.73693500  0.50000000  1
  O  O4  1  0.76008600  0.26008600  0.21849600  1
  O  O5  1  0.26008600  0.04159000  0.50000000  1
  O  O6  1  0.73693500  0.23693500  0.78195900  1
  O  O7  1  0.23693500  0.45497500  0.50000000  1
  O  O8  1  0.04159000  0.54159000  0.78150400  1
  O  O9  1  0.54159000  0.76008600  0.50000000  1
loop_
_geom_bond_atom_site_label_1
_geom_bond_atom_site_label_2
_geom_bond_distance
_geom_bond_site_symmetry_2
Ge0 O2 1.770467 1_555
Ge0 O6 1.770474 1_565
Ge0 O9 1.784834 1_555
Ge0 O5 1.784834 1_565
Ge1 O7 1.770474 1_655
Ge1 O3 1.770474 1_555
Ge1 O8 1.784834 1_655
Ge1 O4 1.784834 1_555
O0 Sr3 2.558027 1_555
O0 Sr5 2.558027 1_454
O0 Sr2 2.558028 1_555
O0 Sr4 2.558028 1_544
O0 Sr1 2.696173 1_555
O0 Sr0 2.980195 1_555
O1 Sr3 2.558027 1_554
O1 Sr5 2.558027 1_565
O1 Sr2 2.558028 1_655
O1 Sr4 2.558028 1_554
O1 Sr0 2.696173 1_555
O1 Sr1 2.980195 1_665
O2 Sr4 2.478382 1_554
O2 Sr5 2.877364 1_565
O2 Sr3 2.877364 1_565
O2 Sr1 2.881915 1_565
O2 Sr0 2.881915 1_555
O3 Sr5 2.478367 1_565
O3 Sr2 2.877356 1_655
O3 Sr4 2.877363 1_655
O3 Sr1 2.881915 1_666
O3 Sr0 2.881915 1_555
O4 Sr4 2.436712 1_544
O4 Sr5 2.839080 1_555
O4 Sr3 2.839080 1_555
O4 Sr0 2.942687 1_555
O4 Sr1 2.942687 1_655
O5 Sr5 2.436713 1_455
O5 Sr4 2.839073 1_545
O5 Sr2 2.839080 1_545
O5 Sr0 2.942687 1_556
O5 Sr1 2.942687 1_555
O6 Sr2 2.478365 1_656
O6 Sr3 2.877357 1_555
O6 Sr5 2.877357 1_555
O6 Sr1 2.881919 1_656
O6 Sr0 2.881919 1_556
O7 Sr3 2.478367 1_555
O7 Sr2 2.877356 1_555
O7 Sr4 2.877363 1_555
O7 Sr0 2.881915 1_556
O7 Sr1 2.881915 1_555
O8 Sr2 2.436720 1_556
O8 Sr3 2.839080 1_455
O8 Sr5 2.839080 1_455
O8 Sr0 2.942687 1_556
O8 Sr1 2.942687 1_566
O9 Sr3 2.436713 1_555
O9 Sr4 2.839073 1_555
O9 Sr2 2.839080 1_555
O9 Sr0 2.942687 1_555
O9 Sr1 2.942687 1_666
