# generated using pymatgen
data_NaSbCSO7
_symmetry_space_group_name_H-M   'P 1'
_cell_length_a   6.80591200
_cell_length_b   5.84426200
_cell_length_c   9.02745292
_cell_angle_alpha   85.51147733
_cell_angle_beta   90.00000000
_cell_angle_gamma   90.00000000
_symmetry_Int_Tables_number   1
_chemical_formula_structural   NaSbCSO7
_chemical_formula_sum   'Na2 Sb2 C2 S2 O14'
_cell_volume   357.97048842
_cell_formula_units_Z   2
loop_
 _symmetry_equiv_pos_site_id
 _symmetry_equiv_pos_as_xyz
  1  'x, y, z'
loop_
 _atom_site_type_symbol
 _atom_site_label
 _atom_site_symmetry_multiplicity
 _atom_site_fract_x
 _atom_site_fract_y
 _atom_site_fract_z
 _atom_site_occupancy
  Na  Na0  1  0.49950000  0.24351300  0.78377300  1
  Na  Na1  1  0.99950000  0.75648700  0.21622700  1
  Sb  Sb0  1  0.75728700  0.79431500  0.63681000  1
  Sb  Sb1  1  0.25728700  0.20568500  0.36319000  1
  C  C0  1  0.73779600  0.72328000  0.91912100  1
  C  C1  1  0.23779600  0.27672000  0.08087900  1
  S  S0  1  0.25720200  0.72689100  0.59828700  1
  S  S1  1  0.75720200  0.27310900  0.40171300  1
  O  O0  1  0.25312300  0.30504100  0.94564100  1
  O  O1  1  0.74620400  0.93265600  0.84062700  1
  O  O2  1  0.71624400  0.55626900  0.82596300  1
  O  O3  1  0.08102600  0.78213900  0.68943600  1
  O  O4  1  0.42041400  0.87539000  0.65110300  1
  O  O5  1  0.71967800  0.20392400  0.56379300  1
  O  O6  1  0.30937600  0.48362800  0.61594200  1
  O  O7  1  0.80937600  0.51637200  0.38405800  1
  O  O8  1  0.21967800  0.79607600  0.43620700  1
  O  O9  1  0.92041400  0.12461000  0.34889700  1
  O  O10  1  0.58102600  0.21786100  0.31056400  1
  O  O11  1  0.21624400  0.44373100  0.17403700  1
  O  O12  1  0.24620400  0.06734400  0.15937300  1
  O  O13  1  0.75312200  0.69495900  0.05435900  1
loop_
_geom_bond_atom_site_label_1
_geom_bond_atom_site_label_2
_geom_bond_distance
_geom_bond_site_symmetry_2
Na0 O0 2.271242 1_555
Na0 O6 2.367762 1_555
Na0 O2 2.402294 1_555
Na0 O1 2.497435 1_545
Na0 O5 2.512891 1_555
Na0 O4 2.599228 1_545
Na1 O13 2.271247 1_555
Na1 O7 2.367762 1_555
Na1 O11 2.402294 1_655
Na1 O12 2.497435 1_665
Na1 O8 2.512891 1_655
Na1 O9 2.599228 1_565
C0 O13 1.223574 1_556
C0 O2 1.345334 1_555
C0 O1 1.366379 1_555
C1 O0 1.223575 1_554
C1 O11 1.345334 1_555
C1 O12 1.366379 1_555
O1 Sb0 2.068239 1_555
O2 Sb0 2.134818 1_555
O3 S0 1.503530 1_555
O3 Sb0 2.253924 1_455
O4 S0 1.509696 1_555
O4 Sb0 2.346770 1_555
O5 S1 1.508965 1_555
O5 Sb0 2.446141 1_545
O6 S0 1.461929 1_555
O7 S1 1.461929 1_555
O8 S0 1.508965 1_555
O8 Sb1 2.446141 1_565
O9 S1 1.509696 1_555
O9 Sb1 2.346770 1_655
O10 S1 1.503530 1_555
O10 Sb1 2.253924 1_555
O11 Sb1 2.134818 1_555
O12 Sb1 2.068239 1_555
