# generated using pymatgen
data_Na9Zr8Si4(PO6)8
_symmetry_space_group_name_H-M   'P 1'
_cell_length_a   9.35824148
_cell_length_b   9.39889883
_cell_length_c   18.72311151
_cell_angle_alpha   57.96576458
_cell_angle_beta   58.66300020
_cell_angle_gamma   58.00918722
_symmetry_Int_Tables_number   1
_chemical_formula_structural   Na9Zr8Si4(PO6)8
_chemical_formula_sum   'Na9 Zr8 Si4 P8 O48'
_cell_volume   1116.68726251
_cell_formula_units_Z   1
loop_
 _symmetry_equiv_pos_site_id
 _symmetry_equiv_pos_as_xyz
  1  'x, y, z'
loop_
 _atom_site_type_symbol
 _atom_site_label
 _atom_site_symmetry_multiplicity
 _atom_site_fract_x
 _atom_site_fract_y
 _atom_site_fract_z
 _atom_site_occupancy
  Na  Na0  1  0.12711400  0.38981900  0.37763600  1
  Na  Na1  1  0.44549900  0.59287500  0.22718100  1
  Na  Na2  1  0.64636600  0.24084300  0.43551500  1
  Na  Na3  1  0.10825200  0.39644600  0.87699600  1
  Na  Na4  1  0.90462700  0.64256200  0.12373600  1
  Na  Na5  1  0.07862500  0.94219600  0.48180300  1
  Na  Na6  1  0.37990200  0.60711800  0.75611900  1
  Na  Na7  1  0.68356400  0.22094100  0.93670400  1
  Na  Na8  1  0.88991900  0.59148500  0.62640800  1
  Zr  Zr0  1  0.14256800  0.13280400  0.08220600  1
  Zr  Zr1  1  0.38508800  0.34356100  0.17180300  1
  Zr  Zr2  1  0.14204400  0.13826700  0.58327100  1
  Zr  Zr3  1  0.37988900  0.33408100  0.67308900  1
  Zr  Zr4  1  0.64891200  0.64669800  0.32534200  1
  Zr  Zr5  1  0.87312300  0.84974300  0.41238800  1
  Zr  Zr6  1  0.64204100  0.64663800  0.83106400  1
  Zr  Zr7  1  0.90816900  0.83912000  0.89744500  1
  Si  Si0  1  0.04558000  0.73702200  0.23342800  1
  Si  Si1  1  0.43490400  0.03474100  0.38400300  1
  Si  Si2  1  0.04160100  0.74496600  0.68814800  1
  Si  Si3  1  0.44211800  0.03935100  0.88253800  1
  P  P0  1  0.74682500  0.47282800  0.02187100  1
  P  P1  1  0.26341100  0.51887800  0.47330900  1
  P  P2  1  0.54789300  0.94663700  0.12657400  1
  P  P3  1  0.00164200  0.24720800  0.27220800  1
  P  P4  1  0.74609200  0.46219000  0.52230700  1
  P  P5  1  0.26372500  0.51696400  0.97941700  1
  P  P6  1  0.55813800  0.94260600  0.62286600  1
  P  P7  1  0.01504100  0.24978200  0.76717600  1
  O  O0  1  0.31008100  0.46699700  0.06083400  1
  O  O1  1  0.05767600  0.92613200  0.15725000  1
  O  O2  1  0.50678900  0.10218800  0.15142800  1
  O  O3  1  0.21897000  0.56245500  0.21059700  1
  O  O4  1  0.59790000  0.03740800  0.40109600  1
  O  O5  1  0.25691500  0.06463900  0.46909200  1
  O  O6  1  0.40056900  0.21248800  0.29682400  1
  O  O7  1  0.59101100  0.43987800  0.11365100  1
  O  O8  1  0.22983100  0.36753200  0.47981800  1
  O  O9  1  0.09208400  0.69054300  0.47228300  1
  O  O10  1  0.37958800  0.97115000  0.11869100  1
  O  O11  1  0.75076200  0.00881400  0.31691400  1
  O  O12  1  0.92092100  0.31452800  0.03310400  1
  O  O13  1  0.76226200  0.65072400  0.99421900  1
  O  O14  1  0.42551500  0.55087600  0.38636500  1
  O  O15  1  0.31315800  0.46013700  0.55394700  1
  O  O16  1  0.58488600  0.76425700  0.20716000  1
  O  O17  1  0.05683400  0.93429900  0.65737600  1
  O  O18  1  0.71453200  0.93272300  0.04406900  1
  O  O19  1  0.53372300  0.10036600  0.63899500  1
  O  O20  1  0.21926700  0.56498200  0.69926800  1
  O  O21  1  0.60766300  0.04759300  0.89356000  1
  O  O22  1  0.02056400  0.23257100  0.18720800  1
  O  O23  1  0.80899900  0.40702800  0.29025800  1
  O  O24  1  0.49170400  0.85140400  0.37268000  1
  O  O25  1  0.27019800  0.07155700  0.96897200  1
  O  O26  1  0.95784800  0.07281300  0.36074600  1
  O  O27  1  0.39493500  0.21482400  0.79528500  1
  O  O28  1  0.71329500  0.47294700  0.44581800  1
  O  O29  1  0.59164100  0.42613100  0.61082300  1
  O  O30  1  0.23924100  0.35607400  0.99113000  1
  O  O31  1  0.09190300  0.68267500  0.97927000  1
  O  O32  1  0.86862600  0.70968400  0.25296000  1
  O  O33  1  0.39094600  0.98587300  0.60679200  1
  O  O34  1  0.75887800  0.01067600  0.81065200  1
  O  O35  1  0.92278600  0.30588600  0.53075900  1
  O  O36  1  0.76211400  0.63932400  0.49894700  1
  O  O37  1  0.42658500  0.54642600  0.89254700  1
  O  O38  1  0.05182100  0.71368700  0.32588800  1
  O  O39  1  0.58588700  0.76410300  0.70394900  1
  O  O40  1  0.72813000  0.91897100  0.53909300  1
  O  O41  1  0.02549100  0.25862500  0.67551500  1
  O  O42  1  0.82465200  0.40570700  0.79061800  1
  O  O43  1  0.49537200  0.85735700  0.87006600  1
  O  O44  1  0.98452600  0.07075200  0.84448000  1
  O  O45  1  0.70733800  0.47109200  0.95118600  1
  O  O46  1  0.85907100  0.71169800  0.76285200  1
  O  O47  1  0.08424400  0.70023600  0.82591500  1
loop_
_geom_bond_atom_site_label_1
_geom_bond_atom_site_label_2
_geom_bond_distance
_geom_bond_site_symmetry_2
Na0 O6 2.396796 1_555
Na0 O8 2.429494 1_555
Na0 O35 2.448454 1_455
Na0 O38 2.451510 1_555
Na0 O5 2.535083 1_555
Na0 O3 2.539886 1_555
Na1 O16 2.348162 1_555
Na1 O3 2.468452 1_555
Na1 O7 2.568581 1_555
Na1 O14 2.706301 1_555
Na1 O10 2.909530 1_555
Na1 O38 2.998235 1_555
Na2 O23 2.420662 1_555
Na2 O26 2.484740 1_555
Na2 O14 2.522282 1_555
Na2 O40 2.522965 1_545
Na2 O4 2.609038 1_555
Na2 O28 2.684849 1_555
Na3 O47 2.400975 1_555
Na3 O12 2.433561 1_456
Na3 O27 2.470016 1_555
Na3 O25 2.611410 1_555
Na3 O20 2.686555 1_555
Na3 O30 2.754047 1_555
Na4 O31 2.284167 1_654
Na4 O16 2.471625 1_555
Na4 O18 2.476127 1_555
Na4 O32 2.628986 1_555
Na4 O23 2.701335 1_555
Na5 O5 2.344316 1_565
Na5 O9 2.397986 1_555
Na5 O26 2.482836 1_465
Na6 O47 2.239594 1_555
Na6 O20 2.508383 1_555
Na6 O39 2.524532 1_555
Na6 O37 2.528219 1_555
Na7 O18 2.336766 1_546
Na7 O42 2.423732 1_555
Na7 O44 2.494283 1_555
Na7 O45 2.635184 1_555
Na7 O21 2.651571 1_555
Na7 O37 2.723116 1_555
Na8 O9 2.472034 1_655
Na8 O39 2.479188 1_555
Na8 O41 2.489741 1_655
Na8 O42 2.521167 1_555
Na8 O40 2.595693 1_555
Na8 O36 2.930631 1_555
O0 P5 1.563645 1_554
O0 Zr1 2.062136 1_555
O1 Si0 1.600693 1_555
O1 Zr0 1.989288 1_565
O2 P2 1.562579 1_545
O2 Zr1 2.077953 1_555
O3 Si0 1.646011 1_555
O3 Zr1 2.049143 1_555
O4 Si1 1.728163 1_555
O4 Zr5 2.268655 1_545
O5 Si1 1.615644 1_555
O5 Zr2 2.143705 1_555
O6 Si1 1.625555 1_555
O6 Zr1 2.030362 1_555
O7 P0 1.575647 1_555
O7 Zr1 2.083032 1_555
O8 P1 1.544983 1_555
O8 Zr2 2.205177 1_555
O9 P1 1.559625 1_555
O9 Zr5 2.248693 1_455
O10 P2 1.541700 1_555
O10 Zr0 2.144569 1_565
O11 O4 1.516461 1_555
O11 Zr5 2.054705 1_545
O12 P0 1.538937 1_555
O12 Zr0 2.151451 1_655
O13 P0 1.531140 1_556
O13 Zr7 2.206287 1_555
O14 P1 1.561132 1_555
O14 Zr4 2.214959 1_555
O15 P1 1.541265 1_555
O15 Zr3 2.151983 1_555
O16 P2 1.582888 1_555
O16 Zr4 2.135399 1_555
O17 Si2 1.616994 1_555
O17 Zr2 1.970619 1_565
O18 P2 1.525713 1_555
O18 Zr7 2.700504 1_554
O19 P6 1.544764 1_545
O19 Zr3 2.118085 1_555
O20 Si2 1.635752 1_555
O20 Zr3 2.028592 1_555
O21 O34 1.516190 1_555
O21 Si3 1.710350 1_555
O21 Zr7 2.444621 1_545
O22 P3 1.579990 1_555
O22 Zr0 2.129419 1_555
O23 P3 1.629776 1_655
O23 Zr4 2.172705 1_555
O24 Si1 1.611402 1_565
O24 Zr4 2.026166 1_555
O25 Si3 1.610750 1_555
O25 Zr0 2.045744 1_556
O26 P3 1.650840 1_655
O26 Zr5 2.184658 1_545
O27 Si3 1.644458 1_555
O27 Zr3 1.989468 1_555
O28 P4 1.557587 1_555
O28 Zr4 2.140393 1_555
O29 P4 1.543447 1_555
O29 Zr3 2.092391 1_555
O30 P5 1.533087 1_555
O30 Zr0 2.177318 1_556
O31 P5 1.535519 1_555
O31 Zr7 2.266476 1_455
O32 Si0 1.631957 1_655
O32 Zr4 1.988728 1_555
O33 P6 1.545888 1_555
O33 Zr2 2.129282 1_565
O34 Zr7 2.094616 1_545
O35 P4 1.539193 1_555
O35 Zr2 2.165371 1_655
O36 P4 1.552211 1_555
O36 Zr5 2.154659 1_555
O37 P5 1.560744 1_555
O37 Zr6 2.173819 1_555
O38 Si0 1.654438 1_555
O38 Zr5 2.041787 1_455
O39 P6 1.559921 1_555
O39 Zr6 2.249014 1_555
O40 P6 1.562073 1_555
O40 Zr5 2.290469 1_555
O41 P7 1.626182 1_555
O41 Zr2 2.063514 1_555
O42 P7 1.617771 1_655
O42 Zr6 2.234849 1_555
O43 Si3 1.621203 1_565
O43 Zr6 1.987730 1_555
O44 P7 1.582219 1_655
O44 Zr7 2.203332 1_545
O45 P0 1.557658 1_556
O45 Zr6 2.139756 1_555
O46 Si2 1.608972 1_655
O46 Zr6 1.979767 1_555
O47 Zr7 1.868927 1_455
