# generated using pymatgen
data_LiBiP2O7
_symmetry_space_group_name_H-M   'P 1'
_cell_length_a   8.85089900
_cell_length_b   5.19917700
_cell_length_c   14.33406031
_cell_angle_alpha   72.25261154
_cell_angle_beta   90.00000000
_cell_angle_gamma   90.00000000
_symmetry_Int_Tables_number   1
_chemical_formula_structural   LiBiP2O7
_chemical_formula_sum   'Li4 Bi4 P8 O28'
_cell_volume   628.22472147
_cell_formula_units_Z   4
loop_
 _symmetry_equiv_pos_site_id
 _symmetry_equiv_pos_as_xyz
  1  'x, y, z'
loop_
 _atom_site_type_symbol
 _atom_site_label
 _atom_site_symmetry_multiplicity
 _atom_site_fract_x
 _atom_site_fract_y
 _atom_site_fract_z
 _atom_site_occupancy
  Li  Li0  1  0.74436700  0.59321000  0.68962500  1
  Li  Li1  1  0.24436700  0.40679000  0.81037500  1
  Li  Li2  1  0.75563300  0.59321000  0.18962500  1
  Li  Li3  1  0.25563300  0.40679000  0.31037500  1
  Bi  Bi0  1  0.64737400  0.89077000  0.38648100  1
  Bi  Bi1  1  0.14737400  0.10923000  0.11351900  1
  Bi  Bi2  1  0.85262600  0.89077000  0.88648100  1
  Bi  Bi3  1  0.35262600  0.10923000  0.61351900  1
  P  P0  1  0.78170300  0.23873600  0.04041600  1
  P  P1  1  0.03964900  0.90745800  0.31887300  1
  P  P2  1  0.53964900  0.09254200  0.18112700  1
  P  P3  1  0.28170300  0.76126400  0.45958400  1
  P  P4  1  0.71829700  0.23873600  0.54041600  1
  P  P5  1  0.46035100  0.90745800  0.81887300  1
  P  P6  1  0.96035100  0.09254200  0.68112700  1
  P  P7  1  0.21829700  0.76126400  0.95958400  1
  O  O0  1  0.93810400  0.78949800  0.73222000  1
  O  O1  1  0.63505900  0.24121000  0.24004700  1
  O  O2  1  0.18143800  0.49007900  0.94394300  1
  O  O3  1  0.37831100  0.99863500  0.39799700  1
  O  O4  1  0.37755700  0.19563900  0.16697600  1
  O  O5  1  0.60641000  0.16687900  0.07122800  1
  O  O6  1  0.28373300  0.74177900  0.56932000  1
  O  O7  1  0.10641000  0.83312100  0.42877200  1
  O  O8  1  0.78373300  0.25822100  0.93068000  1
  O  O9  1  0.87755700  0.80436100  0.33302400  1
  O  O10  1  0.87831100  0.00136500  0.10200300  1
  O  O11  1  0.13505900  0.75879000  0.25995300  1
  O  O12  1  0.68143800  0.50992100  0.55605700  1
  O  O13  1  0.43810400  0.21050200  0.76778000  1
  O  O14  1  0.56189600  0.78949800  0.23222000  1
  O  O15  1  0.31856200  0.49007900  0.44394300  1
  O  O16  1  0.86494100  0.24121000  0.74004700  1
  O  O17  1  0.12168900  0.99863500  0.89799700  1
  O  O18  1  0.12244300  0.19563900  0.66697600  1
  O  O19  1  0.21626700  0.74177900  0.06932000  1
  O  O20  1  0.89359000  0.16687900  0.57122800  1
  O  O21  1  0.71626700  0.25822100  0.43068000  1
  O  O22  1  0.39359000  0.83312100  0.92877200  1
  O  O23  1  0.62244300  0.80436100  0.83302400  1
  O  O24  1  0.62168900  0.00136500  0.60200300  1
  O  O25  1  0.81856200  0.50992100  0.05605700  1
  O  O26  1  0.36494100  0.75879000  0.75995300  1
  O  O27  1  0.06189600  0.21050200  0.26778000  1
loop_
_geom_bond_atom_site_label_1
_geom_bond_atom_site_label_2
_geom_bond_distance
_geom_bond_site_symmetry_2
Li0 O16 2.050410 1_555
Li0 O12 2.160733 1_555
Li0 O0 2.175890 1_555
Li0 O24 2.373770 1_565
Li1 O26 2.050410 1_555
Li1 O2 2.160733 1_555
Li1 O13 2.175890 1_555
Li1 O17 2.373770 1_545
Li2 O1 2.050410 1_555
Li2 O25 2.160733 1_555
Li2 O14 2.175890 1_555
Li2 O10 2.373770 1_565
Li3 O11 2.050410 1_555
Li3 O15 2.160733 1_555
Li3 O27 2.175890 1_555
Li3 O3 2.373770 1_545
Bi0 O9 2.269261 1_555
Bi0 O21 2.271757 1_565
Bi0 O1 2.325047 1_565
Bi0 O3 2.463634 1_555
Bi0 O14 2.539437 1_555
Bi0 O12 2.643071 1_555
Bi1 O4 2.269261 1_555
Bi1 O19 2.271757 1_545
Bi1 O11 2.325047 1_545
Bi1 O10 2.463634 1_455
Bi1 O27 2.539437 1_555
Bi1 O2 2.643071 1_554
Bi2 O23 2.269261 1_555
Bi2 O8 2.271757 1_565
Bi2 O16 2.325047 1_565
Bi2 O17 2.463634 1_655
Bi2 O0 2.539437 1_555
Bi2 O25 2.643071 1_556
Bi3 O18 2.269261 1_555
Bi3 O6 2.271757 1_545
Bi3 O26 2.325047 1_545
Bi3 O24 2.463634 1_555
Bi3 O13 2.539437 1_555
Bi3 O15 2.643071 1_555
O0 P6 1.534314 1_565
O1 P2 1.556225 1_555
O2 P7 1.528834 1_555
O3 P3 1.539271 1_555
O4 P2 1.523295 1_555
O5 P2 1.615217 1_555
O5 P0 1.625177 1_555
O6 P3 1.545202 1_555
O7 P1 1.615217 1_555
O7 P3 1.625177 1_555
O8 P0 1.545202 1_556
O9 P1 1.523295 1_655
O10 P0 1.539271 1_555
O11 P1 1.556225 1_555
O12 P4 1.528834 1_555
O13 P5 1.534314 1_545
O14 P2 1.534314 1_565
O15 P3 1.528834 1_555
O16 P6 1.556225 1_555
O17 P7 1.539271 1_555
O18 P6 1.523295 1_455
O19 P7 1.545202 1_554
O20 P6 1.615217 1_555
O20 P4 1.625177 1_555
O21 P4 1.545202 1_555
O22 P5 1.615217 1_555
O22 P7 1.625177 1_555
O23 P5 1.523295 1_555
O24 P4 1.539271 1_555
O25 P0 1.528834 1_555
O26 P5 1.556225 1_555
O27 P1 1.534314 1_545
