# generated using pymatgen
data_CdC3S3N5
_symmetry_space_group_name_H-M   'P 1'
_cell_length_a   7.35227400
_cell_length_b   11.31699600
_cell_length_c   12.83498900
_cell_angle_alpha   90.00000000
_cell_angle_beta   90.00000000
_cell_angle_gamma   90.00000000
_symmetry_Int_Tables_number   1
_chemical_formula_structural   CdC3S3N5
_chemical_formula_sum   'Cd4 C12 S12 N20'
_cell_volume   1067.94367242
_cell_formula_units_Z   4
loop_
 _symmetry_equiv_pos_site_id
 _symmetry_equiv_pos_as_xyz
  1  'x, y, z'
loop_
 _atom_site_type_symbol
 _atom_site_label
 _atom_site_symmetry_multiplicity
 _atom_site_fract_x
 _atom_site_fract_y
 _atom_site_fract_z
 _atom_site_occupancy
  Cd  Cd0  1  0.18814800  0.92449700  0.75801900  1
  Cd  Cd1  1  0.31185200  0.07550300  0.25801900  1
  Cd  Cd2  1  0.68814800  0.57550300  0.24198100  1
  Cd  Cd3  1  0.81185200  0.42449700  0.74198100  1
  C  C0  1  0.40866100  0.02661400  0.55059000  1
  C  C1  1  0.09133900  0.97338600  0.05059000  1
  C  C2  1  0.90866100  0.47338600  0.44941000  1
  C  C3  1  0.59133900  0.52661400  0.94941000  1
  C  C4  1  0.14995700  0.62332800  0.77731600  1
  C  C5  1  0.35004300  0.37667200  0.27731600  1
  C  C6  1  0.64995700  0.87667200  0.22268400  1
  C  C7  1  0.85004300  0.12332800  0.72268400  1
  C  C8  1  0.47921200  0.16049700  0.91155400  1
  C  C9  1  0.02078800  0.83950300  0.41155400  1
  C  C10  1  0.97921200  0.33950300  0.08844600  1
  C  C11  1  0.52078800  0.66049700  0.58844600  1
  S  S0  1  0.48482300  0.12115400  0.46634100  1
  S  S1  1  0.01517700  0.87884600  0.96634100  1
  S  S2  1  0.98482300  0.37884600  0.53365900  1
  S  S3  1  0.51517700  0.62115400  0.03365900  1
  S  S4  1  0.14096500  0.48219000  0.80542300  1
  S  S5  1  0.35903500  0.51781000  0.30542300  1
  S  S6  1  0.64096500  0.01781000  0.19457700  1
  S  S7  1  0.85903500  0.98219000  0.69457700  1
  S  S8  1  0.31192000  0.14535100  0.82836100  1
  S  S9  1  0.18808000  0.85464900  0.32836100  1
  S  S10  1  0.81192000  0.35464900  0.17163900  1
  S  S11  1  0.68808000  0.64535100  0.67163900  1
  N  N0  1  0.48706700  0.87825300  0.86375600  1
  N  N1  1  0.01293300  0.12174700  0.36375600  1
  N  N2  1  0.98706700  0.62174700  0.13624400  1
  N  N3  1  0.51293300  0.37825300  0.63624400  1
  N  N4  1  0.35312800  0.95855300  0.61321700  1
  N  N5  1  0.14687200  0.04144700  0.11321700  1
  N  N6  1  0.85312800  0.54144700  0.38678300  1
  N  N7  1  0.64687200  0.45855300  0.88678300  1
  N  N8  1  0.16351700  0.72497500  0.75952600  1
  N  N9  1  0.33648300  0.27502500  0.25952600  1
  N  N10  1  0.66351700  0.77502500  0.24047400  1
  N  N11  1  0.83648300  0.22497500  0.74047400  1
  N  N12  1  0.60080800  0.18009400  0.96995300  1
  N  N13  1  0.89919200  0.81990600  0.46995300  1
  N  N14  1  0.10080800  0.31990600  0.03004700  1
  N  N15  1  0.39919200  0.68009400  0.53004700  1
  N  N16  1  0.58573000  0.91266600  0.92251400  1
  N  N17  1  0.91427000  0.08733400  0.42251400  1
  N  N18  1  0.08573000  0.58733400  0.07748600  1
  N  N19  1  0.41427000  0.41266600  0.57748600  1
loop_
_geom_bond_atom_site_label_1
_geom_bond_atom_site_label_2
_geom_bond_distance
_geom_bond_site_symmetry_2
Cd0 N4 2.252554 1_555
Cd0 N8 2.265323 1_555
Cd0 S7 2.635228 1_455
Cd0 N0 2.635476 1_555
Cd0 S8 2.808958 1_565
Cd0 S1 3.005573 1_555
Cd1 N5 2.252554 1_555
Cd1 N9 2.265323 1_555
Cd1 S6 2.635228 1_555
Cd1 N1 2.635476 1_555
Cd1 S9 2.808958 1_545
Cd1 S0 3.005573 1_555
Cd2 N6 2.252554 1_555
Cd2 N10 2.265323 1_555
Cd2 S5 2.635228 1_555
Cd2 N2 2.635476 1_555
Cd2 S10 2.808958 1_555
Cd2 S3 3.005573 1_555
Cd3 N7 2.252554 1_555
Cd3 N11 2.265323 1_555
Cd3 S4 2.635228 1_655
Cd3 N3 2.635476 1_555
Cd3 S11 2.808958 1_555
Cd3 S2 3.005573 1_555
C0 N4 1.185793 1_545
C0 S0 1.620972 1_555
C1 N5 1.185793 1_565
C1 S1 1.620972 1_554
C2 N6 1.185793 1_555
C2 S2 1.620972 1_555
C3 N7 1.185793 1_555
C3 S3 1.620972 1_556
C4 N8 1.177011 1_555
C4 S4 1.638825 1_555
C5 N9 1.177011 1_555
C5 S5 1.638825 1_555
C6 N10 1.177011 1_555
C6 S6 1.638825 1_565
C7 N11 1.177011 1_555
C7 S7 1.638825 1_545
C8 N12 1.187544 1_555
C8 S8 1.637797 1_555
C9 N13 1.187544 1_455
C9 S9 1.637797 1_555
C10 N14 1.187544 1_655
C10 S10 1.637797 1_555
C11 N15 1.187544 1_555
C11 S11 1.637797 1_555
N0 N16 1.116525 1_555
N1 N17 1.116525 1_455
N18 N2 1.116525 1_455
N19 N3 1.116525 1_555
