# generated using pymatgen
data_LiV3(O2F)2
_symmetry_space_group_name_H-M   'P 1'
_cell_length_a   4.90295500
_cell_length_b   8.66088500
_cell_length_c   10.29892000
_cell_angle_alpha   90.00000000
_cell_angle_beta   90.00000000
_cell_angle_gamma   90.00000000
_symmetry_Int_Tables_number   1
_chemical_formula_structural   LiV3(O2F)2
_chemical_formula_sum   'Li4 V12 O16 F8'
_cell_volume   437.33261193
_cell_formula_units_Z   4
loop_
 _symmetry_equiv_pos_site_id
 _symmetry_equiv_pos_as_xyz
  1  'x, y, z'
loop_
 _atom_site_type_symbol
 _atom_site_label
 _atom_site_symmetry_multiplicity
 _atom_site_fract_x
 _atom_site_fract_y
 _atom_site_fract_z
 _atom_site_occupancy
  Li  Li0  1  0.95584100  0.25000000  0.71967200  1
  Li  Li1  1  0.54415900  0.25000000  0.21967200  1
  Li  Li2  1  0.45584100  0.75000000  0.78032800  1
  Li  Li3  1  0.04415900  0.75000000  0.28032800  1
  V  V0  1  0.03742400  0.75000000  0.60051300  1
  V  V1  1  0.01197400  0.92489500  0.85843100  1
  V  V2  1  0.01197400  0.57510500  0.85843100  1
  V  V3  1  0.48802600  0.92489500  0.35843100  1
  V  V4  1  0.48802600  0.57510500  0.35843100  1
  V  V5  1  0.46257600  0.75000000  0.10051300  1
  V  V6  1  0.53742400  0.25000000  0.89948700  1
  V  V7  1  0.51197400  0.42489500  0.64156900  1
  V  V8  1  0.51197400  0.07510500  0.64156900  1
  V  V9  1  0.98802600  0.42489500  0.14156900  1
  V  V10  1  0.98802600  0.07510500  0.14156900  1
  V  V11  1  0.96257600  0.25000000  0.39948700  1
  O  O0  1  0.73792200  0.25000000  0.56155900  1
  O  O1  1  0.74503800  0.41819200  0.80094300  1
  O  O2  1  0.74503800  0.08180800  0.80094300  1
  O  O3  1  0.82534800  0.75000000  0.76739500  1
  O  O4  1  0.67465200  0.75000000  0.26739500  1
  O  O5  1  0.75496200  0.41819200  0.30094300  1
  O  O6  1  0.75496200  0.08180800  0.30094300  1
  O  O7  1  0.76207800  0.25000000  0.06155900  1
  O  O8  1  0.23792200  0.75000000  0.93844100  1
  O  O9  1  0.24503800  0.58180800  0.69905700  1
  O  O10  1  0.24503800  0.91819200  0.69905700  1
  O  O11  1  0.32534800  0.25000000  0.73260500  1
  O  O12  1  0.17465200  0.25000000  0.23260500  1
  O  O13  1  0.25496200  0.91819200  0.19905700  1
  O  O14  1  0.25496200  0.58180800  0.19905700  1
  O  O15  1  0.26207800  0.75000000  0.43844100  1
  F  F0  1  0.76616100  0.91146800  0.03170500  1
  F  F1  1  0.76616100  0.58853200  0.03170500  1
  F  F2  1  0.73383900  0.91146800  0.53170500  1
  F  F3  1  0.73383900  0.58853200  0.53170500  1
  F  F4  1  0.26616100  0.41146800  0.46829500  1
  F  F5  1  0.26616100  0.08853200  0.46829500  1
  F  F6  1  0.23383900  0.41146800  0.96829500  1
  F  F7  1  0.23383900  0.08853200  0.96829500  1
loop_
_geom_bond_atom_site_label_1
_geom_bond_atom_site_label_2
_geom_bond_distance
_geom_bond_site_symmetry_2
Li0 O11 1.816566 1_655
Li0 O0 1.947625 1_555
Li0 O1 1.972503 1_555
Li0 O2 1.972503 1_555
Li1 O12 1.816566 1_555
Li1 O7 1.947625 1_555
Li1 O6 1.972503 1_555
Li1 O5 1.972503 1_555
Li2 O3 1.816566 1_555
Li2 O8 1.947625 1_555
Li2 O10 1.972503 1_555
Li2 O9 1.972503 1_555
Li3 O4 1.816566 1_455
Li3 O15 1.947625 1_555
Li3 O14 1.972503 1_555
Li3 O13 1.972503 1_555
O0 V11 1.999837 1_555
O0 V8 2.049563 1_555
O0 V7 2.049563 1_555
O1 V2 1.977455 1_655
O1 V7 2.000817 1_555
O1 V6 2.046492 1_555
O2 V1 1.977455 1_645
O2 V8 2.000817 1_555
O2 V6 2.046492 1_555
O3 V2 2.002687 1_655
O3 V1 2.002687 1_655
O3 V0 2.008763 1_655
O4 V4 2.002687 1_555
O4 V3 2.002687 1_555
O4 V5 2.008763 1_555
O5 V4 1.977455 1_555
O5 V9 2.000817 1_555
O5 V11 2.046492 1_555
O6 V3 1.977455 1_545
O6 V10 2.000817 1_555
O6 V11 2.046492 1_555
O7 V6 1.999837 1_554
O7 V10 2.049563 1_555
O7 V9 2.049563 1_555
O8 V5 1.999837 1_556
O8 V1 2.049563 1_555
O8 V2 2.049563 1_555
O9 V7 1.977455 1_555
O9 V2 2.000817 1_555
O9 V0 2.046492 1_555
O10 V8 1.977455 1_565
O10 V1 2.000817 1_555
O10 V0 2.046492 1_555
O11 V8 2.002687 1_555
O11 V7 2.002687 1_555
O11 V6 2.008763 1_555
O12 V10 2.002687 1_455
O12 V9 2.002687 1_455
O12 V11 2.008763 1_455
O13 V10 1.977455 1_465
O13 V3 2.000817 1_555
O13 V5 2.046492 1_555
O14 V9 1.977455 1_455
O14 V4 2.000817 1_555
O14 V5 2.046492 1_555
O15 V0 1.999837 1_555
O15 V4 2.049563 1_555
O15 V3 2.049563 1_555
F0 V10 2.114738 1_565
F0 V1 2.156530 1_654
F0 V5 2.161801 1_555
F1 V9 2.114738 1_555
F1 V2 2.156530 1_654
F1 V5 2.161801 1_555
F2 V8 2.114738 1_565
F2 V3 2.156530 1_555
F2 V0 2.161801 1_655
F3 V7 2.114738 1_555
F3 V4 2.156530 1_555
F3 V0 2.161801 1_655
F4 V4 2.114738 1_555
F4 V7 2.156530 1_555
F4 V11 2.161801 1_455
F5 V3 2.114738 1_545
F5 V8 2.156530 1_555
F5 V11 2.161801 1_455
F6 V2 2.114738 1_555
F6 V9 2.156530 1_456
F6 V6 2.161801 1_555
F7 V1 2.114738 1_545
F7 V10 2.156530 1_456
F7 V6 2.161801 1_555
