# generated using pymatgen
data_Li2SiNiO4
_symmetry_space_group_name_H-M   'P 1'
_cell_length_a   5.02149300
_cell_length_b   6.40310000
_cell_length_c   10.67605800
_cell_angle_alpha   90.00000000
_cell_angle_beta   90.00000000
_cell_angle_gamma   90.00000000
_symmetry_Int_Tables_number   1
_chemical_formula_structural   Li2SiNiO4
_chemical_formula_sum   'Li8 Si4 Ni4 O16'
_cell_volume   343.26859352
_cell_formula_units_Z   4
loop_
 _symmetry_equiv_pos_site_id
 _symmetry_equiv_pos_as_xyz
  1  'x, y, z'
loop_
 _atom_site_type_symbol
 _atom_site_label
 _atom_site_symmetry_multiplicity
 _atom_site_fract_x
 _atom_site_fract_y
 _atom_site_fract_z
 _atom_site_occupancy
  Li  Li0  1  0.79335100  0.86911200  0.07991400  1
  Li  Li1  1  0.19284900  0.11891500  0.16258700  1
  Li  Li2  1  0.69284900  0.61891500  0.33741300  1
  Li  Li3  1  0.29335100  0.36911200  0.42008600  1
  Li  Li4  1  0.70664900  0.86911200  0.57991400  1
  Li  Li5  1  0.30715100  0.11891500  0.66258700  1
  Li  Li6  1  0.80715100  0.61891500  0.83741300  1
  Li  Li7  1  0.20664900  0.36911200  0.92008600  1
  Si  Si0  1  0.68792500  0.36852400  0.08475900  1
  Si  Si1  1  0.18792500  0.86852400  0.41524100  1
  Si  Si2  1  0.81207500  0.36852400  0.58475900  1
  Si  Si3  1  0.31207500  0.86852400  0.91524100  1
  Ni  Ni0  1  0.19307700  0.61353700  0.16502700  1
  Ni  Ni1  1  0.69307700  0.11353700  0.33497300  1
  Ni  Ni2  1  0.30692300  0.61353700  0.66502700  1
  Ni  Ni3  1  0.80692300  0.11353700  0.83497300  1
  O  O0  1  0.20450800  0.86709600  0.06086700  1
  O  O1  1  0.35920800  0.36646200  0.08639100  1
  O  O2  1  0.79479000  0.58112900  0.15770200  1
  O  O3  1  0.79096500  0.15732500  0.15915700  1
  O  O4  1  0.29096500  0.65732500  0.34084300  1
  O  O5  1  0.29479000  0.08112900  0.34229800  1
  O  O6  1  0.85920800  0.86646200  0.41360900  1
  O  O7  1  0.70450800  0.36709600  0.43913300  1
  O  O8  1  0.29549200  0.86709600  0.56086700  1
  O  O9  1  0.14079200  0.36646200  0.58639100  1
  O  O10  1  0.70521000  0.58112900  0.65770200  1
  O  O11  1  0.70903500  0.15732500  0.65915700  1
  O  O12  1  0.20903500  0.65732500  0.84084300  1
  O  O13  1  0.20521000  0.08112900  0.84229800  1
  O  O14  1  0.64079200  0.86646200  0.91360900  1
  O  O15  1  0.79549200  0.36709600  0.93913300  1
loop_
_geom_bond_atom_site_label_1
_geom_bond_atom_site_label_2
_geom_bond_distance
_geom_bond_site_symmetry_2
Li0 O14 1.933777 1_554
Li0 O2 2.022377 1_555
Li0 O3 2.030166 1_565
Li0 O0 2.074652 1_655
Li1 O0 1.944906 1_545
Li1 O1 1.967746 1_555
Li1 O5 2.000405 1_555
Li1 O3 2.033319 1_455
Li2 O7 1.944906 1_555
Li2 O6 1.967746 1_555
Li2 O2 2.000405 1_555
Li2 O4 2.033319 1_555
Li3 O9 1.933777 1_555
Li3 O5 2.022377 1_555
Li3 O4 2.030166 1_555
Li3 O7 2.074652 1_555
Li4 O6 1.933777 1_555
Li4 O10 2.022377 1_555
Li4 O11 2.030166 1_565
Li4 O8 2.074652 1_555
Li5 O8 1.944906 1_545
Li5 O9 1.967746 1_555
Li5 O13 2.000405 1_555
Li5 O11 2.033319 1_555
Li6 O15 1.944906 1_555
Li6 O14 1.967746 1_555
Li6 O10 2.000405 1_555
Li6 O12 2.033319 1_655
Li7 O1 1.933777 1_556
Li7 O13 2.022377 1_555
Li7 O12 2.030166 1_555
Li7 O15 2.074652 1_455
Ni0 O4 1.960469 1_555
Ni0 O0 1.968715 1_555
Ni0 O1 1.975753 1_555
Ni0 O2 2.012252 1_455
Ni1 O3 1.960469 1_555
Ni1 O7 1.968715 1_555
Ni1 O6 1.975753 1_545
Ni1 O5 2.012252 1_555
Ni2 O12 1.960469 1_555
Ni2 O8 1.968715 1_555
Ni2 O9 1.975753 1_555
Ni2 O10 2.012252 1_555
Ni3 O11 1.960469 1_555
Ni3 O15 1.968715 1_555
Ni3 O14 1.975753 1_545
Ni3 O13 2.012252 1_655
O0 Si3 1.645895 1_554
O1 Si0 1.650795 1_555
O2 Si0 1.657597 1_555
O3 Si0 1.651480 1_555
O4 Si1 1.651480 1_555
O5 Si1 1.657597 1_545
O6 Si1 1.650795 1_655
O7 Si2 1.645895 1_555
O8 Si1 1.645895 1_555
O9 Si2 1.650795 1_455
O10 Si2 1.657597 1_555
O11 Si2 1.651480 1_555
O12 Si3 1.651480 1_555
O13 Si3 1.657597 1_545
O14 Si3 1.650795 1_555
O15 Si0 1.645895 1_556
