# generated using pymatgen
data_Li6Mn5Ni3O16
_symmetry_space_group_name_H-M   'P 1'
_cell_length_a   5.82163580
_cell_length_b   5.82163580
_cell_length_c   9.43879464
_cell_angle_alpha   88.88539802
_cell_angle_beta   88.88539802
_cell_angle_gamma   59.59379841
_symmetry_Int_Tables_number   1
_chemical_formula_structural   Li6Mn5Ni3O16
_chemical_formula_sum   'Li6 Mn5 Ni3 O16'
_cell_volume   275.82642463
_cell_formula_units_Z   1
loop_
 _symmetry_equiv_pos_site_id
 _symmetry_equiv_pos_as_xyz
  1  'x, y, z'
loop_
 _atom_site_type_symbol
 _atom_site_label
 _atom_site_symmetry_multiplicity
 _atom_site_fract_x
 _atom_site_fract_y
 _atom_site_fract_z
 _atom_site_occupancy
  Li  Li0  1  0.82566800  0.82566800  0.45053500  1
  Li  Li1  1  0.34768400  0.83380200  0.45311900  1
  Li  Li2  1  0.83380200  0.34768400  0.45311900  1
  Li  Li3  1  0.17313100  0.66462900  0.94016900  1
  Li  Li4  1  0.66462900  0.17313100  0.94016900  1
  Li  Li5  1  0.16430200  0.16430200  0.94073400  1
  Mn  Mn0  1  0.82790300  0.82790300  0.71472000  1
  Mn  Mn1  1  0.65991700  0.65991700  0.98478200  1
  Mn  Mn2  1  0.16838800  0.66360800  0.21458900  1
  Mn  Mn3  1  0.66360800  0.16838800  0.21458900  1
  Mn  Mn4  1  0.32942600  0.32942600  0.48965200  1
  Ni  Ni0  1  0.33492200  0.83229200  0.71236600  1
  Ni  Ni1  1  0.83229200  0.33492200  0.71236600  1
  Ni  Ni2  1  0.16817100  0.16817100  0.21288600  1
  O  O0  1  0.83806600  0.83806600  0.10316900  1
  O  O1  1  0.52738700  0.96497000  0.85192800  1
  O  O2  1  0.32467000  0.82806900  0.09226100  1
  O  O3  1  0.67468700  0.67468700  0.59677400  1
  O  O4  1  0.96497000  0.52738700  0.85192800  1
  O  O5  1  0.52131900  0.52131900  0.85573100  1
  O  O6  1  0.15563700  0.66414100  0.59334900  1
  O  O7  1  0.82806900  0.32467000  0.09226100  1
  O  O8  1  0.48518400  0.48518400  0.33826100  1
  O  O9  1  0.66414100  0.15563700  0.59334900  1
  O  O10  1  0.34346600  0.34346600  0.10331300  1
  O  O11  1  0.03900400  0.49417800  0.34581600  1
  O  O12  1  0.49417800  0.03900400  0.34581600  1
  O  O13  1  0.16463500  0.16463500  0.58072300  1
  O  O14  1  0.99156000  0.99156000  0.32105000  1
  O  O15  1  0.98862600  0.98862600  0.82050800  1
loop_
_geom_bond_atom_site_label_1
_geom_bond_atom_site_label_2
_geom_bond_distance
_geom_bond_site_symmetry_2
Li0 O11 1.960600 1_655
Li0 O12 1.960600 1_565
Li0 O3 2.034218 1_555
Li0 O14 2.052172 1_555
Li0 O9 2.148102 1_565
Li0 O6 2.148102 1_655
Li1 O12 2.032443 1_565
Li1 O13 2.063595 1_565
Li1 O8 2.083843 1_555
Li1 O3 2.141771 1_555
Li1 O14 2.196424 1_455
Li1 O6 2.233125 1_555
Li2 O11 2.032443 1_655
Li2 O13 2.063595 1_655
Li2 O8 2.083843 1_555
Li2 O3 2.141771 1_555
Li2 O14 2.196424 1_545
Li2 O9 2.233125 1_555
Li3 O5 1.921257 1_555
Li3 O4 1.961086 1_455
Li3 O15 1.974998 1_455
Li3 O2 2.167157 1_556
Li3 O10 2.218323 1_556
Li3 O0 2.267485 1_456
Li4 O5 1.921257 1_555
Li4 O1 1.961086 1_545
Li4 O15 1.974998 1_545
Li4 O7 2.167157 1_556
Li4 O10 2.218323 1_556
Li4 O0 2.267485 1_546
Li5 O1 2.000786 1_545
Li5 O4 2.000786 1_455
Li5 O15 2.128085 1_445
Li5 O7 2.200426 1_456
Li5 O2 2.200426 1_546
Li5 O10 2.399257 1_556
Mn0 O15 1.925328 1_555
Mn0 O3 1.926966 1_555
Mn0 O4 1.978288 1_555
Mn0 O1 1.978288 1_555
Mn0 O9 1.994431 1_565
Mn0 O6 1.994431 1_655
Mn1 O5 1.876509 1_555
Mn1 O7 1.955548 1_556
Mn1 O2 1.955548 1_556
Mn1 O1 1.971197 1_555
Mn1 O4 1.971197 1_555
Mn1 O0 2.139825 1_556
Mn2 O10 1.930593 1_555
Mn2 O11 1.934600 1_555
Mn2 O14 1.938941 1_455
Mn2 O2 1.968628 1_555
Mn2 O0 1.973733 1_455
Mn2 O8 1.985025 1_555
Mn3 O10 1.930593 1_555
Mn3 O12 1.934600 1_555
Mn3 O14 1.938941 1_545
Mn3 O7 1.968628 1_555
Mn3 O0 1.973733 1_545
Mn3 O8 1.985025 1_555
Mn4 O13 1.856637 1_555
Mn4 O9 1.954141 1_555
Mn4 O6 1.954141 1_555
Mn4 O11 2.004700 1_555
Mn4 O12 2.004700 1_555
Mn4 O8 2.101863 1_555
Ni0 O15 2.008306 1_455
Ni0 O3 2.015582 1_555
Ni0 O5 2.063818 1_555
Ni0 O13 2.069523 1_565
Ni0 O6 2.105295 1_555
Ni0 O1 2.135503 1_555
Ni1 O15 2.008306 1_545
Ni1 O3 2.015582 1_555
Ni1 O5 2.063818 1_555
Ni1 O13 2.069523 1_655
Ni1 O9 2.105295 1_555
Ni1 O4 2.135503 1_555
Ni2 O10 2.030903 1_555
Ni2 O14 2.035918 1_445
Ni2 O2 2.065895 1_545
Ni2 O7 2.065895 1_455
Ni2 O11 2.086390 1_555
Ni2 O12 2.086390 1_555
