# generated using pymatgen
data_Mn12O7F17
_symmetry_space_group_name_H-M   'P 1'
_cell_length_a   5.27331000
_cell_length_b   5.72847196
_cell_length_c   14.49589159
_cell_angle_alpha   85.37398594
_cell_angle_beta   88.91803499
_cell_angle_gamma   89.14155218
_symmetry_Int_Tables_number   1
_chemical_formula_structural   Mn12O7F17
_chemical_formula_sum   'Mn12 O7 F17'
_cell_volume   436.34790205
_cell_formula_units_Z   1
loop_
 _symmetry_equiv_pos_site_id
 _symmetry_equiv_pos_as_xyz
  1  'x, y, z'
loop_
 _atom_site_type_symbol
 _atom_site_label
 _atom_site_symmetry_multiplicity
 _atom_site_fract_x
 _atom_site_fract_y
 _atom_site_fract_z
 _atom_site_occupancy
  Mn  Mn0  1  0.97008700  0.07357400  0.00178200  1
  Mn  Mn1  1  0.00643400  0.58501200  0.17333900  1
  Mn  Mn2  1  0.98310400  0.10217500  0.33495500  1
  Mn  Mn3  1  0.03907400  0.57775900  0.50335900  1
  Mn  Mn4  1  0.97533600  0.07089900  0.67069100  1
  Mn  Mn5  1  0.02632900  0.56427500  0.84246200  1
  Mn  Mn6  1  0.50537200  0.87666800  0.17399600  1
  Mn  Mn7  1  0.49344900  0.48149300  0.01432400  1
  Mn  Mn8  1  0.49960200  0.40929100  0.66681700  1
  Mn  Mn9  1  0.51450200  0.90019000  0.49883100  1
  Mn  Mn10  1  0.52408900  0.39594900  0.32821800  1
  Mn  Mn11  1  0.48804800  0.92271900  0.83353300  1
  O  O0  1  0.67486700  0.13801800  0.40920300  1
  O  O1  1  0.63915500  0.14221000  0.74152600  1
  O  O2  1  0.70008900  0.67669000  0.09791400  1
  O  O3  1  0.83483500  0.35587200  0.25901300  1
  O  O4  1  0.33729600  0.67509700  0.91270200  1
  O  O5  1  0.36071100  0.63731300  0.57364000  1
  O  O6  1  0.34533000  0.60850000  0.23868200  1
  F  F0  1  0.84544400  0.85941900  0.24949900  1
  F  F1  1  0.62711900  0.15398400  0.08875400  1
  F  F2  1  0.83970600  0.85408800  0.57332900  1
  F  F3  1  0.81444000  0.86612400  0.90262200  1
  F  F4  1  0.81420500  0.35599800  0.58768800  1
  F  F5  1  0.78485300  0.36021500  0.92794600  1
  F  F6  1  0.68688400  0.63734800  0.75373000  1
  F  F7  1  0.70005600  0.64222300  0.42298200  1
  F  F8  1  0.14220900  0.36520100  0.07112900  1
  F  F9  1  0.20530700  0.36859800  0.40333100  1
  F  F10  1  0.16251000  0.36756700  0.73231400  1
  F  F11  1  0.18132900  0.87916100  0.42044300  1
  F  F12  1  0.18001200  0.84987600  0.09024200  1
  F  F13  1  0.18767700  0.84903000  0.75546000  1
  F  F14  1  0.31785700  0.13245900  0.58340400  1
  F  F15  1  0.27764600  0.16424600  0.90773500  1
  F  F16  1  0.31503600  0.10076300  0.25440700  1
loop_
_geom_bond_atom_site_label_1
_geom_bond_atom_site_label_2
_geom_bond_distance
_geom_bond_site_symmetry_2
Mn1 O3 1.953043 1_455
Mn1 O2 2.007380 1_455
Mn1 O6 2.049568 1_555
Mn2 O3 1.917198 1_555
Mn2 O0 1.949913 1_555
Mn3 O5 2.041983 1_555
Mn4 O1 2.083558 1_555
Mn5 O4 2.080211 1_555
Mn6 O2 1.925816 1_555
Mn6 O6 1.930803 1_555
Mn7 O4 1.957807 1_554
Mn7 O2 2.052046 1_555
Mn8 O1 1.945323 1_555
Mn8 O5 1.947073 1_555
Mn9 O5 1.959931 1_555
Mn9 O0 1.991675 1_565
Mn10 O3 1.925642 1_555
Mn10 O6 1.952583 1_555
Mn10 O0 1.978321 1_555
Mn11 O4 1.922989 1_555
Mn11 O1 1.927194 1_565
F0 Mn2 2.082642 1_565
F0 Mn6 2.115413 1_555
F0 Mn1 2.148271 1_655
F1 Mn6 2.036330 1_545
F1 Mn7 2.200769 1_555
F1 Mn0 2.248373 1_555
F2 Mn9 2.046268 1_555
F2 Mn4 2.096064 1_565
F2 Mn3 2.192852 1_655
F3 Mn11 2.016567 1_555
F3 Mn0 2.121643 1_566
F3 Mn5 2.268797 1_655
F4 Mn8 2.032396 1_555
F4 Mn3 2.062559 1_655
F4 Mn4 2.125328 1_555
F5 Mn5 2.067567 1_655
F5 Mn7 2.108905 1_556
F5 Mn0 2.122231 1_556
F6 Mn8 2.149539 1_555
F6 Mn5 2.238617 1_655
F6 Mn11 2.306051 1_555
F7 Mn9 2.127961 1_555
F7 Mn3 2.163199 1_655
F7 Mn10 2.266786 1_555
F8 Mn7 2.107930 1_555
F8 Mn1 2.127731 1_555
F8 Mn0 2.230685 1_455
F9 Mn10 1.986764 1_555
F9 Mn3 2.123039 1_555
F9 Mn2 2.241905 1_455
F10 Mn8 2.007680 1_555
F10 Mn5 2.134844 1_555
F10 Mn4 2.233551 1_455
F11 Mn2 2.003486 1_465
F11 Mn9 2.120448 1_555
F11 Mn3 2.158348 1_555
F12 Mn0 2.063471 1_465
F12 Mn1 2.072697 1_555
F12 Mn6 2.134922 1_555
F13 Mn11 2.032907 1_555
F13 Mn4 2.033848 1_465
F13 Mn5 2.155123 1_555
F14 Mn9 2.126595 1_545
F14 Mn4 2.201949 1_455
F14 Mn8 2.300870 1_555
F15 Mn11 2.109804 1_545
F15 Mn0 2.141563 1_456
F16 Mn6 2.042700 1_545
F16 Mn2 2.085938 1_455
F16 Mn10 2.368902 1_555
