# generated using pymatgen
data_Li3Sb2(PO4)3
_symmetry_space_group_name_H-M   'P 1'
_cell_length_a   9.32443600
_cell_length_b   8.81355700
_cell_length_c   15.42728068
_cell_angle_alpha   55.89259986
_cell_angle_beta   90.00000000
_cell_angle_gamma   90.00000000
_symmetry_Int_Tables_number   1
_chemical_formula_structural   Li3Sb2(PO4)3
_chemical_formula_sum   'Li12 Sb8 P12 O48'
_cell_volume   1049.75311082
_cell_formula_units_Z   4
loop_
 _symmetry_equiv_pos_site_id
 _symmetry_equiv_pos_as_xyz
  1  'x, y, z'
loop_
 _atom_site_type_symbol
 _atom_site_label
 _atom_site_symmetry_multiplicity
 _atom_site_fract_x
 _atom_site_fract_y
 _atom_site_fract_z
 _atom_site_occupancy
  Li  Li0  1  0.51120200  0.58892100  0.34901500  1
  Li  Li1  1  0.08751400  0.22759000  0.68585000  1
  Li  Li2  1  0.77833400  0.63812000  0.18265900  1
  Li  Li3  1  0.27833400  0.36188000  0.31734100  1
  Li  Li4  1  0.58751400  0.77241000  0.81415000  1
  Li  Li5  1  0.01120200  0.41107900  0.15098500  1
  Li  Li6  1  0.98879800  0.58892100  0.84901500  1
  Li  Li7  1  0.41248600  0.22759000  0.18585000  1
  Li  Li8  1  0.72166600  0.63812000  0.68265900  1
  Li  Li9  1  0.22166600  0.36188000  0.81734100  1
  Li  Li10  1  0.91248600  0.77241000  0.31415000  1
  Li  Li11  1  0.48879800  0.41107900  0.65098500  1
  Sb  Sb0  1  0.02702300  0.86851200  0.90258300  1
  Sb  Sb1  1  0.45538800  0.66477800  0.09602900  1
  Sb  Sb2  1  0.95538800  0.33522200  0.40397100  1
  Sb  Sb3  1  0.52702300  0.13148800  0.59741700  1
  Sb  Sb4  1  0.47297700  0.86851200  0.40258300  1
  Sb  Sb5  1  0.04461200  0.66477800  0.59602900  1
  Sb  Sb6  1  0.54461200  0.33522200  0.90397100  1
  Sb  Sb7  1  0.97297700  0.13148800  0.09741700  1
  P  P0  1  0.25824600  0.45417500  0.49070900  1
  P  P1  1  0.37944500  0.05936500  0.83135700  1
  P  P2  1  0.10322000  0.71852500  0.15968500  1
  P  P3  1  0.60322000  0.28147500  0.34031500  1
  P  P4  1  0.87944500  0.94063500  0.66864300  1
  P  P5  1  0.75824600  0.54582500  0.00929100  1
  P  P6  1  0.24175400  0.45417500  0.99070900  1
  P  P7  1  0.12055500  0.05936500  0.33135700  1
  P  P8  1  0.39678000  0.71852500  0.65968500  1
  P  P9  1  0.89678000  0.28147500  0.84031500  1
  P  P10  1  0.62055500  0.94063500  0.16864300  1
  P  P11  1  0.74175400  0.54582500  0.50929100  1
  O  O0  1  0.86327000  0.52173100  0.44869900  1
  O  O1  1  0.87861300  0.07186600  0.89829000  1
  O  O2  1  0.66571800  0.36753700  0.59285600  1
  O  O3  1  0.57086500  0.74435400  0.20007800  1
  O  O4  1  0.36741800  0.32071800  0.58006100  1
  O  O5  1  0.99435200  0.64126700  0.25285900  1
  O  O6  1  0.22035700  0.08291700  0.79992700  1
  O  O7  1  0.39520000  0.92211700  0.95129900  1
  O  O8  1  0.25090100  0.61954300  0.19830100  1
  O  O9  1  0.19615100  0.35696400  0.44020400  1
  O  O10  1  0.47413900  0.99731500  0.77323800  1
  O  O11  1  0.03474700  0.67092300  0.08486700  1
  O  O12  1  0.53474700  0.32907700  0.41513300  1
  O  O13  1  0.97413900  0.00268500  0.72676200  1
  O  O14  1  0.69615100  0.64303600  0.05979600  1
  O  O15  1  0.75090100  0.38045700  0.30169900  1
  O  O16  1  0.89520000  0.07788300  0.54870100  1
  O  O17  1  0.72035700  0.91708300  0.70007300  1
  O  O18  1  0.49435200  0.35873300  0.24714100  1
  O  O19  1  0.86741800  0.67928200  0.91993900  1
  O  O20  1  0.07086500  0.25564600  0.29992200  1
  O  O21  1  0.16571800  0.63246300  0.90714400  1
  O  O22  1  0.37861300  0.92813400  0.60171000  1
  O  O23  1  0.36327000  0.47826900  0.05130100  1
  O  O24  1  0.63673000  0.52173100  0.94869900  1
  O  O25  1  0.62138700  0.07186600  0.39829000  1
  O  O26  1  0.83428200  0.36753700  0.09285600  1
  O  O27  1  0.92913500  0.74435400  0.70007800  1
  O  O28  1  0.13258200  0.32071800  0.08006100  1
  O  O29  1  0.50564800  0.64126700  0.75285900  1
  O  O30  1  0.27964300  0.08291700  0.29992700  1
  O  O31  1  0.10480000  0.92211700  0.45129900  1
  O  O32  1  0.24909900  0.61954300  0.69830100  1
  O  O33  1  0.30384900  0.35696400  0.94020400  1
  O  O34  1  0.02586100  0.99731500  0.27323800  1
  O  O35  1  0.46525300  0.67092300  0.58486700  1
  O  O36  1  0.96525300  0.32907700  0.91513300  1
  O  O37  1  0.52586100  0.00268500  0.22676200  1
  O  O38  1  0.80384900  0.64303600  0.55979600  1
  O  O39  1  0.74909900  0.38045700  0.80169900  1
  O  O40  1  0.60480000  0.07788300  0.04870100  1
  O  O41  1  0.77964300  0.91708300  0.20007300  1
  O  O42  1  0.00564800  0.35873300  0.74714100  1
  O  O43  1  0.63258200  0.67928200  0.41993900  1
  O  O44  1  0.42913500  0.25564600  0.79992200  1
  O  O45  1  0.33428200  0.63246300  0.40714400  1
  O  O46  1  0.12138700  0.92813400  0.10171000  1
  O  O47  1  0.13673000  0.47826900  0.55130100  1
loop_
_geom_bond_atom_site_label_1
_geom_bond_atom_site_label_2
_geom_bond_distance
_geom_bond_site_symmetry_2
Li0 O12 1.927076 1_555
Li0 O3 1.983809 1_555
Li0 O45 2.014664 1_555
Li0 O43 2.022297 1_555
Li1 O6 1.934108 1_555
Li1 O42 2.009583 1_555
Li1 O13 2.010478 1_455
Li1 O47 2.063334 1_555
Li2 O15 1.979391 1_555
Li2 O14 2.022302 1_555
Li2 O3 2.230126 1_555
Li2 O5 2.294455 1_555
Li3 O8 1.979391 1_555
Li3 O9 2.022302 1_555
Li3 O20 2.230126 1_555
Li3 O18 2.294455 1_555
Li4 O17 1.934108 1_555
Li4 O29 2.009583 1_555
Li4 O10 2.010478 1_555
Li4 O24 2.063334 1_555
Li5 O11 1.927076 1_555
Li5 O20 1.983809 1_555
Li5 O26 2.014664 1_455
Li5 O28 2.022297 1_555
Li6 O36 1.927076 1_555
Li6 O27 1.983809 1_555
Li6 O21 2.014664 1_655
Li6 O19 2.022297 1_555
Li7 O30 1.934108 1_555
Li7 O18 2.009583 1_555
Li7 O37 2.010478 1_555
Li7 O23 2.063334 1_555
Li8 O39 1.979391 1_555
Li8 O38 2.022302 1_555
Li8 O27 2.230126 1_555
Li8 O29 2.294455 1_555
Li9 O32 1.979391 1_555
Li9 O33 2.022302 1_555
Li9 O44 2.230126 1_555
Li9 O42 2.294455 1_555
Li10 O41 1.934108 1_555
Li10 O5 2.009583 1_555
Li10 O34 2.010478 1_655
Li10 O0 2.063334 1_555
Li11 O35 1.927076 1_555
Li11 O44 1.983809 1_555
Li11 O2 2.014664 1_555
Li11 O4 2.022297 1_555
O0 P11 1.557354 1_555
O0 Sb2 2.277745 1_555
O1 P9 1.545471 1_555
O1 Sb0 2.235736 1_645
O2 P11 1.536859 1_555
O2 Sb3 2.416915 1_555
O3 P10 1.581664 1_555
O3 Sb1 2.343185 1_555
O4 P0 1.581630 1_555
O4 Sb3 2.137105 1_555
O5 P2 1.569282 1_655
O5 Sb2 2.406292 1_555
O6 P1 1.538119 1_555
O6 Sb0 2.443879 1_545
O7 P1 1.548705 1_565
O7 Sb1 2.182909 1_556
O8 P2 1.558637 1_555
O8 Sb1 2.361881 1_555
O9 P0 1.557257 1_555
O9 Sb2 2.347176 1_455
O10 P1 1.559664 1_565
O10 Sb3 2.324140 1_565
O11 P2 1.568124 1_555
O11 Sb0 2.335342 1_554
O12 P3 1.568124 1_555
O12 Sb3 2.335342 1_555
O13 P4 1.559664 1_545
O13 Sb0 2.324140 1_645
O14 P5 1.557257 1_555
O14 Sb1 2.347176 1_555
O15 P3 1.558637 1_555
O15 Sb2 2.361881 1_555
O16 P4 1.548705 1_545
O16 Sb2 2.182909 1_555
O17 P4 1.538119 1_555
O17 Sb3 2.443879 1_565
O18 P3 1.569282 1_555
O18 Sb1 2.406292 1_555
O19 P5 1.581630 1_556
O19 Sb0 2.137105 1_655
O20 P7 1.581664 1_555
O20 Sb2 2.343185 1_455
O21 P6 1.536859 1_555
O21 Sb0 2.416915 1_555
O22 P8 1.545471 1_555
O22 Sb3 2.235736 1_565
O23 P6 1.557354 1_554
O23 Sb1 2.277745 1_555
O24 P5 1.557354 1_556
O24 Sb6 2.277745 1_555
O25 P3 1.545471 1_555
O25 Sb4 2.235736 1_545
O26 P5 1.536859 1_555
O26 Sb7 2.416915 1_555
O27 P4 1.581664 1_555
O27 Sb5 2.343185 1_655
O28 P6 1.581630 1_554
O28 Sb7 2.137105 1_455
O29 P8 1.569282 1_555
O29 Sb6 2.406292 1_555
O30 P7 1.538119 1_555
O30 Sb4 2.443879 1_545
O31 P7 1.548705 1_565
O31 Sb5 2.182909 1_555
O32 P8 1.558637 1_555
O32 Sb5 2.361881 1_555
O33 P6 1.557257 1_555
O33 Sb6 2.347176 1_555
O34 P7 1.559664 1_565
O34 Sb7 2.324140 1_465
O35 P8 1.568124 1_555
O35 Sb4 2.335342 1_555
O36 P9 1.568124 1_555
O36 Sb7 2.335342 1_556
O37 P10 1.559664 1_545
O37 Sb4 2.324140 1_545
O38 P11 1.557257 1_555
O38 Sb5 2.347176 1_655
O39 P9 1.558637 1_555
O39 Sb6 2.361881 1_555
O40 P10 1.548705 1_545
O40 Sb6 2.182909 1_554
O41 P10 1.538119 1_555
O41 Sb7 2.443879 1_565
O42 P9 1.569282 1_455
O42 Sb5 2.406292 1_555
O43 P11 1.581630 1_555
O43 Sb4 2.137105 1_555
O44 P1 1.581664 1_555
O44 Sb6 2.343185 1_555
O45 P0 1.536859 1_555
O45 Sb4 2.416915 1_555
O46 P2 1.545471 1_555
O46 Sb7 2.235736 1_465
O47 P0 1.557354 1_555
O47 Sb5 2.277745 1_555
