# generated using pymatgen
data_K2LiNb6(PO8)3
_symmetry_space_group_name_H-M   'P 1'
_cell_length_a   8.53040000
_cell_length_b   10.49637232
_cell_length_c   13.45962166
_cell_angle_alpha   90.04285931
_cell_angle_beta   90.01751274
_cell_angle_gamma   113.37710813
_symmetry_Int_Tables_number   1
_chemical_formula_structural   K2LiNb6(PO8)3
_chemical_formula_sum   'K4 Li2 Nb12 P6 O48'
_cell_volume   1106.22352390
_cell_formula_units_Z   2
loop_
 _symmetry_equiv_pos_site_id
 _symmetry_equiv_pos_as_xyz
  1  'x, y, z'
loop_
 _atom_site_type_symbol
 _atom_site_label
 _atom_site_symmetry_multiplicity
 _atom_site_fract_x
 _atom_site_fract_y
 _atom_site_fract_z
 _atom_site_occupancy
  K  K0  1  0.59419000  0.10799800  0.19681400  1
  K  K1  1  0.69583600  0.74721700  0.65871000  1
  K  K2  1  0.30477300  0.25254500  0.65860500  1
  K  K3  1  0.08920400  0.55040100  0.14446700  1
  Li  Li0  1  0.57889700  0.57786900  0.99959800  1
  Li  Li1  1  0.42035900  0.92136900  0.49989600  1
  Nb  Nb0  1  0.96234800  0.24157400  0.40398500  1
  Nb  Nb1  1  0.83852200  0.30335300  0.65926100  1
  Nb  Nb2  1  0.97155900  0.75030800  0.90281400  1
  Nb  Nb3  1  0.64812900  0.40273700  0.43802300  1
  Nb  Nb4  1  0.84584100  0.81105600  0.15950900  1
  Nb  Nb5  1  0.35406100  0.10016000  0.93897200  1
  Nb  Nb6  1  0.65109800  0.90862200  0.93820200  1
  Nb  Nb7  1  0.15886800  0.19547900  0.15880200  1
  Nb  Nb8  1  0.34769100  0.59068400  0.43688500  1
  Nb  Nb9  1  0.03590600  0.25738200  0.90250400  1
  Nb  Nb10  1  0.15353500  0.68734100  0.65936900  1
  Nb  Nb11  1  0.03071400  0.75235800  0.40332900  1
  P  P0  1  0.72365000  0.38771600  0.88803000  1
  P  P1  1  0.50010200  0.00023000  0.72378100  1
  P  P2  1  0.72405300  0.88832100  0.38786600  1
  P  P3  1  0.50024200  0.49966300  0.22393300  1
  P  P4  1  0.27625900  0.11228600  0.38832800  1
  P  P5  1  0.27657100  0.61144400  0.88759900  1
  O  O0  1  0.97560300  0.26487200  0.76289400  1
  O  O1  1  0.93589400  0.24238400  0.55338400  1
  O  O2  1  0.84701500  0.07740100  0.92379500  1
  O  O3  1  0.76229100  0.04470400  0.40209100  1
  O  O4  1  0.86861100  0.35527400  0.93559600  1
  O  O5  1  0.79295600  0.30876100  0.37538100  1
  O  O6  1  0.97243600  0.76121200  0.26298300  1
  O  O7  1  0.64038800  0.10652100  0.65777900  1
  O  O8  1  0.92882200  0.73692900  0.05358300  1
  O  O9  1  0.84665300  0.57614500  0.42348700  1
  O  O10  1  0.71056300  0.35810800  0.77516600  1
  O  O11  1  0.68547100  0.36329500  0.57014700  1
  O  O12  1  0.50036300  0.00138500  0.97348200  1
  O  O13  1  0.75432900  0.54200000  0.90805700  1
  O  O14  1  0.86534500  0.85255500  0.43676500  1
  O  O15  1  0.55166300  0.29692600  0.93806500  1
  O  O16  1  0.79029200  0.80641400  0.87735400  1
  O  O17  1  0.41608600  0.07793000  0.78743700  1
  O  O18  1  0.58294800  0.42164400  0.28828500  1
  O  O19  1  0.44771900  0.20204700  0.43975000  1
  O  O20  1  0.63424300  0.60218300  0.15234200  1
  O  O21  1  0.70872900  0.85711600  0.27533000  1
  O  O22  1  0.68664500  0.86179900  0.06871600  1
  O  O23  1  0.50115800  0.50032700  0.47427200  1
  O  O24  1  0.31460500  0.13614600  0.07115800  1
  O  O25  1  0.29151900  0.14087900  0.27537800  1
  O  O26  1  0.35746000  0.39500500  0.15806800  1
  O  O27  1  0.55135400  0.80628400  0.44166400  1
  O  O28  1  0.41855900  0.57925500  0.28874700  1
  O  O29  1  0.58080300  0.91940500  0.78774200  1
  O  O30  1  0.20650400  0.19001000  0.87557800  1
  O  O31  1  0.45041800  0.69405400  0.93985600  1
  O  O32  1  0.13252300  0.14559200  0.43606700  1
  O  O33  1  0.23588000  0.45556100  0.90391000  1
  O  O34  1  0.31736500  0.64114900  0.56851400  1
  O  O35  1  0.99994700  0.00057900  0.15344100  1
  O  O36  1  0.29177300  0.64474500  0.77527000  1
  O  O37  1  0.15293800  0.42262400  0.42346500  1
  O  O38  1  0.06619300  0.26091700  0.05406800  1
  O  O39  1  0.36713100  0.89763600  0.65129400  1
  O  O40  1  0.02655400  0.23685400  0.26330900  1
  O  O41  1  0.20723600  0.69164500  0.37820700  1
  O  O42  1  0.13406100  0.64646300  0.93685700  1
  O  O43  1  0.24565700  0.95775600  0.40796400  1
  O  O44  1  0.99932300  0.49951000  0.65292000  1
  O  O45  1  0.15359800  0.92414400  0.92326600  1
  O  O46  1  0.07006300  0.76014000  0.55296700  1
  O  O47  1  0.02384500  0.73538900  0.76281700  1
loop_
_geom_bond_atom_site_label_1
_geom_bond_atom_site_label_2
_geom_bond_distance
_geom_bond_site_symmetry_2
K0 O25 2.934586 1_555
K0 O24 3.032042 1_555
K0 O12 3.195533 1_554
K0 O5 3.201033 1_555
K0 O3 3.299676 1_555
K0 O21 3.324355 1_545
K1 O29 2.940979 1_555
K1 O16 3.048652 1_555
K1 O47 3.175137 1_655
K1 O34 3.206210 1_555
K1 O14 3.313027 1_555
K1 O27 3.323347 1_555
K2 O17 2.941524 1_555
K2 O30 3.038068 1_555
K2 O0 3.187810 1_455
K2 O11 3.213070 1_555
K2 O19 3.310256 1_555
K2 O32 3.327800 1_555
K3 O42 2.944519 1_554
K3 O8 3.054436 1_455
K3 O6 3.190266 1_455
K3 O38 3.205099 1_555
K3 O26 3.300392 1_555
K3 O28 3.328200 1_555
Li0 O13 2.084925 1_555
Li0 O31 2.096798 1_555
Li0 O20 2.101824 1_556
Li1 O39 2.081407 1_555
Li1 O43 2.085461 1_555
Li1 O27 2.095826 1_555
Nb0 O5 1.882089 1_555
Nb0 O37 1.967378 1_655
Nb0 O40 1.977270 1_655
Nb0 O1 2.023933 1_555
Nb0 O3 2.093925 1_555
Nb0 O32 2.114145 1_655
Nb1 O1 1.884534 1_555
Nb1 O0 1.962354 1_555
Nb1 O44 1.971594 1_555
Nb1 O11 2.047220 1_555
Nb1 O7 2.086710 1_555
Nb1 O10 2.110219 1_555
Nb2 O45 1.888647 1_655
Nb2 O16 1.891517 1_555
Nb2 O47 1.956928 1_655
Nb2 O8 2.056918 1_556
Nb2 O42 2.125797 1_655
Nb2 O13 2.237085 1_555
Nb3 O11 1.881691 1_555
Nb3 O9 1.942626 1_555
Nb3 O23 1.969235 1_555
Nb3 O5 2.043681 1_555
Nb3 O18 2.120832 1_555
Nb3 O19 2.122001 1_555
Nb4 O8 1.890810 1_555
Nb4 O35 1.901892 1_565
Nb4 O6 1.956556 1_555
Nb4 O22 2.048214 1_555
Nb4 O21 2.116757 1_555
Nb4 O20 2.221088 1_555
Nb5 O24 1.876610 1_556
Nb5 O45 1.968330 1_545
Nb5 O12 1.968597 1_555
Nb5 O30 2.035792 1_555
Nb5 O15 2.084330 1_555
Nb5 O17 2.142963 1_555
Nb6 O22 1.881119 1_556
Nb6 O2 1.902713 1_565
Nb6 O12 1.954506 1_565
Nb6 O16 2.059538 1_555
Nb6 O29 2.127678 1_555
Nb6 O31 2.223491 1_555
Nb7 O38 1.875000 1_555
Nb7 O35 1.956270 1_455
Nb7 O40 1.957086 1_555
Nb7 O24 2.049579 1_555
Nb7 O26 2.107280 1_555
Nb7 O25 2.141437 1_555
Nb8 O37 1.891588 1_555
Nb8 O34 1.895774 1_555
Nb8 O23 1.962694 1_555
Nb8 O41 2.047086 1_555
Nb8 O28 2.100796 1_555
Nb8 O27 2.241302 1_555
Nb9 O30 1.888341 1_555
Nb9 O2 1.957758 1_455
Nb9 O0 1.957940 1_455
Nb9 O38 2.054668 1_556
Nb9 O33 2.102707 1_555
Nb9 O4 2.110476 1_455
Nb10 O44 1.888536 1_455
Nb10 O46 1.890684 1_555
Nb10 O47 1.964591 1_555
Nb10 O34 2.054623 1_555
Nb10 O36 2.107685 1_555
Nb10 O39 2.238949 1_555
Nb11 O41 1.883978 1_555
Nb11 O9 1.912152 1_455
Nb11 O6 1.964807 1_455
Nb11 O46 2.037991 1_555
Nb11 O14 2.115561 1_455
Nb11 O43 2.208306 1_555
O3 P2 1.553071 1_545
O4 P0 1.545624 1_555
O7 P1 1.551973 1_555
O10 P0 1.545441 1_555
O13 P0 1.557775 1_555
O14 P2 1.544590 1_555
O15 P0 1.551190 1_555
O17 P1 1.541445 1_555
O18 P3 1.542003 1_555
O19 P4 1.552682 1_555
O20 P3 1.555378 1_555
O21 P2 1.543963 1_555
O25 P4 1.545323 1_555
O26 P3 1.553150 1_555
O27 P2 1.559167 1_555
O28 P3 1.551036 1_555
O29 P1 1.548860 1_565
O31 P5 1.556867 1_555
O32 P4 1.542326 1_555
O33 P5 1.547817 1_555
O36 P5 1.545896 1_555
O39 P1 1.557749 1_565
O42 P5 1.551530 1_555
O43 P4 1.559990 1_565
