# generated using pymatgen
data_Zr5Sn3O
_symmetry_space_group_name_H-M   'P 1'
_cell_length_a   8.44558087
_cell_length_b   8.44558048
_cell_length_c   5.76256914
_cell_angle_alpha   89.99780878
_cell_angle_beta   90.00218567
_cell_angle_gamma   119.99625348
_symmetry_Int_Tables_number   1
_chemical_formula_structural   Zr5Sn3O
_chemical_formula_sum   'Zr10 Sn6 O2'
_cell_volume   355.97721772
_cell_formula_units_Z   2
loop_
 _symmetry_equiv_pos_site_id
 _symmetry_equiv_pos_as_xyz
  1  'x, y, z'
loop_
 _atom_site_type_symbol
 _atom_site_label
 _atom_site_symmetry_multiplicity
 _atom_site_fract_x
 _atom_site_fract_y
 _atom_site_fract_z
 _atom_site_occupancy
  Zr  Zr0  1  0.00005780  0.77008340  0.74992401  1
  Zr  Zr1  1  0.99999461  0.22995764  0.25007408  1
  Zr  Zr2  1  0.33335212  0.66668458  0.00000167  1
  Zr  Zr3  1  0.33331794  0.66665264  0.49999968  1
  Zr  Zr4  1  0.23001892  0.23004911  0.74999857  1
  Zr  Zr5  1  0.22992429  0.99994715  0.24993042  1
  Zr  Zr6  1  0.76995370  0.76998479  0.24999798  1
  Zr  Zr7  1  0.66664935  0.33332135  0.00000159  1
  Zr  Zr8  1  0.66668353  0.33335431  0.49999914  1
  Zr  Zr9  1  0.77004959  0.00001112  0.75006824  1
  Sn  Sn0  1  0.99995780  0.59742792  0.24994699  1
  Sn  Sn1  1  -0.00003095  0.40254722  0.75005084  1
  Sn  Sn2  1  0.40252240  0.40248844  0.25000136  1
  Sn  Sn3  1  0.59751681  0.59748245  0.74999984  1
  Sn  Sn4  1  0.40257814  0.00004630  0.74995318  1
  Sn  Sn5  1  0.59745673  0.00003463  0.25004880  1
  O  O0  1  0.99999718  0.00001399  0.99999692  1
  O  O1  1  0.99999604  0.00001095  0.50000469  1
loop_
_geom_bond_atom_site_label_1
_geom_bond_atom_site_label_2
_geom_bond_distance
_geom_bond_site_symmetry_2
Sn0 Zr7 2.948845 1_555
Sn0 Zr8 2.948923 1_555
Sn0 Zr2 2.949300 1_655
Sn0 Zr3 2.949347 1_655
Sn0 Zr5 2.954153 1_655
Sn0 Zr6 2.954288 1_555
Sn0 Zr1 3.103655 1_555
Sn0 Zr0 3.228994 1_655
Sn0 Zr0 3.229131 1_654
Sn1 Zr7 2.948848 1_456
Sn1 Zr8 2.948880 1_455
Sn1 Zr2 2.949296 1_556
Sn1 Zr3 2.949359 1_555
Sn1 Zr4 2.954230 1_555
Sn1 Zr9 2.954238 1_455
Sn1 Zr0 3.103682 1_555
Sn1 Zr1 3.228981 1_455
Sn1 Zr1 3.229121 1_456
Sn2 Zr8 2.948870 1_555
Sn2 Zr7 2.948894 1_555
Sn2 Zr2 2.949304 1_555
Sn2 Zr3 2.949341 1_555
Sn2 Zr1 2.954202 1_455
Sn2 Zr5 2.954259 1_545
Sn2 Zr6 3.103621 1_555
Sn2 Zr4 3.228574 1_555
Sn2 Zr4 3.228603 1_554
Sn3 Zr7 2.948873 1_556
Sn3 Zr8 2.948903 1_555
Sn3 Zr3 2.949325 1_555
Sn3 Zr2 2.949343 1_556
Sn3 Zr9 2.954208 1_565
Sn3 Zr0 2.954255 1_655
Sn3 Zr4 3.103636 1_555
Sn3 Zr6 3.228573 1_556
Sn3 Zr6 3.228592 1_555
Sn4 Zr8 2.948864 1_555
Sn4 Zr7 2.948911 1_556
Sn4 Zr3 2.949310 1_545
Sn4 Zr2 2.949343 1_546
Sn4 Zr0 2.954159 1_545
Sn4 Zr4 2.954295 1_555
Sn4 Zr9 3.103658 1_555
Sn4 Zr5 3.228991 1_546
Sn4 Zr5 3.229126 1_545
Sn5 Zr8 2.948845 1_555
Sn5 Zr7 2.948877 1_555
Sn5 Zr3 2.949294 1_545
Sn5 Zr2 2.949351 1_545
Sn5 Zr6 2.954222 1_545
Sn5 Zr1 2.954253 1_555
Sn5 Zr5 3.103656 1_545
Sn5 Zr9 3.229009 1_554
Sn5 Zr9 3.229110 1_555
O0 Zr9 2.417753 1_555
O0 Zr5 2.417867 1_646
O0 Zr1 2.418343 1_556
O0 Zr0 2.418436 1_645
O0 Zr4 2.418682 1_655
O0 Zr6 2.418745 1_546
O1 Zr1 2.417768 1_555
O1 Zr0 2.417804 1_645
O1 Zr9 2.418307 1_555
O1 Zr5 2.418436 1_645
O1 Zr4 2.418682 1_655
O1 Zr6 2.418751 1_545
