# generated using pymatgen
data_Li5Fe8(BO3)8
_symmetry_space_group_name_H-M   'P 1'
_cell_length_a   5.25470700
_cell_length_b   9.11514685
_cell_length_c   10.13290061
_cell_angle_alpha   89.06304016
_cell_angle_beta   88.59996512
_cell_angle_gamma   89.44876658
_symmetry_Int_Tables_number   1
_chemical_formula_structural   Li5Fe8(BO3)8
_chemical_formula_sum   'Li5 Fe8 B8 O24'
_cell_volume   485.10945281
_cell_formula_units_Z   1
loop_
 _symmetry_equiv_pos_site_id
 _symmetry_equiv_pos_as_xyz
  1  'x, y, z'
loop_
 _atom_site_type_symbol
 _atom_site_label
 _atom_site_symmetry_multiplicity
 _atom_site_fract_x
 _atom_site_fract_y
 _atom_site_fract_z
 _atom_site_occupancy
  Li  Li0  1  0.15134800  0.17418400  0.66537400  1
  Li  Li1  1  0.18600200  0.16251600  0.15829900  1
  Li  Li2  1  0.32448000  0.33000900  0.40446900  1
  Li  Li3  1  0.68297400  0.66226600  0.14535800  1
  Li  Li4  1  0.81614800  0.83351800  0.41767800  1
  Fe  Fe0  1  0.15763400  0.83473700  0.63658700  1
  Fe  Fe1  1  0.18621000  0.49448600  0.12256500  1
  Fe  Fe2  1  0.33493900  0.99315400  0.87878000  1
  Fe  Fe3  1  0.32427300  0.66405800  0.37909700  1
  Fe  Fe4  1  0.65228700  0.34851800  0.63536400  1
  Fe  Fe5  1  0.68569600  0.99713900  0.12538800  1
  Fe  Fe6  1  0.83325200  0.16210600  0.38347600  1
  Fe  Fe7  1  0.83124700  0.49922700  0.87757700  1
  B  B0  1  0.15534000  0.49683400  0.62110900  1
  B  B1  1  0.16990800  0.83032100  0.13298000  1
  B  B2  1  0.33891900  0.99457300  0.37497400  1
  B  B3  1  0.33322100  0.66637200  0.88209700  1
  B  B4  1  0.66924500  0.00684100  0.62801200  1
  B  B5  1  0.67568300  0.32923500  0.13003600  1
  B  B6  1  0.82512900  0.50140200  0.37529700  1
  B  B7  1  0.82673000  0.16566700  0.87614800  1
  O  O0  1  0.08891100  0.49895700  0.34566600  1
  O  O1  1  0.08505100  0.14477900  0.85835800  1
  O  O2  1  0.22206200  0.79821500  0.84121300  1
  O  O3  1  0.20901100  0.86563700  0.41229400  1
  O  O4  1  0.20881900  0.12657000  0.36652500  1
  O  O5  1  0.17449600  0.55209600  0.92217300  1
  O  O6  1  0.27742500  0.36257600  0.60495100  1
  O  O7  1  0.29520800  0.95723200  0.08495900  1
  O  O8  1  0.26822500  0.62534600  0.57246600  1
  O  O9  1  0.31786800  0.70929000  0.17737100  1
  O  O10  1  0.41450600  0.32356200  0.14065800  1
  O  O11  1  0.41250900  0.01259200  0.67430900  1
  O  O12  1  0.59625400  0.98770300  0.34406300  1
  O  O13  1  0.59065900  0.65224900  0.88865200  1
  O  O14  1  0.71583600  0.30068300  0.84665000  1
  O  O15  1  0.70204700  0.37485000  0.41517400  1
  O  O16  1  0.69173900  0.63285800  0.36029500  1
  O  O17  1  0.67431900  0.05121100  0.92172100  1
  O  O18  1  0.79685900  0.46005900  0.08907500  1
  O  O19  1  0.79112000  0.87566200  0.60790400  1
  O  O20  1  0.79292200  0.13892500  0.59699900  1
  O  O21  1  0.82249900  0.20656800  0.16429100  1
  O  O22  1  0.91265300  0.82305800  0.13925600  1
  O  O23  1  0.91497900  0.50499000  0.68026900  1
loop_
_geom_bond_atom_site_label_1
_geom_bond_atom_site_label_2
_geom_bond_distance
_geom_bond_site_symmetry_2
Li0 O6 1.931398 1_555
Li0 O1 1.992110 1_555
Li0 O11 2.005947 1_555
Li0 O20 2.052631 1_455
Li1 O10 1.908777 1_555
Li1 O21 1.947763 1_455
Li1 O7 2.094495 1_545
Li1 O4 2.136012 1_555
Li2 O4 2.003082 1_555
Li2 O15 2.035355 1_555
Li2 O0 2.056260 1_555
Li2 O6 2.066367 1_555
Li3 O22 1.906818 1_555
Li3 O9 1.981919 1_555
Li3 O18 2.019168 1_555
Li3 O16 2.191563 1_555
Li4 O12 1.960443 1_555
Li4 O19 1.972597 1_555
Li4 O16 2.046272 1_555
Li4 O3 2.087093 1_655
Fe0 O19 1.985647 1_455
Fe0 O8 2.098449 1_555
Fe0 O2 2.129370 1_555
Fe0 O11 2.157562 1_565
Fe0 O3 2.295235 1_555
Fe1 O10 1.966092 1_555
Fe1 O5 2.091243 1_554
Fe1 O18 2.109315 1_455
Fe1 O9 2.168196 1_555
Fe1 O0 2.306465 1_555
Fe2 O1 1.909498 1_565
Fe2 O2 1.925490 1_555
Fe2 O17 1.926991 1_565
Fe2 O11 2.106741 1_565
Fe2 O7 2.114982 1_556
Fe3 O16 1.954196 1_555
Fe3 O3 1.960855 1_555
Fe3 O0 1.995512 1_555
Fe3 O8 2.000412 1_555
Fe3 O9 2.079633 1_555
Fe4 O6 2.003741 1_555
Fe4 O23 2.058274 1_555
Fe4 O20 2.080919 1_555
Fe4 O14 2.210623 1_555
Fe4 O15 2.249279 1_555
Fe5 O22 1.981000 1_555
Fe5 O21 2.093133 1_565
Fe5 O17 2.116059 1_564
Fe5 O7 2.137931 1_555
Fe5 O12 2.254278 1_555
Fe6 O4 2.000515 1_655
Fe6 O12 2.078639 1_545
Fe6 O15 2.079132 1_555
Fe6 O20 2.175835 1_555
Fe6 O21 2.253097 1_555
Fe7 O13 1.876331 1_555
Fe7 O5 1.937356 1_655
Fe7 O14 1.946835 1_555
Fe7 O23 2.036561 1_555
Fe7 O18 2.170308 1_556
B0 O6 1.386474 1_555
B0 O23 1.386640 1_455
B0 O8 1.395420 1_555
B1 O22 1.353947 1_455
B1 O7 1.410350 1_555
B1 O9 1.417129 1_555
B2 O4 1.380571 1_565
B2 O12 1.381608 1_555
B2 O3 1.406604 1_555
B3 O13 1.360775 1_555
B3 O5 1.389929 1_555
B3 O2 1.392511 1_555
B4 O19 1.366837 1_545
B4 O20 1.401192 1_555
B4 O11 1.418217 1_555
B5 O10 1.375401 1_555
B5 O21 1.396302 1_555
B5 O18 1.408982 1_555
B6 O15 1.377885 1_555
B6 O16 1.390422 1_555
B6 O0 1.411098 1_655
B7 O1 1.376763 1_655
B7 O17 1.387565 1_555
B7 O14 1.387869 1_555
