# generated using pymatgen
data_Li4Mn2C4SO16
_symmetry_space_group_name_H-M   'P 1'
_cell_length_a   9.68366697
_cell_length_b   9.49456407
_cell_length_c   9.36586872
_cell_angle_alpha   61.78178145
_cell_angle_beta   59.76256552
_cell_angle_gamma   58.45565303
_symmetry_Int_Tables_number   1
_chemical_formula_structural   Li4Mn2C4SO16
_chemical_formula_sum   'Li8 Mn4 C8 S2 O32'
_cell_volume   607.85313504
_cell_formula_units_Z   2
loop_
 _symmetry_equiv_pos_site_id
 _symmetry_equiv_pos_as_xyz
  1  'x, y, z'
loop_
 _atom_site_type_symbol
 _atom_site_label
 _atom_site_symmetry_multiplicity
 _atom_site_fract_x
 _atom_site_fract_y
 _atom_site_fract_z
 _atom_site_occupancy
  Li  Li0  1  0.04554100  0.45445900  0.45445900  1
  Li  Li1  1  0.80070500  0.19929500  0.80070500  1
  Li  Li2  1  0.79554100  0.20445900  0.20445900  1
  Li  Li3  1  0.05070500  0.44929500  0.05070500  1
  Li  Li4  1  0.19929500  0.80070500  0.19929500  1
  Li  Li5  1  0.45445900  0.04554100  0.04554100  1
  Li  Li6  1  0.44929500  0.05070500  0.44929500  1
  Li  Li7  1  0.20445900  0.79554100  0.79554100  1
  Mn  Mn0  1  0.62500000  0.62500000  0.62500000  1
  Mn  Mn1  1  0.62500000  0.12500000  0.62500000  1
  Mn  Mn2  1  0.12500000  0.62500000  0.62500000  1
  Mn  Mn3  1  0.62500000  0.62500000  0.12500000  1
  C  C0  1  0.86185000  0.46647400  0.83773100  1
  C  C1  1  0.83773100  0.83394500  0.86185000  1
  C  C2  1  0.83394500  0.83773100  0.46647400  1
  C  C3  1  0.46647400  0.86185000  0.83394500  1
  C  C4  1  0.78352600  0.38815000  0.41605500  1
  C  C5  1  0.41605500  0.41226900  0.78352600  1
  C  C6  1  0.41226900  0.41605500  0.38815000  1
  C  C7  1  0.38815000  0.78352600  0.41226900  1
  S  S0  1  0.00000000  0.00000000  0.00000000  1
  S  S1  1  0.25000000  0.25000000  0.25000000  1
  O  O0  1  0.85115200  0.45090100  0.71551200  1
  O  O1  1  0.98243500  0.71551200  0.45090100  1
  O  O2  1  0.73507600  0.46529500  0.98536400  1
  O  O3  1  0.07598700  0.80715200  0.05520600  1
  O  O4  1  0.98536400  0.81426500  0.73507600  1
  O  O5  1  0.05520600  0.06165400  0.07598700  1
  O  O6  1  0.06165400  0.05520600  0.80715200  1
  O  O7  1  0.42875800  0.54754600  0.25457000  1
  O  O8  1  0.70245400  0.82124200  0.48087400  1
  O  O9  1  0.81426500  0.98536400  0.46529500  1
  O  O10  1  0.80715200  0.07598700  0.06165400  1
  O  O11  1  0.46529500  0.73507600  0.81426500  1
  O  O12  1  0.71551200  0.98243500  0.85115200  1
  O  O13  1  0.45090100  0.85115200  0.98243500  1
  O  O14  1  0.76912600  0.25457000  0.54754600  1
  O  O15  1  0.99543000  0.48087400  0.82124200  1
  O  O16  1  0.25457000  0.76912600  0.42875800  1
  O  O17  1  0.48087400  0.99543000  0.70245400  1
  O  O18  1  0.79909900  0.39884800  0.26756500  1
  O  O19  1  0.53448800  0.26756500  0.39884800  1
  O  O20  1  0.78470500  0.51492400  0.43573500  1
  O  O21  1  0.44284800  0.17401300  0.18834600  1
  O  O22  1  0.43573500  0.26463600  0.78470500  1
  O  O23  1  0.54754600  0.42875800  0.76912600  1
  O  O24  1  0.82124200  0.70245400  0.99543000  1
  O  O25  1  0.18834600  0.19479400  0.44284800  1
  O  O26  1  0.19479400  0.18834600  0.17401300  1
  O  O27  1  0.26463600  0.43573500  0.51492400  1
  O  O28  1  0.17401300  0.44284800  0.19479400  1
  O  O29  1  0.51492400  0.78470500  0.26463600  1
  O  O30  1  0.26756500  0.53448800  0.79909900  1
  O  O31  1  0.39884800  0.79909900  0.53448800  1
loop_
_geom_bond_atom_site_label_1
_geom_bond_atom_site_label_2
_geom_bond_distance
_geom_bond_site_symmetry_2
Li0 O28 2.130073 1_555
Li0 O25 2.130074 1_555
Li0 O1 2.208059 1_455
Li0 O0 2.208059 1_455
Li0 O27 2.360919 1_555
Li0 O20 2.360919 1_455
Li1 O10 2.172350 1_556
Li1 O6 2.172351 1_655
Li1 O23 2.318716 1_555
Li1 O14 2.318716 1_555
Li1 O0 2.368127 1_555
Li1 O12 2.368127 1_545
Li2 O5 2.130076 1_655
Li2 O10 2.130082 1_555
Li2 O19 2.208059 1_555
Li2 O18 2.208059 1_555
Li2 O2 2.360919 1_554
Li2 O9 2.360919 1_545
Li3 O26 2.172353 1_555
Li3 O28 2.172359 1_555
Li3 O24 2.318716 1_454
Li3 O15 2.318716 1_454
Li3 O30 2.368127 1_554
Li3 O18 2.368127 1_455
Li4 O5 2.172353 1_565
Li4 O3 2.172359 1_555
Li4 O16 2.318716 1_555
Li4 O7 2.318716 1_555
Li4 O13 2.368127 1_554
Li4 O1 2.368127 1_455
Li5 O26 2.130076 1_555
Li5 O21 2.130082 1_555
Li5 O12 2.208059 1_544
Li5 O13 2.208059 1_544
Li5 O29 2.360919 1_545
Li5 O22 2.360919 1_554
Li6 O21 2.172350 1_555
Li6 O25 2.172351 1_555
Li6 O17 2.318716 1_545
Li6 O8 2.318716 1_545
Li6 O19 2.368127 1_555
Li6 O31 2.368127 1_545
Li7 O3 2.130073 1_556
Li7 O6 2.130074 1_565
Li7 O30 2.208059 1_555
Li7 O31 2.208059 1_555
Li7 O4 2.360919 1_455
Li7 O11 2.360919 1_555
Mn0 O8 1.979999 1_555
Mn0 O23 1.979999 1_555
Mn0 O11 1.981402 1_555
Mn0 O20 1.981402 1_555
Mn0 O0 2.236966 1_555
Mn0 O31 2.236966 1_555
Mn1 O14 1.979999 1_555
Mn1 O17 1.979999 1_545
Mn1 O22 1.981402 1_555
Mn1 O9 1.981402 1_545
Mn1 O12 2.236966 1_545
Mn1 O19 2.236966 1_555
Mn2 O16 1.979999 1_555
Mn2 O15 1.979999 1_455
Mn2 O4 1.981402 1_455
Mn2 O27 1.981402 1_555
Mn2 O30 2.236966 1_555
Mn2 O1 2.236966 1_455
Mn3 O24 1.979999 1_554
Mn3 O7 1.979999 1_555
Mn3 O29 1.981402 1_555
Mn3 O2 1.981402 1_554
Mn3 O13 2.236966 1_554
Mn3 O18 2.236966 1_555
C0 O0 1.280008 1_555
C0 O15 1.296025 1_555
C0 O2 1.307369 1_555
C1 O12 1.280008 1_555
C1 O24 1.296025 1_555
C1 O4 1.307369 1_555
C2 O1 1.280008 1_555
C2 O8 1.296025 1_555
C2 O9 1.307369 1_555
C3 O13 1.280008 1_555
C3 O17 1.296025 1_555
C3 O11 1.307369 1_555
C4 O18 1.280008 1_555
C4 O14 1.296025 1_555
C4 O20 1.307369 1_555
C5 O30 1.280008 1_555
C5 O23 1.296025 1_555
C5 O22 1.307369 1_555
C6 O19 1.280008 1_555
C6 O7 1.296025 1_555
C6 O27 1.307369 1_555
C7 O31 1.280008 1_555
C7 O16 1.296025 1_555
C7 O29 1.307369 1_555
O3 S0 1.496520 1_565
O5 S0 1.496512 1_555
O6 S0 1.496520 1_556
O10 S0 1.496520 1_655
O21 S1 1.496520 1_555
O25 S1 1.496520 1_555
O26 S1 1.496512 1_555
O28 S1 1.496520 1_555
