# generated using pymatgen
data_Rb6Ti2O7
_symmetry_space_group_name_H-M   'P 1'
_cell_length_a   9.62055875
_cell_length_b   6.84401613
_cell_length_c   11.67244951
_cell_angle_alpha   56.22462148
_cell_angle_beta   90.00000000
_cell_angle_gamma   90.00000000
_symmetry_Int_Tables_number   1
_chemical_formula_structural   Rb6Ti2O7
_chemical_formula_sum   'Rb12 Ti4 O14'
_cell_volume   638.83854248
_cell_formula_units_Z   2
loop_
 _symmetry_equiv_pos_site_id
 _symmetry_equiv_pos_as_xyz
  1  'x, y, z'
loop_
 _atom_site_type_symbol
 _atom_site_label
 _atom_site_symmetry_multiplicity
 _atom_site_fract_x
 _atom_site_fract_y
 _atom_site_fract_z
 _atom_site_occupancy
  Rb  Rb0  1  0.78955663  0.59650885  0.28101411  1
  Rb  Rb1  1  0.65109571  0.95701418  0.92410596  1
  Rb  Rb2  1  0.52526040  0.20450231  0.54738264  1
  Rb  Rb3  1  0.02526040  0.79549769  0.95261736  1
  Rb  Rb4  1  0.28955663  0.40349115  0.21898589  1
  Rb  Rb5  1  0.15109571  0.04298582  0.57589404  1
  Rb  Rb6  1  0.84890429  0.95701418  0.42410596  1
  Rb  Rb7  1  0.71044337  0.59650885  0.78101411  1
  Rb  Rb8  1  0.97473960  0.20450231  0.04738264  1
  Rb  Rb9  1  0.47473960  0.79549769  0.45261736  1
  Rb  Rb10  1  0.34890429  0.04298582  0.07589404  1
  Rb  Rb11  1  0.21044337  0.40349115  0.71898589  1
  Ti  Ti0  1  0.85959989  0.31702774  0.63032067  1
  Ti  Ti1  1  0.35959989  0.68297226  0.86967933  1
  Ti  Ti2  1  0.64040011  0.31702774  0.13032067  1
  Ti  Ti3  1  0.14040011  0.68297226  0.36967933  1
  O  O0  1  -0.00000000  0.50000000  0.50000000  1
  O  O1  1  0.09225307  0.75153525  0.20159299  1
  O  O2  1  0.29368178  0.49978406  0.42796227  1
  O  O3  1  0.33093261  0.94832017  0.86637616  1
  O  O4  1  0.83093261  0.05167983  0.63362384  1
  O  O5  1  0.79368178  0.50021594  0.07203773  1
  O  O6  1  0.59225307  0.24846475  0.29840701  1
  O  O7  1  0.50000000  0.50000000  -0.00000000  1
  O  O8  1  0.40774693  0.75153525  0.70159299  1
  O  O9  1  0.20631822  0.49978406  0.92796227  1
  O  O10  1  0.16906739  0.94832017  0.36637616  1
  O  O11  1  0.66906739  0.05167983  0.13362384  1
  O  O12  1  0.70631822  0.50021594  0.57203773  1
  O  O13  1  0.90774693  0.24846475  0.79840701  1
loop_
_geom_bond_atom_site_label_1
_geom_bond_atom_site_label_2
_geom_bond_distance
_geom_bond_site_symmetry_2
O0 Ti3 1.894348 1_555
O0 Ti0 1.894348 1_455
O0 Rb11 3.031774 1_555
O0 Rb0 3.031774 1_455
O0 Rb5 3.098415 1_555
O0 Rb6 3.098415 1_455
O1 Ti3 1.805674 1_555
O1 Rb8 2.815020 1_465
O1 Rb3 2.824788 1_554
O1 Rb4 2.963206 1_555
O1 Rb10 2.995671 1_565
O1 Rb0 3.061352 1_455
O2 Ti3 1.805808 1_555
O2 Rb2 2.803314 1_555
O2 Rb9 2.803677 1_555
O2 Rb4 2.858901 1_555
O2 Rb5 2.938537 1_555
O2 Rb11 3.182102 1_555
O3 Ti1 1.815962 1_555
O3 Rb11 2.837065 1_565
O3 Rb10 2.862219 1_566
O3 Rb3 3.095894 1_555
O3 Rb1 3.160618 1_555
O4 Ti0 1.815962 1_555
O4 Rb7 2.837065 1_545
O4 Rb6 2.862219 1_545
O4 Rb2 3.095894 1_555
O4 Rb5 3.160618 1_655
O5 Ti2 1.805808 1_555
O5 Rb3 2.803314 1_654
O5 Rb8 2.803677 1_555
O5 Rb0 2.858901 1_555
O5 Rb1 2.938537 1_554
O5 Rb7 3.182102 1_554
O6 Ti2 1.805674 1_555
O6 Rb9 2.815020 1_545
O6 Rb2 2.824788 1_555
O6 Rb0 2.963206 1_555
O6 Rb6 2.995671 1_545
O6 Rb4 3.061352 1_555
O7 Ti2 1.894348 1_555
O7 Ti1 1.894348 1_554
O7 Rb4 3.031774 1_555
O7 Rb7 3.031774 1_554
O7 Rb10 3.098415 1_555
O7 Rb1 3.098415 1_554
O8 Ti1 1.805674 1_555
O8 Rb2 2.815020 1_565
O8 Rb9 2.824788 1_555
O8 Rb11 2.963206 1_555
O8 Rb5 2.995671 1_565
O8 Rb7 3.061352 1_555
O9 Ti1 1.805808 1_555
O9 Rb8 2.803314 1_456
O9 Rb3 2.803677 1_555
O9 Rb11 2.858901 1_555
O9 Rb10 2.938537 1_556
O9 Rb4 3.182102 1_556
O10 Ti3 1.815962 1_555
O10 Rb4 2.837065 1_565
O10 Rb5 2.862219 1_565
O10 Rb9 3.095894 1_555
O10 Rb6 3.160618 1_455
O11 Ti2 1.815962 1_555
O11 Rb0 2.837065 1_545
O11 Rb1 2.862219 1_544
O11 Rb8 3.095894 1_555
O11 Rb10 3.160618 1_555
O12 Ti0 1.805808 1_555
O12 Rb9 2.803314 1_555
O12 Rb2 2.803677 1_555
O12 Rb7 2.858901 1_555
O12 Rb6 2.938537 1_555
O12 Rb0 3.182102 1_555
O13 Ti0 1.805674 1_555
O13 Rb3 2.815020 1_645
O13 Rb8 2.824788 1_556
O13 Rb7 2.963206 1_555
O13 Rb1 2.995671 1_545
O13 Rb11 3.061352 1_655
