# generated using pymatgen
data_Sr2CoCO3F5
_symmetry_space_group_name_H-M   'P 1'
_cell_length_a   8.92027400
_cell_length_b   5.57440800
_cell_length_c   13.77776207
_cell_angle_alpha   75.07142205
_cell_angle_beta   90.00000000
_cell_angle_gamma   90.00000000
_symmetry_Int_Tables_number   1
_chemical_formula_structural   Sr2CoCO3F5
_chemical_formula_sum   'Sr8 Co4 C4 O12 F20'
_cell_volume   661.97883386
_cell_formula_units_Z   4
loop_
 _symmetry_equiv_pos_site_id
 _symmetry_equiv_pos_as_xyz
  1  'x, y, z'
loop_
 _atom_site_type_symbol
 _atom_site_label
 _atom_site_symmetry_multiplicity
 _atom_site_fract_x
 _atom_site_fract_y
 _atom_site_fract_z
 _atom_site_occupancy
  Sr  Sr0  1  0.88838600  0.69150300  0.09730600  1
  Sr  Sr1  1  0.36153000  0.69129000  0.08391800  1
  Sr  Sr2  1  0.86153000  0.30871000  0.41608200  1
  Sr  Sr3  1  0.38838600  0.30849700  0.40269400  1
  Sr  Sr4  1  0.61161400  0.69150300  0.59730600  1
  Sr  Sr5  1  0.13847000  0.69129000  0.58391800  1
  Sr  Sr6  1  0.63847000  0.30871000  0.91608200  1
  Sr  Sr7  1  0.11161400  0.30849700  0.90269400  1
  Co  Co0  1  0.87217600  0.19120400  0.67340900  1
  Co  Co1  1  0.37217600  0.80879600  0.82659100  1
  Co  Co2  1  0.62782400  0.19120400  0.17340900  1
  Co  Co3  1  0.12782400  0.80879600  0.32659100  1
  C  C0  1  0.37589300  0.17914800  0.63666400  1
  C  C1  1  0.87589300  0.82085200  0.86333600  1
  C  C2  1  0.12410700  0.17914800  0.13666400  1
  C  C3  1  0.62410700  0.82085200  0.36333600  1
  O  O0  1  0.38108000  0.41017700  0.58546700  1
  O  O1  1  0.36872900  0.13513000  0.73426000  1
  O  O2  1  0.87728600  0.99603000  0.90894700  1
  O  O3  1  0.11892000  0.41017700  0.08546700  1
  O  O4  1  0.37728600  0.00397000  0.59105300  1
  O  O5  1  0.86872900  0.86487000  0.76574000  1
  O  O6  1  0.13127100  0.13513000  0.23426000  1
  O  O7  1  0.62271400  0.99603000  0.40894700  1
  O  O8  1  0.88108000  0.58982300  0.91453300  1
  O  O9  1  0.12271400  0.00397000  0.09105300  1
  O  O10  1  0.63127100  0.86487000  0.26574000  1
  O  O11  1  0.61892000  0.58982300  0.41453300  1
  F  F0  1  0.96119200  0.67156100  0.27291000  1
  F  F1  1  0.28278800  0.66975200  0.26423600  1
  F  F2  1  0.13028300  0.47154800  0.43441500  1
  F  F3  1  0.63028300  0.52845200  0.06558500  1
  F  F4  1  0.51229700  0.91654300  0.91363600  1
  F  F5  1  0.71721700  0.10630300  0.58581000  1
  F  F6  1  0.78278800  0.33024800  0.23576400  1
  F  F7  1  0.46119200  0.32843900  0.22709000  1
  F  F8  1  0.21721700  0.89369700  0.91419000  1
  F  F9  1  0.01229700  0.08345700  0.58636400  1
  F  F10  1  0.98770300  0.91654300  0.41363600  1
  F  F11  1  0.78278300  0.10630300  0.08581000  1
  F  F12  1  0.53880800  0.67156100  0.77291000  1
  F  F13  1  0.21721200  0.66975200  0.76423600  1
  F  F14  1  0.28278300  0.89369700  0.41419000  1
  F  F15  1  0.48770300  0.08345700  0.08636400  1
  F  F16  1  0.36971700  0.47154800  0.93441500  1
  F  F17  1  0.86971700  0.52845200  0.56558500  1
  F  F18  1  0.71721200  0.33024800  0.73576400  1
  F  F19  1  0.03880800  0.32843900  0.72709000  1
loop_
_geom_bond_atom_site_label_1
_geom_bond_atom_site_label_2
_geom_bond_distance
_geom_bond_site_symmetry_2
Co0 F18 1.895451 1_555
Co0 F19 1.906084 1_655
Co0 F9 1.931958 1_655
Co0 O5 1.932901 1_545
Co0 F5 1.971200 1_555
Co0 F17 2.074298 1_555
Co1 F13 1.895451 1_555
Co1 F12 1.906084 1_555
Co1 F4 1.931958 1_555
Co1 O1 1.932901 1_565
Co1 F8 1.971200 1_555
Co1 F16 2.074298 1_555
Co2 F6 1.895451 1_555
Co2 F7 1.906084 1_555
Co2 F15 1.931958 1_555
Co2 O10 1.932901 1_545
Co2 F11 1.971200 1_555
Co2 F3 2.074298 1_555
Co3 F1 1.895451 1_555
Co3 F0 1.906084 1_455
Co3 F10 1.931958 1_455
Co3 O6 1.932901 1_565
Co3 F14 1.971200 1_555
Co3 F2 2.074298 1_555
C0 O4 1.290278 1_555
C0 O0 1.300082 1_555
C0 O1 1.304757 1_555
C1 O2 1.290278 1_555
C1 O8 1.300082 1_555
C1 O5 1.304757 1_555
C2 O9 1.290278 1_555
C2 O3 1.300082 1_555
C2 O6 1.304757 1_555
C3 O7 1.290278 1_555
C3 O11 1.300082 1_555
C3 O10 1.304757 1_555
O0 Sr4 2.616606 1_555
O0 Sr5 2.668777 1_555
O0 Sr3 2.720711 1_555
O2 Sr7 2.708000 1_665
O2 Sr0 2.712301 1_556
O2 Sr6 2.770237 1_565
O3 Sr0 2.616606 1_455
O3 Sr1 2.668777 1_555
O3 Sr7 2.720711 1_554
O4 Sr4 2.708000 1_545
O4 Sr3 2.712301 1_555
O4 Sr5 2.770237 1_545
O7 Sr3 2.708000 1_565
O7 Sr4 2.712301 1_555
O7 Sr2 2.770237 1_565
O8 Sr7 2.616606 1_655
O8 Sr6 2.668777 1_555
O8 Sr0 2.720711 1_556
O9 Sr0 2.708000 1_445
O9 Sr7 2.712301 1_554
O9 Sr1 2.770237 1_545
O11 Sr3 2.616606 1_555
O11 Sr2 2.668777 1_555
O11 Sr4 2.720711 1_555
F0 Sr0 2.479760 1_555
F0 Sr2 2.591710 1_555
F1 Sr1 2.554650 1_555
F1 Sr3 2.569517 1_555
F2 Sr3 2.553940 1_555
F2 Sr2 2.598689 1_455
F2 Sr5 2.654925 1_555
F3 Sr0 2.553940 1_555
F3 Sr1 2.598689 1_555
F3 Sr6 2.654925 1_554
F4 Sr6 2.466752 1_565
F4 Sr1 2.715100 1_556
F5 Sr4 2.463805 1_545
F5 Sr2 2.653159 1_555
F6 Sr2 2.554650 1_555
F6 Sr0 2.569517 1_555
F7 Sr3 2.479760 1_555
F7 Sr1 2.591710 1_555
F8 Sr7 2.463805 1_565
F8 Sr1 2.653159 1_556
F9 Sr5 2.466752 1_545
F9 Sr2 2.715100 1_455
F10 Sr2 2.466752 1_565
F10 Sr5 2.715100 1_655
F11 Sr0 2.463805 1_545
F11 Sr6 2.653159 1_554
F12 Sr4 2.479760 1_555
F12 Sr6 2.591710 1_555
F13 Sr5 2.554650 1_555
F13 Sr7 2.569517 1_555
F14 Sr3 2.463805 1_565
F14 Sr5 2.653159 1_555
F15 Sr1 2.466752 1_545
F15 Sr6 2.715100 1_554
F16 Sr7 2.553940 1_555
F16 Sr6 2.598689 1_555
F16 Sr1 2.654925 1_556
F17 Sr4 2.553940 1_555
F17 Sr5 2.598689 1_655
F17 Sr2 2.654925 1_555
F18 Sr6 2.554650 1_555
F18 Sr4 2.569517 1_555
F19 Sr7 2.479760 1_555
F19 Sr5 2.591710 1_555
