# generated using pymatgen
data_Li2WS4
_symmetry_space_group_name_H-M   'P 1'
_cell_length_a   6.07188200
_cell_length_b   7.76963900
_cell_length_c   13.20763200
_cell_angle_alpha   90.00000000
_cell_angle_beta   90.00000000
_cell_angle_gamma   90.00000000
_symmetry_Int_Tables_number   1
_chemical_formula_structural   Li2WS4
_chemical_formula_sum   'Li8 W4 S16'
_cell_volume   623.08762148
_cell_formula_units_Z   4
loop_
 _symmetry_equiv_pos_site_id
 _symmetry_equiv_pos_as_xyz
  1  'x, y, z'
loop_
 _atom_site_type_symbol
 _atom_site_label
 _atom_site_symmetry_multiplicity
 _atom_site_fract_x
 _atom_site_fract_y
 _atom_site_fract_z
 _atom_site_occupancy
  Li  Li0  1  0.00000000  0.00000000  0.00000000  1
  Li  Li1  1  0.00000000  0.50000000  0.00000000  1
  Li  Li2  1  0.50477300  0.75000000  0.23245300  1
  Li  Li3  1  0.00477300  0.25000000  0.26754700  1
  Li  Li4  1  0.50000000  0.00000000  0.50000000  1
  Li  Li5  1  0.50000000  0.50000000  0.50000000  1
  Li  Li6  1  0.99522700  0.75000000  0.73245300  1
  Li  Li7  1  0.49522700  0.25000000  0.76754700  1
  W  W0  1  0.38529800  0.25000000  0.08895800  1
  W  W1  1  0.88529800  0.75000000  0.41104200  1
  W  W2  1  0.11470200  0.25000000  0.58895800  1
  W  W3  1  0.61470200  0.75000000  0.91104200  1
  S  S0  1  0.74389900  0.75000000  0.06813800  1
  S  S1  1  0.74744000  0.25000000  0.09110200  1
  S  S2  1  0.25544600  0.01920100  0.16644400  1
  S  S3  1  0.25544600  0.48079900  0.16644400  1
  S  S4  1  0.75544600  0.51920100  0.33355600  1
  S  S5  1  0.75544600  0.98079900  0.33355600  1
  S  S6  1  0.24744000  0.75000000  0.40889800  1
  S  S7  1  0.24389900  0.25000000  0.43186200  1
  S  S8  1  0.75610100  0.75000000  0.56813800  1
  S  S9  1  0.75256000  0.25000000  0.59110200  1
  S  S10  1  0.24455400  0.01920100  0.66644400  1
  S  S11  1  0.24455400  0.48079900  0.66644400  1
  S  S12  1  0.74455400  0.51920100  0.83355600  1
  S  S13  1  0.74455400  0.98079900  0.83355600  1
  S  S14  1  0.25256000  0.75000000  0.90889800  1
  S  S15  1  0.25610100  0.25000000  0.93186200  1
loop_
_geom_bond_atom_site_label_1
_geom_bond_atom_site_label_2
_geom_bond_distance
_geom_bond_site_symmetry_2
Li0 S0 2.645926 1_445
Li0 S15 2.645926 1_554
Li0 S2 2.694556 1_555
Li0 S13 2.694556 1_444
Li0 S1 2.751802 1_455
Li0 S14 2.751802 1_544
Li1 S0 2.645926 1_455
Li1 S15 2.645926 1_554
Li1 S3 2.694556 1_555
Li1 S12 2.694556 1_454
Li1 S1 2.751802 1_455
Li1 S14 2.751802 1_554
Li2 S0 2.611123 1_555
Li2 S4 2.704704 1_555
Li2 S5 2.704704 1_555
Li2 S2 2.725195 1_565
Li2 S3 2.725195 1_555
Li2 S6 2.805754 1_555
Li3 S7 2.611123 1_555
Li3 S2 2.704704 1_555
Li3 S3 2.704704 1_555
Li3 S4 2.725195 1_455
Li3 S5 2.725195 1_445
Li3 S1 2.805754 1_455
Li4 S8 2.645926 1_545
Li4 S7 2.645926 1_555
Li4 S10 2.694556 1_555
Li4 S5 2.694556 1_545
Li4 S6 2.751802 1_545
Li4 S9 2.751802 1_555
Li5 S8 2.645926 1_555
Li5 S7 2.645926 1_555
Li5 S11 2.694556 1_555
Li5 S4 2.694556 1_555
Li5 S9 2.751802 1_555
Li5 S6 2.751802 1_555
Li6 S8 2.611123 1_555
Li6 S12 2.704704 1_555
Li6 S13 2.704704 1_555
Li6 S10 2.725195 1_665
Li6 S11 2.725195 1_655
Li6 S14 2.805754 1_655
Li7 S15 2.611123 1_555
Li7 S11 2.704704 1_555
Li7 S10 2.704704 1_555
Li7 S13 2.725195 1_545
Li7 S12 2.725195 1_555
Li7 S9 2.805754 1_555
S0 W3 2.218211 1_554
S1 W0 2.199066 1_555
S2 W0 2.210128 1_555
S3 W0 2.210128 1_555
S4 W1 2.210128 1_555
S5 W1 2.210128 1_555
S6 W1 2.199066 1_455
S7 W2 2.218211 1_555
S8 W1 2.218211 1_555
S9 W2 2.199066 1_655
S10 W2 2.210128 1_555
S11 W2 2.210128 1_555
S12 W3 2.210128 1_555
S13 W3 2.210128 1_555
S14 W3 2.199066 1_555
S15 W0 2.218211 1_556
