# generated using pymatgen
data_LiCoP2O7
_symmetry_space_group_name_H-M   'P 1'
_cell_length_a   6.38736320
_cell_length_b   10.57256013
_cell_length_c   9.21250758
_cell_angle_alpha   65.27355798
_cell_angle_beta   107.12389197
_cell_angle_gamma   93.93977982
_symmetry_Int_Tables_number   1
_chemical_formula_structural   LiCoP2O7
_chemical_formula_sum   'Li4 Co4 P8 O28'
_cell_volume   538.97446442
_cell_formula_units_Z   4
loop_
 _symmetry_equiv_pos_site_id
 _symmetry_equiv_pos_as_xyz
  1  'x, y, z'
loop_
 _atom_site_type_symbol
 _atom_site_label
 _atom_site_symmetry_multiplicity
 _atom_site_fract_x
 _atom_site_fract_y
 _atom_site_fract_z
 _atom_site_occupancy
  Li  Li0  1  0.01342400  0.51277800  0.15460300  1
  Li  Li1  1  0.33948400  0.58664400  0.94148400  1
  Li  Li2  1  0.55933300  0.01704600  0.50987000  1
  Li  Li3  1  0.93470300  0.05498700  0.93040800  1
  Co  Co0  1  0.28750200  0.22898300  0.89625700  1
  Co  Co1  1  0.36854800  0.25544400  0.49479400  1
  Co  Co2  1  0.63466700  0.74740800  0.49395800  1
  Co  Co3  1  0.71773300  0.78626600  0.09595800  1
  P  P0  1  0.10877300  0.70297400  0.43365000  1
  P  P1  1  0.31108000  0.96156600  0.80579900  1
  P  P2  1  0.08194800  0.21191300  0.18196500  1
  P  P3  1  0.41184900  0.46777600  0.68885900  1
  P  P4  1  0.57745400  0.54007000  0.29840700  1
  P  P5  1  0.92696700  0.80302400  0.81546700  1
  P  P6  1  0.69667700  0.04844800  0.19118100  1
  P  P7  1  0.88558400  0.29838100  0.54607600  1
  O  O0  1  0.04745800  0.66123800  0.92028000  1
  O  O1  1  0.08395600  0.91335600  0.71674200  1
  O  O2  1  0.04933900  0.29336700  0.45781000  1
  O  O3  1  0.99797300  0.70991300  0.25712400  1
  O  O4  1  0.26067900  0.03554700  0.90378100  1
  O  O5  1  0.19444400  0.54132600  0.53771500  1
  O  O6  1  0.35643300  0.44168700  0.84998700  1
  O  O7  1  0.44712100  0.82187900  0.92447800  1
  O  O8  1  0.31160400  0.78718000  0.44848700  1
  O  O9  1  0.11564200  0.15783600  0.05894100  1
  O  O10  1  0.40996200  0.05213500  0.66717000  1
  O  O11  1  0.29833600  0.18383600  0.32851400  1
  O  O12  1  0.43087500  0.31995000  0.69095600  1
  O  O13  1  0.37260700  0.45947500  0.32133200  1
  O  O14  1  0.60196500  0.55672800  0.65404300  1
  O  O15  1  0.56671300  0.68823600  0.29517700  1
  O  O16  1  0.71859500  0.81817000  0.67170100  1
  O  O17  1  0.60892400  0.95799600  0.33557800  1
  O  O18  1  0.69048900  0.20791300  0.52613800  1
  O  O19  1  0.87319100  0.87063100  0.92085800  1
  O  O20  1  0.55356300  0.18282300  0.06717600  1
  O  O21  1  0.78008400  0.45757500  0.45794600  1
  O  O22  1  0.63304500  0.56481300  0.13707200  1
  O  O23  1  0.74718000  0.97384600  0.09206200  1
  O  O24  1  0.99218000  0.27018500  0.73024200  1
  O  O25  1  0.94568000  0.73337500  0.50942800  1
  O  O26  1  0.92322600  0.09951100  0.27475700  1
  O  O27  1  0.98594600  0.35753000  0.10467400  1
loop_
_geom_bond_atom_site_label_1
_geom_bond_atom_site_label_2
_geom_bond_distance
_geom_bond_site_symmetry_2
Li0 O27 1.865728 1_455
Li0 O0 2.136773 1_554
Li0 O13 2.306236 1_555
Li0 O22 2.471854 1_455
Li1 O0 1.999520 1_555
Li1 O6 2.056267 1_555
Li1 O22 2.130221 1_556
Li1 O7 2.486981 1_555
Li2 O17 2.057559 1_545
Li2 O16 2.111149 1_545
Li2 O10 2.111974 1_555
Li2 O18 2.177882 1_555
Li2 O11 2.231413 1_555
Li3 O19 1.994750 1_545
Li3 O9 2.004690 1_656
Li3 O23 2.056426 1_546
Li3 O4 2.199868 1_655
Li3 O24 2.342170 1_555
Co0 O20 1.871068 1_556
Co0 O9 1.982236 1_556
Co0 O24 1.985892 1_455
Co0 O4 2.014175 1_555
Co0 O6 2.145996 1_555
Co0 O12 2.172090 1_555
Co1 O11 1.907845 1_555
Co1 O2 2.005727 1_555
Co1 O10 2.046285 1_555
Co1 O18 2.058019 1_555
Co1 O13 2.083382 1_555
Co1 O12 2.111740 1_555
Co2 O25 1.960818 1_555
Co2 O14 1.979666 1_555
Co2 O16 1.995285 1_555
Co2 O8 2.018230 1_555
Co2 O17 2.074706 1_555
Co2 O15 2.094362 1_555
Co3 O7 1.899723 1_554
Co3 O3 1.921204 1_555
Co3 O23 1.965431 1_555
Co3 O19 2.000387 1_554
Co3 O15 2.164920 1_555
Co3 O22 2.263318 1_555
O0 P5 1.510568 1_455
O1 P1 1.607745 1_555
O1 P5 1.637736 1_455
O2 P7 1.517432 1_455
O3 P0 1.542887 1_655
O4 P1 1.525318 1_545
O5 P3 1.604923 1_555
O5 P0 1.608800 1_555
O6 P3 1.535663 1_555
O7 P1 1.548420 1_555
O8 P0 1.526027 1_555
O9 P2 1.536335 1_555
O10 P1 1.521740 1_545
O11 P2 1.563148 1_555
O12 P3 1.567563 1_555
O13 P4 1.530241 1_555
O14 P3 1.510638 1_555
O15 P4 1.560149 1_555
O16 P5 1.537864 1_555
O17 P6 1.516402 1_565
O18 P7 1.532925 1_555
O19 P5 1.543460 1_555
O20 P6 1.537789 1_555
O21 P4 1.599545 1_555
O21 P7 1.623749 1_555
O22 P4 1.541542 1_555
O23 P6 1.539777 1_565
O24 P7 1.534770 1_555
O25 P0 1.529003 1_655
O26 P6 1.600785 1_555
O26 P2 1.632717 1_655
O27 P2 1.486188 1_655
