# generated using pymatgen
data_LiNi2(SO4)3
_symmetry_space_group_name_H-M   'P 1'
_cell_length_a   8.67978655
_cell_length_b   8.67978655
_cell_length_c   8.67978628
_cell_angle_alpha   59.43378097
_cell_angle_beta   59.43378097
_cell_angle_gamma   59.43378230
_symmetry_Int_Tables_number   1
_chemical_formula_structural   LiNi2(SO4)3
_chemical_formula_sum   'Li2 Ni4 S6 O24'
_cell_volume   456.43714436
_cell_formula_units_Z   2
loop_
 _symmetry_equiv_pos_site_id
 _symmetry_equiv_pos_as_xyz
  1  'x, y, z'
loop_
 _atom_site_type_symbol
 _atom_site_label
 _atom_site_symmetry_multiplicity
 _atom_site_fract_x
 _atom_site_fract_y
 _atom_site_fract_z
 _atom_site_occupancy
  Li  Li0  1  0.00000000  0.00000000  0.00000000  1
  Li  Li1  1  0.50000000  0.50000000  0.50000000  1
  Ni  Ni0  1  0.35558100  0.35558100  0.35558100  1
  Ni  Ni1  1  0.14441900  0.14441900  0.14441900  1
  Ni  Ni2  1  0.64441900  0.64441900  0.64441900  1
  Ni  Ni3  1  0.85558100  0.85558100  0.85558100  1
  S  S0  1  0.75000000  0.04442000  0.45558000  1
  S  S1  1  0.95558000  0.54442000  0.25000000  1
  S  S2  1  0.54442000  0.25000000  0.95558000  1
  S  S3  1  0.45558000  0.75000000  0.04442000  1
  S  S4  1  0.04442000  0.45558000  0.75000000  1
  S  S5  1  0.25000000  0.95558000  0.54442000  1
  O  O0  1  0.90754000  0.06316000  0.26649800  1
  O  O1  1  0.73350200  0.09246000  0.93684000  1
  O  O2  1  0.89589600  0.49126100  0.69048500  1
  O  O3  1  0.00873900  0.60410400  0.80951500  1
  O  O4  1  0.59246000  0.23350200  0.43684000  1
  O  O5  1  0.76649800  0.56316000  0.40754000  1
  O  O6  1  0.93684000  0.73350200  0.09246000  1
  O  O7  1  0.19048500  0.99126100  0.39589600  1
  O  O8  1  0.50873900  0.30951500  0.10410400  1
  O  O9  1  0.30951500  0.10410400  0.50873900  1
  O  O10  1  0.39589600  0.19048500  0.99126100  1
  O  O11  1  0.56316000  0.40754000  0.76649800  1
  O  O12  1  0.43684000  0.59246000  0.23350200  1
  O  O13  1  0.69048500  0.89589600  0.49126100  1
  O  O14  1  0.60410400  0.80951500  0.00873900  1
  O  O15  1  0.80951500  0.00873900  0.60410400  1
  O  O16  1  0.49126100  0.69048500  0.89589600  1
  O  O17  1  0.06316000  0.26649800  0.90754000  1
  O  O18  1  0.23350200  0.43684000  0.59246000  1
  O  O19  1  0.40754000  0.76649800  0.56316000  1
  O  O20  1  0.10410400  0.50873900  0.30951500  1
  O  O21  1  0.99126100  0.39589600  0.19048500  1
  O  O22  1  0.26649800  0.90754000  0.06316000  1
  O  O23  1  0.09246000  0.93684000  0.73350200  1
loop_
_geom_bond_atom_site_label_1
_geom_bond_atom_site_label_2
_geom_bond_distance
_geom_bond_site_symmetry_2
Li0 O23 2.291170 1_544
Li0 O0 2.291170 1_455
Li0 O6 2.291170 1_445
Li0 O17 2.291170 1_554
Li0 O1 2.291170 1_454
Li0 O22 2.291170 1_545
Li1 O11 2.291170 1_555
Li1 O12 2.291170 1_555
Li1 O5 2.291170 1_555
Li1 O18 2.291170 1_555
Li1 O19 2.291170 1_555
Li1 O4 2.291170 1_555
Ni0 O8 2.021729 1_555
Ni0 O9 2.021729 1_555
Ni0 O20 2.021729 1_555
Ni0 O18 2.084852 1_555
Ni0 O12 2.084852 1_555
Ni0 O4 2.084852 1_555
Ni1 O7 2.021729 1_545
Ni1 O10 2.021729 1_554
Ni1 O21 2.021729 1_455
Ni1 O17 2.084852 1_554
Ni1 O0 2.084852 1_455
Ni1 O22 2.084852 1_545
Ni2 O16 2.021729 1_555
Ni2 O13 2.021729 1_555
Ni2 O2 2.021729 1_555
Ni2 O5 2.084852 1_555
Ni2 O11 2.084852 1_555
Ni2 O19 2.084852 1_555
Ni3 O15 2.021729 1_565
Ni3 O14 2.021729 1_556
Ni3 O3 2.021729 1_655
Ni3 O6 2.084852 1_556
Ni3 O23 2.084852 1_655
Ni3 O1 2.084852 1_565
O0 S0 1.503996 1_555
O1 S2 1.503996 1_555
O2 S4 1.460555 1_655
O3 S4 1.460555 1_555
O4 S0 1.503996 1_555
O5 S1 1.503996 1_555
O6 S1 1.503996 1_555
O7 S5 1.460555 1_555
O8 S2 1.460555 1_554
O9 S5 1.460555 1_545
O10 S2 1.460555 1_555
O11 S2 1.503996 1_555
O12 S3 1.503996 1_555
O13 S0 1.460555 1_565
O14 S3 1.460555 1_555
O15 S0 1.460555 1_555
O16 S3 1.460555 1_556
O17 S4 1.503996 1_555
O18 S4 1.503996 1_555
O19 S5 1.503996 1_555
O20 S1 1.460555 1_455
O21 S1 1.460555 1_555
O22 S3 1.503996 1_555
O23 S5 1.503996 1_555
