# generated using pymatgen
data_Li3Fe(PO4)2
_symmetry_space_group_name_H-M   'P 1'
_cell_length_a   8.82907888
_cell_length_b   8.83171453
_cell_length_c   10.06685836
_cell_angle_alpha   74.55839674
_cell_angle_beta   111.36418580
_cell_angle_gamma   73.69530734
_symmetry_Int_Tables_number   1
_chemical_formula_structural   Li3Fe(PO4)2
_chemical_formula_sum   'Li12 Fe4 P8 O32'
_cell_volume   639.21864986
_cell_formula_units_Z   4
loop_
 _symmetry_equiv_pos_site_id
 _symmetry_equiv_pos_as_xyz
  1  'x, y, z'
loop_
 _atom_site_type_symbol
 _atom_site_label
 _atom_site_symmetry_multiplicity
 _atom_site_fract_x
 _atom_site_fract_y
 _atom_site_fract_z
 _atom_site_occupancy
  Li  Li0  1  0.55762600  0.79227400  0.01539900  1
  Li  Li1  1  0.05766900  0.29225300  0.01542300  1
  Li  Li2  1  0.94236300  0.70771100  0.98461500  1
  Li  Li3  1  0.44234200  0.20770400  0.98462800  1
  Li  Li4  1  0.51938100  0.99672000  0.27378200  1
  Li  Li5  1  0.01939100  0.49670500  0.27378000  1
  Li  Li6  1  0.98063200  0.50327200  0.72625300  1
  Li  Li7  1  0.48061700  0.00328900  0.72625200  1
  Li  Li8  1  0.89693000  0.80273300  0.34462000  1
  Li  Li9  1  0.39696200  0.30275400  0.34462100  1
  Li  Li10  1  0.60309100  0.69725600  0.65539800  1
  Li  Li11  1  0.10304000  0.19725100  0.65538500  1
  Fe  Fe0  1  0.22899200  0.72751300  0.25144500  1
  Fe  Fe1  1  0.27090200  0.77242000  0.74853700  1
  Fe  Fe2  1  0.72909400  0.22754400  0.25138200  1
  Fe  Fe3  1  0.77101600  0.27256400  0.74850100  1
  P  P0  1  0.78496800  0.98859600  0.04628500  1
  P  P1  1  0.28496200  0.48855300  0.04629300  1
  P  P2  1  0.71502800  0.51147300  0.95368100  1
  P  P3  1  0.21506200  0.01139900  0.95371900  1
  P  P4  1  0.69067500  0.54195700  0.39869100  1
  P  P5  1  0.19073000  0.04194500  0.39871500  1
  P  P6  1  0.80925500  0.95809500  0.60128000  1
  P  P7  1  0.30934600  0.45799300  0.60128900  1
  O  O0  1  0.33476800  0.62186200  0.96280000  1
  O  O1  1  0.83473500  0.12190200  0.96276100  1
  O  O2  1  0.16523200  0.87812600  0.03720600  1
  O  O3  1  0.66519900  0.37817300  0.03712200  1
  O  O4  1  0.36075200  0.04221400  0.06862800  1
  O  O5  1  0.86079700  0.54217900  0.06865200  1
  O  O6  1  0.13919500  0.45781800  0.93138700  1
  O  O7  1  0.63921200  0.95776000  0.93140300  1
  O  O8  1  0.75726200  0.67260000  0.33358700  1
  O  O9  1  0.25718800  0.17271700  0.33355000  1
  O  O10  1  0.74282300  0.82731400  0.66647000  1
  O  O11  1  0.24271900  0.32736600  0.66641500  1
  O  O12  1  0.70704000  0.03929200  0.41738300  1
  O  O13  1  0.20702600  0.53930100  0.41738000  1
  O  O14  1  0.79296700  0.46071800  0.58260400  1
  O  O15  1  0.29295000  0.96071100  0.58263200  1
  O  O16  1  0.71605100  0.04429500  0.15671500  1
  O  O17  1  0.21604800  0.54429300  0.15669700  1
  O  O18  1  0.95097600  0.80926500  0.15662400  1
  O  O19  1  0.45099400  0.30928200  0.15660500  1
  O  O20  1  0.54898700  0.69073500  0.84336400  1
  O  O21  1  0.04904900  0.19071700  0.84341300  1
  O  O22  1  0.78398400  0.45572000  0.84331100  1
  O  O23  1  0.28394100  0.95568700  0.84328300  1
  O  O24  1  0.48883600  0.63322600  0.34639300  1
  O  O25  1  0.98885700  0.13324500  0.34639300  1
  O  O26  1  0.72877000  0.39230100  0.34646300  1
  O  O27  1  0.22877100  0.89231700  0.34642600  1
  O  O28  1  0.77123800  0.10771300  0.65359200  1
  O  O29  1  0.27121200  0.60763300  0.65351600  1
  O  O30  1  0.01110500  0.86680000  0.65359400  1
  O  O31  1  0.51124400  0.36674700  0.65365700  1
loop_
_geom_bond_atom_site_label_1
_geom_bond_atom_site_label_2
_geom_bond_distance
_geom_bond_site_symmetry_2
Li0 O7 1.935649 1_554
Li0 O20 2.139743 1_554
Li0 O23 2.140969 1_554
Li1 O6 1.935924 1_554
Li1 O21 2.139521 1_554
Li1 O22 2.141028 1_454
Li2 O5 1.935973 1_556
Li2 O18 2.139623 1_556
Li2 O17 2.140900 1_656
Li3 O4 1.935717 1_556
Li3 O19 2.139419 1_556
Li3 O16 2.141037 1_556
Li4 O4 1.876958 1_565
Li4 O12 1.967345 1_565
Li4 O19 2.487444 1_565
Li4 O16 2.493484 1_565
Li5 O5 1.876719 1_455
Li5 O13 1.967339 1_555
Li5 O18 2.487349 1_455
Li5 O17 2.493516 1_555
Li6 O6 1.876738 1_655
Li6 O14 1.967511 1_555
Li6 O21 2.487308 1_655
Li6 O22 2.493196 1_555
Li7 O7 1.876760 1_545
Li7 O15 1.967514 1_545
Li7 O20 2.487357 1_545
Li7 O23 2.493343 1_545
Li8 O8 1.902054 1_555
Li8 O16 2.101668 1_565
Li8 O18 2.104276 1_555
Li9 O9 1.902114 1_555
Li9 O17 2.101666 1_555
Li9 O19 2.104408 1_555
Li10 O10 1.901967 1_555
Li10 O22 2.101585 1_555
Li10 O20 2.104284 1_555
Li11 O11 1.902005 1_555
Li11 O23 2.101681 1_545
Li11 O21 2.104314 1_555
Fe0 O27 1.942573 1_555
Fe0 O24 1.943219 1_555
Fe0 O2 1.976100 1_555
Fe0 O17 2.094641 1_555
Fe0 O18 2.094852 1_455
Fe0 O13 2.128252 1_555
Fe1 O29 1.942696 1_555
Fe1 O30 1.942828 1_555
Fe1 O0 1.975866 1_555
Fe1 O23 2.095095 1_555
Fe1 O20 2.095464 1_555
Fe1 O15 2.128917 1_555
Fe2 O25 1.942552 1_555
Fe2 O26 1.942878 1_555
Fe2 O3 1.975954 1_555
Fe2 O16 2.094444 1_555
Fe2 O19 2.095567 1_555
Fe2 O12 2.129332 1_555
Fe3 O28 1.942437 1_555
Fe3 O31 1.942745 1_555
Fe3 O1 1.976511 1_555
Fe3 O22 2.094550 1_555
Fe3 O21 2.094842 1_655
Fe3 O14 2.127634 1_555
O0 P1 1.522830 1_556
O1 P0 1.522708 1_546
O2 P3 1.522727 1_564
O3 P2 1.522681 1_554
O4 P3 1.531948 1_554
O5 P2 1.532095 1_554
O6 P1 1.531917 1_556
O7 P0 1.532285 1_556
O8 P4 1.537968 1_555
O9 P5 1.538189 1_555
O10 P6 1.538168 1_555
O11 P7 1.538208 1_555
O12 P6 1.571081 1_545
O13 P7 1.571182 1_555
O14 P4 1.571222 1_555
O15 P5 1.571247 1_565
O16 P0 1.569728 1_545
O17 P1 1.569611 1_555
O18 P0 1.569737 1_555
O19 P1 1.569498 1_555
O20 P2 1.569490 1_555
O21 P3 1.569658 1_555
O22 P2 1.569544 1_555
O23 P3 1.569642 1_565
O24 P4 1.544837 1_555
O25 P5 1.545079 1_655
O26 P4 1.544601 1_555
O27 P5 1.544731 1_565
O28 P6 1.544781 1_545
O29 P7 1.544504 1_555
O30 P6 1.544912 1_455
O31 P7 1.545121 1_555
