# generated using pymatgen
data_Li4TiCrO6
_symmetry_space_group_name_H-M   'P 1'
_cell_length_a   5.04449100
_cell_length_b   5.05581123
_cell_length_c   19.39852374
_cell_angle_alpha   85.05913440
_cell_angle_beta   86.94762815
_cell_angle_gamma   60.55255836
_symmetry_Int_Tables_number   1
_chemical_formula_structural   Li4TiCrO6
_chemical_formula_sum   'Li16 Ti4 Cr4 O24'
_cell_volume   429.18812965
_cell_formula_units_Z   4
loop_
 _symmetry_equiv_pos_site_id
 _symmetry_equiv_pos_as_xyz
  1  'x, y, z'
loop_
 _atom_site_type_symbol
 _atom_site_label
 _atom_site_symmetry_multiplicity
 _atom_site_fract_x
 _atom_site_fract_y
 _atom_site_fract_z
 _atom_site_occupancy
  Li  Li0  1  0.50000000  0.50000000  0.50000000  1
  Li  Li1  1  0.50150800  0.37678300  0.87503200  1
  Li  Li2  1  0.18040200  0.41031400  0.74960400  1
  Li  Li3  1  0.50000000  0.00000000  0.00000000  1
  Li  Li4  1  0.49889500  0.87320700  0.37497400  1
  Li  Li5  1  0.49219200  0.75109000  0.75004500  1
  Li  Li6  1  0.17514200  0.90997000  0.24942600  1
  Li  Li7  1  0.50780800  0.24891000  0.24995500  1
  Li  Li8  1  0.81939800  0.33152400  0.99991300  1
  Li  Li9  1  0.17526000  0.15612600  0.49966500  1
  Li  Li10  1  0.82474000  0.84387400  0.50033500  1
  Li  Li11  1  0.18060200  0.66847600  0.00008700  1
  Li  Li12  1  0.82485800  0.09003000  0.75057400  1
  Li  Li13  1  0.50110500  0.12679300  0.62502600  1
  Li  Li14  1  0.81959800  0.58968600  0.25039600  1
  Li  Li15  1  0.49849200  0.62321700  0.12496800  1
  Ti  Ti0  1  0.83204000  0.45583600  0.62472000  1
  Ti  Ti1  1  0.16772100  0.29554700  0.12521500  1
  Ti  Ti2  1  0.83227900  0.70445300  0.87478500  1
  Ti  Ti3  1  0.16796000  0.54416400  0.37528000  1
  Cr  Cr0  1  0.83249700  0.95554500  0.12487100  1
  Cr  Cr1  1  0.16711600  0.79422100  0.62524600  1
  Cr  Cr2  1  0.83288400  0.20577900  0.37475400  1
  Cr  Cr3  1  0.16750300  0.04445500  0.87512900  1
  O  O0  1  0.50148400  0.45979800  0.68317800  1
  O  O1  1  0.49370900  0.78887000  0.56782100  1
  O  O2  1  0.50692200  0.96091500  0.18223200  1
  O  O3  1  0.14548100  0.34755100  0.93110800  1
  O  O4  1  0.14586800  0.50358700  0.56876200  1
  O  O5  1  0.49788500  0.29031500  0.06675800  1
  O  O6  1  0.85461600  0.39662800  0.81768000  1
  O  O7  1  0.14656500  0.85353800  0.43179000  1
  O  O8  1  0.14074400  0.99855200  0.06907100  1
  O  O9  1  0.14646800  0.75316300  0.81906300  1
  O  O10  1  0.85971600  0.75105000  0.68123400  1
  O  O11  1  0.85347400  0.90212300  0.31911700  1
  O  O12  1  0.14652600  0.09787700  0.68088300  1
  O  O13  1  0.14028400  0.24895000  0.31876600  1
  O  O14  1  0.85353200  0.24683700  0.18093700  1
  O  O15  1  0.85925600  0.00144800  0.93092900  1
  O  O16  1  0.85343500  0.14646200  0.56821000  1
  O  O17  1  0.14538400  0.60337200  0.18232000  1
  O  O18  1  0.50211500  0.70968500  0.93324200  1
  O  O19  1  0.85413200  0.49641300  0.43123800  1
  O  O20  1  0.85451900  0.65244900  0.06889200  1
  O  O21  1  0.49307800  0.03908500  0.81776800  1
  O  O22  1  0.50629100  0.21113000  0.43217900  1
  O  O23  1  0.49851600  0.54020200  0.31682200  1
loop_
_geom_bond_atom_site_label_1
_geom_bond_atom_site_label_2
_geom_bond_distance
_geom_bond_site_symmetry_2
Li0 O1 2.036129 1_555
Li0 O22 2.036129 1_555
Li0 O4 2.165501 1_555
Li0 O19 2.165501 1_555
Li0 O7 2.198823 1_555
Li0 O16 2.198823 1_555
Li1 O6 2.089526 1_555
Li1 O18 2.107291 1_555
Li1 O3 2.110898 1_555
Li1 O9 2.123132 1_555
Li1 O15 2.126093 1_555
Li1 O21 2.133983 1_555
Li2 O6 2.077135 1_455
Li2 O10 2.106762 1_455
Li2 O0 2.113537 1_555
Li2 O21 2.154702 1_555
Li2 O9 2.221576 1_555
Li2 O12 2.225744 1_555
Li3 O5 2.035210 1_555
Li3 O18 2.035210 1_544
Li3 O20 2.198191 1_545
Li3 O3 2.198191 1_554
Li3 O15 2.198267 1_554
Li3 O8 2.198267 1_545
Li4 O7 2.080815 1_555
Li4 O11 2.101953 1_555
Li4 O23 2.106566 1_555
Li4 O19 2.127221 1_555
Li4 O13 2.131776 1_565
Li4 O22 2.131984 1_565
Li5 O0 2.026900 1_555
Li5 O21 2.045115 1_565
Li5 O9 2.137742 1_555
Li5 O12 2.180018 1_565
Li5 O6 2.214589 1_555
Li5 O10 2.226008 1_555
Li6 O11 2.069456 1_455
Li6 O14 2.102575 1_465
Li6 O23 2.161664 1_555
Li6 O2 2.167995 1_555
Li6 O17 2.171891 1_555
Li6 O13 2.202944 1_565
Li7 O23 2.026900 1_555
Li7 O2 2.045115 1_545
Li7 O14 2.137742 1_555
Li7 O11 2.180018 1_545
Li7 O17 2.214589 1_555
Li7 O13 2.226008 1_555
Li8 O3 2.091031 1_655
Li8 O5 2.101672 1_556
Li8 O8 2.102588 1_646
Li8 O15 2.154572 1_555
Li8 O18 2.162284 1_555
Li8 O20 2.266357 1_556
Li9 O16 2.059828 1_455
Li9 O19 2.107444 1_455
Li9 O1 2.155628 1_545
Li9 O7 2.163322 1_545
Li9 O22 2.177323 1_555
Li9 O4 2.243417 1_555
Li10 O7 2.059828 1_655
Li10 O4 2.107444 1_655
Li10 O22 2.155628 1_565
Li10 O16 2.163322 1_565
Li10 O1 2.177323 1_555
Li10 O19 2.243417 1_555
Li11 O20 2.091031 1_455
Li11 O18 2.101672 1_554
Li11 O15 2.102588 1_464
Li11 O8 2.154572 1_555
Li11 O5 2.162284 1_555
Li11 O3 2.266357 1_554
Li12 O12 2.069456 1_655
Li12 O9 2.102575 1_645
Li12 O0 2.161664 1_555
Li12 O21 2.167995 1_555
Li12 O6 2.171891 1_555
Li12 O10 2.202944 1_545
Li13 O16 2.080815 1_555
Li13 O12 2.101953 1_555
Li13 O0 2.106566 1_555
Li13 O4 2.127221 1_555
Li13 O10 2.131776 1_545
Li13 O1 2.131984 1_545
Li14 O17 2.077135 1_655
Li14 O13 2.106762 1_655
Li14 O23 2.113537 1_555
Li14 O2 2.154702 1_555
Li14 O14 2.221576 1_555
Li14 O11 2.225744 1_555
Li15 O17 2.089526 1_555
Li15 O5 2.107291 1_555
Li15 O20 2.110898 1_555
Li15 O14 2.123132 1_555
Li15 O8 2.126093 1_555
Li15 O2 2.133983 1_555
Cr0 O20 1.909500 1_555
Cr0 O2 1.924309 1_555
Cr0 O8 1.936353 1_655
Cr0 O14 1.950609 1_565
Cr0 O17 1.996424 1_655
Cr0 O5 2.012358 1_565
Cr1 O12 1.910298 1_565
Cr1 O1 1.929196 1_555
Cr1 O10 1.935048 1_455
Cr1 O4 1.953425 1_555
Cr1 O16 1.993933 1_465
Cr1 O0 2.009262 1_555
Cr2 O11 1.910298 1_545
Cr2 O22 1.929196 1_555
Cr2 O13 1.935048 1_655
Cr2 O19 1.953425 1_555
Cr2 O7 1.993933 1_645
Cr2 O23 2.009262 1_555
Cr3 O3 1.909500 1_555
Cr3 O21 1.924309 1_555
Cr3 O15 1.936353 1_455
Cr3 O9 1.950609 1_545
Cr3 O6 1.996424 1_455
Cr3 O18 2.012358 1_545
O0 Ti0 1.958713 1_555
O1 Ti0 2.005271 1_555
O2 Ti1 2.011545 1_565
O3 Ti2 1.996753 1_455
O4 Ti0 1.972423 1_455
O5 Ti1 1.954800 1_555
O6 Ti2 1.942459 1_555
O7 Ti3 1.943352 1_555
O8 Ti1 1.989406 1_565
O9 Ti2 1.973957 1_455
O10 Ti0 1.987982 1_555
O11 Ti3 2.000109 1_655
O12 Ti0 2.000109 1_455
O13 Ti3 1.987982 1_555
O14 Ti1 1.973957 1_655
O15 Ti2 1.989406 1_545
O16 Ti0 1.943352 1_555
O17 Ti1 1.942459 1_555
O18 Ti2 1.954800 1_555
O19 Ti3 1.972423 1_655
O20 Ti1 1.996753 1_655
O21 Ti2 2.011545 1_545
O22 Ti3 2.005271 1_555
O23 Ti3 1.958713 1_555
