# generated using pymatgen
data_CaH12S2(NO5)2
_symmetry_space_group_name_H-M   'P 1'
_cell_length_a   7.02620605
_cell_length_b   7.02620605
_cell_length_c   11.79250870
_cell_angle_alpha   82.28537650
_cell_angle_beta   82.28537650
_cell_angle_gamma   66.06902739
_symmetry_Int_Tables_number   1
_chemical_formula_structural   CaH12S2(NO5)2
_chemical_formula_sum   'Ca2 H24 S4 N4 O20'
_cell_volume   525.25532516
_cell_formula_units_Z   2
loop_
 _symmetry_equiv_pos_site_id
 _symmetry_equiv_pos_as_xyz
  1  'x, y, z'
loop_
 _atom_site_type_symbol
 _atom_site_label
 _atom_site_symmetry_multiplicity
 _atom_site_fract_x
 _atom_site_fract_y
 _atom_site_fract_z
 _atom_site_occupancy
  Ca  Ca0  1  0.07426000  0.92574000  0.75000000  1
  Ca  Ca1  1  0.92574000  0.07426000  0.25000000  1
  H  H0  1  0.80700200  0.01593800  0.98864000  1
  H  H1  1  0.01593800  0.80700200  0.48864000  1
  H  H2  1  0.79961300  0.81467600  0.94341200  1
  H  H3  1  0.81467600  0.79961300  0.44341200  1
  H  H4  1  0.65652200  0.68585300  0.69260000  1
  H  H5  1  0.82764900  0.44460800  0.64301000  1
  H  H6  1  0.44279500  0.70117300  0.89879200  1
  H  H7  1  0.68585300  0.65652200  0.19260000  1
  H  H8  1  0.44460800  0.82764900  0.14301000  1
  H  H9  1  0.70117300  0.44279500  0.39879200  1
  H  H10  1  0.35579100  0.73757700  0.53535200  1
  H  H11  1  0.26242300  0.64420900  0.96464800  1
  H  H12  1  0.73757700  0.35579100  0.03535200  1
  H  H13  1  0.64420900  0.26242300  0.46464800  1
  H  H14  1  0.29882700  0.55720500  0.60120800  1
  H  H15  1  0.55539200  0.17235100  0.85699000  1
  H  H16  1  0.31414700  0.34347800  0.80740000  1
  H  H17  1  0.55720500  0.29882700  0.10120800  1
  H  H18  1  0.17235100  0.55539200  0.35699000  1
  H  H19  1  0.34347800  0.31414700  0.30740000  1
  H  H20  1  0.18532400  0.20038700  0.55658800  1
  H  H21  1  0.20038700  0.18532400  0.05658800  1
  H  H22  1  0.98406200  0.19299800  0.51136000  1
  H  H23  1  0.19299800  0.98406200  0.01136000  1
  S  S0  1  0.88750700  0.48213000  0.81657900  1
  S  S1  1  0.48213000  0.88750700  0.31657900  1
  S  S2  1  0.51787000  0.11249300  0.68342100  1
  S  S3  1  0.11249300  0.51787000  0.18342100  1
  N  N0  1  0.74471400  0.52969300  0.71071700  1
  N  N1  1  0.52969300  0.74471400  0.21071700  1
  N  N2  1  0.47030700  0.25528600  0.78928300  1
  N  N3  1  0.25528600  0.47030700  0.28928300  1
  O  O0  1  0.81356800  0.94814300  0.91942000  1
  O  O1  1  0.94814300  0.81356800  0.41942000  1
  O  O2  1  0.42245900  0.95639300  0.70839400  1
  O  O3  1  0.73927500  0.57458000  0.91622600  1
  O  O4  1  0.99152300  0.25323200  0.83322300  1
  O  O5  1  0.95639300  0.42245900  0.20839400  1
  O  O6  1  0.57458000  0.73927500  0.41622600  1
  O  O7  1  0.25323200  0.99152300  0.33322300  1
  O  O8  1  0.28933900  0.75630800  0.91429600  1
  O  O9  1  0.75630800  0.28933900  0.41429600  1
  O  O10  1  0.24369200  0.71066100  0.58570400  1
  O  O11  1  0.71066100  0.24369200  0.08570400  1
  O  O12  1  0.74676800  0.00847700  0.66677700  1
  O  O13  1  0.42542000  0.26072500  0.58377400  1
  O  O14  1  0.04360700  0.57754100  0.79160600  1
  O  O15  1  0.00847700  0.74676800  0.16677700  1
  O  O16  1  0.26072500  0.42542000  0.08377400  1
  O  O17  1  0.57754100  0.04360700  0.29160600  1
  O  O18  1  0.05185700  0.18643200  0.58058000  1
  O  O19  1  0.18643200  0.05185700  0.08058000  1
loop_
_geom_bond_atom_site_label_1
_geom_bond_atom_site_label_2
_geom_bond_distance
_geom_bond_site_symmetry_2
Ca0 O4 2.442078 1_465
Ca0 O12 2.442078 1_465
Ca0 O8 2.482337 1_555
Ca0 O10 2.482337 1_555
Ca0 O18 2.497879 1_565
Ca0 O0 2.497879 1_455
Ca0 O2 2.519801 1_555
Ca0 O14 2.519801 1_555
Ca1 O7 2.442078 1_645
Ca1 O15 2.442078 1_645
Ca1 O9 2.482337 1_555
Ca1 O11 2.482337 1_555
Ca1 O19 2.497879 1_655
Ca1 O1 2.497879 1_545
Ca1 O5 2.519801 1_555
Ca1 O17 2.519801 1_555
H0 O0 0.985795 1_545
H1 O1 0.985795 1_455
H2 O0 0.982335 1_555
H3 O1 0.982335 1_555
H4 N0 1.026899 1_555
H5 N0 1.027168 1_555
H6 O8 0.986546 1_555
H7 N1 1.026899 1_555
H8 N1 1.027168 1_555
H9 O9 0.986546 1_555
H10 O10 0.986829 1_555
H11 O8 0.986829 1_555
H12 O11 0.986829 1_555
H13 O9 0.986829 1_555
H14 O10 0.986546 1_555
H15 N2 1.027168 1_555
H16 N2 1.026899 1_555
H17 O11 0.986546 1_555
H18 N3 1.027168 1_555
H19 N3 1.026899 1_555
H20 O18 0.982335 1_555
H21 O19 0.982335 1_555
H22 O18 0.985795 1_655
H23 O19 0.985795 1_565
N0 S0 1.621412 1_555
N1 S1 1.621412 1_555
N2 S2 1.621412 1_555
N3 S3 1.621412 1_555
O2 S2 1.481843 1_565
O3 S0 1.488292 1_555
O4 S0 1.469498 1_555
O5 S3 1.481843 1_655
O6 S1 1.488292 1_555
O7 S1 1.469498 1_555
O12 S2 1.469498 1_555
O13 S2 1.488292 1_555
O14 S0 1.481843 1_455
O15 S3 1.469498 1_555
O16 S3 1.488292 1_555
O17 S1 1.481843 1_545
