# generated using pymatgen
data_LiEuPSe4
_symmetry_space_group_name_H-M   'P 1'
_cell_length_a   6.28293519
_cell_length_b   6.28293519
_cell_length_c   9.71258600
_cell_angle_alpha   90.00000000
_cell_angle_beta   90.00000000
_cell_angle_gamma   105.64553746
_symmetry_Int_Tables_number   1
_chemical_formula_structural   LiEuPSe4
_chemical_formula_sum   'Li2 Eu2 P2 Se8'
_cell_volume   369.20120651
_cell_formula_units_Z   2
loop_
 _symmetry_equiv_pos_site_id
 _symmetry_equiv_pos_as_xyz
  1  'x, y, z'
loop_
 _atom_site_type_symbol
 _atom_site_label
 _atom_site_symmetry_multiplicity
 _atom_site_fract_x
 _atom_site_fract_y
 _atom_site_fract_z
 _atom_site_occupancy
  Li  Li0  1  0.63203500  0.63203500  0.00000000  1
  Li  Li1  1  0.63203500  0.63203500  0.50000000  1
  Eu  Eu0  1  0.10663900  0.10663900  0.00000000  1
  Eu  Eu1  1  0.10663900  0.10663900  0.50000000  1
  P  P0  1  0.84682400  0.41507800  0.25000000  1
  P  P1  1  0.41507800  0.84682400  0.75000000  1
  Se  Se0  1  0.67991000  0.25382800  0.05688400  1
  Se  Se1  1  0.20068100  0.40160800  0.25000000  1
  Se  Se2  1  0.83057300  0.77241700  0.25000000  1
  Se  Se3  1  0.67991000  0.25382800  0.44311600  1
  Se  Se4  1  0.25382800  0.67991000  0.55688400  1
  Se  Se5  1  0.40160800  0.20068100  0.75000000  1
  Se  Se6  1  0.77241700  0.83057300  0.75000000  1
  Se  Se7  1  0.25382800  0.67991000  0.94311600  1
loop_
_geom_bond_atom_site_label_1
_geom_bond_atom_site_label_2
_geom_bond_distance
_geom_bond_site_symmetry_2
Li0 Se0 2.535313 1_555
Li0 Se7 2.535313 1_554
Li0 Se6 2.763408 1_554
Li0 Se2 2.763408 1_555
Li1 Se4 2.535313 1_555
Li1 Se3 2.535313 1_555
Li1 Se2 2.763408 1_555
Li1 Se6 2.763408 1_555
Eu0 Se5 3.014797 1_554
Eu0 Se1 3.014797 1_555
Eu0 Se0 3.112258 1_455
Eu0 Se7 3.112258 1_544
Eu0 Se6 3.368891 1_444
Eu0 Se2 3.368891 1_445
Eu0 Se0 3.512409 1_555
Eu0 Se7 3.512409 1_554
Eu1 Se1 3.014797 1_555
Eu1 Se5 3.014797 1_555
Eu1 Se4 3.112258 1_545
Eu1 Se3 3.112258 1_455
Eu1 Se2 3.368891 1_445
Eu1 Se6 3.368891 1_445
Eu1 Se3 3.512409 1_555
Eu1 Se4 3.512409 1_555
P0 Se1 2.247562 1_655
P0 Se3 2.251939 1_555
P0 Se0 2.251939 1_555
P0 Se2 2.274800 1_555
P1 Se5 2.247562 1_565
P1 Se4 2.251939 1_555
P1 Se7 2.251939 1_555
P1 Se6 2.274800 1_555
