# generated using pymatgen
data_LiSbO2
_symmetry_space_group_name_H-M   'P 1'
_cell_length_a   5.65696157
_cell_length_b   5.65696157
_cell_length_c   5.25280557
_cell_angle_alpha   66.51710248
_cell_angle_beta   113.48289752
_cell_angle_gamma   75.93779351
_symmetry_Int_Tables_number   1
_chemical_formula_structural   LiSbO2
_chemical_formula_sum   'Li2 Sb2 O4'
_cell_volume   124.23630114
_cell_formula_units_Z   2
loop_
 _symmetry_equiv_pos_site_id
 _symmetry_equiv_pos_as_xyz
  1  'x, y, z'
loop_
 _atom_site_type_symbol
 _atom_site_label
 _atom_site_symmetry_multiplicity
 _atom_site_fract_x
 _atom_site_fract_y
 _atom_site_fract_z
 _atom_site_occupancy
  Li  Li0  1  0.45490635  0.45490635  0.75000000  1
  Li  Li1  1  0.54509365  0.54509365  0.25000000  1
  Sb  Sb0  1  0.89561476  0.89561476  0.75000000  1
  Sb  Sb1  1  0.10438524  0.10438524  0.25000000  1
  O  O0  1  0.26428419  0.80330377  0.76079586  1
  O  O1  1  0.19669623  0.73571581  0.26079586  1
  O  O2  1  0.80330377  0.26428419  0.73920414  1
  O  O3  1  0.73571581  0.19669623  0.23920414  1
loop_
_geom_bond_atom_site_label_1
_geom_bond_atom_site_label_2
_geom_bond_distance
_geom_bond_site_symmetry_2
Li0 O3 1.971862 1_556
Li0 O1 1.971862 1_555
Li0 O2 2.038479 1_555
Li0 O0 2.038479 1_555
Li1 O2 1.971862 1_555
Li1 O0 1.971862 1_554
Li1 O1 2.038479 1_555
Li1 O3 2.038479 1_555
O0 Sb0 1.994576 1_455
O0 Sb1 2.143213 1_565
O1 Sb1 1.994576 1_565
O1 Sb0 2.143213 1_454
O2 Sb0 1.994576 1_545
O2 Sb1 2.143213 1_656
O3 Sb1 1.994576 1_655
O3 Sb0 2.143213 1_545
