# generated using pymatgen
data_CaPt3O4
_symmetry_space_group_name_H-M   'P 1'
_cell_length_a   5.87515300
_cell_length_b   5.87515300
_cell_length_c   5.87515300
_cell_angle_alpha   90.00000000
_cell_angle_beta   90.00000000
_cell_angle_gamma   90.00000000
_symmetry_Int_Tables_number   1
_chemical_formula_structural   CaPt3O4
_chemical_formula_sum   'Ca2 Pt6 O8'
_cell_volume   202.79513996
_cell_formula_units_Z   2
loop_
 _symmetry_equiv_pos_site_id
 _symmetry_equiv_pos_as_xyz
  1  'x, y, z'
loop_
 _atom_site_type_symbol
 _atom_site_label
 _atom_site_symmetry_multiplicity
 _atom_site_fract_x
 _atom_site_fract_y
 _atom_site_fract_z
 _atom_site_occupancy
  Ca  Ca0  1  0.00000000  0.00000000  0.00000000  1
  Ca  Ca1  1  0.50000000  0.50000000  0.50000000  1
  Pt  Pt0  1  0.00000000  0.50000000  0.25000000  1
  Pt  Pt1  1  0.00000000  0.50000000  0.75000000  1
  Pt  Pt2  1  0.25000000  0.00000000  0.50000000  1
  Pt  Pt3  1  0.50000000  0.25000000  0.00000000  1
  Pt  Pt4  1  0.50000000  0.75000000  0.00000000  1
  Pt  Pt5  1  0.75000000  0.00000000  0.50000000  1
  O  O0  1  0.25000000  0.25000000  0.25000000  1
  O  O1  1  0.25000000  0.75000000  0.25000000  1
  O  O2  1  0.25000000  0.25000000  0.75000000  1
  O  O3  1  0.25000000  0.75000000  0.75000000  1
  O  O4  1  0.75000000  0.25000000  0.25000000  1
  O  O5  1  0.75000000  0.25000000  0.75000000  1
  O  O6  1  0.75000000  0.75000000  0.25000000  1
  O  O7  1  0.75000000  0.75000000  0.75000000  1
loop_
_geom_bond_atom_site_label_1
_geom_bond_atom_site_label_2
_geom_bond_distance
_geom_bond_site_symmetry_2
Ca0 O0 2.544016 1_555
Ca0 O6 2.544016 1_445
Ca0 O4 2.544016 1_455
Ca0 O7 2.544016 1_444
Ca0 O3 2.544016 1_544
Ca0 O5 2.544016 1_454
Ca0 O2 2.544016 1_554
Ca0 O1 2.544016 1_545
Ca1 O0 2.544016 1_555
Ca1 O7 2.544016 1_555
Ca1 O4 2.544016 1_555
Ca1 O1 2.544016 1_555
Ca1 O2 2.544016 1_555
Ca1 O5 2.544016 1_555
Ca1 O3 2.544016 1_555
Ca1 O6 2.544016 1_555
O0 Pt3 2.077180 1_555
O0 Pt0 2.077180 1_555
O0 Pt2 2.077180 1_555
O1 Pt2 2.077180 1_565
O1 Pt0 2.077180 1_555
O1 Pt4 2.077180 1_555
O2 Pt3 2.077180 1_556
O2 Pt1 2.077180 1_555
O2 Pt2 2.077180 1_555
O3 Pt2 2.077180 1_565
O3 Pt4 2.077180 1_556
O3 Pt1 2.077180 1_555
O4 Pt5 2.077180 1_555
O4 Pt3 2.077180 1_555
O4 Pt0 2.077180 1_655
O5 Pt5 2.077180 1_555
O5 Pt3 2.077180 1_556
O5 Pt1 2.077180 1_655
O6 Pt5 2.077180 1_565
O6 Pt0 2.077180 1_655
O6 Pt4 2.077180 1_555
O7 Pt5 2.077180 1_565
O7 Pt4 2.077180 1_556
O7 Pt1 2.077180 1_655
