# generated using pymatgen
data_Cr4PN3O16
_symmetry_space_group_name_H-M   'P 1'
_cell_length_a   7.88305294
_cell_length_b   7.88305294
_cell_length_c   7.88305261
_cell_angle_alpha   102.21720949
_cell_angle_beta   102.21720949
_cell_angle_gamma   102.21720240
_symmetry_Int_Tables_number   1
_chemical_formula_structural   Cr4PN3O16
_chemical_formula_sum   'Cr4 P1 N3 O16'
_cell_volume   450.76270051
_cell_formula_units_Z   1
loop_
 _symmetry_equiv_pos_site_id
 _symmetry_equiv_pos_as_xyz
  1  'x, y, z'
loop_
 _atom_site_type_symbol
 _atom_site_label
 _atom_site_symmetry_multiplicity
 _atom_site_fract_x
 _atom_site_fract_y
 _atom_site_fract_z
 _atom_site_occupancy
  Cr  Cr0  1  0.37321900  0.75424700  0.37321900  1
  Cr  Cr1  1  0.37321900  0.37321900  0.75424700  1
  Cr  Cr2  1  0.75424700  0.37321900  0.37321900  1
  Cr  Cr3  1  0.99888300  0.99888300  0.99888300  1
  P  P0  1  0.32212900  0.32212900  0.32212900  1
  N  N0  1  0.95015900  0.49948100  0.95015900  1
  N  N1  1  0.95015900  0.95015900  0.49948100  1
  N  N2  1  0.49948100  0.95015900  0.95015900  1
  O  O0  1  0.30025000  0.50693500  0.30025000  1
  O  O1  1  0.30025000  0.30025000  0.50693500  1
  O  O2  1  0.50693500  0.30025000  0.30025000  1
  O  O3  1  0.57765400  0.83048900  0.36097100  1
  O  O4  1  0.36097100  0.57765400  0.83048900  1
  O  O5  1  0.83048900  0.36097100  0.57765400  1
  O  O6  1  0.36097100  0.83048900  0.57765400  1
  O  O7  1  0.57765400  0.36097100  0.83048900  1
  O  O8  1  0.83048900  0.57765400  0.36097100  1
  O  O9  1  0.24029500  0.83097000  0.24029500  1
  O  O10  1  0.24029500  0.24029500  0.83097000  1
  O  O11  1  0.83097000  0.24029500  0.24029500  1
  O  O12  1  0.17553800  0.17553800  0.17553800  1
  O  O13  1  0.87033400  0.08457400  0.87033400  1
  O  O14  1  0.87033400  0.87033400  0.08457400  1
  O  O15  1  0.08457400  0.87033400  0.87033400  1
loop_
_geom_bond_atom_site_label_1
_geom_bond_atom_site_label_2
_geom_bond_distance
_geom_bond_site_symmetry_2
Cr0 O9 1.622809 1_555
Cr0 O6 1.627325 1_555
Cr0 O3 1.627325 1_555
Cr0 O0 1.836652 1_555
Cr1 O10 1.622809 1_555
Cr1 O7 1.627325 1_555
Cr1 O4 1.627325 1_555
Cr1 O1 1.836652 1_555
Cr2 O11 1.622809 1_555
Cr2 O5 1.627325 1_555
Cr2 O8 1.627325 1_555
Cr2 O2 1.836652 1_555
Cr3 O15 1.629392 1_655
Cr3 O13 1.629392 1_565
Cr3 O14 1.629392 1_556
Cr3 O12 1.831807 1_666
O0 P0 1.543361 1_555
O1 P0 1.543361 1_555
O2 P0 1.543361 1_555
O12 P0 1.520062 1_555
