# generated using pymatgen
data_LiVFe(P2O7)2
_symmetry_space_group_name_H-M   'P 1'
_cell_length_a   8.09231500
_cell_length_b   9.76212500
_cell_length_c   13.32471495
_cell_angle_alpha   91.95390150
_cell_angle_beta   90.13985213
_cell_angle_gamma   90.00078647
_symmetry_Int_Tables_number   1
_chemical_formula_structural   LiVFe(P2O7)2
_chemical_formula_sum   'Li4 V4 Fe4 P16 O56'
_cell_volume   1052.01321594
_cell_formula_units_Z   4
loop_
 _symmetry_equiv_pos_site_id
 _symmetry_equiv_pos_as_xyz
  1  'x, y, z'
loop_
 _atom_site_type_symbol
 _atom_site_label
 _atom_site_symmetry_multiplicity
 _atom_site_fract_x
 _atom_site_fract_y
 _atom_site_fract_z
 _atom_site_occupancy
  Li  Li0  1  0.86435800  0.83198000  0.83613500  1
  Li  Li1  1  0.86425200  0.58177000  0.33656900  1
  Li  Li2  1  0.36076000  0.41906200  0.66499300  1
  Li  Li3  1  0.36132700  0.16915700  0.16464700  1
  V  V0  1  0.49461800  0.82640100  0.86078100  1
  V  V1  1  0.49594100  0.57783000  0.36139900  1
  V  V2  1  0.50785100  0.32368200  0.86395000  1
  V  V3  1  0.50613100  0.07223300  0.36316100  1
  Fe  Fe0  1  0.00942000  0.92744200  0.63290500  1
  Fe  Fe1  1  0.01052700  0.67593400  0.13239600  1
  Fe  Fe2  1  0.99431800  0.42190400  0.63751800  1
  Fe  Fe3  1  0.99353600  0.17350400  0.13797000  1
  P  P0  1  0.17757600  0.93033600  0.25984700  1
  P  P1  1  0.77905700  0.91213300  0.04375400  1
  P  P2  1  0.28361200  0.83900200  0.45686800  1
  P  P3  1  0.67857600  0.81692300  0.23977800  1
  P  P4  1  0.18042600  0.67846100  0.76156000  1
  P  P5  1  0.78068000  0.66414000  0.54386100  1
  P  P6  1  0.28549200  0.58561200  0.95671600  1
  P  P7  1  0.68171900  0.57063900  0.73849700  1
  P  P8  1  0.18052700  0.42884100  0.26205500  1
  P  P9  1  0.78172500  0.41442100  0.04315700  1
  P  P10  1  0.28577200  0.33556300  0.45570600  1
  P  P11  1  0.68162200  0.32104500  0.23882800  1
  P  P12  1  0.17766800  0.18088500  0.76028100  1
  P  P13  1  0.77964700  0.16228600  0.54285000  1
  P  P14  1  0.28356500  0.08887200  0.95595100  1
  P  P15  1  0.67844300  0.06722900  0.73996100  1
  O  O0  1  0.84750700  0.99935600  0.74825700  1
  O  O1  1  0.53792000  0.96927100  0.76561600  1
  O  O2  1  0.66616900  0.95257300  0.30308200  1
  O  O3  1  0.43686200  0.93249700  0.45479100  1
  O  O4  1  0.33165200  0.94044700  0.92537100  1
  O  O5  1  0.15125400  0.88815200  0.37567000  1
  O  O6  1  0.68469800  0.89830100  0.94304900  1
  O  O7  1  0.64771200  0.85750200  0.12534400  1
  O  O8  1  0.19094900  0.83930100  0.55476200  1
  O  O9  1  0.93191900  0.82035900  0.03971500  1
  O  O10  1  0.82310500  0.81139400  0.57292700  1
  O  O11  1  0.17923400  0.79923300  0.19600800  1
  O  O12  1  0.04071300  0.77881000  0.74232700  1
  O  O13  1  0.84748500  0.74920600  0.24707000  1
  O  O14  1  0.35161800  0.74799100  0.76016100  1
  O  O15  1  0.53747000  0.71947700  0.26487200  1
  O  O16  1  0.67364300  0.70469400  0.80355600  1
  O  O17  1  0.33617200  0.69056000  0.42651200  1
  O  O18  1  0.43574200  0.68279200  0.95173200  1
  O  O19  1  0.68742900  0.65142200  0.44246800  1
  O  O20  1  0.14959600  0.63458400  0.87609800  1
  O  O21  1  0.19432600  0.58809400  0.05481500  1
  O  O22  1  0.64461200  0.60961100  0.62379600  1
  O  O23  1  0.82602900  0.56166900  0.07152600  1
  O  O24  1  0.93031000  0.56820200  0.54099400  1
  O  O25  1  0.18357700  0.54913600  0.69426300  1
  O  O26  1  0.04084700  0.52862600  0.24258600  1
  O  O27  1  0.35130300  0.49861600  0.26162800  1
  O  O28  1  0.85181200  0.50772700  0.74413500  1
  O  O29  1  0.54021500  0.47035000  0.76050600  1
  O  O30  1  0.67271600  0.45515800  0.30434400  1
  O  O31  1  0.43684400  0.43230400  0.45314000  1
  O  O32  1  0.34052100  0.43929900  0.92435900  1
  O  O33  1  0.14831700  0.38524000  0.37732700  1
  O  O34  1  0.68106400  0.40578200  0.94506200  1
  O  O35  1  0.64553500  0.36103500  0.12490000  1
  O  O36  1  0.20299100  0.34364000  0.55785500  1
  O  O37  1  0.92974700  0.31792600  0.04379600  1
  O  O38  1  0.82041500  0.31148300  0.56884400  1
  O  O39  1  0.18448900  0.29922700  0.19514700  1
  O  O40  1  0.04019200  0.28027400  0.73744300  1
  O  O41  1  0.85167200  0.25796400  0.24577700  1
  O  O42  1  0.34784100  0.25561000  0.75960700  1
  O  O43  1  0.54007600  0.22056900  0.26086300  1
  O  O44  1  0.66522600  0.20244100  0.80396800  1
  O  O45  1  0.33719200  0.18909100  0.42351300  1
  O  O46  1  0.43808800  0.18212500  0.95593100  1
  O  O47  1  0.67791000  0.15333300  0.44568300  1
  O  O48  1  0.14995400  0.13959300  0.87690800  1
  O  O49  1  0.20014700  0.09562600  0.05791200  1
  O  O50  1  0.64834800  0.10883800  0.62642500  1
  O  O51  1  0.81762500  0.06137000  0.07007000  1
  O  O52  1  0.93095600  0.06975900  0.54240800  1
  O  O53  1  0.18004200  0.04913300  0.69699100  1
  O  O54  1  0.04051200  0.03065500  0.23734400  1
  O  O55  1  0.34819000  0.00515800  0.25850200  1
loop_
_geom_bond_atom_site_label_1
_geom_bond_atom_site_label_2
_geom_bond_distance
_geom_bond_site_symmetry_2
Li0 O12 1.957801 1_655
Li0 O16 2.018466 1_555
Li0 O0 2.046751 1_555
Li0 O6 2.123586 1_555
Li1 O26 1.960630 1_655
Li1 O30 2.018660 1_555
Li1 O13 2.060197 1_555
Li1 O19 2.108416 1_555
Li2 O25 1.946625 1_555
Li2 O29 1.981619 1_555
Li2 O36 2.032119 1_555
Li2 O42 2.069827 1_555
Li3 O39 1.947562 1_555
Li3 O43 1.983668 1_555
Li3 O49 2.039732 1_555
Li3 O55 2.067749 1_555
Fe0 O52 1.974326 1_465
Fe0 O8 1.982137 1_555
Fe0 O53 1.992957 1_565
Fe0 O10 2.031665 1_455
Fe0 O12 2.106586 1_555
Fe0 O0 2.123288 1_455
Fe1 O11 1.988927 1_555
Fe1 O21 1.990798 1_555
Fe1 O9 2.008101 1_455
Fe1 O23 2.015827 1_455
Fe1 O26 2.103841 1_555
Fe1 O13 2.126626 1_455
Fe2 O38 1.976396 1_555
Fe2 O40 1.986296 1_655
Fe2 O28 1.994215 1_555
Fe2 O24 2.020943 1_555
Fe2 O25 2.095300 1_655
Fe2 O36 2.124970 1_655
Fe3 O37 1.986532 1_555
Fe3 O54 1.991472 1_655
Fe3 O51 1.992342 1_555
Fe3 O41 1.997142 1_555
Fe3 O39 2.098811 1_655
Fe3 O49 2.113016 1_655
O0 P15 1.525539 1_565
O1 P15 1.532518 1_565
O1 V0 1.949030 1_555
O2 P3 1.549008 1_555
O2 V3 1.903670 1_565
O3 P2 1.540659 1_555
O3 V3 1.944899 1_565
O4 P14 1.541890 1_565
O4 V0 1.913012 1_555
O5 P2 1.605548 1_555
O5 P0 1.625330 1_555
O6 P1 1.544194 1_556
O6 V0 1.999900 1_555
O7 P3 1.607375 1_555
O7 P1 1.625188 1_555
O8 P2 1.506086 1_555
O9 P1 1.527352 1_555
O10 P5 1.515149 1_555
O11 P0 1.512475 1_555
O12 P4 1.522933 1_555
O13 P3 1.522669 1_555
O14 P4 1.543111 1_555
O14 V0 1.909191 1_555
O15 P3 1.531058 1_555
O15 V1 1.950047 1_555
O16 P7 1.546379 1_555
O16 V0 2.008859 1_555
O17 P2 1.550910 1_555
O17 V1 1.890983 1_555
O18 P6 1.545124 1_555
O18 V0 1.944158 1_555
O19 P5 1.547169 1_555
O19 V1 2.005761 1_555
O20 P6 1.618987 1_555
O20 P4 1.619071 1_555
O21 P6 1.502005 1_554
O22 P7 1.614993 1_555
O22 P5 1.635429 1_555
O23 P9 1.516566 1_555
O24 P5 1.530550 1_555
O25 P4 1.523658 1_555
O26 P8 1.519764 1_555
O27 P8 1.540820 1_555
O27 V1 1.912483 1_555
O28 P7 1.509999 1_555
O29 P7 1.541733 1_555
O29 V2 2.038339 1_555
O30 P11 1.550400 1_555
O30 V1 2.000432 1_555
O31 P10 1.545960 1_555
O31 V1 1.965326 1_555
O32 P6 1.543783 1_555
O32 V2 1.923219 1_555
O33 P10 1.609988 1_555
O33 P8 1.629366 1_555
O34 P9 1.538316 1_556
O34 V2 1.925804 1_555
O35 P11 1.606373 1_555
O35 P9 1.648372 1_555
O36 P10 1.518129 1_555
O37 P9 1.524067 1_555
O38 P13 1.521568 1_555
O39 P8 1.523179 1_555
O40 P12 1.513324 1_555
O41 P11 1.511531 1_555
O42 P12 1.558551 1_555
O42 V2 1.994861 1_555
O43 P11 1.543231 1_555
O43 V3 2.041277 1_555
O44 P15 1.550743 1_555
O44 V2 1.897895 1_555
O45 P10 1.536479 1_555
O45 V3 1.939050 1_555
O46 P14 1.546720 1_555
O46 V2 1.961975 1_555
O47 P13 1.532588 1_555
O47 V3 1.923896 1_555
O48 P14 1.597971 1_555
O48 P12 1.634681 1_555
O49 P14 1.517959 1_554
O50 P15 1.597836 1_555
O50 P13 1.639113 1_555
O51 P1 1.519031 1_545
O52 P13 1.521470 1_555
O53 P12 1.513913 1_555
O54 P0 1.515805 1_545
O55 P0 1.562386 1_545
O55 V3 1.983960 1_555
