# generated using pymatgen
data_Li3La5Ti6Nb2O26
_symmetry_space_group_name_H-M   'P 1'
_cell_length_a   5.54799700
_cell_length_b   11.08620600
_cell_length_c   17.16234702
_cell_angle_alpha   80.95824549
_cell_angle_beta   90.00000000
_cell_angle_gamma   90.00000000
_symmetry_Int_Tables_number   1
_chemical_formula_structural   Li3La5Ti6Nb2O26
_chemical_formula_sum   'Li6 La10 Ti12 Nb4 O52'
_cell_volume   1042.47469564
_cell_formula_units_Z   2
loop_
 _symmetry_equiv_pos_site_id
 _symmetry_equiv_pos_as_xyz
  1  'x, y, z'
loop_
 _atom_site_type_symbol
 _atom_site_label
 _atom_site_symmetry_multiplicity
 _atom_site_fract_x
 _atom_site_fract_y
 _atom_site_fract_z
 _atom_site_occupancy
  Li  Li0  1  0.24253200  0.00716800  0.50055400  1
  Li  Li1  1  0.75746800  0.99283200  0.49944600  1
  Li  Li2  1  0.24253200  0.49283200  0.49944600  1
  Li  Li3  1  0.77759200  0.25000000  0.50000000  1
  Li  Li4  1  0.75746800  0.50716800  0.50055400  1
  Li  Li5  1  0.22240800  0.75000000  0.50000000  1
  La  La0  1  0.50685800  0.05546500  0.76308800  1
  La  La1  1  0.50685800  0.44453500  0.23691200  1
  La  La2  1  0.99379700  0.18942700  0.23559500  1
  La  La3  1  0.98850300  0.25000000  0.00000000  1
  La  La4  1  0.49314200  0.55546500  0.76308800  1
  La  La5  1  0.99379700  0.31057300  0.76440500  1
  La  La6  1  0.49314200  0.94453500  0.23691200  1
  La  La7  1  0.01149700  0.75000000  0.00000000  1
  La  La8  1  0.00620300  0.68942700  0.23559500  1
  La  La9  1  0.00620300  0.81057300  0.76440500  1
  Ti  Ti0  1  0.49745000  0.22153500  0.11444400  1
  Ti  Ti1  1  0.49745000  0.27846500  0.88555600  1
  Ti  Ti2  1  0.00176500  0.02830400  0.88487200  1
  Ti  Ti3  1  0.00412000  0.08950300  0.63687700  1
  Ti  Ti4  1  0.00176500  0.47169600  0.11512800  1
  Ti  Ti5  1  0.50255000  0.72153500  0.11444400  1
  Ti  Ti6  1  0.00412000  0.41049700  0.36312300  1
  Ti  Ti7  1  0.50255000  0.77846500  0.88555600  1
  Ti  Ti8  1  0.99823500  0.52830400  0.88487200  1
  Ti  Ti9  1  0.99588000  0.58950300  0.63687700  1
  Ti  Ti10  1  0.99823500  0.97169600  0.11512800  1
  Ti  Ti11  1  0.99588000  0.91049700  0.36312300  1
  Nb  Nb0  1  0.49592000  0.16214500  0.36501200  1
  Nb  Nb1  1  0.49592000  0.33785500  0.63498800  1
  Nb  Nb2  1  0.50408000  0.66214500  0.36501200  1
  Nb  Nb3  1  0.50408000  0.83785500  0.63498800  1
  O  O0  1  0.23950200  0.10285400  0.11915900  1
  O  O1  1  0.24552000  0.04253600  0.34252600  1
  O  O2  1  0.25040200  0.29449800  0.33398700  1
  O  O3  1  0.24481600  0.34102400  0.12600800  1
  O  O4  1  0.24481600  0.15897600  0.87399200  1
  O  O5  1  0.51183000  0.18614000  0.23099800  1
  O  O6  1  0.25040200  0.20550200  0.66601300  1
  O  O7  1  0.51367800  0.12837300  0.47277700  1
  O  O8  1  0.76047600  0.09985800  0.12010200  1
  O  O9  1  0.50496300  0.25000000  0.00000000  1
  O  O10  1  0.00000000  0.00000000  0.00000000  1
  O  O11  1  0.74608100  0.03854300  0.34121100  1
  O  O12  1  0.76347600  0.33858900  0.12070800  1
  O  O13  1  0.24552000  0.45746400  0.65747400  1
  O  O14  1  0.25391900  0.53854300  0.34121100  1
  O  O15  1  0.23952400  0.59985800  0.12010200  1
  O  O16  1  0.51183000  0.31386000  0.76900200  1
  O  O17  1  0.23950200  0.39714600  0.88084100  1
  O  O18  1  0.76347600  0.16141100  0.87929200  1
  O  O19  1  0.51367800  0.37162700  0.52722300  1
  O  O20  1  0.75085600  0.20803800  0.65827600  1
  O  O21  1  0.75085600  0.29196200  0.34172400  1
  O  O22  1  0.98250900  0.05023900  0.76967400  1
  O  O23  1  0.99258300  0.11092000  0.53399600  1
  O  O24  1  0.48817000  0.68614000  0.23099800  1
  O  O25  1  0.98250900  0.44976100  0.23032600  1
  O  O26  1  0.23652400  0.66141100  0.87929200  1
  O  O27  1  0.48632200  0.62837300  0.47277700  1
  O  O28  1  0.75448000  0.54253600  0.34252600  1
  O  O29  1  0.99258300  0.38908000  0.46600400  1
  O  O30  1  0.76047600  0.40014200  0.87989800  1
  O  O31  1  0.24914400  0.70803800  0.65827600  1
  O  O32  1  0.24914400  0.79196200  0.34172400  1
  O  O33  1  0.23652400  0.83858900  0.12070800  1
  O  O34  1  0.00000000  0.50000000  0.00000000  1
  O  O35  1  0.76049800  0.60285400  0.11915900  1
  O  O36  1  0.74608100  0.46145700  0.65878900  1
  O  O37  1  0.49503700  0.75000000  0.00000000  1
  O  O38  1  0.75518400  0.84102400  0.12600800  1
  O  O39  1  0.23952400  0.90014200  0.87989800  1
  O  O40  1  0.25391900  0.96145700  0.65878900  1
  O  O41  1  0.48817000  0.81386000  0.76900200  1
  O  O42  1  0.01749100  0.55023900  0.76967400  1
  O  O43  1  0.48632200  0.87162700  0.52722300  1
  O  O44  1  0.00741700  0.61092000  0.53399600  1
  O  O45  1  0.75518400  0.65897600  0.87399200  1
  O  O46  1  0.74959800  0.70550200  0.66601300  1
  O  O47  1  0.74959800  0.79449800  0.33398700  1
  O  O48  1  0.76049800  0.89714600  0.88084100  1
  O  O49  1  0.00741700  0.88908000  0.46600400  1
  O  O50  1  0.01749100  0.94976100  0.23032600  1
  O  O51  1  0.75448000  0.95746400  0.65747400  1
loop_
_geom_bond_atom_site_label_1
_geom_bond_atom_site_label_2
_geom_bond_distance
_geom_bond_site_symmetry_2
Li0 O23 1.944964 1_455
Li0 O49 2.002739 1_545
Li0 O43 2.020054 1_545
Li0 O7 2.023471 1_555
Li1 O49 1.944964 1_655
Li1 O23 2.002739 1_565
Li1 O7 2.020054 1_565
Li1 O43 2.023471 1_555
Li2 O29 1.944964 1_455
Li2 O44 2.002739 1_555
Li2 O27 2.020054 1_555
Li2 O19 2.023471 1_555
Li3 O23 1.964108 1_555
Li3 O29 1.964108 1_555
Li3 O19 2.092437 1_555
Li3 O7 2.092437 1_555
Li4 O44 1.944964 1_655
Li4 O29 2.002739 1_555
Li4 O19 2.020054 1_555
Li4 O27 2.023471 1_555
Li5 O44 1.964108 1_555
Li5 O49 1.964108 1_555
Li5 O43 2.092437 1_555
Li5 O27 2.092437 1_555
La0 O6 2.587620 1_555
La0 O40 2.616475 1_545
La0 O51 2.640486 1_545
La0 O20 2.640636 1_555
La0 O22 2.641576 1_555
La0 O41 2.666435 1_545
La0 O4 2.782042 1_555
La0 O48 2.833729 1_545
La0 O39 2.845844 1_545
La0 O18 2.849582 1_555
La0 O16 2.882447 1_555
La0 O22 2.911505 1_455
La1 O2 2.587620 1_555
La1 O14 2.616475 1_555
La1 O28 2.640486 1_555
La1 O21 2.640636 1_555
La1 O25 2.641576 1_555
La1 O24 2.666435 1_555
La1 O3 2.782042 1_555
La1 O35 2.833729 1_555
La1 O15 2.845844 1_555
La1 O12 2.849582 1_555
La1 O5 2.882447 1_555
La1 O25 2.911505 1_455
La2 O2 2.617890 1_655
La2 O11 2.649415 1_555
La2 O1 2.651577 1_655
La2 O21 2.660291 1_555
La2 O5 2.675532 1_555
La2 O50 2.675921 1_645
La2 O8 2.684980 1_555
La2 O12 2.688914 1_555
La2 O3 2.703298 1_655
La2 O0 2.715781 1_655
La2 O25 2.873976 1_555
La2 O5 2.875516 1_655
La3 O9 2.682678 1_555
La3 O12 2.730261 1_555
La3 O18 2.730261 1_554
La3 O8 2.746151 1_555
La3 O30 2.746151 1_554
La3 O10 2.772285 1_655
La3 O34 2.772285 1_655
La3 O0 2.780998 1_655
La3 O17 2.780998 1_654
La3 O9 2.865319 1_655
La3 O3 2.898824 1_655
La3 O4 2.898824 1_654
La4 O46 2.587620 1_555
La4 O36 2.616475 1_555
La4 O13 2.640486 1_555
La4 O31 2.640636 1_555
La4 O42 2.641576 1_555
La4 O16 2.666435 1_555
La4 O45 2.782042 1_555
La4 O17 2.833729 1_555
La4 O30 2.845844 1_555
La4 O26 2.849582 1_555
La4 O41 2.882447 1_555
La4 O42 2.911505 1_655
La5 O6 2.617890 1_655
La5 O36 2.649415 1_555
La5 O13 2.651577 1_655
La5 O20 2.660291 1_555
La5 O16 2.675532 1_555
La5 O42 2.675921 1_655
La5 O30 2.684980 1_555
La5 O18 2.688914 1_555
La5 O4 2.703298 1_655
La5 O17 2.715781 1_655
La5 O22 2.873976 1_555
La5 O16 2.875516 1_655
La6 O47 2.587620 1_555
La6 O11 2.616475 1_565
La6 O1 2.640486 1_565
La6 O32 2.640636 1_555
La6 O50 2.641576 1_555
La6 O5 2.666435 1_565
La6 O38 2.782042 1_555
La6 O0 2.833729 1_565
La6 O8 2.845844 1_565
La6 O33 2.849582 1_555
La6 O24 2.882447 1_555
La6 O50 2.911505 1_655
La7 O37 2.682678 1_555
La7 O33 2.730261 1_555
La7 O26 2.730261 1_554
La7 O15 2.746151 1_555
La7 O39 2.746151 1_554
La7 O10 2.772285 1_565
La7 O34 2.772285 1_555
La7 O48 2.780998 1_454
La7 O35 2.780998 1_455
La7 O37 2.865319 1_455
La7 O38 2.898824 1_455
La7 O45 2.898824 1_454
La8 O47 2.617890 1_455
La8 O14 2.649415 1_555
La8 O28 2.651577 1_455
La8 O32 2.660291 1_555
La8 O24 2.675532 1_555
La8 O25 2.675921 1_455
La8 O15 2.684980 1_555
La8 O33 2.688914 1_555
La8 O38 2.703298 1_455
La8 O35 2.715781 1_455
La8 O50 2.873976 1_555
La8 O24 2.875516 1_455
La9 O46 2.617890 1_455
La9 O40 2.649415 1_555
La9 O51 2.651577 1_455
La9 O31 2.660291 1_555
La9 O41 2.675532 1_555
La9 O22 2.675921 1_465
La9 O39 2.684980 1_555
La9 O26 2.688914 1_555
La9 O45 2.703298 1_455
La9 O48 2.715781 1_455
La9 O42 2.873976 1_555
La9 O41 2.875516 1_455
Nb0 O7 1.831090 1_555
Nb0 O1 1.999499 1_555
Nb0 O2 2.011544 1_555
Nb0 O21 2.012626 1_555
Nb0 O11 2.036342 1_555
Nb0 O5 2.275132 1_555
Nb1 O19 1.831090 1_555
Nb1 O13 1.999499 1_555
Nb1 O6 2.011544 1_555
Nb1 O20 2.012626 1_555
Nb1 O36 2.036342 1_555
Nb1 O16 2.275132 1_555
Nb2 O27 1.831090 1_555
Nb2 O28 1.999499 1_555
Nb2 O47 2.011544 1_555
Nb2 O32 2.012626 1_555
Nb2 O14 2.036342 1_555
Nb2 O24 2.275132 1_555
Nb3 O43 1.831090 1_555
Nb3 O51 1.999499 1_555
Nb3 O46 2.011544 1_555
Nb3 O31 2.012626 1_555
Nb3 O40 2.036342 1_555
Nb3 O41 2.275132 1_555
O0 Ti0 1.937070 1_555
O0 Ti10 1.985538 1_445
O1 Ti11 2.005815 1_445
O2 Ti6 1.993213 1_555
O3 Ti0 1.959927 1_555
O3 Ti4 1.966408 1_555
O4 Ti1 1.959927 1_555
O4 Ti2 1.966408 1_555
O5 Ti0 1.978634 1_555
O6 Ti3 1.993213 1_555
O8 Ti10 1.950425 1_545
O8 Ti0 1.979229 1_555
O9 Ti0 1.940182 1_555
O9 Ti1 1.940182 1_554
O10 Ti10 1.951342 1_445
O10 Ti2 1.951342 1_554
O11 Ti11 1.977224 1_545
O12 Ti4 1.972323 1_655
O12 Ti0 1.979320 1_555
O13 Ti9 2.005815 1_455
O14 Ti6 1.977224 1_555
O15 Ti4 1.950425 1_555
O15 Ti5 1.979229 1_555
O16 Ti1 1.978634 1_555
O17 Ti1 1.937070 1_555
O17 Ti8 1.985538 1_455
O18 Ti2 1.972323 1_655
O18 Ti1 1.979320 1_555
O20 Ti3 1.996939 1_655
O21 Ti6 1.996939 1_655
O22 Ti2 1.956587 1_655
O22 Ti3 2.255298 1_655
O23 Ti3 1.745373 1_655
O24 Ti5 1.978634 1_555
O25 Ti4 1.956587 1_655
O25 Ti6 2.255298 1_655
O26 Ti8 1.972323 1_455
O26 Ti7 1.979320 1_555
O28 Ti6 2.005815 1_655
O29 Ti6 1.745373 1_655
O30 Ti8 1.950425 1_555
O30 Ti1 1.979229 1_555
O31 Ti9 1.996939 1_455
O32 Ti11 1.996939 1_455
O33 Ti10 1.972323 1_455
O33 Ti5 1.979320 1_555
O34 Ti4 1.951342 1_555
O34 Ti8 1.951342 1_454
O35 Ti5 1.937070 1_555
O35 Ti4 1.985538 1_655
O36 Ti9 1.977224 1_555
O37 Ti5 1.940182 1_555
O37 Ti7 1.940182 1_554
O38 Ti5 1.959927 1_555
O38 Ti10 1.966408 1_555
O39 Ti2 1.950425 1_565
O39 Ti7 1.979229 1_555
O40 Ti3 1.977224 1_565
O41 Ti7 1.978634 1_555
O42 Ti8 1.956587 1_455
O42 Ti9 2.255298 1_455
O44 Ti9 1.745373 1_455
O45 Ti7 1.959927 1_555
O45 Ti8 1.966408 1_555
O46 Ti9 1.993213 1_555
O47 Ti11 1.993213 1_555
O48 Ti7 1.937070 1_555
O48 Ti2 1.985538 1_665
O49 Ti11 1.745373 1_455
O50 Ti10 1.956587 1_455
O50 Ti11 2.255298 1_455
O51 Ti3 2.005815 1_665
