# generated using pymatgen
data_MgFe2O5
_symmetry_space_group_name_H-M   'P 1'
_cell_length_a   5.60351884
_cell_length_b   5.60351884
_cell_length_c   7.12748426
_cell_angle_alpha   72.35558189
_cell_angle_beta   72.35558189
_cell_angle_gamma   54.87106746
_symmetry_Int_Tables_number   1
_chemical_formula_structural   MgFe2O5
_chemical_formula_sum   'Mg2 Fe4 O10'
_cell_volume   172.03090064
_cell_formula_units_Z   2
loop_
 _symmetry_equiv_pos_site_id
 _symmetry_equiv_pos_as_xyz
  1  'x, y, z'
loop_
 _atom_site_type_symbol
 _atom_site_label
 _atom_site_symmetry_multiplicity
 _atom_site_fract_x
 _atom_site_fract_y
 _atom_site_fract_z
 _atom_site_occupancy
  Mg  Mg0  1  0.00000000  0.00000000  0.00000000  1
  Mg  Mg1  1  0.00000000  0.00000000  0.50000000  1
  Fe  Fe0  1  0.37356000  0.36854600  0.21658400  1
  Fe  Fe1  1  0.36854600  0.37356000  0.71658400  1
  Fe  Fe2  1  0.63145400  0.62644000  0.28341600  1
  Fe  Fe3  1  0.62644000  0.63145400  0.78341600  1
  O  O0  1  0.26271400  0.56455200  0.44452400  1
  O  O1  1  0.56455200  0.26271400  0.94452400  1
  O  O2  1  0.98206200  0.63050800  0.16442100  1
  O  O3  1  0.36949200  0.01793800  0.33557900  1
  O  O4  1  0.63050800  0.98206200  0.66442100  1
  O  O5  1  0.01793800  0.36949200  0.83557900  1
  O  O6  1  0.43544800  0.73728600  0.05547600  1
  O  O7  1  0.78221900  0.21778100  0.25000000  1
  O  O8  1  0.73728600  0.43544800  0.55547600  1
  O  O9  1  0.21778100  0.78221900  0.75000000  1
loop_
_geom_bond_atom_site_label_1
_geom_bond_atom_site_label_2
_geom_bond_distance
_geom_bond_site_symmetry_2
Mg0 O5 2.089841 1_554
Mg0 O2 2.089841 1_445
Mg0 O1 2.091758 1_454
Mg0 O6 2.091758 1_545
Mg0 O9 2.107051 1_544
Mg0 O7 2.107051 1_455
Mg1 O3 2.089841 1_555
Mg1 O4 2.089841 1_445
Mg1 O8 2.091758 1_455
Mg1 O0 2.091758 1_545
Mg1 O9 2.107051 1_545
Mg1 O7 2.107051 1_455
Fe0 O2 1.887648 1_455
Fe0 O3 1.899829 1_555
Fe0 O0 1.979002 1_555
Fe0 O1 1.991439 1_554
Fe0 O7 1.999123 1_555
Fe0 O6 2.202971 1_555
Fe1 O4 1.887648 1_545
Fe1 O5 1.899829 1_555
Fe1 O1 1.979002 1_555
Fe1 O0 1.991439 1_555
Fe1 O9 1.999123 1_555
Fe1 O8 2.202971 1_555
Fe2 O3 1.887648 1_565
Fe2 O2 1.899829 1_555
Fe2 O6 1.979002 1_555
Fe2 O8 1.991439 1_555
Fe2 O7 1.999123 1_555
Fe2 O0 2.202971 1_555
Fe3 O5 1.887648 1_655
Fe3 O4 1.899829 1_555
Fe3 O8 1.979002 1_555
Fe3 O6 1.991439 1_556
Fe3 O9 1.999123 1_555
Fe3 O1 2.202971 1_555
