# generated using pymatgen
data_Li3HfO3
_symmetry_space_group_name_H-M   'P 1'
_cell_length_a   9.59988500
_cell_length_b   9.59988500
_cell_length_c   3.45527600
_cell_angle_alpha   90.00000000
_cell_angle_beta   90.00000000
_cell_angle_gamma   90.00000000
_symmetry_Int_Tables_number   1
_chemical_formula_structural   Li3HfO3
_chemical_formula_sum   'Li12 Hf4 O12'
_cell_volume   318.43060696
_cell_formula_units_Z   4
loop_
 _symmetry_equiv_pos_site_id
 _symmetry_equiv_pos_as_xyz
  1  'x, y, z'
loop_
 _atom_site_type_symbol
 _atom_site_label
 _atom_site_symmetry_multiplicity
 _atom_site_fract_x
 _atom_site_fract_y
 _atom_site_fract_z
 _atom_site_occupancy
  Li  Li0  1  0.35649300  0.08636800  0.50000000  1
  Li  Li1  1  0.58636800  0.14350700  0.00000000  1
  Li  Li2  1  0.17358900  0.17358900  0.00000000  1
  Li  Li3  1  0.67358900  0.32641100  0.50000000  1
  Li  Li4  1  0.08636800  0.35649300  0.50000000  1
  Li  Li5  1  0.85649300  0.41363200  0.00000000  1
  Li  Li6  1  0.14350700  0.58636800  0.00000000  1
  Li  Li7  1  0.91363200  0.64350700  0.50000000  1
  Li  Li8  1  0.32641100  0.67358900  0.50000000  1
  Li  Li9  1  0.82641100  0.82641100  0.00000000  1
  Li  Li10  1  0.41363200  0.85649300  0.00000000  1
  Li  Li11  1  0.64350700  0.91363200  0.50000000  1
  Hf  Hf0  1  0.88069200  0.11930800  0.50000000  1
  Hf  Hf1  1  0.38069200  0.38069200  0.00000000  1
  Hf  Hf2  1  0.61930800  0.61930800  0.00000000  1
  Hf  Hf3  1  0.11930800  0.88069200  0.50000000  1
  O  O0  1  0.10247400  0.10247400  0.50000000  1
  O  O1  1  0.67282900  0.11471300  0.50000000  1
  O  O2  1  0.38528700  0.17282900  0.00000000  1
  O  O3  1  0.88528700  0.32717100  0.50000000  1
  O  O4  1  0.17282900  0.38528700  0.00000000  1
  O  O5  1  0.60247400  0.39752600  0.00000000  1
  O  O6  1  0.39752600  0.60247400  0.00000000  1
  O  O7  1  0.82717100  0.61471300  0.00000000  1
  O  O8  1  0.11471300  0.67282900  0.50000000  1
  O  O9  1  0.61471300  0.82717100  0.00000000  1
  O  O10  1  0.32717100  0.88528700  0.50000000  1
  O  O11  1  0.89752600  0.89752600  0.50000000  1
loop_
_geom_bond_atom_site_label_1
_geom_bond_atom_site_label_2
_geom_bond_distance
_geom_bond_site_symmetry_2
Li0 O2 1.936509 1_555
Li0 O2 1.936509 1_556
Li0 O10 1.950770 1_545
Li0 O0 2.443450 1_555
Li1 O1 1.936509 1_555
Li1 O1 1.936509 1_554
Li1 O2 1.950770 1_555
Li1 O5 2.443450 1_555
Li2 O0 1.979111 1_555
Li2 O0 1.979111 1_554
Li2 O4 2.032290 1_555
Li2 O2 2.032290 1_555
Li3 O5 1.979111 1_555
Li3 O5 1.979111 1_556
Li3 O1 2.032290 1_555
Li3 O3 2.032290 1_555
Li4 O4 1.936509 1_555
Li4 O4 1.936509 1_556
Li4 O3 1.950770 1_455
Li4 O0 2.443450 1_555
Li5 O3 1.936509 1_555
Li5 O3 1.936509 1_554
Li5 O7 1.950770 1_555
Li5 O5 2.443450 1_555
Li6 O8 1.936509 1_555
Li6 O8 1.936509 1_554
Li6 O4 1.950770 1_555
Li6 O6 2.443450 1_555
Li7 O7 1.936509 1_556
Li7 O7 1.936509 1_555
Li7 O8 1.950770 1_655
Li7 O11 2.443450 1_555
Li8 O6 1.979111 1_556
Li8 O6 1.979111 1_555
Li8 O8 2.032290 1_555
Li8 O10 2.032290 1_555
Li9 O11 1.979111 1_554
Li9 O11 1.979111 1_555
Li9 O7 2.032290 1_555
Li9 O9 2.032290 1_555
Li10 O10 1.936509 1_555
Li10 O10 1.936509 1_554
Li10 O9 1.950770 1_555
Li10 O6 2.443450 1_555
Li11 O9 1.936509 1_556
Li11 O9 1.936509 1_555
Li11 O1 1.950770 1_565
Li11 O11 2.443450 1_555
Hf0 O3 1.995948 1_555
Hf0 O1 1.995948 1_555
Hf0 O11 2.135206 1_545
Hf0 O0 2.135206 1_655
Hf1 O4 1.995948 1_555
Hf1 O2 1.995948 1_555
Hf1 O5 2.135206 1_555
Hf1 O6 2.135206 1_555
Hf2 O7 1.995948 1_555
Hf2 O9 1.995948 1_555
Hf2 O5 2.135206 1_555
Hf2 O6 2.135206 1_555
Hf3 O10 1.995948 1_555
Hf3 O8 1.995948 1_555
Hf3 O11 2.135206 1_455
Hf3 O0 2.135206 1_565
