# generated using pymatgen
data_Na5Ni2P2(CO7)2
_symmetry_space_group_name_H-M   'P 1'
_cell_length_a   8.38007700
_cell_length_b   8.39387995
_cell_length_c   8.95851589
_cell_angle_alpha   90.88371244
_cell_angle_beta   91.29530540
_cell_angle_gamma   103.00683639
_symmetry_Int_Tables_number   1
_chemical_formula_structural   Na5Ni2P2(CO7)2
_chemical_formula_sum   'Na10 Ni4 P4 C4 O28'
_cell_volume   613.69347858
_cell_formula_units_Z   2
loop_
 _symmetry_equiv_pos_site_id
 _symmetry_equiv_pos_as_xyz
  1  'x, y, z'
loop_
 _atom_site_type_symbol
 _atom_site_label
 _atom_site_symmetry_multiplicity
 _atom_site_fract_x
 _atom_site_fract_y
 _atom_site_fract_z
 _atom_site_occupancy
  Na  Na0  1  0.74303900  0.48168900  0.07646600  1
  Na  Na1  1  0.88634600  0.87620400  0.26498500  1
  Na  Na2  1  0.37430600  0.36012500  0.26812300  1
  Na  Na3  1  0.60700900  0.11966100  0.26906900  1
  Na  Na4  1  0.12795900  0.64098700  0.26421900  1
  Na  Na5  1  0.38103200  0.87604200  0.73722300  1
  Na  Na6  1  0.62206400  0.62605600  0.73064500  1
  Na  Na7  1  0.11248100  0.13747700  0.73069600  1
  Na  Na8  1  0.25027700  0.51303000  0.91548200  1
  Na  Na9  1  0.76727900  0.02721700  0.91596400  1
  Ni  Ni0  1  0.98546400  0.23789900  0.34996600  1
  Ni  Ni1  1  0.48855300  0.73451200  0.34418700  1
  Ni  Ni2  1  0.01178000  0.75893300  0.65494300  1
  Ni  Ni3  1  0.51880400  0.26477800  0.65483300  1
  P  P0  1  0.76811900  0.51514900  0.42272300  1
  P  P1  1  0.26601100  0.01742500  0.42345100  1
  P  P2  1  0.73019700  0.97958800  0.58135300  1
  P  P3  1  0.23363300  0.48372500  0.57730300  1
  C  C0  1  0.51942700  0.76826800  0.06349700  1
  C  C1  1  0.02153100  0.26730400  0.07154100  1
  C  C2  1  0.97930500  0.72941200  0.93142900  1
  C  C3  1  0.47984400  0.23478000  0.93266700  1
  O  O0  1  0.96845100  0.71898400  0.07376100  1
  O  O1  1  0.47655800  0.22727600  0.07503400  1
  O  O2  1  0.40648300  0.65472600  0.12164500  1
  O  O3  1  0.90631500  0.15909500  0.13532600  1
  O  O4  1  0.61850700  0.86739600  0.15630700  1
  O  O5  1  0.11895500  0.37224700  0.16062500  1
  O  O6  1  0.32534700  0.88840700  0.32661500  1
  O  O7  1  0.82905000  0.38944600  0.32110900  1
  O  O8  1  0.64395800  0.57564500  0.31675000  1
  O  O9  1  0.13696800  0.07802000  0.32551400  1
  O  O10  1  0.80112900  0.05455400  0.43420100  1
  O  O11  1  0.30791400  0.55424600  0.42951400  1
  O  O12  1  0.91505100  0.66409000  0.45928400  1
  O  O13  1  0.41474700  0.16491900  0.45833400  1
  O  O14  1  0.58736200  0.82779100  0.54386400  1
  O  O15  1  0.08987100  0.33507000  0.53977700  1
  O  O16  1  0.19261300  0.94604900  0.57125900  1
  O  O17  1  0.69103000  0.44254200  0.56612100  1
  O  O18  1  0.86206200  0.92449200  0.68175000  1
  O  O19  1  0.17800700  0.61484800  0.67559300  1
  O  O20  1  0.66270600  0.09934700  0.68259400  1
  O  O21  1  0.36068500  0.42585100  0.68093700  1
  O  O22  1  0.87751100  0.63205500  0.84150700  1
  O  O23  1  0.38074400  0.13607100  0.84155900  1
  O  O24  1  0.59091100  0.34755600  0.87038000  1
  O  O25  1  0.09361100  0.83647800  0.86804400  1
  O  O26  1  0.53471500  0.78007300  0.92125800  1
  O  O27  1  0.03232300  0.27035300  0.93024900  1
loop_
_geom_bond_atom_site_label_1
_geom_bond_atom_site_label_2
_geom_bond_distance
_geom_bond_site_symmetry_2
Na0 O24 2.341963 1_554
Na0 O0 2.417869 1_555
Na0 O7 2.480815 1_555
Na0 O8 2.503641 1_555
Na0 O22 2.615798 1_554
Na0 O1 2.720050 1_555
Na1 O10 2.347195 1_565
Na1 O0 2.354126 1_555
Na1 O4 2.411528 1_555
Na1 O9 2.427629 1_665
Na1 O12 2.554829 1_555
Na1 O3 2.632624 1_565
Na1 O8 2.911651 1_555
Na2 O1 2.325411 1_555
Na2 O11 2.329542 1_555
Na2 O5 2.350454 1_555
Na2 O13 2.452197 1_555
Na2 O8 2.580652 1_555
Na2 O2 2.779488 1_555
Na2 O9 2.791259 1_555
Na3 O1 2.332299 1_555
Na3 O10 2.334460 1_555
Na3 O4 2.354514 1_545
Na3 O13 2.448300 1_555
Na3 O7 2.615200 1_555
Na3 O3 2.758730 1_555
Na3 O6 2.761965 1_545
Na4 O11 2.328862 1_555
Na4 O0 2.334915 1_455
Na4 O6 2.395366 1_555
Na4 O5 2.410625 1_555
Na4 O12 2.561427 1_455
Na4 O2 2.666577 1_555
Na4 O7 2.949988 1_455
Na5 O16 2.321090 1_555
Na5 O26 2.331877 1_555
Na5 O23 2.361605 1_565
Na5 O19 2.499472 1_555
Na5 O14 2.565782 1_555
Na5 O25 2.657961 1_555
Na5 O20 2.722780 1_565
Na6 O17 2.290938 1_555
Na6 O22 2.329199 1_555
Na6 O26 2.353181 1_555
Na6 O14 2.457416 1_555
Na6 O21 2.469013 1_555
Na6 O24 2.632557 1_555
Na6 O18 2.884067 1_555
Na7 O27 2.284976 1_555
Na7 O16 2.351844 1_545
Na7 O15 2.434414 1_555
Na7 O23 2.439606 1_555
Na7 O18 2.457168 1_445
Na7 O25 2.801299 1_545
Na7 O21 2.862354 1_555
Na8 O2 2.379361 1_556
Na8 O27 2.418134 1_555
Na8 O19 2.438529 1_555
Na8 O21 2.480262 1_555
Na8 O5 2.652243 1_556
Na8 O26 2.880024 1_555
Na9 O3 2.386120 1_556
Na9 O20 2.387547 1_555
Na9 O18 2.470770 1_545
Na9 O26 2.508254 1_545
Na9 O27 2.655818 1_655
Na9 O4 2.729012 1_546
Ni0 O15 1.972551 1_655
Ni0 O7 2.036774 1_555
Ni0 O9 2.057023 1_655
Ni0 O3 2.068929 1_555
Ni0 O10 2.083875 1_555
Ni0 O5 2.230964 1_655
Ni1 O14 2.023985 1_555
Ni1 O11 2.054828 1_555
Ni1 O8 2.078641 1_555
Ni1 O6 2.087060 1_555
Ni1 O2 2.141411 1_555
Ni1 O4 2.203867 1_555
Ni2 O12 1.991342 1_455
Ni2 O19 2.047191 1_555
Ni2 O25 2.059134 1_555
Ni2 O16 2.083658 1_555
Ni2 O18 2.085953 1_455
Ni2 O22 2.189555 1_455
Ni3 O17 2.014973 1_555
Ni3 O13 2.029248 1_555
Ni3 O20 2.048209 1_555
Ni3 O24 2.072070 1_555
Ni3 O21 2.109288 1_555
Ni3 O23 2.210098 1_555
C0 O26 1.286665 1_554
C0 O2 1.306545 1_555
C0 O4 1.307475 1_555
C1 O27 1.271272 1_554
C1 O5 1.305575 1_555
C1 O3 1.315272 1_455
C2 O0 1.283306 1_556
C2 O22 1.295868 1_555
C2 O25 1.304027 1_655
C3 O1 1.278534 1_556
C3 O23 1.296575 1_555
C3 O24 1.310319 1_555
O6 P1 1.550980 1_565
O7 P0 1.560960 1_555
O8 P0 1.565177 1_555
O9 P1 1.554458 1_555
O10 P2 1.542646 1_545
O11 P3 1.544781 1_555
O12 P0 1.569260 1_555
O13 P1 1.568381 1_555
O14 P2 1.565609 1_555
O15 P3 1.553535 1_555
O16 P1 1.544679 1_565
O17 P0 1.524301 1_555
O18 P2 1.562645 1_555
O19 P3 1.556801 1_555
O20 P2 1.550476 1_545
O21 P3 1.559990 1_555
