# generated using pymatgen
data_LiNiPO4
_symmetry_space_group_name_H-M   'P 1'
_cell_length_a   4.88639400
_cell_length_b   9.02897700
_cell_length_c   6.30512000
_cell_angle_alpha   90.00033389
_cell_angle_beta   89.99927947
_cell_angle_gamma   89.99960933
_symmetry_Int_Tables_number   1
_chemical_formula_structural   LiNiPO4
_chemical_formula_sum   'Li4 Ni4 P4 O16'
_cell_volume   278.17646592
_cell_formula_units_Z   4
loop_
 _symmetry_equiv_pos_site_id
 _symmetry_equiv_pos_as_xyz
  1  'x, y, z'
loop_
 _atom_site_type_symbol
 _atom_site_label
 _atom_site_symmetry_multiplicity
 _atom_site_fract_x
 _atom_site_fract_y
 _atom_site_fract_z
 _atom_site_occupancy
  Li  Li0  1  0.47933700  0.16344100  0.74999300  1
  Li  Li1  1  0.97930600  0.33656600  0.25001900  1
  Li  Li2  1  0.02070400  0.66345100  0.75001400  1
  Li  Li3  1  0.52070000  0.83655000  0.25000600  1
  Ni  Ni0  1  0.99995400  0.99993600  0.49968800  1
  Ni  Ni1  1  0.49960200  0.49978400  0.50021900  1
  Ni  Ni2  1  0.00013000  0.00018000  0.99994400  1
  Ni  Ni3  1  0.49995300  0.50008400  0.00010100  1
  P  P0  1  0.47599900  0.17862300  0.25000200  1
  P  P1  1  0.97594800  0.32136200  0.75001400  1
  P  P2  1  0.02402300  0.67863000  0.25000700  1
  P  P3  1  0.52407100  0.82136100  0.75001300  1
  O  O0  1  0.78716000  0.13516900  0.25000000  1
  O  O1  1  0.28713500  0.36483300  0.74999700  1
  O  O2  1  0.71284700  0.63515800  0.25001400  1
  O  O3  1  0.21286100  0.86484800  0.74998900  1
  O  O4  1  0.92442600  0.14761000  0.74994800  1
  O  O5  1  0.42439600  0.35236700  0.25002900  1
  O  O6  1  0.57562600  0.64757800  0.75003500  1
  O  O7  1  0.07565800  0.85240200  0.24994500  1
  O  O8  1  0.34021100  0.11945900  0.04734800  1
  O  O9  1  0.34016200  0.11943100  0.45262500  1
  O  O10  1  0.84015000  0.38056200  0.95267600  1
  O  O11  1  0.84014500  0.38057400  0.54736400  1
  O  O12  1  0.15985200  0.61943000  0.04736100  1
  O  O13  1  0.15987400  0.61943700  0.45263900  1
  O  O14  1  0.65987600  0.88057700  0.54734500  1
  O  O15  1  0.65989500  0.88059700  0.95266700  1
loop_
_geom_bond_atom_site_label_1
_geom_bond_atom_site_label_2
_geom_bond_distance
_geom_bond_site_symmetry_2
Li0 O8 2.033454 1_556
Li0 O9 2.033671 1_555
Li0 O1 2.046576 1_555
Li0 O4 2.179571 1_555
Li1 O10 2.033472 1_554
Li1 O11 2.033493 1_555
Li1 O0 2.046502 1_555
Li1 O5 2.179560 1_655
Li2 O12 2.033526 1_556
Li2 O13 2.033693 1_555
Li2 O3 2.046526 1_555
Li2 O6 2.179544 1_455
Li3 O14 2.033534 1_555
Li3 O15 2.033589 1_554
Li3 O2 2.046452 1_555
Li3 O7 2.179355 1_555
Ni0 O14 2.003285 1_555
Ni0 O9 2.003915 1_665
Ni0 O7 2.095421 1_655
Ni0 O4 2.098523 1_565
Ni0 O0 2.247345 1_565
Ni0 O3 2.249600 1_655
Ni1 O13 2.003218 1_555
Ni1 O11 2.003960 1_555
Ni1 O5 2.096451 1_555
Ni1 O6 2.097546 1_555
Ni1 O1 2.245611 1_555
Ni1 O2 2.251330 1_555
Ni2 O8 2.002674 1_556
Ni2 O15 2.004657 1_445
Ni2 O4 2.096042 1_455
Ni2 O7 2.097911 1_546
Ni2 O0 2.248146 1_456
Ni2 O3 2.248840 1_545
Ni3 O12 2.002927 1_555
Ni3 O10 2.004326 1_554
Ni3 O6 2.096710 1_554
Ni3 O5 2.097236 1_555
Ni3 O2 2.247784 1_555
Ni3 O1 2.249324 1_554
O0 P0 1.570258 1_555
O1 P1 1.570425 1_455
O2 P2 1.570375 1_655
O3 P3 1.570564 1_555
O4 P1 1.588877 1_555
O5 P0 1.588865 1_555
O6 P3 1.589175 1_555
O7 P2 1.589143 1_555
O8 P0 1.535673 1_555
O9 P0 1.535694 1_555
O10 P1 1.535833 1_555
O11 P1 1.535837 1_555
O12 P2 1.535814 1_555
O13 P2 1.535784 1_555
O14 P3 1.535937 1_555
O15 P3 1.535976 1_555
