# generated using pymatgen
data_LiMn4(P2O7)3
_symmetry_space_group_name_H-M   'P 1'
_cell_length_a   7.66944350
_cell_length_b   9.61078627
_cell_length_c   22.18402912
_cell_angle_alpha   90.00000000
_cell_angle_beta   90.00000000
_cell_angle_gamma   89.59451846
_symmetry_Int_Tables_number   1
_chemical_formula_structural   LiMn4(P2O7)3
_chemical_formula_sum   'Li4 Mn16 P24 O84'
_cell_volume   1635.13013432
_cell_formula_units_Z   4
loop_
 _symmetry_equiv_pos_site_id
 _symmetry_equiv_pos_as_xyz
  1  'x, y, z'
loop_
 _atom_site_type_symbol
 _atom_site_label
 _atom_site_symmetry_multiplicity
 _atom_site_fract_x
 _atom_site_fract_y
 _atom_site_fract_z
 _atom_site_occupancy
  Li  Li0  1  0.97006218  0.77608369  0.61138863  1
  Li  Li1  1  0.52993582  0.72391431  0.11138763  1
  Li  Li2  1  0.47006218  0.27608369  0.88861137  1
  Li  Li3  1  0.02993582  0.22391431  0.38861237  1
  Mn  Mn0  1  0.94078574  0.77573089  0.25560175  1
  Mn  Mn1  1  0.55921426  0.72426911  0.75560175  1
  Mn  Mn2  1  0.44078574  0.27573089  0.24439825  1
  Mn  Mn3  1  0.05921426  0.22426911  0.74439825  1
  Mn  Mn4  1  0.96016214  0.70980100  0.76012206  1
  Mn  Mn5  1  0.96713609  0.26974846  0.51235589  1
  Mn  Mn6  1  0.53286391  0.23025154  0.01235589  1
  Mn  Mn7  1  0.53983786  0.79019900  0.26012206  1
  Mn  Mn8  1  0.46016214  0.20980100  0.73987794  1
  Mn  Mn9  1  0.46713609  0.76974846  0.98764411  1
  Mn  Mn10  1  0.03286391  0.73025154  0.48764411  1
  Mn  Mn11  1  0.03983786  0.29019900  0.23987794  1
  Mn  Mn12  1  0.94123836  0.24447710  0.99465214  1
  Mn  Mn13  1  0.55876164  0.25552290  0.49465214  1
  Mn  Mn14  1  0.44123836  0.74447710  0.50534786  1
  Mn  Mn15  1  0.05876164  0.75552290  0.00534786  1
  P  P0  1  0.76219348  0.99712679  0.68496115  1
  P  P1  1  0.77101247  0.83424732  0.88472860  1
  P  P2  1  0.75712027  0.15883151  0.85454190  1
  P  P3  1  0.75657231  0.44556028  0.69965431  1
  P  P4  1  0.73836609  0.96717210  0.54648803  1
  P  P5  1  0.73219871  0.53149656  0.56298658  1
  P  P6  1  0.76780129  0.96850344  0.06298658  1
  P  P7  1  0.76163391  0.53282790  0.04648803  1
  P  P8  1  0.74342769  0.05443972  0.19965431  1
  P  P9  1  0.74287973  0.34116849  0.35454190  1
  P  P10  1  0.72898753  0.66575268  0.38472860  1
  P  P11  1  0.73780652  0.50287321  0.18496115  1
  P  P12  1  0.26219348  0.49712679  0.81503885  1
  P  P13  1  0.27101247  0.33424732  0.61527140  1
  P  P14  1  0.25712027  0.65883151  0.64545810  1
  P  P15  1  0.25657231  0.94556028  0.80034569  1
  P  P16  1  0.23836609  0.46717210  0.95351197  1
  P  P17  1  0.23219871  0.03149656  0.93701342  1
  P  P18  1  0.26780129  0.46850344  0.43701342  1
  P  P19  1  0.26163391  0.03282790  0.45351197  1
  P  P20  1  0.24342769  0.55443972  0.30034569  1
  P  P21  1  0.24287973  0.84116849  0.14545810  1
  P  P22  1  0.22898753  0.16575268  0.11527140  1
  P  P23  1  0.23780652  0.00287321  0.31503885  1
  O  O0  1  0.94232624  0.59789982  0.04390238  1
  O  O1  1  0.93419731  0.37856491  0.70804374  1
  O  O2  1  0.92030214  0.79988601  0.92637035  1
  O  O3  1  0.89433426  0.61964218  0.55713300  1
  O  O4  1  0.91745514  0.20783085  0.82166380  1
  O  O5  1  0.92571237  0.07454210  0.70447807  1
  O  O6  1  0.93972026  0.89226279  0.05341099  1
  O  O7  1  0.91805345  0.32161842  0.31814523  1
  O  O8  1  0.91114188  0.68939647  0.40927419  1
  O  O9  1  0.90776134  0.42476062  0.18458327  1
  O  O10  1  0.90044118  0.13256457  0.22029837  1
  O  O11  1  0.88070199  0.89559092  0.51171585  1
  O  O12  1  0.81105851  0.95086275  0.61548989  1
  O  O13  1  0.78434160  0.99540949  0.86540007  1
  O  O14  1  0.78324521  0.75007078  0.82420157  1
  O  O15  1  0.77374901  0.02375655  0.13057833  1
  O  O16  1  0.77655727  0.26546435  0.41452891  1
  O  O17  1  0.75107901  0.85312856  0.71636478  1
  O  O18  1  0.75713362  0.58927464  0.73266833  1
  O  O19  1  0.76844169  0.37345672  0.03319476  1
  O  O20  1  0.75633152  0.10094532  0.02316286  1
  O  O21  1  0.74366848  0.39905468  0.52316286  1
  O  O22  1  0.73155831  0.12654328  0.53319476  1
  O  O23  1  0.74286638  0.91072536  0.23266833  1
  O  O24  1  0.74892099  0.64687144  0.21636478  1
  O  O25  1  0.72344273  0.23453565  0.91452891  1
  O  O26  1  0.72625099  0.47624345  0.63057833  1
  O  O27  1  0.71675479  0.74992922  0.32420157  1
  O  O28  1  0.71565840  0.50459051  0.36540007  1
  O  O29  1  0.68894149  0.54913725  0.11548989  1
  O  O30  1  0.61929801  0.60440908  0.01171585  1
  O  O31  1  0.59955882  0.36743543  0.72029837  1
  O  O32  1  0.59223866  0.07523938  0.68458327  1
  O  O33  1  0.58885812  0.81060353  0.90927419  1
  O  O34  1  0.58194655  0.17838158  0.81814523  1
  O  O35  1  0.56027974  0.60773721  0.55341099  1
  O  O36  1  0.57428763  0.42545790  0.20447807  1
  O  O37  1  0.58254486  0.29216915  0.32166380  1
  O  O38  1  0.60566574  0.88035782  0.05713300  1
  O  O39  1  0.57969786  0.70011399  0.42637035  1
  O  O40  1  0.56580269  0.12143509  0.20804374  1
  O  O41  1  0.55767376  0.90210018  0.54390238  1
  O  O42  1  0.44232624  0.09789982  0.45609762  1
  O  O43  1  0.43419731  0.87856491  0.79195626  1
  O  O44  1  0.42030214  0.29988601  0.57362965  1
  O  O45  1  0.39433426  0.11964218  0.94286700  1
  O  O46  1  0.41745514  0.70783085  0.67833620  1
  O  O47  1  0.42571237  0.57454210  0.79552193  1
  O  O48  1  0.43972026  0.39226279  0.44658901  1
  O  O49  1  0.41805345  0.82161842  0.18185477  1
  O  O50  1  0.41114188  0.18939647  0.09072581  1
  O  O51  1  0.40776134  0.92476062  0.31541673  1
  O  O52  1  0.40044118  0.63256457  0.27970163  1
  O  O53  1  0.38070199  0.39559092  0.98828415  1
  O  O54  1  0.31105851  0.45086275  0.88451011  1
  O  O55  1  0.28434160  0.49540949  0.63459993  1
  O  O56  1  0.28324521  0.25007078  0.67579843  1
  O  O57  1  0.27374901  0.52375655  0.36942167  1
  O  O58  1  0.27655727  0.76546435  0.08547109  1
  O  O59  1  0.25107901  0.35312856  0.78363522  1
  O  O60  1  0.25713362  0.08927464  0.76733167  1
  O  O61  1  0.26844169  0.87345672  0.46680524  1
  O  O62  1  0.25633152  0.60094532  0.47683714  1
  O  O63  1  0.24366848  0.89905468  0.97683714  1
  O  O64  1  0.23155831  0.62654328  0.96680524  1
  O  O65  1  0.24286638  0.41072536  0.26733167  1
  O  O66  1  0.24892099  0.14687144  0.28363522  1
  O  O67  1  0.22344273  0.73453565  0.58547109  1
  O  O68  1  0.22625099  0.97624345  0.86942167  1
  O  O69  1  0.21675479  0.24992922  0.17579843  1
  O  O70  1  0.21565840  0.00459051  0.13459993  1
  O  O71  1  0.18894149  0.04913725  0.38451011  1
  O  O72  1  0.11929801  0.10440908  0.48828415  1
  O  O73  1  0.09955882  0.86743543  0.77970163  1
  O  O74  1  0.09223866  0.57523938  0.81541673  1
  O  O75  1  0.08885812  0.31060353  0.59072581  1
  O  O76  1  0.08194655  0.67838158  0.68185477  1
  O  O77  1  0.06027974  0.10773721  0.94658901  1
  O  O78  1  0.07428763  0.92545790  0.29552193  1
  O  O79  1  0.08254486  0.79216915  0.17833620  1
  O  O80  1  0.10566574  0.38035782  0.44286700  1
  O  O81  1  0.07969786  0.20011399  0.07362965  1
  O  O82  1  0.06580269  0.62143509  0.29195626  1
  O  O83  1  0.05767376  0.40210018  0.95609762  1
loop_
_geom_bond_atom_site_label_1
_geom_bond_atom_site_label_2
_geom_bond_distance
_geom_bond_site_symmetry_2
Li0 O76 2.012534 1_655
Li0 O3 2.014681 1_555
Li0 O67 2.062864 1_655
Li0 O12 2.070748 1_555
Li1 O49 2.012553 1_555
Li1 O38 2.014687 1_555
Li1 O58 2.062847 1_555
Li1 O29 2.070743 1_555
Li2 O34 2.012534 1_555
Li2 O45 2.014681 1_555
Li2 O25 2.062864 1_555
Li2 O54 2.070748 1_555
Li3 O7 2.012553 1_455
Li3 O80 2.014687 1_555
Li3 O16 2.062847 1_455
Li3 O71 2.070743 1_555
Mn0 O82 1.936136 1_655
Mn0 O78 1.980952 1_655
Mn0 O79 2.036524 1_655
Mn0 O23 2.053857 1_555
Mn0 O24 2.117188 1_555
Mn0 O27 2.309902 1_555
Mn1 O43 1.936136 1_555
Mn1 O47 1.980952 1_555
Mn1 O46 2.036524 1_555
Mn1 O18 2.053857 1_555
Mn1 O17 2.117188 1_555
Mn1 O14 2.309902 1_555
Mn2 O40 1.936136 1_555
Mn2 O36 1.980952 1_555
Mn2 O37 2.036524 1_555
Mn2 O65 2.053857 1_555
Mn2 O66 2.117188 1_555
Mn2 O69 2.309902 1_555
Mn3 O1 1.936136 1_455
Mn3 O5 1.980952 1_455
Mn3 O4 2.036524 1_455
Mn3 O60 2.053857 1_555
Mn3 O59 2.117188 1_555
Mn3 O56 2.309902 1_555
Mn4 O73 1.910432 1_655
Mn4 O76 1.993555 1_655
Mn4 O14 2.001047 1_555
Mn4 O18 2.040305 1_555
Mn4 O74 2.045654 1_655
Mn4 O17 2.319456 1_555
Mn5 O75 2.013319 1_655
Mn5 O72 2.036137 1_655
Mn5 O21 2.123459 1_555
Mn5 O80 2.156662 1_655
Mn5 O22 2.325402 1_555
Mn5 O16 2.616997 1_555
Mn6 O50 2.013319 1_555
Mn6 O53 2.036137 1_554
Mn6 O20 2.123459 1_555
Mn6 O45 2.156662 1_554
Mn6 O19 2.325402 1_555
Mn6 O25 2.616997 1_554
Mn7 O52 1.910432 1_555
Mn7 O49 1.993555 1_555
Mn7 O27 2.001047 1_555
Mn7 O23 2.040305 1_555
Mn7 O51 2.045654 1_555
Mn7 O24 2.319456 1_555
Mn8 O31 1.910432 1_555
Mn8 O34 1.993555 1_555
Mn8 O56 2.001047 1_555
Mn8 O60 2.040305 1_555
Mn8 O32 2.045654 1_555
Mn8 O59 2.319456 1_555
Mn9 O33 2.013319 1_555
Mn9 O30 2.036137 1_556
Mn9 O63 2.123459 1_555
Mn9 O38 2.156662 1_556
Mn9 O64 2.325402 1_555
Mn9 O58 2.616997 1_556
Mn10 O8 2.013319 1_455
Mn10 O11 2.036137 1_455
Mn10 O62 2.123459 1_555
Mn10 O3 2.156662 1_455
Mn10 O61 2.325402 1_555
Mn10 O67 2.616997 1_555
Mn11 O10 1.910432 1_455
Mn11 O7 1.993555 1_455
Mn11 O69 2.001047 1_555
Mn11 O65 2.040305 1_555
Mn11 O9 2.045654 1_455
Mn11 O66 2.319456 1_555
Mn12 O77 1.918455 1_655
Mn12 O83 1.960353 1_655
Mn12 O19 2.000180 1_556
Mn12 O20 2.083678 1_556
Mn12 O81 2.091092 1_656
Mn12 O25 2.441491 1_555
Mn13 O48 1.918455 1_555
Mn13 O42 1.960353 1_555
Mn13 O22 2.000180 1_555
Mn13 O21 2.083678 1_555
Mn13 O44 2.091092 1_555
Mn13 O16 2.441491 1_555
Mn14 O35 1.918455 1_555
Mn14 O41 1.960353 1_555
Mn14 O61 2.000180 1_555
Mn14 O62 2.083678 1_555
Mn14 O39 2.091092 1_555
Mn14 O67 2.441491 1_555
Mn15 O6 1.918455 1_455
Mn15 O0 1.960353 1_455
Mn15 O64 2.000180 1_554
Mn15 O63 2.083678 1_554
Mn15 O2 2.091092 1_454
Mn15 O58 2.441491 1_555
O0 P7 1.525497 1_555
O1 P3 1.514141 1_555
O2 P1 1.505999 1_555
O3 P5 1.515157 1_555
O4 P2 1.507997 1_555
O5 P0 1.525450 1_545
O6 P6 1.518832 1_555
O7 P9 1.577535 1_555
O8 P10 1.517993 1_555
O9 P11 1.499604 1_555
O10 P8 1.495462 1_555
O11 P4 1.499786 1_555
O12 P4 1.636250 1_555
O12 P0 1.646494 1_555
O13 P2 1.601186 1_565
O13 P1 1.611094 1_555
O14 P1 1.570078 1_555
O15 P8 1.577424 1_555
O15 P6 1.591472 1_545
O16 P9 1.537636 1_555
O17 P0 1.552272 1_555
O18 P3 1.563402 1_555
O19 P7 1.560324 1_555
O20 P6 1.551399 1_545
O21 P5 1.551399 1_555
O22 P4 1.560324 1_545
O23 P8 1.563402 1_565
O24 P11 1.552272 1_555
O25 P2 1.537636 1_555
O26 P3 1.577424 1_555
O26 P5 1.591472 1_555
O27 P10 1.570078 1_555
O28 P9 1.601186 1_555
O28 P10 1.611094 1_555
O29 P7 1.636250 1_555
O29 P11 1.646494 1_555
O30 P7 1.499786 1_555
O31 P3 1.495462 1_555
O32 P0 1.499604 1_545
O33 P1 1.517993 1_555
O34 P2 1.577535 1_555
O35 P5 1.518832 1_555
O36 P11 1.525450 1_555
O37 P9 1.507997 1_555
O38 P6 1.515157 1_555
O39 P10 1.505999 1_555
O40 P8 1.514141 1_555
O41 P4 1.525497 1_555
O42 P19 1.525497 1_555
O43 P15 1.514141 1_555
O44 P13 1.505999 1_555
O45 P17 1.515157 1_555
O46 P14 1.507997 1_555
O47 P12 1.525450 1_555
O48 P18 1.518832 1_555
O49 P21 1.577535 1_555
O50 P22 1.517993 1_555
O51 P23 1.499604 1_565
O52 P20 1.495462 1_555
O53 P16 1.499786 1_555
O54 P16 1.636250 1_555
O54 P12 1.646494 1_555
O55 P14 1.601186 1_555
O55 P13 1.611094 1_555
O56 P13 1.570078 1_555
O57 P20 1.577424 1_555
O57 P18 1.591472 1_555
O58 P21 1.537636 1_555
O59 P12 1.552272 1_555
O60 P15 1.563402 1_545
O61 P19 1.560324 1_565
O62 P18 1.551399 1_555
O63 P17 1.551399 1_565
O64 P16 1.560324 1_555
O65 P20 1.563402 1_555
O66 P23 1.552272 1_555
O67 P14 1.537636 1_555
O68 P15 1.577424 1_555
O68 P17 1.591472 1_565
O69 P22 1.570078 1_555
O70 P21 1.601186 1_545
O70 P22 1.611094 1_555
O71 P19 1.636250 1_555
O71 P23 1.646494 1_555
O72 P19 1.499786 1_555
O73 P15 1.495462 1_555
O74 P12 1.499604 1_555
O75 P13 1.517993 1_555
O76 P14 1.577535 1_555
O77 P17 1.518832 1_555
O78 P23 1.525450 1_565
O79 P21 1.507997 1_555
O80 P18 1.515157 1_555
O81 P22 1.505999 1_555
O82 P20 1.514141 1_555
O83 P16 1.525497 1_555
