# generated using pymatgen
data_Al2H12(SeO5)3
_symmetry_space_group_name_H-M   'P 1'
_cell_length_a   8.71890682
_cell_length_b   8.71890682
_cell_length_c   10.73997703
_cell_angle_alpha   90.00000000
_cell_angle_beta   90.00000000
_cell_angle_gamma   119.99999347
_symmetry_Int_Tables_number   1
_chemical_formula_structural   Al2H12(SeO5)3
_chemical_formula_sum   'Al4 H24 Se6 O30'
_cell_volume   707.06295734
_cell_formula_units_Z   2
loop_
 _symmetry_equiv_pos_site_id
 _symmetry_equiv_pos_as_xyz
  1  'x, y, z'
loop_
 _atom_site_type_symbol
 _atom_site_label
 _atom_site_symmetry_multiplicity
 _atom_site_fract_x
 _atom_site_fract_y
 _atom_site_fract_z
 _atom_site_occupancy
  Al  Al0  1  0.33333300  0.66666700  0.96892541  1
  Al  Al1  1  0.33333300  0.66666700  0.53107459  1
  Al  Al2  1  0.66666700  0.33333300  0.46892541  1
  Al  Al3  1  0.66666700  0.33333300  0.03107459  1
  H  H0  1  0.80153383  0.22383388  0.63735832  1
  H  H1  1  0.77616612  0.57770094  0.63735832  1
  H  H2  1  0.42229906  0.19846617  0.63735832  1
  H  H3  1  0.80153383  0.22383388  0.86264168  1
  H  H4  1  0.77616612  0.57770094  0.86264168  1
  H  H5  1  0.42229906  0.19846617  0.86264168  1
  H  H6  1  0.22383388  0.80153383  0.13735832  1
  H  H7  1  0.57770094  0.77616612  0.13735832  1
  H  H8  1  0.19846617  0.42229906  0.13735832  1
  H  H9  1  0.22383388  0.80153383  0.36264168  1
  H  H10  1  0.57770094  0.77616612  0.36264168  1
  H  H11  1  0.19846617  0.42229906  0.36264168  1
  H  H12  1  0.94493399  0.42543702  0.59610953  1
  H  H13  1  0.57456298  0.51949697  0.59610953  1
  H  H14  1  0.48050303  0.05506601  0.59610953  1
  H  H15  1  0.94493399  0.42543702  0.90389047  1
  H  H16  1  0.57456298  0.51949697  0.90389047  1
  H  H17  1  0.48050303  0.05506601  0.90389047  1
  H  H18  1  0.42543702  0.94493399  0.09610953  1
  H  H19  1  0.51949697  0.57456298  0.09610953  1
  H  H20  1  0.05506601  0.48050303  0.09610953  1
  H  H21  1  0.42543702  0.94493399  0.40389047  1
  H  H22  1  0.51949697  0.57456298  0.40389047  1
  H  H23  1  0.05506601  0.48050303  0.40389047  1
  Se  Se0  1  0.61964058  0.87661960  0.75000000  1
  Se  Se1  1  0.12338040  0.74301998  0.75000000  1
  Se  Se2  1  0.25698002  0.38035942  0.75000000  1
  Se  Se3  1  0.87661960  0.61964058  0.25000000  1
  Se  Se4  1  0.74301998  0.12338040  0.25000000  1
  Se  Se5  1  0.38035942  0.25698002  0.25000000  1
  O  O0  1  0.48183984  0.16524740  0.57163727  1
  O  O1  1  0.83475260  0.31659343  0.57163727  1
  O  O2  1  0.68340657  0.51816016  0.57163727  1
  O  O3  1  0.48183984  0.16524740  0.92836273  1
  O  O4  1  0.83475260  0.31659343  0.92836273  1
  O  O5  1  0.68340657  0.51816016  0.92836273  1
  O  O6  1  0.16524740  0.48183984  0.07163727  1
  O  O7  1  0.31659343  0.83475260  0.07163727  1
  O  O8  1  0.51816016  0.68340657  0.07163727  1
  O  O9  1  0.16524740  0.48183984  0.42836273  1
  O  O10  1  0.31659343  0.83475260  0.42836273  1
  O  O11  1  0.51816016  0.68340657  0.42836273  1
  O  O12  1  0.38083286  0.51342073  0.87262231  1
  O  O13  1  0.48657927  0.86741214  0.87262231  1
  O  O14  1  0.13258786  0.61916714  0.87262231  1
  O  O15  1  0.38083286  0.51342073  0.62737769  1
  O  O16  1  0.48657927  0.86741214  0.62737769  1
  O  O17  1  0.13258786  0.61916714  0.62737769  1
  O  O18  1  0.51342073  0.38083286  0.37262231  1
  O  O19  1  0.86741214  0.48657927  0.37262231  1
  O  O20  1  0.61916714  0.13258786  0.37262231  1
  O  O21  1  0.51342073  0.38083286  0.12737769  1
  O  O22  1  0.86741214  0.48657927  0.12737769  1
  O  O23  1  0.61916714  0.13258786  0.12737769  1
  O  O24  1  0.76733881  0.09363495  0.75000000  1
  O  O25  1  0.90636505  0.67370386  0.75000000  1
  O  O26  1  0.32629614  0.23266119  0.75000000  1
  O  O27  1  0.09363495  0.76733881  0.25000000  1
  O  O28  1  0.67370386  0.90636505  0.25000000  1
  O  O29  1  0.23266119  0.32629614  0.25000000  1
loop_
_geom_bond_atom_site_label_1
_geom_bond_atom_site_label_2
_geom_bond_distance
_geom_bond_site_symmetry_2
Al0 O14 1.892057 1_555
Al0 O13 1.892060 1_555
Al0 O12 1.892064 1_555
Al0 O7 1.897323 1_556
Al0 O6 1.897331 1_556
Al0 O8 1.897337 1_556
Al1 O17 1.892057 1_555
Al1 O16 1.892060 1_555
Al1 O15 1.892064 1_555
Al1 O10 1.897323 1_555
Al1 O9 1.897331 1_555
Al1 O11 1.897337 1_555
Al2 O20 1.892057 1_555
Al2 O19 1.892060 1_555
Al2 O18 1.892064 1_555
Al2 O1 1.897323 1_555
Al2 O0 1.897331 1_555
Al2 O2 1.897337 1_555
Al3 O23 1.892057 1_555
Al3 O22 1.892060 1_555
Al3 O21 1.892064 1_555
Al3 O4 1.897323 1_554
Al3 O3 1.897331 1_554
Al3 O5 1.897337 1_554
H0 O1 1.000976 1_555
H0 O24 1.581974 1_555
H1 O2 1.000976 1_555
H1 O25 1.581973 1_555
H2 O0 1.000976 1_555
H2 O26 1.581969 1_555
H3 O4 1.000976 1_555
H3 O24 1.581974 1_555
H4 O5 1.000976 1_555
H4 O25 1.581973 1_555
H5 O3 1.000976 1_555
H5 O26 1.581969 1_555
H6 O7 1.000976 1_555
H6 O27 1.581974 1_555
H7 O8 1.000976 1_555
H7 O28 1.581973 1_555
H8 O6 1.000976 1_555
H8 O29 1.581969 1_555
H9 O10 1.000976 1_555
H9 O27 1.581974 1_555
H10 O11 1.000976 1_555
H10 O28 1.581973 1_555
H11 O9 1.000976 1_555
H11 O29 1.581969 1_555
H12 O1 0.990395 1_555
H12 O17 1.696822 1_655
H13 O2 0.990390 1_555
H13 O15 1.696822 1_555
H14 O0 0.990399 1_555
H14 O16 1.696822 1_545
H15 O4 0.990395 1_555
H15 O14 1.696822 1_655
H16 O5 0.990390 1_555
H16 O12 1.696822 1_555
H17 O3 0.990399 1_555
H17 O13 1.696822 1_545
H18 O7 0.990395 1_555
H18 O23 1.696822 1_565
H19 O8 0.990390 1_555
H19 O21 1.696822 1_555
H20 O6 0.990399 1_555
H20 O22 1.696822 1_455
H21 O10 0.990395 1_555
H21 O20 1.696822 1_565
H22 O11 0.990390 1_555
H22 O18 1.696822 1_555
H23 O9 0.990399 1_555
H23 O19 1.696822 1_455
O12 Se2 1.730212 1_555
O13 Se0 1.730214 1_555
O14 Se1 1.730208 1_555
O15 Se2 1.730212 1_555
O16 Se0 1.730214 1_555
O17 Se1 1.730208 1_555
O18 Se5 1.730212 1_555
O19 Se3 1.730214 1_555
O20 Se4 1.730208 1_555
O21 Se5 1.730212 1_555
O22 Se3 1.730214 1_555
O23 Se4 1.730208 1_555
O24 Se0 1.673886 1_545
O25 Se1 1.673888 1_655
O26 Se2 1.673879 1_555
O27 Se3 1.673886 1_455
O28 Se4 1.673888 1_565
O29 Se5 1.673879 1_555
