# generated using pymatgen
data_Li4VCr3O8
_symmetry_space_group_name_H-M   'P 1'
_cell_length_a   5.16194107
_cell_length_b   5.93028361
_cell_length_c   5.14133667
_cell_angle_alpha   89.99107190
_cell_angle_beta   70.48545202
_cell_angle_gamma   90.00198093
_symmetry_Int_Tables_number   1
_chemical_formula_structural   Li4VCr3O8
_chemical_formula_sum   'Li4 V1 Cr3 O8'
_cell_volume   148.34469808
_cell_formula_units_Z   1
loop_
 _symmetry_equiv_pos_site_id
 _symmetry_equiv_pos_as_xyz
  1  'x, y, z'
loop_
 _atom_site_type_symbol
 _atom_site_label
 _atom_site_symmetry_multiplicity
 _atom_site_fract_x
 _atom_site_fract_y
 _atom_site_fract_z
 _atom_site_occupancy
  Li  Li0  1  0.00000000  0.00000000  0.00000000  1
  Li  Li1  1  0.00000000  0.50000000  0.00000000  1
  Li  Li2  1  0.00014400  0.25232000  0.50023600  1
  Li  Li3  1  0.99985500  0.74768000  0.49976400  1
  V  V0  1  0.50000000  0.00000000  0.50000000  1
  Cr  Cr0  1  0.49996400  0.24904200  0.99988700  1
  Cr  Cr1  1  0.50003600  0.75095800  0.00011300  1
  Cr  Cr2  1  0.50000100  0.50000000  0.49999900  1
  O  O0  1  0.26939100  0.99998000  0.23850000  1
  O  O1  1  0.27693800  0.49996300  0.24235100  1
  O  O2  1  0.72764700  0.25176800  0.25648900  1
  O  O3  1  0.27193100  0.25213300  0.74399800  1
  O  O4  1  0.72806900  0.74786700  0.25600200  1
  O  O5  1  0.73060800  0.00002100  0.76150000  1
  O  O6  1  0.27235300  0.74823200  0.74351200  1
  O  O7  1  0.72306200  0.50003600  0.75764900  1
loop_
_geom_bond_atom_site_label_1
_geom_bond_atom_site_label_2
_geom_bond_distance
_geom_bond_site_symmetry_2
Li0 O0 2.139274 1_545
Li0 O5 2.139279 1_454
Li0 O3 2.168714 1_554
Li0 O4 2.168714 1_445
Li0 O6 2.169518 1_544
Li0 O2 2.169520 1_455
Li1 O3 2.151699 1_554
Li1 O4 2.151699 1_455
Li1 O6 2.154791 1_554
Li1 O2 2.154793 1_455
Li1 O7 2.187723 1_454
Li1 O1 2.187723 1_555
Li2 O1 2.165588 1_555
Li2 O7 2.165957 1_455
Li2 O3 2.171086 1_555
Li2 O2 2.174103 1_455
Li2 O5 2.174711 1_455
Li2 O0 2.175569 1_545
Li3 O7 2.165590 1_555
Li3 O1 2.165964 1_655
Li3 O4 2.171082 1_555
Li3 O6 2.174112 1_655
Li3 O0 2.174715 1_655
Li3 O5 2.175573 1_565
Cr0 O5 2.031321 1_555
Cr0 O0 2.031493 1_546
Cr0 O7 2.033207 1_555
Cr0 O1 2.033591 1_556
Cr0 O3 2.037478 1_555
Cr0 O2 2.039106 1_556
Cr1 O0 2.031327 1_555
Cr1 O5 2.031496 1_564
Cr1 O1 2.033212 1_555
Cr1 O7 2.033595 1_554
Cr1 O4 2.037478 1_555
Cr1 O6 2.039102 1_554
Cr2 O1 2.024731 1_555
Cr2 O7 2.024731 1_555
Cr2 O4 2.032971 1_555
Cr2 O3 2.032979 1_555
Cr2 O2 2.033007 1_555
Cr2 O6 2.033017 1_555
O0 V0 2.072157 1_565
O2 V0 2.047905 1_555
O3 V0 2.051682 1_555
O4 V0 2.051682 1_565
O5 V0 2.072153 1_555
O6 V0 2.047907 1_565
