# generated using pymatgen
data_Li3MnFe2(BO3)3
_symmetry_space_group_name_H-M   'P 1'
_cell_length_a   3.15151300
_cell_length_b   8.25501900
_cell_length_c   14.31610330
_cell_angle_alpha   89.91092320
_cell_angle_beta   90.00000000
_cell_angle_gamma   90.00000000
_symmetry_Int_Tables_number   1
_chemical_formula_structural   Li3MnFe2(BO3)3
_chemical_formula_sum   'Li6 Mn2 Fe4 B6 O18'
_cell_volume   372.44442577
_cell_formula_units_Z   2
loop_
 _symmetry_equiv_pos_site_id
 _symmetry_equiv_pos_as_xyz
  1  'x, y, z'
loop_
 _atom_site_type_symbol
 _atom_site_label
 _atom_site_symmetry_multiplicity
 _atom_site_fract_x
 _atom_site_fract_y
 _atom_site_fract_z
 _atom_site_occupancy
  Li  Li0  1  0.50000000  0.70640400  0.99055500  1
  Li  Li1  1  0.50000000  0.65971500  0.35837200  1
  Li  Li2  1  0.50000000  0.63409500  0.65053800  1
  Li  Li3  1  0.50000000  0.20702200  0.49205800  1
  Li  Li4  1  0.50000000  0.15813500  0.85640600  1
  Li  Li5  1  0.50000000  0.13319300  0.15123000  1
  Mn  Mn0  1  0.00000000  0.80842500  0.18000900  1
  Mn  Mn1  1  0.00000000  0.36536000  0.00539100  1
  Fe  Fe0  1  0.00000000  0.86430700  0.50453900  1
  Fe  Fe1  1  0.00000000  0.82496700  0.81671700  1
  Fe  Fe2  1  0.00000000  0.32443600  0.31704200  1
  Fe  Fe3  1  0.00000000  0.31139900  0.67984400  1
  B  B0  1  0.50000000  0.99986900  0.66630800  1
  B  B1  1  0.00000000  0.00019500  0.99890800  1
  B  B2  1  0.50000000  0.00111900  0.33451200  1
  B  B3  1  0.50000000  0.49811300  0.16772900  1
  B  B4  1  0.00000000  0.50022900  0.50025900  1
  B  B5  1  0.50000000  0.50099200  0.83197000  1
  O  O0  1  0.50000000  0.98919500  0.43138100  1
  O  O1  1  0.50000000  0.98136800  0.76325100  1
  O  O2  1  0.50000000  0.86367000  0.60869100  1
  O  O3  1  0.50000000  0.86148900  0.28040400  1
  O  O4  1  0.00000000  0.84646300  0.95864200  1
  O  O5  1  0.50000000  0.65112400  0.12587600  1
  O  O6  1  0.50000000  0.65277400  0.78946100  1
  O  O7  1  0.00000000  0.64002900  0.44561000  1
  O  O8  1  0.00000000  0.51206700  0.59722500  1
  O  O9  1  0.50000000  0.48956100  0.92882800  1
  O  O10  1  0.50000000  0.48299100  0.26456800  1
  O  O11  1  0.50000000  0.36075600  0.11158200  1
  O  O12  1  0.50000000  0.36090200  0.77792200  1
  O  O13  1  0.00000000  0.34851000  0.45787300  1
  O  O14  1  0.50000000  0.15479500  0.62709700  1
  O  O15  1  0.50000000  0.15275100  0.29148300  1
  O  O16  1  0.00000000  0.13674500  0.94185500  1
  O  O17  1  0.00000000  0.01683200  0.09586300  1
loop_
_geom_bond_atom_site_label_1
_geom_bond_atom_site_label_2
_geom_bond_distance
_geom_bond_site_symmetry_2
Li0 O5 1.989600 1_556
Li0 O9 1.997519 1_555
Li0 O4 2.006706 1_555
Li0 O4 2.006706 1_655
Li1 O10 1.984380 1_555
Li1 O3 2.003622 1_555
Li1 O7 2.017067 1_555
Li1 O7 2.017067 1_655
Li2 O2 1.986694 1_555
Li2 O6 1.995043 1_555
Li2 O8 2.020561 1_655
Li2 O8 2.020561 1_555
Li3 O14 1.980069 1_555
Li3 O0 1.998205 1_545
Li3 O13 2.021121 1_655
Li3 O13 2.021121 1_555
Li4 O1 1.978356 1_545
Li4 O16 2.002491 1_555
Li4 O16 2.002491 1_655
Li4 O12 2.014536 1_555
Li5 O11 1.961571 1_555
Li5 O17 2.009063 1_655
Li5 O17 2.009063 1_555
Li5 O15 2.014607 1_555
Mn0 O17 2.098692 1_565
Mn0 O3 2.177747 1_455
Mn0 O3 2.177747 1_555
Mn0 O5 2.184693 1_555
Mn0 O5 2.184693 1_455
Mn1 O16 2.096257 1_554
Mn1 O9 2.175343 1_454
Mn1 O9 2.175343 1_554
Mn1 O11 2.189842 1_455
Mn1 O11 2.189842 1_555
Fe0 O7 2.035762 1_555
Fe0 O0 2.153934 1_555
Fe0 O0 2.153934 1_455
Fe0 O2 2.169388 1_555
Fe0 O2 2.169388 1_455
Fe1 O4 2.039822 1_555
Fe1 O6 2.158131 1_455
Fe1 O6 2.158131 1_555
Fe1 O1 2.175484 1_455
Fe1 O1 2.175484 1_555
Fe2 O13 2.026229 1_555
Fe2 O15 2.151079 1_555
Fe2 O15 2.151079 1_455
Fe2 O10 2.181156 1_455
Fe2 O10 2.181156 1_555
Fe3 O8 2.033945 1_555
Fe3 O12 2.150179 1_555
Fe3 O12 2.150179 1_455
Fe3 O14 2.174286 1_555
Fe3 O14 2.174286 1_455
B0 O2 1.395482 1_555
B0 O14 1.395890 1_565
B0 O1 1.395988 1_555
B1 O16 1.391004 1_555
B1 O4 1.394664 1_545
B1 O17 1.395008 1_556
B2 O3 1.389750 1_545
B2 O0 1.390123 1_545
B2 O15 1.394232 1_555
B3 O11 1.390911 1_555
B3 O10 1.391773 1_555
B3 O5 1.397175 1_555
B4 O8 1.391762 1_555
B4 O13 1.392547 1_555
B4 O7 1.393239 1_555
B5 O9 1.389690 1_555
B5 O6 1.392083 1_555
B5 O12 1.392425 1_555
