# generated using pymatgen
data_La3PO7
_symmetry_space_group_name_H-M   'P 1'
_cell_length_a   9.52870376
_cell_length_b   9.52870376
_cell_length_c   12.54082992
_cell_angle_alpha   77.16001983
_cell_angle_beta   77.16001983
_cell_angle_gamma   91.61185465
_symmetry_Int_Tables_number   1
_chemical_formula_structural   La3PO7
_chemical_formula_sum   'La18 P6 O42'
_cell_volume   1078.82166226
_cell_formula_units_Z   6
loop_
 _symmetry_equiv_pos_site_id
 _symmetry_equiv_pos_as_xyz
  1  'x, y, z'
loop_
 _atom_site_type_symbol
 _atom_site_label
 _atom_site_symmetry_multiplicity
 _atom_site_fract_x
 _atom_site_fract_y
 _atom_site_fract_z
 _atom_site_occupancy
  La  La0  1  0.14792700  0.49185100  0.05325200  1
  La  La1  1  0.49185100  0.14792700  0.05325200  1
  La  La2  1  0.19042900  0.49998700  0.38104900  1
  La  La3  1  0.49998700  0.19042900  0.38104900  1
  La  La4  1  0.18688900  0.84361400  0.16234900  1
  La  La5  1  0.84361400  0.18688900  0.16234900  1
  La  La6  1  0.50525000  0.19165800  0.71994600  1
  La  La7  1  0.19165800  0.50525000  0.71994600  1
  La  La8  1  0.14175100  0.83184000  0.49834600  1
  La  La9  1  0.83184000  0.14175100  0.49834600  1
  La  La10  1  0.14533400  0.83693500  0.83553300  1
  La  La11  1  0.83693500  0.14533400  0.83553300  1
  La  La12  1  0.84453200  0.50021600  0.29619200  1
  La  La13  1  0.50021600  0.84453200  0.29619200  1
  La  La14  1  0.48061000  0.85550600  0.60837700  1
  La  La15  1  0.85550600  0.48061000  0.60837700  1
  La  La16  1  0.49145300  0.83343600  0.92096100  1
  La  La17  1  0.83343600  0.49145300  0.92096100  1
  P  P0  1  0.17307900  0.17307900  0.28494900  1
  P  P1  1  0.16454500  0.16454500  0.92387400  1
  P  P2  1  0.50518500  0.50518500  0.49312300  1
  P  P3  1  0.50292600  0.50292600  0.87186000  1
  P  P4  1  0.83678200  0.83678200  0.34228700  1
  P  P5  1  0.83476600  0.83476600  0.72194600  1
  O  O0  1  0.07761300  0.07761300  0.39529500  1
  O  O1  1  0.26464000  0.07791600  0.21653200  1
  O  O2  1  0.07791600  0.26464000  0.21653200  1
  O  O3  1  0.05624800  0.05624800  0.89831300  1
  O  O4  1  0.27934400  0.27934400  0.31446400  1
  O  O5  1  0.58719100  0.09309800  0.22042000  1
  O  O6  1  0.09309800  0.58719200  0.22042000  1
  O  O7  1  0.07430100  0.26252600  0.99014400  1
  O  O8  1  0.26252600  0.07430100  0.99014400  1
  O  O9  1  0.25672100  0.25672100  0.81062500  1
  O  O10  1  0.10946100  0.56476500  0.55314200  1
  O  O11  1  0.56476500  0.10946100  0.55314200  1
  O  O12  1  0.40267700  0.40267700  0.59701300  1
  O  O13  1  0.47198800  0.47198800  0.38395100  1
  O  O14  1  0.58788000  0.07252500  0.88626300  1
  O  O15  1  0.07252500  0.58788000  0.88626300  1
  O  O16  1  0.25954600  0.75075900  0.33153000  1
  O  O17  1  0.75075900  0.25954600  0.33153000  1
  O  O18  1  0.39678600  0.39678600  0.97234500  1
  O  O19  1  0.88223800  0.45032500  0.10850100  1
  O  O20  1  0.45032500  0.88223800  0.10850100  1
  O  O21  1  0.22760500  0.77105600  0.66433000  1
  O  O22  1  0.77105600  0.22760500  0.66433000  1
  O  O23  1  0.66326100  0.47624700  0.49527100  1
  O  O24  1  0.47624700  0.66326100  0.49527100  1
  O  O25  1  0.60683900  0.41868200  0.80057600  1
  O  O26  1  0.41868200  0.60683900  0.80057600  1
  O  O27  1  0.74727200  0.24167000  0.99598100  1
  O  O28  1  0.24167000  0.74727200  0.99598100  1
  O  O29  1  0.95343500  0.38567700  0.44533600  1
  O  O30  1  0.38567700  0.95343600  0.44533600  1
  O  O31  1  0.74150600  0.74150600  0.29313600  1
  O  O32  1  0.59420300  0.59420300  0.92714000  1
  O  O33  1  0.94864800  0.38477500  0.77175100  1
  O  O34  1  0.38477500  0.94864800  0.77175100  1
  O  O35  1  0.92504900  0.73726800  0.41282100  1
  O  O36  1  0.73726800  0.92504900  0.41282100  1
  O  O37  1  0.86595300  0.67939600  0.71239800  1
  O  O38  1  0.67939600  0.86595300  0.71239800  1
  O  O39  1  0.93974200  0.93974200  0.23715700  1
  O  O40  1  0.85762400  0.85762400  0.83656200  1
  O  O41  1  0.94397900  0.94397900  0.62564000  1
loop_
_geom_bond_atom_site_label_1
_geom_bond_atom_site_label_2
_geom_bond_distance
_geom_bond_site_symmetry_2
La0 O15 2.364981 1_554
La0 O6 2.424804 1_555
La0 O28 2.460264 1_554
La0 O19 2.467420 1_455
La0 O2 2.581963 1_555
La0 O7 2.612028 1_554
La0 O18 2.633079 1_554
La1 O14 2.364981 1_554
La1 O5 2.424798 1_555
La1 O27 2.460264 1_554
La1 O20 2.467420 1_545
La1 O1 2.581963 1_555
La1 O8 2.612028 1_554
La1 O18 2.633079 1_554
La2 O10 2.347942 1_555
La2 O29 2.366051 1_455
La2 O16 2.366307 1_555
La2 O6 2.395466 1_555
La2 O4 2.530103 1_555
La2 O13 2.711045 1_555
La3 O11 2.347942 1_555
La3 O30 2.366043 1_545
La3 O17 2.366307 1_555
La3 O5 2.395464 1_555
La3 O4 2.530103 1_555
La3 O13 2.711045 1_555
La4 O16 2.369941 1_555
La4 O28 2.421251 1_554
La4 O20 2.444739 1_555
La4 O6 2.469035 1_555
La4 O39 2.605082 1_455
La4 O1 2.607689 1_565
La4 O8 2.669146 1_564
La5 O17 2.369941 1_555
La5 O27 2.421251 1_554
La5 O19 2.444739 1_555
La5 O5 2.469044 1_555
La5 O39 2.605082 1_545
La5 O2 2.607689 1_655
La5 O7 2.669146 1_654
La6 O11 2.353055 1_555
La6 O34 2.439698 1_545
La6 O14 2.446789 1_555
La6 O22 2.465493 1_555
La6 O9 2.546515 1_555
La6 O12 2.603388 1_555
La6 O25 2.815773 1_555
La7 O10 2.353055 1_555
La7 O33 2.439698 1_455
La7 O15 2.446789 1_555
La7 O21 2.465493 1_555
La7 O9 2.546515 1_555
La7 O12 2.603388 1_555
La7 O26 2.815773 1_555
La8 O21 2.363333 1_555
La8 O16 2.440651 1_555
La8 O30 2.450749 1_555
La8 O10 2.475481 1_555
La8 O0 2.571875 1_565
La8 O41 2.603055 1_455
La8 O35 2.745078 1_455
La9 O22 2.363333 1_555
La9 O17 2.440651 1_555
La9 O29 2.450745 1_555
La9 O11 2.475481 1_555
La9 O0 2.571875 1_655
La9 O41 2.603055 1_545
La9 O36 2.745078 1_545
La10 O21 2.344563 1_555
La10 O15 2.357577 1_555
La10 O34 2.377449 1_555
La10 O28 2.392140 1_555
La10 O3 2.498320 1_565
La10 O40 2.751487 1_455
La11 O22 2.344563 1_555
La11 O14 2.357577 1_555
La11 O33 2.377449 1_555
La11 O27 2.392140 1_555
La11 O3 2.498320 1_655
La11 O40 2.751487 1_545
La12 O17 2.347536 1_555
La12 O6 2.395598 1_655
La12 O29 2.405292 1_555
La12 O19 2.454902 1_555
La12 O31 2.521107 1_555
La12 O23 2.660161 1_555
La13 O16 2.347536 1_555
La13 O5 2.395596 1_565
La13 O30 2.405298 1_555
La13 O20 2.454902 1_555
La13 O31 2.521107 1_555
La13 O24 2.660161 1_555
La14 O21 2.416599 1_555
La14 O34 2.416939 1_555
La14 O11 2.424361 1_565
La14 O30 2.427190 1_555
La14 O38 2.538680 1_555
La14 O24 2.558546 1_555
La14 O26 2.919437 1_555
La14 O36 2.992557 1_555
La15 O22 2.416599 1_555
La15 O33 2.416939 1_555
La15 O10 2.424361 1_655
La15 O29 2.427188 1_555
La15 O37 2.538680 1_555
La15 O23 2.558546 1_555
La15 O25 2.919437 1_555
La15 O35 2.992557 1_555
La16 O14 2.342594 1_565
La16 O34 2.394805 1_555
La16 O28 2.403256 1_555
La16 O20 2.447036 1_556
La16 O32 2.498369 1_555
La16 O38 2.769656 1_555
La17 O15 2.342594 1_655
La17 O33 2.394805 1_555
La17 O27 2.403256 1_555
La17 O19 2.447036 1_556
La17 O32 2.498369 1_555
La17 O37 2.769656 1_555
O0 P0 1.550624 1_555
O1 P0 1.541818 1_555
O2 P0 1.541818 1_555
O3 P1 1.570559 1_555
O4 P0 1.569418 1_555
O7 P1 1.540845 1_555
O8 P1 1.540845 1_555
O9 P1 1.551679 1_555
O12 P2 1.555863 1_555
O13 P2 1.566500 1_555
O18 P3 1.563110 1_555
O23 P2 1.543915 1_555
O24 P2 1.543915 1_555
O25 P3 1.547323 1_555
O26 P3 1.547323 1_555
O31 P4 1.574617 1_555
O32 P3 1.577012 1_555
O35 P4 1.546521 1_555
O36 P4 1.546521 1_555
O37 P5 1.543431 1_555
O38 P5 1.543431 1_555
O39 P4 1.568219 1_555
O40 P5 1.560950 1_555
O41 P5 1.564112 1_555
