# generated using pymatgen
data_Fe3Co2Cu(PO4)6
_symmetry_space_group_name_H-M   'P 1'
_cell_length_a   8.38893770
_cell_length_b   8.38893770
_cell_length_c   8.38893814
_cell_angle_alpha   61.96869910
_cell_angle_beta   61.96869910
_cell_angle_gamma   61.96869908
_symmetry_Int_Tables_number   1
_chemical_formula_structural   Fe3Co2Cu(PO4)6
_chemical_formula_sum   'Fe3 Co2 Cu1 P6 O24'
_cell_volume   435.83805460
_cell_formula_units_Z   1
loop_
 _symmetry_equiv_pos_site_id
 _symmetry_equiv_pos_as_xyz
  1  'x, y, z'
loop_
 _atom_site_type_symbol
 _atom_site_label
 _atom_site_symmetry_multiplicity
 _atom_site_fract_x
 _atom_site_fract_y
 _atom_site_fract_z
 _atom_site_occupancy
  Fe  Fe0  1  0.35466600  0.35466600  0.35466600  1
  Fe  Fe1  1  0.14387900  0.14387900  0.14387900  1
  Fe  Fe2  1  0.64442500  0.64442500  0.64442500  1
  Co  Co0  1  0.99878700  0.99878700  0.99878700  1
  Co  Co1  1  0.49932900  0.49932900  0.49932900  1
  Cu  Cu0  1  0.85479900  0.85479900  0.85479900  1
  P  P0  1  0.45483100  0.75006300  0.04668400  1
  P  P1  1  0.75006300  0.04668400  0.45483100  1
  P  P2  1  0.04668400  0.45483100  0.75006300  1
  P  P3  1  0.95170500  0.54728500  0.24850200  1
  P  P4  1  0.24850200  0.95170500  0.54728500  1
  P  P5  1  0.54728500  0.24850200  0.95170500  1
  O  O0  1  0.67797300  0.89075400  0.49811100  1
  O  O1  1  0.89075400  0.49811100  0.67797300  1
  O  O2  1  0.49811100  0.67797300  0.89075400  1
  O  O3  1  0.25216000  0.90524800  0.05932600  1
  O  O4  1  0.60988500  0.81784000  0.01642300  1
  O  O5  1  0.43560000  0.59504900  0.25039600  1
  O  O6  1  0.90524800  0.05932600  0.25216000  1
  O  O7  1  0.59504900  0.25039600  0.43560000  1
  O  O8  1  0.99399000  0.39161100  0.17667400  1
  O  O9  1  0.25039600  0.43560000  0.59504900  1
  O  O10  1  0.94138300  0.74974200  0.09272200  1
  O  O11  1  0.17667400  0.99399000  0.39161100  1
  O  O12  1  0.81784000  0.01642300  0.60988500  1
  O  O13  1  0.05932600  0.25216000  0.90524800  1
  O  O14  1  0.74935600  0.56293800  0.40340200  1
  O  O15  1  0.01642300  0.60988500  0.81784000  1
  O  O16  1  0.40340200  0.74935600  0.56293800  1
  O  O17  1  0.09272200  0.94138300  0.74974200  1
  O  O18  1  0.56293800  0.40340200  0.74935600  1
  O  O19  1  0.39161100  0.17667400  0.99399000  1
  O  O20  1  0.74974200  0.09272200  0.94138300  1
  O  O21  1  0.50617100  0.32080100  0.10751300  1
  O  O22  1  0.10751300  0.50617100  0.32080100  1
  O  O23  1  0.32080100  0.10751300  0.50617100  1
loop_
_geom_bond_atom_site_label_1
_geom_bond_atom_site_label_2
_geom_bond_distance
_geom_bond_site_symmetry_2
Fe0 O22 1.931915 1_555
Fe0 O23 1.931915 1_555
Fe0 O21 1.931915 1_555
Fe0 O5 2.088865 1_555
Fe0 O7 2.088865 1_555
Fe0 O9 2.088865 1_555
Fe1 O8 1.931795 1_455
Fe1 O19 1.931795 1_554
Fe1 O11 1.931795 1_545
Fe1 O6 2.086999 1_455
Fe1 O3 2.086999 1_545
Fe1 O13 2.086999 1_554
Fe2 O0 1.921952 1_555
Fe2 O1 1.921952 1_555
Fe2 O2 1.921952 1_555
Fe2 O18 2.095473 1_555
Fe2 O16 2.095473 1_555
Fe2 O14 2.095473 1_555
Co0 O10 2.063799 1_556
Co0 O20 2.063799 1_565
Co0 O17 2.063799 1_655
Co0 O13 2.112798 1_665
Co0 O3 2.112798 1_656
Co0 O6 2.112798 1_566
Co1 O9 2.088369 1_555
Co1 O7 2.088369 1_555
Co1 O5 2.088369 1_555
Co1 O14 2.096087 1_555
Co1 O16 2.096087 1_555
Co1 O18 2.096087 1_555
Cu0 O15 1.934177 1_655
Cu0 O4 1.934177 1_556
Cu0 O12 1.934177 1_565
Cu0 O17 2.096571 1_655
Cu0 O20 2.096571 1_565
Cu0 O10 2.096571 1_556
O0 P1 1.516383 1_565
O1 P2 1.516383 1_655
O2 P0 1.516383 1_556
O3 P0 1.573725 1_555
O4 P0 1.526023 1_555
O5 P0 1.576962 1_555
O6 P1 1.573725 1_555
O7 P1 1.576962 1_555
O8 P3 1.515815 1_555
O9 P2 1.576962 1_555
O10 P3 1.575389 1_555
O11 P4 1.515815 1_555
O12 P1 1.526023 1_555
O13 P2 1.573725 1_555
O14 P3 1.570003 1_555
O15 P2 1.526023 1_555
O16 P4 1.570003 1_555
O17 P4 1.575389 1_555
O18 P5 1.570003 1_555
O19 P5 1.515815 1_555
O20 P5 1.575389 1_555
O21 P5 1.523156 1_554
O22 P3 1.523156 1_455
O23 P4 1.523156 1_545
