# generated using pymatgen
data_CrN5Cl3
_symmetry_space_group_name_H-M   'P 1'
_cell_length_a   7.01492600
_cell_length_b   9.03684800
_cell_length_c   15.36210700
_cell_angle_alpha   90.00000000
_cell_angle_beta   90.00000000
_cell_angle_gamma   90.00000000
_symmetry_Int_Tables_number   1
_chemical_formula_structural   CrN5Cl3
_chemical_formula_sum   'Cr4 N20 Cl12'
_cell_volume   973.84728377
_cell_formula_units_Z   4
loop_
 _symmetry_equiv_pos_site_id
 _symmetry_equiv_pos_as_xyz
  1  'x, y, z'
loop_
 _atom_site_type_symbol
 _atom_site_label
 _atom_site_symmetry_multiplicity
 _atom_site_fract_x
 _atom_site_fract_y
 _atom_site_fract_z
 _atom_site_occupancy
  Cr  Cr0  1  0.32389500  0.25000000  0.59194200  1
  Cr  Cr1  1  0.17610500  0.25000000  0.09194200  1
  Cr  Cr2  1  0.67610500  0.75000000  0.40805800  1
  Cr  Cr3  1  0.82389500  0.75000000  0.90805800  1
  N  N0  1  0.01185000  0.25000000  0.66407400  1
  N  N1  1  0.48815000  0.25000000  0.16407400  1
  N  N2  1  0.98815000  0.75000000  0.33592600  1
  N  N3  1  0.51185000  0.75000000  0.83592600  1
  N  N4  1  0.52470300  0.25000000  0.63363300  1
  N  N5  1  0.97529700  0.25000000  0.13363300  1
  N  N6  1  0.47529700  0.75000000  0.36636700  1
  N  N7  1  0.02470300  0.75000000  0.86636700  1
  N  N8  1  0.11874900  0.13215900  0.65292400  1
  N  N9  1  0.38125100  0.36784100  0.15292400  1
  N  N10  1  0.88125100  0.63215900  0.34707600  1
  N  N11  1  0.61874900  0.86784100  0.84707600  1
  N  N12  1  0.88125100  0.86784100  0.34707600  1
  N  N13  1  0.61874900  0.63215900  0.84707600  1
  N  N14  1  0.11874900  0.36784100  0.65292400  1
  N  N15  1  0.38125100  0.13215900  0.15292400  1
  N  N16  1  0.34475000  0.25000000  0.48232700  1
  N  N17  1  0.15525000  0.25000000  0.98232700  1
  N  N18  1  0.65525000  0.75000000  0.51767300  1
  N  N19  1  0.84475000  0.75000000  0.01767300  1
  Cl  Cl0  1  0.52095200  0.25000000  0.41220800  1
  Cl  Cl1  1  0.97904800  0.25000000  0.91220800  1
  Cl  Cl2  1  0.47904800  0.75000000  0.58779200  1
  Cl  Cl3  1  0.02095200  0.75000000  0.08779200  1
  Cl  Cl4  1  0.49405400  0.02860800  0.85102800  1
  Cl  Cl5  1  0.00594600  0.47139200  0.35102800  1
  Cl  Cl6  1  0.50594600  0.52860800  0.14897200  1
  Cl  Cl7  1  0.99405400  0.97139200  0.64897200  1
  Cl  Cl8  1  0.50594600  0.97139200  0.14897200  1
  Cl  Cl9  1  0.99405400  0.52860800  0.64897200  1
  Cl  Cl10  1  0.49405400  0.47139200  0.85102800  1
  Cl  Cl11  1  0.00594600  0.02860800  0.35102800  1
loop_
_geom_bond_atom_site_label_1
_geom_bond_atom_site_label_2
_geom_bond_distance
_geom_bond_site_symmetry_2
Cr0 N4 1.547416 1_555
Cr0 N16 1.690260 1_555
Cr0 N8 2.020548 1_555
Cr0 N14 2.020548 1_555
Cr1 N5 1.547416 1_455
Cr1 N17 1.690260 1_554
Cr1 N9 2.020548 1_555
Cr1 N15 2.020548 1_555
Cr2 N6 1.547416 1_555
Cr2 N18 1.690260 1_555
Cr2 N10 2.020548 1_555
Cr2 N12 2.020548 1_555
Cr3 N7 1.547416 1_655
Cr3 N19 1.690260 1_556
Cr3 N11 2.020548 1_555
Cr3 N13 2.020548 1_555
N0 N14 1.313662 1_555
N0 N8 1.313662 1_555
N1 N9 1.313662 1_555
N1 N15 1.313662 1_555
N10 N2 1.313662 1_555
N11 N3 1.313662 1_555
N12 N2 1.313662 1_555
N13 N3 1.313662 1_555
Cl0 N16 1.639546 1_555
Cl1 N17 1.639546 1_655
Cl2 N18 1.639546 1_555
Cl3 N19 1.639546 1_455
Cl4 N11 1.696920 1_545
Cl5 N10 1.696920 1_455
Cl6 N9 1.696920 1_555
Cl7 N8 1.696920 1_665
Cl8 N15 1.696920 1_565
Cl9 N14 1.696920 1_655
Cl10 N13 1.696920 1_555
Cl11 N12 1.696920 1_445
