# generated using pymatgen
data_Dy2TiO5
_symmetry_space_group_name_H-M   'P 1'
_cell_length_a   3.67872121
_cell_length_b   10.34602288
_cell_length_c   11.24552047
_cell_angle_alpha   90.00000000
_cell_angle_beta   90.00000000
_cell_angle_gamma   90.00000000
_symmetry_Int_Tables_number   1
_chemical_formula_structural   Dy2TiO5
_chemical_formula_sum   'Dy8 Ti4 O20'
_cell_volume   428.00601383
_cell_formula_units_Z   4
loop_
 _symmetry_equiv_pos_site_id
 _symmetry_equiv_pos_as_xyz
  1  'x, y, z'
loop_
 _atom_site_type_symbol
 _atom_site_label
 _atom_site_symmetry_multiplicity
 _atom_site_fract_x
 _atom_site_fract_y
 _atom_site_fract_z
 _atom_site_occupancy
  Dy  Dy0  1  0.25000000  0.13614115  0.94365400  1
  Dy  Dy1  1  0.25000000  0.63614115  0.55634600  1
  Dy  Dy2  1  0.75000000  0.86385885  0.05634600  1
  Dy  Dy3  1  0.75000000  0.36385885  0.44365400  1
  Dy  Dy4  1  0.75000000  0.38494483  0.77689026  1
  Dy  Dy5  1  0.75000000  0.88494483  0.72310974  1
  Dy  Dy6  1  0.25000000  0.61505517  0.22310974  1
  Dy  Dy7  1  0.25000000  0.11505517  0.27689026  1
  Ti  Ti0  1  0.25000000  0.17464002  0.61943000  1
  Ti  Ti1  1  0.25000000  0.67464002  0.88057000  1
  Ti  Ti2  1  0.75000000  0.82535998  0.38057000  1
  Ti  Ti3  1  0.75000000  0.32535998  0.11943000  1
  O  O0  1  0.25000000  0.22376319  0.45695192  1
  O  O1  1  0.25000000  0.72376319  0.04304808  1
  O  O2  1  0.75000000  0.77623681  0.54304808  1
  O  O3  1  0.75000000  0.27623681  0.95695192  1
  O  O4  1  0.25000000  0.49307861  0.39481979  1
  O  O5  1  0.25000000  0.99307861  0.10518021  1
  O  O6  1  0.75000000  0.50692139  0.60518021  1
  O  O7  1  0.75000000  0.00692139  0.89481979  1
  O  O8  1  0.25000000  0.26225929  0.11668448  1
  O  O9  1  0.25000000  0.76225929  0.38331552  1
  O  O10  1  0.75000000  0.73774071  0.88331552  1
  O  O11  1  0.75000000  0.23774071  0.61668448  1
  O  O12  1  0.25000000  0.00688742  0.65461894  1
  O  O13  1  0.25000000  0.50688742  0.84538106  1
  O  O14  1  0.75000000  0.99311258  0.34538106  1
  O  O15  1  0.75000000  0.49311258  0.15461894  1
  O  O16  1  0.25000000  0.25669815  0.77112374  1
  O  O17  1  0.25000000  0.75669815  0.72887626  1
  O  O18  1  0.75000000  0.74330185  0.22887626  1
  O  O19  1  0.75000000  0.24330185  0.27112374  1
loop_
_geom_bond_atom_site_label_1
_geom_bond_atom_site_label_2
_geom_bond_distance
_geom_bond_site_symmetry_2
Dy0 O16 2.306527 1_555
Dy0 O7 2.339265 1_455
Dy0 O7 2.339265 1_555
Dy0 O8 2.342811 1_556
Dy0 O5 2.343130 1_546
Dy0 O3 2.346586 1_455
Dy0 O3 2.346586 1_555
Dy1 O17 2.306527 1_555
Dy1 O6 2.339265 1_555
Dy1 O6 2.339265 1_455
Dy1 O9 2.342811 1_555
Dy1 O4 2.343130 1_555
Dy1 O2 2.346586 1_455
Dy1 O2 2.346586 1_555
Dy2 O18 2.306527 1_555
Dy2 O5 2.339265 1_555
Dy2 O5 2.339265 1_655
Dy2 O10 2.342811 1_554
Dy2 O7 2.343130 1_564
Dy2 O1 2.346586 1_655
Dy2 O1 2.346586 1_555
Dy3 O19 2.306527 1_555
Dy3 O4 2.339265 1_555
Dy3 O4 2.339265 1_655
Dy3 O11 2.342811 1_555
Dy3 O6 2.343130 1_555
Dy3 O0 2.346586 1_555
Dy3 O0 2.346586 1_655
Dy4 O16 2.268913 1_655
Dy4 O16 2.268913 1_555
Dy4 O6 2.306776 1_555
Dy4 O3 2.316270 1_555
Dy4 O11 2.359070 1_555
Dy4 O13 2.359696 1_555
Dy4 O13 2.359696 1_655
Dy5 O17 2.268913 1_655
Dy5 O17 2.268913 1_555
Dy5 O7 2.306776 1_565
Dy5 O2 2.316270 1_555
Dy5 O10 2.359070 1_555
Dy5 O12 2.359696 1_565
Dy5 O12 2.359696 1_665
Dy6 O18 2.268913 1_455
Dy6 O18 2.268913 1_555
Dy6 O4 2.306776 1_555
Dy6 O1 2.316270 1_555
Dy6 O9 2.359070 1_555
Dy6 O15 2.359696 1_455
Dy6 O15 2.359696 1_555
Dy7 O19 2.268913 1_455
Dy7 O19 2.268913 1_555
Dy7 O5 2.306776 1_545
Dy7 O0 2.316270 1_555
Dy7 O8 2.359070 1_555
Dy7 O14 2.359696 1_545
Dy7 O14 2.359696 1_445
O0 Ti0 1.896517 1_555
O1 Ti1 1.896517 1_554
O2 Ti2 1.896517 1_555
O3 Ti3 1.896517 1_556
O8 Ti3 1.952025 1_455
O8 Ti3 1.952025 1_555
O9 Ti2 1.952025 1_555
O9 Ti2 1.952025 1_455
O10 Ti1 1.952025 1_555
O10 Ti1 1.952025 1_655
O11 Ti0 1.952025 1_555
O11 Ti0 1.952025 1_655
O12 Ti0 1.780113 1_555
O13 Ti1 1.780113 1_555
O14 Ti2 1.780113 1_555
O15 Ti3 1.780113 1_555
O16 Ti0 1.905458 1_555
O17 Ti1 1.905458 1_555
O18 Ti2 1.905458 1_555
O19 Ti3 1.905458 1_555
