# generated using pymatgen
data_Li10Mn2V3Cr3O16
_symmetry_space_group_name_H-M   'P 1'
_cell_length_a   6.00516500
_cell_length_b   6.04933458
_cell_length_c   9.98708303
_cell_angle_alpha   90.39569789
_cell_angle_beta   90.20802366
_cell_angle_gamma   119.55722552
_symmetry_Int_Tables_number   1
_chemical_formula_structural   Li10Mn2V3Cr3O16
_chemical_formula_sum   'Li10 Mn2 V3 Cr3 O16'
_cell_volume   315.57145939
_cell_formula_units_Z   1
loop_
 _symmetry_equiv_pos_site_id
 _symmetry_equiv_pos_as_xyz
  1  'x, y, z'
loop_
 _atom_site_type_symbol
 _atom_site_label
 _atom_site_symmetry_multiplicity
 _atom_site_fract_x
 _atom_site_fract_y
 _atom_site_fract_z
 _atom_site_occupancy
  Li  Li0  1  0.98519400  0.97335200  0.51435600  1
  Li  Li1  1  0.97740100  0.98508000  0.01455100  1
  Li  Li2  1  0.64980900  0.31924500  0.22519000  1
  Li  Li3  1  0.80372600  0.18978400  0.43640100  1
  Li  Li4  1  0.78643000  0.58767600  0.44044500  1
  Li  Li5  1  0.37828000  0.19113900  0.43683600  1
  Li  Li6  1  0.31924700  0.64701400  0.72457200  1
  Li  Li7  1  0.58182600  0.78049500  0.94307800  1
  Li  Li8  1  0.18288700  0.79738800  0.93720400  1
  Li  Li9  1  0.18749200  0.37559300  0.93624700  1
  Mn  Mn0  1  0.65585300  0.32349500  0.97603900  1
  Mn  Mn1  1  0.32253000  0.65879900  0.47430900  1
  V  V0  1  0.82018500  0.15006300  0.71375900  1
  V  V1  1  0.32576700  0.15118200  0.71235200  1
  V  V2  1  0.15279800  0.32542100  0.21319400  1
  Cr  Cr0  1  0.82069300  0.64774100  0.71458800  1
  Cr  Cr1  1  0.64882400  0.82166300  0.21467800  1
  Cr  Cr2  1  0.15164500  0.82188900  0.21350900  1
  O  O0  1  0.82390100  0.67212800  0.09911300  1
  O  O1  1  0.97677100  0.47588200  0.82827600  1
  O  O2  1  0.82368200  0.14681400  0.10226700  1
  O  O3  1  0.65237900  0.32282900  0.59575000  1
  O  O4  1  0.49714000  0.48291600  0.82960000  1
  O  O5  1  0.29764000  0.14619800  0.09902500  1
  O  O6  1  0.49697500  0.99756700  0.82877200  1
  O  O7  1  0.67032800  0.82396700  0.60110200  1
  O  O8  1  0.47935100  0.97811200  0.32983600  1
  O  O9  1  0.48025700  0.49620600  0.32705300  1
  O  O10  1  0.32095200  0.66326700  0.09712800  1
  O  O11  1  0.14246800  0.81467000  0.60052800  1
  O  O12  1  0.99907900  0.49747300  0.32681300  1
  O  O13  1  0.14109700  0.29343800  0.59607400  1
  O  O14  1  0.98205600  0.98333100  0.32728800  1
  O  O15  1  0.99485500  0.98031000  0.82749500  1
loop_
_geom_bond_atom_site_label_1
_geom_bond_atom_site_label_2
_geom_bond_distance
_geom_bond_site_symmetry_2
Li0 O11 1.858505 1_655
Li0 O13 1.864400 1_665
Li0 O7 1.865294 1_555
Li0 O14 1.869982 1_555
Li1 O0 1.858226 1_555
Li1 O2 1.860606 1_565
Li1 O5 1.867518 1_665
Li1 O15 1.872282 1_554
Li2 O9 2.070126 1_555
Li2 O12 2.080884 1_555
Li2 O8 2.086177 1_545
Li2 O2 2.179796 1_555
Li2 O5 2.221324 1_555
Li2 O0 2.253946 1_555
Li3 O12 1.980344 1_555
Li3 O8 2.017925 1_545
Li3 O3 2.172770 1_555
Li3 O14 2.281067 1_545
Li3 O13 2.397937 1_655
Li3 O7 2.560350 1_545
Li4 O12 1.976307 1_555
Li4 O9 1.985361 1_555
Li4 O3 2.095615 1_555
Li4 O14 2.378823 1_555
Li4 O7 2.462392 1_555
Li5 O9 1.975015 1_555
Li5 O8 1.982008 1_545
Li5 O3 2.129016 1_555
Li5 O14 2.334496 1_445
Li5 O13 2.411068 1_555
Li6 O4 2.068661 1_555
Li6 O1 2.074570 1_455
Li6 O6 2.108927 1_555
Li6 O11 2.181819 1_555
Li6 O7 2.218534 1_555
Li6 O13 2.249643 1_555
Li7 O4 1.961639 1_555
Li7 O6 1.990929 1_555
Li7 O10 2.064132 1_556
Li7 O0 2.430893 1_556
Li7 O15 2.455138 1_555
Li8 O6 1.994048 1_555
Li8 O1 2.020920 1_455
Li8 O10 2.137429 1_556
Li8 O15 2.222714 1_455
Li8 O5 2.459543 1_566
Li8 O0 2.503365 1_456
Li9 O4 1.961251 1_555
Li9 O1 1.971962 1_455
Li9 O10 2.197353 1_556
Li9 O15 2.337015 1_445
Li9 O5 2.436178 1_556
Li9 O2 2.551969 1_456
Mn0 O2 2.195321 1_556
Mn0 O0 2.198297 1_556
Mn0 O4 2.212134 1_555
Mn0 O1 2.242375 1_555
Mn0 O5 2.246665 1_556
Mn0 O6 2.248267 1_545
Mn1 O11 2.155619 1_555
Mn1 O7 2.206465 1_555
Mn1 O9 2.221861 1_555
Mn1 O8 2.225669 1_555
Mn1 O12 2.232561 1_455
Mn1 O13 2.285135 1_555
Cr0 O11 2.039102 1_655
Cr0 O7 2.048254 1_555
Cr0 O4 2.051691 1_555
Cr0 O1 2.053875 1_555
Cr0 O3 2.071835 1_555
Cr0 O15 2.072921 1_555
Cr1 O0 2.046561 1_555
Cr1 O8 2.048870 1_555
Cr1 O9 2.057416 1_555
Cr1 O2 2.057480 1_565
Cr1 O14 2.064799 1_555
Cr1 O10 2.068673 1_555
Cr2 O0 2.051803 1_455
Cr2 O12 2.058052 1_455
Cr2 O8 2.061300 1_555
Cr2 O14 2.063127 1_455
Cr2 O10 2.064245 1_555
Cr2 O5 2.065459 1_565
O1 V0 2.051727 1_555
O2 V2 2.040008 1_655
O3 V1 2.074903 1_555
O3 V0 2.131710 1_555
O4 V1 2.092526 1_555
O5 V2 2.037789 1_555
O6 V0 2.049862 1_565
O6 V1 2.054579 1_565
O7 V0 2.043944 1_565
O9 V2 2.047072 1_555
O10 V2 2.131988 1_555
O11 V1 2.086100 1_565
O12 V2 2.040138 1_655
O13 V0 2.056449 1_455
O13 V1 2.065169 1_555
O14 V2 2.140059 1_665
O15 V1 2.084756 1_665
O15 V0 2.124885 1_565
