# generated using pymatgen
data_Li4TiMn(WO6)2
_symmetry_space_group_name_H-M   'P 1'
_cell_length_a   5.11102819
_cell_length_b   9.48763838
_cell_length_c   8.85196425
_cell_angle_alpha   108.09820047
_cell_angle_beta   90.02881010
_cell_angle_gamma   89.97116815
_symmetry_Int_Tables_number   1
_chemical_formula_structural   Li4TiMn(WO6)2
_chemical_formula_sum   'Li8 Ti2 Mn2 W4 O24'
_cell_volume   408.00899156
_cell_formula_units_Z   2
loop_
 _symmetry_equiv_pos_site_id
 _symmetry_equiv_pos_as_xyz
  1  'x, y, z'
loop_
 _atom_site_type_symbol
 _atom_site_label
 _atom_site_symmetry_multiplicity
 _atom_site_fract_x
 _atom_site_fract_y
 _atom_site_fract_z
 _atom_site_occupancy
  Li  Li0  1  0.00097500  0.43010800  0.14066900  1
  Li  Li1  1  0.00098000  0.93013800  0.64070000  1
  Li  Li2  1  0.49936900  0.93292300  0.14736700  1
  Li  Li3  1  0.49937200  0.43291200  0.64738200  1
  Li  Li4  1  0.99995700  0.17362400  0.39298200  1
  Li  Li5  1  0.99995400  0.67362100  0.89298500  1
  Li  Li6  1  0.50022700  0.67946700  0.39127700  1
  Li  Li7  1  0.50020200  0.17949500  0.89124300  1
  Ti  Ti0  1  0.00253000  0.01432000  0.00520700  1
  Ti  Ti1  1  0.00250100  0.51430800  0.50519300  1
  Mn  Mn0  1  0.49870500  0.50054400  0.00008900  1
  Mn  Mn1  1  0.49882800  0.00050900  0.50008200  1
  W  W0  1  0.00110700  0.75207200  0.24703000  1
  W  W1  1  0.00109100  0.25206000  0.74702100  1
  W  W2  1  0.49894800  0.75582400  0.75605400  1
  W  W3  1  0.49897400  0.25582200  0.25602900  1
  O  O0  1  0.29997300  0.61117700  0.17996400  1
  O  O1  1  0.29982500  0.11105800  0.67990300  1
  O  O2  1  0.11982000  0.86170400  0.11714200  1
  O  O3  1  0.11983100  0.36170200  0.61714400  1
  O  O4  1  0.31964300  0.11253900  0.06415500  1
  O  O5  1  0.31956800  0.61255100  0.56417300  1
  O  O6  1  0.19887400  0.86277400  0.43097300  1
  O  O7  1  0.19888100  0.36277600  0.93096800  1
  O  O8  1  0.80544700  0.11701600  0.18360300  1
  O  O9  1  0.80542700  0.61700300  0.68359600  1
  O  O10  1  0.38170100  0.11177100  0.36612400  1
  O  O11  1  0.38153900  0.61180000  0.86612100  1
  O  O12  1  0.61705300  0.36548100  0.11906800  1
  O  O13  1  0.61700800  0.86548600  0.61911600  1
  O  O14  1  0.18456800  0.36138600  0.31041800  1
  O  O15  1  0.18455900  0.86138800  0.81041900  1
  O  O16  1  0.80792600  0.61636700  0.06540300  1
  O  O17  1  0.80780600  0.11644800  0.56534300  1
  O  O18  1  0.69188700  0.36474600  0.43326500  1
  O  O19  1  0.69189000  0.86473800  0.93326700  1
  O  O20  1  0.88285900  0.61634600  0.36821500  1
  O  O21  1  0.88289300  0.11639300  0.86825200  1
  O  O22  1  0.68864500  0.86660700  0.31662800  1
  O  O23  1  0.68865700  0.36659800  0.81662800  1
loop_
_geom_bond_atom_site_label_1
_geom_bond_atom_site_label_2
_geom_bond_distance
_geom_bond_site_symmetry_2
Li0 O7 2.035055 1_554
Li0 O14 2.042086 1_555
Li0 O12 2.047165 1_455
Li0 O0 2.244646 1_555
Li0 O16 2.295507 1_455
Li0 O20 2.309251 1_455
Li1 O6 2.035221 1_555
Li1 O15 2.041977 1_555
Li1 O13 2.047475 1_455
Li1 O1 2.243167 1_565
Li1 O17 2.296624 1_465
Li1 O21 2.309325 1_465
Li2 O22 2.039663 1_555
Li2 O2 2.044453 1_555
Li2 O19 2.053783 1_554
Li2 O10 2.224728 1_565
Li2 O4 2.251232 1_565
Li2 O8 2.292370 1_565
Li3 O23 2.039564 1_555
Li3 O3 2.044393 1_555
Li3 O18 2.053888 1_555
Li3 O11 2.225042 1_555
Li3 O5 2.251567 1_555
Li3 O9 2.292295 1_555
Li4 O8 2.022909 1_555
Li4 O17 2.025559 1_555
Li4 O10 2.029863 1_655
Li4 O3 2.301495 1_655
Li4 O14 2.325762 1_655
Li4 O18 2.343157 1_555
Li5 O9 2.023023 1_555
Li5 O16 2.026048 1_556
Li5 O11 2.029007 1_655
Li5 O2 2.301481 1_656
Li5 O15 2.325800 1_655
Li5 O19 2.343103 1_555
Li6 O20 2.036695 1_555
Li6 O5 2.050287 1_555
Li6 O0 2.052321 1_555
Li6 O6 2.266842 1_555
Li6 O22 2.290803 1_555
Li6 O13 2.308034 1_555
Li7 O21 2.036931 1_555
Li7 O4 2.050382 1_556
Li7 O1 2.052875 1_555
Li7 O7 2.266532 1_555
Li7 O23 2.290420 1_555
Li7 O12 2.307893 1_556
Mn0 O0 1.905490 1_555
Mn0 O16 1.909372 1_555
Mn0 O11 1.911931 1_554
Mn0 O23 1.978134 1_554
Mn0 O7 1.983766 1_554
Mn0 O12 1.988527 1_555
Mn1 O1 1.905680 1_555
Mn1 O17 1.908817 1_555
Mn1 O10 1.911841 1_555
Mn1 O22 1.977595 1_545
Mn1 O6 1.984093 1_545
Mn1 O13 1.988315 1_545
O0 W0 1.994610 1_555
O1 W1 1.994721 1_555
O2 W0 1.875197 1_555
O2 Ti0 2.080300 1_565
O3 W1 1.875236 1_555
O3 Ti1 2.080377 1_555
O4 Ti0 1.861754 1_555
O4 W3 2.034221 1_555
O5 Ti1 1.861678 1_555
O5 W2 2.034334 1_555
O6 W0 1.926903 1_555
O7 W1 1.927027 1_555
O8 Ti0 1.871467 1_655
O8 W3 2.018245 1_555
O9 Ti1 1.871482 1_655
O9 W2 2.018381 1_555
O10 W3 2.001458 1_555
O11 W2 2.001280 1_555
O12 W3 1.923942 1_555
O13 W2 1.923770 1_555
O14 W3 1.875293 1_555
O14 Ti1 2.095160 1_555
O15 W2 1.875199 1_555
O15 Ti0 2.095185 1_566
O16 W0 1.982687 1_655
O17 W1 1.982876 1_655
O18 W3 1.869143 1_555
O18 Ti1 2.092651 1_655
O19 W2 1.869057 1_555
O19 Ti0 2.092873 1_666
O20 Ti1 1.873317 1_655
O20 W0 2.008455 1_655
O21 Ti0 1.873383 1_656
O21 W1 2.008225 1_655
O22 W0 1.922009 1_655
O23 W1 1.921915 1_655
