# generated using pymatgen
data_Ti6Fe8O21
_symmetry_space_group_name_H-M   'P 1'
_cell_length_a   7.60095600
_cell_length_b   8.94514740
_cell_length_c   12.36968799
_cell_angle_alpha   82.84697023
_cell_angle_beta   84.50095885
_cell_angle_gamma   66.56972349
_symmetry_Int_Tables_number   1
_chemical_formula_structural   Ti6Fe8O21
_chemical_formula_sum   'Ti12 Fe16 O42'
_cell_volume   764.69039739
_cell_formula_units_Z   2
loop_
 _symmetry_equiv_pos_site_id
 _symmetry_equiv_pos_as_xyz
  1  'x, y, z'
loop_
 _atom_site_type_symbol
 _atom_site_label
 _atom_site_symmetry_multiplicity
 _atom_site_fract_x
 _atom_site_fract_y
 _atom_site_fract_z
 _atom_site_occupancy
  Ti  Ti0  1  0.09401300  0.50600600  0.23505400  1
  Ti  Ti1  1  0.47391700  0.34331900  0.48096200  1
  Ti  Ti2  1  0.18011100  0.91088200  0.62986100  1
  Ti  Ti3  1  0.67763800  0.36565700  0.94578300  1
  Ti  Ti4  1  0.81988900  0.08911800  0.37013900  1
  Ti  Ti5  1  0.90598700  0.49399400  0.76494600  1
  Ti  Ti6  1  0.38007000  0.94367800  0.09289800  1
  Ti  Ti7  1  0.61993000  0.05632200  0.90710200  1
  Ti  Ti8  1  0.24028000  0.22373800  0.65987200  1
  Ti  Ti9  1  0.52608300  0.65668100  0.51903800  1
  Ti  Ti10  1  0.75972000  0.77626200  0.34012800  1
  Ti  Ti11  1  0.32236200  0.63434300  0.05421700  1
  Fe  Fe0  1  0.60294600  0.50818600  0.23238300  1
  Fe  Fe1  1  0.97164200  0.34551600  0.48554700  1
  Fe  Fe2  1  0.04515900  0.20506700  0.19581300  1
  Fe  Fe3  1  0.69222500  0.91543800  0.62237600  1
  Fe  Fe4  1  0.54185500  0.20822400  0.19781700  1
  Fe  Fe5  1  0.17044900  0.37246000  0.94700000  1
  Fe  Fe6  1  0.39705400  0.49181400  0.76761700  1
  Fe  Fe7  1  0.30777500  0.08456200  0.37762400  1
  Fe  Fe8  1  0.11757900  0.05239900  0.91199300  1
  Fe  Fe9  1  0.02835800  0.65448400  0.51445300  1
  Fe  Fe10  1  0.25828600  0.76956700  0.33991800  1
  Fe  Fe11  1  0.74171400  0.23043300  0.66008200  1
  Fe  Fe12  1  0.88242100  0.94760100  0.08800700  1
  Fe  Fe13  1  0.45814500  0.79177600  0.80218300  1
  Fe  Fe14  1  0.82955100  0.62754000  0.05300000  1
  Fe  Fe15  1  0.95484100  0.79493300  0.80418700  1
  O  O0  1  0.52920500  0.46613400  0.60555800  1
  O  O1  1  0.47079500  0.53386600  0.39444200  1
  O  O2  1  0.21207700  0.40814300  0.52959400  1
  O  O3  1  0.49973800  0.16790500  0.61868600  1
  O  O4  1  0.35237800  0.46095000  0.18291600  1
  O  O5  1  0.63854000  0.52305400  0.04694600  1
  O  O6  1  0.77463200  0.23101000  0.47770600  1
  O  O7  1  0.09750300  0.32997100  0.32604100  1
  O  O8  1  0.05029000  0.41112700  0.09578800  1
  O  O9  1  0.19309400  0.10538500  0.54459100  1
  O  O10  1  0.49971900  0.19556800  0.37821800  1
  O  O11  1  0.36146000  0.47694600  0.95305400  1
  O  O12  1  0.64762200  0.53905000  0.81708400  1
  O  O13  1  0.76632100  0.26645800  0.24855700  1
  O  O14  1  0.94343100  0.29005600  0.90931500  1
  O  O15  1  0.08307500  0.01282100  0.33894200  1
  O  O16  1  0.50028100  0.80443200  0.62178200  1
  O  O17  1  0.36066900  0.08328500  0.19099500  1
  O  O18  1  0.20083000  0.37333600  0.77384500  1
  O  O19  1  0.80690600  0.89461500  0.45540900  1
  O  O20  1  0.66896000  0.18073700  0.04087100  1
  O  O21  1  0.77404100  0.95680800  0.24195400  1
  O  O22  1  0.61487300  0.25130900  0.82640000  1
  O  O23  1  0.93824200  0.34156100  0.66481500  1
  O  O24  1  0.22536800  0.76899000  0.52229400  1
  O  O25  1  0.08788800  0.03386400  0.08130700  1
  O  O26  1  0.50026200  0.83209500  0.38131400  1
  O  O27  1  0.34468700  0.12733500  0.95746600  1
  O  O28  1  0.65531300  0.87266500  0.04253400  1
  O  O29  1  0.78792300  0.59185700  0.47040600  1
  O  O30  1  0.06175800  0.65843900  0.33518500  1
  O  O31  1  0.91211200  0.96613600  0.91869300  1
  O  O32  1  0.22595900  0.04319200  0.75804600  1
  O  O33  1  0.38512700  0.74869100  0.17360000  1
  O  O34  1  0.33104000  0.81926300  0.95912900  1
  O  O35  1  0.63933100  0.91671500  0.80900500  1
  O  O36  1  0.79917000  0.62666400  0.22615500  1
  O  O37  1  0.91692500  0.98717900  0.66105800  1
  O  O38  1  0.05656900  0.70994400  0.09068500  1
  O  O39  1  0.23367900  0.73354200  0.75144300  1
  O  O40  1  0.94971000  0.58887300  0.90421200  1
  O  O41  1  0.90249700  0.67002900  0.67395900  1
loop_
_geom_bond_atom_site_label_1
_geom_bond_atom_site_label_2
_geom_bond_distance
_geom_bond_site_symmetry_2
Fe0 O13 2.015464 1_555
Fe0 O36 2.137375 1_555
Fe0 O1 2.150696 1_555
Fe0 O33 2.215105 1_555
Fe0 O4 2.260089 1_555
Fe0 O5 2.277300 1_555
Fe1 O29 2.083504 1_555
Fe1 O7 2.104329 1_655
Fe1 O6 2.138529 1_555
Fe1 O23 2.205146 1_555
Fe1 O9 2.224908 1_655
Fe1 O2 2.243128 1_655
Fe2 O13 2.029246 1_455
Fe2 O8 2.099967 1_555
Fe2 O25 2.124491 1_555
Fe2 O17 2.202878 1_555
Fe2 O7 2.219489 1_555
Fe2 O15 2.262803 1_555
Fe3 O16 2.066533 1_555
Fe3 O3 2.145299 1_565
Fe3 O37 2.159294 1_555
Fe3 O19 2.163736 1_555
Fe3 O41 2.199312 1_555
Fe3 O35 2.305682 1_555
Fe4 O20 2.081649 1_555
Fe4 O17 2.102992 1_555
Fe4 O13 2.137687 1_555
Fe4 O4 2.139312 1_555
Fe4 O10 2.218997 1_555
Fe4 O21 2.278807 1_545
Fe5 O8 1.981473 1_556
Fe5 O11 2.025958 1_555
Fe5 O40 2.043217 1_455
Fe5 O27 2.057023 1_555
Fe5 O18 2.131542 1_555
Fe5 O14 2.233704 1_455
Fe6 O39 2.015464 1_555
Fe6 O18 2.137375 1_555
Fe6 O0 2.150696 1_555
Fe6 O22 2.215105 1_555
Fe6 O12 2.260089 1_555
Fe6 O11 2.277300 1_555
Fe7 O10 2.066533 1_555
Fe7 O26 2.145299 1_545
Fe7 O15 2.159294 1_555
Fe7 O9 2.163736 1_555
Fe7 O7 2.199312 1_555
Fe7 O17 2.305682 1_555
Fe8 O31 1.989718 1_445
Fe8 O32 1.999031 1_555
Fe8 O14 2.006388 1_455
Fe8 O25 2.077850 1_556
Fe8 O34 2.123473 1_545
Fe8 O27 2.223921 1_555
Fe9 O2 2.083504 1_555
Fe9 O41 2.104329 1_455
Fe9 O24 2.138529 1_555
Fe9 O30 2.205146 1_555
Fe9 O19 2.224908 1_455
Fe9 O29 2.243128 1_455
Fe10 O15 2.049502 1_565
Fe10 O30 2.105986 1_555
Fe10 O1 2.157672 1_555
Fe10 O33 2.183856 1_555
Fe10 O26 2.242281 1_555
Fe10 O24 2.245399 1_555
Fe11 O37 2.049502 1_545
Fe11 O23 2.105986 1_555
Fe11 O0 2.157672 1_555
Fe11 O22 2.183856 1_555
Fe11 O3 2.242281 1_555
Fe11 O6 2.245399 1_555
Fe12 O25 1.989718 1_665
Fe12 O21 1.999031 1_555
Fe12 O38 2.006388 1_655
Fe12 O31 2.077850 1_554
Fe12 O20 2.123473 1_565
Fe12 O28 2.223921 1_555
Fe13 O34 2.081649 1_555
Fe13 O35 2.102992 1_555
Fe13 O39 2.137687 1_555
Fe13 O12 2.139312 1_555
Fe13 O16 2.218997 1_555
Fe13 O32 2.278807 1_565
Fe14 O40 1.981473 1_554
Fe14 O5 2.025958 1_555
Fe14 O8 2.043217 1_655
Fe14 O28 2.057023 1_555
Fe14 O36 2.131542 1_555
Fe14 O38 2.233704 1_655
Fe15 O39 2.029246 1_655
Fe15 O40 2.099967 1_555
Fe15 O31 2.124491 1_555
Fe15 O35 2.202878 1_555
Fe15 O41 2.219489 1_555
Fe15 O37 2.262803 1_555
O0 Ti9 1.889333 1_555
O0 Ti1 2.161439 1_555
O1 Ti1 1.889333 1_555
O1 Ti9 2.161439 1_555
O2 Ti1 1.897043 1_555
O2 Ti8 2.118213 1_555
O3 Ti8 1.867025 1_555
O3 Ti1 2.134556 1_555
O4 Ti0 1.904604 1_555
O4 Ti11 2.040921 1_555
O5 Ti3 1.916048 1_554
O5 Ti11 2.202950 1_555
O6 Ti4 1.866914 1_555
O6 Ti1 2.098019 1_555
O7 Ti0 1.810554 1_555
O8 Ti0 2.120498 1_555
O9 Ti2 1.951651 1_545
O9 Ti8 2.014660 1_555
O10 Ti1 1.888083 1_555
O10 Ti4 2.230092 1_555
O11 Ti11 1.916048 1_556
O11 Ti3 2.202950 1_555
O12 Ti5 1.904604 1_555
O12 Ti3 2.040921 1_555
O13 Ti4 1.988366 1_555
O14 Ti3 1.886037 1_555
O14 Ti5 2.339057 1_555
O15 Ti4 1.856995 1_455
O16 Ti9 1.888083 1_555
O16 Ti2 2.230092 1_555
O17 Ti6 1.802859 1_545
O18 Ti8 1.984413 1_555
O18 Ti5 2.072097 1_455
O19 Ti4 1.951651 1_565
O19 Ti10 2.014660 1_555
O20 Ti3 1.926487 1_554
O20 Ti7 2.240996 1_554
O21 Ti10 1.928957 1_555
O21 Ti4 2.222073 1_565
O22 Ti7 1.886958 1_555
O22 Ti3 2.086587 1_555
O23 Ti5 1.884139 1_555
O23 Ti8 2.109511 1_655
O24 Ti2 1.866914 1_555
O24 Ti9 2.098019 1_555
O25 Ti6 2.052071 1_545
O26 Ti10 1.867025 1_555
O26 Ti9 2.134556 1_555
O27 Ti7 1.990082 1_555
O27 Ti6 2.151115 1_546
O28 Ti6 1.990082 1_555
O28 Ti7 2.151115 1_564
O29 Ti9 1.897043 1_555
O29 Ti10 2.118213 1_555
O30 Ti0 1.884139 1_555
O30 Ti10 2.109511 1_455
O31 Ti7 2.052071 1_565
O32 Ti8 1.928957 1_555
O32 Ti2 2.222073 1_545
O33 Ti6 1.886958 1_555
O33 Ti11 2.086587 1_555
O34 Ti11 1.926487 1_556
O34 Ti6 2.240996 1_556
O35 Ti7 1.802859 1_565
O36 Ti10 1.984413 1_555
O36 Ti0 2.072097 1_655
O37 Ti2 1.856995 1_655
O38 Ti11 1.886037 1_555
O38 Ti0 2.339057 1_555
O39 Ti2 1.988366 1_555
O40 Ti5 2.120498 1_555
O41 Ti5 1.810554 1_555
