# generated using pymatgen
data_Li2VP2O7
_symmetry_space_group_name_H-M   'P 1'
_cell_length_a   7.27707141
_cell_length_b   8.51708500
_cell_length_c   10.06037709
_cell_angle_alpha   89.99923651
_cell_angle_beta   70.01481736
_cell_angle_gamma   89.99903806
_symmetry_Int_Tables_number   1
_chemical_formula_structural   Li2VP2O7
_chemical_formula_sum   'Li8 V4 P8 O28'
_cell_volume   585.98777607
_cell_formula_units_Z   4
loop_
 _symmetry_equiv_pos_site_id
 _symmetry_equiv_pos_as_xyz
  1  'x, y, z'
loop_
 _atom_site_type_symbol
 _atom_site_label
 _atom_site_symmetry_multiplicity
 _atom_site_fract_x
 _atom_site_fract_y
 _atom_site_fract_z
 _atom_site_occupancy
  Li  Li0  1  0.08645000  0.84938200  0.26272400  1
  Li  Li1  1  0.58643400  0.84939200  0.76273300  1
  Li  Li2  1  0.91354800  0.34937600  0.73727600  1
  Li  Li3  1  0.41357100  0.34939700  0.23725900  1
  Li  Li4  1  0.31503800  0.16426600  0.58871900  1
  Li  Li5  1  0.81503400  0.16426200  0.08869700  1
  Li  Li6  1  0.68497100  0.66427400  0.41128400  1
  Li  Li7  1  0.18496200  0.66426100  0.91130200  1
  V  V0  1  0.53518800  0.49744900  0.74327800  1
  V  V1  1  0.46482300  0.99746600  0.25671500  1
  V  V2  1  0.03514800  0.49743300  0.24333200  1
  V  V3  1  0.96485200  0.99743900  0.75667100  1
  P  P0  1  0.04478000  0.18271900  0.43373900  1
  P  P1  1  0.54477500  0.18271900  0.93373600  1
  P  P2  1  0.95521700  0.68272800  0.56626400  1
  P  P3  1  0.45522600  0.68271900  0.06626300  1
  P  P4  1  0.35248600  0.79093200  0.56134600  1
  P  P5  1  0.85248700  0.79093300  0.06135000  1
  P  P6  1  0.64751900  0.29093600  0.43864800  1
  P  P7  1  0.14750000  0.29093100  0.93865000  1
  O  O0  1  0.02720400  0.31541200  0.09494000  1
  O  O1  1  0.52721300  0.31541300  0.59493800  1
  O  O2  1  0.97278900  0.81541300  0.90506000  1
  O  O3  1  0.47278500  0.81541200  0.40505900  1
  O  O4  1  0.98005100  0.69926200  0.12909200  1
  O  O5  1  0.48008000  0.69927100  0.62909200  1
  O  O6  1  0.01990800  0.19927900  0.87090500  1
  O  O7  1  0.51992600  0.19927100  0.37090500  1
  O  O8  1  0.14803000  0.03610300  0.35595800  1
  O  O9  1  0.64802400  0.03610500  0.85595300  1
  O  O10  1  0.85197500  0.53610900  0.64403200  1
  O  O11  1  0.35197700  0.53611100  0.14404100  1
  O  O12  1  0.13678900  0.33466400  0.36067100  1
  O  O13  1  0.63678800  0.33467400  0.86061700  1
  O  O14  1  0.86322300  0.83467300  0.63936000  1
  O  O15  1  0.36321900  0.83468400  0.13937100  1
  O  O16  1  0.96893700  0.68451300  0.40918700  1
  O  O17  1  0.46893900  0.68451100  0.90918700  1
  O  O18  1  0.03106800  0.18449900  0.59081800  1
  O  O19  1  0.53106400  0.18451000  0.09081500  1
  O  O20  1  0.72875400  0.44210400  0.35763500  1
  O  O21  1  0.22876400  0.44210300  0.85764300  1
  O  O22  1  0.27124600  0.94210300  0.64236000  1
  O  O23  1  0.77124500  0.94210600  0.14236300  1
  O  O24  1  0.82530900  0.17102100  0.42770600  1
  O  O25  1  0.32528900  0.17101200  0.92770800  1
  O  O26  1  0.17469900  0.67101300  0.57230000  1
  O  O27  1  0.67470300  0.67100900  0.07230100  1
loop_
_geom_bond_atom_site_label_1
_geom_bond_atom_site_label_2
_geom_bond_distance
_geom_bond_site_symmetry_2
Li0 O8 1.974105 1_565
Li0 O15 1.975772 1_555
Li0 O16 2.003215 1_455
Li0 O4 2.180198 1_455
Li1 O9 1.974001 1_565
Li1 O14 1.975957 1_555
Li1 O17 2.003210 1_555
Li1 O5 2.180085 1_555
Li2 O10 1.974191 1_555
Li2 O13 1.975690 1_555
Li2 O18 2.003250 1_655
Li2 O6 2.179864 1_655
Li3 O11 1.973976 1_555
Li3 O12 1.976036 1_555
Li3 O19 2.003192 1_555
Li3 O7 2.180115 1_555
Li4 O22 1.963559 1_545
Li4 O1 2.027613 1_555
Li4 O18 2.066543 1_555
Li4 O7 2.209158 1_555
Li5 O23 1.963556 1_545
Li5 O0 2.027671 1_655
Li5 O19 2.066490 1_555
Li5 O6 2.208970 1_654
Li6 O20 1.963633 1_555
Li6 O3 2.027610 1_555
Li6 O16 2.066531 1_555
Li6 O5 2.209112 1_555
Li7 O21 1.963567 1_555
Li7 O2 2.027662 1_455
Li7 O17 2.066558 1_555
Li7 O4 2.209027 1_456
O0 P7 1.530094 1_554
O0 V2 2.166675 1_555
O1 P6 1.530105 1_555
O1 V0 2.166461 1_555
O2 P5 1.530100 1_556
O2 V3 2.166641 1_555
O3 P4 1.530070 1_555
O3 V1 2.166544 1_555
O4 P5 1.538892 1_555
O4 V2 2.179792 1_655
O5 P4 1.539040 1_555
O5 V0 2.179454 1_555
O6 P7 1.539009 1_555
O6 V3 2.179757 1_445
O7 P6 1.539057 1_555
O7 V1 2.179385 1_545
O8 P0 1.527846 1_555
O8 V1 2.201435 1_545
O9 P1 1.527836 1_555
O9 V3 2.201737 1_545
O10 P2 1.527807 1_555
O10 V0 2.201436 1_555
O11 P3 1.527781 1_555
O11 V2 2.201775 1_555
O12 P0 1.525451 1_555
O12 V2 2.111690 1_555
O13 P1 1.525702 1_555
O13 V0 2.111562 1_555
O14 P2 1.525513 1_555
O14 V3 2.111472 1_555
O15 P3 1.525723 1_555
O15 V1 2.111688 1_555
O16 P2 1.549049 1_555
O16 V2 2.237321 1_655
O17 P3 1.549054 1_556
O17 V0 2.237566 1_555
O18 P0 1.549086 1_555
O18 V3 2.237165 1_445
O19 P1 1.549089 1_554
O19 V1 2.237379 1_545
O20 P6 1.530381 1_555
O20 V2 2.182471 1_655
O21 P7 1.530428 1_555
O21 V0 2.182797 1_555
O22 P4 1.530415 1_555
O22 V3 2.182489 1_455
O23 P5 1.530428 1_555
O23 V1 2.182778 1_555
O24 P0 1.621920 1_655
O24 P6 1.622259 1_555
O25 P1 1.622015 1_555
O25 P7 1.622275 1_555
O26 P2 1.622017 1_455
O26 P4 1.622265 1_555
O27 P3 1.621985 1_555
O27 P5 1.622281 1_555
