# generated using pymatgen
data_Mn2OF3
_symmetry_space_group_name_H-M   'P 1'
_cell_length_a   5.80770492
_cell_length_b   5.80770492
_cell_length_c   9.47971115
_cell_angle_alpha   86.32839342
_cell_angle_beta   86.32839342
_cell_angle_gamma   72.11314843
_symmetry_Int_Tables_number   1
_chemical_formula_structural   Mn2OF3
_chemical_formula_sum   'Mn8 O4 F12'
_cell_volume   303.33425596
_cell_formula_units_Z   4
loop_
 _symmetry_equiv_pos_site_id
 _symmetry_equiv_pos_as_xyz
  1  'x, y, z'
loop_
 _atom_site_type_symbol
 _atom_site_label
 _atom_site_symmetry_multiplicity
 _atom_site_fract_x
 _atom_site_fract_y
 _atom_site_fract_z
 _atom_site_occupancy
  Mn  Mn0  1  0.64619000  0.64619000  0.88483300  1
  Mn  Mn1  1  0.88585600  0.88585600  0.60824500  1
  Mn  Mn2  1  0.25449700  0.25449700  0.76293200  1
  Mn  Mn3  1  0.50000000  0.50000000  0.50000000  1
  Mn  Mn4  1  0.74550300  0.74550300  0.23706800  1
  Mn  Mn5  1  0.11414400  0.11414400  0.39175500  1
  Mn  Mn6  1  0.35381000  0.35381000  0.11516700  1
  Mn  Mn7  1  0.00000000  0.00000000  0.00000000  1
  O  O0  1  0.81193500  0.18806500  0.50000000  1
  O  O1  1  0.20570900  0.20570900  0.97243200  1
  O  O2  1  0.79429100  0.79429100  0.02756800  1
  O  O3  1  0.18806500  0.81193500  0.50000000  1
  F  F0  1  0.95286200  0.57549700  0.73260500  1
  F  F1  1  0.57549700  0.95286200  0.73260500  1
  F  F2  1  0.72167800  0.72167800  0.45807900  1
  F  F3  1  0.48305900  0.48305900  0.73444600  1
  F  F4  1  0.97667300  0.97667300  0.21864100  1
  F  F5  1  0.02332700  0.02332700  0.78135900  1
  F  F6  1  0.51694100  0.51694100  0.26555400  1
  F  F7  1  0.27832200  0.27832200  0.54192100  1
  F  F8  1  0.69376000  0.30624000  0.00000000  1
  F  F9  1  0.42450300  0.04713800  0.26739500  1
  F  F10  1  0.30624000  0.69376000  0.00000000  1
  F  F11  1  0.04713800  0.42450300  0.26739500  1
loop_
_geom_bond_atom_site_label_1
_geom_bond_atom_site_label_2
_geom_bond_distance
_geom_bond_site_symmetry_2
Mn0 O2 2.015700 1_556
Mn1 O3 1.918507 1_655
Mn1 O0 1.918507 1_565
Mn2 O1 2.002483 1_555
Mn3 O3 2.132588 1_555
Mn3 O0 2.132588 1_555
Mn4 O2 2.002483 1_555
Mn5 O3 1.918507 1_545
Mn5 O0 1.918507 1_455
Mn6 O1 2.015700 1_554
Mn7 O1 1.928648 1_554
Mn7 O2 1.928648 1_445
F0 Mn1 2.036143 1_555
F0 Mn2 2.148655 1_655
F0 Mn0 2.172724 1_555
F1 Mn1 2.036143 1_555
F1 Mn2 2.148655 1_565
F1 Mn0 2.172724 1_555
F2 Mn3 2.088072 1_555
F2 Mn4 2.089336 1_555
F2 Mn1 2.179658 1_555
F3 Mn2 2.141863 1_555
F3 Mn0 2.173695 1_555
F3 Mn3 2.215562 1_555
F4 Mn7 2.066869 1_665
F4 Mn4 2.163941 1_555
F4 Mn5 2.166827 1_665
F5 Mn7 2.066869 1_556
F5 Mn2 2.163941 1_555
F5 Mn1 2.166827 1_445
F6 Mn4 2.141863 1_555
F6 Mn6 2.173695 1_555
F6 Mn3 2.215562 1_555
F7 Mn3 2.088072 1_555
F7 Mn2 2.089336 1_555
F7 Mn5 2.179658 1_555
F8 Mn7 2.093653 1_655
F8 Mn6 2.143298 1_555
F8 Mn0 2.143298 1_554
F9 Mn5 2.036143 1_555
F9 Mn4 2.148655 1_545
F9 Mn6 2.172724 1_555
F10 Mn7 2.093653 1_565
F10 Mn6 2.143298 1_555
F10 Mn0 2.143298 1_554
F11 Mn5 2.036143 1_555
F11 Mn4 2.148655 1_455
F11 Mn6 2.172724 1_555
