# generated using pymatgen
data_Na7(CuO3)2
_symmetry_space_group_name_H-M   'P 1'
_cell_length_a   7.83062516
_cell_length_b   7.83062516
_cell_length_c   10.72614717
_cell_angle_alpha   76.30868885
_cell_angle_beta   76.30868885
_cell_angle_gamma   43.18370451
_symmetry_Int_Tables_number   1
_chemical_formula_structural   Na7(CuO3)2
_chemical_formula_sum   'Na14 Cu4 O12'
_cell_volume   435.27254212
_cell_formula_units_Z   2
loop_
 _symmetry_equiv_pos_site_id
 _symmetry_equiv_pos_as_xyz
  1  'x, y, z'
loop_
 _atom_site_type_symbol
 _atom_site_label
 _atom_site_symmetry_multiplicity
 _atom_site_fract_x
 _atom_site_fract_y
 _atom_site_fract_z
 _atom_site_occupancy
  Na  Na0  1  0.30385500  0.57768300  0.15101500  1
  Na  Na1  1  0.42633600  0.23908400  0.40546300  1
  Na  Na2  1  0.57768300  0.30385500  0.65101500  1
  Na  Na3  1  0.81127600  0.74113200  0.30358200  1
  Na  Na4  1  0.23908400  0.42633600  0.90546300  1
  Na  Na5  1  0.25886800  0.18872400  0.19641800  1
  Na  Na6  1  0.74113200  0.81127600  0.80358200  1
  Na  Na7  1  0.76091600  0.57366400  0.09453700  1
  Na  Na8  1  0.18872400  0.25886800  0.69641800  1
  Na  Na9  1  0.42231700  0.69614500  0.34898500  1
  Na  Na10  1  0.57366400  0.76091600  0.59453700  1
  Na  Na11  1  0.93068100  0.06931900  0.25000000  1
  Na  Na12  1  0.69614500  0.42231700  0.84898500  1
  Na  Na13  1  0.06931900  0.93068100  0.75000000  1
  Cu  Cu0  1  0.75610500  0.99702600  0.03899400  1
  Cu  Cu1  1  0.99702600  0.75610500  0.53899400  1
  Cu  Cu2  1  0.00297400  0.24389500  0.46100600  1
  Cu  Cu3  1  0.24389500  0.00297400  0.96100600  1
  O  O0  1  0.13158800  0.67367900  0.37235200  1
  O  O1  1  0.60732900  0.14926400  0.19112300  1
  O  O2  1  0.67367900  0.13158800  0.87235200  1
  O  O3  1  0.99998600  0.65231800  0.08220100  1
  O  O4  1  0.14926400  0.60732900  0.69112300  1
  O  O5  1  0.34768200  0.00001400  0.41779900  1
  O  O6  1  0.65231800  0.99998600  0.58220100  1
  O  O7  1  0.85073600  0.39267100  0.30887700  1
  O  O8  1  0.00001400  0.34768200  0.91779900  1
  O  O9  1  0.32632100  0.86841200  0.12764800  1
  O  O10  1  0.39267100  0.85073600  0.80887700  1
  O  O11  1  0.86841200  0.32632100  0.62764800  1
loop_
_geom_bond_atom_site_label_1
_geom_bond_atom_site_label_2
_geom_bond_distance
_geom_bond_site_symmetry_2
Na0 O3 2.268806 1_455
Na0 O1 2.293788 1_555
Na0 O9 2.360024 1_555
Na0 O0 2.423030 1_555
Na1 O6 2.303644 1_545
Na1 O0 2.322911 1_555
Na1 O5 2.329622 1_555
Na1 O1 2.357599 1_555
Na2 O6 2.268806 1_545
Na2 O4 2.293788 1_555
Na2 O11 2.360024 1_555
Na2 O2 2.423030 1_555
Na3 O1 2.421408 1_565
Na3 O0 2.423576 1_655
Na3 O3 2.434717 1_555
Na3 O7 2.499938 1_555
Na3 O5 2.669684 1_565
Na4 O3 2.303644 1_456
Na4 O2 2.322911 1_555
Na4 O8 2.329622 1_555
Na4 O4 2.357599 1_555
Na5 O7 2.421408 1_455
Na5 O9 2.423576 1_545
Na5 O5 2.434717 1_555
Na5 O1 2.499938 1_555
Na5 O3 2.669684 1_455
Na6 O4 2.421408 1_655
Na6 O2 2.423576 1_565
Na6 O6 2.434717 1_555
Na6 O10 2.499938 1_555
Na6 O8 2.669684 1_655
Na7 O8 2.303644 1_654
Na7 O9 2.322911 1_555
Na7 O3 2.329622 1_555
Na7 O7 2.357599 1_555
Na8 O10 2.421408 1_545
Na8 O11 2.423576 1_455
Na8 O8 2.434717 1_555
Na8 O4 2.499938 1_555
Na8 O6 2.669684 1_545
Na9 O5 2.268806 1_565
Na9 O7 2.293788 1_555
Na9 O0 2.360024 1_555
Na9 O9 2.423030 1_555
Na10 O5 2.303644 1_565
Na10 O11 2.322911 1_555
Na10 O6 2.329622 1_555
Na10 O10 2.357599 1_555
Na11 O1 2.336705 1_555
Na11 O7 2.336705 1_555
Na11 O0 2.395906 1_645
Na11 O9 2.395906 1_645
Na12 O8 2.268806 1_655
Na12 O10 2.293788 1_555
Na12 O2 2.360024 1_555
Na12 O11 2.423030 1_555
Na13 O10 2.336705 1_555
Na13 O4 2.336705 1_555
Na13 O11 2.395906 1_465
Na13 O2 2.395906 1_465
Cu0 O2 1.839708 1_564
Cu0 O1 1.853807 1_565
Cu0 O3 1.859361 1_555
Cu1 O0 1.839708 1_655
Cu1 O4 1.853807 1_655
Cu1 O6 1.859361 1_555
Cu2 O11 1.839708 1_455
Cu2 O7 1.853807 1_455
Cu2 O5 1.859361 1_555
Cu3 O9 1.839708 1_546
Cu3 O10 1.853807 1_545
Cu3 O8 1.859361 1_555
