# generated using pymatgen
data_Li6Co5(P2O7)4
_symmetry_space_group_name_H-M   'P 1'
_cell_length_a   6.35494900
_cell_length_b   8.47533626
_cell_length_c   10.05197478
_cell_angle_alpha   107.77419277
_cell_angle_beta   90.32113701
_cell_angle_gamma   92.77006910
_symmetry_Int_Tables_number   1
_chemical_formula_structural   Li6Co5(P2O7)4
_chemical_formula_sum   'Li6 Co5 P8 O28'
_cell_volume   514.83950981
_cell_formula_units_Z   1
loop_
 _symmetry_equiv_pos_site_id
 _symmetry_equiv_pos_as_xyz
  1  'x, y, z'
loop_
 _atom_site_type_symbol
 _atom_site_label
 _atom_site_symmetry_multiplicity
 _atom_site_fract_x
 _atom_site_fract_y
 _atom_site_fract_z
 _atom_site_occupancy
  Li  Li0  1  0.00000000  0.50000000  0.50000000  1
  Li  Li1  1  0.01916600  0.16246300  0.60932500  1
  Li  Li2  1  0.09306600  0.60695300  0.12415500  1
  Li  Li3  1  0.50000000  0.50000000  0.50000000  1
  Li  Li4  1  0.90693400  0.39304700  0.87584500  1
  Li  Li5  1  0.98083400  0.83753700  0.39067500  1
  Co  Co0  1  0.31105600  0.88677000  0.64395100  1
  Co  Co1  1  0.35736800  0.88185100  0.06027500  1
  Co  Co2  1  0.50000000  0.50000000  0.00000000  1
  Co  Co3  1  0.64263200  0.11814900  0.93972500  1
  Co  Co4  1  0.68894400  0.11323000  0.35604900  1
  P  P0  1  0.15174300  0.20651200  0.01713200  1
  P  P1  1  0.18727400  0.18114100  0.31129600  1
  P  P2  1  0.26394700  0.54015700  0.73836300  1
  P  P3  1  0.47542500  0.75416300  0.32030800  1
  P  P4  1  0.52457500  0.24583700  0.67969200  1
  P  P5  1  0.73605300  0.45984300  0.26163700  1
  P  P6  1  0.81272600  0.81885900  0.68870400  1
  P  P7  1  0.84825700  0.79348800  0.98286800  1
  O  O0  1  0.04378400  0.83879500  0.07802800  1
  O  O1  1  0.01767700  0.08473300  0.36977600  1
  O  O2  1  0.06915200  0.42468600  0.72305800  1
  O  O3  1  0.07926900  0.20061300  0.16835300  1
  O  O4  1  0.22258400  0.38639000  0.02740400  1
  O  O5  1  0.23727400  0.35341500  0.40947600  1
  O  O6  1  0.25799900  0.64901200  0.64086600  1
  O  O7  1  0.29928900  0.80671200  0.42377700  1
  O  O8  1  0.33656300  0.63418100  0.88897900  1
  O  O9  1  0.32672000  0.13033900  0.65079100  1
  O  O10  1  0.32646200  0.08064100  0.96980600  1
  O  O11  1  0.39294400  0.70922000  0.16674100  1
  O  O12  1  0.38495100  0.07985800  0.26094700  1
  O  O13  1  0.45889300  0.42311900  0.66852500  1
  O  O14  1  0.54110700  0.57688100  0.33147500  1
  O  O15  1  0.61504900  0.92014200  0.73905300  1
  O  O16  1  0.60705600  0.29078000  0.83325900  1
  O  O17  1  0.67353800  0.91935900  0.03019400  1
  O  O18  1  0.67328000  0.86966100  0.34920900  1
  O  O19  1  0.66343700  0.36581900  0.11102100  1
  O  O20  1  0.70071100  0.19328800  0.57622300  1
  O  O21  1  0.74200100  0.35098800  0.35913400  1
  O  O22  1  0.76272600  0.64658500  0.59052400  1
  O  O23  1  0.77741600  0.61361000  0.97259600  1
  O  O24  1  0.92073100  0.79938700  0.83164700  1
  O  O25  1  0.93084800  0.57531400  0.27694200  1
  O  O26  1  0.98232300  0.91526700  0.63022400  1
  O  O27  1  0.95621600  0.16120500  0.92197200  1
loop_
_geom_bond_atom_site_label_1
_geom_bond_atom_site_label_2
_geom_bond_distance
_geom_bond_site_symmetry_2
Li0 O5 2.037488 1_555
Li0 O22 2.037488 1_455
Li0 O21 2.229397 1_455
Li0 O6 2.229397 1_555
Li0 O25 2.552993 1_455
Li0 O2 2.552993 1_555
Li1 O9 2.044377 1_555
Li1 O20 2.090747 1_455
Li1 O26 2.170280 1_445
Li1 O2 2.173376 1_555
Li1 O1 2.294103 1_555
Li2 O25 1.932825 1_455
Li2 O4 2.040951 1_555
Li2 O11 2.042278 1_555
Li2 O0 2.188185 1_555
Li2 O23 2.525290 1_454
Li3 O14 2.006215 1_555
Li3 O13 2.006215 1_555
Li3 O22 2.061877 1_555
Li3 O5 2.061877 1_555
Li3 O21 2.255100 1_555
Li3 O6 2.255100 1_555
Li4 O2 1.932825 1_655
Li4 O23 2.040951 1_555
Li4 O16 2.042278 1_555
Li4 O27 2.188185 1_555
Li4 O4 2.525290 1_656
Li5 O18 2.044377 1_555
Li5 O7 2.090747 1_655
Li5 O1 2.170280 1_665
Li5 O25 2.173376 1_555
Li5 O26 2.294103 1_555
Co0 O6 2.017734 1_555
Co0 O9 2.041935 1_565
Co0 O7 2.107267 1_555
Co0 O15 2.118337 1_555
Co0 O26 2.123091 1_455
Co1 O0 2.027253 1_555
Co1 O17 2.057500 1_555
Co1 O11 2.079024 1_555
Co1 O10 2.160920 1_564
Co1 O12 2.194713 1_565
Co1 O8 2.269892 1_554
Co2 O23 2.028392 1_554
Co2 O4 2.028392 1_555
Co2 O19 2.119783 1_555
Co2 O8 2.119783 1_554
Co2 O11 2.175137 1_555
Co2 O16 2.175137 1_554
Co3 O27 2.027253 1_555
Co3 O10 2.057500 1_555
Co3 O16 2.079024 1_555
Co3 O17 2.160920 1_546
Co3 O15 2.194713 1_545
Co3 O19 2.269892 1_556
Co4 O21 2.017734 1_555
Co4 O18 2.041935 1_545
Co4 O20 2.107267 1_555
Co4 O12 2.118337 1_555
Co4 O1 2.123091 1_655
O0 P7 1.524041 1_454
O1 P1 1.545974 1_555
O2 P2 1.517467 1_555
O3 P0 1.605383 1_555
O3 P1 1.645468 1_555
O4 P0 1.540957 1_555
O5 P1 1.509525 1_555
O6 P2 1.538843 1_555
O7 P3 1.520340 1_555
O8 P2 1.536286 1_555
O9 P4 1.525412 1_555
O10 P0 1.551699 1_556
O11 P3 1.554137 1_555
O12 P1 1.554744 1_555
O13 P4 1.614767 1_555
O13 P2 1.647708 1_555
O14 P3 1.614767 1_555
O14 P5 1.647708 1_555
O15 P6 1.554744 1_555
O16 P4 1.554137 1_555
O17 P7 1.551699 1_554
O18 P3 1.525412 1_555
O19 P5 1.536286 1_555
O20 P4 1.520340 1_555
O21 P5 1.538843 1_555
O22 P6 1.509525 1_555
O23 P7 1.540957 1_555
O24 P7 1.605383 1_555
O24 P6 1.645468 1_555
O25 P5 1.517467 1_555
O26 P6 1.545974 1_555
O27 P0 1.524041 1_656
