# generated using pymatgen
data_LiV2OF5
_symmetry_space_group_name_H-M   'P 1'
_cell_length_a   9.25754000
_cell_length_b   9.28493345
_cell_length_c   17.29045401
_cell_angle_alpha   83.84578191
_cell_angle_beta   81.64010300
_cell_angle_gamma   63.48932558
_symmetry_Int_Tables_number   1
_chemical_formula_structural   LiV2OF5
_chemical_formula_sum   'Li12 V24 O12 F60'
_cell_volume   1314.30398121
_cell_formula_units_Z   12
loop_
 _symmetry_equiv_pos_site_id
 _symmetry_equiv_pos_as_xyz
  1  'x, y, z'
loop_
 _atom_site_type_symbol
 _atom_site_label
 _atom_site_symmetry_multiplicity
 _atom_site_fract_x
 _atom_site_fract_y
 _atom_site_fract_z
 _atom_site_occupancy
  Li  Li0  1  0.71432900  0.97146600  0.93580300  1
  Li  Li1  1  0.67746100  0.72481900  0.82022900  1
  Li  Li2  1  0.81547000  0.70150500  0.43750200  1
  Li  Li3  1  0.53310600  0.62973400  0.55462000  1
  Li  Li4  1  0.34715400  0.39198800  0.82096000  1
  Li  Li5  1  0.57915200  0.39507500  0.07793400  1
  Li  Li6  1  0.48133000  0.36658200  0.43723700  1
  Li  Li7  1  0.19873600  0.29582700  0.55505700  1
  Li  Li8  1  0.01272200  0.62942200  0.05828400  1
  Li  Li9  1  0.01100800  0.06328900  0.82206000  1
  Li  Li10  1  0.24700100  0.06033200  0.07805800  1
  Li  Li11  1  0.14631500  0.03185000  0.43779900  1
  V  V0  1  0.75078800  0.99249700  0.74981200  1
  V  V1  1  0.88346600  0.98275000  0.37031000  1
  V  V2  1  0.92037400  0.67667600  0.25531900  1
  V  V3  1  0.78641600  0.67242400  0.62298600  1
  V  V4  1  0.51333100  0.98164900  0.50328500  1
  V  V5  1  0.96132200  0.34034900  0.12353100  1
  V  V6  1  0.41987300  0.66037800  0.75215800  1
  V  V7  1  0.64660000  0.67086700  0.00432100  1
  V  V8  1  0.54997800  0.64975100  0.36826900  1
  V  V9  1  0.84570100  0.31348400  0.50424600  1
  V  V10  1  0.68863900  0.34996400  0.87192100  1
  V  V11  1  0.58991100  0.33674900  0.25636400  1
  V  V12  1  0.29712900  0.67604300  0.12300100  1
  V  V13  1  0.45157700  0.33550600  0.62391600  1
  V  V14  1  0.98093100  0.00572300  0.00326600  1
  V  V15  1  0.17538300  0.65102600  0.50443100  1
  V  V16  1  0.02549700  0.67935300  0.86867800  1
  V  V17  1  0.63538200  0.00174400  0.12232300  1
  V  V18  1  0.08491300  0.32535200  0.75208200  1
  V  V19  1  0.31550700  0.33724600  0.00230900  1
  V  V20  1  0.21459900  0.31968400  0.36812300  1
  V  V21  1  0.35353800  0.01477600  0.87117800  1
  V  V22  1  0.25632000  0.00669600  0.25705700  1
  V  V23  1  0.11597700  0.99973400  0.62367100  1
  O  O0  1  0.84479100  0.80644400  0.81599500  1
  O  O1  1  0.89225500  0.79035700  0.34366000  1
  O  O2  1  0.61379000  0.78921400  0.56201400  1
  O  O3  1  0.95506400  0.13140900  0.56317100  1
  O  O4  1  0.51758700  0.46738200  0.81237300  1
  O  O5  1  0.45388600  0.66691100  0.03997600  1
  O  O6  1  0.55862900  0.45616000  0.34334200  1
  O  O7  1  0.28101100  0.45651000  0.56246100  1
  O  O8  1  0.77878300  0.00750900  0.03161800  1
  O  O9  1  0.18384600  0.13352600  0.81213600  1
  O  O10  1  0.11601100  0.34674000  0.04088000  1
  O  O11  1  0.22351900  0.12534300  0.34431300  1
  F  F0  1  0.79356700  0.86540100  0.65746700  1
  F  F1  1  0.87978700  0.68232700  0.96904400  1
  F  F2  1  0.94864100  0.65696100  0.52536800  1
  F  F3  1  0.53386100  0.98264600  0.78540100  1
  F  F4  1  0.81109700  0.87623200  0.18639600  1
  F  F5  1  0.97139300  0.52837200  0.68537900  1
  F  F6  1  0.55834400  0.88187900  0.93262600  1
  F  F7  1  0.63608600  0.67326200  0.72339500  1
  F  F8  1  0.69735800  0.55692100  0.90314400  1
  F  F9  1  0.94380200  0.55390200  0.15594400  1
  F  F10  1  0.47151100  0.00328800  0.21058600  1
  F  F11  1  0.55021200  0.85023000  0.41109100  1
  F  F12  1  0.21532100  0.00622400  0.97115400  1
  F  F13  1  0.70385100  0.66893700  0.28300100  1
  F  F14  1  0.64979900  0.79112400  0.08920100  1
  F  F15  1  0.28190500  0.99773800  0.52620400  1
  F  F16  1  0.38573900  0.79521600  0.84098000  1
  F  F17  1  0.86769800  0.31454400  0.78482100  1
  F  F18  1  0.78412000  0.47068600  0.59112900  1
  F  F19  1  0.30515100  0.86389700  0.68693100  1
  F  F20  1  0.73261000  0.53414100  0.44341800  1
  F  F21  1  0.88781100  0.20321100  0.92944300  1
  F  F22  1  0.76754200  0.45026900  0.06103400  1
  F  F23  1  0.35666500  0.79499100  0.31343000  1
  F  F24  1  0.96835300  0.00688600  0.72489700  1
  F  F25  1  0.45927300  0.54026700  0.65284300  1
  F  F26  1  0.39925200  0.65678200  0.47172600  1
  F  F27  1  0.02311500  0.88919900  0.90236700  1
  F  F28  1  0.80703600  0.33329100  0.21290600  1
  F  F29  1  0.27702700  0.88781700  0.15639700  1
  F  F30  1  0.88654700  0.18525000  0.41208700  1
  F  F31  1  0.54754300  0.33935600  0.97121900  1
  F  F32  1  0.99009000  0.12364600  0.08954100  1
  F  F33  1  0.03798500  0.00212600  0.28571800  1
  F  F34  1  0.61118800  0.33280200  0.52711800  1
  F  F35  1  0.70816100  0.12593500  0.84527000  1
  F  F36  1  0.20285800  0.64908000  0.78389600  1
  F  F37  1  0.13471400  0.79080000  0.59255900  1
  F  F38  1  0.48386500  0.52859000  0.18363600  1
  F  F39  1  0.63532100  0.19944000  0.68868400  1
  F  F40  1  0.07591900  0.86226500  0.43989700  1
  F  F41  1  0.21154600  0.54308300  0.93358900  1
  F  F42  1  0.68920400  0.12881300  0.31362300  1
  F  F43  1  0.10213400  0.78569100  0.05967400  1
  F  F44  1  0.30222900  0.34087900  0.72376200  1
  F  F45  1  0.72212400  0.99516300  0.46543800  1
  F  F46  1  0.36479400  0.22099700  0.90274600  1
  F  F47  1  0.61262200  0.21879100  0.15474200  1
  F  F48  1  0.13817000  0.66995800  0.21157400  1
  F  F49  1  0.21739300  0.52044000  0.41190500  1
  F  F50  1  0.36939100  0.33489300  0.28384900  1
  F  F51  1  0.31547900  0.46262500  0.08800300  1
  F  F52  1  0.04729600  0.46431400  0.83934300  1
  F  F53  1  0.45066700  0.13485600  0.59228500  1
  F  F54  1  0.39676900  0.20312000  0.44417300  1
  F  F55  1  0.43698400  0.11605400  0.05937300  1
  F  F56  1  0.02083500  0.46508100  0.31308000  1
  F  F57  1  0.12651500  0.20647900  0.65369400  1
  F  F58  1  0.06413400  0.32910500  0.47082700  1
  F  F59  1  0.14905300  0.19911300  0.18326200  1
loop_
_geom_bond_atom_site_label_1
_geom_bond_atom_site_label_2
_geom_bond_distance
_geom_bond_site_symmetry_2
Li0 O8 1.948644 1_566
Li0 O0 2.529551 1_555
Li1 O0 1.995632 1_555
Li2 O1 1.928669 1_555
Li3 O2 1.955161 1_555
Li4 O4 1.974113 1_555
Li5 O5 2.323615 1_555
Li6 O6 1.934828 1_555
Li7 O7 1.976395 1_555
Li8 O10 2.395623 1_555
Li9 O9 1.960260 1_555
Li10 O10 2.436556 1_555
Li11 O11 1.947888 1_555
O0 V16 1.863100 1_655
O0 V0 1.890686 1_555
O1 V1 1.856300 1_555
O1 V2 1.870771 1_555
O2 V4 1.868333 1_555
O2 V3 1.881205 1_555
O3 V9 1.823102 1_555
O3 V23 1.833334 1_645
O4 V10 1.856997 1_555
O4 V6 1.881517 1_555
O5 V7 1.816067 1_555
O5 V12 1.866651 1_555
O6 V8 1.857596 1_555
O6 V11 1.875911 1_555
O7 V13 1.879587 1_555
O7 V15 1.882805 1_555
O8 V14 1.857412 1_555
O8 V17 1.914397 1_555
O9 V21 1.845098 1_555
O9 V18 1.874311 1_555
O10 V19 1.836433 1_555
O10 V5 1.886560 1_455
O11 V20 1.857065 1_555
O11 V22 1.872556 1_555
F0 V0 1.975283 1_555
F0 V3 1.979068 1_555
F1 Li8 1.996654 1_656
F1 V16 2.031797 1_655
F1 V7 2.202676 1_556
F1 Li0 2.477488 1_555
F2 Li2 1.988405 1_555
F2 V15 2.054325 1_655
F2 V3 2.060895 1_555
F3 V21 2.001430 1_565
F3 V0 2.052440 1_555
F3 Li1 2.223362 1_555
F4 V17 1.945869 1_565
F4 V2 2.020014 1_555
F5 V3 2.016998 1_555
F5 V18 2.026256 1_655
F6 Li0 1.971128 1_555
F6 V7 2.094651 1_556
F6 V21 2.112423 1_565
F6 Li1 2.380820 1_555
F7 Li1 1.923845 1_555
F7 V6 2.044406 1_555
F7 V3 2.059519 1_555
F8 Li1 1.964875 1_555
F8 V7 2.028424 1_556
F8 V10 2.089020 1_555
F9 Li8 1.892704 1_655
F9 V5 2.048590 1_555
F9 V2 2.095174 1_555
F10 V17 1.985622 1_555
F10 V22 2.024590 1_555
F11 V4 2.008344 1_555
F11 V8 2.076710 1_555
F11 Li2 2.304172 1_555
F12 V21 2.012416 1_555
F12 Li10 2.059935 1_556
F12 V14 2.162126 1_456
F13 V8 1.947835 1_555
F13 V2 2.023459 1_555
F14 V7 1.948083 1_555
F14 V17 2.038390 1_565
F15 Li11 2.027713 1_565
F15 V4 2.061428 1_555
F15 V23 2.104401 1_555
F16 V6 1.985905 1_555
F16 V21 2.039074 1_565
F16 Li1 2.458053 1_555
F17 V10 2.004392 1_555
F17 V18 2.052098 1_655
F17 Li9 2.186405 1_655
F18 V3 2.018072 1_555
F18 V9 2.047063 1_555
F18 Li3 2.267675 1_555
F19 V6 2.017529 1_555
F19 V23 2.035553 1_555
F20 Li2 2.005225 1_555
F20 V9 2.084006 1_555
F20 V8 2.102070 1_555
F20 Li3 2.401180 1_555
F21 V14 2.035121 1_556
F21 V10 2.060434 1_555
F21 Li9 2.239330 1_655
F22 Li5 2.001810 1_555
F22 V5 2.029836 1_555
F22 V7 2.061978 1_555
F23 V22 1.974645 1_565
F23 V8 1.996272 1_555
F24 Li9 1.954155 1_655
F24 V23 2.045440 1_645
F24 V0 2.058076 1_545
F25 Li3 1.976964 1_555
F25 V6 2.047165 1_555
F25 V13 2.050594 1_555
F26 Li3 1.953026 1_555
F26 V8 2.090230 1_555
F26 V15 2.090312 1_555
F27 Li9 1.988893 1_565
F27 V14 2.048426 1_466
F27 V16 2.082625 1_555
F28 V5 1.962766 1_555
F28 V11 2.028372 1_555
F29 Li10 1.929901 1_565
F29 V12 2.029767 1_555
F29 V22 2.100064 1_565
F30 V9 1.982277 1_555
F30 V1 2.098287 1_545
F30 Li11 2.264236 1_655
F31 V10 2.022404 1_555
F31 Li5 2.062687 1_556
F31 V19 2.145496 1_556
F32 V14 1.975129 1_555
F32 V5 2.048026 1_555
F32 Li10 2.163598 1_655
F33 V1 1.944951 1_445
F33 V22 2.028203 1_555
F34 Li6 2.015165 1_555
F34 V13 2.059596 1_555
F34 V9 2.078409 1_555
F35 Li0 1.995530 1_545
F35 V0 2.056096 1_545
F35 V10 2.101785 1_555
F36 V16 1.974917 1_555
F36 V6 2.050255 1_555
F36 Li4 2.228800 1_555
F37 V15 1.992206 1_555
F37 V23 1.994754 1_555
F38 V11 2.008854 1_555
F38 V12 2.017027 1_555
F38 Li5 2.167011 1_555
F39 V0 2.002801 1_545
F39 V13 2.018846 1_555
F40 Li11 1.949946 1_565
F40 V15 2.038882 1_555
F40 V1 2.104476 1_455
F41 V16 2.034504 1_555
F41 V19 2.047991 1_556
F41 Li4 2.374692 1_555
F42 V11 1.955271 1_555
F42 V1 2.020977 1_545
F43 Li8 1.968858 1_555
F43 V12 2.046737 1_555
F43 V14 2.056352 1_465
F44 Li4 1.942420 1_555
F44 V13 2.038942 1_555
F44 V18 2.065255 1_555
F45 V4 2.002803 1_555
F45 V1 2.030319 1_555
F46 Li4 1.975175 1_555
F46 V19 2.016700 1_556
F46 V21 2.096136 1_555
F47 Li5 1.933807 1_555
F47 V17 2.061235 1_555
F47 V11 2.104930 1_555
F48 V12 1.978497 1_555
F48 V2 2.023774 1_455
F49 V15 1.998699 1_555
F49 V20 2.097507 1_555
F49 Li6 2.294295 1_555
F50 V20 1.930290 1_555
F50 V11 2.035017 1_555
F51 V19 1.979915 1_555
F51 V12 2.061157 1_555
F51 Li5 2.217000 1_555
F52 V18 1.981399 1_555
F52 V16 2.027847 1_555
F52 Li4 2.526437 1_555
F53 V13 2.000963 1_555
F53 V4 2.049687 1_545
F53 Li7 2.281666 1_555
F54 Li6 1.981177 1_555
F54 V4 2.080080 1_545
F54 V20 2.110635 1_555
F54 Li7 2.387617 1_555
F55 Li10 2.019063 1_555
F55 V17 2.068309 1_555
F55 V19 2.069396 1_555
F56 V2 1.985051 1_455
F56 V20 2.001252 1_555
F57 Li7 1.975885 1_555
F57 V18 2.023146 1_555
F57 V23 2.087936 1_545
F58 Li7 1.963853 1_555
F58 V20 2.075246 1_555
F58 V9 2.085214 1_455
F59 V5 2.000913 1_455
F59 V22 2.025308 1_555
F59 Li10 2.184340 1_555
