# generated using pymatgen
data_Li3MnV(PO4)3
_symmetry_space_group_name_H-M   'P 1'
_cell_length_a   9.03689172
_cell_length_b   9.03689172
_cell_length_c   9.03689173
_cell_angle_alpha   56.07671241
_cell_angle_beta   56.07671241
_cell_angle_gamma   56.07670847
_symmetry_Int_Tables_number   1
_chemical_formula_structural   Li3MnV(PO4)3
_chemical_formula_sum   'Li6 Mn2 V2 P6 O24'
_cell_volume   474.43120859
_cell_formula_units_Z   2
loop_
 _symmetry_equiv_pos_site_id
 _symmetry_equiv_pos_as_xyz
  1  'x, y, z'
loop_
 _atom_site_type_symbol
 _atom_site_label
 _atom_site_symmetry_multiplicity
 _atom_site_fract_x
 _atom_site_fract_y
 _atom_site_fract_z
 _atom_site_occupancy
  Li  Li0  1  0.07815000  0.73206600  0.33964300  1
  Li  Li1  1  0.33964300  0.07815000  0.73206600  1
  Li  Li2  1  0.73206600  0.33964300  0.07815000  1
  Li  Li3  1  0.26268200  0.67034400  0.91972400  1
  Li  Li4  1  0.67034400  0.91972400  0.26268200  1
  Li  Li5  1  0.91972400  0.26268200  0.67034400  1
  Mn  Mn0  1  0.85316500  0.85316500  0.85316500  1
  Mn  Mn1  1  0.65082100  0.65082100  0.65082100  1
  V  V0  1  0.34915400  0.34915400  0.34915400  1
  V  V1  1  0.14757400  0.14757400  0.14757400  1
  P  P0  1  0.75377100  0.04372800  0.45383200  1
  P  P1  1  0.04372800  0.45383200  0.75377100  1
  P  P2  1  0.45383200  0.75377100  0.04372800  1
  P  P3  1  0.53557700  0.25096000  0.96314700  1
  P  P4  1  0.96314700  0.53557700  0.25096000  1
  P  P5  1  0.25096000  0.96314700  0.53557700  1
  O  O0  1  0.79650400  0.85395500  0.44655400  1
  O  O1  1  0.53819300  0.16981300  0.48412000  1
  O  O2  1  0.16981300  0.48412000  0.53819300  1
  O  O3  1  0.85395500  0.44655400  0.79650400  1
  O  O4  1  0.44655400  0.79650400  0.85395500  1
  O  O5  1  0.80076200  0.01183800  0.60777000  1
  O  O6  1  0.14486800  0.25021900  0.88037500  1
  O  O7  1  0.01183800  0.60777000  0.80076200  1
  O  O8  1  0.48412000  0.53819300  0.16981300  1
  O  O9  1  0.25021900  0.88037500  0.14486800  1
  O  O10  1  0.60777000  0.80076200  0.01183800  1
  O  O11  1  0.88037500  0.14486800  0.25021900  1
  O  O12  1  0.12745300  0.86899600  0.73826900  1
  O  O13  1  0.38473100  0.18490400  0.00737500  1
  O  O14  1  0.73826900  0.12745300  0.86899600  1
  O  O15  1  0.49186200  0.46313000  0.84126200  1
  O  O16  1  0.00737500  0.38473100  0.18490400  1
  O  O17  1  0.86899600  0.73826900  0.12745300  1
  O  O18  1  0.18490400  0.00737500  0.38473100  1
  O  O19  1  0.53264300  0.21058200  0.15946200  1
  O  O20  1  0.15946200  0.53264300  0.21058200  1
  O  O21  1  0.84126200  0.49186200  0.46313000  1
  O  O22  1  0.46313000  0.84126200  0.49186200  1
  O  O23  1  0.21058200  0.15946200  0.53264300  1
loop_
_geom_bond_atom_site_label_1
_geom_bond_atom_site_label_2
_geom_bond_distance
_geom_bond_site_symmetry_2
Li0 O0 1.984623 1_455
Li0 O9 1.987581 1_555
Li0 O2 2.006500 1_555
Li0 O20 2.249316 1_555
Li1 O4 1.984623 1_545
Li1 O6 1.987581 1_555
Li1 O1 2.006500 1_555
Li1 O23 2.249316 1_555
Li2 O3 1.984623 1_554
Li2 O11 1.987581 1_555
Li2 O8 2.006500 1_555
Li2 O19 2.249316 1_555
Li3 O15 1.952634 1_555
Li3 O12 1.976705 1_555
Li3 O20 2.058052 1_556
Li3 O4 2.161002 1_555
Li4 O22 1.952634 1_555
Li4 O17 1.976705 1_555
Li4 O19 2.058052 1_565
Li4 O0 2.161002 1_555
Li5 O21 1.952634 1_555
Li5 O14 1.976706 1_555
Li5 O23 2.058052 1_655
Li5 O3 2.161002 1_555
Mn0 O7 2.015725 1_655
Mn0 O5 2.015725 1_565
Mn0 O10 2.015725 1_556
Mn0 O14 2.144746 1_565
Mn0 O17 2.144746 1_556
Mn0 O12 2.144746 1_655
Mn1 O22 2.145752 1_555
Mn1 O21 2.145752 1_555
Mn1 O15 2.145752 1_555
Mn1 O3 2.171000 1_555
Mn1 O4 2.171000 1_555
Mn1 O0 2.171001 1_555
O0 P0 1.566167 1_565
O1 P0 1.563267 1_555
O1 V0 2.015348 1_555
O2 P1 1.563267 1_555
O2 V0 2.015348 1_555
O3 P1 1.566167 1_655
O4 P2 1.566167 1_556
O5 P0 1.507945 1_555
O6 P1 1.571742 1_555
O6 V1 2.057218 1_556
O7 P1 1.507945 1_555
O8 P2 1.563267 1_555
O8 V0 2.015348 1_555
O9 P2 1.571742 1_555
O9 V1 2.057218 1_565
O10 P2 1.507945 1_555
O11 P0 1.571742 1_555
O11 V1 2.057218 1_655
O12 P5 1.537311 1_555
O13 P3 1.551829 1_554
O13 V1 1.900350 1_555
O14 P3 1.537310 1_555
O15 P3 1.525961 1_555
O16 P4 1.551829 1_455
O16 V1 1.900350 1_555
O17 P4 1.537311 1_555
O18 P5 1.551829 1_545
O18 V1 1.900350 1_555
O19 P3 1.586490 1_554
O19 V0 2.040081 1_555
O20 P4 1.586490 1_455
O20 V0 2.040081 1_555
O21 P4 1.525961 1_555
O22 P5 1.525961 1_555
O23 P5 1.586490 1_545
O23 V0 2.040081 1_555
