# generated using pymatgen
data_Ba3U2(PO5)4
_symmetry_space_group_name_H-M   'P 1'
_cell_length_a   8.90392900
_cell_length_b   9.63509000
_cell_length_c   10.73029840
_cell_angle_alpha   82.56618521
_cell_angle_beta   90.00000000
_cell_angle_gamma   90.00000000
_symmetry_Int_Tables_number   1
_chemical_formula_structural   Ba3U2(PO5)4
_chemical_formula_sum   'Ba6 U4 P8 O40'
_cell_volume   912.81671026
_cell_formula_units_Z   2
loop_
 _symmetry_equiv_pos_site_id
 _symmetry_equiv_pos_as_xyz
  1  'x, y, z'
loop_
 _atom_site_type_symbol
 _atom_site_label
 _atom_site_symmetry_multiplicity
 _atom_site_fract_x
 _atom_site_fract_y
 _atom_site_fract_z
 _atom_site_occupancy
  Ba  Ba0  1  0.00000000  0.50000000  0.00000000  1
  Ba  Ba1  1  0.50000000  0.50000000  0.50000000  1
  Ba  Ba2  1  0.17070400  0.19286500  0.41625400  1
  Ba  Ba3  1  0.67070400  0.80713500  0.08374600  1
  Ba  Ba4  1  0.82929600  0.80713500  0.58374600  1
  Ba  Ba5  1  0.32929600  0.19286500  0.91625400  1
  U  U0  1  0.21677800  0.83953700  0.18733200  1
  U  U1  1  0.71677800  0.16046300  0.31266800  1
  U  U2  1  0.78322200  0.16046300  0.81266800  1
  U  U3  1  0.28322200  0.83953700  0.68733200  1
  P  P0  1  0.96543700  0.13031600  0.11659200  1
  P  P1  1  0.46543700  0.86968400  0.38340800  1
  P  P2  1  0.03456300  0.86968400  0.88340800  1
  P  P3  1  0.53456300  0.13031600  0.61659200  1
  P  P4  1  0.33493200  0.47825900  0.16431000  1
  P  P5  1  0.83493200  0.52174100  0.33569000  1
  P  P6  1  0.66506800  0.52174100  0.83569000  1
  P  P7  1  0.16506800  0.47825900  0.66431000  1
  O  O0  1  0.33692000  0.97295300  0.33926700  1
  O  O1  1  0.83692000  0.02704700  0.16073300  1
  O  O2  1  0.66308000  0.02704700  0.66073300  1
  O  O3  1  0.16308000  0.97295300  0.83926700  1
  O  O4  1  0.43734100  0.74216000  0.31052900  1
  O  O5  1  0.93734100  0.25784000  0.18947100  1
  O  O6  1  0.56265900  0.25784000  0.68947100  1
  O  O7  1  0.06265900  0.74216000  0.81052900  1
  O  O8  1  0.03557700  0.82107400  0.02705200  1
  O  O9  1  0.53557700  0.17892600  0.47294800  1
  O  O10  1  0.96442300  0.17892600  0.97294800  1
  O  O11  1  0.46442300  0.82107400  0.52705200  1
  O  O12  1  0.12343600  0.06797800  0.15140700  1
  O  O13  1  0.62343600  0.93202200  0.34859300  1
  O  O14  1  0.87656400  0.93202200  0.84859300  1
  O  O15  1  0.37656400  0.06797800  0.65140700  1
  O  O16  1  0.23082400  0.61005400  0.14797900  1
  O  O17  1  0.73082400  0.38994600  0.35202100  1
  O  O18  1  0.76917600  0.38994600  0.85202100  1
  O  O19  1  0.26917600  0.61005400  0.64797900  1
  O  O20  1  0.49882100  0.52526200  0.13063000  1
  O  O21  1  0.99882200  0.47473800  0.36937000  1
  O  O22  1  0.50117900  0.47473800  0.86937000  1
  O  O23  1  0.00117900  0.52526200  0.63063000  1
  O  O24  1  0.27029100  0.37326100  0.08308000  1
  O  O25  1  0.77029100  0.62673900  0.41692000  1
  O  O26  1  0.72970900  0.62673900  0.91692000  1
  O  O27  1  0.22970900  0.37326100  0.58308000  1
  O  O28  1  0.34427700  0.41601900  0.30391100  1
  O  O29  1  0.84427700  0.58398100  0.19608900  1
  O  O30  1  0.65572300  0.58398100  0.69608900  1
  O  O31  1  0.15572300  0.41601900  0.80391100  1
  O  O32  1  0.36441800  0.90024000  0.07106600  1
  O  O33  1  0.86441800  0.09976000  0.42893400  1
  O  O34  1  0.63558200  0.09976000  0.92893400  1
  O  O35  1  0.13558200  0.90024000  0.57106600  1
  O  O36  1  0.07632100  0.79147800  0.30714600  1
  O  O37  1  0.57632100  0.20852200  0.19285400  1
  O  O38  1  0.92367900  0.20852200  0.69285400  1
  O  O39  1  0.42367900  0.79147800  0.80714600  1
loop_
_geom_bond_atom_site_label_1
_geom_bond_atom_site_label_2
_geom_bond_distance
_geom_bond_site_symmetry_2
Ba0 O29 2.728557 1_455
Ba0 O31 2.728557 1_554
Ba0 O24 2.792166 1_555
Ba0 O26 2.792166 1_454
Ba0 O16 2.881909 1_555
Ba0 O18 2.881909 1_454
Ba0 O5 2.942989 1_455
Ba0 O7 2.942989 1_554
Ba0 O8 3.160252 1_555
Ba0 O10 3.160252 1_454
Ba1 O30 2.728557 1_555
Ba1 O28 2.728557 1_555
Ba1 O25 2.792166 1_555
Ba1 O27 2.792166 1_555
Ba1 O17 2.881909 1_555
Ba1 O19 2.881909 1_555
Ba1 O6 2.942989 1_555
Ba1 O4 2.942989 1_555
Ba1 O9 3.160252 1_555
Ba1 O11 3.160252 1_555
Ba2 O27 2.703085 1_555
Ba2 O28 2.791767 1_555
Ba2 O0 2.795587 1_545
Ba2 O33 2.868626 1_455
Ba2 O35 3.097542 1_545
Ba2 O21 3.101242 1_455
Ba2 O5 3.199507 1_455
Ba2 O15 3.223177 1_555
Ba2 O12 3.253652 1_555
Ba2 O9 3.304800 1_555
Ba3 O26 2.703085 1_554
Ba3 O29 2.791767 1_555
Ba3 O1 2.795587 1_565
Ba3 O32 2.868626 1_555
Ba3 O34 3.097542 1_564
Ba3 O20 3.101247 1_555
Ba3 O4 3.199507 1_555
Ba3 O14 3.223177 1_554
Ba3 O13 3.253652 1_555
Ba3 O8 3.304800 1_655
Ba4 O25 2.703085 1_555
Ba4 O30 2.791767 1_555
Ba4 O2 2.795587 1_565
Ba4 O35 2.868626 1_655
Ba4 O33 3.097542 1_565
Ba4 O23 3.101247 1_655
Ba4 O7 3.199507 1_655
Ba4 O13 3.223177 1_555
Ba4 O14 3.253652 1_555
Ba4 O11 3.304800 1_555
Ba5 O24 2.703085 1_556
Ba5 O31 2.791767 1_555
Ba5 O3 2.795587 1_545
Ba5 O34 2.868626 1_555
Ba5 O32 3.097542 1_546
Ba5 O22 3.101247 1_555
Ba5 O6 3.199507 1_555
Ba5 O12 3.223177 1_556
Ba5 O15 3.253652 1_555
Ba5 O10 3.304800 1_455
O0 P1 1.549795 1_555
O0 U0 2.448873 1_555
O1 P0 1.549795 1_555
O1 U1 2.448873 1_555
O2 P3 1.549795 1_555
O2 U2 2.448873 1_555
O3 P2 1.549795 1_555
O3 U3 2.448873 1_555
O4 P1 1.559641 1_555
O4 U0 2.482678 1_555
O5 P0 1.559641 1_555
O5 U1 2.482678 1_555
O6 P3 1.559641 1_555
O6 U2 2.482678 1_555
O7 P2 1.559641 1_555
O7 U3 2.482678 1_555
O8 P2 1.551896 1_554
O8 U0 2.381547 1_555
O9 P3 1.551896 1_555
O9 U1 2.381547 1_555
O10 P0 1.551896 1_556
O10 U2 2.381547 1_555
O11 P1 1.551896 1_555
O11 U3 2.381547 1_555
O12 P0 1.556077 1_455
O12 U0 2.337608 1_545
O13 P1 1.556077 1_555
O13 U1 2.337608 1_565
O14 P2 1.556077 1_655
O14 U2 2.337608 1_565
O15 P3 1.556077 1_555
O15 U3 2.337608 1_545
O16 P4 1.563629 1_555
O16 U0 2.307481 1_555
O17 P5 1.563629 1_555
O17 U1 2.307481 1_555
O18 P6 1.563629 1_555
O18 U2 2.307481 1_555
O19 P7 1.563629 1_555
O19 U3 2.307481 1_555
O20 P4 1.556529 1_555
O21 P5 1.556537 1_555
O22 P6 1.556529 1_555
O23 P7 1.556529 1_555
O24 P4 1.530566 1_555
O25 P5 1.530566 1_555
O26 P6 1.530566 1_555
O27 P7 1.530566 1_555
O28 P4 1.542072 1_555
O29 P5 1.542072 1_555
O30 P6 1.542072 1_555
O31 P7 1.542072 1_555
O32 U0 1.854133 1_555
O33 U1 1.854133 1_555
O34 U2 1.854133 1_555
O35 U3 1.854133 1_555
O36 U0 1.810329 1_555
O37 U1 1.810329 1_555
O38 U2 1.810329 1_555
O39 U3 1.810329 1_555
