# generated using pymatgen
data_FeOF
_symmetry_space_group_name_H-M   'P 1'
_cell_length_a   4.77800861
_cell_length_b   4.77800861
_cell_length_c   12.21737105
_cell_angle_alpha   89.99643702
_cell_angle_beta   89.99643702
_cell_angle_gamma   89.95268543
_symmetry_Int_Tables_number   1
_chemical_formula_structural   FeOF
_chemical_formula_sum   'Fe8 O8 F8'
_cell_volume   278.91474229
_cell_formula_units_Z   8
loop_
 _symmetry_equiv_pos_site_id
 _symmetry_equiv_pos_as_xyz
  1  'x, y, z'
loop_
 _atom_site_type_symbol
 _atom_site_label
 _atom_site_symmetry_multiplicity
 _atom_site_fract_x
 _atom_site_fract_y
 _atom_site_fract_z
 _atom_site_occupancy
  Fe  Fe0  1  0.03722900  0.03511100  0.87496400  1
  Fe  Fe1  1  0.96488900  0.96277100  0.12503600  1
  Fe  Fe2  1  0.05696400  0.01821600  0.37484000  1
  Fe  Fe3  1  0.98178400  0.94303600  0.62516000  1
  Fe  Fe4  1  0.53843900  0.46156100  0.00000000  1
  Fe  Fe5  1  0.48050600  0.51949400  0.50000000  1
  Fe  Fe6  1  0.47075000  0.52832300  0.75101500  1
  Fe  Fe7  1  0.47167700  0.52925000  0.24898500  1
  O  O0  1  0.18708300  0.81628800  0.24686900  1
  O  O1  1  0.19151800  0.80848200  0.50000000  1
  O  O2  1  0.18371200  0.81291700  0.75313100  1
  O  O3  1  0.68380600  0.67566900  0.12464000  1
  O  O4  1  0.67768600  0.68021700  0.62571000  1
  O  O5  1  0.32433100  0.31619400  0.87536000  1
  O  O6  1  0.31978300  0.32231400  0.37429000  1
  O  O7  1  0.82291200  0.17708800  0.00000000  1
  F  F0  1  0.20520200  0.79479800  0.00000000  1
  F  F1  1  0.70704500  0.69936200  0.87530200  1
  F  F2  1  0.69956700  0.71213800  0.37459500  1
  F  F3  1  0.30063800  0.29295500  0.12469800  1
  F  F4  1  0.28786200  0.30043300  0.62540500  1
  F  F5  1  0.80129000  0.19875900  0.25170000  1
  F  F6  1  0.80408300  0.19591700  0.50000000  1
  F  F7  1  0.80124100  0.19871000  0.74830000  1
loop_
_geom_bond_atom_site_label_1
_geom_bond_atom_site_label_2
_geom_bond_distance
_geom_bond_site_symmetry_2
Fe0 O5 1.920555 1_555
Fe0 O2 1.957385 1_545
Fe0 O7 1.959887 1_456
Fe1 O3 1.920555 1_555
Fe1 O0 1.957385 1_655
Fe1 O7 1.959887 1_565
Fe2 O6 1.921231 1_555
Fe2 O1 1.937690 1_545
Fe2 O0 1.939304 1_545
Fe3 O4 1.921231 1_555
Fe3 O1 1.937690 1_655
Fe3 O2 1.939304 1_655
Fe4 O7 1.921426 1_555
Fe4 O3 1.961965 1_555
Fe4 O5 1.961965 1_554
Fe5 O1 1.951921 1_555
Fe5 O6 1.958998 1_555
Fe5 O4 1.958998 1_555
Fe6 O2 1.930687 1_555
Fe6 O5 1.955874 1_555
Fe6 O4 1.961844 1_555
Fe7 O0 1.930687 1_555
Fe7 O3 1.955874 1_555
Fe7 O6 1.961844 1_555
F0 Fe1 2.072327 1_455
F0 Fe0 2.072327 1_564
F0 Fe4 2.250794 1_555
F1 Fe6 2.061591 1_555
F1 Fe4 2.064490 1_556
F1 Fe0 2.250907 1_665
F2 Fe5 2.071563 1_555
F2 Fe7 2.075146 1_555
F2 Fe2 2.249206 1_665
F3 Fe7 2.061591 1_555
F3 Fe4 2.064490 1_555
F3 Fe1 2.250907 1_445
F4 Fe5 2.071563 1_555
F4 Fe6 2.075146 1_555
F4 Fe3 2.249206 1_445
F5 Fe1 2.067792 1_545
F5 Fe2 2.120888 1_655
F5 Fe7 2.229530 1_555
F6 Fe3 2.125388 1_545
F6 Fe2 2.125388 1_655
F6 Fe5 2.185547 1_555
F7 Fe0 2.067792 1_655
F7 Fe3 2.120888 1_545
F7 Fe6 2.229530 1_555
