# generated using pymatgen
data_Li6Mn3P6WO24
_symmetry_space_group_name_H-M   'P 1'
_cell_length_a   8.78232400
_cell_length_b   8.82494896
_cell_length_c   8.85502803
_cell_angle_alpha   60.12692838
_cell_angle_beta   61.29675812
_cell_angle_gamma   60.93207878
_symmetry_Int_Tables_number   1
_chemical_formula_structural   Li6Mn3P6WO24
_chemical_formula_sum   'Li6 Mn3 P6 W1 O24'
_cell_volume   493.77582437
_cell_formula_units_Z   1
loop_
 _symmetry_equiv_pos_site_id
 _symmetry_equiv_pos_as_xyz
  1  'x, y, z'
loop_
 _atom_site_type_symbol
 _atom_site_label
 _atom_site_symmetry_multiplicity
 _atom_site_fract_x
 _atom_site_fract_y
 _atom_site_fract_z
 _atom_site_occupancy
  Li  Li0  1  0.02696600  0.00833100  0.03023700  1
  Li  Li1  1  0.16683700  0.35486900  0.72164900  1
  Li  Li2  1  0.50289100  0.49299500  0.47334600  1
  Li  Li3  1  0.83717000  0.64037200  0.31639500  1
  Li  Li4  1  0.31834600  0.83085200  0.63934600  1
  Li  Li5  1  0.63680800  0.31140400  0.84100100  1
  Mn  Mn0  1  0.14657000  0.14547500  0.14742500  1
  Mn  Mn1  1  0.36461700  0.34860900  0.34830100  1
  Mn  Mn2  1  0.65859400  0.65303700  0.65719400  1
  P  P0  1  0.75253700  0.43677800  0.05633400  1
  P  P1  1  0.05008100  0.75351500  0.44677100  1
  P  P2  1  0.44152100  0.04859400  0.74665000  1
  P  P3  1  0.53995300  0.95244400  0.24285700  1
  P  P4  1  0.95784600  0.25181400  0.55237100  1
  P  P5  1  0.24451200  0.53499700  0.95218600  1
  W  W0  1  0.84724900  0.85208500  0.85146700  1
  O  O0  1  0.25049200  0.51210000  0.13059200  1
  O  O1  1  0.53610500  0.11660200  0.26020300  1
  O  O2  1  0.92134700  0.25842000  0.07280900  1
  O  O3  1  0.10723000  0.28076500  0.56825700  1
  O  O4  1  0.59957000  0.44735800  0.23503800  1
  O  O5  1  0.82168700  0.60705900  0.97756400  1
  O  O6  1  0.08323100  0.91121900  0.26211400  1
  O  O7  1  0.22120000  0.58672200  0.47975100  1
  O  O8  1  0.44519200  0.23792100  0.59596500  1
  O  O9  1  0.38934800  0.99808200  0.17197600  1
  O  O10  1  0.73876500  0.88638100  0.09794700  1
  O  O11  1  0.02303700  0.19326500  0.39215100  1
  O  O12  1  0.97237200  0.83079900  0.60723500  1
  O  O13  1  0.25535100  0.07358400  0.89753400  1
  O  O14  1  0.60254200  0.98204300  0.82249900  1
  O  O15  1  0.54334000  0.77448900  0.41601400  1
  O  O16  1  0.77613900  0.41888300  0.55369400  1
  O  O17  1  0.89256600  0.09412700  0.74476500  1
  O  O18  1  0.19388700  0.38236400  0.96632400  1
  O  O19  1  0.41907300  0.55055400  0.78335800  1
  O  O20  1  0.90066600  0.69968900  0.46062700  1
  O  O21  1  0.09570700  0.73411700  0.89237400  1
  O  O22  1  0.47252200  0.90322100  0.67954800  1
  O  O23  1  0.69513600  0.45506300  0.90812800  1
loop_
_geom_bond_atom_site_label_1
_geom_bond_atom_site_label_2
_geom_bond_distance
_geom_bond_site_symmetry_2
Li0 O13 1.979842 1_554
Li0 O6 2.001185 1_545
Li0 O2 2.092163 1_455
Li1 O8 2.087861 1_555
Li1 O3 2.108832 1_555
Li1 O7 2.145606 1_555
Li1 O13 2.151405 1_555
Li1 O18 2.425609 1_555
Li2 O4 2.032110 1_555
Li2 O8 2.155901 1_555
Li2 O7 2.175130 1_555
Li2 O15 2.446012 1_555
Li2 O16 2.518763 1_555
Li3 O20 1.962122 1_555
Li3 O16 2.089971 1_555
Li3 O15 2.173428 1_555
Li3 O10 2.191160 1_555
Li4 O22 1.974269 1_555
Li4 O15 2.081861 1_555
Li4 O19 2.083876 1_555
Li4 O21 2.254000 1_555
Li5 O23 1.974138 1_555
Li5 O19 2.077072 1_555
Li5 O16 2.145495 1_555
Li5 O17 2.247709 1_555
Mn0 O9 1.937511 1_545
Mn0 O18 1.994774 1_554
Mn0 O2 2.006499 1_455
Mn0 O6 2.024321 1_545
Mn0 O11 2.063628 1_555
Mn0 O13 2.233964 1_554
Mn1 O0 2.117258 1_555
Mn1 O1 2.129580 1_555
Mn1 O4 2.216269 1_555
Mn1 O8 2.224744 1_555
Mn1 O3 2.277304 1_555
Mn1 O7 2.411107 1_555
Mn2 O22 2.050141 1_555
Mn2 O20 2.073900 1_555
Mn2 O23 2.089431 1_555
Mn2 O19 2.252941 1_555
Mn2 O16 2.254026 1_555
Mn2 O15 2.340164 1_555
O0 P5 1.513510 1_554
O1 P3 1.514111 1_545
O2 P0 1.551849 1_555
O3 P4 1.531346 1_455
O4 P0 1.516861 1_555
O5 P0 1.596635 1_556
O5 W0 1.949007 1_555
O6 P1 1.537813 1_555
O7 P1 1.534365 1_555
O8 P2 1.537278 1_555
O9 P3 1.527602 1_555
O10 P3 1.624529 1_555
O10 W0 2.035549 1_554
O11 P4 1.506714 1_455
O12 P1 1.591083 1_655
O12 W0 1.959940 1_555
O13 P2 1.533568 1_555
O14 P2 1.583723 1_565
O14 W0 1.959904 1_555
O15 P3 1.554961 1_555
O16 P4 1.559987 1_555
O17 P4 1.625726 1_555
O17 W0 2.016940 1_545
O18 P5 1.545370 1_555
O19 P5 1.550050 1_555
O20 P1 1.534780 1_655
O21 P5 1.607023 1_555
O21 W0 2.037780 1_455
O22 P2 1.528927 1_565
O23 P0 1.532306 1_556
