# generated using pymatgen
data_Li3Bi2(PO4)3
_symmetry_space_group_name_H-M   'P 1'
_cell_length_a   5.15774980
_cell_length_b   5.15774980
_cell_length_c   20.74217332
_cell_angle_alpha   89.56071168
_cell_angle_beta   89.56071168
_cell_angle_gamma   66.26004693
_symmetry_Int_Tables_number   1
_chemical_formula_structural   Li3Bi2(PO4)3
_chemical_formula_sum   'Li6 Bi4 P6 O24'
_cell_volume   505.07864742
_cell_formula_units_Z   2
loop_
 _symmetry_equiv_pos_site_id
 _symmetry_equiv_pos_as_xyz
  1  'x, y, z'
loop_
 _atom_site_type_symbol
 _atom_site_label
 _atom_site_symmetry_multiplicity
 _atom_site_fract_x
 _atom_site_fract_y
 _atom_site_fract_z
 _atom_site_occupancy
  Li  Li0  1  0.99950400  0.99950400  0.65945200  1
  Li  Li1  1  0.65622200  0.65622200  0.40258700  1
  Li  Li2  1  0.66150000  0.66150000  0.72921100  1
  Li  Li3  1  0.00049600  0.00049600  0.34054800  1
  Li  Li4  1  0.33850000  0.33850000  0.27078900  1
  Li  Li5  1  0.34377800  0.34377800  0.59741300  1
  Bi  Bi0  1  0.00000000  0.00000000  0.00000000  1
  Bi  Bi1  1  0.00160100  0.00160100  0.82058600  1
  Bi  Bi2  1  0.99839900  0.99839900  0.17941400  1
  Bi  Bi3  1  0.00000000  0.00000000  0.50000000  1
  P  P0  1  0.64550500  0.64550500  0.26166600  1
  P  P1  1  0.64065700  0.64065700  0.90589900  1
  P  P2  1  0.64518800  0.64518800  0.58394600  1
  P  P3  1  0.35934300  0.35934300  0.09410100  1
  P  P4  1  0.35481200  0.35481200  0.41605400  1
  P  P5  1  0.35449500  0.35449500  0.73833400  1
  O  O0  1  0.30675500  0.76150400  0.91070900  1
  O  O1  1  0.31052200  0.75287900  0.26308100  1
  O  O2  1  0.31092500  0.75393900  0.58629400  1
  O  O3  1  0.23849600  0.69324500  0.08929100  1
  O  O4  1  0.24712100  0.68947800  0.73691900  1
  O  O5  1  0.24606100  0.68907500  0.41370600  1
  O  O6  1  0.25166000  0.25166000  0.03586700  1
  O  O7  1  0.24884900  0.24884900  0.68011800  1
  O  O8  1  0.24591200  0.24591200  0.35877500  1
  O  O9  1  0.72056300  0.72056300  0.83886700  1
  O  O10  1  0.73674000  0.73674000  0.19741300  1
  O  O11  1  0.74834000  0.74834000  0.96413300  1
  O  O12  1  0.75115100  0.75115100  0.31988200  1
  O  O13  1  0.26940500  0.26940500  0.48243000  1
  O  O14  1  0.27943700  0.27943700  0.16113300  1
  O  O15  1  0.73059500  0.73059500  0.51757000  1
  O  O16  1  0.75408800  0.75408800  0.64122500  1
  O  O17  1  0.26326000  0.26326000  0.80258700  1
  O  O18  1  0.69324500  0.23849600  0.08929100  1
  O  O19  1  0.68947800  0.24712100  0.73691900  1
  O  O20  1  0.68907500  0.24606100  0.41370600  1
  O  O21  1  0.76150400  0.30675500  0.91070900  1
  O  O22  1  0.75393900  0.31092500  0.58629400  1
  O  O23  1  0.75287900  0.31052200  0.26308100  1
loop_
_geom_bond_atom_site_label_1
_geom_bond_atom_site_label_2
_geom_bond_distance
_geom_bond_site_symmetry_2
Li0 O16 2.156886 1_555
Li0 O7 2.200060 1_665
Li0 O22 2.200203 1_565
Li0 O2 2.200203 1_655
Li0 O19 2.262229 1_565
Li0 O4 2.262229 1_655
Li1 O12 1.894623 1_555
Li1 O5 2.064405 1_555
Li1 O20 2.064405 1_555
Li1 O15 2.475690 1_555
Li2 O16 1.985873 1_555
Li2 O19 2.088317 1_555
Li2 O4 2.088317 1_555
Li2 O9 2.335581 1_555
Li3 O8 2.156886 1_555
Li3 O12 2.200060 1_445
Li3 O20 2.200203 1_455
Li3 O5 2.200203 1_545
Li3 O1 2.262229 1_545
Li3 O23 2.262229 1_455
Li4 O8 1.985873 1_555
Li4 O23 2.088317 1_555
Li4 O1 2.088317 1_555
Li4 O14 2.335581 1_555
Li5 O7 1.894623 1_555
Li5 O22 2.064405 1_555
Li5 O2 2.064405 1_555
Li5 O13 2.475690 1_555
Bi0 O11 2.304181 1_444
Bi0 O6 2.304181 1_555
Bi0 O3 2.422724 1_545
Bi0 O18 2.422724 1_455
Bi0 O21 2.422724 1_454
Bi0 O0 2.422724 1_544
Bi1 O17 2.287600 1_555
Bi1 O19 2.361073 1_455
Bi1 O4 2.361073 1_545
Bi1 O21 2.438332 1_455
Bi1 O0 2.438332 1_545
Bi1 O9 2.453758 1_445
Bi2 O10 2.287600 1_555
Bi2 O23 2.361073 1_565
Bi2 O1 2.361073 1_655
Bi2 O3 2.438332 1_655
Bi2 O18 2.438332 1_565
Bi2 O14 2.453758 1_665
Bi3 O15 2.352328 1_445
Bi3 O13 2.352328 1_555
Bi3 O22 2.399316 1_455
Bi3 O5 2.399316 1_545
Bi3 O2 2.399316 1_545
Bi3 O20 2.399316 1_455
O0 P1 1.580629 1_555
O1 P0 1.588005 1_555
O2 P2 1.584243 1_555
O3 P3 1.580629 1_555
O4 P5 1.588005 1_555
O5 P4 1.584243 1_555
O6 P3 1.531310 1_555
O7 P5 1.520258 1_555
O8 P4 1.522173 1_555
O9 P1 1.546636 1_555
O10 P0 1.542122 1_555
O11 P1 1.531310 1_555
O12 P0 1.520258 1_555
O13 P4 1.556042 1_555
O14 P3 1.546636 1_555
O15 P2 1.556042 1_555
O16 P2 1.522173 1_555
O17 P5 1.542122 1_555
O18 P3 1.580629 1_555
O19 P5 1.588005 1_555
O20 P4 1.584243 1_555
O21 P1 1.580629 1_555
O22 P2 1.584243 1_555
O23 P0 1.588005 1_555
