# generated using pymatgen
data_Li4TiCrO6
_symmetry_space_group_name_H-M   'P 1'
_cell_length_a   5.06763013
_cell_length_b   5.06763013
_cell_length_c   19.40442188
_cell_angle_alpha   87.52873568
_cell_angle_beta   87.52873568
_cell_angle_gamma   120.14345384
_symmetry_Int_Tables_number   1
_chemical_formula_structural   Li4TiCrO6
_chemical_formula_sum   'Li16 Ti4 Cr4 O24'
_cell_volume   429.32241761
_cell_formula_units_Z   4
loop_
 _symmetry_equiv_pos_site_id
 _symmetry_equiv_pos_as_xyz
  1  'x, y, z'
loop_
 _atom_site_type_symbol
 _atom_site_label
 _atom_site_symmetry_multiplicity
 _atom_site_fract_x
 _atom_site_fract_y
 _atom_site_fract_z
 _atom_site_occupancy
  Li  Li0  1  0.50399000  0.24768900  0.37505400  1
  Li  Li1  1  0.37668300  0.12681100  0.74998900  1
  Li  Li2  1  0.41089200  0.83883800  0.62471500  1
  Li  Li3  1  0.99967400  0.74825900  0.87498100  1
  Li  Li4  1  0.87318900  0.62331700  0.25001100  1
  Li  Li5  1  0.75231100  0.49601000  0.62494600  1
  Li  Li6  1  0.90261700  0.33113800  0.12466200  1
  Li  Li7  1  0.25174100  0.00032600  0.12501900  1
  Li  Li8  1  0.33196900  0.40503500  0.87469400  1
  Li  Li9  1  0.16116200  0.58910800  0.37528500  1
  Li  Li10  1  0.83653000  0.91306500  0.37477200  1
  Li  Li11  1  0.66886200  0.09738300  0.87533800  1
  Li  Li12  1  0.08693500  0.16347000  0.62522800  1
  Li  Li13  1  0.12396900  0.87603100  0.50000000  1
  Li  Li14  1  0.59496500  0.66803100  0.12530600  1
  Li  Li15  1  0.62571900  0.37428100  0.00000000  1
  Ti  Ti0  1  0.45877500  0.54122500  0.50000000  1
  Ti  Ti1  1  0.29181300  0.70818700  0.00000000  1
  Ti  Ti2  1  0.70585700  0.78850700  0.74992900  1
  Ti  Ti3  1  0.21149300  0.29414300  0.25007100  1
  Cr  Cr0  1  0.95967900  0.04032100  0.00000000  1
  Cr  Cr1  1  0.79082500  0.20917500  0.50000000  1
  Cr  Cr2  1  0.04428000  0.46148200  0.75016200  1
  Cr  Cr3  1  0.53851800  0.95572000  0.24983800  1
  O  O0  1  0.46370900  0.21137100  0.55748100  1
  O  O1  1  0.78862900  0.53629100  0.44251900  1
  O  O2  1  0.96172300  0.71394700  0.05748300  1
  O  O3  1  0.34837800  0.74473500  0.80629300  1
  O  O4  1  0.50645200  0.90162500  0.44414000  1
  O  O5  1  0.28605300  0.03827700  0.94251700  1
  O  O6  1  0.39629500  0.50077100  0.69280100  1
  O  O7  1  0.85261500  0.24788000  0.30591900  1
  O  O8  1  0.99943200  0.39343700  0.94351500  1
  O  O9  1  0.75212000  0.14738500  0.69408100  1
  O  O10  1  0.75073500  0.85645700  0.55663900  1
  O  O11  1  0.88671800  0.99839900  0.19426600  1
  O  O12  1  0.09837500  0.49354800  0.55586000  1
  O  O13  1  0.25526500  0.65162200  0.19370700  1
  O  O14  1  0.24305400  0.34832500  0.05612200  1
  O  O15  1  0.00160100  0.11328200  0.80573400  1
  O  O16  1  0.14354300  0.24926500  0.44336100  1
  O  O17  1  0.60656300  0.00056800  0.05648500  1
  O  O18  1  0.70941600  0.46314900  0.80797000  1
  O  O19  1  0.49922900  0.60370500  0.30719900  1
  O  O20  1  0.65167500  0.75694600  0.94387800  1
  O  O21  1  0.03922100  0.78010000  0.69286600  1
  O  O22  1  0.21990000  0.96077900  0.30713400  1
  O  O23  1  0.53685100  0.29058400  0.19203000  1
loop_
_geom_bond_atom_site_label_1
_geom_bond_atom_site_label_2
_geom_bond_distance
_geom_bond_site_symmetry_2
Li0 O1 2.035344 1_555
Li0 O22 2.037204 1_545
Li0 O4 2.166453 1_545
Li0 O7 2.171338 1_555
Li0 O19 2.197915 1_555
Li0 O16 2.213638 1_555
Li1 O9 2.102526 1_555
Li1 O6 2.110131 1_555
Li1 O18 2.111075 1_555
Li1 O15 2.114980 1_555
Li1 O3 2.118562 1_545
Li1 O21 2.133996 1_545
Li2 O6 2.086891 1_555
Li2 O10 2.087612 1_555
Li2 O21 2.138492 1_555
Li2 O0 2.141899 1_565
Li2 O9 2.216635 1_565
Li2 O12 2.226208 1_555
Li3 O18 2.033338 1_555
Li3 O5 2.042433 1_665
Li3 O3 2.174879 1_655
Li3 O20 2.186098 1_555
Li3 O8 2.189328 1_555
Li3 O15 2.234673 1_665
Li4 O7 2.102526 1_555
Li4 O19 2.110131 1_555
Li4 O23 2.111075 1_555
Li4 O11 2.114980 1_555
Li4 O13 2.118562 1_655
Li4 O22 2.133996 1_655
Li5 O0 2.035344 1_555
Li5 O21 2.037204 1_655
Li5 O12 2.166453 1_655
Li5 O9 2.171338 1_555
Li5 O6 2.197915 1_555
Li5 O10 2.213638 1_555
Li6 O11 2.081278 1_545
Li6 O14 2.096188 1_655
Li6 O23 2.138249 1_555
Li6 O17 2.155328 1_555
Li6 O2 2.171871 1_555
Li6 O13 2.259540 1_655
Li7 O23 2.033338 1_555
Li7 O2 2.042433 1_445
Li7 O13 2.174879 1_545
Li7 O14 2.186098 1_555
Li7 O17 2.189328 1_555
Li7 O11 2.234673 1_445
Li8 O8 2.079984 1_455
Li8 O3 2.093260 1_555
Li8 O5 2.137488 1_555
Li8 O18 2.146984 1_555
Li8 O15 2.158063 1_555
Li8 O20 2.258249 1_555
Li9 O19 2.086891 1_555
Li9 O16 2.087612 1_555
Li9 O22 2.138492 1_555
Li9 O1 2.141899 1_455
Li9 O7 2.216635 1_455
Li9 O4 2.226208 1_555
Li10 O4 2.077229 1_555
Li10 O7 2.080084 1_565
Li10 O1 2.173299 1_555
Li10 O19 2.185865 1_555
Li10 O16 2.192397 1_665
Li10 O22 2.199180 1_655
Li11 O15 2.081278 1_655
Li11 O20 2.096188 1_545
Li11 O18 2.138249 1_555
Li11 O8 2.155328 1_555
Li11 O5 2.171871 1_555
Li11 O3 2.259540 1_545
Li12 O12 2.077229 1_555
Li12 O9 2.080084 1_455
Li12 O0 2.173299 1_555
Li12 O6 2.185865 1_555
Li12 O10 2.192397 1_445
Li12 O21 2.199180 1_545
Li13 O10 2.101925 1_455
Li13 O16 2.101925 1_565
Li13 O1 2.118194 1_455
Li13 O0 2.118194 1_565
Li13 O12 2.121998 1_555
Li13 O4 2.121998 1_555
Li14 O17 2.079984 1_565
Li14 O13 2.093260 1_555
Li14 O2 2.137488 1_555
Li14 O23 2.146984 1_555
Li14 O11 2.158063 1_555
Li14 O14 2.258249 1_555
Li15 O17 2.103467 1_555
Li15 O8 2.103467 1_554
Li15 O5 2.119460 1_554
Li15 O2 2.119460 1_555
Li15 O20 2.124411 1_554
Li15 O14 2.124411 1_555
Cr0 O20 1.927358 1_544
Cr0 O14 1.927358 1_655
Cr0 O5 1.959315 1_654
Cr0 O2 1.959315 1_545
Cr0 O8 1.973287 1_554
Cr0 O17 1.973287 1_555
Cr1 O4 1.924937 1_545
Cr1 O12 1.924937 1_655
Cr1 O1 1.962737 1_555
Cr1 O0 1.962737 1_555
Cr1 O16 1.972500 1_655
Cr1 O10 1.972500 1_545
Cr2 O3 1.918214 1_555
Cr2 O21 1.932105 1_555
Cr2 O15 1.937972 1_555
Cr2 O9 1.957378 1_455
Cr2 O6 1.978312 1_555
Cr2 O18 1.997275 1_455
Cr3 O13 1.918214 1_555
Cr3 O22 1.932105 1_555
Cr3 O11 1.937972 1_555
Cr3 O7 1.957378 1_565
Cr3 O19 1.978312 1_555
Cr3 O23 1.997275 1_565
O0 Ti0 1.980525 1_555
O1 Ti0 1.980525 1_555
O2 Ti1 1.983466 1_655
O3 Ti2 1.982884 1_555
O4 Ti0 1.983038 1_555
O5 Ti1 1.983466 1_546
O6 Ti2 1.951405 1_555
O7 Ti3 1.979091 1_655
O8 Ti1 1.964204 1_656
O9 Ti2 1.979091 1_545
O10 Ti0 1.966405 1_555
O11 Ti3 1.985913 1_665
O12 Ti0 1.983038 1_555
O13 Ti3 1.982884 1_555
O14 Ti1 1.981330 1_555
O15 Ti2 1.985913 1_445
O16 Ti0 1.966405 1_555
O17 Ti1 1.964204 1_545
O18 Ti2 1.964375 1_555
O19 Ti3 1.951405 1_555
O20 Ti1 1.981330 1_556
O21 Ti2 1.999217 1_455
O22 Ti3 1.999217 1_565
O23 Ti3 1.964375 1_555
