# generated using pymatgen
data_Na5NiHO4
_symmetry_space_group_name_H-M   'P 1'
_cell_length_a   9.85845293
_cell_length_b   10.16765688
_cell_length_c   11.82671341
_cell_angle_alpha   90.00000000
_cell_angle_beta   90.00000000
_cell_angle_gamma   90.00000000
_symmetry_Int_Tables_number   1
_chemical_formula_structural   Na5NiHO4
_chemical_formula_sum   'Na40 Ni8 H8 O32'
_cell_volume   1185.47860964
_cell_formula_units_Z   8
loop_
 _symmetry_equiv_pos_site_id
 _symmetry_equiv_pos_as_xyz
  1  'x, y, z'
loop_
 _atom_site_type_symbol
 _atom_site_label
 _atom_site_symmetry_multiplicity
 _atom_site_fract_x
 _atom_site_fract_y
 _atom_site_fract_z
 _atom_site_occupancy
  Na  Na0  1  0.98421069  0.59227562  0.21299581  1
  Na  Na1  1  0.98421069  0.90772438  0.21299581  1
  Na  Na2  1  0.07162979  0.06744517  0.40890093  1
  Na  Na3  1  0.07162979  0.43255483  0.40890093  1
  Na  Na4  1  0.08008226  0.75000000  0.44543976  1
  Na  Na5  1  0.11491644  0.25000000  0.98256613  1
  Na  Na6  1  0.13551240  0.56563814  0.99148612  1
  Na  Na7  1  0.13551240  0.93436186  0.99148612  1
  Na  Na8  1  0.21937109  0.58281147  0.68042145  1
  Na  Na9  1  0.21937109  0.91718853  0.68042145  1
  Na  Na10  1  0.28062891  0.08281147  0.18042145  1
  Na  Na11  1  0.28062891  0.41718853  0.18042145  1
  Na  Na12  1  0.36448760  0.06563814  0.49148612  1
  Na  Na13  1  0.36448760  0.43436186  0.49148612  1
  Na  Na14  1  0.38508356  0.75000000  0.48256613  1
  Na  Na15  1  0.41991774  0.25000000  0.94543976  1
  Na  Na16  1  0.42837021  0.56744517  0.90890093  1
  Na  Na17  1  0.42837021  0.93255483  0.90890093  1
  Na  Na18  1  0.51578931  0.09227562  0.71299581  1
  Na  Na19  1  0.51578931  0.40772438  0.71299581  1
  Na  Na20  1  0.48421069  0.59227562  0.28700419  1
  Na  Na21  1  0.48421069  0.90772438  0.28700419  1
  Na  Na22  1  0.57162979  0.06744517  0.09109907  1
  Na  Na23  1  0.57162979  0.43255483  0.09109907  1
  Na  Na24  1  0.58008226  0.75000000  0.05456024  1
  Na  Na25  1  0.61491644  0.25000000  0.51743387  1
  Na  Na26  1  0.63551240  0.56563814  0.50851388  1
  Na  Na27  1  0.63551240  0.93436186  0.50851388  1
  Na  Na28  1  0.71937109  0.58281147  0.81957855  1
  Na  Na29  1  0.71937109  0.91718853  0.81957855  1
  Na  Na30  1  0.78062891  0.08281147  0.31957855  1
  Na  Na31  1  0.78062891  0.41718853  0.31957855  1
  Na  Na32  1  0.86448760  0.06563814  0.00851388  1
  Na  Na33  1  0.86448760  0.43436186  0.00851388  1
  Na  Na34  1  0.88508356  0.75000000  0.01743387  1
  Na  Na35  1  0.91991774  0.25000000  0.55456024  1
  Na  Na36  1  0.92837021  0.93255483  0.59109907  1
  Na  Na37  1  0.92837021  0.56744517  0.59109907  1
  Na  Na38  1  0.01578931  0.09227562  0.78700419  1
  Na  Na39  1  0.01578931  0.40772438  0.78700419  1
  Ni  Ni0  1  0.01008372  0.25000000  0.20616700  1
  Ni  Ni1  1  0.20502440  0.25000000  0.61846806  1
  Ni  Ni2  1  0.29497560  0.75000000  0.11846806  1
  Ni  Ni3  1  0.48991628  0.75000000  0.70616700  1
  Ni  Ni4  1  0.51008372  0.25000000  0.29383300  1
  Ni  Ni5  1  0.70502440  0.25000000  0.88153194  1
  Ni  Ni6  1  0.79497560  0.75000000  0.38153194  1
  Ni  Ni7  1  0.98991628  0.75000000  0.79383300  1
  H  H0  1  0.23499689  0.63039652  0.30338263  1
  H  H1  1  0.23499689  0.86960348  0.30338263  1
  H  H2  1  0.26500311  0.13039652  0.80338263  1
  H  H3  1  0.26500311  0.36960348  0.80338263  1
  H  H4  1  0.73499689  0.63039652  0.19661737  1
  H  H5  1  0.73499689  0.86960348  0.19661737  1
  H  H6  1  0.76500311  0.13039652  0.69661737  1
  H  H7  1  0.76500311  0.36960348  0.69661737  1
  O  O0  1  0.06194439  0.75000000  0.64767660  1
  O  O1  1  0.05571412  0.40284867  0.12817999  1
  O  O2  1  0.05571412  0.09715133  0.12817999  1
  O  O3  1  0.10349185  0.40393537  0.60310744  1
  O  O4  1  0.10349185  0.09606463  0.60310744  1
  O  O5  1  0.10567023  0.75000000  0.11831065  1
  O  O6  1  0.24960812  0.08346049  0.87422005  1
  O  O7  1  0.24960812  0.41653951  0.87422005  1
  O  O8  1  0.25039188  0.58346049  0.37422005  1
  O  O9  1  0.25039188  0.91653951  0.37422005  1
  O  O10  1  0.39432977  0.25000000  0.61831065  1
  O  O11  1  0.39650815  0.59606463  0.10310744  1
  O  O12  1  0.39650815  0.90393537  0.10310744  1
  O  O13  1  0.44428588  0.59715133  0.62817999  1
  O  O14  1  0.44428588  0.90284867  0.62817999  1
  O  O15  1  0.43805561  0.25000000  0.14767660  1
  O  O16  1  0.56194439  0.75000000  0.85232340  1
  O  O17  1  0.55571412  0.09715133  0.37182001  1
  O  O18  1  0.55571412  0.40284867  0.37182001  1
  O  O19  1  0.60349185  0.09606463  0.89689256  1
  O  O20  1  0.60349185  0.40393537  0.89689256  1
  O  O21  1  0.60567023  0.75000000  0.38168935  1
  O  O22  1  0.74960812  0.08346049  0.62577995  1
  O  O23  1  0.74960812  0.41653951  0.62577995  1
  O  O24  1  0.75039188  0.58346049  0.12577995  1
  O  O25  1  0.75039188  0.91653951  0.12577995  1
  O  O26  1  0.89432977  0.25000000  0.88168935  1
  O  O27  1  0.89650815  0.90393537  0.39689256  1
  O  O28  1  0.89650815  0.59606463  0.39689256  1
  O  O29  1  0.94428588  0.90284867  0.87182001  1
  O  O30  1  0.94428588  0.59715133  0.87182001  1
  O  O31  1  0.93805561  0.25000000  0.35232340  1
loop_
_geom_bond_atom_site_label_1
_geom_bond_atom_site_label_2
_geom_bond_distance
_geom_bond_site_symmetry_2
Na0 O1 2.283130 1_655
Na0 O5 2.293376 1_655
Na0 O28 2.340769 1_555
Na1 O2 2.283130 1_665
Na1 O5 2.293376 1_655
Na1 O27 2.340769 1_555
Na2 O4 2.336396 1_555
Na2 O31 2.372150 1_455
Na2 O9 2.372393 1_545
Na2 O27 2.400973 1_445
Na3 O3 2.336396 1_555
Na3 O31 2.372150 1_455
Na3 O8 2.372393 1_555
Na3 O28 2.400973 1_455
Na4 O0 2.398472 1_555
Na4 O28 2.460611 1_455
Na4 O27 2.460611 1_455
Na4 O8 2.528989 1_555
Na4 O9 2.528989 1_555
Na5 O1 2.391997 1_556
Na5 O2 2.391997 1_556
Na5 O26 2.480407 1_455
Na5 O7 2.504484 1_555
Na5 O6 2.504484 1_555
Na6 O7 2.342395 1_555
Na6 O30 2.378989 1_455
Na6 O5 2.418710 1_556
Na6 O1 2.443777 1_556
Na7 O6 2.342395 1_565
Na7 O29 2.378989 1_455
Na7 O5 2.418710 1_556
Na7 O2 2.443777 1_566
Na8 O13 2.306396 1_555
Na8 O0 2.334168 1_555
Na8 O3 2.334306 1_555
Na9 O14 2.306396 1_555
Na9 O0 2.334168 1_555
Na9 O4 2.334306 1_565
Na10 O2 2.306396 1_555
Na10 O15 2.334168 1_555
Na10 O12 2.334306 1_545
Na11 O1 2.306396 1_555
Na11 O15 2.334168 1_555
Na11 O11 2.334306 1_555
Na12 O9 2.342395 1_545
Na12 O17 2.378989 1_555
Na12 O10 2.418710 1_555
Na12 O14 2.443777 1_545
Na13 O8 2.342395 1_555
Na13 O18 2.378989 1_555
Na13 O10 2.418710 1_555
Na13 O13 2.443777 1_555
Na14 O13 2.391997 1_555
Na14 O14 2.391997 1_555
Na14 O21 2.480407 1_555
Na14 O9 2.504484 1_555
Na14 O8 2.504484 1_555
Na15 O15 2.398472 1_556
Na15 O19 2.460611 1_555
Na15 O20 2.460611 1_555
Na15 O7 2.528989 1_555
Na15 O6 2.528989 1_555
Na16 O11 2.336396 1_556
Na16 O16 2.372150 1_555
Na16 O7 2.372393 1_555
Na16 O20 2.400973 1_555
Na17 O12 2.336396 1_556
Na17 O16 2.372150 1_555
Na17 O6 2.372393 1_565
Na17 O19 2.400973 1_565
Na18 O14 2.283130 1_545
Na18 O10 2.293376 1_555
Na18 O19 2.340769 1_555
Na19 O13 2.283130 1_555
Na19 O10 2.293376 1_555
Na19 O20 2.340769 1_555
Na20 O18 2.283130 1_555
Na20 O21 2.293376 1_555
Na20 O11 2.340769 1_555
Na21 O17 2.283130 1_565
Na21 O21 2.293376 1_555
Na21 O12 2.340769 1_555
Na22 O19 2.336396 1_554
Na22 O15 2.372150 1_555
Na22 O25 2.372393 1_545
Na22 O12 2.400973 1_545
Na23 O20 2.336396 1_554
Na23 O15 2.372150 1_555
Na23 O24 2.372393 1_555
Na23 O11 2.400973 1_555
Na24 O16 2.398472 1_554
Na24 O12 2.460611 1_555
Na24 O11 2.460611 1_555
Na24 O25 2.528989 1_555
Na24 O24 2.528989 1_555
Na25 O18 2.391997 1_555
Na25 O17 2.391997 1_555
Na25 O10 2.480407 1_555
Na25 O22 2.504484 1_555
Na25 O23 2.504484 1_555
Na26 O23 2.342395 1_555
Na26 O13 2.378989 1_555
Na26 O21 2.418710 1_555
Na26 O18 2.443777 1_555
Na27 O22 2.342395 1_565
Na27 O14 2.378989 1_555
Na27 O21 2.418710 1_555
Na27 O17 2.443777 1_565
Na28 O30 2.306396 1_555
Na28 O16 2.334168 1_555
Na28 O20 2.334306 1_555
Na29 O29 2.306396 1_555
Na29 O16 2.334168 1_555
Na29 O19 2.334306 1_565
Na30 O17 2.306396 1_555
Na30 O31 2.334168 1_555
Na30 O27 2.334306 1_545
Na31 O18 2.306396 1_555
Na31 O31 2.334168 1_555
Na31 O28 2.334306 1_555
Na32 O25 2.342395 1_545
Na32 O2 2.378989 1_655
Na32 O26 2.418710 1_554
Na32 O29 2.443777 1_544
Na33 O24 2.342395 1_555
Na33 O1 2.378989 1_655
Na33 O26 2.418710 1_554
Na33 O30 2.443777 1_554
Na34 O29 2.391997 1_554
Na34 O30 2.391997 1_554
Na34 O5 2.480407 1_655
Na34 O25 2.504484 1_555
Na34 O24 2.504484 1_555
Na35 O31 2.398472 1_555
Na35 O3 2.460611 1_655
Na35 O4 2.460611 1_655
Na35 O22 2.528989 1_555
Na35 O23 2.528989 1_555
Na36 O27 2.336396 1_555
Na36 O0 2.372150 1_655
Na36 O22 2.372393 1_565
Na36 O4 2.400973 1_665
Na37 O28 2.336396 1_555
Na37 O0 2.372150 1_655
Na37 O23 2.372393 1_555
Na37 O3 2.400973 1_655
Na38 O29 2.283130 1_445
Na38 O26 2.293376 1_455
Na38 O4 2.340769 1_555
Na39 O30 2.283130 1_455
Na39 O26 2.293376 1_455
Na39 O3 2.340769 1_555
Ni0 O2 1.862343 1_555
Ni0 O1 1.862343 1_555
Ni0 O31 1.868718 1_455
Ni1 O10 1.866259 1_555
Ni1 O4 1.866720 1_555
Ni1 O3 1.866720 1_555
Ni2 O5 1.866259 1_555
Ni2 O12 1.866720 1_555
Ni2 O11 1.866720 1_555
Ni3 O14 1.862343 1_555
Ni3 O13 1.862343 1_555
Ni3 O16 1.868718 1_555
Ni4 O17 1.862343 1_555
Ni4 O18 1.862343 1_555
Ni4 O15 1.868718 1_555
Ni5 O26 1.866259 1_555
Ni5 O19 1.866720 1_555
Ni5 O20 1.866720 1_555
Ni6 O21 1.866259 1_555
Ni6 O27 1.866720 1_555
Ni6 O28 1.866720 1_555
Ni7 O30 1.862343 1_555
Ni7 O29 1.862343 1_555
Ni7 O0 1.868718 1_655
H0 O8 0.976037 1_555
H1 O9 0.976037 1_555
H2 O6 0.976037 1_555
H3 O7 0.976037 1_555
H4 O24 0.976037 1_555
H5 O25 0.976037 1_555
H6 O22 0.976037 1_555
H7 O23 0.976037 1_555
