# generated using pymatgen
data_Mn6OF11
_symmetry_space_group_name_H-M   'P 1'
_cell_length_a   16.22273400
_cell_length_b   4.96352200
_cell_length_c   7.63163780
_cell_angle_alpha   50.38955408
_cell_angle_beta   90.00000000
_cell_angle_gamma   90.00000000
_symmetry_Int_Tables_number   1
_chemical_formula_structural   Mn6OF11
_chemical_formula_sum   'Mn12 O2 F22'
_cell_volume   473.41971717
_cell_formula_units_Z   2
loop_
 _symmetry_equiv_pos_site_id
 _symmetry_equiv_pos_as_xyz
  1  'x, y, z'
loop_
 _atom_site_type_symbol
 _atom_site_label
 _atom_site_symmetry_multiplicity
 _atom_site_fract_x
 _atom_site_fract_y
 _atom_site_fract_z
 _atom_site_occupancy
  Mn  Mn0  1  0.50023200  0.82656000  0.16991600  1
  Mn  Mn1  1  0.32891900  0.16226500  0.83043900  1
  Mn  Mn2  1  0.16075800  0.83860200  0.18007700  1
  Mn  Mn3  1  0.83781500  0.83995600  0.14645300  1
  Mn  Mn4  1  0.66823600  0.17399900  0.82807200  1
  Mn  Mn5  1  0.99446000  0.15624000  0.83173500  1
  Mn  Mn6  1  0.67108100  0.16226500  0.33043900  1
  Mn  Mn7  1  0.00554000  0.15624000  0.33173500  1
  Mn  Mn8  1  0.33176400  0.17399900  0.32807200  1
  Mn  Mn9  1  0.16218500  0.83995600  0.64645300  1
  Mn  Mn10  1  0.49976800  0.82656000  0.66991600  1
  Mn  Mn11  1  0.83924200  0.83860200  0.68007700  1
  O  O0  1  0.88457900  0.88330800  0.90634500  1
  O  O1  1  0.11542100  0.88330800  0.40634500  1
  F  F0  1  0.38910600  0.66648100  0.10141600  1
  F  F1  1  0.72594800  0.66820600  0.11238100  1
  F  F2  1  0.05679100  0.66716100  0.11392600  1
  F  F3  1  0.21624300  0.86988900  0.87987900  1
  F  F4  1  0.55911700  0.87520600  0.89415300  1
  F  F5  1  0.22378500  0.34265800  0.39631100  1
  F  F6  1  0.39047200  0.12829900  0.60374200  1
  F  F7  1  0.55872200  0.33138800  0.39418800  1
  F  F8  1  0.72573200  0.11353500  0.60631500  1
  F  F9  1  0.89292900  0.34385000  0.38840500  1
  F  F10  1  0.05981100  0.11239800  0.61624600  1
  F  F11  1  0.27405200  0.66820600  0.61238100  1
  F  F12  1  0.44088300  0.87520600  0.39415300  1
  F  F13  1  0.61089400  0.66648100  0.60141600  1
  F  F14  1  0.94320900  0.66716100  0.61392600  1
  F  F15  1  0.78375700  0.86988900  0.37987900  1
  F  F16  1  0.27426800  0.11353500  0.10631500  1
  F  F17  1  0.60952800  0.12829900  0.10374200  1
  F  F18  1  0.44127800  0.33138800  0.89418800  1
  F  F19  1  0.10707100  0.34385000  0.88840500  1
  F  F20  1  0.94018900  0.11239800  0.11624600  1
  F  F21  1  0.77621500  0.34265800  0.89631100  1
loop_
_geom_bond_atom_site_label_1
_geom_bond_atom_site_label_2
_geom_bond_distance
_geom_bond_site_symmetry_2
Mn2 O1 2.015094 1_555
Mn3 O0 1.864621 1_554
Mn5 O0 2.086481 1_545
Mn7 O1 2.086481 1_545
Mn9 O1 1.864621 1_555
Mn11 O0 2.015094 1_555
F0 Mn8 2.107392 1_555
F0 Mn0 2.164306 1_555
F0 Mn1 2.190101 1_564
F1 Mn3 2.090564 1_555
F1 Mn6 2.130527 1_555
F1 Mn4 2.222877 1_564
F2 Mn2 2.090810 1_555
F2 Mn7 2.123744 1_555
F2 Mn5 2.210684 1_464
F3 Mn9 2.074152 1_555
F3 Mn1 2.211662 1_565
F3 Mn2 2.372627 1_556
F4 Mn10 2.107299 1_555
F4 Mn4 2.152615 1_565
F4 Mn0 2.179889 1_556
F5 Mn8 2.143928 1_555
F5 Mn2 2.156020 1_555
F5 Mn9 2.189749 1_545
F6 Mn1 2.095377 1_555
F6 Mn10 2.162746 1_545
F6 Mn8 2.185417 1_555
F7 Mn0 2.122855 1_555
F7 Mn6 2.187376 1_555
F7 Mn10 2.213117 1_545
F8 Mn4 2.114671 1_555
F8 Mn11 2.142542 1_545
F8 Mn6 2.151244 1_555
F9 Mn3 2.115345 1_555
F9 Mn11 2.210067 1_545
F9 Mn7 2.214754 1_655
F10 Mn9 2.059730 1_545
F10 Mn5 2.081379 1_455
F10 Mn7 2.221371 1_555
F11 Mn9 2.090564 1_555
F11 Mn1 2.130527 1_555
F11 Mn8 2.222877 1_565
F12 Mn0 2.107299 1_555
F12 Mn8 2.152615 1_565
F12 Mn10 2.179889 1_555
F13 Mn4 2.107392 1_555
F13 Mn10 2.164306 1_555
F13 Mn6 2.190101 1_565
F14 Mn11 2.090810 1_555
F14 Mn5 2.123744 1_555
F14 Mn7 2.210684 1_665
F15 Mn3 2.074152 1_555
F15 Mn6 2.211662 1_565
F15 Mn11 2.372627 1_555
F16 Mn8 2.114671 1_555
F16 Mn2 2.142542 1_545
F16 Mn1 2.151244 1_554
F17 Mn6 2.095377 1_555
F17 Mn0 2.162746 1_545
F17 Mn4 2.185417 1_554
F18 Mn10 2.122855 1_555
F18 Mn1 2.187376 1_555
F18 Mn0 2.213117 1_546
F19 Mn9 2.115345 1_555
F19 Mn2 2.210067 1_546
F19 Mn5 2.214754 1_455
F20 Mn3 2.059730 1_545
F20 Mn7 2.081379 1_655
F20 Mn5 2.221371 1_554
F21 Mn4 2.143928 1_555
F21 Mn11 2.156020 1_555
F21 Mn3 2.189749 1_546
