# generated using pymatgen
data_Fe5O3F7
_symmetry_space_group_name_H-M   'P 1'
_cell_length_a   4.80415923
_cell_length_b   4.80415923
_cell_length_c   15.61296542
_cell_angle_alpha   89.82833396
_cell_angle_beta   89.82833396
_cell_angle_gamma   89.27992163
_symmetry_Int_Tables_number   1
_chemical_formula_structural   Fe5O3F7
_chemical_formula_sum   'Fe10 O6 F14'
_cell_volume   360.31474526
_cell_formula_units_Z   2
loop_
 _symmetry_equiv_pos_site_id
 _symmetry_equiv_pos_as_xyz
  1  'x, y, z'
loop_
 _atom_site_type_symbol
 _atom_site_label
 _atom_site_symmetry_multiplicity
 _atom_site_fract_x
 _atom_site_fract_y
 _atom_site_fract_z
 _atom_site_occupancy
  Fe  Fe0  1  0.04162700  0.97718500  0.80833000  1
  Fe  Fe1  1  0.99356500  0.00643500  0.00000000  1
  Fe  Fe2  1  0.02281500  0.95837300  0.19167000  1
  Fe  Fe3  1  0.97399300  0.02581700  0.39823800  1
  Fe  Fe4  1  0.97418300  0.02600700  0.60176200  1
  Fe  Fe5  1  0.45902200  0.47620700  0.89634900  1
  Fe  Fe6  1  0.49413600  0.49656900  0.30007100  1
  Fe  Fe7  1  0.52379300  0.54097800  0.10365100  1
  Fe  Fe8  1  0.52516700  0.47483300  0.50000000  1
  Fe  Fe9  1  0.50343100  0.50586400  0.69992900  1
  O  O0  1  0.81896100  0.81206800  0.10094600  1
  O  O1  1  0.67684500  0.32144000  0.39757100  1
  O  O2  1  0.67856000  0.32315500  0.60242900  1
  O  O3  1  0.31396600  0.68168700  0.79381300  1
  O  O4  1  0.31831300  0.68603400  0.20618700  1
  O  O5  1  0.18793200  0.18103900  0.89905400  1
  F  F0  1  0.79814400  0.79193800  0.89728400  1
  F  F1  1  0.80282500  0.79740000  0.29505900  1
  F  F2  1  0.78432800  0.80182100  0.50016000  1
  F  F3  1  0.80575800  0.80042500  0.70666400  1
  F  F4  1  0.70413300  0.28763800  0.79479700  1
  F  F5  1  0.67951800  0.32048200  0.00000000  1
  F  F6  1  0.71236200  0.29586700  0.20520300  1
  F  F7  1  0.31025600  0.68974400  0.00000000  1
  F  F8  1  0.29283500  0.70488500  0.40147600  1
  F  F9  1  0.29511500  0.70716500  0.59852400  1
  F  F10  1  0.19957500  0.19424200  0.29333600  1
  F  F11  1  0.20806200  0.20185600  0.10271600  1
  F  F12  1  0.20260000  0.19717500  0.70494100  1
  F  F13  1  0.19817900  0.21567200  0.49984000  1
loop_
_geom_bond_atom_site_label_1
_geom_bond_atom_site_label_2
_geom_bond_distance
_geom_bond_site_symmetry_2
Fe0 O5 1.868454 1_565
Fe0 O3 1.931829 1_555
Fe1 O0 2.015561 1_545
Fe1 O5 2.015561 1_654
Fe2 O0 1.868454 1_455
Fe2 O4 1.931829 1_555
Fe3 O1 2.001016 1_555
Fe4 O2 2.001016 1_555
Fe5 O5 1.937647 1_555
Fe5 O3 2.000722 1_555
Fe6 O4 1.915902 1_555
Fe6 O1 1.943551 1_555
Fe7 O0 1.937647 1_555
Fe7 O4 2.000722 1_555
Fe8 O1 1.902138 1_555
Fe8 O2 1.902138 1_555
Fe9 O3 1.915902 1_555
Fe9 O2 1.943551 1_555
F0 Fe0 2.024397 1_655
F0 Fe1 2.135039 1_566
F0 Fe5 2.240007 1_555
F1 Fe2 2.079311 1_655
F1 Fe6 2.084851 1_555
F1 Fe3 2.125252 1_565
F2 Fe8 2.016704 1_555
F2 Fe3 2.127490 1_565
F2 Fe4 2.133512 1_565
F3 Fe9 2.043680 1_555
F3 Fe4 2.124885 1_565
F3 Fe0 2.137226 1_655
F4 Fe9 2.048543 1_555
F4 Fe5 2.166060 1_555
F4 Fe0 2.199398 1_645
F5 Fe7 2.069734 1_555
F5 Fe5 2.069734 1_554
F5 Fe1 2.120219 1_555
F6 Fe6 2.048543 1_555
F6 Fe7 2.166060 1_555
F6 Fe2 2.199398 1_645
F7 Fe7 2.041243 1_555
F7 Fe5 2.041243 1_554
F7 Fe1 2.138070 1_465
F8 Fe6 2.102245 1_555
F8 Fe3 2.160249 1_465
F8 Fe8 2.191485 1_555
F9 Fe9 2.102245 1_555
F9 Fe4 2.160249 1_465
F9 Fe8 2.191485 1_555
F10 Fe6 2.043680 1_555
F10 Fe3 2.124885 1_455
F10 Fe2 2.137226 1_545
F11 Fe2 2.024397 1_545
F11 Fe1 2.135039 1_455
F11 Fe7 2.240007 1_555
F12 Fe0 2.079311 1_545
F12 Fe9 2.084851 1_555
F12 Fe4 2.125252 1_455
F13 Fe8 2.016704 1_555
F13 Fe4 2.127490 1_455
F13 Fe3 2.133512 1_455
