# generated using pymatgen
data_Li4V3Sn3(SbO8)2
_symmetry_space_group_name_H-M   'P 1'
_cell_length_a   6.20744840
_cell_length_b   20.49734838
_cell_length_c   6.25467008
_cell_angle_alpha   89.42318316
_cell_angle_beta   119.46090090
_cell_angle_gamma   90.15049023
_symmetry_Int_Tables_number   1
_chemical_formula_structural   Li4V3Sn3(SbO8)2
_chemical_formula_sum   'Li8 V6 Sn6 Sb4 O32'
_cell_volume   692.87671927
_cell_formula_units_Z   2
loop_
 _symmetry_equiv_pos_site_id
 _symmetry_equiv_pos_as_xyz
  1  'x, y, z'
loop_
 _atom_site_type_symbol
 _atom_site_label
 _atom_site_symmetry_multiplicity
 _atom_site_fract_x
 _atom_site_fract_y
 _atom_site_fract_z
 _atom_site_occupancy
  Li  Li0  1  0.66711100  0.44581500  0.33972200  1
  Li  Li1  1  0.66707900  0.94579200  0.33963200  1
  Li  Li2  1  0.99318500  0.49632400  0.98421600  1
  Li  Li3  1  0.99326300  0.99629200  0.98439200  1
  Li  Li4  1  0.99749400  0.24925200  0.98987600  1
  Li  Li5  1  0.99735800  0.74920800  0.98969800  1
  Li  Li6  1  0.33051700  0.19909000  0.66391600  1
  Li  Li7  1  0.33057800  0.69908000  0.66403300  1
  V  V0  1  0.83050400  0.60833300  0.66219800  1
  V  V1  1  0.66388700  0.35779000  0.83222200  1
  V  V2  1  0.16949400  0.35736500  0.82837200  1
  V  V3  1  0.83045800  0.10834600  0.66216600  1
  V  V4  1  0.66389100  0.85778800  0.83208400  1
  V  V5  1  0.16945600  0.85735400  0.82835700  1
  Sn  Sn0  1  0.83358200  0.10750800  0.16936900  1
  Sn  Sn1  1  0.83353600  0.60748700  0.16935300  1
  Sn  Sn2  1  0.33583200  0.10769600  0.16983600  1
  Sn  Sn3  1  0.33587000  0.60767800  0.16980200  1
  Sn  Sn4  1  0.16995400  0.35744000  0.33488300  1
  Sn  Sn5  1  0.16992100  0.85743600  0.33489800  1
  Sb  Sb0  1  0.66738600  0.24856900  0.33107100  1
  Sb  Sb1  1  0.66746600  0.74859700  0.33119400  1
  Sb  Sb2  1  0.33497200  0.49509000  0.67376500  1
  Sb  Sb3  1  0.33511500  0.99506100  0.67416100  1
  O  O0  1  0.83815000  0.30125500  0.14427900  1
  O  O1  1  0.83816800  0.80127700  0.14422100  1
  O  O2  1  0.51874200  0.17117900  0.03520900  1
  O  O3  1  0.51875600  0.67123800  0.03527900  1
  O  O4  1  0.66336300  0.05212500  0.32869000  1
  O  O5  1  0.66372800  0.55217400  0.32936500  1
  O  O6  1  0.00054000  0.15925500  0.99975500  1
  O  O7  1  0.00026100  0.65918800  0.99922000  1
  O  O8  1  0.00937200  0.40707400  0.00102800  1
  O  O9  1  0.00947500  0.90709200  0.00106800  1
  O  O10  1  0.30808800  0.30040400  0.14416500  1
  O  O11  1  0.30800300  0.80041200  0.14417100  1
  O  O12  1  0.97216800  0.16319500  0.48758900  1
  O  O13  1  0.97189400  0.66305600  0.48819400  1
  O  O14  1  0.51572700  0.16264100  0.48983000  1
  O  O15  1  0.51662300  0.66246200  0.49051100  1
  O  O16  1  0.15147800  0.04749000  0.30493500  1
  O  O17  1  0.15157100  0.54737100  0.30508500  1
  O  O18  1  0.86989100  0.30910500  0.71161900  1
  O  O19  1  0.86981900  0.80911400  0.71167300  1
  O  O20  1  0.49293200  0.41448400  0.52501300  1
  O  O21  1  0.49303000  0.91443800  0.52506400  1
  O  O22  1  0.03161800  0.41473800  0.52480600  1
  O  O23  1  0.03153500  0.91471600  0.52479800  1
  O  O24  1  0.32145500  0.30381200  0.66556700  1
  O  O25  1  0.32134600  0.80379500  0.66546000  1
  O  O26  1  0.69501000  0.05319600  0.84600700  1
  O  O27  1  0.69533400  0.55331200  0.84535900  1
  O  O28  1  0.46745400  0.40989000  0.96751400  1
  O  O29  1  0.46753000  0.90992900  0.96750400  1
  O  O30  1  0.15032900  0.05394500  0.84426600  1
  O  O31  1  0.14930000  0.55409000  0.84354400  1
loop_
_geom_bond_atom_site_label_1
_geom_bond_atom_site_label_2
_geom_bond_distance
_geom_bond_site_symmetry_2
Li0 O20 2.034330 1_555
Li0 O22 2.069227 1_655
Li0 O28 2.165550 1_554
Li0 O5 2.180237 1_555
Li1 O21 2.034552 1_555
Li1 O23 2.068971 1_655
Li1 O29 2.164678 1_554
Li1 O4 2.179756 1_565
Li2 O8 1.831533 1_656
Li2 O31 1.981651 1_655
Li2 O27 1.987099 1_555
Li2 O17 2.045766 1_656
Li3 O9 1.830498 1_656
Li3 O30 1.982138 1_665
Li3 O26 1.987963 1_565
Li3 O16 2.045854 1_666
Li4 O6 1.844948 1_655
Li4 O18 1.941033 1_555
Li4 O10 1.981753 1_656
Li4 O0 2.003270 1_556
Li5 O7 1.845382 1_655
Li5 O19 1.940723 1_555
Li5 O11 1.982568 1_656
Li5 O1 2.003847 1_556
Li6 O12 2.073722 1_455
Li6 O14 2.077932 1_555
Li6 O2 2.096023 1_556
Li6 O24 2.147670 1_555
Li7 O13 2.076333 1_455
Li7 O15 2.080594 1_555
Li7 O3 2.095403 1_556
Li7 O25 2.147521 1_555
O0 V1 2.051045 1_554
O0 Sn4 2.142331 1_655
O0 Sb0 2.200365 1_555
O1 V4 2.051120 1_554
O1 Sn5 2.141866 1_655
O1 Sb1 2.200884 1_555
O2 Sn2 2.145230 1_555
O2 Sn0 2.145945 1_555
O2 Sb0 2.272434 1_555
O3 Sn3 2.145652 1_555
O3 Sn1 2.146706 1_555
O3 Sb1 2.272193 1_555
O4 Sn0 2.098763 1_555
O4 Sn2 2.102520 1_555
O4 V3 2.160637 1_555
O5 Sn1 2.099221 1_555
O5 Sn3 2.103239 1_555
O5 V0 2.156986 1_555
O6 Sn0 2.092288 1_456
O6 Sn2 2.095565 1_556
O6 V3 2.123145 1_455
O7 Sn1 2.093163 1_456
O7 Sn3 2.096572 1_556
O7 V0 2.119900 1_455
O8 V2 2.067753 1_554
O8 Sn4 2.074637 1_555
O8 V1 2.125387 1_454
O9 V5 2.067666 1_554
O9 Sn5 2.074746 1_555
O9 V4 2.126058 1_454
O10 V2 2.071711 1_554
O10 Sn4 2.136454 1_555
O10 Sb0 2.211916 1_555
O11 V5 2.071608 1_554
O11 Sn5 2.136142 1_555
O11 Sb1 2.212508 1_555
O12 V3 2.035917 1_555
O12 Sn0 2.088252 1_555
O12 Sb0 2.400221 1_555
O13 V0 2.030465 1_555
O13 Sn1 2.089934 1_555
O13 Sb1 2.401460 1_555
O14 V3 2.033000 1_555
O14 Sn2 2.088422 1_555
O14 Sb0 2.418689 1_555
O15 V0 2.027234 1_555
O15 Sn3 2.090087 1_555
O15 Sb1 2.420855 1_555
O16 Sn2 2.114069 1_555
O16 Sn0 2.114772 1_455
O16 Sb3 2.270361 1_545
O17 Sn3 2.115775 1_555
O17 Sn1 2.116508 1_455
O17 Sb2 2.266333 1_555
O18 V2 1.907749 1_655
O18 V1 2.042249 1_555
O18 Sb0 2.427616 1_555
O19 V5 1.907741 1_655
O19 V4 2.040936 1_555
O19 Sb1 2.427066 1_555
O20 V1 2.030874 1_555
O20 Sn4 2.114544 1_555
O20 Sb2 2.343864 1_555
O21 V4 2.029523 1_555
O21 Sn5 2.114633 1_555
O21 Sb3 2.345256 1_555
O22 V2 2.020495 1_555
O22 Sn4 2.136504 1_555
O22 Sb2 2.327103 1_555
O23 V5 2.020323 1_555
O23 Sn5 2.136399 1_555
O23 Sb3 2.327883 1_555
O24 V2 2.025942 1_555
O24 Sn4 2.101664 1_555
O24 V1 2.158784 1_555
O25 V5 2.026119 1_555
O25 Sn5 2.101239 1_555
O25 V4 2.159465 1_555
O26 V3 2.055920 1_555
O26 Sn0 2.097340 1_556
O26 Sb3 2.283841 1_545
O27 V0 2.050096 1_555
O27 Sn1 2.099020 1_556
O27 Sb2 2.286946 1_555
O28 V2 1.939712 1_555
O28 V1 2.093634 1_555
O28 Sb2 2.357644 1_555
O29 V5 1.940800 1_555
O29 V4 2.094275 1_555
O29 Sb3 2.355111 1_555
O30 V3 2.060263 1_455
O30 Sn2 2.102011 1_556
O30 Sb3 2.266731 1_545
O31 V0 2.053548 1_455
O31 Sn3 2.103738 1_556
O31 Sb2 2.270600 1_555
