# generated using pymatgen
data_Li4V2Fe3Co3O16
_symmetry_space_group_name_H-M   'P 1'
_cell_length_a   5.82605700
_cell_length_b   5.84981708
_cell_length_c   9.38656771
_cell_angle_alpha   90.24664697
_cell_angle_beta   89.94148687
_cell_angle_gamma   119.74773499
_symmetry_Int_Tables_number   1
_chemical_formula_structural   Li4V2Fe3Co3O16
_chemical_formula_sum   'Li4 V2 Fe3 Co3 O16'
_cell_volume   277.74640807
_cell_formula_units_Z   1
loop_
 _symmetry_equiv_pos_site_id
 _symmetry_equiv_pos_as_xyz
  1  'x, y, z'
loop_
 _atom_site_type_symbol
 _atom_site_label
 _atom_site_symmetry_multiplicity
 _atom_site_fract_x
 _atom_site_fract_y
 _atom_site_fract_z
 _atom_site_occupancy
  Li  Li0  1  0.33682500  0.67406500  0.09919300  1
  Li  Li1  1  0.99518600  0.98690300  0.00564200  1
  Li  Li2  1  0.99248100  0.98187100  0.50799900  1
  Li  Li3  1  0.66744400  0.33479300  0.60311300  1
  V  V0  1  0.33469600  0.66265400  0.50466200  1
  V  V1  1  0.66640500  0.33600000  0.00299200  1
  Fe  Fe0  1  0.17165700  0.34378700  0.78006000  1
  Fe  Fe1  1  0.34367000  0.17229900  0.28199600  1
  Fe  Fe2  1  0.82985300  0.17439600  0.28081500  1
  Co  Co0  1  0.17276000  0.82774800  0.78607100  1
  Co  Co1  1  0.65665100  0.82090800  0.78534700  1
  Co  Co2  1  0.82668500  0.65186400  0.28630300  1
  O  O0  1  0.16932200  0.81985100  0.40859200  1
  O  O1  1  0.47718300  0.95454800  0.66319400  1
  O  O2  1  0.34585800  0.67924100  0.88869700  1
  O  O3  1  0.98939800  0.98819100  0.69967300  1
  O  O4  1  0.99399100  0.98728000  0.19693900  1
  O  O5  1  0.65109500  0.82088500  0.40890000  1
  O  O6  1  0.04201900  0.53697000  0.65867900  1
  O  O7  1  0.47147900  0.51213200  0.64552200  1
  O  O8  1  0.82855200  0.65669800  0.90255800  1
  O  O9  1  0.16736000  0.34361900  0.41412100  1
  O  O10  1  0.53308600  0.49314100  0.15622800  1
  O  O11  1  0.96027100  0.49463800  0.15656900  1
  O  O12  1  0.66817400  0.33676400  0.39469500  1
  O  O13  1  0.34502200  0.17007400  0.90859800  1
  O  O14  1  0.52229900  0.04521300  0.14772600  1
  O  O15  1  0.84028000  0.19346800  0.91727700  1
loop_
_geom_bond_atom_site_label_1
_geom_bond_atom_site_label_2
_geom_bond_distance
_geom_bond_site_symmetry_2
Li0 O14 1.937363 1_565
Li0 O2 1.976444 1_554
Li0 O10 1.980215 1_555
Li0 O11 1.980398 1_455
Li1 O4 1.795625 1_555
Li1 O8 1.932576 1_554
Li1 O13 1.992330 1_664
Li1 O15 2.013701 1_564
Li2 O3 1.799636 1_555
Li2 O0 1.946768 1_655
Li2 O5 1.960991 1_555
Li2 O9 2.041402 1_665
Li3 O7 1.925883 1_555
Li3 O12 1.956401 1_555
Li3 O6 1.966965 1_655
Li3 O1 2.014263 1_545
Fe0 O3 1.954522 1_445
Fe0 O7 1.978627 1_555
Fe0 O2 1.982214 1_555
Fe0 O6 2.001378 1_555
Fe0 O15 2.116468 1_455
Fe0 O13 2.130756 1_555
Fe1 O4 1.940876 1_445
Fe1 O12 1.951735 1_555
Fe1 O14 1.995302 1_555
Fe1 O10 2.023639 1_555
Fe1 O9 2.146133 1_555
Fe1 O0 2.152914 1_545
Fe2 O4 1.939650 1_545
Fe2 O12 1.951699 1_555
Fe2 O14 1.998762 1_555
Fe2 O11 2.012802 1_555
Fe2 O9 2.115382 1_655
Fe2 O5 2.165228 1_545
Co0 O2 1.891639 1_555
Co0 O6 1.897906 1_555
Co0 O3 1.919145 1_455
Co0 O1 1.929712 1_555
Co0 O8 2.057175 1_455
Co0 O13 2.080449 1_565
Co1 O2 1.849522 1_555
Co1 O3 1.866417 1_555
Co1 O1 1.959705 1_555
Co1 O8 2.025406 1_555
Co1 O7 2.048857 1_555
Co1 O15 2.256899 1_565
Co2 O12 1.900169 1_555
Co2 O4 1.902159 1_555
Co2 O11 1.906135 1_555
Co2 O10 1.922799 1_555
Co2 O0 2.077614 1_655
Co2 O5 2.083255 1_555
O0 V0 1.864197 1_555
O1 V0 2.095977 1_555
O5 V0 1.836649 1_555
O6 V0 2.073196 1_555
O7 V0 1.966492 1_555
O8 V1 1.885557 1_556
O9 V0 1.827087 1_555
O10 V1 2.052334 1_555
O11 V1 2.070591 1_555
O13 V1 1.850812 1_556
O14 V1 2.011081 1_555
O15 V1 1.788701 1_556
