# generated using pymatgen
data_Ag11Hg9
_symmetry_space_group_name_H-M   'P 1'
_cell_length_a   6.43826658
_cell_length_b   6.43826658
_cell_length_c   93.48505400
_cell_angle_alpha   90.00000000
_cell_angle_beta   90.00000000
_cell_angle_gamma   119.99998537
_symmetry_Int_Tables_number   1
_chemical_formula_structural   Ag11Hg9
_chemical_formula_sum   'Ag88 Hg72'
_cell_volume   3355.91373247
_cell_formula_units_Z   8
loop_
 _symmetry_equiv_pos_site_id
 _symmetry_equiv_pos_as_xyz
  1  'x, y, z'
loop_
 _atom_site_type_symbol
 _atom_site_label
 _atom_site_symmetry_multiplicity
 _atom_site_fract_x
 _atom_site_fract_y
 _atom_site_fract_z
 _atom_site_occupancy
  Ag  Ag0_0  1  0.33333350  0.16666650  0.36271100  1
  Ag  Ag0_1  1  0.33333350  0.16666650  0.86271100  1
  Ag  Ag0_2  1  0.33333350  0.66666650  0.36271100  1
  Ag  Ag0_3  1  0.33333350  0.66666650  0.86271100  1
  Ag  Ag0_4  1  0.83333350  0.16666650  0.36271100  1
  Ag  Ag0_5  1  0.83333350  0.16666650  0.86271100  1
  Ag  Ag0_6  1  0.83333350  0.66666650  0.36271100  1
  Ag  Ag0_7  1  0.83333350  0.66666650  0.86271100  1
  Ag  Ag1_0  1  0.33333350  0.16666650  0.46122400  1
  Ag  Ag1_1  1  0.33333350  0.16666650  0.96122400  1
  Ag  Ag1_2  1  0.33333350  0.66666650  0.46122400  1
  Ag  Ag1_3  1  0.33333350  0.66666650  0.96122400  1
  Ag  Ag1_4  1  0.83333350  0.16666650  0.46122400  1
  Ag  Ag1_5  1  0.83333350  0.16666650  0.96122400  1
  Ag  Ag1_6  1  0.83333350  0.66666650  0.46122400  1
  Ag  Ag1_7  1  0.83333350  0.66666650  0.96122400  1
  Ag  Ag2_0  1  0.00000000  0.00000000  0.08915650  1
  Ag  Ag2_1  1  0.00000000  0.00000000  0.58915650  1
  Ag  Ag2_2  1  0.00000000  0.50000000  0.08915650  1
  Ag  Ag2_3  1  0.00000000  0.50000000  0.58915650  1
  Ag  Ag2_4  1  0.50000000  0.00000000  0.08915650  1
  Ag  Ag2_5  1  0.50000000  0.00000000  0.58915650  1
  Ag  Ag2_6  1  0.50000000  0.50000000  0.08915650  1
  Ag  Ag2_7  1  0.50000000  0.50000000  0.58915650  1
  Ag  Ag3_0  1  0.00000000  0.00000000  0.13803450  1
  Ag  Ag3_1  1  0.00000000  0.00000000  0.63803450  1
  Ag  Ag3_2  1  0.00000000  0.50000000  0.13803450  1
  Ag  Ag3_3  1  0.00000000  0.50000000  0.63803450  1
  Ag  Ag3_4  1  0.50000000  0.00000000  0.13803450  1
  Ag  Ag3_5  1  0.50000000  0.00000000  0.63803450  1
  Ag  Ag3_6  1  0.50000000  0.50000000  0.13803450  1
  Ag  Ag3_7  1  0.50000000  0.50000000  0.63803450  1
  Ag  Ag4_0  1  0.00000000  0.00000000  0.18753500  1
  Ag  Ag4_1  1  0.00000000  0.00000000  0.68753500  1
  Ag  Ag4_2  1  0.00000000  0.50000000  0.18753500  1
  Ag  Ag4_3  1  0.00000000  0.50000000  0.68753500  1
  Ag  Ag4_4  1  0.50000000  0.00000000  0.18753500  1
  Ag  Ag4_5  1  0.50000000  0.00000000  0.68753500  1
  Ag  Ag4_6  1  0.50000000  0.50000000  0.18753500  1
  Ag  Ag4_7  1  0.50000000  0.50000000  0.68753500  1
  Ag  Ag5_0  1  0.00000000  0.00000000  0.23764750  1
  Ag  Ag5_1  1  0.00000000  0.00000000  0.73764750  1
  Ag  Ag5_2  1  0.00000000  0.50000000  0.23764750  1
  Ag  Ag5_3  1  0.00000000  0.50000000  0.73764750  1
  Ag  Ag5_4  1  0.50000000  0.00000000  0.23764750  1
  Ag  Ag5_5  1  0.50000000  0.00000000  0.73764750  1
  Ag  Ag5_6  1  0.50000000  0.50000000  0.23764750  1
  Ag  Ag5_7  1  0.50000000  0.50000000  0.73764750  1
  Ag  Ag6_0  1  0.00000000  0.00000000  0.33863200  1
  Ag  Ag6_1  1  0.00000000  0.00000000  0.83863200  1
  Ag  Ag6_2  1  0.00000000  0.50000000  0.33863200  1
  Ag  Ag6_3  1  0.00000000  0.50000000  0.83863200  1
  Ag  Ag6_4  1  0.50000000  0.00000000  0.33863200  1
  Ag  Ag6_5  1  0.50000000  0.00000000  0.83863200  1
  Ag  Ag6_6  1  0.50000000  0.50000000  0.33863200  1
  Ag  Ag6_7  1  0.50000000  0.50000000  0.83863200  1
  Ag  Ag7_0  1  0.00000000  0.00000000  0.38680200  1
  Ag  Ag7_1  1  0.00000000  0.00000000  0.88680200  1
  Ag  Ag7_2  1  0.00000000  0.50000000  0.38680200  1
  Ag  Ag7_3  1  0.00000000  0.50000000  0.88680200  1
  Ag  Ag7_4  1  0.50000000  0.00000000  0.38680200  1
  Ag  Ag7_5  1  0.50000000  0.00000000  0.88680200  1
  Ag  Ag7_6  1  0.50000000  0.50000000  0.38680200  1
  Ag  Ag7_7  1  0.50000000  0.50000000  0.88680200  1
  Ag  Ag8_0  1  0.00000000  0.00000000  0.43741500  1
  Ag  Ag8_1  1  0.00000000  0.00000000  0.93741500  1
  Ag  Ag8_2  1  0.00000000  0.50000000  0.43741500  1
  Ag  Ag8_3  1  0.00000000  0.50000000  0.93741500  1
  Ag  Ag8_4  1  0.50000000  0.00000000  0.43741500  1
  Ag  Ag8_5  1  0.50000000  0.00000000  0.93741500  1
  Ag  Ag8_6  1  0.50000000  0.50000000  0.43741500  1
  Ag  Ag8_7  1  0.50000000  0.50000000  0.93741500  1
  Ag  Ag9_0  1  0.00000000  0.00000000  0.48470550  1
  Ag  Ag9_1  1  0.00000000  0.00000000  0.98470550  1
  Ag  Ag9_2  1  0.00000000  0.50000000  0.48470550  1
  Ag  Ag9_3  1  0.00000000  0.50000000  0.98470550  1
  Ag  Ag9_4  1  0.50000000  0.00000000  0.48470550  1
  Ag  Ag9_5  1  0.50000000  0.00000000  0.98470550  1
  Ag  Ag9_6  1  0.50000000  0.50000000  0.48470550  1
  Ag  Ag9_7  1  0.50000000  0.50000000  0.98470550  1
  Ag  Ag10_0  1  0.00000000  0.00000000  0.28790850  1
  Ag  Ag10_1  1  0.00000000  0.00000000  0.78790850  1
  Ag  Ag10_2  1  0.00000000  0.50000000  0.28790850  1
  Ag  Ag10_3  1  0.00000000  0.50000000  0.78790850  1
  Ag  Ag10_4  1  0.50000000  0.00000000  0.28790850  1
  Ag  Ag10_5  1  0.50000000  0.00000000  0.78790850  1
  Ag  Ag10_6  1  0.50000000  0.50000000  0.28790850  1
  Ag  Ag10_7  1  0.50000000  0.50000000  0.78790850  1
  Hg  Hg0_0  1  0.33333350  0.16666650  0.00952150  1
  Hg  Hg0_1  1  0.33333350  0.16666650  0.50952150  1
  Hg  Hg0_2  1  0.33333350  0.66666650  0.00952150  1
  Hg  Hg0_3  1  0.33333350  0.66666650  0.50952150  1
  Hg  Hg0_4  1  0.83333350  0.16666650  0.00952150  1
  Hg  Hg0_5  1  0.83333350  0.16666650  0.50952150  1
  Hg  Hg0_6  1  0.83333350  0.66666650  0.00952150  1
  Hg  Hg0_7  1  0.83333350  0.66666650  0.50952150  1
  Hg  Hg1_0  1  0.33333350  0.16666650  0.06467900  1
  Hg  Hg1_1  1  0.33333350  0.16666650  0.56467900  1
  Hg  Hg1_2  1  0.33333350  0.66666650  0.06467900  1
  Hg  Hg1_3  1  0.33333350  0.66666650  0.56467900  1
  Hg  Hg1_4  1  0.83333350  0.16666650  0.06467900  1
  Hg  Hg1_5  1  0.83333350  0.16666650  0.56467900  1
  Hg  Hg1_6  1  0.83333350  0.66666650  0.06467900  1
  Hg  Hg1_7  1  0.83333350  0.66666650  0.56467900  1
  Hg  Hg2_0  1  0.33333350  0.16666650  0.16274450  1
  Hg  Hg2_1  1  0.33333350  0.16666650  0.66274450  1
  Hg  Hg2_2  1  0.33333350  0.66666650  0.16274450  1
  Hg  Hg2_3  1  0.33333350  0.66666650  0.66274450  1
  Hg  Hg2_4  1  0.83333350  0.16666650  0.16274450  1
  Hg  Hg2_5  1  0.83333350  0.16666650  0.66274450  1
  Hg  Hg2_6  1  0.83333350  0.66666650  0.16274450  1
  Hg  Hg2_7  1  0.83333350  0.66666650  0.66274450  1
  Hg  Hg3_0  1  0.33333350  0.16666650  0.26280550  1
  Hg  Hg3_1  1  0.33333350  0.16666650  0.76280550  1
  Hg  Hg3_2  1  0.33333350  0.66666650  0.26280550  1
  Hg  Hg3_3  1  0.33333350  0.66666650  0.76280550  1
  Hg  Hg3_4  1  0.83333350  0.16666650  0.26280550  1
  Hg  Hg3_5  1  0.83333350  0.16666650  0.76280550  1
  Hg  Hg3_6  1  0.83333350  0.66666650  0.26280550  1
  Hg  Hg3_7  1  0.83333350  0.66666650  0.76280550  1
  Hg  Hg4_0  1  0.33333350  0.16666650  0.11343450  1
  Hg  Hg4_1  1  0.33333350  0.16666650  0.61343450  1
  Hg  Hg4_2  1  0.33333350  0.66666650  0.11343450  1
  Hg  Hg4_3  1  0.33333350  0.66666650  0.61343450  1
  Hg  Hg4_4  1  0.83333350  0.16666650  0.11343450  1
  Hg  Hg4_5  1  0.83333350  0.16666650  0.61343450  1
  Hg  Hg4_6  1  0.83333350  0.66666650  0.11343450  1
  Hg  Hg4_7  1  0.83333350  0.66666650  0.61343450  1
  Hg  Hg5_0  1  0.33333350  0.16666650  0.21253850  1
  Hg  Hg5_1  1  0.33333350  0.16666650  0.71253850  1
  Hg  Hg5_2  1  0.33333350  0.66666650  0.21253850  1
  Hg  Hg5_3  1  0.33333350  0.66666650  0.71253850  1
  Hg  Hg5_4  1  0.83333350  0.16666650  0.21253850  1
  Hg  Hg5_5  1  0.83333350  0.16666650  0.71253850  1
  Hg  Hg5_6  1  0.83333350  0.66666650  0.21253850  1
  Hg  Hg5_7  1  0.83333350  0.66666650  0.71253850  1
  Hg  Hg6_0  1  0.33333350  0.16666650  0.41222650  1
  Hg  Hg6_1  1  0.33333350  0.16666650  0.91222650  1
  Hg  Hg6_2  1  0.33333350  0.66666650  0.41222650  1
  Hg  Hg6_3  1  0.33333350  0.66666650  0.91222650  1
  Hg  Hg6_4  1  0.83333350  0.16666650  0.41222650  1
  Hg  Hg6_5  1  0.83333350  0.16666650  0.91222650  1
  Hg  Hg6_6  1  0.83333350  0.66666650  0.41222650  1
  Hg  Hg6_7  1  0.83333350  0.66666650  0.91222650  1
  Hg  Hg7_0  1  0.33333350  0.16666650  0.31314850  1
  Hg  Hg7_1  1  0.33333350  0.16666650  0.81314850  1
  Hg  Hg7_2  1  0.33333350  0.66666650  0.31314850  1
  Hg  Hg7_3  1  0.33333350  0.66666650  0.81314850  1
  Hg  Hg7_4  1  0.83333350  0.16666650  0.31314850  1
  Hg  Hg7_5  1  0.83333350  0.16666650  0.81314850  1
  Hg  Hg7_6  1  0.83333350  0.66666650  0.31314850  1
  Hg  Hg7_7  1  0.83333350  0.66666650  0.81314850  1
  Hg  Hg8_0  1  0.00000000  0.00000000  0.03713000  1
  Hg  Hg8_1  1  0.00000000  0.00000000  0.53713000  1
  Hg  Hg8_2  1  0.00000000  0.50000000  0.03713000  1
  Hg  Hg8_3  1  0.00000000  0.50000000  0.53713000  1
  Hg  Hg8_4  1  0.50000000  0.00000000  0.03713000  1
  Hg  Hg8_5  1  0.50000000  0.00000000  0.53713000  1
  Hg  Hg8_6  1  0.50000000  0.50000000  0.03713000  1
  Hg  Hg8_7  1  0.50000000  0.50000000  0.53713000  1
loop_
_geom_bond_atom_site_label_1
_geom_bond_atom_site_label_2
_geom_bond_distance
_geom_bond_site_symmetry_2
Ag0_0 Ag6_4 2.919141 1_555
Ag0_0 Ag6_6 2.919143 1_555
Ag0_0 Ag6_0 2.919143 1_555
Ag0_0 Ag7_4 2.920007 1_555
Ag0_0 Ag7_0 2.920009 1_555
Ag0_0 Ag7_6 2.920009 1_555
Ag0_0 Ag0_2 3.219133 1_555
Ag0_0 Ag0_4 3.219133 1_555
Ag0_0 Ag0_2 3.219133 1_545
Ag0_0 Ag0_4 3.219133 1_455
Ag0_0 Ag0_6 3.219134 1_555
Ag0_0 Ag0_6 3.219134 1_445
Ag0_1 Ag6_5 2.919141 1_555
Ag0_1 Ag6_7 2.919143 1_555
Ag0_1 Ag6_1 2.919143 1_555
Ag0_1 Ag7_5 2.920007 1_555
Ag0_1 Ag7_1 2.920009 1_555
Ag0_1 Ag7_7 2.920009 1_555
Ag0_1 Ag0_5 3.219133 1_555
Ag0_1 Ag0_3 3.219133 1_555
Ag0_1 Ag0_5 3.219133 1_455
Ag0_1 Ag0_3 3.219133 1_545
Ag0_1 Ag0_7 3.219134 1_555
Ag0_1 Ag0_7 3.219134 1_445
Ag0_2 Ag6_6 2.919141 1_555
Ag0_2 Ag6_4 2.919143 1_565
Ag0_2 Ag6_2 2.919143 1_555
Ag0_2 Ag7_6 2.920007 1_555
Ag0_2 Ag7_2 2.920009 1_555
Ag0_2 Ag7_4 2.920009 1_565
Ag0_2 Ag0_6 3.219133 1_555
Ag0_2 Ag0_6 3.219133 1_455
Ag0_2 Ag0_4 3.219134 1_455
Ag0_2 Ag0_4 3.219134 1_565
Ag0_3 Ag6_7 2.919141 1_555
Ag0_3 Ag6_5 2.919143 1_565
Ag0_3 Ag6_3 2.919143 1_555
Ag0_3 Ag7_7 2.920007 1_555
Ag0_3 Ag7_3 2.920009 1_555
Ag0_3 Ag7_5 2.920009 1_565
Ag0_3 Ag0_7 3.219133 1_555
Ag0_3 Ag0_7 3.219133 1_455
Ag0_3 Ag0_5 3.219134 1_455
Ag0_3 Ag0_5 3.219134 1_565
Ag0_4 Ag6_0 2.919141 1_655
Ag0_4 Ag6_2 2.919143 1_655
Ag0_4 Ag6_4 2.919143 1_555
Ag0_4 Ag7_0 2.920007 1_655
Ag0_4 Ag7_4 2.920009 1_555
Ag0_4 Ag7_2 2.920009 1_655
Ag0_4 Ag0_6 3.219133 1_545
Ag0_4 Ag0_6 3.219133 1_555
Ag0_5 Ag6_1 2.919141 1_655
Ag0_5 Ag6_3 2.919143 1_655
Ag0_5 Ag6_5 2.919143 1_555
Ag0_5 Ag7_1 2.920007 1_655
Ag0_5 Ag7_3 2.920009 1_655
Ag0_5 Ag7_5 2.920009 1_555
Ag0_5 Ag0_7 3.219133 1_545
Ag0_5 Ag0_7 3.219133 1_555
Ag0_6 Ag6_2 2.919141 1_655
Ag0_6 Ag6_0 2.919143 1_665
Ag0_6 Ag6_6 2.919143 1_555
Ag0_6 Ag7_2 2.920007 1_655
Ag0_6 Ag7_0 2.920009 1_665
Ag0_6 Ag7_6 2.920009 1_555
Ag0_7 Ag6_3 2.919141 1_655
Ag0_7 Ag6_1 2.919143 1_665
Ag0_7 Ag6_7 2.919143 1_555
Ag0_7 Ag7_3 2.920007 1_655
Ag0_7 Ag7_7 2.920009 1_555
Ag0_7 Ag7_1 2.920009 1_665
Ag1_0 Ag9_4 2.876288 1_555
Ag1_0 Ag9_6 2.876290 1_555
Ag1_0 Ag9_0 2.876290 1_555
Ag1_0 Ag8_4 2.899722 1_555
Ag1_0 Ag8_0 2.899724 1_555
Ag1_0 Ag8_6 2.899724 1_555
Ag1_0 Ag1_2 3.219133 1_555
Ag1_0 Ag1_4 3.219133 1_555
Ag1_0 Ag1_4 3.219133 1_455
Ag1_0 Ag1_2 3.219133 1_545
Ag1_0 Ag1_6 3.219134 1_555
Ag1_0 Ag1_6 3.219134 1_445
Ag1_1 Ag9_5 2.876288 1_555
Ag1_1 Ag9_1 2.876290 1_555
Ag1_1 Ag9_7 2.876290 1_555
Ag1_1 Ag8_5 2.899722 1_555
Ag1_1 Ag8_1 2.899724 1_555
Ag1_1 Ag8_7 2.899724 1_555
Ag1_1 Ag1_3 3.219133 1_555
Ag1_1 Ag1_5 3.219133 1_555
Ag1_1 Ag1_3 3.219133 1_545
Ag1_1 Ag1_5 3.219133 1_455
Ag1_1 Ag1_7 3.219134 1_555
Ag1_1 Ag1_7 3.219134 1_445
Ag1_2 Ag9_6 2.876288 1_555
Ag1_2 Ag9_2 2.876290 1_555
Ag1_2 Ag9_4 2.876290 1_565
Ag1_2 Ag8_6 2.899722 1_555
Ag1_2 Ag8_2 2.899724 1_555
Ag1_2 Ag8_4 2.899724 1_565
Ag1_2 Ag1_6 3.219133 1_555
Ag1_2 Ag1_6 3.219133 1_455
Ag1_2 Ag1_4 3.219134 1_455
Ag1_2 Ag1_4 3.219134 1_565
Ag1_3 Ag9_7 2.876288 1_555
Ag1_3 Ag9_3 2.876290 1_555
Ag1_3 Ag9_5 2.876290 1_565
Ag1_3 Ag8_7 2.899722 1_555
Ag1_3 Ag8_5 2.899724 1_565
Ag1_3 Ag8_3 2.899724 1_555
Ag1_3 Ag1_7 3.219133 1_555
Ag1_3 Ag1_7 3.219133 1_455
Ag1_3 Ag1_5 3.219134 1_455
Ag1_3 Ag1_5 3.219134 1_565
Ag1_4 Ag9_0 2.876288 1_655
Ag1_4 Ag9_4 2.876290 1_555
Ag1_4 Ag9_2 2.876290 1_655
Ag1_4 Ag8_0 2.899722 1_655
Ag1_4 Ag8_2 2.899724 1_655
Ag1_4 Ag8_4 2.899724 1_555
Ag1_4 Ag1_6 3.219133 1_555
Ag1_4 Ag1_6 3.219133 1_545
Ag1_5 Ag9_1 2.876288 1_655
Ag1_5 Ag9_3 2.876290 1_655
Ag1_5 Ag9_5 2.876290 1_555
Ag1_5 Ag8_1 2.899722 1_655
Ag1_5 Ag8_3 2.899724 1_655
Ag1_5 Ag8_5 2.899724 1_555
Ag1_5 Ag1_7 3.219133 1_545
Ag1_5 Ag1_7 3.219133 1_555
Ag1_6 Ag9_2 2.876288 1_655
Ag1_6 Ag9_6 2.876290 1_555
Ag1_6 Ag9_0 2.876290 1_665
Ag1_6 Ag8_2 2.899722 1_655
Ag1_6 Ag8_6 2.899724 1_555
Ag1_6 Ag8_0 2.899724 1_665
Ag1_7 Ag9_3 2.876288 1_655
Ag1_7 Ag9_1 2.876290 1_665
Ag1_7 Ag9_7 2.876290 1_555
Ag1_7 Ag8_3 2.899722 1_655
Ag1_7 Ag8_1 2.899724 1_665
Ag1_7 Ag8_7 2.899724 1_555
Ag2_0 Hg4_4 2.933511 1_455
Ag2_0 Hg4_6 2.933513 1_445
Ag2_0 Hg4_0 2.933513 1_555
Ag2_0 Hg1_4 2.947964 1_455
Ag2_0 Hg1_6 2.947966 1_445
Ag2_0 Hg1_0 2.947966 1_555
Ag2_0 Ag2_4 3.219133 1_555
Ag2_0 Ag2_4 3.219133 1_455
Ag2_0 Ag2_2 3.219133 1_555
Ag2_0 Ag2_2 3.219133 1_545
Ag2_0 Ag2_6 3.219134 1_445
Ag2_0 Ag2_6 3.219134 1_555
Ag2_1 Hg4_5 2.933511 1_455
Ag2_1 Hg4_7 2.933513 1_445
Ag2_1 Hg4_1 2.933513 1_555
Ag2_1 Hg1_5 2.947964 1_455
Ag2_1 Hg1_7 2.947966 1_445
Ag2_1 Hg1_1 2.947966 1_555
Ag2_1 Ag2_5 3.219133 1_555
Ag2_1 Ag2_5 3.219133 1_455
Ag2_1 Ag2_3 3.219133 1_545
Ag2_1 Ag2_3 3.219133 1_555
Ag2_1 Ag2_7 3.219134 1_555
Ag2_1 Ag2_7 3.219134 1_445
Ag2_2 Hg4_6 2.933511 1_455
Ag2_2 Hg4_4 2.933513 1_455
Ag2_2 Hg4_2 2.933513 1_555
Ag2_2 Hg1_6 2.947964 1_455
Ag2_2 Hg1_4 2.947966 1_455
Ag2_2 Hg1_2 2.947966 1_555
Ag2_2 Ag2_6 3.219133 1_555
Ag2_2 Ag2_6 3.219133 1_455
Ag2_2 Ag2_4 3.219134 1_565
Ag2_2 Ag2_4 3.219134 1_455
Ag2_3 Hg4_7 2.933511 1_455
Ag2_3 Hg4_5 2.933513 1_455
Ag2_3 Hg4_3 2.933513 1_555
Ag2_3 Hg1_7 2.947964 1_455
Ag2_3 Hg1_5 2.947966 1_455
Ag2_3 Hg1_3 2.947966 1_555
Ag2_3 Ag2_7 3.219133 1_455
Ag2_3 Ag2_7 3.219133 1_555
Ag2_3 Ag2_5 3.219134 1_455
Ag2_3 Ag2_5 3.219134 1_565
Ag2_4 Hg4_0 2.933511 1_555
Ag2_4 Hg4_4 2.933513 1_555
Ag2_4 Hg4_2 2.933513 1_545
Ag2_4 Hg1_0 2.947964 1_555
Ag2_4 Hg1_4 2.947966 1_555
Ag2_4 Hg1_2 2.947966 1_545
Ag2_4 Ag2_6 3.219133 1_555
Ag2_4 Ag2_6 3.219133 1_545
Ag2_5 Hg4_1 2.933511 1_555
Ag2_5 Hg4_3 2.933513 1_545
Ag2_5 Hg4_5 2.933513 1_555
Ag2_5 Hg1_1 2.947964 1_555
Ag2_5 Hg1_3 2.947966 1_545
Ag2_5 Hg1_5 2.947966 1_555
Ag2_5 Ag2_7 3.219133 1_555
Ag2_5 Ag2_7 3.219133 1_545
Ag2_6 Hg4_2 2.933511 1_555
Ag2_6 Hg4_6 2.933513 1_555
Ag2_6 Hg4_0 2.933513 1_555
Ag2_6 Hg1_2 2.947964 1_555
Ag2_6 Hg1_6 2.947966 1_555
Ag2_6 Hg1_0 2.947966 1_555
Ag2_7 Hg4_3 2.933511 1_555
Ag2_7 Hg4_7 2.933513 1_555
Ag2_7 Hg4_1 2.933513 1_555
Ag2_7 Hg1_3 2.947964 1_555
Ag2_7 Hg1_7 2.947966 1_555
Ag2_7 Hg1_1 2.947966 1_555
Ag3_0 Hg4_4 2.956862 1_455
Ag3_0 Hg4_6 2.956864 1_445
Ag3_0 Hg4_0 2.956864 1_555
Ag3_0 Hg2_4 2.964867 1_455
Ag3_0 Hg2_6 2.964869 1_445
Ag3_0 Hg2_0 2.964869 1_555
Ag3_0 Ag3_4 3.219133 1_555
Ag3_0 Ag3_2 3.219133 1_555
Ag3_0 Ag3_4 3.219133 1_455
Ag3_0 Ag3_2 3.219133 1_545
Ag3_0 Ag3_6 3.219134 1_555
Ag3_0 Ag3_6 3.219134 1_445
Ag3_1 Hg4_5 2.956862 1_455
Ag3_1 Hg4_7 2.956864 1_445
Ag3_1 Hg4_1 2.956864 1_555
Ag3_1 Hg2_5 2.964867 1_455
Ag3_1 Hg2_7 2.964869 1_445
Ag3_1 Hg2_1 2.964869 1_555
Ag3_1 Ag3_5 3.219133 1_555
Ag3_1 Ag3_5 3.219133 1_455
Ag3_1 Ag3_3 3.219133 1_555
Ag3_1 Ag3_3 3.219133 1_545
Ag3_1 Ag3_7 3.219134 1_445
Ag3_1 Ag3_7 3.219134 1_555
Ag3_2 Hg4_6 2.956862 1_455
Ag3_2 Hg4_4 2.956864 1_455
Ag3_2 Hg4_2 2.956864 1_555
Ag3_2 Hg2_6 2.964867 1_455
Ag3_2 Hg2_4 2.964869 1_455
Ag3_2 Hg2_2 2.964869 1_555
Ag3_2 Ag3_6 3.219133 1_555
Ag3_2 Ag3_6 3.219133 1_455
Ag3_2 Ag3_4 3.219134 1_565
Ag3_2 Ag3_4 3.219134 1_455
Ag3_3 Hg4_7 2.956862 1_455
Ag3_3 Hg4_3 2.956864 1_555
Ag3_3 Hg4_5 2.956864 1_455
Ag3_3 Hg2_7 2.964867 1_455
Ag3_3 Hg2_5 2.964869 1_455
Ag3_3 Hg2_3 2.964869 1_555
Ag3_3 Ag3_7 3.219133 1_455
Ag3_3 Ag3_7 3.219133 1_555
Ag3_3 Ag3_5 3.219134 1_455
Ag3_3 Ag3_5 3.219134 1_565
Ag3_4 Hg4_0 2.956862 1_555
Ag3_4 Hg4_4 2.956864 1_555
Ag3_4 Hg4_2 2.956864 1_545
Ag3_4 Hg2_0 2.964867 1_555
Ag3_4 Hg2_4 2.964869 1_555
Ag3_4 Hg2_2 2.964869 1_545
Ag3_4 Ag3_6 3.219133 1_555
Ag3_4 Ag3_6 3.219133 1_545
Ag3_5 Hg4_1 2.956862 1_555
Ag3_5 Hg4_3 2.956864 1_545
Ag3_5 Hg4_5 2.956864 1_555
Ag3_5 Hg2_1 2.964867 1_555
Ag3_5 Hg2_3 2.964869 1_545
Ag3_5 Hg2_5 2.964869 1_555
Ag3_5 Ag3_7 3.219133 1_545
Ag3_5 Ag3_7 3.219133 1_555
Ag3_6 Hg4_2 2.956862 1_555
Ag3_6 Hg4_6 2.956864 1_555
Ag3_6 Hg4_0 2.956864 1_555
Ag3_6 Hg2_2 2.964867 1_555
Ag3_6 Hg2_6 2.964869 1_555
Ag3_6 Hg2_0 2.964869 1_555
Ag3_7 Hg4_3 2.956862 1_555
Ag3_7 Hg4_7 2.956864 1_555
Ag3_7 Hg4_1 2.956864 1_555
Ag3_7 Hg2_3 2.964867 1_555
Ag3_7 Hg2_1 2.964869 1_555
Ag3_7 Hg2_7 2.964869 1_555
Ag4_0 Hg2_4 2.970734 1_455
Ag4_0 Hg2_6 2.970736 1_445
Ag4_0 Hg2_0 2.970736 1_555
Ag4_0 Hg5_4 2.986294 1_455
Ag4_0 Hg5_0 2.986296 1_555
Ag4_0 Hg5_6 2.986296 1_445
Ag4_0 Ag4_4 3.219133 1_555
Ag4_0 Ag4_2 3.219133 1_555
Ag4_0 Ag4_2 3.219133 1_545
Ag4_0 Ag4_4 3.219133 1_455
Ag4_0 Ag4_6 3.219134 1_555
Ag4_0 Ag4_6 3.219134 1_445
Ag4_1 Hg2_5 2.970734 1_455
Ag4_1 Hg2_7 2.970736 1_445
Ag4_1 Hg2_1 2.970736 1_555
Ag4_1 Hg5_5 2.986294 1_455
Ag4_1 Hg5_1 2.986296 1_555
Ag4_1 Hg5_7 2.986296 1_445
Ag4_1 Ag4_5 3.219133 1_455
Ag4_1 Ag4_3 3.219133 1_545
Ag4_1 Ag4_5 3.219133 1_555
Ag4_1 Ag4_3 3.219133 1_555
Ag4_1 Ag4_7 3.219134 1_445
Ag4_1 Ag4_7 3.219134 1_555
Ag4_2 Hg2_6 2.970734 1_455
Ag4_2 Hg2_4 2.970736 1_455
Ag4_2 Hg2_2 2.970736 1_555
Ag4_2 Hg5_6 2.986294 1_455
Ag4_2 Hg5_4 2.986296 1_455
Ag4_2 Hg5_2 2.986296 1_555
Ag4_2 Ag4_6 3.219133 1_455
Ag4_2 Ag4_6 3.219133 1_555
Ag4_2 Ag4_4 3.219134 1_455
Ag4_2 Ag4_4 3.219134 1_565
Ag4_3 Hg2_7 2.970734 1_455
Ag4_3 Hg2_5 2.970736 1_455
Ag4_3 Hg2_3 2.970736 1_555
Ag4_3 Hg5_7 2.986294 1_455
Ag4_3 Hg5_3 2.986296 1_555
Ag4_3 Hg5_5 2.986296 1_455
Ag4_3 Ag4_7 3.219133 1_555
Ag4_3 Ag4_7 3.219133 1_455
Ag4_3 Ag4_5 3.219134 1_455
Ag4_3 Ag4_5 3.219134 1_565
Ag4_4 Hg2_0 2.970734 1_555
Ag4_4 Hg2_2 2.970736 1_545
Ag4_4 Hg2_4 2.970736 1_555
Ag4_4 Hg5_0 2.986294 1_555
Ag4_4 Hg5_4 2.986296 1_555
Ag4_4 Hg5_2 2.986296 1_545
Ag4_4 Ag4_6 3.219133 1_545
Ag4_4 Ag4_6 3.219133 1_555
Ag4_5 Hg2_1 2.970734 1_555
Ag4_5 Hg2_5 2.970736 1_555
Ag4_5 Hg2_3 2.970736 1_545
Ag4_5 Hg5_1 2.986294 1_555
Ag4_5 Hg5_3 2.986296 1_545
Ag4_5 Hg5_5 2.986296 1_555
Ag4_5 Ag4_7 3.219133 1_545
Ag4_5 Ag4_7 3.219133 1_555
Ag4_6 Hg2_2 2.970734 1_555
Ag4_6 Hg2_6 2.970736 1_555
Ag4_6 Hg2_0 2.970736 1_555
Ag4_6 Hg5_2 2.986294 1_555
Ag4_6 Hg5_0 2.986296 1_555
Ag4_6 Hg5_6 2.986296 1_555
Ag4_7 Hg2_3 2.970734 1_555
Ag4_7 Hg2_1 2.970736 1_555
Ag4_7 Hg2_7 2.970736 1_555
Ag4_7 Hg5_3 2.986294 1_555
Ag4_7 Hg5_7 2.986296 1_555
Ag4_7 Hg5_1 2.986296 1_555
Ag5_0 Hg5_4 2.994021 1_455
Ag5_0 Hg5_6 2.994023 1_445
Ag5_0 Hg5_0 2.994023 1_555
Ag5_0 Hg3_4 2.997613 1_455
Ag5_0 Hg3_6 2.997615 1_445
Ag5_0 Hg3_0 2.997615 1_555
Ag5_0 Ag5_2 3.219133 1_555
Ag5_0 Ag5_4 3.219133 1_555
Ag5_0 Ag5_4 3.219133 1_455
Ag5_0 Ag5_2 3.219133 1_545
Ag5_0 Ag5_6 3.219134 1_445
Ag5_0 Ag5_6 3.219134 1_555
Ag5_1 Hg5_5 2.994021 1_455
Ag5_1 Hg5_7 2.994023 1_445
Ag5_1 Hg5_1 2.994023 1_555
Ag5_1 Hg3_5 2.997613 1_455
Ag5_1 Hg3_7 2.997615 1_445
Ag5_1 Hg3_1 2.997615 1_555
Ag5_1 Ag5_3 3.219133 1_555
Ag5_1 Ag5_5 3.219133 1_555
Ag5_1 Ag5_3 3.219133 1_545
Ag5_1 Ag5_5 3.219133 1_455
Ag5_1 Ag5_7 3.219134 1_445
Ag5_1 Ag5_7 3.219134 1_555
Ag5_2 Hg5_6 2.994021 1_455
Ag5_2 Hg5_2 2.994023 1_555
Ag5_2 Hg5_4 2.994023 1_455
Ag5_2 Hg3_6 2.997613 1_455
Ag5_2 Hg3_4 2.997615 1_455
Ag5_2 Hg3_2 2.997615 1_555
Ag5_2 Ag5_6 3.219133 1_455
Ag5_2 Ag5_6 3.219133 1_555
Ag5_2 Ag5_4 3.219134 1_565
Ag5_2 Ag5_4 3.219134 1_455
Ag5_3 Hg5_7 2.994021 1_455
Ag5_3 Hg5_5 2.994023 1_455
Ag5_3 Hg5_3 2.994023 1_555
Ag5_3 Hg3_7 2.997613 1_455
Ag5_3 Hg3_5 2.997615 1_455
Ag5_3 Hg3_3 2.997615 1_555
Ag5_3 Ag5_7 3.219133 1_555
Ag5_3 Ag5_7 3.219133 1_455
Ag5_3 Ag5_5 3.219134 1_565
Ag5_3 Ag5_5 3.219134 1_455
Ag5_4 Hg5_0 2.994021 1_555
Ag5_4 Hg5_2 2.994023 1_545
Ag5_4 Hg5_4 2.994023 1_555
Ag5_4 Hg3_0 2.997613 1_555
Ag5_4 Hg3_4 2.997615 1_555
Ag5_4 Hg3_2 2.997615 1_545
Ag5_4 Ag5_6 3.219133 1_545
Ag5_4 Ag5_6 3.219133 1_555
Ag5_5 Hg5_1 2.994021 1_555
Ag5_5 Hg5_5 2.994023 1_555
Ag5_5 Hg5_3 2.994023 1_545
Ag5_5 Hg3_1 2.997613 1_555
Ag5_5 Hg3_5 2.997615 1_555
Ag5_5 Hg3_3 2.997615 1_545
Ag5_5 Ag5_7 3.219133 1_545
Ag5_5 Ag5_7 3.219133 1_555
Ag5_6 Hg5_2 2.994021 1_555
Ag5_6 Hg5_6 2.994023 1_555
Ag5_6 Hg5_0 2.994023 1_555
Ag5_6 Hg3_2 2.997613 1_555
Ag5_6 Hg3_6 2.997615 1_555
Ag5_6 Hg3_0 2.997615 1_555
Ag5_7 Hg5_3 2.994021 1_555
Ag5_7 Hg5_1 2.994023 1_555
Ag5_7 Hg5_7 2.994023 1_555
Ag5_7 Hg3_3 2.997613 1_555
Ag5_7 Hg3_7 2.997615 1_555
Ag5_7 Hg3_1 2.997615 1_555
Ag6_0 Hg7_4 3.021547 1_455
Ag6_0 Hg7_6 3.021549 1_445
Ag6_0 Hg7_0 3.021549 1_555
Ag6_0 Ag6_2 3.219133 1_545
Ag6_0 Ag6_4 3.219133 1_555
Ag6_0 Ag6_4 3.219133 1_455
Ag6_0 Ag6_2 3.219133 1_555
Ag6_0 Ag6_6 3.219134 1_555
Ag6_0 Ag6_6 3.219134 1_445
Ag6_1 Hg7_5 3.021547 1_455
Ag6_1 Hg7_7 3.021549 1_445
Ag6_1 Hg7_1 3.021549 1_555
Ag6_1 Ag6_3 3.219133 1_545
Ag6_1 Ag6_5 3.219133 1_455
Ag6_1 Ag6_5 3.219133 1_555
Ag6_1 Ag6_3 3.219133 1_555
Ag6_1 Ag6_7 3.219134 1_555
Ag6_1 Ag6_7 3.219134 1_445
Ag6_2 Hg7_6 3.021547 1_455
Ag6_2 Hg7_4 3.021549 1_455
Ag6_2 Hg7_2 3.021549 1_555
Ag6_2 Ag6_6 3.219133 1_555
Ag6_2 Ag6_6 3.219133 1_455
Ag6_2 Ag6_4 3.219134 1_565
Ag6_2 Ag6_4 3.219134 1_455
Ag6_3 Hg7_7 3.021547 1_455
Ag6_3 Hg7_5 3.021549 1_455
Ag6_3 Hg7_3 3.021549 1_555
Ag6_3 Ag6_7 3.219133 1_555
Ag6_3 Ag6_7 3.219133 1_455
Ag6_3 Ag6_5 3.219134 1_455
Ag6_3 Ag6_5 3.219134 1_565
Ag6_4 Hg7_0 3.021547 1_555
Ag6_4 Hg7_4 3.021549 1_555
Ag6_4 Hg7_2 3.021549 1_545
Ag6_4 Ag6_6 3.219133 1_555
Ag6_4 Ag6_6 3.219133 1_545
Ag6_5 Hg7_1 3.021547 1_555
Ag6_5 Hg7_5 3.021549 1_555
Ag6_5 Hg7_3 3.021549 1_545
Ag6_5 Ag6_7 3.219133 1_555
Ag6_5 Ag6_7 3.219133 1_545
Ag6_6 Hg7_2 3.021547 1_555
Ag6_6 Hg7_6 3.021549 1_555
Ag6_6 Hg7_0 3.021549 1_555
Ag6_7 Hg7_3 3.021547 1_555
Ag6_7 Hg7_7 3.021549 1_555
Ag6_7 Hg7_1 3.021549 1_555
Ag7_0 Hg6_4 3.017200 1_455
Ag7_0 Hg6_6 3.017202 1_445
Ag7_0 Hg6_0 3.017202 1_555
Ag7_0 Ag7_2 3.219133 1_545
Ag7_0 Ag7_4 3.219133 1_455
Ag7_0 Ag7_2 3.219133 1_555
Ag7_0 Ag7_4 3.219133 1_555
Ag7_0 Ag7_6 3.219134 1_555
Ag7_0 Ag7_6 3.219134 1_445
Ag7_1 Hg6_5 3.017200 1_455
Ag7_1 Hg6_1 3.017202 1_555
Ag7_1 Hg6_7 3.017202 1_445
Ag7_1 Ag7_3 3.219133 1_545
Ag7_1 Ag7_5 3.219133 1_555
Ag7_1 Ag7_3 3.219133 1_555
Ag7_1 Ag7_5 3.219133 1_455
Ag7_1 Ag7_7 3.219134 1_555
Ag7_1 Ag7_7 3.219134 1_445
Ag7_2 Hg6_6 3.017200 1_455
Ag7_2 Hg6_4 3.017202 1_455
Ag7_2 Hg6_2 3.017202 1_555
Ag7_2 Ag7_6 3.219133 1_555
Ag7_2 Ag7_6 3.219133 1_455
Ag7_2 Ag7_4 3.219134 1_565
Ag7_2 Ag7_4 3.219134 1_455
Ag7_3 Hg6_7 3.017200 1_455
Ag7_3 Hg6_5 3.017202 1_455
Ag7_3 Hg6_3 3.017202 1_555
Ag7_3 Ag7_7 3.219133 1_555
Ag7_3 Ag7_7 3.219133 1_455
Ag7_3 Ag7_5 3.219134 1_565
Ag7_3 Ag7_5 3.219134 1_455
Ag7_4 Hg6_0 3.017200 1_555
Ag7_4 Hg6_4 3.017202 1_555
Ag7_4 Hg6_2 3.017202 1_545
Ag7_4 Ag7_6 3.219133 1_555
Ag7_4 Ag7_6 3.219133 1_545
Ag7_5 Hg6_1 3.017200 1_555
Ag7_5 Hg6_5 3.017202 1_555
Ag7_5 Hg6_3 3.017202 1_545
Ag7_5 Ag7_7 3.219133 1_555
Ag7_5 Ag7_7 3.219133 1_545
Ag7_6 Hg6_2 3.017200 1_555
Ag7_6 Hg6_6 3.017202 1_555
Ag7_6 Hg6_0 3.017202 1_555
Ag7_7 Hg6_3 3.017200 1_555
Ag7_7 Hg6_1 3.017202 1_555
Ag7_7 Hg6_7 3.017202 1_555
Ag8_0 Hg6_4 2.999851 1_455
Ag8_0 Hg6_6 2.999853 1_445
Ag8_0 Hg6_0 2.999853 1_555
Ag8_0 Ag8_4 3.219133 1_555
Ag8_0 Ag8_2 3.219133 1_545
Ag8_0 Ag8_2 3.219133 1_555
Ag8_0 Ag8_4 3.219133 1_455
Ag8_0 Ag8_6 3.219134 1_445
Ag8_0 Ag8_6 3.219134 1_555
Ag8_1 Hg6_5 2.999851 1_455
Ag8_1 Hg6_7 2.999853 1_445
Ag8_1 Hg6_1 2.999853 1_555
Ag8_1 Ag8_3 3.219133 1_555
Ag8_1 Ag8_3 3.219133 1_545
Ag8_1 Ag8_5 3.219133 1_455
Ag8_1 Ag8_5 3.219133 1_555
Ag8_1 Ag8_7 3.219134 1_555
Ag8_1 Ag8_7 3.219134 1_445
Ag8_2 Hg6_6 2.999851 1_455
Ag8_2 Hg6_4 2.999853 1_455
Ag8_2 Hg6_2 2.999853 1_555
Ag8_2 Ag8_6 3.219133 1_455
Ag8_2 Ag8_6 3.219133 1_555
Ag8_2 Ag8_4 3.219134 1_455
Ag8_2 Ag8_4 3.219134 1_565
Ag8_3 Hg6_7 2.999851 1_455
Ag8_3 Hg6_5 2.999853 1_455
Ag8_3 Hg6_3 2.999853 1_555
Ag8_3 Ag8_7 3.219133 1_455
Ag8_3 Ag8_7 3.219133 1_555
Ag8_3 Ag8_5 3.219134 1_455
Ag8_3 Ag8_5 3.219134 1_565
Ag8_4 Hg6_0 2.999851 1_555
Ag8_4 Hg6_4 2.999853 1_555
Ag8_4 Hg6_2 2.999853 1_545
Ag8_4 Ag8_6 3.219133 1_545
Ag8_4 Ag8_6 3.219133 1_555
Ag8_5 Hg6_1 2.999851 1_555
Ag8_5 Hg6_5 2.999853 1_555
Ag8_5 Hg6_3 2.999853 1_545
Ag8_5 Ag8_7 3.219133 1_555
Ag8_5 Ag8_7 3.219133 1_545
Ag8_6 Hg6_2 2.999851 1_555
Ag8_6 Hg6_6 2.999853 1_555
Ag8_6 Hg6_0 2.999853 1_555
Ag8_7 Hg6_3 2.999851 1_555
Ag8_7 Hg6_7 2.999853 1_555
Ag8_7 Hg6_1 2.999853 1_555
Ag9_0 Hg0_5 2.972595 1_455
Ag9_0 Hg0_7 2.972597 1_445
Ag9_0 Hg0_1 2.972597 1_555
Ag9_0 Ag9_2 3.219133 1_555
Ag9_0 Ag9_4 3.219133 1_455
Ag9_0 Ag9_4 3.219133 1_555
Ag9_0 Ag9_2 3.219133 1_545
Ag9_0 Ag9_6 3.219134 1_555
Ag9_0 Ag9_6 3.219134 1_445
Ag9_1 Hg0_4 2.972595 1_456
Ag9_1 Hg0_0 2.972597 1_556
Ag9_1 Hg0_6 2.972597 1_446
Ag9_1 Ag9_5 3.219133 1_555
Ag9_1 Ag9_5 3.219133 1_455
Ag9_1 Ag9_3 3.219133 1_555
Ag9_1 Ag9_3 3.219133 1_545
Ag9_1 Ag9_7 3.219134 1_555
Ag9_1 Ag9_7 3.219134 1_445
Ag9_2 Hg0_7 2.972595 1_455
Ag9_2 Hg0_3 2.972597 1_555
Ag9_2 Hg0_5 2.972597 1_455
Ag9_2 Ag9_6 3.219133 1_455
Ag9_2 Ag9_6 3.219133 1_555
Ag9_2 Ag9_4 3.219134 1_565
Ag9_2 Ag9_4 3.219134 1_455
Ag9_3 Hg0_6 2.972595 1_456
Ag9_3 Hg0_4 2.972597 1_456
Ag9_3 Hg0_2 2.972597 1_556
Ag9_3 Ag9_7 3.219133 1_555
Ag9_3 Ag9_7 3.219133 1_455
Ag9_3 Ag9_5 3.219134 1_455
Ag9_3 Ag9_5 3.219134 1_565
Ag9_4 Hg0_1 2.972595 1_555
Ag9_4 Hg0_3 2.972597 1_545
Ag9_4 Hg0_5 2.972597 1_555
Ag9_4 Ag9_6 3.219133 1_545
Ag9_4 Ag9_6 3.219133 1_555
Ag9_5 Hg0_0 2.972595 1_556
Ag9_5 Hg0_4 2.972597 1_556
Ag9_5 Hg0_2 2.972597 1_546
Ag9_5 Ag9_7 3.219133 1_545
Ag9_5 Ag9_7 3.219133 1_555
Ag9_6 Hg0_3 2.972595 1_555
Ag9_6 Hg0_7 2.972597 1_555
Ag9_6 Hg0_1 2.972597 1_555
Ag9_7 Hg0_2 2.972595 1_556
Ag9_7 Hg0_0 2.972597 1_556
Ag9_7 Hg0_6 2.972597 1_556
Ag10_0 Hg3_4 2.993581 1_455
Ag10_0 Hg3_6 2.993583 1_445
Ag10_0 Hg3_0 2.993583 1_555
Ag10_0 Hg7_4 3.003631 1_455
Ag10_0 Hg7_0 3.003633 1_555
Ag10_0 Hg7_6 3.003633 1_445
Ag10_0 Ag10_2 3.219133 1_545
Ag10_0 Ag10_4 3.219133 1_555
Ag10_0 Ag10_4 3.219133 1_455
Ag10_0 Ag10_2 3.219133 1_555
Ag10_0 Ag10_6 3.219134 1_555
Ag10_0 Ag10_6 3.219134 1_445
Ag10_1 Hg3_5 2.993581 1_455
Ag10_1 Hg3_7 2.993583 1_445
Ag10_1 Hg3_1 2.993583 1_555
Ag10_1 Hg7_5 3.003631 1_455
Ag10_1 Hg7_7 3.003633 1_445
Ag10_1 Hg7_1 3.003633 1_555
Ag10_1 Ag10_5 3.219133 1_455
Ag10_1 Ag10_3 3.219133 1_545
Ag10_1 Ag10_3 3.219133 1_555
Ag10_1 Ag10_5 3.219133 1_555
Ag10_1 Ag10_7 3.219134 1_555
Ag10_1 Ag10_7 3.219134 1_445
Ag10_2 Hg3_6 2.993581 1_455
Ag10_2 Hg3_2 2.993583 1_555
Ag10_2 Hg3_4 2.993583 1_455
Ag10_2 Hg7_6 3.003631 1_455
Ag10_2 Hg7_4 3.003633 1_455
Ag10_2 Hg7_2 3.003633 1_555
Ag10_2 Ag10_6 3.219133 1_555
Ag10_2 Ag10_6 3.219133 1_455
Ag10_2 Ag10_4 3.219134 1_455
Ag10_2 Ag10_4 3.219134 1_565
Ag10_3 Hg3_7 2.993581 1_455
Ag10_3 Hg3_5 2.993583 1_455
Ag10_3 Hg3_3 2.993583 1_555
Ag10_3 Hg7_7 3.003631 1_455
Ag10_3 Hg7_5 3.003633 1_455
Ag10_3 Hg7_3 3.003633 1_555
Ag10_3 Ag10_7 3.219133 1_455
Ag10_3 Ag10_7 3.219133 1_555
Ag10_3 Ag10_5 3.219134 1_565
Ag10_3 Ag10_5 3.219134 1_455
Ag10_4 Hg3_0 2.993581 1_555
Ag10_4 Hg3_4 2.993583 1_555
Ag10_4 Hg3_2 2.993583 1_545
Ag10_4 Hg7_0 3.003631 1_555
Ag10_4 Hg7_4 3.003633 1_555
Ag10_4 Hg7_2 3.003633 1_545
Ag10_4 Ag10_6 3.219133 1_555
Ag10_4 Ag10_6 3.219133 1_545
Ag10_5 Hg3_1 2.993581 1_555
Ag10_5 Hg3_3 2.993583 1_545
Ag10_5 Hg3_5 2.993583 1_555
Ag10_5 Hg7_1 3.003631 1_555
Ag10_5 Hg7_5 3.003633 1_555
Ag10_5 Hg7_3 3.003633 1_545
Ag10_5 Ag10_7 3.219133 1_555
Ag10_5 Ag10_7 3.219133 1_545
Ag10_6 Hg3_2 2.993581 1_555
Ag10_6 Hg3_6 2.993583 1_555
Ag10_6 Hg3_0 2.993583 1_555
Ag10_6 Hg7_2 3.003631 1_555
Ag10_6 Hg7_6 3.003633 1_555
Ag10_6 Hg7_0 3.003633 1_555
Ag10_7 Hg3_3 2.993581 1_555
Ag10_7 Hg3_7 2.993583 1_555
Ag10_7 Hg3_1 2.993583 1_555
Ag10_7 Hg7_3 3.003631 1_555
Ag10_7 Hg7_7 3.003633 1_555
Ag10_7 Hg7_1 3.003633 1_555
Hg0_0 Hg8_4 3.180524 1_555
Hg0_0 Hg8_6 3.180526 1_555
Hg0_0 Hg8_0 3.180526 1_555
Hg0_0 Hg0_2 3.219133 1_555
Hg0_0 Hg0_4 3.219133 1_555
Hg0_0 Hg0_4 3.219133 1_455
Hg0_0 Hg0_2 3.219133 1_545
Hg0_0 Hg0_6 3.219134 1_555
Hg0_0 Hg0_6 3.219134 1_445
Hg0_1 Hg8_5 3.180524 1_555
Hg0_1 Hg8_7 3.180526 1_555
Hg0_1 Hg8_1 3.180526 1_555
Hg0_1 Hg0_5 3.219133 1_555
Hg0_1 Hg0_3 3.219133 1_555
Hg0_1 Hg0_3 3.219133 1_545
Hg0_1 Hg0_5 3.219133 1_455
Hg0_1 Hg0_7 3.219134 1_555
Hg0_1 Hg0_7 3.219134 1_445
Hg0_2 Hg8_6 3.180524 1_555
Hg0_2 Hg8_2 3.180526 1_555
Hg0_2 Hg8_4 3.180526 1_565
Hg0_2 Hg0_6 3.219133 1_555
Hg0_2 Hg0_6 3.219133 1_455
Hg0_2 Hg0_4 3.219134 1_455
Hg0_2 Hg0_4 3.219134 1_565
Hg0_3 Hg8_7 3.180524 1_555
Hg0_3 Hg8_5 3.180526 1_565
Hg0_3 Hg8_3 3.180526 1_555
Hg0_3 Hg0_7 3.219133 1_555
Hg0_3 Hg0_7 3.219133 1_455
Hg0_3 Hg0_5 3.219134 1_455
Hg0_3 Hg0_5 3.219134 1_565
Hg0_4 Hg8_0 3.180524 1_655
Hg0_4 Hg8_2 3.180526 1_655
Hg0_4 Hg8_4 3.180526 1_555
Hg0_4 Hg0_6 3.219133 1_555
Hg0_4 Hg0_6 3.219133 1_545
Hg0_5 Hg8_1 3.180524 1_655
Hg0_5 Hg8_5 3.180526 1_555
Hg0_5 Hg8_3 3.180526 1_655
Hg0_5 Hg0_7 3.219133 1_545
Hg0_5 Hg0_7 3.219133 1_555
Hg0_6 Hg8_2 3.180524 1_655
Hg0_6 Hg8_0 3.180526 1_665
Hg0_6 Hg8_6 3.180526 1_555
Hg0_7 Hg8_3 3.180524 1_655
Hg0_7 Hg8_1 3.180526 1_665
Hg0_7 Hg8_7 3.180526 1_555
Hg1_0 Hg8_4 3.176012 1_555
Hg1_0 Hg8_6 3.176014 1_555
Hg1_0 Hg8_0 3.176014 1_555
Hg1_0 Hg1_4 3.219133 1_555
Hg1_0 Hg1_2 3.219133 1_555
Hg1_0 Hg1_2 3.219133 1_545
Hg1_0 Hg1_4 3.219133 1_455
Hg1_0 Hg1_6 3.219134 1_555
Hg1_0 Hg1_6 3.219134 1_445
Hg1_1 Hg8_5 3.176012 1_555
Hg1_1 Hg8_7 3.176014 1_555
Hg1_1 Hg8_1 3.176014 1_555
Hg1_1 Hg1_3 3.219133 1_555
Hg1_1 Hg1_5 3.219133 1_555
Hg1_1 Hg1_3 3.219133 1_545
Hg1_1 Hg1_5 3.219133 1_455
Hg1_1 Hg1_7 3.219134 1_555
Hg1_1 Hg1_7 3.219134 1_445
Hg1_2 Hg8_6 3.176012 1_555
Hg1_2 Hg8_2 3.176014 1_555
Hg1_2 Hg8_4 3.176014 1_565
Hg1_2 Hg1_6 3.219133 1_555
Hg1_2 Hg1_6 3.219133 1_455
Hg1_2 Hg1_4 3.219134 1_455
Hg1_2 Hg1_4 3.219134 1_565
Hg1_3 Hg8_7 3.176012 1_555
Hg1_3 Hg8_5 3.176014 1_565
Hg1_3 Hg8_3 3.176014 1_555
Hg1_3 Hg1_7 3.219133 1_555
Hg1_3 Hg1_7 3.219133 1_455
Hg1_3 Hg1_5 3.219134 1_455
Hg1_3 Hg1_5 3.219134 1_565
Hg1_4 Hg8_0 3.176012 1_655
Hg1_4 Hg8_2 3.176014 1_655
Hg1_4 Hg8_4 3.176014 1_555
Hg1_4 Hg1_6 3.219133 1_545
Hg1_4 Hg1_6 3.219133 1_555
Hg1_5 Hg8_1 3.176012 1_655
Hg1_5 Hg8_5 3.176014 1_555
Hg1_5 Hg8_3 3.176014 1_655
Hg1_5 Hg1_7 3.219133 1_545
Hg1_5 Hg1_7 3.219133 1_555
Hg1_6 Hg8_2 3.176012 1_655
Hg1_6 Hg8_6 3.176014 1_555
Hg1_6 Hg8_0 3.176014 1_665
Hg1_7 Hg8_3 3.176012 1_655
Hg1_7 Hg8_1 3.176014 1_665
Hg1_7 Hg8_7 3.176014 1_555
Hg2_0 Hg2_2 3.219133 1_555
Hg2_0 Hg2_4 3.219133 1_555
Hg2_0 Hg2_2 3.219133 1_545
Hg2_0 Hg2_4 3.219133 1_455
Hg2_0 Hg2_6 3.219134 1_555
Hg2_0 Hg2_6 3.219134 1_445
Hg2_1 Hg2_3 3.219133 1_555
Hg2_1 Hg2_5 3.219133 1_555
Hg2_1 Hg2_3 3.219133 1_545
Hg2_1 Hg2_5 3.219133 1_455
Hg2_1 Hg2_7 3.219134 1_555
Hg2_1 Hg2_7 3.219134 1_445
Hg2_2 Hg2_6 3.219133 1_555
Hg2_2 Hg2_6 3.219133 1_455
Hg2_2 Hg2_4 3.219134 1_455
Hg2_2 Hg2_4 3.219134 1_565
Hg2_3 Hg2_7 3.219133 1_555
Hg2_3 Hg2_7 3.219133 1_455
Hg2_3 Hg2_5 3.219134 1_455
Hg2_3 Hg2_5 3.219134 1_565
Hg2_4 Hg2_6 3.219133 1_555
Hg2_4 Hg2_6 3.219133 1_545
Hg2_5 Hg2_7 3.219133 1_545
Hg2_5 Hg2_7 3.219133 1_555
Hg3_0 Hg3_4 3.219133 1_555
Hg3_0 Hg3_2 3.219133 1_555
Hg3_0 Hg3_2 3.219133 1_545
Hg3_0 Hg3_4 3.219133 1_455
Hg3_0 Hg3_6 3.219134 1_555
Hg3_0 Hg3_6 3.219134 1_445
Hg3_1 Hg3_3 3.219133 1_555
Hg3_1 Hg3_5 3.219133 1_555
Hg3_1 Hg3_3 3.219133 1_545
Hg3_1 Hg3_5 3.219133 1_455
Hg3_1 Hg3_7 3.219134 1_555
Hg3_1 Hg3_7 3.219134 1_445
Hg3_2 Hg3_6 3.219133 1_555
Hg3_2 Hg3_6 3.219133 1_455
Hg3_2 Hg3_4 3.219134 1_455
Hg3_2 Hg3_4 3.219134 1_565
Hg3_3 Hg3_7 3.219133 1_555
Hg3_3 Hg3_7 3.219133 1_455
Hg3_3 Hg3_5 3.219134 1_455
Hg3_3 Hg3_5 3.219134 1_565
Hg3_4 Hg3_6 3.219133 1_555
Hg3_4 Hg3_6 3.219133 1_545
Hg3_5 Hg3_7 3.219133 1_545
Hg3_5 Hg3_7 3.219133 1_555
Hg4_0 Hg4_4 3.219133 1_555
Hg4_0 Hg4_2 3.219133 1_555
Hg4_0 Hg4_2 3.219133 1_545
Hg4_0 Hg4_4 3.219133 1_455
Hg4_0 Hg4_6 3.219134 1_555
Hg4_0 Hg4_6 3.219134 1_445
Hg4_1 Hg4_5 3.219133 1_555
Hg4_1 Hg4_3 3.219133 1_555
Hg4_1 Hg4_3 3.219133 1_545
Hg4_1 Hg4_5 3.219133 1_455
Hg4_1 Hg4_7 3.219134 1_555
Hg4_1 Hg4_7 3.219134 1_445
Hg4_2 Hg4_6 3.219133 1_555
Hg4_2 Hg4_6 3.219133 1_455
Hg4_2 Hg4_4 3.219134 1_455
Hg4_2 Hg4_4 3.219134 1_565
Hg4_3 Hg4_7 3.219133 1_555
Hg4_3 Hg4_7 3.219133 1_455
Hg4_3 Hg4_5 3.219134 1_455
Hg4_3 Hg4_5 3.219134 1_565
Hg4_4 Hg4_6 3.219133 1_545
Hg4_4 Hg4_6 3.219133 1_555
Hg4_5 Hg4_7 3.219133 1_555
Hg4_5 Hg4_7 3.219133 1_545
Hg5_0 Hg5_4 3.219133 1_555
Hg5_0 Hg5_2 3.219133 1_555
Hg5_0 Hg5_4 3.219133 1_455
Hg5_0 Hg5_2 3.219133 1_545
Hg5_0 Hg5_6 3.219134 1_555
Hg5_0 Hg5_6 3.219134 1_445
Hg5_1 Hg5_5 3.219133 1_555
Hg5_1 Hg5_3 3.219133 1_555
Hg5_1 Hg5_3 3.219133 1_545
Hg5_1 Hg5_5 3.219133 1_455
Hg5_1 Hg5_7 3.219134 1_555
Hg5_1 Hg5_7 3.219134 1_445
Hg5_2 Hg5_6 3.219133 1_555
Hg5_2 Hg5_6 3.219133 1_455
Hg5_2 Hg5_4 3.219134 1_455
Hg5_2 Hg5_4 3.219134 1_565
Hg5_3 Hg5_7 3.219133 1_555
Hg5_3 Hg5_7 3.219133 1_455
Hg5_3 Hg5_5 3.219134 1_455
Hg5_3 Hg5_5 3.219134 1_565
Hg5_4 Hg5_6 3.219133 1_555
Hg5_4 Hg5_6 3.219133 1_545
Hg5_5 Hg5_7 3.219133 1_545
Hg5_5 Hg5_7 3.219133 1_555
Hg6_0 Hg6_4 3.219133 1_555
Hg6_0 Hg6_2 3.219133 1_555
Hg6_0 Hg6_4 3.219133 1_455
Hg6_0 Hg6_2 3.219133 1_545
Hg6_0 Hg6_6 3.219134 1_555
Hg6_0 Hg6_6 3.219134 1_445
Hg6_1 Hg6_5 3.219133 1_555
Hg6_1 Hg6_3 3.219133 1_555
Hg6_1 Hg6_3 3.219133 1_545
Hg6_1 Hg6_5 3.219133 1_455
Hg6_1 Hg6_7 3.219134 1_555
Hg6_1 Hg6_7 3.219134 1_445
Hg6_2 Hg6_6 3.219133 1_555
Hg6_2 Hg6_6 3.219133 1_455
Hg6_2 Hg6_4 3.219134 1_455
Hg6_2 Hg6_4 3.219134 1_565
Hg6_3 Hg6_7 3.219133 1_555
Hg6_3 Hg6_7 3.219133 1_455
Hg6_3 Hg6_5 3.219134 1_455
Hg6_3 Hg6_5 3.219134 1_565
Hg6_4 Hg6_6 3.219133 1_545
Hg6_4 Hg6_6 3.219133 1_555
Hg6_5 Hg6_7 3.219133 1_555
Hg6_5 Hg6_7 3.219133 1_545
Hg7_0 Hg7_2 3.219133 1_555
Hg7_0 Hg7_4 3.219133 1_555
Hg7_0 Hg7_2 3.219133 1_545
Hg7_0 Hg7_4 3.219133 1_455
Hg7_0 Hg7_6 3.219134 1_555
Hg7_0 Hg7_6 3.219134 1_445
Hg7_1 Hg7_3 3.219133 1_555
Hg7_1 Hg7_5 3.219133 1_555
Hg7_1 Hg7_3 3.219133 1_545
Hg7_1 Hg7_5 3.219133 1_455
Hg7_1 Hg7_7 3.219134 1_555
Hg7_1 Hg7_7 3.219134 1_445
Hg7_2 Hg7_6 3.219133 1_555
Hg7_2 Hg7_6 3.219133 1_455
Hg7_2 Hg7_4 3.219134 1_455
Hg7_2 Hg7_4 3.219134 1_565
Hg7_3 Hg7_7 3.219133 1_555
Hg7_3 Hg7_7 3.219133 1_455
Hg7_3 Hg7_5 3.219134 1_455
Hg7_3 Hg7_5 3.219134 1_565
Hg7_4 Hg7_6 3.219133 1_555
Hg7_4 Hg7_6 3.219133 1_545
Hg7_5 Hg7_7 3.219133 1_545
Hg7_5 Hg7_7 3.219133 1_555
Hg8_0 Hg8_4 3.219133 1_555
Hg8_0 Hg8_2 3.219133 1_545
Hg8_0 Hg8_2 3.219133 1_555
Hg8_0 Hg8_4 3.219133 1_455
Hg8_0 Hg8_6 3.219134 1_445
Hg8_0 Hg8_6 3.219134 1_555
Hg8_1 Hg8_3 3.219133 1_555
Hg8_1 Hg8_3 3.219133 1_545
Hg8_1 Hg8_5 3.219133 1_455
Hg8_1 Hg8_5 3.219133 1_555
Hg8_1 Hg8_7 3.219134 1_445
Hg8_1 Hg8_7 3.219134 1_555
Hg8_2 Hg8_6 3.219133 1_555
Hg8_2 Hg8_6 3.219133 1_455
Hg8_2 Hg8_4 3.219134 1_565
Hg8_2 Hg8_4 3.219134 1_455
Hg8_3 Hg8_7 3.219133 1_555
Hg8_3 Hg8_7 3.219133 1_455
Hg8_3 Hg8_5 3.219134 1_565
Hg8_3 Hg8_5 3.219134 1_455
Hg8_4 Hg8_6 3.219133 1_555
Hg8_4 Hg8_6 3.219133 1_545
Hg8_5 Hg8_7 3.219133 1_545
Hg8_5 Hg8_7 3.219133 1_555
