# generated using pymatgen
data_Ba(MgSi)2
_symmetry_space_group_name_H-M   'P 1'
_cell_length_a   4.66216627
_cell_length_b   4.66216557
_cell_length_c   6.41735876
_cell_angle_alpha   111.29970050
_cell_angle_beta   111.29969498
_cell_angle_gamma   90.00001530
_symmetry_Int_Tables_number   1
_chemical_formula_structural   Ba(MgSi)2
_chemical_formula_sum   'Ba1 Mg2 Si2'
_cell_volume   119.67444036
_cell_formula_units_Z   1
loop_
 _symmetry_equiv_pos_site_id
 _symmetry_equiv_pos_as_xyz
  1  'x, y, z'
loop_
 _atom_site_type_symbol
 _atom_site_label
 _atom_site_symmetry_multiplicity
 _atom_site_fract_x
 _atom_site_fract_y
 _atom_site_fract_z
 _atom_site_occupancy
  Ba  Ba0  1  -0.00000000  0.00000000  -0.00000000  1
  Mg  Mg0  1  0.75000000  0.25000000  0.50000000  1
  Mg  Mg1  1  0.25000000  0.75000000  0.50000000  1
  Si  Si0  1  0.61213412  0.61213412  0.22426724  1
  Si  Si1  1  0.38786588  0.38786588  0.77573276  1
loop_
_geom_bond_atom_site_label_1
_geom_bond_atom_site_label_2
_geom_bond_distance
_geom_bond_site_symmetry_2
Ba0 Si1 3.520308 1_554
Ba0 Si0 3.520308 1_445
Ba0 Si0 3.520312 1_455
Ba0 Si1 3.520312 1_544
Ba0 Si1 3.520312 1_454
Ba0 Si0 3.520312 1_545
Ba0 Si0 3.520314 1_555
Ba0 Si1 3.520314 1_444
Ba0 Mg0 3.607298 1_455
Ba0 Mg1 3.607298 1_544
Ba0 Mg0 3.607298 1_444
Ba0 Mg1 3.607298 1_555
Ba0 Mg1 3.607298 1_545
Ba0 Mg0 3.607298 1_454
Ba0 Mg1 3.607298 1_444
Ba0 Mg0 3.607298 1_555
Mg0 Si0 2.781854 1_545
Mg0 Si1 2.781854 1_655
Mg0 Si0 2.781858 1_555
Mg0 Si1 2.781858 1_555
Mg1 Si1 2.781854 1_565
Mg1 Si0 2.781854 1_455
Mg1 Si1 2.781858 1_555
Mg1 Si0 2.781858 1_555
Si0 Si1 2.469573 1_554
