# generated using pymatgen
data_Na2NiPCO7
_symmetry_space_group_name_H-M   'P 1'
_cell_length_a   5.17586700
_cell_length_b   10.98620183
_cell_length_c   11.10304925
_cell_angle_alpha   73.43428192
_cell_angle_beta   88.97569568
_cell_angle_gamma   88.82380048
_symmetry_Int_Tables_number   1
_chemical_formula_structural   Na2NiPCO7
_chemical_formula_sum   'Na8 Ni4 P4 C4 O28'
_cell_volume   604.97348543
_cell_formula_units_Z   4
loop_
 _symmetry_equiv_pos_site_id
 _symmetry_equiv_pos_as_xyz
  1  'x, y, z'
loop_
 _atom_site_type_symbol
 _atom_site_label
 _atom_site_symmetry_multiplicity
 _atom_site_fract_x
 _atom_site_fract_y
 _atom_site_fract_z
 _atom_site_occupancy
  Na  Na0  1  0.24995100  0.89946400  0.87230000  1
  Na  Na1  1  0.75004900  0.10053600  0.12770000  1
  Na  Na2  1  0.75415700  0.37954100  0.86444000  1
  Na  Na3  1  0.21996900  0.06351900  0.34869900  1
  Na  Na4  1  0.78003100  0.93648100  0.65130100  1
  Na  Na5  1  0.24776100  0.38442500  0.37660000  1
  Na  Na6  1  0.24584300  0.62045900  0.13556000  1
  Na  Na7  1  0.75223900  0.61557500  0.62340000  1
  Ni  Ni0  1  0.77801000  0.79668400  0.04716900  1
  Ni  Ni1  1  0.22199000  0.20331600  0.95283100  1
  Ni  Ni2  1  0.78216200  0.29499500  0.55013900  1
  Ni  Ni3  1  0.21783800  0.70500500  0.44986100  1
  P  P0  1  0.71668400  0.08809000  0.83638600  1
  P  P1  1  0.28331600  0.91191000  0.16361400  1
  P  P2  1  0.72442100  0.58568800  0.33532500  1
  P  P3  1  0.27557900  0.41431200  0.66467500  1
  C  C0  1  0.28548500  0.83504600  0.59611100  1
  C  C1  1  0.28658700  0.33875900  0.08864100  1
  C  C2  1  0.71341300  0.66124100  0.91135900  1
  C  C3  1  0.71451500  0.16495400  0.40388900  1
  O  O0  1  0.78397200  0.94338400  0.87477100  1
  O  O1  1  0.13371000  0.83976300  0.08632500  1
  O  O2  1  0.42350900  0.10388500  0.86604500  1
  O  O3  1  0.57649100  0.89611500  0.13395500  1
  O  O4  1  0.86629000  0.16023700  0.91367500  1
  O  O5  1  0.20168300  0.36996400  0.80533700  1
  O  O6  1  0.22620700  0.86653600  0.30546200  1
  O  O7  1  0.21602800  0.05661600  0.12522900  1
  O  O8  1  0.47840300  0.28975800  0.03795300  1
  O  O9  1  0.47351100  0.78720200  0.54296400  1
  O  O10  1  0.05426600  0.81403700  0.56353700  1
  O  O11  1  0.06104500  0.30739200  0.05649600  1
  O  O12  1  0.67153800  0.09826900  0.33057100  1
  O  O13  1  0.68497800  0.59432700  0.83897400  1
  O  O14  1  0.32846200  0.90173100  0.66942900  1
  O  O15  1  0.31502200  0.40567300  0.16102600  1
  O  O16  1  0.93895500  0.69260800  0.94350400  1
  O  O17  1  0.94573400  0.18596300  0.43646300  1
  O  O18  1  0.52648900  0.21279800  0.45703600  1
  O  O19  1  0.52159700  0.71024200  0.96204700  1
  O  O20  1  0.77379300  0.13346400  0.69453800  1
  O  O21  1  0.79831700  0.63003600  0.19466300  1
  O  O22  1  0.79536900  0.44204700  0.38198000  1
  O  O23  1  0.13546700  0.33934700  0.58743600  1
  O  O24  1  0.42709600  0.60316900  0.35328900  1
  O  O25  1  0.57290400  0.39683100  0.64671100  1
  O  O26  1  0.86453300  0.66065300  0.41256400  1
  O  O27  1  0.20463100  0.55795300  0.61802000  1
loop_
_geom_bond_atom_site_label_1
_geom_bond_atom_site_label_2
_geom_bond_distance
_geom_bond_site_symmetry_2
Na0 O14 2.274895 1_555
Na0 O1 2.348496 1_556
Na0 O2 2.418080 1_565
Na0 O0 2.451117 1_455
Na0 O19 2.457682 1_555
Na0 O16 2.731444 1_455
Na0 O0 2.817517 1_555
Na1 O12 2.274895 1_555
Na1 O4 2.348496 1_554
Na1 O3 2.418080 1_545
Na1 O7 2.451117 1_655
Na1 O8 2.457682 1_555
Na1 O11 2.731444 1_655
Na1 O7 2.817517 1_555
Na2 O13 2.316189 1_555
Na2 O8 2.365885 1_556
Na2 O4 2.375584 1_555
Na2 O5 2.404605 1_655
Na2 O25 2.563631 1_555
Na2 O11 2.608464 1_656
Na3 O17 2.322377 1_455
Na3 O6 2.346018 1_545
Na3 O12 2.371718 1_555
Na3 O7 2.504333 1_555
Na3 O18 2.820192 1_555
Na3 O12 2.859382 1_455
Na4 O10 2.322377 1_655
Na4 O20 2.346018 1_565
Na4 O14 2.371718 1_555
Na4 O0 2.504333 1_555
Na4 O9 2.820192 1_555
Na4 O14 2.859382 1_655
Na5 O23 2.316267 1_555
Na5 O18 2.325563 1_555
Na5 O15 2.357882 1_555
Na5 O22 2.417177 1_455
Na5 O24 2.536155 1_555
Na5 O17 2.629798 1_455
Na5 O22 2.922176 1_555
Na6 O15 2.316189 1_555
Na6 O19 2.365885 1_554
Na6 O1 2.375584 1_555
Na6 O21 2.404605 1_455
Na6 O24 2.563631 1_555
Na6 O16 2.608464 1_454
Na7 O26 2.316267 1_555
Na7 O9 2.325563 1_555
Na7 O13 2.357882 1_555
Na7 O27 2.417177 1_655
Na7 O25 2.536155 1_555
Na7 O10 2.629798 1_655
Na7 O27 2.922176 1_555
Ni0 O3 1.930598 1_555
Ni0 O1 1.996046 1_655
Ni0 O16 2.000791 1_554
Ni0 O19 2.040799 1_554
Ni0 O21 2.081682 1_555
Ni0 O0 2.122070 1_554
Ni1 O2 1.930598 1_555
Ni1 O4 1.996046 1_455
Ni1 O11 2.000791 1_556
Ni1 O8 2.040799 1_556
Ni1 O5 2.081682 1_555
Ni1 O7 2.122070 1_556
Ni2 O23 1.982832 1_655
Ni2 O20 2.024812 1_555
Ni2 O25 2.041390 1_555
Ni2 O18 2.065317 1_555
Ni2 O22 2.092986 1_555
Ni2 O17 2.127654 1_555
Ni3 O26 1.982832 1_455
Ni3 O6 2.024812 1_555
Ni3 O24 2.041390 1_555
Ni3 O9 2.065317 1_555
Ni3 O27 2.092986 1_555
Ni3 O10 2.127654 1_555
C0 O14 1.265753 1_555
C0 O10 1.300279 1_555
C0 O9 1.306499 1_555
C1 O15 1.246425 1_555
C1 O11 1.307840 1_555
C1 O8 1.312655 1_555
C2 O13 1.246425 1_555
C2 O16 1.307840 1_555
C2 O19 1.312655 1_555
C3 O12 1.265753 1_555
C3 O17 1.300279 1_555
C3 O18 1.306499 1_555
O0 P0 1.557729 1_565
O1 P1 1.549541 1_555
O2 P0 1.563672 1_555
O3 P1 1.563672 1_555
O4 P0 1.549541 1_555
O5 P3 1.541171 1_555
O6 P1 1.535590 1_555
O7 P1 1.557729 1_545
O20 P0 1.535590 1_555
O21 P2 1.541171 1_555
O22 P2 1.552533 1_555
O23 P3 1.545692 1_555
O24 P2 1.563221 1_555
O25 P3 1.563221 1_555
O26 P2 1.545692 1_555
O27 P3 1.552533 1_555
