# generated using pymatgen
data_Li4Mn3Fe2Cu3O16
_symmetry_space_group_name_H-M   'P 1'
_cell_length_a   5.83178361
_cell_length_b   5.78893438
_cell_length_c   9.47805156
_cell_angle_alpha   90.02267275
_cell_angle_beta   88.93117787
_cell_angle_gamma   119.69510119
_symmetry_Int_Tables_number   1
_chemical_formula_structural   Li4Mn3Fe2Cu3O16
_chemical_formula_sum   'Li4 Mn3 Fe2 Cu3 O16'
_cell_volume   277.89309986
_cell_formula_units_Z   1
loop_
 _symmetry_equiv_pos_site_id
 _symmetry_equiv_pos_as_xyz
  1  'x, y, z'
loop_
 _atom_site_type_symbol
 _atom_site_label
 _atom_site_symmetry_multiplicity
 _atom_site_fract_x
 _atom_site_fract_y
 _atom_site_fract_z
 _atom_site_occupancy
  Li  Li0  1  0.33127300  0.66552700  0.89501700  1
  Li  Li1  1  0.99094900  0.99523300  0.99788000  1
  Li  Li2  1  0.01340400  0.00674300  0.49293000  1
  Li  Li3  1  0.67408800  0.33706700  0.39562300  1
  Mn  Mn0  1  0.65324900  0.82664200  0.21541200  1
  Mn  Mn1  1  0.83426700  0.66333400  0.71493700  1
  Mn  Mn2  1  0.83428000  0.17100600  0.71488700  1
  Fe  Fe0  1  0.33625300  0.66838000  0.49169500  1
  Fe  Fe1  1  0.65426900  0.32715500  0.99209400  1
  Cu  Cu0  1  0.16586500  0.82756100  0.21288700  1
  Cu  Cu1  1  0.16567100  0.33828100  0.21302900  1
  Cu  Cu2  1  0.34121600  0.17068400  0.71338000  1
  O  O0  1  0.15888600  0.83188700  0.59885200  1
  O  O1  1  0.04188900  0.52091200  0.33757300  1
  O  O2  1  0.33900200  0.66924200  0.10939300  1
  O  O3  1  0.98842900  0.99457700  0.30508500  1
  O  O4  1  0.99388400  0.99700300  0.80963200  1
  O  O5  1  0.15891600  0.32718900  0.59885300  1
  O  O6  1  0.49441900  0.96746200  0.34113500  1
  O  O7  1  0.49322400  0.52616100  0.34080800  1
  O  O8  1  0.31344100  0.15682100  0.09836800  1
  O  O9  1  0.68453300  0.84221300  0.60357300  1
  O  O10  1  0.52866600  0.49130800  0.83795400  1
  O  O11  1  0.52860200  0.03720400  0.83791200  1
  O  O12  1  0.68401700  0.34200100  0.60859200  1
  O  O13  1  0.81499800  0.66610800  0.09850500  1
  O  O14  1  0.96624800  0.48313600  0.83307200  1
  O  O15  1  0.81606000  0.14945900  0.09876300  1
loop_
_geom_bond_atom_site_label_1
_geom_bond_atom_site_label_2
_geom_bond_distance
_geom_bond_site_symmetry_2
Li0 O10 1.939442 1_555
Li0 O11 1.941955 1_565
Li0 O14 1.952008 1_455
Li0 O2 2.033076 1_556
Li1 O4 1.783972 1_555
Li1 O15 1.901766 1_566
Li1 O13 1.902774 1_556
Li1 O8 1.908479 1_666
Li2 O3 1.787575 1_445
Li2 O0 1.906766 1_545
Li2 O5 1.907841 1_555
Li2 O9 1.949656 1_445
Li3 O1 1.931543 1_655
Li3 O6 1.934084 1_545
Li3 O7 1.935338 1_555
Li3 O12 2.020226 1_555
Mn0 O2 1.900532 1_555
Mn0 O6 1.910134 1_555
Mn0 O7 1.913409 1_555
Mn0 O3 1.914915 1_555
Mn0 O13 1.951900 1_555
Mn0 O15 1.954651 1_565
Mn1 O4 1.910874 1_555
Mn1 O12 1.913257 1_555
Mn1 O10 1.921560 1_555
Mn1 O14 1.939808 1_555
Mn1 O0 1.959467 1_655
Mn1 O9 1.969784 1_555
Mn2 O4 1.910023 1_545
Mn2 O12 1.912043 1_555
Mn2 O11 1.921604 1_555
Mn2 O14 1.940294 1_555
Mn2 O5 1.959183 1_655
Mn2 O9 1.970906 1_545
Fe0 O0 1.981774 1_555
Fe0 O5 1.985154 1_555
Fe0 O6 2.062863 1_555
Fe0 O7 2.063486 1_555
Fe0 O9 2.077710 1_555
Fe0 O1 2.109548 1_555
Fe1 O8 1.980369 1_556
Fe1 O13 1.989324 1_556
Fe1 O15 1.992133 1_556
Fe1 O10 2.074748 1_555
Fe1 O11 2.075875 1_555
Fe1 O14 2.160634 1_555
Cu0 O2 1.923759 1_555
Cu0 O3 1.930280 1_455
Cu0 O1 1.941327 1_555
Cu0 O8 1.973173 1_565
Cu0 O6 2.086475 1_555
Cu0 O13 2.103066 1_455
Cu1 O2 1.924320 1_555
Cu1 O3 1.928371 1_445
Cu1 O1 1.937948 1_555
Cu1 O8 1.971853 1_555
Cu1 O7 2.079774 1_555
Cu1 O15 2.097157 1_455
Cu2 O4 1.964710 1_445
Cu2 O12 1.982148 1_555
Cu2 O11 2.017397 1_555
Cu2 O10 2.017490 1_555
Cu2 O5 2.031629 1_555
Cu2 O0 2.032418 1_545
