# generated using pymatgen
data_CrH17N4Cl2O3
_symmetry_space_group_name_H-M   'P 1'
_cell_length_a   10.20360900
_cell_length_b   9.52033900
_cell_length_c   13.30824047
_cell_angle_alpha   53.51099294
_cell_angle_beta   90.00000000
_cell_angle_gamma   90.00000000
_symmetry_Int_Tables_number   1
_chemical_formula_structural   CrH17N4Cl2O3
_chemical_formula_sum   'Cr4 H68 N16 Cl8 O12'
_cell_volume   1039.36294217
_cell_formula_units_Z   4
loop_
 _symmetry_equiv_pos_site_id
 _symmetry_equiv_pos_as_xyz
  1  'x, y, z'
loop_
 _atom_site_type_symbol
 _atom_site_label
 _atom_site_symmetry_multiplicity
 _atom_site_fract_x
 _atom_site_fract_y
 _atom_site_fract_z
 _atom_site_occupancy
  Cr  Cr0  1  0.42959000  0.85221100  0.61947100  1
  Cr  Cr1  1  0.07041000  0.85221100  0.11947100  1
  Cr  Cr2  1  0.57041000  0.14778900  0.38052900  1
  Cr  Cr3  1  0.92959000  0.14778900  0.88052900  1
  H  H0  1  0.38721900  0.94091800  0.39806300  1
  H  H1  1  0.11278100  0.94091800  0.89806300  1
  H  H2  1  0.61278100  0.05908200  0.60193700  1
  H  H3  1  0.88721900  0.05908200  0.10193700  1
  H  H4  1  0.20143400  0.78641300  0.56361900  1
  H  H5  1  0.29856600  0.78641300  0.06361900  1
  H  H6  1  0.79856600  0.21358700  0.43638100  1
  H  H7  1  0.70143400  0.21358700  0.93638100  1
  H  H8  1  0.19595100  0.71467200  0.71269000  1
  H  H9  1  0.30404900  0.71467200  0.21269000  1
  H  H10  1  0.80404900  0.28532800  0.28731000  1
  H  H11  1  0.69595100  0.28532800  0.78731000  1
  H  H12  1  0.26348800  0.59320800  0.67511500  1
  H  H13  1  0.23651200  0.59320800  0.17511500  1
  H  H14  1  0.73651200  0.40679200  0.32488500  1
  H  H15  1  0.76348800  0.40679200  0.82488500  1
  H  H16  1  0.42331400  0.58466400  0.86123100  1
  H  H17  1  0.07668600  0.58466400  0.36123100  1
  H  H18  1  0.57668600  0.41533600  0.13876900  1
  H  H19  1  0.92331400  0.41533600  0.63876900  1
  H  H20  1  0.42931500  0.77035400  0.84780700  1
  H  H21  1  0.07068500  0.77035400  0.34780700  1
  H  H22  1  0.57068500  0.22964600  0.15219300  1
  H  H23  1  0.92931500  0.22964600  0.65219300  1
  H  H24  1  0.56454100  0.68766400  0.83140300  1
  H  H25  1  0.93545900  0.68766400  0.33140300  1
  H  H26  1  0.43545900  0.31233600  0.16859700  1
  H  H27  1  0.06454100  0.31233600  0.66859700  1
  H  H28  1  0.38147400  0.09421300  0.65416400  1
  H  H29  1  0.11852600  0.09421300  0.15416400  1
  H  H30  1  0.61852600  0.90578700  0.34583600  1
  H  H31  1  0.88147400  0.90578700  0.84583600  1
  H  H32  1  0.25782500  0.95366100  0.71287400  1
  H  H33  1  0.24217500  0.95366100  0.21287400  1
  H  H34  1  0.74217500  0.04633900  0.28712600  1
  H  H35  1  0.75782500  0.04633900  0.78712600  1
  H  H36  1  0.26440200  0.11019500  0.56043600  1
  H  H37  1  0.23559800  0.11019500  0.06043600  1
  H  H38  1  0.73559800  0.88980500  0.43956400  1
  H  H39  1  0.76440200  0.88980500  0.93956400  1
  H  H40  1  0.51377000  0.66516300  0.54659500  1
  H  H41  1  0.98623000  0.66516300  0.04659500  1
  H  H42  1  0.48623000  0.33483700  0.45340500  1
  H  H43  1  0.01377000  0.33483700  0.95340500  1
  H  H44  1  0.50916900  0.53703900  0.70113600  1
  H  H45  1  0.99083100  0.53703900  0.20113600  1
  H  H46  1  0.49083100  0.46296100  0.29886400  1
  H  H47  1  0.00916900  0.46296100  0.79886400  1
  H  H48  1  0.63527500  0.67341400  0.62792300  1
  H  H49  1  0.86472500  0.67341400  0.12792300  1
  H  H50  1  0.36472500  0.32658600  0.37207700  1
  H  H51  1  0.13527500  0.32658600  0.87207700  1
  H  H52  1  0.01203900  0.87284400  0.46557900  1
  H  H53  1  0.48796100  0.87284400  0.96557900  1
  H  H54  1  0.98796100  0.12715600  0.53442100  1
  H  H55  1  0.51203900  0.12715600  0.03442100  1
  H  H56  1  0.10080100  0.04105300  0.39258100  1
  H  H57  1  0.39919900  0.04105300  0.89258100  1
  H  H58  1  0.89919900  0.95894700  0.60741900  1
  H  H59  1  0.60080100  0.95894700  0.10741900  1
  H  H60  1  0.28938500  0.48321800  0.53926000  1
  H  H61  1  0.21061500  0.48321800  0.03926000  1
  H  H62  1  0.71061500  0.51678200  0.46074000  1
  H  H63  1  0.78938500  0.51678200  0.96074000  1
  H  H64  1  0.31482800  0.34538800  0.68260900  1
  H  H65  1  0.18517200  0.34538800  0.18260900  1
  H  H66  1  0.68517200  0.65461200  0.31739100  1
  H  H67  1  0.81482800  0.65461200  0.81739100  1
  N  N0  1  0.25307300  0.71901400  0.64684400  1
  N  N1  1  0.24692700  0.71901400  0.14684400  1
  N  N2  1  0.74692700  0.28098600  0.35315600  1
  N  N3  1  0.75307300  0.28098600  0.85315600  1
  N  N4  1  0.46527500  0.70653700  0.81297400  1
  N  N5  1  0.03472500  0.70653700  0.31297400  1
  N  N6  1  0.53472500  0.29346300  0.18702600  1
  N  N7  1  0.96527500  0.29346300  0.68702600  1
  N  N8  1  0.32094500  0.02376600  0.63802300  1
  N  N9  1  0.17905500  0.02376600  0.13802300  1
  N  N10  1  0.67905500  0.97623400  0.36197700  1
  N  N11  1  0.82094500  0.97623400  0.86197700  1
  N  N12  1  0.53532000  0.65935400  0.62447900  1
  N  N13  1  0.96468000  0.65935400  0.12447900  1
  N  N14  1  0.46468000  0.34064600  0.37552100  1
  N  N15  1  0.03532000  0.34064600  0.87552100  1
  Cl  Cl0  1  0.39733200  0.72961300  0.36765800  1
  Cl  Cl1  1  0.10266800  0.72961300  0.86765800  1
  Cl  Cl2  1  0.60266800  0.27038700  0.63234200  1
  Cl  Cl3  1  0.89733200  0.27038700  0.13234200  1
  Cl  Cl4  1  0.37570900  0.29952100  0.88095200  1
  Cl  Cl5  1  0.12429100  0.29952100  0.38095200  1
  Cl  Cl6  1  0.62429100  0.70047900  0.11904800  1
  Cl  Cl7  1  0.87570900  0.70047900  0.61904800  1
  O  O0  1  0.40610700  0.00549800  0.43296000  1
  O  O1  1  0.09389300  0.00549800  0.93296000  1
  O  O2  1  0.59389300  0.99450200  0.56704000  1
  O  O3  1  0.90610700  0.99450200  0.06704000  1
  O  O4  1  0.09046800  0.92494900  0.41130700  1
  O  O5  1  0.40953200  0.92494900  0.91130700  1
  O  O6  1  0.90953200  0.07505100  0.58869300  1
  O  O7  1  0.59046800  0.07505100  0.08869300  1
  O  O8  1  0.24577000  0.39402100  0.61898100  1
  O  O9  1  0.25423000  0.39402100  0.11898100  1
  O  O10  1  0.75423000  0.60597900  0.38101900  1
  O  O11  1  0.74577000  0.60597900  0.88101900  1
loop_
_geom_bond_atom_site_label_1
_geom_bond_atom_site_label_2
_geom_bond_distance
_geom_bond_site_symmetry_2
Cr0 O2 2.002092 1_555
Cr0 O0 2.009966 1_565
Cr0 N12 2.096164 1_555
Cr0 N0 2.106021 1_555
Cr0 N8 2.106424 1_565
Cr0 N4 2.107110 1_555
Cr1 O3 2.002092 1_455
Cr1 O1 2.009966 1_564
Cr1 N13 2.096164 1_455
Cr1 N1 2.106021 1_555
Cr1 N9 2.106424 1_565
Cr1 N5 2.107110 1_555
Cr2 O0 2.002092 1_555
Cr2 O2 2.009966 1_545
Cr2 N14 2.096164 1_555
Cr2 N2 2.106021 1_555
Cr2 N10 2.106424 1_545
Cr2 N6 2.107110 1_555
Cr3 O1 2.002092 1_655
Cr3 O3 2.009966 1_546
Cr3 N15 2.096164 1_655
Cr3 N3 2.106021 1_555
Cr3 N11 2.106424 1_545
Cr3 N7 2.107110 1_555
H0 O0 0.985105 1_565
H1 O1 0.985105 1_565
H2 O2 0.985105 1_545
H3 O3 0.985105 1_545
H4 N0 1.034812 1_555
H5 N1 1.034812 1_555
H6 N2 1.034812 1_555
H7 N3 1.034812 1_555
H8 N0 1.032586 1_555
H9 N1 1.032586 1_555
H10 N2 1.032586 1_555
H11 N3 1.032586 1_555
H12 N0 1.025390 1_555
H13 N1 1.025390 1_555
H14 N2 1.025390 1_555
H15 N3 1.025390 1_555
H16 N4 1.027502 1_555
H17 N5 1.027502 1_555
H18 N6 1.027502 1_555
H19 N7 1.027502 1_555
H20 N4 1.026461 1_555
H21 N5 1.026461 1_555
H22 N6 1.026461 1_555
H23 N7 1.026461 1_555
H24 N4 1.032440 1_555
H25 N5 1.032440 1_655
H26 N6 1.032440 1_555
H27 N7 1.032440 1_455
H28 N8 1.024083 1_555
H29 N9 1.024083 1_555
H30 N10 1.024083 1_555
H31 N11 1.024083 1_555
H32 N8 1.030446 1_565
H33 N9 1.030446 1_565
H34 N10 1.030446 1_545
H35 N11 1.030446 1_545
H36 N8 1.032276 1_555
H37 N9 1.032276 1_555
H38 N10 1.032276 1_555
H39 N11 1.032276 1_555
H40 N12 1.028379 1_555
H41 N13 1.028379 1_555
H42 N14 1.028379 1_555
H43 N15 1.028379 1_555
H44 N12 1.027165 1_555
H45 N13 1.027165 1_555
H46 N14 1.027165 1_555
H47 N15 1.027165 1_555
H48 N12 1.033206 1_555
H49 N13 1.033206 1_555
H50 N14 1.033206 1_555
H51 N15 1.033206 1_555
H52 O4 0.990975 1_555
H53 O5 0.990975 1_555
H54 O6 0.990975 1_555
H55 O7 0.990975 1_555
H56 O4 0.983565 1_545
H57 O5 0.983565 1_545
H58 O6 0.983565 1_565
H59 O7 0.983565 1_565
H60 O8 0.986536 1_555
H61 O9 0.986536 1_555
H62 O10 0.986536 1_555
H63 O11 0.986536 1_555
H64 O8 0.980627 1_555
H65 O9 0.980627 1_555
H66 O10 0.980627 1_555
H67 O11 0.980627 1_555
