# generated using pymatgen
data_TbS2
_symmetry_space_group_name_H-M   'P 1'
_cell_length_a   3.86643789
_cell_length_b   3.86642041
_cell_length_c   7.97258637
_cell_angle_alpha   89.99485677
_cell_angle_beta   90.00000000
_cell_angle_gamma   90.00000000
_symmetry_Int_Tables_number   1
_chemical_formula_structural   TbS2
_chemical_formula_sum   'Tb2 S4'
_cell_volume   119.18438077
_cell_formula_units_Z   2
loop_
 _symmetry_equiv_pos_site_id
 _symmetry_equiv_pos_as_xyz
  1  'x, y, z'
loop_
 _atom_site_type_symbol
 _atom_site_label
 _atom_site_symmetry_multiplicity
 _atom_site_fract_x
 _atom_site_fract_y
 _atom_site_fract_z
 _atom_site_occupancy
  Tb  Tb0  1  0.25000000  0.24965129  0.27342531  1
  Tb  Tb1  1  0.75000000  0.75034871  0.72657469  1
  S  S0  1  0.25000000  0.74995594  0.00000051  1
  S  S1  1  0.75000000  0.25004406  0.99999949  1
  S  S2  1  0.75000000  0.74974881  0.36789902  1
  S  S3  1  0.25000000  0.25025119  0.63210098  1
loop_
_geom_bond_atom_site_label_1
_geom_bond_atom_site_label_2
_geom_bond_distance
_geom_bond_site_symmetry_2
S0 Tb0 2.912985 1_565
S0 Tb1 2.913649 1_554
S0 Tb1 2.913649 1_454
S0 Tb0 2.914288 1_555
S1 Tb1 2.912985 1_545
S1 Tb0 2.913649 1_656
S1 Tb0 2.913649 1_556
S1 Tb1 2.914288 1_555
S2 Tb0 2.835530 1_565
S2 Tb0 2.835530 1_665
S2 Tb0 2.836136 1_555
S2 Tb0 2.836136 1_655
S2 Tb1 2.859574 1_555
S3 Tb1 2.835530 1_445
S3 Tb1 2.835530 1_545
S3 Tb1 2.836136 1_455
S3 Tb1 2.836136 1_555
S3 Tb0 2.859574 1_555
