# generated using pymatgen
data_Li5Cu5(NiO6)2
_symmetry_space_group_name_H-M   'P 1'
_cell_length_a   5.00729400
_cell_length_b   5.00729400
_cell_length_c   9.49574157
_cell_angle_alpha   88.17441226
_cell_angle_beta   88.17441226
_cell_angle_gamma   114.68553825
_symmetry_Int_Tables_number   1
_chemical_formula_structural   Li5Cu5(NiO6)2
_chemical_formula_sum   'Li5 Cu5 Ni2 O12'
_cell_volume   215.95146258
_cell_formula_units_Z   1
loop_
 _symmetry_equiv_pos_site_id
 _symmetry_equiv_pos_as_xyz
  1  'x, y, z'
loop_
 _atom_site_type_symbol
 _atom_site_label
 _atom_site_symmetry_multiplicity
 _atom_site_fract_x
 _atom_site_fract_y
 _atom_site_fract_z
 _atom_site_occupancy
  Li  Li0  1  0.84063800  0.66472300  0.25790200  1
  Li  Li1  1  0.66822900  0.84751000  0.74416600  1
  Li  Li2  1  0.33527700  0.15936200  0.74209800  1
  Li  Li3  1  0.15249000  0.33177100  0.25583400  1
  Li  Li4  1  0.08206000  0.91794000  0.50000000  1
  Cu  Cu0  1  0.92009000  0.07991000  0.00000000  1
  Cu  Cu1  1  0.00282500  0.50761000  0.74785100  1
  Cu  Cu2  1  0.49239000  0.99717500  0.25214900  1
  Cu  Cu3  1  0.58132900  0.41867100  0.00000000  1
  Cu  Cu4  1  0.41660000  0.58340000  0.50000000  1
  Ni  Ni0  1  0.75252000  0.24748000  0.50000000  1
  Ni  Ni1  1  0.25125100  0.74874900  0.00000000  1
  O  O0  1  0.00601700  0.20598700  0.63181600  1
  O  O1  1  0.79401300  0.99398300  0.36818400  1
  O  O2  1  0.92370600  0.42210000  0.09559200  1
  O  O3  1  0.57790000  0.07629400  0.90440800  1
  O  O4  1  0.69465200  0.51217700  0.62258000  1
  O  O5  1  0.48782300  0.30534800  0.37742000  1
  O  O6  1  0.50248500  0.68699200  0.12684400  1
  O  O7  1  0.31300800  0.49751500  0.87315600  1
  O  O8  1  0.43239200  0.92003200  0.59733100  1
  O  O9  1  0.07996800  0.56760800  0.40266900  1
  O  O10  1  0.18966100  0.99732800  0.12911100  1
  O  O11  1  0.00267200  0.81033900  0.87088900  1
loop_
_geom_bond_atom_site_label_1
_geom_bond_atom_site_label_2
_geom_bond_distance
_geom_bond_site_symmetry_2
Li0 O9 2.027678 1_655
Li0 O1 2.070098 1_555
Li0 O2 2.127196 1_555
Li0 O10 2.150942 1_655
Li0 O6 2.170565 1_555
Li0 O5 2.175772 1_555
Li1 O8 1.975181 1_555
Li1 O3 2.081414 1_565
Li1 O0 2.109051 1_665
Li1 O4 2.114060 1_555
Li1 O11 2.159071 1_655
Li1 O7 2.203650 1_555
Li2 O8 2.027678 1_545
Li2 O0 2.070098 1_555
Li2 O3 2.127196 1_555
Li2 O11 2.150942 1_545
Li2 O7 2.170565 1_555
Li2 O4 2.175772 1_555
Li3 O9 1.975181 1_555
Li3 O2 2.081414 1_455
Li3 O1 2.109051 1_445
Li3 O5 2.114060 1_555
Li3 O10 2.159071 1_545
Li3 O6 2.203650 1_555
Li4 O8 2.005031 1_555
Li4 O9 2.005031 1_555
Li4 O0 2.082172 1_565
Li4 O1 2.082172 1_455
Li4 O5 2.378945 1_565
Li4 O4 2.378945 1_455
Cu0 O3 1.958164 1_554
Cu0 O2 1.958164 1_555
Cu0 O10 2.008845 1_645
Cu0 O11 2.008845 1_644
Cu0 O6 2.438518 1_545
Cu0 O7 2.438518 1_654
Cu1 O0 1.902741 1_555
Cu1 O11 1.943341 1_555
Cu1 O4 1.985302 1_455
Cu1 O7 2.002545 1_555
Cu2 O1 1.902741 1_555
Cu2 O10 1.943341 1_555
Cu2 O5 1.985302 1_565
Cu2 O6 2.002545 1_555
Cu3 O2 1.959313 1_555
Cu3 O3 1.959313 1_554
Cu3 O6 1.981832 1_555
Cu3 O7 1.981832 1_554
Cu3 O10 2.454885 1_545
Cu3 O11 2.454885 1_654
Cu4 O8 1.922065 1_555
Cu4 O9 1.922065 1_555
Cu4 O4 1.977897 1_555
Cu4 O5 1.977897 1_555
Cu4 O0 2.409344 1_555
Cu4 O1 2.409344 1_555
Ni0 O0 1.877778 1_655
Ni0 O1 1.877778 1_545
Ni0 O4 1.895562 1_555
Ni0 O5 1.895562 1_555
Ni0 O8 1.930240 1_545
Ni0 O9 1.930240 1_655
Ni1 O6 1.877954 1_555
Ni1 O7 1.877954 1_554
Ni1 O10 1.881826 1_555
Ni1 O11 1.881826 1_554
Ni1 O3 1.938821 1_564
Ni1 O2 1.938821 1_455
