# generated using pymatgen
data_Li3Mn5(CoO6)2
_symmetry_space_group_name_H-M   'P 1'
_cell_length_a   5.17537297
_cell_length_b   5.17537297
_cell_length_c   29.15132647
_cell_angle_alpha   89.66747584
_cell_angle_beta   89.66747584
_cell_angle_gamma   119.48229329
_symmetry_Int_Tables_number   1
_chemical_formula_structural   Li3Mn5(CoO6)2
_chemical_formula_sum   'Li9 Mn15 Co6 O36'
_cell_volume   679.65028745
_cell_formula_units_Z   3
loop_
 _symmetry_equiv_pos_site_id
 _symmetry_equiv_pos_as_xyz
  1  'x, y, z'
loop_
 _atom_site_type_symbol
 _atom_site_label
 _atom_site_symmetry_multiplicity
 _atom_site_fract_x
 _atom_site_fract_y
 _atom_site_fract_z
 _atom_site_occupancy
  Li  Li0  1  0.65920600  0.34224600  0.25130300  1
  Li  Li1  1  0.65775400  0.34079400  0.74869700  1
  Li  Li2  1  0.32892300  0.01069200  0.91758100  1
  Li  Li3  1  0.00355700  0.33118400  0.41439800  1
  Li  Li4  1  0.98930800  0.67107700  0.08241900  1
  Li  Li5  1  0.66881600  0.99644300  0.58560200  1
  Li  Li6  1  0.33538200  0.98602300  0.66662100  1
  Li  Li7  1  0.01397700  0.66461800  0.33337900  1
  Li  Li8  1  0.68008300  0.31991700  0.00000000  1
  Mn  Mn0  1  0.32525000  0.67475000  0.50000000  1
  Mn  Mn1  1  0.98675600  0.34445600  0.16670900  1
  Mn  Mn2  1  0.65554400  0.01324400  0.83329100  1
  Mn  Mn3  1  0.66435500  0.33564500  0.50000000  1
  Mn  Mn4  1  0.33116400  0.99994400  0.16675000  1
  Mn  Mn5  1  0.00860500  0.33518800  0.66644900  1
  Mn  Mn6  1  0.00005600  0.66883600  0.83325000  1
  Mn  Mn7  1  0.66481200  0.99139500  0.33355100  1
  Mn  Mn8  1  0.34203200  0.33732500  0.58492400  1
  Mn  Mn9  1  0.33902700  0.66097300  0.00000000  1
  Mn  Mn10  1  0.01752000  0.00331000  0.74798400  1
  Mn  Mn11  1  0.99669000  0.98248000  0.25201600  1
  Mn  Mn12  1  0.66267500  0.65796800  0.41507600  1
  Mn  Mn13  1  0.66818200  0.65378100  0.91855600  1
  Mn  Mn14  1  0.34621900  0.33181800  0.08144400  1
  Co  Co0  1  0.67885200  0.65594300  0.66641300  1
  Co  Co1  1  0.34405700  0.32114800  0.33358700  1
  Co  Co2  1  0.00748700  0.99251300  0.00000000  1
  Co  Co3  1  0.99844700  0.00155300  0.50000000  1
  Co  Co4  1  0.65599600  0.67449400  0.16666800  1
  Co  Co5  1  0.32550600  0.34400400  0.83333200  1
  O  O0  1  0.62927500  0.65092400  0.54229300  1
  O  O1  1  0.95959500  0.64233000  0.46043000  1
  O  O2  1  0.34907600  0.37072500  0.45770700  1
  O  O3  1  0.97227300  0.64051500  0.70199600  1
  O  O4  1  0.29620900  0.28316400  0.20745200  1
  O  O5  1  0.66369000  0.36855200  0.12452500  1
  O  O6  1  0.04732700  0.03543700  0.12603800  1
  O  O7  1  0.65672000  0.31814100  0.36804500  1
  O  O8  1  0.68185900  0.34328000  0.63195500  1
  O  O9  1  0.96456300  0.95267300  0.87396200  1
  O  O10  1  0.35919600  0.63786500  0.63023900  1
  O  O11  1  0.33385600  0.03796500  0.79130200  1
  O  O12  1  0.71683600  0.70379100  0.79254800  1
  O  O13  1  0.35767000  0.04040500  0.53957000  1
  O  O14  1  0.01880500  0.35040100  0.53602300  1
  O  O15  1  0.29837500  0.96831200  0.03582800  1
  O  O16  1  0.35948500  0.02772700  0.29800400  1
  O  O17  1  0.00035800  0.27942700  0.29655600  1
  O  O18  1  0.96203500  0.66614400  0.20869800  1
  O  O19  1  0.64959900  0.98119500  0.46397700  1
  O  O20  1  0.30187000  0.30590200  0.70658000  1
  O  O21  1  0.67344500  0.02894000  0.20177000  1
  O  O22  1  0.72057300  0.99964200  0.70344400  1
  O  O23  1  0.03168800  0.70162500  0.96417200  1
  O  O24  1  0.67047500  0.95446700  0.96326900  1
  O  O25  1  0.01850000  0.05052300  0.62490800  1
  O  O26  1  0.63144800  0.33631000  0.87547500  1
  O  O27  1  0.30161100  0.65724900  0.13150900  1
  O  O28  1  0.94947700  0.98150000  0.37509200  1
  O  O29  1  0.34275100  0.69838900  0.86849100  1
  O  O30  1  0.36213500  0.64080400  0.36976100  1
  O  O31  1  0.69409800  0.69813000  0.29342000  1
  O  O32  1  0.97106000  0.32655500  0.79823000  1
  O  O33  1  0.63049800  0.63466600  0.04020800  1
  O  O34  1  0.04553300  0.32952500  0.03673100  1
  O  O35  1  0.36533400  0.36950200  0.95979200  1
loop_
_geom_bond_atom_site_label_1
_geom_bond_atom_site_label_2
_geom_bond_distance
_geom_bond_site_symmetry_2
Li0 O18 2.043544 1_555
Li0 O16 2.091308 1_555
Li0 O31 2.152628 1_555
Li0 O4 2.173449 1_555
Li0 O21 2.205259 1_555
Li0 O17 2.355910 1_655
Li1 O11 2.043544 1_555
Li1 O3 2.091308 1_555
Li1 O20 2.152628 1_555
Li1 O12 2.173449 1_555
Li1 O32 2.205259 1_555
Li1 O22 2.355910 1_545
Li2 O26 2.038251 1_555
Li2 O23 2.073196 1_545
Li2 O35 2.163976 1_555
Li2 O9 2.176648 1_445
Li2 O29 2.192004 1_545
Li2 O24 2.347824 1_545
Li3 O28 2.048326 1_445
Li3 O2 2.121899 1_555
Li3 O30 2.173825 1_555
Li3 O1 2.197194 1_455
Li3 O7 2.227655 1_455
Li3 O19 2.323433 1_445
Li4 O5 2.038251 1_555
Li4 O15 2.073196 1_655
Li4 O33 2.163976 1_555
Li4 O6 2.176648 1_665
Li4 O27 2.192004 1_655
Li4 O34 2.347824 1_655
Li5 O25 2.048326 1_665
Li5 O0 2.121899 1_555
Li5 O10 2.173825 1_555
Li5 O13 2.197194 1_565
Li5 O8 2.227655 1_565
Li5 O14 2.323433 1_665
Li6 O8 2.085441 1_565
Li6 O20 2.104825 1_565
Li6 O3 2.107335 1_455
Li6 O10 2.150798 1_555
Li6 O25 2.199294 1_565
Li6 O22 2.240251 1_555
Li7 O7 2.085441 1_455
Li7 O31 2.104825 1_455
Li7 O16 2.107335 1_565
Li7 O30 2.150798 1_555
Li7 O28 2.199294 1_455
Li7 O17 2.240251 1_555
Li8 O33 2.126805 1_555
Li8 O35 2.126805 1_554
Li8 O34 2.158174 1_655
Li8 O24 2.158174 1_544
Li8 O15 2.172618 1_545
Li8 O23 2.172618 1_654
Mn0 O19 1.943081 1_555
Mn0 O14 1.943081 1_555
Mn0 O0 2.054918 1_555
Mn0 O2 2.054918 1_555
Mn0 O13 2.157542 1_565
Mn0 O1 2.157542 1_455
Mn1 O27 1.921876 1_655
Mn1 O21 1.922362 1_555
Mn1 O18 2.125528 1_555
Mn1 O5 2.133219 1_555
Mn1 O6 2.138420 1_655
Mn1 O4 2.143351 1_655
Mn2 O29 1.921876 1_545
Mn2 O32 1.922362 1_555
Mn2 O11 2.125528 1_555
Mn2 O26 2.133219 1_555
Mn2 O9 2.138420 1_545
Mn2 O12 2.143351 1_545
Mn3 O13 1.937957 1_555
Mn3 O1 1.937957 1_555
Mn3 O19 2.087832 1_545
Mn3 O14 2.087832 1_655
Mn3 O2 2.127848 1_555
Mn3 O0 2.127848 1_555
Mn4 O4 1.966654 1_565
Mn4 O6 1.970637 1_565
Mn4 O21 1.990928 1_565
Mn4 O27 1.995072 1_555
Mn4 O18 2.197538 1_455
Mn4 O5 2.198343 1_565
Mn5 O25 1.932302 1_555
Mn5 O22 1.952541 1_445
Mn5 O3 1.978720 1_455
Mn5 O20 1.984978 1_555
Mn5 O8 1.990332 1_455
Mn5 O10 2.005280 1_555
Mn6 O12 1.966654 1_455
Mn6 O9 1.970637 1_455
Mn6 O32 1.990928 1_455
Mn6 O29 1.995072 1_555
Mn6 O11 2.197538 1_565
Mn6 O26 2.198343 1_455
Mn7 O28 1.932302 1_555
Mn7 O17 1.952541 1_665
Mn7 O16 1.978720 1_565
Mn7 O31 1.984978 1_555
Mn7 O7 1.990332 1_565
Mn7 O30 2.005280 1_555
Mn8 O25 1.968835 1_555
Mn8 O0 1.992174 1_555
Mn8 O10 2.015295 1_555
Mn8 O13 2.064144 1_555
Mn8 O8 2.224612 1_555
Mn8 O14 2.230029 1_555
Mn9 O34 1.947134 1_555
Mn9 O24 1.947134 1_554
Mn9 O35 1.971979 1_554
Mn9 O33 1.971979 1_555
Mn9 O15 2.002803 1_555
Mn9 O23 2.002803 1_554
Mn10 O20 1.940081 1_555
Mn10 O22 2.010653 1_445
Mn10 O11 2.011134 1_555
Mn10 O12 2.022606 1_445
Mn10 O3 2.231039 1_445
Mn10 O32 2.328562 1_455
Mn11 O31 1.940081 1_555
Mn11 O17 2.010653 1_665
Mn11 O18 2.011134 1_555
Mn11 O4 2.022606 1_665
Mn11 O16 2.231039 1_665
Mn11 O21 2.328562 1_565
Mn12 O28 1.968835 1_555
Mn12 O2 1.992174 1_555
Mn12 O30 2.015295 1_555
Mn12 O1 2.064144 1_555
Mn12 O7 2.224612 1_555
Mn12 O19 2.230029 1_555
Mn13 O35 1.937522 1_555
Mn13 O26 2.008024 1_555
Mn13 O9 2.013349 1_555
Mn13 O24 2.031328 1_555
Mn13 O23 2.223319 1_655
Mn13 O29 2.329654 1_555
Mn14 O33 1.937522 1_555
Mn14 O5 2.008024 1_555
Mn14 O6 2.013349 1_555
Mn14 O34 2.031328 1_555
Mn14 O15 2.223319 1_545
Mn14 O27 2.329654 1_555
Co0 O3 1.877513 1_555
Co0 O8 1.916019 1_555
Co0 O10 1.930452 1_555
Co0 O22 2.005721 1_555
Co0 O20 2.220197 1_555
Co0 O25 2.266564 1_665
Co1 O16 1.877513 1_555
Co1 O7 1.916019 1_555
Co1 O30 1.930452 1_555
Co1 O17 2.005721 1_555
Co1 O31 2.220197 1_555
Co1 O28 2.266564 1_445
Co2 O15 1.890833 1_555
Co2 O23 1.890833 1_554
Co2 O34 1.978252 1_565
Co2 O24 1.978252 1_454
Co2 O35 2.236509 1_564
Co2 O33 2.236509 1_455
Co3 O14 2.051692 1_655
Co3 O19 2.051692 1_545
Co3 O1 2.118246 1_545
Co3 O13 2.118246 1_655
Co3 O2 2.235483 1_655
Co3 O0 2.235483 1_545
Co4 O18 2.025085 1_555
Co4 O5 2.025332 1_555
Co4 O21 2.068823 1_565
Co4 O27 2.069792 1_555
Co4 O6 2.284005 1_665
Co4 O4 2.284034 1_555
Co5 O11 2.025085 1_555
Co5 O26 2.025332 1_555
Co5 O32 2.068823 1_455
Co5 O29 2.069792 1_555
Co5 O9 2.284005 1_445
Co5 O12 2.284034 1_555
