# generated using pymatgen
data_Li4VO3F2
_symmetry_space_group_name_H-M   'P 1'
_cell_length_a   5.16170473
_cell_length_b   7.66306106
_cell_length_c   10.32780365
_cell_angle_alpha   104.35852981
_cell_angle_beta   80.58228976
_cell_angle_gamma   71.83707482
_symmetry_Int_Tables_number   1
_chemical_formula_structural   Li4VO3F2
_chemical_formula_sum   'Li16 V4 O12 F8'
_cell_volume   362.92183999
_cell_formula_units_Z   4
loop_
 _symmetry_equiv_pos_site_id
 _symmetry_equiv_pos_as_xyz
  1  'x, y, z'
loop_
 _atom_site_type_symbol
 _atom_site_label
 _atom_site_symmetry_multiplicity
 _atom_site_fract_x
 _atom_site_fract_y
 _atom_site_fract_z
 _atom_site_occupancy
  Li  Li0  1  0.91727800  0.68912000  0.74638400  1
  Li  Li1  1  0.91722100  0.68931300  0.24628900  1
  Li  Li2  1  0.48791600  0.51050800  0.73210800  1
  Li  Li3  1  0.48808500  0.51044400  0.23197000  1
  Li  Li4  1  0.50287500  0.01032700  0.49317900  1
  Li  Li5  1  0.50302400  0.01023000  0.99301400  1
  Li  Li6  1  0.27270100  0.91375600  0.74593900  1
  Li  Li7  1  0.27256700  0.91363000  0.24603400  1
  Li  Li8  1  0.28789800  0.40466500  0.49887700  1
  Li  Li9  1  0.28769400  0.40486700  0.99872900  1
  Li  Li10  1  0.69312400  0.59267800  0.50539600  1
  Li  Li11  1  0.69319700  0.59275600  0.00527800  1
  Li  Li12  1  0.67355900  0.10343800  0.26542300  1
  Li  Li13  1  0.67379100  0.10355400  0.76529700  1
  Li  Li14  1  0.10845200  0.30230900  0.25303000  1
  Li  Li15  1  0.10843700  0.30203700  0.75290900  1
  V  V0  1  0.94632000  0.19214000  0.50034000  1
  V  V1  1  0.11001500  0.78328400  0.99963500  1
  V  V2  1  0.94638500  0.19204100  0.00046700  1
  V  V3  1  0.10995300  0.78329300  0.49959000  1
  O  O0  1  0.89753700  0.96599800  0.89518300  1
  O  O1  1  0.89751400  0.96596200  0.39506800  1
  O  O2  1  0.89067000  0.42736000  0.61799800  1
  O  O3  1  0.89070100  0.42730600  0.11799600  1
  O  O4  1  0.28657500  0.66485700  0.61566800  1
  O  O5  1  0.28653700  0.66485800  0.11575000  1
  O  O6  1  0.28444100  0.15232900  0.37924900  1
  O  O7  1  0.28429800  0.15241100  0.87932200  1
  O  O8  1  0.09338200  0.57709600  0.38021000  1
  O  O9  1  0.09325400  0.57714500  0.88023300  1
  O  O10  1  0.10795100  0.03614700  0.10849100  1
  O  O11  1  0.10851800  0.03606900  0.60848100  1
  F  F0  1  0.50712000  0.24907100  0.13042700  1
  F  F1  1  0.50730800  0.24911600  0.63026000  1
  F  F2  1  0.72194400  0.84392300  0.62569800  1
  F  F3  1  0.72163600  0.84398900  0.12570700  1
  F  F4  1  0.71629600  0.33892200  0.37982600  1
  F  F5  1  0.71620200  0.33886300  0.87988900  1
  F  F6  1  0.49374500  0.74214600  0.37733900  1
  F  F7  1  0.49387800  0.74204200  0.87731500  1
loop_
_geom_bond_atom_site_label_1
_geom_bond_atom_site_label_2
_geom_bond_distance
_geom_bond_site_symmetry_2
Li0 O9 1.996401 1_655
Li0 O4 2.074386 1_655
Li0 O2 2.170890 1_555
Li0 O0 2.251791 1_555
Li1 O8 1.998318 1_655
Li1 O5 2.073063 1_655
Li1 O3 2.171809 1_555
Li1 O1 2.250432 1_555
Li2 O2 2.028950 1_555
Li2 O4 2.067208 1_555
Li2 O9 2.166816 1_555
Li3 O3 2.027898 1_555
Li3 O5 2.066105 1_555
Li3 O8 2.167535 1_555
Li4 O1 2.003403 1_545
Li4 O6 2.035721 1_555
Li4 O11 2.107207 1_555
Li5 O0 2.002249 1_545
Li5 O7 2.035172 1_555
Li5 O10 2.110556 1_556
Li6 O4 2.015869 1_555
Li6 O7 2.022762 1_565
Li6 O11 2.042194 1_565
Li6 O0 2.125996 1_455
Li7 O5 2.014995 1_555
Li7 O6 2.022817 1_565
Li7 O10 2.044611 1_565
Li7 O1 2.124239 1_455
Li8 O6 2.027227 1_555
Li8 O4 2.055834 1_555
Li8 O2 2.143331 1_455
Li8 O8 2.152871 1_555
Li9 O7 2.026987 1_555
Li9 O5 2.055728 1_556
Li9 O3 2.143622 1_456
Li9 O9 2.150603 1_555
Li10 O4 2.046563 1_555
Li10 O2 2.076166 1_555
Li10 O8 2.202208 1_655
Li11 O5 2.047826 1_555
Li11 O3 2.077632 1_555
Li11 O9 2.200655 1_654
Li12 O6 2.023897 1_555
Li12 O1 2.164680 1_545
Li12 O10 2.365505 1_655
Li13 O7 2.026358 1_555
Li13 O0 2.166507 1_545
Li13 O11 2.365896 1_655
Li14 O6 2.079686 1_555
Li14 O3 2.151754 1_455
Li14 O8 2.158235 1_555
Li14 O10 2.209720 1_555
Li15 O7 2.079567 1_555
Li15 O2 2.151830 1_455
Li15 O9 2.160558 1_555
Li15 O11 2.206886 1_555
O0 V2 1.916821 1_566
O0 V1 2.122725 1_655
O1 V0 1.917498 1_565
O1 V3 2.122978 1_655
O2 V0 1.812388 1_555
O3 V2 1.812081 1_555
O4 V3 1.863738 1_555
O5 V1 1.863794 1_554
O6 V0 1.862153 1_455
O7 V2 1.861995 1_456
O8 V3 1.782326 1_555
O9 V1 1.782540 1_555
O10 V2 1.926576 1_455
O10 V1 1.980273 1_544
O11 V0 1.929491 1_455
O11 V3 1.981110 1_545
F0 Li3 1.980639 1_555
F0 Li5 2.027313 1_554
F0 Li14 2.090931 1_555
F0 Li12 2.119742 1_555
F0 Li9 2.241582 1_554
F0 V2 2.286651 1_555
F1 Li2 1.980971 1_555
F1 Li4 2.026092 1_555
F1 Li15 2.092621 1_555
F1 Li13 2.119877 1_555
F1 Li8 2.237879 1_555
F1 V0 2.285512 1_555
F2 V3 2.046807 1_655
F2 Li13 2.061684 1_565
F2 Li10 2.079722 1_555
F2 Li0 2.091965 1_555
F2 Li6 2.271562 1_555
F2 Li4 2.291495 1_565
F3 V1 2.048050 1_654
F3 Li12 2.061281 1_565
F3 Li11 2.079247 1_555
F3 Li1 2.091063 1_555
F3 Li7 2.271399 1_555
F3 Li5 2.291289 1_564
F4 Li12 1.994241 1_555
F4 Li10 2.007710 1_555
F4 Li14 2.118291 1_655
F4 V0 2.137619 1_555
F4 Li8 2.182599 1_555
F4 Li3 2.462901 1_555
F5 Li13 1.993110 1_555
F5 Li11 2.008100 1_556
F5 Li15 2.118918 1_655
F5 V2 2.138702 1_556
F5 Li9 2.181892 1_555
F5 Li2 2.462926 1_555
F6 Li3 2.032735 1_555
F6 V3 2.052452 1_555
F6 Li4 2.125161 1_565
F6 Li10 2.140565 1_555
F6 Li1 2.232048 1_555
F6 Li7 2.307467 1_555
F7 Li2 2.031600 1_555
F7 V1 2.052831 1_555
F7 Li5 2.124764 1_565
F7 Li11 2.138881 1_556
F7 Li0 2.231046 1_555
F7 Li6 2.309048 1_555
