# generated using pymatgen
data_Ca5Si3
_symmetry_space_group_name_H-M   'P 1'
_cell_length_a   7.65380066
_cell_length_b   7.65385975
_cell_length_c   9.15811823
_cell_angle_alpha   114.69969818
_cell_angle_beta   114.69983282
_cell_angle_gamma   90.00426324
_symmetry_Int_Tables_number   1
_chemical_formula_structural   Ca5Si3
_chemical_formula_sum   'Ca10 Si6'
_cell_volume   432.78526238
_cell_formula_units_Z   2
loop_
 _symmetry_equiv_pos_site_id
 _symmetry_equiv_pos_as_xyz
  1  'x, y, z'
loop_
 _atom_site_type_symbol
 _atom_site_label
 _atom_site_symmetry_multiplicity
 _atom_site_fract_x
 _atom_site_fract_y
 _atom_site_fract_z
 _atom_site_occupancy
  Ca  Ca0  1  0.18040255  0.04155965  0.72197674  1
  Ca  Ca1  1  0.04161094  0.54160542  0.72195314  1
  Ca  Ca2  1  0.68031770  0.18032236  0.72208263  1
  Ca  Ca3  1  0.95838906  0.45839458  0.27804686  1
  Ca  Ca4  1  0.54168696  0.68039654  0.72209172  1
  Ca  Ca5  1  0.81959745  0.95844035  0.27802326  1
  Ca  Ca6  1  0.45831304  0.31960346  0.27790828  1
  Ca  Ca7  1  0.31968230  0.81967764  0.27791737  1
  Ca  Ca8  1  0.50000000  0.50000000  0.00000000  1
  Ca  Ca9  1  0.00000000  0.00000000  0.00000000  1
  Si  Si0  1  0.61226274  0.11226211  0.00025265  1
  Si  Si1  1  0.88798000  0.61219713  0.00017183  1
  Si  Si2  1  0.11202000  0.38780287  0.99982817  1
  Si  Si3  1  0.38773726  0.88773789  0.99974735  1
  Si  Si4  1  0.74982159  0.75003754  0.50000580  1
  Si  Si5  1  0.25017841  0.24996246  0.49999420  1
loop_
_geom_bond_atom_site_label_1
_geom_bond_atom_site_label_2
_geom_bond_distance
_geom_bond_site_symmetry_2
Ca0 Si2 3.041300 1_555
Ca0 Si3 3.083033 1_545
Ca0 Si0 3.085508 1_556
Ca0 Si5 3.252630 1_555
Ca0 Si4 3.252876 1_445
Ca1 Si3 3.040179 1_555
Ca1 Si2 3.083798 1_555
Ca1 Si1 3.085472 1_456
Ca1 Si4 3.252834 1_455
Ca1 Si5 3.253197 1_555
Ca2 Si0 3.041461 1_556
Ca2 Si2 3.083645 1_655
Ca2 Si1 3.085371 1_556
Ca2 Si5 3.251105 1_555
Ca2 Si4 3.251492 1_545
Ca3 Si0 3.040179 1_555
Ca3 Si1 3.083798 1_555
Ca3 Si2 3.085472 1_654
Ca3 Si5 3.252834 1_655
Ca3 Si4 3.253197 1_555
Ca4 Si1 3.041894 1_556
Ca4 Si3 3.082943 1_555
Ca4 Si0 3.085405 1_566
Ca4 Si4 3.251493 1_555
Ca4 Si5 3.251901 1_555
Ca5 Si1 3.041300 1_555
Ca5 Si0 3.083033 1_565
Ca5 Si3 3.085508 1_554
Ca5 Si4 3.252630 1_555
Ca5 Si5 3.252876 1_665
Ca6 Si2 3.041894 1_554
Ca6 Si0 3.082943 1_555
Ca6 Si3 3.085405 1_544
Ca6 Si5 3.251493 1_555
Ca6 Si4 3.251901 1_555
Ca7 Si3 3.041461 1_554
Ca7 Si1 3.083645 1_455
Ca7 Si2 3.085371 1_554
Ca7 Si4 3.251105 1_555
Ca7 Si5 3.251492 1_565
Ca8 Si0 3.090298 1_555
Ca8 Si3 3.090298 1_554
Ca8 Si1 3.090321 1_555
Ca8 Si2 3.090321 1_554
Ca9 Si0 3.090272 1_455
Ca9 Si3 3.090272 1_544
Ca9 Si2 3.090291 1_554
Ca9 Si1 3.090291 1_445
Si0 Si3 2.427468 1_544
Si1 Si2 2.427052 1_654
