# generated using pymatgen
data_Cr3Fe2Sb3O16
_symmetry_space_group_name_H-M   'P 1'
_cell_length_a   6.05749379
_cell_length_b   6.05749379
_cell_length_c   9.16643331
_cell_angle_alpha   89.81866406
_cell_angle_beta   89.81866406
_cell_angle_gamma   60.16035723
_symmetry_Int_Tables_number   1
_chemical_formula_structural   Cr3Fe2Sb3O16
_chemical_formula_sum   'Cr3 Fe2 Sb3 O16'
_cell_volume   291.75181152
_cell_formula_units_Z   1
loop_
 _symmetry_equiv_pos_site_id
 _symmetry_equiv_pos_as_xyz
  1  'x, y, z'
loop_
 _atom_site_type_symbol
 _atom_site_label
 _atom_site_symmetry_multiplicity
 _atom_site_fract_x
 _atom_site_fract_y
 _atom_site_fract_z
 _atom_site_occupancy
  Cr  Cr0  1  0.16781800  0.66491800  0.21006500  1
  Cr  Cr1  1  0.66491800  0.16781800  0.21006500  1
  Cr  Cr2  1  0.82964200  0.82964200  0.71017100  1
  Fe  Fe0  1  0.34275300  0.34275300  0.48955400  1
  Fe  Fe1  1  0.67355800  0.67355800  0.99590300  1
  Sb  Sb0  1  0.16737900  0.16737900  0.21073300  1
  Sb  Sb1  1  0.33369000  0.82964000  0.71233900  1
  Sb  Sb2  1  0.82964000  0.33369000  0.71233900  1
  O  O0  1  0.16990600  0.66902000  0.60126600  1
  O  O1  1  0.47416700  0.47416700  0.32524700  1
  O  O2  1  0.33245900  0.33245900  0.09816500  1
  O  O3  1  0.99959700  0.99959700  0.31504200  1
  O  O4  1  0.99787200  0.99787200  0.82090900  1
  O  O5  1  0.66902000  0.16990600  0.60126600  1
  O  O6  1  0.04935100  0.48232100  0.33731900  1
  O  O7  1  0.48232100  0.04935100  0.33731900  1
  O  O8  1  0.83504700  0.83504700  0.11260100  1
  O  O9  1  0.16501300  0.16501300  0.59969300  1
  O  O10  1  0.51894900  0.95368300  0.83686300  1
  O  O11  1  0.95368300  0.51894900  0.83686300  1
  O  O12  1  0.66423700  0.66423700  0.59374400  1
  O  O13  1  0.33114900  0.82880900  0.10321000  1
  O  O14  1  0.51691100  0.51691100  0.84154600  1
  O  O15  1  0.82880900  0.33114900  0.10321000  1
loop_
_geom_bond_atom_site_label_1
_geom_bond_atom_site_label_2
_geom_bond_distance
_geom_bond_site_symmetry_2
Cr0 O1 1.940196 1_555
Cr0 O8 1.965142 1_455
Cr0 O6 1.968615 1_555
Cr0 O13 1.972055 1_555
Cr0 O3 2.006154 1_455
Cr0 O2 2.027386 1_555
Cr1 O1 1.940196 1_555
Cr1 O8 1.965142 1_545
Cr1 O7 1.968615 1_555
Cr1 O15 1.972055 1_555
Cr1 O3 2.006154 1_545
Cr1 O2 2.027386 1_555
Cr2 O10 2.009891 1_555
Cr2 O11 2.009891 1_555
Cr2 O4 2.038095 1_555
Cr2 O12 2.039430 1_555
Cr2 O5 2.046695 1_565
Cr2 O0 2.046695 1_655
Fe0 O5 1.999400 1_555
Fe0 O0 1.999400 1_555
Fe0 O1 2.037437 1_555
Fe0 O7 2.081759 1_555
Fe0 O6 2.081759 1_555
Fe0 O9 2.116000 1_555
Fe1 O8 2.005893 1_556
Fe1 O15 2.050805 1_556
Fe1 O13 2.050805 1_556
Fe1 O11 2.072007 1_555
Fe1 O10 2.072007 1_555
Fe1 O14 2.171577 1_555
O0 Sb1 1.985152 1_555
O2 Sb0 2.011622 1_555
O3 Sb0 1.998931 1_665
O4 Sb2 2.024256 1_565
O4 Sb1 2.024256 1_655
O5 Sb2 1.985152 1_555
O6 Sb0 2.036791 1_555
O7 Sb0 2.036791 1_555
O9 Sb1 2.040832 1_545
O9 Sb2 2.040832 1_455
O10 Sb1 1.994863 1_555
O11 Sb2 1.994863 1_555
O12 Sb2 2.047312 1_555
O12 Sb1 2.047312 1_555
O13 Sb0 2.035584 1_565
O14 Sb1 2.030996 1_555
O14 Sb2 2.030996 1_555
O15 Sb0 2.035584 1_655
