# generated using pymatgen
data_Li8FeS6
_symmetry_space_group_name_H-M   'P 1'
_cell_length_a   6.81142021
_cell_length_b   6.81142021
_cell_length_c   13.46200200
_cell_angle_alpha   90.00000000
_cell_angle_beta   90.00000000
_cell_angle_gamma   120.00000205
_symmetry_Int_Tables_number   1
_chemical_formula_structural   Li8FeS6
_chemical_formula_sum   'Li16 Fe2 S12'
_cell_volume   540.89830540
_cell_formula_units_Z   2
loop_
 _symmetry_equiv_pos_site_id
 _symmetry_equiv_pos_as_xyz
  1  'x, y, z'
loop_
 _atom_site_type_symbol
 _atom_site_label
 _atom_site_symmetry_multiplicity
 _atom_site_fract_x
 _atom_site_fract_y
 _atom_site_fract_z
 _atom_site_occupancy
  Li  Li0  1  0.00000000  0.68655900  0.76671400  1
  Li  Li1  1  0.00000000  0.62859100  0.12999200  1
  Li  Li2  1  0.00000000  0.37140900  0.62999200  1
  Li  Li3  1  0.00000000  0.31344100  0.26671400  1
  Li  Li4  1  0.33333300  0.66666700  0.40080200  1
  Li  Li5  1  0.33333300  0.66666700  0.90080200  1
  Li  Li6  1  0.31344100  0.31344100  0.76671400  1
  Li  Li7  1  0.37140900  0.37140900  0.12999200  1
  Li  Li8  1  0.62859100  0.62859100  0.62999200  1
  Li  Li9  1  0.31344100  0.00000000  0.26671400  1
  Li  Li10  1  0.68655900  0.68655900  0.26671400  1
  Li  Li11  1  0.37140900  0.00000000  0.62999200  1
  Li  Li12  1  0.66666700  0.33333300  0.90080200  1
  Li  Li13  1  0.66666700  0.33333300  0.40080200  1
  Li  Li14  1  0.62859100  0.00000000  0.12999200  1
  Li  Li15  1  0.68655900  0.00000000  0.76671400  1
  Fe  Fe0  1  0.00000000  0.00000000  0.00007600  1
  Fe  Fe1  1  0.00000000  0.00000000  0.50007600  1
  S  S0  1  0.00000000  0.69483800  0.95079100  1
  S  S1  1  0.00000000  0.30516200  0.45079100  1
  S  S2  1  0.33333300  0.66666700  0.21726400  1
  S  S3  1  0.00000000  0.00000000  0.16961600  1
  S  S4  1  0.00000000  0.00000000  0.66961600  1
  S  S5  1  0.33333300  0.66666700  0.71726400  1
  S  S6  1  0.30516200  0.30516200  0.95079100  1
  S  S7  1  0.30516200  0.00000000  0.45079100  1
  S  S8  1  0.69483800  0.69483800  0.45079100  1
  S  S9  1  0.66666700  0.33333300  0.71726400  1
  S  S10  1  0.66666700  0.33333300  0.21726400  1
  S  S11  1  0.69483800  0.00000000  0.95079100  1
loop_
_geom_bond_atom_site_label_1
_geom_bond_atom_site_label_2
_geom_bond_distance
_geom_bond_site_symmetry_2
Li0 S5 2.433964 1_555
Li0 S9 2.433968 1_455
Li0 S0 2.478686 1_555
Li0 S4 2.503344 1_565
Li1 S2 2.452292 1_555
Li1 S10 2.452295 1_455
Li1 S0 2.454243 1_554
Li1 S3 2.585447 1_565
Li2 S9 2.452292 1_455
Li2 S5 2.452295 1_555
Li2 S1 2.454243 1_555
Li2 S4 2.585447 1_555
Li3 S10 2.433964 1_455
Li3 S2 2.433968 1_555
Li3 S1 2.478686 1_555
Li3 S3 2.503344 1_555
Li4 S7 2.465845 1_565
Li4 S1 2.465849 1_555
Li4 S8 2.465852 1_555
Li4 S2 2.470789 1_555
Li5 S0 2.465845 1_555
Li5 S11 2.465849 1_565
Li5 S6 2.465852 1_555
Li5 S5 2.470789 1_555
Li6 S5 2.433971 1_555
Li6 S9 2.433971 1_555
Li6 S6 2.478686 1_555
Li6 S4 2.503344 1_555
Li7 S2 2.452298 1_555
Li7 S10 2.452298 1_555
Li7 S6 2.454243 1_554
Li7 S3 2.585447 1_555
Li8 S5 2.452298 1_555
Li8 S9 2.452298 1_555
Li8 S8 2.454243 1_555
Li8 S4 2.585447 1_665
Li9 S2 2.433964 1_545
Li9 S10 2.433968 1_555
Li9 S7 2.478686 1_555
Li9 S3 2.503344 1_555
Li10 S2 2.433971 1_555
Li10 S10 2.433971 1_555
Li10 S8 2.478686 1_555
Li10 S3 2.503344 1_665
Li11 S5 2.452292 1_545
Li11 S9 2.452295 1_555
Li11 S7 2.454243 1_555
Li11 S4 2.585447 1_555
Li12 S11 2.465845 1_555
Li12 S0 2.465849 1_655
Li12 S6 2.465852 1_555
Li12 S9 2.470789 1_555
Li13 S1 2.465845 1_655
Li13 S7 2.465849 1_555
Li13 S8 2.465852 1_555
Li13 S10 2.470789 1_555
Li14 S10 2.452292 1_555
Li14 S2 2.452295 1_545
Li14 S11 2.454243 1_554
Li14 S3 2.585447 1_655
Li15 S9 2.433964 1_555
Li15 S5 2.433968 1_545
Li15 S11 2.478686 1_555
Li15 S4 2.503344 1_655
Fe0 S6 2.181908 1_554
Fe0 S0 2.181908 1_544
Fe0 S11 2.181908 1_454
Fe0 S3 2.282348 1_555
Fe1 S8 2.181908 1_445
Fe1 S1 2.181908 1_555
Fe1 S7 2.181908 1_555
Fe1 S4 2.282348 1_555
