# generated using pymatgen
data_BaTi7O14
_symmetry_space_group_name_H-M   'P 1'
_cell_length_a   7.38766600
_cell_length_b   7.39038828
_cell_length_c   20.60257564
_cell_angle_alpha   80.32540632
_cell_angle_beta   80.33338938
_cell_angle_gamma   87.69796349
_symmetry_Int_Tables_number   1
_chemical_formula_structural   BaTi7O14
_chemical_formula_sum   'Ba4 Ti28 O56'
_cell_volume   1093.02934736
_cell_formula_units_Z   4
loop_
 _symmetry_equiv_pos_site_id
 _symmetry_equiv_pos_as_xyz
  1  'x, y, z'
loop_
 _atom_site_type_symbol
 _atom_site_label
 _atom_site_symmetry_multiplicity
 _atom_site_fract_x
 _atom_site_fract_y
 _atom_site_fract_z
 _atom_site_occupancy
  Ba  Ba0  1  0.86355600  0.86386400  0.63615200  1
  Ba  Ba1  1  0.59612200  0.59656500  0.90266800  1
  Ba  Ba2  1  0.13644400  0.13613600  0.36384800  1
  Ba  Ba3  1  0.40387800  0.40343500  0.09733200  1
  Ti  Ti0  1  0.01410400  0.70448800  0.97692900  1
  Ti  Ti1  1  0.63497300  0.96354500  0.04896200  1
  Ti  Ti2  1  0.08270100  0.74221700  0.23613500  1
  Ti  Ti3  1  0.93705100  0.61227800  0.37866100  1
  Ti  Ti4  1  0.36502700  0.03645500  0.95103800  1
  Ti  Ti5  1  0.22494600  0.89406500  0.09257400  1
  Ti  Ti6  1  0.69805400  0.00678000  0.30896200  1
  Ti  Ti7  1  0.85849700  0.15150500  0.16758200  1
  Ti  Ti8  1  0.98589600  0.29551200  0.02307100  1
  Ti  Ti9  1  0.71790400  0.41787700  0.26160000  1
  Ti  Ti10  1  0.86392200  0.56663500  0.11926500  1
  Ti  Ti11  1  0.58482300  0.27945200  0.40533300  1
  Ti  Ti12  1  0.48678600  0.82967900  0.19366700  1
  Ti  Ti13  1  0.34859700  0.67239700  0.33533400  1
  Ti  Ti14  1  0.79878600  0.45568200  0.52124200  1
  Ti  Ti15  1  0.65140300  0.32760300  0.66466600  1
  Ti  Ti16  1  0.41517700  0.72054800  0.59466700  1
  Ti  Ti17  1  0.28209600  0.58212300  0.73840000  1
  Ti  Ti18  1  0.57036900  0.86713700  0.45301300  1
  Ti  Ti19  1  0.30194600  0.99322000  0.69103800  1
  Ti  Ti20  1  0.14150300  0.84849500  0.83241800  1
  Ti  Ti21  1  0.42963100  0.13286300  0.54698700  1
  Ti  Ti22  1  0.20121400  0.54431800  0.47875800  1
  Ti  Ti23  1  0.77505400  0.10593500  0.90742600  1
  Ti  Ti24  1  0.06294900  0.38772200  0.62133900  1
  Ti  Ti25  1  0.91729900  0.25778300  0.76386500  1
  Ti  Ti26  1  0.51321400  0.17032100  0.80633300  1
  Ti  Ti27  1  0.13607800  0.43336500  0.88073500  1
  O  O0  1  0.67063900  0.75154700  0.11918600  1
  O  O1  1  0.81748400  0.89346100  0.97541600  1
  O  O2  1  0.06577400  0.72345700  0.06626200  1
  O  O3  1  0.91498800  0.58531100  0.20886000  1
  O  O4  1  0.65667700  0.98730500  0.21862800  1
  O  O5  1  0.79358200  0.13024000  0.07802800  1
  O  O6  1  0.93422600  0.27654300  0.93373800  1
  O  O7  1  0.29037700  0.69097800  0.16459600  1
  O  O8  1  0.43362800  0.82936400  0.02140200  1
  O  O9  1  0.89958000  0.82199600  0.30954800  1
  O  O10  1  0.18251600  0.10653900  0.02458400  1
  O  O11  1  0.03893200  0.95670400  0.16636400  1
  O  O12  1  0.75181300  0.67102200  0.45282200  1
  O  O13  1  0.68443200  0.37435100  0.17090700  1
  O  O14  1  0.82206200  0.51747700  0.02799700  1
  O  O15  1  0.59935600  0.91067400  0.54357800  1
  O  O16  1  0.74784800  0.05452200  0.39901400  1
  O  O17  1  0.17793800  0.48252300  0.97200300  1
  O  O18  1  0.88455100  0.19575800  0.25795300  1
  O  O19  1  0.03168700  0.34124800  0.11362800  1
  O  O20  1  0.53407800  0.61419800  0.26144800  1
  O  O21  1  0.99602600  0.59306600  0.55013700  1
  O  O22  1  0.14002000  0.74111000  0.40569600  1
  O  O23  1  0.56637200  0.17063600  0.97859800  1
  O  O24  1  0.42499600  0.02598000  0.12005800  1
  O  O25  1  0.28162300  0.87779200  0.26450300  1
  O  O26  1  0.62907200  0.29950400  0.49530000  1
  O  O27  1  0.77989100  0.43949900  0.35095500  1
  O  O28  1  0.50501000  0.84534900  0.36391000  1
  O  O29  1  0.37092800  0.70049600  0.50470000  1
  O  O30  1  0.71837700  0.12220800  0.73549700  1
  O  O31  1  0.57500400  0.97402000  0.87994200  1
  O  O32  1  0.14488700  0.54439300  0.30910000  1
  O  O33  1  0.85998000  0.25889000  0.59430400  1
  O  O34  1  0.00397400  0.40693400  0.44986300  1
  O  O35  1  0.61491900  0.53641600  0.59488700  1
  O  O36  1  0.96831300  0.65875200  0.88637200  1
  O  O37  1  0.40064400  0.08932600  0.45642200  1
  O  O38  1  0.11544900  0.80424200  0.74204700  1
  O  O39  1  0.53756700  0.23047500  0.31571600  1
  O  O40  1  0.25215200  0.94547800  0.60098600  1
  O  O41  1  0.31556800  0.62564900  0.82909300  1
  O  O42  1  0.46243300  0.76952500  0.68428400  1
  O  O43  1  0.10042000  0.17800400  0.69045200  1
  O  O44  1  0.24818700  0.32897800  0.54717800  1
  O  O45  1  0.38508100  0.46358400  0.40511300  1
  O  O46  1  0.96106800  0.04329600  0.83363600  1
  O  O47  1  0.70962300  0.30902200  0.83540400  1
  O  O48  1  0.85511300  0.45560700  0.69090000  1
  O  O49  1  0.49499000  0.15465100  0.63609000  1
  O  O50  1  0.34332300  0.01269500  0.78137200  1
  O  O51  1  0.20641800  0.86976000  0.92197200  1
  O  O52  1  0.08501200  0.41468900  0.79114000  1
  O  O53  1  0.22010900  0.56050100  0.64904500  1
  O  O54  1  0.46592200  0.38580200  0.73855200  1
  O  O55  1  0.32936100  0.24845300  0.88081400  1
loop_
_geom_bond_atom_site_label_1
_geom_bond_atom_site_label_2
_geom_bond_distance
_geom_bond_site_symmetry_2
Ba0 O33 2.902134 1_565
Ba0 O40 2.902418 1_655
Ba0 O15 2.922516 1_555
Ba0 O21 2.925005 1_555
Ba0 O42 3.032771 1_555
Ba0 O48 3.037626 1_555
Ba0 O38 3.064546 1_655
Ba0 O30 3.065380 1_565
Ba1 O41 2.747652 1_555
Ba1 O31 2.752394 1_555
Ba1 O47 2.756056 1_555
Ba1 O36 2.761159 1_555
Ba2 O22 2.902134 1_545
Ba2 O16 2.902418 1_455
Ba2 O37 2.922516 1_555
Ba2 O34 2.925005 1_555
Ba2 O39 3.032771 1_555
Ba2 O32 3.037626 1_555
Ba2 O18 3.064546 1_455
Ba2 O25 3.065380 1_545
Ba3 O13 2.747652 1_555
Ba3 O24 2.752394 1_555
Ba3 O7 2.756056 1_555
Ba3 O19 2.761159 1_555
O0 Ti10 1.936420 1_555
O0 Ti1 1.987544 1_555
O0 Ti12 2.016878 1_555
O1 Ti23 1.973517 1_565
O1 Ti0 1.974579 1_655
O1 Ti1 1.975796 1_556
O2 Ti5 1.956863 1_555
O2 Ti0 1.969701 1_554
O2 Ti10 1.981416 1_455
O3 Ti2 1.940058 1_655
O3 Ti10 1.972905 1_555
O3 Ti9 1.998314 1_555
O4 Ti12 1.931925 1_555
O4 Ti6 1.965329 1_565
O4 Ti7 1.997861 1_565
O5 Ti1 1.961847 1_545
O5 Ti8 1.981608 1_555
O5 Ti7 2.014828 1_555
O6 Ti23 1.956863 1_555
O6 Ti8 1.969701 1_556
O6 Ti27 1.981416 1_655
O7 Ti2 2.012744 1_555
O7 Ti5 2.030314 1_555
O7 Ti12 2.032872 1_555
O8 Ti1 2.027246 1_555
O8 Ti4 2.034576 1_564
O8 Ti5 2.042737 1_555
O9 Ti3 1.965318 1_555
O9 Ti6 1.979593 1_565
O9 Ti2 2.003479 1_655
O10 Ti5 1.973517 1_545
O10 Ti8 1.974579 1_455
O10 Ti4 1.975796 1_554
O11 Ti7 1.922720 1_465
O11 Ti5 1.974281 1_555
O11 Ti2 2.008135 1_555
O12 Ti18 1.934308 1_555
O12 Ti3 1.966911 1_555
O12 Ti14 2.001522 1_555
O13 Ti9 2.004875 1_555
O13 Ti10 2.019683 1_555
O13 Ti7 2.051551 1_555
O14 Ti8 2.005340 1_555
O14 Ti10 2.048724 1_555
O14 Ti0 2.048769 1_654
O15 Ti18 1.993080 1_555
O15 Ti16 2.027097 1_555
O15 Ti21 2.029109 1_565
O16 Ti18 2.003198 1_545
O16 Ti11 2.022380 1_555
O16 Ti6 2.040002 1_555
O17 Ti0 2.005340 1_555
O17 Ti27 2.048724 1_555
O17 Ti8 2.048769 1_456
O18 Ti7 1.985109 1_555
O18 Ti9 2.015947 1_555
O18 Ti6 2.031812 1_555
O19 Ti7 1.995407 1_455
O19 Ti8 2.035350 1_455
O19 Ti10 2.043272 1_455
O20 Ti9 1.947045 1_555
O20 Ti13 1.962670 1_555
O20 Ti12 1.994968 1_555
O21 Ti22 1.993947 1_655
O21 Ti14 2.030237 1_555
O21 Ti24 2.033333 1_655
O22 Ti22 2.006315 1_555
O22 Ti3 2.009623 1_455
O22 Ti13 2.041592 1_555
O23 Ti4 2.027246 1_555
O23 Ti1 2.034576 1_546
O23 Ti23 2.042737 1_555
O24 Ti5 2.009375 1_545
O24 Ti12 2.013138 1_545
O24 Ti1 2.042392 1_545
O25 Ti12 1.985405 1_555
O25 Ti2 2.026988 1_555
O25 Ti13 2.028833 1_555
O26 Ti14 1.933522 1_555
O26 Ti11 1.965751 1_555
O26 Ti21 1.999915 1_555
O27 Ti11 1.969844 1_555
O27 Ti3 1.972558 1_555
O27 Ti9 2.003044 1_555
O28 Ti6 1.969608 1_565
O28 Ti13 1.978800 1_555
O28 Ti18 2.008066 1_555
O29 Ti22 1.933522 1_555
O29 Ti16 1.965751 1_555
O29 Ti18 1.999915 1_555
O30 Ti26 1.985405 1_555
O30 Ti25 2.026988 1_555
O30 Ti15 2.028833 1_555
O31 Ti23 2.009375 1_565
O31 Ti26 2.013138 1_565
O31 Ti4 2.042392 1_565
O32 Ti13 2.002817 1_555
O32 Ti2 2.011863 1_555
O32 Ti3 2.025807 1_455
O33 Ti14 2.006315 1_555
O33 Ti24 2.009623 1_655
O33 Ti15 2.041592 1_555
O34 Ti14 1.993947 1_455
O34 Ti22 2.030237 1_555
O34 Ti3 2.033333 1_455
O35 Ti16 1.966761 1_555
O35 Ti15 1.967730 1_555
O35 Ti14 2.012525 1_555
O36 Ti20 1.995407 1_655
O36 Ti0 2.035350 1_655
O36 Ti27 2.043272 1_655
O37 Ti21 1.993080 1_555
O37 Ti11 2.027097 1_555
O37 Ti18 2.029109 1_545
O38 Ti20 1.985109 1_555
O38 Ti17 2.015947 1_555
O38 Ti19 2.031812 1_555
O39 Ti6 2.005634 1_555
O39 Ti9 2.016571 1_555
O39 Ti11 2.028080 1_555
O40 Ti21 2.003198 1_565
O40 Ti16 2.022380 1_555
O40 Ti19 2.040002 1_555
O41 Ti17 2.004875 1_555
O41 Ti27 2.019683 1_555
O41 Ti20 2.051551 1_555
O42 Ti19 2.005634 1_555
O42 Ti17 2.016571 1_555
O42 Ti16 2.028080 1_555
O43 Ti24 1.965318 1_555
O43 Ti19 1.979593 1_545
O43 Ti25 2.003479 1_455
O44 Ti21 1.934308 1_555
O44 Ti24 1.966911 1_555
O44 Ti22 2.001522 1_555
O45 Ti11 1.966761 1_555
O45 Ti13 1.967730 1_555
O45 Ti22 2.012525 1_555
O46 Ti20 1.922720 1_645
O46 Ti23 1.974281 1_555
O46 Ti25 2.008135 1_555
O47 Ti25 2.012744 1_555
O47 Ti23 2.030314 1_555
O47 Ti26 2.032872 1_555
O48 Ti15 2.002817 1_555
O48 Ti25 2.011863 1_555
O48 Ti24 2.025807 1_655
O49 Ti19 1.969608 1_545
O49 Ti15 1.978800 1_555
O49 Ti21 2.008066 1_555
O50 Ti26 1.931925 1_555
O50 Ti19 1.965329 1_545
O50 Ti20 1.997861 1_545
O51 Ti4 1.961847 1_565
O51 Ti0 1.981608 1_555
O51 Ti20 2.014828 1_555
O52 Ti25 1.940058 1_455
O52 Ti27 1.972905 1_555
O52 Ti17 1.998314 1_555
O53 Ti16 1.969844 1_555
O53 Ti24 1.972558 1_555
O53 Ti17 2.003044 1_555
O54 Ti17 1.947045 1_555
O54 Ti15 1.962670 1_555
O54 Ti26 1.994968 1_555
O55 Ti27 1.936420 1_555
O55 Ti4 1.987544 1_555
O55 Ti26 2.016878 1_555
