# generated using pymatgen
data_Li4Ti4V4NiO18
_symmetry_space_group_name_H-M   'P 1'
_cell_length_a   2.96811600
_cell_length_b   9.20960300
_cell_length_c   24.55182200
_cell_angle_alpha   90.00000000
_cell_angle_beta   90.00000000
_cell_angle_gamma   90.00000000
_symmetry_Int_Tables_number   1
_chemical_formula_structural   Li4Ti4V4NiO18
_chemical_formula_sum   'Li8 Ti8 V8 Ni2 O36'
_cell_volume   671.12822862
_cell_formula_units_Z   2
loop_
 _symmetry_equiv_pos_site_id
 _symmetry_equiv_pos_as_xyz
  1  'x, y, z'
loop_
 _atom_site_type_symbol
 _atom_site_label
 _atom_site_symmetry_multiplicity
 _atom_site_fract_x
 _atom_site_fract_y
 _atom_site_fract_z
 _atom_site_occupancy
  Li  Li0  1  0.00000000  0.69786000  0.99038300  1
  Li  Li1  1  0.00000000  0.69469700  0.18950900  1
  Li  Li2  1  0.00000000  0.80530300  0.68950900  1
  Li  Li3  1  0.00000000  0.80214000  0.49038300  1
  Li  Li4  1  0.00000000  0.19786000  0.50961700  1
  Li  Li5  1  0.00000000  0.19469700  0.31049100  1
  Li  Li6  1  0.00000000  0.30530300  0.81049100  1
  Li  Li7  1  0.00000000  0.30214000  0.00961700  1
  Ti  Ti0  1  0.00000000  0.49688900  0.10079700  1
  Ti  Ti1  1  0.50000000  0.66172900  0.80604500  1
  Ti  Ti2  1  0.50000000  0.83827100  0.30604500  1
  Ti  Ti3  1  0.00000000  0.00311100  0.60079700  1
  Ti  Ti4  1  0.00000000  0.99688900  0.39920300  1
  Ti  Ti5  1  0.50000000  0.16172900  0.69395500  1
  Ti  Ti6  1  0.50000000  0.33827100  0.19395500  1
  Ti  Ti7  1  0.00000000  0.50311100  0.89920300  1
  V  V0  1  0.00000000  0.49458500  0.31513000  1
  V  V1  1  0.50000000  0.65118200  0.58705800  1
  V  V2  1  0.50000000  0.84881800  0.08705800  1
  V  V3  1  0.00000000  0.00541500  0.81513000  1
  V  V4  1  0.00000000  0.99458500  0.18487000  1
  V  V5  1  0.50000000  0.15118200  0.91294200  1
  V  V6  1  0.50000000  0.34881800  0.41294200  1
  V  V7  1  0.00000000  0.50541500  0.68487000  1
  Ni  Ni0  1  0.00000000  0.50000000  0.50000000  1
  Ni  Ni1  1  0.00000000  0.00000000  0.00000000  1
  O  O0  1  0.00000000  0.49127000  0.40439000  1
  O  O1  1  0.00000000  0.50873000  0.59561000  1
  O  O2  1  0.50000000  0.56006700  0.94411100  1
  O  O3  1  0.50000000  0.54108200  0.15777900  1
  O  O4  1  0.50000000  0.65451200  0.66598400  1
  O  O5  1  0.00000000  0.61322000  0.75689000  1
  O  O6  1  0.50000000  0.64939900  0.50977800  1
  O  O7  1  0.50000000  0.63305100  0.29458900  1
  O  O8  1  0.00000000  0.68772300  0.85845100  1
  O  O9  1  0.00000000  0.70413000  0.08373000  1
  O  O10  1  0.00000000  0.79587000  0.58373000  1
  O  O11  1  0.00000000  0.81227700  0.35845100  1
  O  O12  1  0.50000000  0.86694900  0.79458900  1
  O  O13  1  0.50000000  0.85060100  0.00977800  1
  O  O14  1  0.00000000  0.88678000  0.25689000  1
  O  O15  1  0.50000000  0.84548800  0.16598400  1
  O  O16  1  0.50000000  0.95891800  0.65777900  1
  O  O17  1  0.50000000  0.93993300  0.44411100  1
  O  O18  1  0.00000000  0.99127000  0.09561000  1
  O  O19  1  0.00000000  0.00873000  0.90439000  1
  O  O20  1  0.50000000  0.06006700  0.55588900  1
  O  O21  1  0.50000000  0.04108200  0.34222100  1
  O  O22  1  0.50000000  0.15451200  0.83401600  1
  O  O23  1  0.00000000  0.11322000  0.74311000  1
  O  O24  1  0.50000000  0.14939900  0.99022200  1
  O  O25  1  0.50000000  0.13305100  0.20541100  1
  O  O26  1  0.00000000  0.18772300  0.64154900  1
  O  O27  1  0.00000000  0.20413000  0.41627000  1
  O  O28  1  0.00000000  0.29587000  0.91627000  1
  O  O29  1  0.00000000  0.31227700  0.14154900  1
  O  O30  1  0.50000000  0.36694900  0.70541100  1
  O  O31  1  0.50000000  0.35060100  0.49022200  1
  O  O32  1  0.00000000  0.38678000  0.24311000  1
  O  O33  1  0.50000000  0.34548800  0.33401600  1
  O  O34  1  0.50000000  0.45891800  0.84222100  1
  O  O35  1  0.50000000  0.43993300  0.05588900  1
loop_
_geom_bond_atom_site_label_1
_geom_bond_atom_site_label_2
_geom_bond_distance
_geom_bond_site_symmetry_2
Li0 O13 2.099509 1_556
Li0 O13 2.099509 1_456
Li0 O2 2.259087 1_455
Li0 O2 2.259087 1_555
Li0 O9 2.292566 1_556
Li1 O15 2.112957 1_555
Li1 O15 2.112957 1_455
Li1 O3 2.193350 1_555
Li1 O3 2.193350 1_455
Li1 O14 2.422021 1_555
Li1 O9 2.598520 1_555
Li2 O4 2.112957 1_555
Li2 O4 2.112957 1_455
Li2 O16 2.193350 1_455
Li2 O16 2.193350 1_555
Li2 O5 2.422021 1_555
Li2 O10 2.598520 1_555
Li3 O6 2.099509 1_455
Li3 O6 2.099509 1_555
Li3 O17 2.259087 1_555
Li3 O17 2.259087 1_455
Li3 O10 2.292566 1_555
Li4 O31 2.099509 1_455
Li4 O31 2.099509 1_555
Li4 O20 2.259087 1_455
Li4 O20 2.259087 1_555
Li4 O27 2.292566 1_555
Li5 O33 2.112957 1_455
Li5 O33 2.112957 1_555
Li5 O21 2.193350 1_455
Li5 O21 2.193350 1_555
Li5 O32 2.422021 1_555
Li5 O27 2.598520 1_555
Li6 O22 2.112957 1_455
Li6 O22 2.112957 1_555
Li6 O34 2.193350 1_455
Li6 O34 2.193350 1_555
Li6 O23 2.422021 1_555
Li6 O28 2.598520 1_555
Li7 O24 2.099509 1_454
Li7 O24 2.099509 1_554
Li7 O35 2.259087 1_555
Li7 O35 2.259087 1_455
Li7 O28 2.292566 1_554
Ni0 O6 2.037934 1_455
Ni0 O6 2.037934 1_555
Ni0 O31 2.037934 1_555
Ni0 O31 2.037934 1_455
Ni0 O0 2.348776 1_555
Ni0 O1 2.348776 1_555
Ni1 O13 2.037934 1_545
Ni1 O24 2.037934 1_554
Ni1 O13 2.037934 1_445
Ni1 O24 2.037934 1_454
Ni1 O19 2.348776 1_554
Ni1 O18 2.348776 1_545
O0 V6 1.991900 1_555
O0 V6 1.991900 1_455
O0 V0 2.191708 1_555
O1 V1 1.991900 1_555
O1 V1 1.991900 1_455
O1 V7 2.191708 1_555
O2 Ti7 1.921781 1_655
O2 Ti7 1.921781 1_555
O3 Ti6 2.068232 1_555
O3 Ti0 2.079738 1_655
O3 Ti0 2.079738 1_555
O4 V1 1.938020 1_555
O4 V7 2.074344 1_555
O4 V7 2.074344 1_655
O5 Ti1 1.964303 1_555
O5 Ti1 1.964303 1_455
O5 V7 2.027891 1_555
O6 V1 1.897436 1_555
O7 Ti2 1.910809 1_555
O7 V0 2.020630 1_655
O7 V0 2.020630 1_555
O8 Ti7 1.972755 1_555
O8 Ti1 1.978696 1_555
O8 Ti1 1.978696 1_455
O9 Ti0 1.954064 1_555
O9 V2 1.996174 1_555
O9 V2 1.996174 1_455
O10 Ti3 1.954064 1_565
O10 V1 1.996174 1_455
O10 V1 1.996174 1_555
O11 Ti4 1.972755 1_555
O11 Ti2 1.978696 1_555
O11 Ti2 1.978696 1_455
O12 Ti1 1.910809 1_555
O12 V3 2.020630 1_665
O12 V3 2.020630 1_565
O13 V2 1.897436 1_555
O14 Ti2 1.964303 1_555
O14 Ti2 1.964303 1_455
O14 V4 2.027891 1_555
O15 V2 1.938020 1_555
O15 V4 2.074344 1_655
O15 V4 2.074344 1_555
O16 Ti5 2.068232 1_565
O16 Ti3 2.079738 1_565
O16 Ti3 2.079738 1_665
O17 Ti4 1.921781 1_555
O17 Ti4 1.921781 1_655
O18 V2 1.991900 1_555
O18 V2 1.991900 1_455
O18 V4 2.191708 1_555
O19 V5 1.991900 1_455
O19 V5 1.991900 1_555
O19 V3 2.191708 1_555
O20 Ti3 1.921781 1_655
O20 Ti3 1.921781 1_555
O21 Ti2 2.068232 1_545
O21 Ti4 2.079738 1_645
O21 Ti4 2.079738 1_545
O22 V5 1.938020 1_555
O22 V3 2.074344 1_655
O22 V3 2.074344 1_555
O23 Ti5 1.964303 1_555
O23 Ti5 1.964303 1_455
O23 V3 2.027891 1_555
O24 V5 1.897436 1_555
O25 Ti6 1.910809 1_555
O25 V4 2.020630 1_545
O25 V4 2.020630 1_645
O26 Ti3 1.972755 1_555
O26 Ti5 1.978696 1_455
O26 Ti5 1.978696 1_555
O27 Ti4 1.954064 1_545
O27 V6 1.996174 1_455
O27 V6 1.996174 1_555
O28 Ti7 1.954064 1_555
O28 V5 1.996174 1_455
O28 V5 1.996174 1_555
O29 Ti0 1.972755 1_555
O29 Ti6 1.978696 1_555
O29 Ti6 1.978696 1_455
O30 Ti5 1.910809 1_555
O30 V7 2.020630 1_655
O30 V7 2.020630 1_555
O31 V6 1.897436 1_555
O32 Ti6 1.964303 1_455
O32 Ti6 1.964303 1_555
O32 V0 2.027891 1_555
O33 V6 1.938020 1_555
O33 V0 2.074344 1_555
O33 V0 2.074344 1_655
O34 Ti1 2.068232 1_555
O34 Ti7 2.079738 1_555
O34 Ti7 2.079738 1_655
O35 Ti0 1.921781 1_655
O35 Ti0 1.921781 1_555
