# generated using pymatgen
data_Li5Cr2Cu5O12
_symmetry_space_group_name_H-M   'P 1'
_cell_length_a   5.05698278
_cell_length_b   5.05698278
_cell_length_c   9.65997994
_cell_angle_alpha   88.77644776
_cell_angle_beta   88.77644776
_cell_angle_gamma   114.30168613
_symmetry_Int_Tables_number   1
_chemical_formula_structural   Li5Cr2Cu5O12
_chemical_formula_sum   'Li5 Cr2 Cu5 O12'
_cell_volume   224.97135031
_cell_formula_units_Z   1
loop_
 _symmetry_equiv_pos_site_id
 _symmetry_equiv_pos_as_xyz
  1  'x, y, z'
loop_
 _atom_site_type_symbol
 _atom_site_label
 _atom_site_symmetry_multiplicity
 _atom_site_fract_x
 _atom_site_fract_y
 _atom_site_fract_z
 _atom_site_occupancy
  Li  Li0  1  0.84006100  0.67360600  0.25369500  1
  Li  Li1  1  0.67645300  0.84598900  0.74350800  1
  Li  Li2  1  0.32639400  0.15993900  0.74630500  1
  Li  Li3  1  0.15401100  0.32354700  0.25649200  1
  Li  Li4  1  0.08440400  0.91559600  0.50000000  1
  Cr  Cr0  1  0.75288600  0.24711400  0.50000000  1
  Cr  Cr1  1  0.25254900  0.74745100  0.00000000  1
  Cu  Cu0  1  0.92134800  0.07865200  0.00000000  1
  Cu  Cu1  1  0.00054800  0.50675200  0.74895700  1
  Cu  Cu2  1  0.49324800  0.99945200  0.25104300  1
  Cu  Cu3  1  0.58336300  0.41663700  0.00000000  1
  Cu  Cu4  1  0.41501600  0.58498400  0.50000000  1
  O  O0  1  0.01094200  0.20948900  0.63432800  1
  O  O1  1  0.79051100  0.98905800  0.36567200  1
  O  O2  1  0.91843100  0.41595400  0.09673600  1
  O  O3  1  0.58404600  0.08156900  0.90326400  1
  O  O4  1  0.69498300  0.52448700  0.62338200  1
  O  O5  1  0.47551300  0.30501700  0.37661800  1
  O  O6  1  0.52692800  0.69432200  0.12862400  1
  O  O7  1  0.30567800  0.47307200  0.87137600  1
  O  O8  1  0.43104500  0.92124300  0.59668700  1
  O  O9  1  0.07875700  0.56895500  0.40331300  1
  O  O10  1  0.19374900  0.01086400  0.13393400  1
  O  O11  1  0.98913600  0.80625000  0.86606600  1
loop_
_geom_bond_atom_site_label_1
_geom_bond_atom_site_label_2
_geom_bond_distance
_geom_bond_site_symmetry_2
Li0 O1 2.041752 1_555
Li0 O6 2.047198 1_555
Li0 O9 2.096107 1_655
Li0 O2 2.153457 1_555
Li0 O10 2.182385 1_665
Li0 O5 2.294895 1_555
Li1 O8 2.034048 1_555
Li1 O4 2.049388 1_555
Li1 O11 2.067281 1_555
Li1 O3 2.127239 1_565
Li1 O0 2.152749 1_665
Li1 O7 2.342855 1_555
Li2 O0 2.041752 1_555
Li2 O7 2.047198 1_555
Li2 O8 2.096107 1_545
Li2 O3 2.153457 1_555
Li2 O11 2.182387 1_445
Li2 O4 2.294895 1_555
Li3 O9 2.034048 1_555
Li3 O5 2.049388 1_555
Li3 O10 2.067279 1_555
Li3 O2 2.127239 1_455
Li3 O1 2.152749 1_445
Li3 O6 2.342855 1_555
Li4 O8 1.993961 1_555
Li4 O9 1.993961 1_555
Li4 O0 2.132330 1_565
Li4 O1 2.132330 1_455
Li4 O5 2.409092 1_565
Li4 O4 2.409092 1_455
Cr0 O1 1.920706 1_545
Cr0 O0 1.920706 1_655
Cr0 O4 1.966806 1_555
Cr0 O5 1.966806 1_555
Cr0 O9 1.974509 1_655
Cr0 O8 1.974509 1_545
Cr1 O6 1.976727 1_555
Cr1 O7 1.976727 1_554
Cr1 O11 1.979884 1_454
Cr1 O10 1.979886 1_565
Cr1 O2 2.018077 1_455
Cr1 O3 2.018077 1_564
Cu0 O2 1.967526 1_555
Cu0 O3 1.967526 1_554
Cu0 O10 2.033436 1_655
Cu0 O11 2.033440 1_544
Cu0 O6 2.428959 1_545
Cu0 O7 2.428959 1_654
Cu1 O0 1.903239 1_555
Cu1 O11 1.928551 1_455
Cu1 O4 2.014142 1_455
Cu1 O7 2.023382 1_555
Cu2 O1 1.903239 1_555
Cu2 O10 1.928556 1_565
Cu2 O5 2.014142 1_565
Cu2 O6 2.023382 1_555
Cu3 O3 1.953624 1_554
Cu3 O2 1.953624 1_555
Cu3 O6 1.996599 1_555
Cu3 O7 1.996599 1_554
Cu3 O11 2.493308 1_554
Cu3 O10 2.493310 1_555
Cu4 O8 1.930823 1_555
Cu4 O9 1.930823 1_555
Cu4 O5 1.982826 1_555
Cu4 O4 1.982826 1_555
Cu4 O1 2.460246 1_555
Cu4 O0 2.460246 1_555
