# generated using pymatgen
data_Ba3Sn2O7
_symmetry_space_group_name_H-M   'P 1'
_cell_length_a   11.27634834
_cell_length_b   11.27634834
_cell_length_c   5.94049600
_cell_angle_alpha   90.00000000
_cell_angle_beta   90.00000000
_cell_angle_gamma   149.39540046
_symmetry_Int_Tables_number   1
_chemical_formula_structural   Ba3Sn2O7
_chemical_formula_sum   'Ba6 Sn4 O14'
_cell_volume   384.56675570
_cell_formula_units_Z   2
loop_
 _symmetry_equiv_pos_site_id
 _symmetry_equiv_pos_as_xyz
  1  'x, y, z'
loop_
 _atom_site_type_symbol
 _atom_site_label
 _atom_site_symmetry_multiplicity
 _atom_site_fract_x
 _atom_site_fract_y
 _atom_site_fract_z
 _atom_site_occupancy
  Ba  Ba0  1  0.06208800  0.43192200  0.75000000  1
  Ba  Ba1  1  0.56807800  0.93791200  0.25000000  1
  Ba  Ba2  1  0.93791200  0.56807800  0.25000000  1
  Ba  Ba3  1  0.43192200  0.06208800  0.75000000  1
  Ba  Ba4  1  0.74888700  0.74888700  0.25000000  1
  Ba  Ba5  1  0.25111300  0.25111300  0.75000000  1
  Sn  Sn0  1  0.15361500  0.34615200  0.25000000  1
  Sn  Sn1  1  0.65384800  0.84638500  0.75000000  1
  Sn  Sn2  1  0.84638500  0.65384800  0.75000000  1
  Sn  Sn3  1  0.34615200  0.15361500  0.25000000  1
  O  O0  1  0.90844600  0.09155400  0.00000000  1
  O  O1  1  0.90844600  0.09155400  0.50000000  1
  O  O2  1  0.40078500  0.59921500  0.50000000  1
  O  O3  1  0.40078500  0.59921500  0.00000000  1
  O  O4  1  0.04214000  0.42576000  0.25000000  1
  O  O5  1  0.57424000  0.95786000  0.75000000  1
  O  O6  1  0.42576000  0.04214000  0.25000000  1
  O  O7  1  0.95786000  0.57424000  0.75000000  1
  O  O8  1  0.59921500  0.40078500  0.00000000  1
  O  O9  1  0.59921500  0.40078500  0.50000000  1
  O  O10  1  0.09155400  0.90844600  0.50000000  1
  O  O11  1  0.09155400  0.90844600  0.00000000  1
  O  O12  1  0.72736900  0.72736900  0.75000000  1
  O  O13  1  0.27263100  0.27263100  0.25000000  1
loop_
_geom_bond_atom_site_label_1
_geom_bond_atom_site_label_2
_geom_bond_distance
_geom_bond_site_symmetry_2
Ba0 O7 2.683969 1_455
Ba0 O2 2.819328 1_555
Ba0 O3 2.819328 1_556
Ba0 O5 2.866531 1_445
Ba0 O0 2.914044 1_456
Ba0 O1 2.914044 1_455
Ba0 O4 2.975045 1_556
Ba0 O4 2.975045 1_555
Ba0 O5 3.092952 1_555
Ba1 O6 2.683969 1_565
Ba1 O3 2.819328 1_555
Ba1 O2 2.819328 1_555
Ba1 O4 2.866531 1_665
Ba1 O0 2.914044 1_565
Ba1 O1 2.914044 1_565
Ba1 O5 2.975045 1_555
Ba1 O5 2.975045 1_554
Ba1 O4 3.092952 1_555
Ba2 O4 2.683969 1_655
Ba2 O9 2.819328 1_555
Ba2 O8 2.819328 1_555
Ba2 O6 2.866531 1_665
Ba2 O10 2.914044 1_655
Ba2 O11 2.914044 1_655
Ba2 O7 2.975045 1_555
Ba2 O7 2.975045 1_554
Ba2 O6 3.092952 1_555
Ba3 O5 2.683969 1_545
Ba3 O8 2.819328 1_556
Ba3 O9 2.819328 1_555
Ba3 O7 2.866531 1_445
Ba3 O10 2.914044 1_545
Ba3 O11 2.914044 1_546
Ba3 O6 2.975045 1_555
Ba3 O6 2.975045 1_556
Ba3 O7 3.092952 1_555
Ba4 O13 2.834639 1_555
Ba4 O11 2.899285 1_655
Ba4 O0 2.899285 1_565
Ba4 O1 2.899285 1_565
Ba4 O10 2.899285 1_655
Ba4 O12 2.973008 1_555
Ba4 O12 2.973008 1_554
Ba4 O8 3.009650 1_555
Ba4 O9 3.009650 1_555
Ba4 O3 3.009650 1_555
Ba4 O2 3.009650 1_555
Ba4 O13 3.117283 1_665
Ba5 O12 2.834639 1_555
Ba5 O10 2.899285 1_545
Ba5 O0 2.899285 1_456
Ba5 O11 2.899285 1_546
Ba5 O1 2.899285 1_455
Ba5 O13 2.973008 1_556
Ba5 O13 2.973008 1_555
Ba5 O3 3.009650 1_556
Ba5 O9 3.009650 1_555
Ba5 O8 3.009650 1_556
Ba5 O2 3.009650 1_555
Ba5 O12 3.117283 1_445
O0 Sn0 2.104313 1_655
O0 Sn1 2.104313 1_544
O1 Sn0 2.104313 1_655
O1 Sn1 2.104313 1_545
O2 Sn1 2.103771 1_555
O2 Sn0 2.103771 1_555
O3 Sn1 2.103771 1_554
O3 Sn0 2.103771 1_555
O4 Sn0 2.080489 1_555
O5 Sn1 2.080489 1_555
O6 Sn3 2.080489 1_555
O7 Sn2 2.080489 1_555
O8 Sn3 2.103771 1_555
O8 Sn2 2.103771 1_554
O9 Sn3 2.103771 1_555
O9 Sn2 2.103771 1_555
O10 Sn3 2.104313 1_565
O10 Sn2 2.104313 1_455
O11 Sn3 2.104313 1_565
O11 Sn2 2.104313 1_454
O12 Sn1 2.098514 1_555
O12 Sn2 2.098514 1_555
O13 Sn3 2.098514 1_555
O13 Sn0 2.098514 1_555
