# generated using pymatgen
data_LiV2OF5
_symmetry_space_group_name_H-M   'P 1'
_cell_length_a   4.58043600
_cell_length_b   8.69820855
_cell_length_c   8.74423767
_cell_angle_alpha   119.79615603
_cell_angle_beta   89.90917054
_cell_angle_gamma   90.65047477
_symmetry_Int_Tables_number   1
_chemical_formula_structural   LiV2OF5
_chemical_formula_sum   'Li3 V6 O3 F15'
_cell_volume   302.30469876
_cell_formula_units_Z   3
loop_
 _symmetry_equiv_pos_site_id
 _symmetry_equiv_pos_as_xyz
  1  'x, y, z'
loop_
 _atom_site_type_symbol
 _atom_site_label
 _atom_site_symmetry_multiplicity
 _atom_site_fract_x
 _atom_site_fract_y
 _atom_site_fract_z
 _atom_site_occupancy
  Li  Li0  1  0.51669400  0.33571300  0.66885400  1
  Li  Li1  1  0.00440400  0.99975000  0.99947900  1
  Li  Li2  1  0.49167200  0.66837200  0.33331300  1
  V  V0  1  0.98282700  0.63924600  0.99352400  1
  V  V1  1  0.51422900  0.32677900  0.99637900  1
  V  V2  1  0.01618400  0.99166700  0.65671000  1
  V  V3  1  0.48001900  0.69276800  0.68485200  1
  V  V4  1  0.51580700  0.00649700  0.31326200  1
  V  V5  1  0.98547900  0.33431400  0.34185200  1
  O  O0  1  0.74288700  0.44121200  0.90549800  1
  O  O1  1  0.23465300  0.88367400  0.75543000  1
  O  O2  1  0.76479300  0.12670000  0.24130400  1
  F  F0  1  0.75496300  0.77198200  0.88841200  1
  F  F1  1  0.25709500  0.56133500  0.79066700  1
  F  F2  1  0.73559800  0.46502500  0.56659500  1
  F  F3  1  0.26530700  0.21617400  0.77410200  1
  F  F4  1  0.76530300  0.10571100  0.88101500  1
  F  F5  1  0.26572100  0.23039100  0.44591600  1
  F  F6  1  0.74091700  0.10074800  0.54520700  1
  F  F7  1  0.73434300  0.78228000  0.55051500  1
  F  F8  1  0.26415400  0.89687400  0.43264900  1
  F  F9  1  0.25943800  0.55500300  0.45320600  1
  F  F10  1  0.74558600  0.77523300  0.21386700  1
  F  F11  1  0.23561600  0.87769500  0.10921300  1
  F  F12  1  0.73267000  0.44253400  0.22931700  1
  F  F13  1  0.25593300  0.54462500  0.11378600  1
  F  F14  1  0.23770600  0.22779700  0.11517300  1
loop_
_geom_bond_atom_site_label_1
_geom_bond_atom_site_label_2
_geom_bond_distance
_geom_bond_site_symmetry_2
Li0 O0 2.072546 1_555
Li1 O1 2.135750 1_555
Li1 O2 2.143571 1_466
O0 V0 1.846479 1_555
O0 V1 1.865216 1_555
O1 V3 1.850155 1_555
O1 V2 1.859800 1_555
O2 V4 1.847761 1_555
O2 V5 1.854561 1_555
F0 V3 1.999398 1_555
F0 Li1 2.052699 1_655
F0 V0 2.086193 1_555
F1 V0 2.000379 1_455
F1 V3 2.056089 1_555
F1 Li0 2.090785 1_555
F2 Li0 2.010261 1_555
F2 V5 2.065569 1_555
F2 V3 2.092115 1_555
F3 V1 2.031515 1_555
F3 V2 2.032285 1_545
F3 Li0 2.043146 1_555
F4 Li1 2.024183 1_645
F4 V1 2.038737 1_555
F4 V2 2.058311 1_645
F5 V5 2.034792 1_455
F5 Li0 2.041894 1_555
F5 V4 2.061972 1_555
F6 V4 2.045422 1_555
F6 Li0 2.061276 1_555
F6 V2 2.095485 1_645
F7 Li2 1.983915 1_555
F7 V2 2.028685 1_655
F7 V3 2.055995 1_555
F8 Li2 2.029607 1_555
F8 V2 2.053598 1_555
F8 V4 2.070803 1_565
F9 V3 2.031356 1_555
F9 Li2 2.050146 1_555
F9 V5 2.073452 1_455
F10 V0 2.012422 1_554
F10 V4 2.053585 1_565
F10 Li2 2.060090 1_555
F11 V4 2.018367 1_565
F11 Li1 2.051975 1_554
F11 V0 2.128338 1_454
F12 V1 2.027091 1_554
F12 V5 2.035743 1_555
F12 Li2 2.043288 1_555
F13 Li2 1.983960 1_555
F13 V1 2.039109 1_554
F13 V0 2.058110 1_454
F14 Li1 2.015201 1_544
F14 V1 2.069891 1_554
F14 V5 2.076999 1_455
