# generated using pymatgen
data_MgCr7(SO4)12
_symmetry_space_group_name_H-M   'P 1'
_cell_length_a   8.29758637
_cell_length_b   8.85046864
_cell_length_c   14.70612217
_cell_angle_alpha   85.80567770
_cell_angle_beta   73.64259472
_cell_angle_gamma   117.97917787
_symmetry_Int_Tables_number   1
_chemical_formula_structural   MgCr7(SO4)12
_chemical_formula_sum   'Mg1 Cr7 S12 O48'
_cell_volume   887.89082340
_cell_formula_units_Z   1
loop_
 _symmetry_equiv_pos_site_id
 _symmetry_equiv_pos_as_xyz
  1  'x, y, z'
loop_
 _atom_site_type_symbol
 _atom_site_label
 _atom_site_symmetry_multiplicity
 _atom_site_fract_x
 _atom_site_fract_y
 _atom_site_fract_z
 _atom_site_occupancy
  Mg  Mg0  1  0.35766300  0.39285900  0.67816000  1
  Cr  Cr0  1  0.15273200  0.37629200  0.07505300  1
  Cr  Cr1  1  0.35422200  0.88941500  0.17817800  1
  Cr  Cr2  1  0.15007100  0.87810100  0.57477500  1
  Cr  Cr3  1  0.64341300  0.60846400  0.32320400  1
  Cr  Cr4  1  0.84872400  0.12237400  0.42449300  1
  Cr  Cr5  1  0.64515600  0.11088800  0.82026400  1
  Cr  Cr6  1  0.84845900  0.62332600  0.92438500  1
  S  S0  1  0.04122900  0.02123400  0.23153500  1
  S  S1  1  0.04072000  0.52358800  0.72976100  1
  S  S2  1  0.46170900  0.87602100  0.37401400  1
  S  S3  1  0.53822600  0.62158500  0.12605200  1
  S  S4  1  0.25176900  0.27120100  0.47809200  1
  S  S5  1  0.25147800  0.76887900  0.97913000  1
  S  S6  1  0.74893900  0.23162600  0.01976400  1
  S  S7  1  0.75021000  0.73211700  0.52050000  1
  S  S8  1  0.46087400  0.37780500  0.87546900  1
  S  S9  1  0.53939000  0.12197900  0.62518900  1
  S  S10  1  0.95835600  0.47834500  0.26867400  1
  S  S11  1  0.95682900  0.97859900  0.76948000  1
  O  O0  1  0.29741700  0.86698600  0.05440400  1
  O  O1  1  0.10744000  0.66411300  0.25760100  1
  O  O2  1  0.01345100  0.13155900  0.16358300  1
  O  O3  1  0.00936600  0.63376400  0.66324600  1
  O  O4  1  0.37844300  0.92446300  0.30789600  1
  O  O5  1  0.02657400  0.07106800  0.32664300  1
  O  O6  1  0.01941300  0.56780800  0.82738400  1
  O  O7  1  0.32614500  0.81850100  0.47645500  1
  O  O8  1  0.34811000  0.45937100  0.14196800  1
  O  O9  1  0.34644800  0.95929600  0.64016800  1
  O  O10  1  0.04564500  0.21198100  0.48934900  1
  O  O11  1  0.04614200  0.71039300  0.99190900  1
  O  O12  1  0.50997100  0.76916600  0.14943600  1
  O  O13  1  0.48511600  0.72585500  0.35038800  1
  O  O14  1  0.23945900  0.04651600  0.18912700  1
  O  O15  1  0.23469000  0.54763400  0.68982400  1
  O  O16  1  0.67314700  0.68078900  0.02343000  1
  O  O17  1  0.38414600  0.38234400  0.37754000  1
  O  O18  1  0.38232200  0.88672100  0.88072600  1
  O  O19  1  0.29661800  0.36682500  0.55249500  1
  O  O20  1  0.10645600  0.15955300  0.75798700  1
  O  O21  1  0.62552900  0.57802500  0.19099800  1
  O  O22  1  0.28099800  0.11566900  0.48725200  1
  O  O23  1  0.28500000  0.61784400  0.98715300  1
  O  O24  1  0.71620400  0.38305700  0.01191600  1
  O  O25  1  0.71687100  0.88407700  0.50931400  1
  O  O26  1  0.37896000  0.42650300  0.81150700  1
  O  O27  1  0.89170100  0.83518800  0.24471700  1
  O  O28  1  0.70238000  0.63334900  0.44481300  1
  O  O29  1  0.61692800  0.11383900  0.11808500  1
  O  O30  1  0.62287500  0.62047200  0.61800400  1
  O  O31  1  0.32721100  0.31422100  0.97971200  1
  O  O32  1  0.76008700  0.45285400  0.30966000  1
  O  O33  1  0.75647500  0.95079900  0.81067600  1
  O  O34  1  0.51422200  0.26908400  0.64740700  1
  O  O35  1  0.49023300  0.23036000  0.85124500  1
  O  O36  1  0.95990500  0.79457100  0.50337700  1
  O  O37  1  0.95405800  0.28928100  0.00770000  1
  O  O38  1  0.65449300  0.03535700  0.35747900  1
  O  O39  1  0.65343300  0.53762600  0.86072900  1
  O  O40  1  0.67431100  0.17699100  0.52222500  1
  O  O41  1  0.97773200  0.43203800  0.17206300  1
  O  O42  1  0.97222400  0.92832800  0.67363600  1
  O  O43  1  0.62118400  0.06908300  0.69120400  1
  O  O44  1  0.98347400  0.36602700  0.33625400  1
  O  O45  1  0.97954700  0.86251000  0.83676800  1
  O  O46  1  0.88771000  0.33784600  0.74269600  1
  O  O47  1  0.70356400  0.13435100  0.94410900  1
loop_
_geom_bond_atom_site_label_1
_geom_bond_atom_site_label_2
_geom_bond_distance
_geom_bond_site_symmetry_2
Mg0 O30 2.041240 1_555
Mg0 O34 2.041807 1_555
Mg0 O15 2.048006 1_555
Mg0 O26 2.048588 1_555
Mg0 O19 2.050600 1_555
Mg0 O20 2.053108 1_555
Cr0 O41 1.998900 1_455
Cr0 O8 2.005778 1_555
Cr0 O23 2.010230 1_554
Cr0 O31 2.019715 1_554
Cr0 O2 2.028160 1_555
Cr0 O37 2.032695 1_455
Cr1 O1 2.003588 1_555
Cr1 O4 2.004930 1_555
Cr1 O0 2.005777 1_555
Cr1 O12 2.007512 1_555
Cr1 O14 2.013630 1_565
Cr1 O29 2.018284 1_565
Cr2 O22 1.982683 1_565
Cr2 O9 1.995337 1_555
Cr2 O42 1.997656 1_455
Cr2 O36 2.022630 1_455
Cr2 O3 2.023889 1_555
Cr2 O7 2.036712 1_555
Cr3 O28 1.983845 1_555
Cr3 O13 2.002489 1_555
Cr3 O17 2.007432 1_555
Cr3 O27 2.011471 1_555
Cr3 O32 2.014004 1_555
Cr3 O21 2.018978 1_555
Cr4 O25 1.970388 1_545
Cr4 O40 1.995051 1_555
Cr4 O10 1.995260 1_655
Cr4 O5 1.995718 1_655
Cr4 O38 2.000700 1_555
Cr4 O44 2.023704 1_555
Cr5 O46 1.991251 1_555
Cr5 O35 1.998521 1_555
Cr5 O43 2.006258 1_555
Cr5 O47 2.013238 1_555
Cr5 O33 2.016038 1_545
Cr5 O18 2.018141 1_545
Cr6 O39 1.968709 1_555
Cr6 O6 1.976180 1_655
Cr6 O45 1.993910 1_555
Cr6 O24 1.999386 1_556
Cr6 O16 2.026172 1_556
Cr6 O11 2.028257 1_655
O0 S5 1.480667 1_554
O1 S10 1.482889 1_455
O2 S0 1.484363 1_555
O3 S1 1.489028 1_555
O4 S2 1.483901 1_555
O5 S0 1.486727 1_555
O6 S1 1.499894 1_555
O7 S2 1.479878 1_555
O8 S3 1.490732 1_555
O9 S9 1.508894 1_565
O10 S4 1.487970 1_555
O11 S5 1.477860 1_555
O12 S3 1.478820 1_555
O13 S2 1.482068 1_555
O14 S0 1.483557 1_555
O15 S1 1.452087 1_555
O16 S3 1.479102 1_555
O17 S4 1.489731 1_555
O18 S5 1.480708 1_555
O19 S4 1.456455 1_555
O20 S11 1.453069 1_445
O21 S3 1.477669 1_555
O22 S4 1.508753 1_555
O23 S5 1.490780 1_555
O24 S6 1.489945 1_555
O25 S7 1.501583 1_555
O26 S8 1.451967 1_555
O27 S0 1.479580 1_665
O28 S7 1.492034 1_555
O29 S6 1.480960 1_555
O30 S7 1.452100 1_555
O31 S8 1.492441 1_555
O32 S10 1.481233 1_555
O33 S11 1.489439 1_555
O34 S9 1.457515 1_555
O35 S8 1.485454 1_555
O36 S7 1.492260 1_555
O37 S6 1.480005 1_555
O38 S2 1.490220 1_545
O39 S8 1.496705 1_555
O40 S9 1.486296 1_555
O41 S10 1.493571 1_555
O42 S11 1.498196 1_555
O43 S9 1.491665 1_555
O44 S10 1.478472 1_555
O45 S11 1.486083 1_555
O46 S1 1.486741 1_655
O47 S6 1.480787 1_556
