# generated using pymatgen
data_Cr7Ni20Mo3
_symmetry_space_group_name_H-M   'P 1'
_cell_length_a   6.23265400
_cell_length_b   11.64311820
_cell_length_c   15.27450417
_cell_angle_alpha   70.29754491
_cell_angle_beta   89.50201629
_cell_angle_gamma   89.58041706
_symmetry_Int_Tables_number   1
_chemical_formula_structural   Cr7Ni20Mo3
_chemical_formula_sum   'Cr21 Ni60 Mo9'
_cell_volume   1043.49023029
_cell_formula_units_Z   3
loop_
 _symmetry_equiv_pos_site_id
 _symmetry_equiv_pos_as_xyz
  1  'x, y, z'
loop_
 _atom_site_type_symbol
 _atom_site_label
 _atom_site_symmetry_multiplicity
 _atom_site_fract_x
 _atom_site_fract_y
 _atom_site_fract_z
 _atom_site_occupancy
  Cr  Cr0  1  0.33551500  0.93154600  0.43336500  1
  Cr  Cr1  1  0.00571700  0.79768000  0.29725900  1
  Cr  Cr2  1  0.33432100  0.73347200  0.23312300  1
  Cr  Cr3  1  0.99955400  0.60125100  0.09912200  1
  Cr  Cr4  1  0.66889000  0.66726800  0.16577500  1
  Cr  Cr5  1  0.33245800  0.53434600  0.03194000  1
  Cr  Cr6  1  0.99983500  0.79885900  0.80181900  1
  Cr  Cr7  1  0.67285100  0.86403700  0.86631600  1
  Cr  Cr8  1  0.33609200  0.73107200  0.73371600  1
  Cr  Cr9  1  0.65870900  0.66679800  0.66992700  1
  Cr  Cr10  1  0.33842400  0.53224100  0.53247200  1
  Cr  Cr11  1  0.99204300  0.40366500  0.40088700  1
  Cr  Cr12  1  0.66530100  0.46795300  0.46677600  1
  Cr  Cr13  1  0.34080400  0.13191000  0.13054000  1
  Cr  Cr14  1  0.99651300  0.00021100  0.00113600  1
  Cr  Cr15  1  0.66727000  0.06649300  0.06540600  1
  Cr  Cr16  1  0.99949000  0.40044700  0.90047500  1
  Cr  Cr17  1  0.66494400  0.46774000  0.96575200  1
  Cr  Cr18  1  0.33386600  0.33372600  0.83384700  1
  Cr  Cr19  1  0.66009400  0.26887900  0.76916600  1
  Cr  Cr20  1  0.33153600  0.13354900  0.63429400  1
  Ni  Ni0  1  0.32981900  0.73135600  0.40070300  1
  Ni  Ni1  1  0.00319200  0.60013600  0.26621800  1
  Ni  Ni2  1  0.66702800  0.66480400  0.33292700  1
  Ni  Ni3  1  0.33599600  0.53578200  0.19861400  1
  Ni  Ni4  1  0.99808000  0.40263700  0.06449400  1
  Ni  Ni5  1  0.66631500  0.46995800  0.13094600  1
  Ni  Ni6  1  0.33145500  0.33326300  0.99936600  1
  Ni  Ni7  1  0.33212400  0.73126500  0.89870400  1
  Ni  Ni8  1  0.00041500  0.60025800  0.76948300  1
  Ni  Ni9  1  0.66621600  0.66582900  0.83404400  1
  Ni  Ni10  1  0.33605900  0.53318800  0.70131800  1
  Ni  Ni11  1  0.99862600  0.40165600  0.56461700  1
  Ni  Ni12  1  0.66382300  0.46576300  0.63467300  1
  Ni  Ni13  1  0.33353000  0.33428700  0.50239700  1
  Ni  Ni14  1  0.99832900  0.20051700  0.36749900  1
  Ni  Ni15  1  0.67007000  0.27040200  0.43507300  1
  Ni  Ni16  1  0.33370400  0.12834500  0.30121700  1
  Ni  Ni17  1  0.99878600  0.99690200  0.16495300  1
  Ni  Ni18  1  0.66381500  0.06513600  0.23004200  1
  Ni  Ni19  1  0.33428900  0.93300500  0.10141700  1
  Ni  Ni20  1  0.99752700  0.79780200  0.96745100  1
  Ni  Ni21  1  0.67082200  0.86593500  0.03393600  1
  Ni  Ni22  1  0.00182300  0.19889900  0.86868900  1
  Ni  Ni23  1  0.66699000  0.26674400  0.93278000  1
  Ni  Ni24  1  0.33574000  0.13506600  0.80003000  1
  Ni  Ni25  1  0.00238300  0.99686200  0.66992000  1
  Ni  Ni26  1  0.66193700  0.06484300  0.73710100  1
  Ni  Ni27  1  0.33481300  0.92922800  0.60220000  1
  Ni  Ni28  1  0.00356700  0.79770800  0.46555700  1
  Ni  Ni29  1  0.66629100  0.86147000  0.53639300  1
  Ni  Ni30  1  0.33561600  0.73386500  0.56677100  1
  Ni  Ni31  1  0.99766500  0.60006300  0.43107900  1
  Ni  Ni32  1  0.66264800  0.66345000  0.50093300  1
  Ni  Ni33  1  0.33321600  0.53619300  0.36765900  1
  Ni  Ni34  1  0.99906600  0.40606300  0.23094600  1
  Ni  Ni35  1  0.66960300  0.47144500  0.29974900  1
  Ni  Ni36  1  0.33329200  0.33667200  0.16255600  1
  Ni  Ni37  1  0.33459900  0.73209500  0.06718900  1
  Ni  Ni38  1  0.99918300  0.60141500  0.93289300  1
  Ni  Ni39  1  0.66519800  0.66837700  0.99857300  1
  Ni  Ni40  1  0.33312900  0.53348500  0.86591200  1
  Ni  Ni41  1  0.99988200  0.40002900  0.73591500  1
  Ni  Ni42  1  0.66732700  0.46796600  0.79986600  1
  Ni  Ni43  1  0.33333200  0.33648200  0.66669600  1
  Ni  Ni44  1  0.00378400  0.20348600  0.53196000  1
  Ni  Ni45  1  0.66257500  0.27056700  0.60073000  1
  Ni  Ni46  1  0.33524200  0.13323300  0.46710100  1
  Ni  Ni47  1  0.00183900  0.99811400  0.33151400  1
  Ni  Ni48  1  0.66443700  0.06636800  0.39977600  1
  Ni  Ni49  1  0.32973800  0.93303100  0.26516400  1
  Ni  Ni50  1  0.00302200  0.79969800  0.13227800  1
  Ni  Ni51  1  0.66766000  0.86599600  0.19739900  1
  Ni  Ni52  1  0.99903700  0.19995700  0.03107600  1
  Ni  Ni53  1  0.66334500  0.26822400  0.09551200  1
  Ni  Ni54  1  0.33424300  0.13542400  0.96688300  1
  Ni  Ni55  1  0.99678000  0.99758900  0.83484100  1
  Ni  Ni56  1  0.67059800  0.06843200  0.90062300  1
  Ni  Ni57  1  0.33258300  0.93236500  0.76527300  1
  Ni  Ni58  1  0.99982400  0.79808800  0.63696900  1
  Ni  Ni59  1  0.66751200  0.86326500  0.70320600  1
  Mo  Mo0  1  0.66488400  0.86546900  0.36632600  1
  Mo  Mo1  1  0.33521600  0.93267600  0.93336700  1
  Mo  Mo2  1  0.00023000  0.59933800  0.60085700  1
  Mo  Mo3  1  0.32443500  0.33662600  0.33459500  1
  Mo  Mo4  1  0.00798700  0.19912300  0.19682100  1
  Mo  Mo5  1  0.66570900  0.26827900  0.26519800  1
  Mo  Mo6  1  0.99850900  0.20029500  0.70074300  1
  Mo  Mo7  1  0.00768100  0.99679400  0.49924600  1
  Mo  Mo8  1  0.66158200  0.06777500  0.56992700  1
loop_
_geom_bond_atom_site_label_1
_geom_bond_atom_site_label_2
_geom_bond_distance
_geom_bond_site_symmetry_2
Cr0 Ni16 2.491226 1_565
Cr0 Mo7 2.494340 1_555
Cr0 Ni30 2.507464 1_555
Cr0 Mo0 2.515178 1_555
Cr0 Ni48 2.532959 1_565
Cr0 Ni28 2.542314 1_555
Cr0 Ni0 2.543334 1_555
Cr0 Ni29 2.560954 1_555
Cr0 Ni47 2.562363 1_555
Cr0 Ni49 2.563974 1_555
Cr0 Ni46 2.568214 1_565
Cr0 Ni27 2.569864 1_555
Cr1 Cr2 2.479860 1_555
Cr1 Ni1 2.500230 1_555
Cr1 Ni31 2.510656 1_455
Cr1 Ni17 2.511103 1_455
Cr1 Ni49 2.512115 1_555
Cr1 Ni50 2.512381 1_555
Cr1 Ni0 2.526516 1_555
Cr1 Ni47 2.557864 1_555
Cr1 Ni2 2.570186 1_455
Cr1 Ni28 2.570697 1_555
Cr1 Ni51 2.571368 1_455
Cr1 Mo0 2.597394 1_455
Cr2 Ni19 2.508585 1_555
Cr2 Ni33 2.513210 1_555
Cr2 Ni3 2.528541 1_555
Cr2 Ni49 2.530704 1_555
Cr2 Ni1 2.534678 1_555
Cr2 Ni37 2.539995 1_555
Cr2 Ni51 2.540567 1_555
Cr2 Ni50 2.542060 1_555
Cr2 Ni2 2.544023 1_555
Cr2 Cr4 2.544507 1_555
Cr2 Ni0 2.551412 1_555
Cr3 Ni34 2.476614 1_555
Cr3 Ni20 2.485725 1_554
Cr3 Cr4 2.518466 1_555
Cr3 Ni50 2.526950 1_655
Cr3 Ni5 2.532742 1_555
Cr3 Cr5 2.538358 1_655
Cr3 Ni38 2.538444 1_554
Cr3 Ni37 2.539148 1_655
Cr3 Ni4 2.540189 1_555
Cr3 Ni1 2.548259 1_655
Cr3 Ni39 2.556324 1_554
Cr3 Ni3 2.557051 1_655
Cr4 Ni35 2.498021 1_555
Cr4 Ni21 2.503012 1_555
Cr4 Ni51 2.518016 1_555
Cr4 Ni5 2.526981 1_555
Cr4 Ni3 2.531953 1_555
Cr4 Ni37 2.538401 1_555
Cr4 Ni2 2.543562 1_555
Cr4 Ni50 2.544156 1_655
Cr4 Ni39 2.549907 1_554
Cr4 Ni1 2.555238 1_655
Cr5 Ni36 2.486245 1_555
Cr5 Ni7 2.500450 1_554
Cr5 Ni37 2.535273 1_555
Cr5 Ni5 2.538933 1_555
Cr5 Ni38 2.539218 1_454
Cr5 Ni40 2.539360 1_554
Cr5 Ni4 2.541032 1_455
Cr5 Ni39 2.547283 1_554
Cr5 Ni3 2.551836 1_555
Cr5 Ni6 2.552388 1_554
Cr6 Cr7 2.479179 1_555
Cr6 Ni38 2.487930 1_555
Cr6 Ni25 2.498445 1_655
Cr6 Ni7 2.518474 1_655
Cr6 Ni58 2.521043 1_555
Cr6 Ni8 2.522061 1_655
Cr6 Ni20 2.525740 1_555
Cr6 Ni59 2.528069 1_555
Cr6 Ni55 2.528782 1_555
Cr6 Ni57 2.543805 1_655
Cr6 Ni9 2.545636 1_555
Cr6 Cr8 2.566855 1_655
Cr7 Ni39 2.483923 1_555
Cr7 Ni59 2.494981 1_555
Cr7 Ni55 2.500038 1_555
Cr7 Ni26 2.500990 1_565
Cr7 Ni20 2.510823 1_555
Cr7 Ni9 2.517785 1_555
Cr7 Ni21 2.567768 1_556
Cr7 Mo1 2.570162 1_555
Cr7 Ni7 2.580400 1_555
Cr7 Ni57 2.591697 1_555
Cr7 Ni56 2.603549 1_565
Cr8 Cr9 2.447056 1_555
Cr8 Ni27 2.496683 1_555
Cr8 Ni40 2.497568 1_555
Cr8 Ni10 2.514365 1_555
Cr8 Ni7 2.520775 1_555
Cr8 Ni59 2.529650 1_555
Cr8 Ni9 2.531003 1_555
Cr8 Ni58 2.537238 1_455
Cr8 Ni30 2.539251 1_555
Cr8 Ni8 2.541874 1_555
Cr8 Ni57 2.546848 1_555
Cr9 Ni29 2.486479 1_555
Cr9 Ni42 2.490661 1_555
Cr9 Ni10 2.493995 1_555
Cr9 Ni9 2.503868 1_555
Cr9 Ni59 2.506063 1_555
Cr9 Ni30 2.519932 1_555
Cr9 Ni12 2.572590 1_555
Cr9 Ni58 2.573002 1_555
Cr9 Ni8 2.585765 1_655
Cr9 Ni32 2.594602 1_555
Cr9 Mo2 2.599239 1_655
Cr10 Cr12 2.483234 1_555
Cr10 Ni32 2.486259 1_555
Cr10 Ni13 2.497849 1_555
Cr10 Ni43 2.499684 1_555
Cr10 Ni33 2.502789 1_555
Cr10 Ni0 2.506453 1_555
Cr10 Ni12 2.523202 1_555
Cr10 Ni11 2.561978 1_455
Cr10 Ni30 2.571807 1_555
Cr10 Mo2 2.575311 1_555
Cr10 Ni10 2.582691 1_555
Cr10 Ni31 2.596303 1_455
Cr11 Ni31 2.480995 1_555
Cr11 Cr12 2.484020 1_555
Cr11 Ni15 2.487617 1_555
Cr11 Ni11 2.493798 1_555
Cr11 Ni35 2.501345 1_555
Cr11 Ni1 2.509181 1_655
Cr11 Ni44 2.509898 1_655
Cr11 Mo3 2.529665 1_655
Cr11 Ni33 2.580976 1_655
Cr11 Ni14 2.582206 1_555
Cr11 Ni34 2.586477 1_555
Cr11 Ni13 2.602737 1_655
Cr12 Ni32 2.500715 1_555
Cr12 Ni2 2.504700 1_555
Cr12 Ni15 2.505125 1_555
Cr12 Ni45 2.509534 1_555
Cr12 Ni11 2.529415 1_555
Cr12 Ni31 2.532974 1_555
Cr12 Ni33 2.535078 1_555
Cr12 Ni35 2.537747 1_555
Cr12 Ni13 2.539794 1_555
Cr12 Ni12 2.555997 1_555
Cr13 Cr15 2.482577 1_555
Cr13 Ni54 2.486973 1_554
Cr13 Ni18 2.490168 1_555
Cr13 Ni19 2.501824 1_545
Cr13 Ni53 2.510364 1_555
Cr13 Ni6 2.519286 1_554
Cr13 Ni49 2.526729 1_545
Cr13 Mo4 2.532623 1_555
Cr13 Ni52 2.587120 1_455
Cr13 Ni36 2.590214 1_555
Cr13 Ni16 2.593303 1_555
Cr13 Ni17 2.600720 1_445
Cr14 Ni17 2.489661 1_545
Cr14 Cr15 2.494563 1_555
Cr14 Ni22 2.507946 1_654
Cr14 Ni50 2.512232 1_645
Cr14 Ni21 2.513253 1_545
Cr14 Ni56 2.514475 1_554
Cr14 Ni52 2.517123 1_555
Cr14 Ni55 2.550514 1_544
Cr14 Ni19 2.571833 1_645
Cr14 Mo1 2.575409 1_644
Cr14 Ni20 2.576042 1_544
Cr14 Ni54 2.580117 1_654
Cr15 Ni18 2.509357 1_555
Cr15 Ni56 2.509364 1_554
Cr15 Ni51 2.518097 1_545
Cr15 Ni23 2.520956 1_554
Cr15 Ni54 2.536263 1_554
Cr15 Ni17 2.537162 1_545
Cr15 Ni21 2.537764 1_545
Cr15 Ni52 2.538548 1_555
Cr15 Ni53 2.540878 1_555
Cr15 Ni19 2.544840 1_545
Cr16 Ni8 2.505400 1_655
Cr16 Ni52 2.507733 1_556
Cr16 Ni4 2.513959 1_556
Cr16 Ni41 2.515197 1_555
Cr16 Ni6 2.531464 1_655
Cr16 Cr17 2.534244 1_555
Cr16 Cr18 2.540664 1_655
Cr16 Ni23 2.544221 1_555
Cr16 Ni40 2.545366 1_655
Cr16 Ni42 2.546068 1_555
Cr16 Ni38 2.549796 1_555
Cr16 Ni22 2.551526 1_655
Cr17 Ni53 2.494050 1_556
Cr17 Ni9 2.497618 1_555
Cr17 Cr5 2.527152 1_556
Cr17 Ni5 2.532169 1_556
Cr17 Ni42 2.532855 1_555
Cr17 Ni4 2.533965 1_556
Cr17 Ni40 2.536357 1_555
Cr17 Ni39 2.549143 1_555
Cr17 Ni38 2.552758 1_555
Cr17 Ni6 2.553909 1_555
Cr17 Ni23 2.554328 1_555
Cr18 Cr19 2.475051 1_555
Cr18 Ni54 2.509299 1_555
Cr18 Ni10 2.514259 1_555
Cr18 Ni6 2.526323 1_555
Cr18 Ni40 2.533223 1_555
Cr18 Ni41 2.533496 1_455
Cr18 Ni24 2.534189 1_555
Cr18 Ni23 2.537475 1_555
Cr18 Ni43 2.542541 1_555
Cr18 Ni22 2.548630 1_555
Cr18 Ni42 2.552183 1_555
Cr19 Ni23 2.491594 1_555
Cr19 Ni24 2.504145 1_555
Cr19 Ni12 2.510032 1_555
Cr19 Ni56 2.514588 1_555
Cr19 Ni42 2.515915 1_555
Cr19 Ni43 2.533435 1_555
Cr19 Ni41 2.565229 1_555
Cr19 Ni45 2.566130 1_555
Cr19 Ni26 2.582168 1_555
Cr19 Mo6 2.584281 1_555
Cr19 Ni22 2.589762 1_655
Cr20 Mo8 2.496810 1_555
Cr20 Ni57 2.515877 1_545
Cr20 Ni13 2.519255 1_555
Cr20 Mo6 2.532587 1_455
Cr20 Ni24 2.537908 1_555
Cr20 Ni44 2.540109 1_555
Cr20 Ni25 2.545975 1_545
Cr20 Ni46 2.554936 1_555
Cr20 Ni26 2.555687 1_555
Cr20 Ni45 2.557973 1_555
Cr20 Ni43 2.572303 1_555
Cr20 Ni27 2.585635 1_545
Ni0 Ni28 2.484132 1_555
Ni0 Ni33 2.488174 1_555
Ni0 Ni31 2.527692 1_455
Ni0 Ni32 2.546988 1_555
Ni0 Ni30 2.547176 1_555
Ni0 Ni49 2.553814 1_555
Ni0 Ni2 2.562918 1_555
Ni1 Ni34 2.493739 1_455
Ni1 Ni31 2.517820 1_455
Ni1 Ni35 2.517921 1_455
Ni1 Ni50 2.525690 1_555
Ni1 Ni3 2.528230 1_555
Ni1 Ni33 2.537952 1_555
Ni1 Ni2 2.540097 1_455
Ni2 Ni35 2.468613 1_555
Ni2 Ni31 2.516248 1_555
Ni2 Ni33 2.518565 1_555
Ni2 Ni51 2.550101 1_555
Ni2 Ni32 2.560845 1_555
Ni3 Ni37 2.482038 1_555
Ni3 Ni5 2.523532 1_555
Ni3 Ni34 2.541724 1_455
Ni3 Ni35 2.554129 1_555
Ni3 Ni36 2.557269 1_555
Ni3 Ni33 2.583603 1_555
Ni4 Ni5 2.529146 1_555
Ni4 Ni6 2.537840 1_654
Ni4 Ni53 2.560652 1_555
Ni4 Ni52 2.577074 1_555
Ni5 Ni53 2.582284 1_555
Ni7 Ni9 2.517972 1_555
Ni8 Ni9 2.518458 1_455
Ni10 Ni12 2.510964 1_555
Ni10 Ni40 2.515167 1_555
Ni10 Ni43 2.518468 1_555
Ni10 Ni42 2.523038 1_555
Ni10 Ni30 2.538725 1_555
Ni10 Ni41 2.559108 1_455
Ni10 Ni8 2.560583 1_555
Ni11 Ni13 2.513892 1_655
Ni11 Ni31 2.513935 1_555
Ni11 Ni44 2.519572 1_655
Ni11 Ni45 2.545538 1_555
Ni11 Ni12 2.556062 1_555
Ni11 Ni43 2.567949 1_655
Ni11 Ni41 2.610246 1_555
Ni12 Ni45 2.495758 1_555
Ni12 Ni43 2.505866 1_555
Ni12 Ni32 2.510093 1_555
Ni12 Ni42 2.532289 1_555
Ni12 Ni41 2.568864 1_555
Ni13 Ni45 2.508418 1_555
Ni13 Ni44 2.512580 1_555
Ni13 Ni43 2.518306 1_555
Ni13 Ni15 2.542798 1_555
Ni13 Ni33 2.549458 1_555
Ni13 Ni46 2.573142 1_555
Ni14 Ni44 2.524451 1_655
Ni14 Ni15 2.533462 1_555
Ni14 Ni48 2.554190 1_555
Ni14 Ni46 2.562327 1_655
Ni14 Ni16 2.571283 1_655
Ni14 Ni34 2.590779 1_555
Ni14 Ni47 2.593954 1_645
Ni15 Ni44 2.524982 1_655
Ni15 Ni45 2.531002 1_555
Ni15 Ni35 2.547419 1_555
Ni15 Ni46 2.578613 1_555
Ni15 Ni48 2.607776 1_555
Ni16 Ni49 2.514099 1_545
Ni16 Ni48 2.517117 1_555
Ni16 Ni47 2.519473 1_545
Ni16 Ni18 2.536758 1_555
Ni16 Ni46 2.553647 1_555
Ni16 Ni36 2.627797 1_555
Ni17 Ni50 2.508644 1_655
Ni17 Ni19 2.509316 1_655
Ni17 Ni51 2.519301 1_555
Ni17 Ni49 2.532914 1_655
Ni17 Ni18 2.539790 1_565
Ni17 Ni47 2.549166 1_655
Ni17 Ni52 2.551715 1_565
Ni18 Ni51 2.530538 1_545
Ni18 Ni49 2.541694 1_545
Ni18 Ni53 2.556861 1_555
Ni18 Ni47 2.582043 1_645
Ni18 Ni48 2.597510 1_555
Ni19 Ni49 2.501171 1_555
Ni19 Ni51 2.516593 1_555
Ni19 Ni50 2.535905 1_555
Ni19 Ni54 2.551802 1_564
Ni19 Ni21 2.559857 1_555
Ni19 Ni37 2.563166 1_555
Ni20 Ni21 2.508076 1_556
Ni20 Ni38 2.514054 1_555
Ni20 Ni39 2.516465 1_555
Ni20 Ni55 2.517310 1_555
Ni20 Ni50 2.525710 1_656
Ni20 Ni7 2.557071 1_655
Ni20 Ni37 2.562420 1_656
Ni21 Ni51 2.496962 1_555
Ni21 Ni50 2.527375 1_655
Ni21 Ni39 2.534390 1_554
Ni21 Ni56 2.543240 1_564
Ni21 Ni37 2.563854 1_555
Ni22 Ni52 2.484470 1_456
Ni22 Ni56 2.517147 1_455
Ni22 Ni54 2.524394 1_555
Ni22 Ni41 2.528797 1_455
Ni22 Ni23 2.529674 1_455
Ni22 Ni24 2.539392 1_555
Ni22 Ni55 2.565247 1_445
Ni23 Ni53 2.491418 1_556
Ni23 Ni56 2.517313 1_555
Ni23 Ni52 2.526882 1_556
Ni23 Ni54 2.529979 1_555
Ni23 Ni42 2.530517 1_555
Ni23 Ni6 2.545215 1_555
Ni24 Ni26 2.489457 1_555
Ni24 Ni43 2.535191 1_555
Ni24 Ni54 2.549941 1_555
Ni24 Ni56 2.558674 1_555
Ni24 Ni57 2.588024 1_545
Ni24 Ni55 2.600795 1_445
Ni25 Ni57 2.492524 1_555
Ni25 Ni55 2.521891 1_455
Ni25 Ni58 2.529008 1_455
Ni25 Ni27 2.543817 1_555
Ni25 Ni59 2.555391 1_455
Ni25 Ni26 2.582068 1_465
Ni25 Ni44 2.609601 1_565
Ni26 Ni56 2.513166 1_555
Ni26 Ni57 2.522222 1_545
Ni26 Ni55 2.537594 1_545
Ni26 Ni59 2.568161 1_545
Ni26 Ni45 2.590761 1_555
Ni27 Ni57 2.503326 1_555
Ni27 Ni30 2.509306 1_555
Ni27 Ni29 2.525030 1_555
Ni27 Ni58 2.540327 1_455
Ni27 Ni59 2.550152 1_555
Ni27 Ni46 2.568115 1_565
Ni28 Ni31 2.528430 1_455
Ni28 Ni47 2.532866 1_555
Ni28 Ni30 2.546347 1_555
Ni28 Ni29 2.572932 1_455
Ni28 Ni32 2.590285 1_455
Ni28 Ni58 2.619629 1_455
Ni29 Ni30 2.496740 1_555
Ni29 Ni32 2.540183 1_555
Ni29 Ni58 2.548464 1_555
Ni29 Ni59 2.555185 1_555
Ni29 Ni48 2.586374 1_565
Ni30 Ni32 2.516716 1_555
Ni30 Ni58 2.562742 1_455
Ni31 Ni33 2.508582 1_655
Ni31 Ni32 2.552005 1_555
Ni33 Ni35 2.550739 1_555
Ni34 Ni35 2.525778 1_555
Ni34 Ni5 2.540467 1_555
Ni34 Ni4 2.556257 1_555
Ni34 Ni36 2.567090 1_655
Ni35 Ni5 2.584530 1_555
Ni36 Ni6 2.506433 1_554
Ni36 Ni53 2.530846 1_555
Ni36 Ni4 2.540404 1_455
Ni36 Ni5 2.544431 1_555
Ni37 Ni50 2.519314 1_555
Ni37 Ni39 2.521683 1_554
Ni37 Ni7 2.576979 1_554
Ni38 Ni8 2.500525 1_655
Ni38 Ni4 2.502048 1_556
Ni38 Ni7 2.521756 1_655
Ni38 Ni39 2.532736 1_555
Ni38 Ni9 2.533191 1_555
Ni38 Ni40 2.547327 1_655
Ni39 Ni5 2.505150 1_556
Ni39 Ni9 2.523208 1_555
Ni39 Ni7 2.540136 1_555
Ni40 Ni7 2.516177 1_555
Ni40 Ni8 2.516235 1_555
Ni40 Ni6 2.526998 1_555
Ni40 Ni42 2.529307 1_555
Ni40 Ni9 2.538640 1_555
Ni41 Ni42 2.517483 1_555
Ni41 Ni43 2.539935 1_655
Ni41 Ni8 2.550283 1_655
Ni42 Ni9 2.527933 1_555
Ni42 Ni8 2.538866 1_655
Ni43 Ni45 2.505510 1_555
Ni44 Ni46 2.530690 1_555
Ni44 Ni45 2.593458 1_455
Ni46 Ni48 2.520528 1_555
Ni47 Ni49 2.497417 1_555
Ni47 Ni48 2.576243 1_465
Ni49 Ni51 2.568888 1_555
Ni50 Ni51 2.532218 1_455
Ni52 Ni54 2.515744 1_654
Ni52 Ni53 2.538765 1_555
Ni52 Ni6 2.541439 1_654
Ni53 Ni6 2.507809 1_554
Ni54 Ni6 2.514419 1_555
Ni54 Ni56 2.549314 1_555
Ni55 Ni56 2.514301 1_565
Ni55 Ni57 2.562898 1_655
Ni57 Ni59 2.521707 1_555
Ni57 Ni7 2.533469 1_555
Ni58 Ni8 2.501763 1_655
Ni58 Ni59 2.519432 1_555
Ni59 Ni9 2.486102 1_555
Mo0 Ni18 2.544566 1_565
Mo0 Ni32 2.549355 1_555
Mo0 Ni2 2.553847 1_555
Mo0 Ni48 2.556974 1_565
Mo0 Ni0 2.559494 1_555
Mo0 Ni47 2.559846 1_655
Mo0 Ni49 2.565577 1_555
Mo0 Ni28 2.569162 1_655
Mo0 Ni51 2.578122 1_555
Mo0 Ni29 2.582454 1_555
Mo1 Ni37 2.532487 1_556
Mo1 Ni24 2.542601 1_565
Mo1 Ni55 2.559361 1_455
Mo1 Ni21 2.562425 1_556
Mo1 Ni19 2.568131 1_556
Mo1 Ni57 2.568971 1_555
Mo1 Ni56 2.571990 1_565
Mo1 Ni7 2.572546 1_555
Mo1 Ni20 2.577774 1_455
Mo1 Ni54 2.578610 1_565
Mo2 Ni28 2.527334 1_555
Mo2 Ni41 2.532377 1_455
Mo2 Ni11 2.542349 1_455
Mo2 Ni58 2.553375 1_455
Mo2 Ni10 2.562086 1_555
Mo2 Ni12 2.563007 1_455
Mo2 Ni30 2.563810 1_555
Mo2 Ni32 2.564825 1_455
Mo2 Ni8 2.579320 1_555
Mo2 Ni31 2.590629 1_455
Mo3 Ni14 2.527338 1_455
Mo3 Ni34 2.537969 1_455
Mo3 Ni3 2.539392 1_555
Mo3 Ni33 2.539820 1_555
Mo3 Ni46 2.545043 1_555
Mo3 Ni13 2.555159 1_555
Mo3 Mo5 2.604986 1_555
Mo3 Ni15 2.612641 1_555
Mo3 Ni35 2.615655 1_555
Mo3 Ni36 2.627730 1_555
Mo3 Ni16 2.641054 1_555
Mo4 Ni52 2.529514 1_455
Mo4 Ni36 2.532485 1_555
Mo4 Ni47 2.542616 1_545
Mo4 Ni4 2.544519 1_455
Mo4 Ni16 2.547313 1_555
Mo4 Ni17 2.561066 1_445
Mo4 Ni18 2.605567 1_455
Mo4 Mo5 2.606391 1_455
Mo4 Ni14 2.612707 1_455
Mo4 Ni53 2.617048 1_455
Mo4 Ni34 2.631439 1_455
Mo5 Ni5 2.544060 1_555
Mo5 Ni48 2.548293 1_555
Mo5 Ni14 2.561841 1_555
Mo5 Ni36 2.564204 1_555
Mo5 Ni34 2.574514 1_555
Mo5 Ni16 2.581526 1_555
Mo5 Ni35 2.591803 1_555
Mo5 Ni53 2.592255 1_555
Mo5 Ni18 2.596086 1_555
Mo5 Ni15 2.603573 1_555
Mo6 Ni55 2.550726 1_545
Mo6 Ni11 2.555962 1_555
Mo6 Ni41 2.557253 1_555
Mo6 Ni24 2.559280 1_655
Mo6 Ni22 2.560120 1_655
Mo6 Ni45 2.564119 1_555
Mo6 Ni44 2.565716 1_655
Mo6 Ni25 2.565806 1_645
Mo6 Ni43 2.571611 1_655
Mo6 Ni26 2.575609 1_555
Mo7 Ni46 2.537091 1_565
Mo7 Ni28 2.538476 1_555
Mo7 Ni27 2.539105 1_555
Mo7 Ni14 2.541811 1_465
Mo7 Ni58 2.549223 1_455
Mo7 Ni47 2.557457 1_555
Mo7 Ni48 2.596647 1_465
Mo7 Ni29 2.599451 1_455
Mo7 Ni25 2.607150 1_555
Mo7 Ni44 2.617532 1_565
Mo7 Mo8 2.652686 1_465
Mo8 Ni46 2.531878 1_555
Mo8 Ni26 2.542214 1_555
Mo8 Ni27 2.547065 1_545
Mo8 Ni15 2.556331 1_555
Mo8 Ni45 2.558451 1_555
Mo8 Ni59 2.558721 1_545
Mo8 Ni25 2.589724 1_645
Mo8 Ni48 2.604446 1_555
Mo8 Ni44 2.606141 1_655
Mo8 Ni29 2.619407 1_545
