# generated using pymatgen
data_Li4Mn3Ni3(SbO8)2
_symmetry_space_group_name_H-M   'P 1'
_cell_length_a   5.92199539
_cell_length_b   5.92199539
_cell_length_c   9.60297819
_cell_angle_alpha   88.82535735
_cell_angle_beta   88.82535735
_cell_angle_gamma   59.64394455
_symmetry_Int_Tables_number   1
_chemical_formula_structural   Li4Mn3Ni3(SbO8)2
_chemical_formula_sum   'Li4 Mn3 Ni3 Sb2 O16'
_cell_volume   290.52401584
_cell_formula_units_Z   1
loop_
 _symmetry_equiv_pos_site_id
 _symmetry_equiv_pos_as_xyz
  1  'x, y, z'
loop_
 _atom_site_type_symbol
 _atom_site_label
 _atom_site_symmetry_multiplicity
 _atom_site_fract_x
 _atom_site_fract_y
 _atom_site_fract_z
 _atom_site_occupancy
  Li  Li0  1  0.66073700  0.66073700  0.10172800  1
  Li  Li1  1  0.99926200  0.99926200  0.01331200  1
  Li  Li2  1  0.00217200  0.00217200  0.50685300  1
  Li  Li3  1  0.32863500  0.32863500  0.59368900  1
  Mn  Mn0  1  0.33976900  0.83205000  0.78615400  1
  Mn  Mn1  1  0.83205000  0.33976900  0.78615400  1
  Mn  Mn2  1  0.17215700  0.17215700  0.28468800  1
  Ni  Ni0  1  0.83040400  0.83040400  0.78625500  1
  Ni  Ni1  1  0.16987900  0.66206300  0.28769100  1
  Ni  Ni2  1  0.66206300  0.16987900  0.28769100  1
  Sb  Sb0  1  0.67158900  0.67158900  0.50946900  1
  Sb  Sb1  1  0.33938500  0.33938500  0.01554300  1
  O  O0  1  0.33587000  0.84421000  0.40346900  1
  O  O1  1  0.51697400  0.51697400  0.65798900  1
  O  O2  1  0.65552000  0.65552000  0.89009800  1
  O  O3  1  0.00930100  0.00930100  0.69623900  1
  O  O4  1  0.00823000  0.00823000  0.19906900  1
  O  O5  1  0.84421000  0.33587000  0.40346900  1
  O  O6  1  0.50643000  0.96267700  0.65608900  1
  O  O7  1  0.96267700  0.50643000  0.65608900  1
  O  O8  1  0.16881200  0.16881200  0.89973400  1
  O  O9  1  0.84014300  0.84014300  0.41124500  1
  O  O10  1  0.03155200  0.47023600  0.15381200  1
  O  O11  1  0.47023600  0.03155200  0.15381200  1
  O  O12  1  0.32533000  0.32533000  0.39024300  1
  O  O13  1  0.16983000  0.67409700  0.90433200  1
  O  O14  1  0.48079600  0.48079600  0.15263600  1
  O  O15  1  0.67409700  0.16983000  0.90433200  1
loop_
_geom_bond_atom_site_label_1
_geom_bond_atom_site_label_2
_geom_bond_distance
_geom_bond_site_symmetry_2
Li0 O14 1.901328 1_555
Li0 O10 1.965464 1_655
Li0 O11 1.965464 1_565
Li0 O2 2.034251 1_554
Li1 O4 1.788372 1_665
Li1 O15 1.974051 1_564
Li1 O13 1.974051 1_654
Li1 O8 2.033501 1_664
Li2 O3 1.821873 1_555
Li2 O9 1.920209 1_445
Li2 O0 1.963438 1_545
Li2 O5 1.963438 1_455
Li3 O12 1.954785 1_555
Li3 O7 1.957216 1_455
Li3 O6 1.957216 1_545
Li3 O1 2.045257 1_555
Mn0 O3 1.906079 1_565
Mn0 O2 1.908826 1_555
Mn0 O6 1.952967 1_555
Mn0 O13 2.009179 1_555
Mn0 O1 2.039519 1_555
Mn0 O8 2.048175 1_565
Mn1 O3 1.906079 1_655
Mn1 O2 1.908826 1_555
Mn1 O7 1.952967 1_555
Mn1 O15 2.009179 1_555
Mn1 O1 2.039519 1_555
Mn1 O8 2.048175 1_655
Mn2 O4 1.891770 1_555
Mn2 O12 1.892127 1_555
Mn2 O10 1.963467 1_555
Mn2 O11 1.963467 1_555
Mn2 O0 2.015983 1_545
Mn2 O5 2.015983 1_455
Ni0 O3 2.012796 1_665
Ni0 O2 2.034463 1_555
Ni0 O13 2.086324 1_655
Ni0 O15 2.086324 1_565
Ni0 O6 2.096698 1_555
Ni0 O7 2.096698 1_555
Ni1 O4 1.954868 1_565
Ni1 O12 1.973585 1_555
Ni1 O14 2.045965 1_555
Ni1 O9 2.051297 1_455
Ni1 O0 2.128769 1_555
Ni1 O10 2.158248 1_555
Ni2 O4 1.954868 1_655
Ni2 O12 1.973585 1_555
Ni2 O14 2.045965 1_555
Ni2 O9 2.051297 1_545
Ni2 O5 2.128769 1_555
Ni2 O11 2.158248 1_555
O0 Sb0 2.004970 1_555
O1 Sb0 2.109787 1_555
O5 Sb0 2.004970 1_555
O6 Sb0 2.061439 1_555
O7 Sb0 2.061439 1_555
O8 Sb1 2.097850 1_556
O9 Sb0 1.952504 1_555
O10 Sb1 2.049858 1_555
O11 Sb1 2.049858 1_555
O13 Sb1 2.005796 1_556
O14 Sb1 1.983685 1_555
O15 Sb1 2.005796 1_556
