# generated using pymatgen
data_Co29Ge13O56
_symmetry_space_group_name_H-M   'P 1'
_cell_length_a   10.29695725
_cell_length_b   10.29695725
_cell_length_c   10.29695653
_cell_angle_alpha   99.62237488
_cell_angle_beta   99.62237488
_cell_angle_gamma   99.62238117
_symmetry_Int_Tables_number   1
_chemical_formula_structural   Co29Ge13O56
_chemical_formula_sum   'Co29 Ge13 O56'
_cell_volume   1039.66058954
_cell_formula_units_Z   1
loop_
 _symmetry_equiv_pos_site_id
 _symmetry_equiv_pos_as_xyz
  1  'x, y, z'
loop_
 _atom_site_type_symbol
 _atom_site_label
 _atom_site_symmetry_multiplicity
 _atom_site_fract_x
 _atom_site_fract_y
 _atom_site_fract_z
 _atom_site_occupancy
  Co  Co0  1  0.73253200  0.08855100  0.80181500  1
  Co  Co1  1  0.51774600  0.16047600  0.94523400  1
  Co  Co2  1  0.94394600  0.01765900  0.66110200  1
  Co  Co3  1  0.51971200  0.66199300  0.94740500  1
  Co  Co4  1  0.94740500  0.51971200  0.66199300  1
  Co  Co5  1  0.23233600  0.08923600  0.80321500  1
  Co  Co6  1  0.37525900  0.37536000  0.87500700  1
  Co  Co7  1  0.80369500  0.23267500  0.59004900  1
  Co  Co8  1  0.75004000  0.75004000  0.75004000  1
  Co  Co9  1  0.65883700  0.44771300  0.51822700  1
  Co  Co10  1  0.87500700  0.37525900  0.37536000  1
  Co  Co11  1  0.23267500  0.59004900  0.80369500  1
  Co  Co12  1  0.01765900  0.66110200  0.94394600  1
  Co  Co13  1  0.44771300  0.51822700  0.65883700  1
  Co  Co14  1  0.23209400  0.08976400  0.30287800  1
  Co  Co15  1  0.37559300  0.37559300  0.37559300  1
  Co  Co16  1  0.08855100  0.80181500  0.73253200  1
  Co  Co17  1  0.80321500  0.23233600  0.08923600  1
  Co  Co18  1  0.94523400  0.51774600  0.16047600  1
  Co  Co19  1  0.51822700  0.65883700  0.44771300  1
  Co  Co20  1  0.66199300  0.94740500  0.51971200  1
  Co  Co21  1  0.08976400  0.30287800  0.23209400  1
  Co  Co22  1  0.30287800  0.23209400  0.08976400  1
  Co  Co23  1  0.16047600  0.94523400  0.51774600  1
  Co  Co24  1  0.59004900  0.80369500  0.23267500  1
  Co  Co25  1  0.37536000  0.87500700  0.37525900  1
  Co  Co26  1  0.80181500  0.73253200  0.08855100  1
  Co  Co27  1  0.08923600  0.80321500  0.23233600  1
  Co  Co28  1  0.66110200  0.94394600  0.01765900  1
  Ge  Ge0  1  0.71432500  0.42875800  0.85647800  1
  Ge  Ge1  1  0.89343700  0.03662300  0.32170400  1
  Ge  Ge2  1  0.03662300  0.32170400  0.89343700  1
  Ge  Ge3  1  0.46268000  0.17769000  0.60649300  1
  Ge  Ge4  1  0.14333100  0.28655100  0.57194100  1
  Ge  Ge5  1  0.85647800  0.71432500  0.42875800  1
  Ge  Ge6  1  0.42875800  0.85647800  0.71432500  1
  Ge  Ge7  1  0.57194100  0.14333100  0.28655100  1
  Ge  Ge8  1  0.99920500  0.99920500  0.99920500  1
  Ge  Ge9  1  0.17769000  0.60649300  0.46268000  1
  Ge  Ge10  1  0.60649300  0.46268000  0.17769000  1
  Ge  Ge11  1  0.28655100  0.57194100  0.14333100  1
  Ge  Ge12  1  0.32170400  0.89343700  0.03662300  1
  O  O0  1  0.84045700  0.05363500  0.98160700  1
  O  O1  1  0.91268800  0.20031300  0.76825600  1
  O  O2  1  0.33881400  0.05311300  0.98298200  1
  O  O3  1  0.83913500  0.55115300  0.98109400  1
  O  O4  1  0.69622500  0.26809800  0.90899700  1
  O  O5  1  0.76755800  0.41054500  0.69734000  1
  O  O6  1  0.55519600  0.48234800  0.83952100  1
  O  O7  1  0.34082600  0.55442600  0.98431400  1
  O  O8  1  0.98431400  0.34082600  0.55442600  1
  O  O9  1  0.69269300  0.76884300  0.92307700  1
  O  O10  1  0.19572100  0.26900800  0.91135700  1
  O  O11  1  0.62261000  0.12734900  0.62469000  1
  O  O12  1  0.40963800  0.19655400  0.76553900  1
  O  O13  1  0.92307700  0.69269300  0.76884300  1
  O  O14  1  0.83952200  0.05583700  0.48052300  1
  O  O15  1  0.47909300  0.33527100  0.55167300  1
  O  O16  1  0.61569900  0.61569900  0.61569900  1
  O  O17  1  0.05583700  0.48052300  0.83952200  1
  O  O18  1  0.33887200  0.05283900  0.48309000  1
  O  O19  1  0.91135700  0.19572100  0.26900800  1
  O  O20  1  0.20031300  0.76825600  0.91268800  1
  O  O21  1  0.76884300  0.92307700  0.69269300  1
  O  O22  1  0.26833100  0.41130300  0.69586800  1
  O  O23  1  0.83952100  0.55519600  0.48234800  1
  O  O24  1  0.55115300  0.98109400  0.83913500  1
  O  O25  1  0.12456800  0.12694900  0.62561400  1
  O  O26  1  0.98109400  0.83913500  0.55115300  1
  O  O27  1  0.41054500  0.69734000  0.76755800  1
  O  O28  1  0.69586800  0.26833100  0.41130300  1
  O  O29  1  0.05363500  0.98160700  0.84045700  1
  O  O30  1  0.62561400  0.12456800  0.12694900  1
  O  O31  1  0.19579400  0.26878300  0.41217800  1
  O  O32  1  0.90899700  0.69622500  0.26809800  1
  O  O33  1  0.48234800  0.83952100  0.55519600  1
  O  O34  1  0.26809800  0.90899700  0.69622500  1
  O  O35  1  0.41217800  0.19579400  0.26878300  1
  O  O36  1  0.69734000  0.76755800  0.41054500  1
  O  O37  1  0.76553900  0.40963800  0.19655400  1
  O  O38  1  0.98298200  0.33881400  0.05311300  1
  O  O39  1  0.33527100  0.55167300  0.47909300  1
  O  O40  1  0.12734900  0.62469000  0.62261000  1
  O  O41  1  0.55167300  0.47909300  0.33527100  1
  O  O42  1  0.05283900  0.48309000  0.33887200  1
  O  O43  1  0.62469000  0.62261000  0.12734900  1
  O  O44  1  0.19655400  0.76553900  0.40963800  1
  O  O45  1  0.48309000  0.33887200  0.05283900  1
  O  O46  1  0.76825600  0.91268800  0.20031300  1
  O  O47  1  0.55442600  0.98431400  0.34082600  1
  O  O48  1  0.26878300  0.41217800  0.19579400  1
  O  O49  1  0.12311400  0.12311400  0.12311400  1
  O  O50  1  0.41130300  0.69586800  0.26833100  1
  O  O51  1  0.98160700  0.84045700  0.05363500  1
  O  O52  1  0.12694900  0.62561400  0.12456800  1
  O  O53  1  0.05311300  0.98298200  0.33881400  1
  O  O54  1  0.48052300  0.83952200  0.05583700  1
  O  O55  1  0.26900800  0.91135700  0.19572100  1
loop_
_geom_bond_atom_site_label_1
_geom_bond_atom_site_label_2
_geom_bond_distance
_geom_bond_site_symmetry_2
Co0 O21 2.004724 1_545
Co0 O0 2.111845 1_555
Co0 O4 2.112509 1_555
Co0 O11 2.114655 1_555
Co0 O1 2.125693 1_555
Co0 O24 2.133383 1_545
Co1 O24 2.094529 1_545
Co1 O45 2.097677 1_556
Co1 O4 2.105087 1_555
Co1 O2 2.114239 1_555
Co1 O12 2.116672 1_555
Co1 O30 2.131958 1_556
Co2 O21 2.005035 1_545
Co2 O14 2.117879 1_555
Co2 O1 2.117943 1_555
Co2 O26 2.119276 1_545
Co2 O29 2.120433 1_645
Co2 O25 2.126969 1_655
Co3 O9 2.007987 1_555
Co3 O7 2.111123 1_555
Co3 O6 2.112811 1_555
Co3 O54 2.113283 1_556
Co3 O27 2.119358 1_555
Co3 O43 2.119958 1_556
Co4 O13 2.007988 1_555
Co4 O8 2.111123 1_555
Co4 O23 2.112811 1_555
Co4 O17 2.113283 1_655
Co4 O5 2.119358 1_555
Co4 O40 2.119958 1_655
Co5 O12 2.100085 1_555
Co5 O25 2.104655 1_555
Co5 O2 2.110658 1_555
Co5 O29 2.111254 1_545
Co5 O34 2.115245 1_545
Co5 O10 2.119732 1_555
Co6 O45 2.101616 1_556
Co6 O22 2.106477 1_555
Co6 O12 2.107894 1_555
Co6 O10 2.109162 1_555
Co6 O7 2.109604 1_555
Co6 O6 2.111531 1_555
Co7 O1 2.092546 1_555
Co7 O14 2.097803 1_555
Co7 O5 2.098158 1_555
Co7 O28 2.105741 1_555
Co7 O11 2.110900 1_555
Co7 O8 2.122708 1_555
Co8 O16 1.954857 1_555
Co8 O9 1.958431 1_555
Co8 O21 1.958431 1_555
Co8 O13 1.958431 1_555
Co9 O16 2.005537 1_555
Co9 O28 2.113116 1_555
Co9 O5 2.119012 1_555
Co9 O41 2.121041 1_555
Co9 O23 2.121539 1_555
Co9 O15 2.124772 1_555
Co10 O42 2.101616 1_655
Co10 O28 2.106477 1_555
Co10 O37 2.107894 1_555
Co10 O19 2.109162 1_555
Co10 O8 2.109604 1_555
Co10 O23 2.111531 1_555
Co11 O20 2.092547 1_555
Co11 O17 2.097803 1_555
Co11 O27 2.098157 1_555
Co11 O22 2.105741 1_555
Co11 O40 2.110900 1_555
Co11 O7 2.122708 1_555
Co12 O13 2.005035 1_455
Co12 O17 2.117879 1_555
Co12 O20 2.117943 1_555
Co12 O3 2.119276 1_455
Co12 O51 2.120433 1_456
Co12 O52 2.126969 1_556
Co13 O16 2.005537 1_555
Co13 O22 2.113116 1_555
Co13 O27 2.119012 1_555
Co13 O15 2.121041 1_555
Co13 O6 2.121539 1_555
Co13 O39 2.124772 1_555
Co14 O35 2.103023 1_555
Co14 O53 2.104507 1_545
Co14 O55 2.105400 1_545
Co14 O49 2.109592 1_555
Co14 O31 2.117008 1_555
Co14 O18 2.119050 1_555
Co15 O41 2.085445 1_555
Co15 O15 2.085445 1_555
Co15 O39 2.085445 1_555
Co15 O31 2.114258 1_555
Co15 O48 2.114258 1_555
Co15 O35 2.114258 1_555
Co16 O13 2.004723 1_455
Co16 O29 2.111846 1_555
Co16 O34 2.112509 1_555
Co16 O40 2.114655 1_555
Co16 O20 2.125693 1_555
Co16 O26 2.133383 1_455
Co17 O37 2.100085 1_555
Co17 O30 2.104655 1_555
Co17 O38 2.110658 1_555
Co17 O0 2.111254 1_554
Co17 O4 2.115245 1_554
Co17 O19 2.119732 1_555
Co18 O3 2.094529 1_554
Co18 O42 2.097677 1_655
Co18 O32 2.105087 1_555
Co18 O38 2.114239 1_555
Co18 O37 2.116671 1_555
Co18 O52 2.131958 1_655
Co19 O16 2.005537 1_555
Co19 O50 2.113116 1_555
Co19 O36 2.119012 1_555
Co19 O39 2.121041 1_555
Co19 O33 2.121539 1_555
Co19 O41 2.124772 1_555
Co20 O21 2.007987 1_555
Co20 O47 2.111123 1_555
Co20 O33 2.112811 1_555
Co20 O14 2.113283 1_565
Co20 O36 2.119358 1_555
Co20 O11 2.119959 1_565
Co21 O31 2.103023 1_555
Co21 O38 2.104507 1_455
Co21 O19 2.105400 1_455
Co21 O49 2.109592 1_555
Co21 O48 2.117008 1_555
Co21 O42 2.119050 1_555
Co22 O48 2.103023 1_555
Co22 O2 2.104507 1_554
Co22 O10 2.105400 1_554
Co22 O49 2.109592 1_555
Co22 O35 2.117008 1_555
Co22 O45 2.119050 1_555
Co23 O26 2.094529 1_455
Co23 O18 2.097677 1_565
Co23 O34 2.105087 1_555
Co23 O53 2.114239 1_555
Co23 O44 2.116672 1_555
Co23 O25 2.131958 1_565
Co24 O46 2.092546 1_555
Co24 O54 2.097803 1_555
Co24 O36 2.098157 1_555
Co24 O50 2.105741 1_555
Co24 O43 2.110900 1_555
Co24 O47 2.122708 1_555
Co25 O18 2.101616 1_565
Co25 O50 2.106477 1_555
Co25 O44 2.107894 1_555
Co25 O55 2.109162 1_555
Co25 O47 2.109604 1_555
Co25 O33 2.111531 1_555
Co26 O9 2.004723 1_554
Co26 O51 2.111845 1_555
Co26 O32 2.112509 1_555
Co26 O43 2.114655 1_555
Co26 O46 2.125693 1_555
Co26 O3 2.133383 1_554
Co27 O44 2.100085 1_555
Co27 O52 2.104655 1_555
Co27 O53 2.110658 1_555
Co27 O51 2.111254 1_455
Co27 O32 2.115245 1_455
Co27 O55 2.119732 1_555
Co28 O9 2.005035 1_554
Co28 O54 2.117879 1_555
Co28 O46 2.117943 1_555
Co28 O24 2.119276 1_554
Co28 O0 2.120433 1_564
Co28 O30 2.126969 1_565
Ge0 O5 1.803514 1_555
Ge0 O3 1.803635 1_555
Ge0 O6 1.805173 1_555
Ge0 O4 1.814835 1_555
Ge1 O46 1.797395 1_545
Ge1 O19 1.800511 1_555
Ge1 O14 1.803827 1_555
Ge1 O53 1.810726 1_645
Ge2 O1 1.797395 1_455
Ge2 O10 1.800511 1_555
Ge2 O17 1.803827 1_555
Ge2 O38 1.810726 1_456
Ge3 O15 1.796236 1_555
Ge3 O11 1.797337 1_555
Ge3 O12 1.801723 1_555
Ge3 O18 1.804719 1_555
Ge4 O31 1.805846 1_555
Ge4 O8 1.807430 1_455
Ge4 O25 1.810186 1_555
Ge4 O22 1.812545 1_555
Ge5 O36 1.803514 1_555
Ge5 O26 1.803635 1_555
Ge5 O23 1.805173 1_555
Ge5 O32 1.814834 1_555
Ge6 O27 1.803514 1_555
Ge6 O24 1.803635 1_555
Ge6 O33 1.805173 1_555
Ge6 O34 1.814835 1_555
Ge7 O35 1.805846 1_555
Ge7 O47 1.807430 1_545
Ge7 O30 1.810185 1_555
Ge7 O28 1.812545 1_555
Ge8 O49 1.803056 1_666
Ge8 O29 1.805587 1_655
Ge8 O51 1.805587 1_556
Ge8 O0 1.805587 1_565
Ge9 O39 1.796236 1_555
Ge9 O40 1.797337 1_555
Ge9 O44 1.801723 1_555
Ge9 O42 1.804719 1_555
Ge10 O41 1.796236 1_555
Ge10 O43 1.797337 1_555
Ge10 O37 1.801723 1_555
Ge10 O45 1.804719 1_555
Ge11 O48 1.805846 1_555
Ge11 O7 1.807430 1_554
Ge11 O52 1.810186 1_555
Ge11 O50 1.812545 1_555
Ge12 O20 1.797395 1_554
Ge12 O55 1.800511 1_555
Ge12 O54 1.803827 1_555
Ge12 O2 1.810726 1_564
