# generated using pymatgen
data_Li2Cr(PO4)2
_symmetry_space_group_name_H-M   'P 1'
_cell_length_a   12.45503000
_cell_length_b   6.25316000
_cell_length_c   7.46619808
_cell_angle_alpha   82.14643006
_cell_angle_beta   90.00000000
_cell_angle_gamma   90.00000000
_symmetry_Int_Tables_number   1
_chemical_formula_structural   Li2Cr(PO4)2
_chemical_formula_sum   'Li8 Cr4 P8 O32'
_cell_volume   576.03801502
_cell_formula_units_Z   4
loop_
 _symmetry_equiv_pos_site_id
 _symmetry_equiv_pos_as_xyz
  1  'x, y, z'
loop_
 _atom_site_type_symbol
 _atom_site_label
 _atom_site_symmetry_multiplicity
 _atom_site_fract_x
 _atom_site_fract_y
 _atom_site_fract_z
 _atom_site_occupancy
  Li  Li0  1  0.22471000  0.36613900  0.05776800  1
  Li  Li1  1  0.27529000  0.86613900  0.05776800  1
  Li  Li2  1  0.62373300  0.05351000  0.54291100  1
  Li  Li3  1  0.12373300  0.44649000  0.45708900  1
  Li  Li4  1  0.87626700  0.55351000  0.54291100  1
  Li  Li5  1  0.37626700  0.94649000  0.45708900  1
  Li  Li6  1  0.72471000  0.13386100  0.94223200  1
  Li  Li7  1  0.77529000  0.63386100  0.94223200  1
  Cr  Cr0  1  0.92358900  0.24442000  0.22892500  1
  Cr  Cr1  1  0.57641100  0.74442000  0.22892500  1
  Cr  Cr2  1  0.42358900  0.25558000  0.77107500  1
  Cr  Cr3  1  0.07641100  0.75558000  0.77107500  1
  P  P0  1  0.52950400  0.25979300  0.16997200  1
  P  P1  1  0.97049600  0.75979300  0.16997200  1
  P  P2  1  0.35777700  0.46189800  0.36296900  1
  P  P3  1  0.14222300  0.96189800  0.36296900  1
  P  P4  1  0.85777700  0.03810200  0.63703100  1
  P  P5  1  0.64222300  0.53810200  0.63703100  1
  P  P6  1  0.02950400  0.24020700  0.83002800  1
  P  P7  1  0.47049600  0.74020700  0.83002800  1
  O  O0  1  0.03471600  0.27251300  0.02962900  1
  O  O1  1  0.46528400  0.77251300  0.02962900  1
  O  O2  1  0.81673900  0.32939500  0.08979100  1
  O  O3  1  0.68326100  0.82939500  0.08979100  1
  O  O4  1  0.40967700  0.33427600  0.20671700  1
  O  O5  1  0.54641300  0.04589700  0.29730200  1
  O  O6  1  0.60631900  0.43341800  0.21582900  1
  O  O7  1  0.25371900  0.01121200  0.28717400  1
  O  O8  1  0.09032300  0.83427600  0.20671700  1
  O  O9  1  0.95358700  0.54589700  0.29730200  1
  O  O10  1  0.89368100  0.93341800  0.21582900  1
  O  O11  1  0.24628100  0.51121200  0.28717400  1
  O  O12  1  0.07111900  0.15779300  0.37967300  1
  O  O13  1  0.42888100  0.65779300  0.37967300  1
  O  O14  1  0.85353100  0.20761900  0.46594000  1
  O  O15  1  0.64646900  0.70761900  0.46594000  1
  O  O16  1  0.35353100  0.29238100  0.53406000  1
  O  O17  1  0.14646900  0.79238100  0.53406000  1
  O  O18  1  0.57111900  0.34220700  0.62032700  1
  O  O19  1  0.92888100  0.84220700  0.62032700  1
  O  O20  1  0.75371900  0.48878800  0.71282600  1
  O  O21  1  0.10631900  0.06658200  0.78417100  1
  O  O22  1  0.04641300  0.45410300  0.70269800  1
  O  O23  1  0.90967700  0.16572400  0.79328300  1
  O  O24  1  0.74628100  0.98878800  0.71282600  1
  O  O25  1  0.39368100  0.56658200  0.78417100  1
  O  O26  1  0.45358700  0.95410300  0.70269800  1
  O  O27  1  0.59032300  0.66572400  0.79328300  1
  O  O28  1  0.31673900  0.17060500  0.91020900  1
  O  O29  1  0.18326100  0.67060500  0.91020900  1
  O  O30  1  0.53471600  0.22748700  0.97037100  1
  O  O31  1  0.96528400  0.72748700  0.97037100  1
loop_
_geom_bond_atom_site_label_1
_geom_bond_atom_site_label_2
_geom_bond_distance
_geom_bond_site_symmetry_2
Li0 O11 2.062379 1_555
Li0 O28 2.095405 1_554
Li0 O29 2.128800 1_554
Li0 O0 2.453624 1_555
Li0 O4 2.554061 1_555
Li0 O7 2.636502 1_555
Li1 O7 2.062379 1_565
Li1 O29 2.095405 1_554
Li1 O28 2.128800 1_564
Li1 O1 2.453624 1_555
Li1 O8 2.554061 1_555
Li1 O11 2.636502 1_555
Li2 O24 1.990625 1_545
Li2 O18 2.075493 1_555
Li2 O5 2.077554 1_555
Li2 O15 2.329876 1_545
Li2 O26 2.469389 1_545
Li3 O11 1.990625 1_555
Li3 O12 2.075493 1_555
Li3 O22 2.077554 1_555
Li3 O17 2.329876 1_555
Li3 O9 2.469389 1_455
Li4 O20 1.990625 1_555
Li4 O19 2.075493 1_555
Li4 O9 2.077554 1_555
Li4 O14 2.329876 1_555
Li4 O22 2.469389 1_655
Li5 O7 1.990625 1_565
Li5 O13 2.075493 1_555
Li5 O26 2.077554 1_555
Li5 O16 2.329876 1_565
Li5 O5 2.469389 1_565
Li6 O24 2.062379 1_545
Li6 O2 2.095405 1_556
Li6 O3 2.128800 1_546
Li6 O30 2.453624 1_555
Li6 O23 2.554061 1_555
Li6 O20 2.636502 1_555
Li7 O20 2.062379 1_555
Li7 O3 2.095405 1_556
Li7 O2 2.128800 1_556
Li7 O31 2.453624 1_555
Li7 O27 2.554061 1_555
Li7 O24 2.636502 1_555
Cr0 O2 1.726757 1_555
Cr0 O14 1.958199 1_555
Cr0 O10 1.995575 1_545
Cr0 O0 2.022183 1_655
Cr0 O9 2.053571 1_555
Cr0 O12 2.184026 1_655
Cr1 O3 1.726757 1_555
Cr1 O15 1.958199 1_555
Cr1 O6 1.995575 1_555
Cr1 O1 2.022183 1_555
Cr1 O5 2.053571 1_565
Cr1 O13 2.184026 1_555
Cr2 O28 1.726757 1_555
Cr2 O16 1.958199 1_555
Cr2 O25 1.995575 1_555
Cr2 O30 2.022183 1_555
Cr2 O26 2.053571 1_545
Cr2 O18 2.184026 1_555
Cr3 O29 1.726757 1_555
Cr3 O17 1.958199 1_555
Cr3 O21 1.995575 1_565
Cr3 O31 2.022183 1_455
Cr3 O22 2.053571 1_555
Cr3 O19 2.184026 1_455
O0 P6 1.532375 1_554
O1 P7 1.532375 1_554
O4 P0 1.598285 1_555
O4 P2 1.634052 1_555
O5 P0 1.545837 1_555
O6 P0 1.520822 1_555
O7 P3 1.515287 1_545
O8 P1 1.598285 1_455
O8 P3 1.634052 1_555
O9 P1 1.545837 1_555
O10 P1 1.520822 1_555
O11 P2 1.515287 1_555
O12 P3 1.530402 1_545
O13 P2 1.530402 1_555
O14 P4 1.545360 1_555
O15 P5 1.545360 1_555
O16 P2 1.545360 1_555
O17 P3 1.545360 1_555
O18 P5 1.530402 1_555
O19 P4 1.530402 1_565
O20 P5 1.515287 1_555
O21 P6 1.520822 1_555
O22 P6 1.545837 1_555
O23 P6 1.598285 1_655
O23 P4 1.634052 1_555
O24 P4 1.515287 1_565
O25 P7 1.520822 1_555
O26 P7 1.545837 1_555
O27 P7 1.598285 1_555
O27 P5 1.634052 1_555
O30 P0 1.532375 1_556
O31 P1 1.532375 1_556
