# generated using pymatgen
data_Li2Fe(BO2)5
_symmetry_space_group_name_H-M   'P 1'
_cell_length_a   15.29615600
_cell_length_b   7.25566100
_cell_length_c   7.26866774
_cell_angle_alpha   89.18533263
_cell_angle_beta   90.00000000
_cell_angle_gamma   90.00000000
_symmetry_Int_Tables_number   1
_chemical_formula_structural   Li2Fe(BO2)5
_chemical_formula_sum   'Li8 Fe4 B20 O40'
_cell_volume   806.62225950
_cell_formula_units_Z   4
loop_
 _symmetry_equiv_pos_site_id
 _symmetry_equiv_pos_as_xyz
  1  'x, y, z'
loop_
 _atom_site_type_symbol
 _atom_site_label
 _atom_site_symmetry_multiplicity
 _atom_site_fract_x
 _atom_site_fract_y
 _atom_site_fract_z
 _atom_site_occupancy
  Li  Li0  1  0.82984400  0.89987200  0.99990400  1
  Li  Li1  1  0.67015600  0.89987200  0.49990400  1
  Li  Li2  1  0.07260500  0.69422000  0.58885000  1
  Li  Li3  1  0.42739500  0.69422000  0.08885000  1
  Li  Li4  1  0.57260500  0.30578000  0.91115000  1
  Li  Li5  1  0.92739500  0.30578000  0.41115000  1
  Li  Li6  1  0.32984400  0.10012800  0.50009600  1
  Li  Li7  1  0.17015600  0.10012800  0.00009600  1
  Fe  Fe0  1  0.87627600  0.85007900  0.53571500  1
  Fe  Fe1  1  0.62372400  0.85007900  0.03571500  1
  Fe  Fe2  1  0.37627600  0.14992100  0.96428500  1
  Fe  Fe3  1  0.12372400  0.14992100  0.46428500  1
  B  B0  1  0.97356500  0.79788500  0.90750700  1
  B  B1  1  0.52643500  0.79788500  0.40750700  1
  B  B2  1  0.22287400  0.78411700  0.52136200  1
  B  B3  1  0.27712600  0.78411700  0.02136200  1
  B  B4  1  0.49690500  0.75356200  0.73308300  1
  B  B5  1  0.00309500  0.75356200  0.23308300  1
  B  B6  1  0.37964200  0.68140700  0.50587800  1
  B  B7  1  0.12035800  0.68140700  0.00587800  1
  B  B8  1  0.74327800  0.54213600  0.50050100  1
  B  B9  1  0.75672200  0.54213600  0.00050100  1
  B  B10  1  0.24327800  0.45786400  0.99949900  1
  B  B11  1  0.25672200  0.45786400  0.49949900  1
  B  B12  1  0.87964300  0.31859300  0.99412200  1
  B  B13  1  0.62035800  0.31859300  0.49412200  1
  B  B14  1  0.99690500  0.24643800  0.76691700  1
  B  B15  1  0.50309500  0.24643800  0.26691700  1
  B  B16  1  0.72287400  0.21588300  0.97863800  1
  B  B17  1  0.77712600  0.21588300  0.47863800  1
  B  B18  1  0.47356500  0.20211500  0.59249300  1
  B  B19  1  0.02643500  0.20211500  0.09249300  1
  O  O0  1  0.15692000  0.90975100  0.53729200  1
  O  O1  1  0.34308000  0.90975100  0.03729200  1
  O  O2  1  0.91063500  0.84987600  0.78433000  1
  O  O3  1  0.58936500  0.84987600  0.28433000  1
  O  O4  1  0.19101700  0.82958200  0.99438500  1
  O  O5  1  0.54930100  0.83092900  0.59281000  1
  O  O6  1  0.30898300  0.82958200  0.49438500  1
  O  O7  1  0.95069900  0.83092900  0.09281000  1
  O  O8  1  0.52591700  0.75010000  0.91242900  1
  O  O9  1  0.97408300  0.75010000  0.41242900  1
  O  O10  1  0.76952500  0.72244500  0.51073200  1
  O  O11  1  0.05232200  0.72158200  0.86172500  1
  O  O12  1  0.73047500  0.72244500  0.01073200  1
  O  O13  1  0.44767800  0.72158200  0.36172500  1
  O  O14  1  0.41783200  0.68207800  0.69082000  1
  O  O15  1  0.08216800  0.68207800  0.19082000  1
  O  O16  1  0.19601500  0.59842800  0.53759400  1
  O  O17  1  0.30398500  0.59842800  0.03759400  1
  O  O18  1  0.65806300  0.49869800  0.52862900  1
  O  O19  1  0.15806300  0.50130200  0.97137100  1
  O  O20  1  0.84193700  0.49869800  0.02862900  1
  O  O21  1  0.34193700  0.50130200  0.47137100  1
  O  O22  1  0.69601500  0.40157200  0.96240600  1
  O  O23  1  0.80398500  0.40157200  0.46240600  1
  O  O24  1  0.91783200  0.31792200  0.80918000  1
  O  O25  1  0.58216800  0.31792200  0.30918000  1
  O  O26  1  0.55232200  0.27841800  0.63827500  1
  O  O27  1  0.26952500  0.27755500  0.98926800  1
  O  O28  1  0.94767800  0.27841800  0.13827500  1
  O  O29  1  0.23047500  0.27755500  0.48926800  1
  O  O30  1  0.02591700  0.24990000  0.58757100  1
  O  O31  1  0.47408300  0.24990000  0.08757100  1
  O  O32  1  0.04930100  0.16907100  0.90719000  1
  O  O33  1  0.69101700  0.17041800  0.50561500  1
  O  O34  1  0.45069900  0.16907100  0.40719000  1
  O  O35  1  0.80898300  0.17041800  0.00561500  1
  O  O36  1  0.41063500  0.15012400  0.71567000  1
  O  O37  1  0.08936500  0.15012400  0.21567000  1
  O  O38  1  0.65692000  0.09024900  0.96270800  1
  O  O39  1  0.84308000  0.09024900  0.46270800  1
loop_
_geom_bond_atom_site_label_1
_geom_bond_atom_site_label_2
_geom_bond_distance
_geom_bond_site_symmetry_2
Li0 O35 1.989772 1_566
Li0 O12 1.992705 1_556
Li0 O7 2.028310 1_556
Li0 O2 2.032295 1_555
Li1 O33 1.989772 1_565
Li1 O10 1.992705 1_555
Li1 O5 2.028310 1_555
Li1 O3 2.032295 1_555
Li2 O9 2.016206 1_455
Li2 O11 2.020122 1_555
Li2 O16 2.047595 1_555
Li2 O0 2.057334 1_555
Li3 O8 2.016206 1_554
Li3 O13 2.020122 1_555
Li3 O17 2.047595 1_555
Li3 O1 2.057334 1_555
Li4 O31 2.016206 1_556
Li4 O26 2.020122 1_555
Li4 O22 2.047595 1_555
Li4 O38 2.057334 1_555
Li5 O30 2.016206 1_655
Li5 O28 2.020122 1_555
Li5 O23 2.047595 1_555
Li5 O39 2.057334 1_555
Li6 O6 1.989772 1_545
Li6 O29 1.992705 1_555
Li6 O34 2.028310 1_555
Li6 O36 2.032295 1_555
Li7 O4 1.989772 1_544
Li7 O27 1.992705 1_554
Li7 O32 2.028310 1_554
Li7 O37 2.032295 1_555
Fe0 O2 1.881954 1_555
Fe0 O39 1.884082 1_565
Fe0 O10 1.887236 1_555
Fe0 O9 1.893668 1_555
Fe1 O3 1.881954 1_555
Fe1 O38 1.884082 1_564
Fe1 O12 1.887236 1_555
Fe1 O8 1.893668 1_554
Fe2 O36 1.881954 1_555
Fe2 O1 1.884082 1_546
Fe2 O27 1.887236 1_555
Fe2 O31 1.893668 1_556
Fe3 O37 1.881954 1_555
Fe3 O0 1.884082 1_545
Fe3 O29 1.887236 1_555
Fe3 O30 1.893668 1_555
B0 O2 1.364145 1_555
B0 O11 1.368844 1_655
B0 O7 1.415329 1_556
B1 O3 1.364145 1_555
B1 O13 1.368844 1_555
B1 O5 1.415329 1_555
B2 O0 1.365690 1_555
B2 O6 1.371233 1_555
B2 O16 1.411877 1_555
B3 O1 1.365690 1_555
B3 O4 1.371233 1_554
B3 O17 1.411877 1_555
B4 O14 1.353083 1_555
B4 O8 1.376962 1_555
B4 O5 1.407391 1_555
B5 O15 1.353083 1_555
B5 O9 1.376962 1_455
B5 O7 1.407391 1_455
B6 O21 1.453457 1_555
B6 O14 1.465792 1_555
B6 O13 1.502400 1_555
B6 O6 1.525921 1_555
B7 O19 1.453457 1_554
B7 O15 1.465792 1_555
B7 O11 1.502400 1_554
B7 O4 1.525921 1_554
B8 O18 1.355845 1_555
B8 O10 1.371506 1_555
B8 O23 1.409658 1_555
B9 O20 1.355845 1_555
B9 O12 1.371506 1_555
B9 O22 1.409658 1_554
B10 O19 1.355845 1_555
B10 O27 1.371506 1_555
B10 O17 1.409658 1_556
B11 O21 1.355845 1_555
B11 O29 1.371506 1_555
B11 O16 1.409658 1_555
B12 O20 1.453463 1_556
B12 O24 1.465786 1_555
B12 O28 1.502389 1_556
B12 O35 1.525931 1_556
B13 O18 1.453457 1_555
B13 O25 1.465792 1_555
B13 O26 1.502400 1_555
B13 O33 1.525921 1_555
B14 O24 1.353083 1_555
B14 O30 1.376962 1_655
B14 O32 1.407391 1_655
B15 O25 1.353083 1_555
B15 O31 1.376962 1_555
B15 O34 1.407391 1_555
B16 O38 1.365690 1_555
B16 O35 1.371233 1_556
B16 O22 1.411877 1_555
B17 O39 1.365690 1_555
B17 O33 1.371233 1_555
B17 O23 1.411877 1_555
B18 O36 1.364145 1_555
B18 O26 1.368844 1_555
B18 O34 1.415329 1_555
B19 O37 1.364145 1_555
B19 O28 1.368844 1_455
B19 O32 1.415329 1_554
