# generated using pymatgen
data_Li4Cr3Ni2Sn3O16
_symmetry_space_group_name_H-M   'P 1'
_cell_length_a   6.05405248
_cell_length_b   6.05405248
_cell_length_c   9.72231471
_cell_angle_alpha   89.21715950
_cell_angle_beta   89.21715950
_cell_angle_gamma   59.97717811
_symmetry_Int_Tables_number   1
_chemical_formula_structural   Li4Cr3Ni2Sn3O16
_chemical_formula_sum   'Li4 Cr3 Ni2 Sn3 O16'
_cell_volume   308.48830822
_cell_formula_units_Z   1
loop_
 _symmetry_equiv_pos_site_id
 _symmetry_equiv_pos_as_xyz
  1  'x, y, z'
loop_
 _atom_site_type_symbol
 _atom_site_label
 _atom_site_symmetry_multiplicity
 _atom_site_fract_x
 _atom_site_fract_y
 _atom_site_fract_z
 _atom_site_occupancy
  Li  Li0  1  0.67230900  0.67230900  0.88777600  1
  Li  Li1  1  0.98886700  0.98886700  0.99479900  1
  Li  Li2  1  0.98934700  0.98934700  0.50153200  1
  Li  Li3  1  0.33658100  0.33658100  0.39503400  1
  Cr  Cr0  1  0.83295800  0.83295800  0.21266500  1
  Cr  Cr1  1  0.66452200  0.17104000  0.71356900  1
  Cr  Cr2  1  0.17104000  0.66452100  0.71356900  1
  Ni  Ni0  1  0.66802100  0.66802100  0.48961500  1
  Ni  Ni1  1  0.33268900  0.33268900  0.98563600  1
  Sn  Sn0  1  0.83317300  0.33993700  0.21581700  1
  Sn  Sn1  1  0.33993700  0.83317300  0.21581700  1
  Sn  Sn2  1  0.17147400  0.17147400  0.71511900  1
  O  O0  1  0.82880200  0.31556100  0.60284200  1
  O  O1  1  0.51740200  0.51740200  0.34295200  1
  O  O2  1  0.67373100  0.67373100  0.09715800  1
  O  O3  1  0.99284300  0.99284300  0.31865100  1
  O  O4  1  0.99509800  0.99509800  0.81284500  1
  O  O5  1  0.31556100  0.82880200  0.60284200  1
  O  O6  1  0.96503400  0.53409500  0.33462500  1
  O  O7  1  0.53409500  0.96503400  0.33462500  1
  O  O8  1  0.15681500  0.15681500  0.09279900  1
  O  O9  1  0.84012200  0.84012200  0.61726700  1
  O  O10  1  0.49615600  0.03960600  0.83477100  1
  O  O11  1  0.03960600  0.49615600  0.83477100  1
  O  O12  1  0.34100600  0.34100600  0.60250300  1
  O  O13  1  0.67939700  0.14427700  0.10722700  1
  O  O14  1  0.47998900  0.47998900  0.82382900  1
  O  O15  1  0.14427700  0.67939700  0.10722700  1
loop_
_geom_bond_atom_site_label_1
_geom_bond_atom_site_label_2
_geom_bond_distance
_geom_bond_site_symmetry_2
Li0 O11 1.989500 1_655
Li0 O10 1.989500 1_565
Li0 O2 2.035968 1_556
Li0 O14 2.119885 1_555
Li1 O4 1.769190 1_555
Li1 O15 1.948938 1_656
Li1 O13 1.948938 1_566
Li1 O8 2.015663 1_666
Li2 O3 1.777826 1_555
Li2 O9 1.913006 1_555
Li2 O5 1.980226 1_655
Li2 O0 1.980226 1_565
Li3 O1 1.955002 1_555
Li3 O12 2.018344 1_555
Li3 O7 2.039553 1_545
Li3 O6 2.039553 1_455
Cr0 O15 1.920214 1_655
Cr0 O13 1.920214 1_565
Cr0 O6 1.959222 1_555
Cr0 O7 1.959222 1_555
Cr0 O3 1.981851 1_555
Cr0 O2 2.026975 1_555
Cr1 O0 1.931153 1_555
Cr1 O10 1.952905 1_555
Cr1 O14 1.956186 1_555
Cr1 O9 1.978173 1_545
Cr1 O4 1.990716 1_545
Cr1 O12 2.017809 1_555
Cr2 O5 1.931157 1_555
Cr2 O11 1.952901 1_555
Cr2 O14 1.956185 1_555
Cr2 O9 1.978173 1_455
Cr2 O4 1.990721 1_455
Cr2 O12 2.017804 1_555
Ni0 O5 2.144550 1_555
Ni0 O0 2.144550 1_555
Ni0 O1 2.144592 1_555
Ni0 O6 2.159102 1_555
Ni0 O7 2.159102 1_555
Ni0 O9 2.206445 1_555
Ni1 O8 2.103981 1_556
Ni1 O10 2.133853 1_555
Ni1 O11 2.133853 1_555
Ni1 O15 2.177016 1_556
Ni1 O13 2.177016 1_556
Ni1 O14 2.187319 1_555
O0 Sn2 2.116892 1_655
O1 Sn0 2.062303 1_555
O1 Sn1 2.062303 1_555
O2 Sn1 2.088312 1_555
O2 Sn0 2.088312 1_555
O3 Sn1 2.070242 1_655
O3 Sn0 2.070242 1_565
O4 Sn2 2.066059 1_665
O5 Sn2 2.116892 1_565
O6 Sn0 2.086735 1_555
O7 Sn1 2.086735 1_555
O8 Sn1 2.072937 1_545
O8 Sn0 2.072937 1_455
O10 Sn2 2.078731 1_555
O11 Sn2 2.078731 1_555
O12 Sn2 2.073237 1_555
O13 Sn0 2.132834 1_555
O15 Sn1 2.132834 1_555
