# generated using pymatgen
data_Li5SbS4
_symmetry_space_group_name_H-M   'P 1'
_cell_length_a   11.29122200
_cell_length_b   11.78558800
_cell_length_c   11.92077400
_cell_angle_alpha   90.00000000
_cell_angle_beta   90.00000000
_cell_angle_gamma   90.00000000
_symmetry_Int_Tables_number   1
_chemical_formula_structural   Li5SbS4
_chemical_formula_sum   'Li40 Sb8 S32'
_cell_volume   1586.34138990
_cell_formula_units_Z   8
loop_
 _symmetry_equiv_pos_site_id
 _symmetry_equiv_pos_as_xyz
  1  'x, y, z'
loop_
 _atom_site_type_symbol
 _atom_site_label
 _atom_site_symmetry_multiplicity
 _atom_site_fract_x
 _atom_site_fract_y
 _atom_site_fract_z
 _atom_site_occupancy
  Li  Li0  1  0.12179600  0.59663100  0.14693400  1
  Li  Li1  1  0.12179600  0.90336900  0.64693400  1
  Li  Li2  1  0.11213900  0.13262300  0.85120000  1
  Li  Li3  1  0.11213900  0.36737700  0.35120000  1
  Li  Li4  1  0.13354700  0.84575700  0.40689100  1
  Li  Li5  1  0.13354700  0.65424300  0.90689100  1
  Li  Li6  1  0.14235500  0.86137900  0.13276700  1
  Li  Li7  1  0.14235500  0.63862100  0.63276700  1
  Li  Li8  1  0.14907200  0.10374500  0.40040900  1
  Li  Li9  1  0.14907200  0.39625500  0.90040900  1
  Li  Li10  1  0.35092800  0.89625500  0.90040900  1
  Li  Li11  1  0.35092800  0.60374500  0.40040900  1
  Li  Li12  1  0.35764500  0.13862100  0.63276700  1
  Li  Li13  1  0.35764500  0.36137900  0.13276700  1
  Li  Li14  1  0.36645300  0.34575700  0.40689100  1
  Li  Li15  1  0.36645300  0.15424300  0.90689100  1
  Li  Li16  1  0.38786100  0.63262300  0.85120000  1
  Li  Li17  1  0.38786100  0.86737700  0.35120000  1
  Li  Li18  1  0.37820400  0.40336900  0.64693400  1
  Li  Li19  1  0.37820400  0.09663100  0.14693400  1
  Li  Li20  1  0.62179600  0.59663100  0.35306600  1
  Li  Li21  1  0.62179600  0.90336900  0.85306600  1
  Li  Li22  1  0.61213900  0.13262300  0.64880000  1
  Li  Li23  1  0.61213900  0.36737700  0.14880000  1
  Li  Li24  1  0.63354700  0.65424300  0.59310900  1
  Li  Li25  1  0.63354700  0.84575700  0.09310900  1
  Li  Li26  1  0.64235500  0.63862100  0.86723300  1
  Li  Li27  1  0.64235500  0.86137900  0.36723300  1
  Li  Li28  1  0.64907200  0.10374500  0.09959100  1
  Li  Li29  1  0.64907200  0.39625500  0.59959100  1
  Li  Li30  1  0.85092800  0.60374500  0.09959100  1
  Li  Li31  1  0.85092800  0.89625500  0.59959100  1
  Li  Li32  1  0.85764500  0.36137900  0.36723300  1
  Li  Li33  1  0.85764500  0.13862100  0.86723300  1
  Li  Li34  1  0.86645300  0.15424300  0.59310900  1
  Li  Li35  1  0.86645300  0.34575700  0.09310900  1
  Li  Li36  1  0.88786100  0.63262300  0.64880000  1
  Li  Li37  1  0.88786100  0.86737700  0.14880000  1
  Li  Li38  1  0.87820400  0.09663100  0.35306600  1
  Li  Li39  1  0.87820400  0.40336900  0.85306600  1
  Sb  Sb0  1  0.08298900  0.14540100  0.14506600  1
  Sb  Sb1  1  0.08298900  0.35459900  0.64506600  1
  Sb  Sb2  1  0.41701100  0.64540100  0.14506600  1
  Sb  Sb3  1  0.41701100  0.85459900  0.64506600  1
  Sb  Sb4  1  0.58298900  0.14540100  0.35493400  1
  Sb  Sb5  1  0.58298900  0.35459900  0.85493400  1
  Sb  Sb6  1  0.91701100  0.64540100  0.35493400  1
  Sb  Sb7  1  0.91701100  0.85459900  0.85493400  1
  S  S0  1  0.99686500  0.23280000  0.45730200  1
  S  S1  1  0.99686500  0.26720000  0.95730200  1
  S  S2  1  0.02946400  0.97018200  0.27401600  1
  S  S3  1  0.02946400  0.52981800  0.77401600  1
  S  S4  1  0.21497000  0.03198000  0.01525000  1
  S  S5  1  0.21497000  0.46802000  0.51525000  1
  S  S6  1  0.25414700  0.22668600  0.26092400  1
  S  S7  1  0.25414700  0.27331400  0.76092400  1
  S  S8  1  0.24585300  0.72668600  0.26092400  1
  S  S9  1  0.24585300  0.77331400  0.76092400  1
  S  S10  1  0.28503000  0.53198000  0.01525000  1
  S  S11  1  0.28503000  0.96802000  0.51525000  1
  S  S12  1  0.47053600  0.47018200  0.27401600  1
  S  S13  1  0.47053600  0.02981800  0.77401600  1
  S  S14  1  0.50313500  0.73280000  0.45730200  1
  S  S15  1  0.50313500  0.76720000  0.95730200  1
  S  S16  1  0.49686500  0.23280000  0.04269800  1
  S  S17  1  0.49686500  0.26720000  0.54269800  1
  S  S18  1  0.52946400  0.97018200  0.22598400  1
  S  S19  1  0.52946400  0.52981800  0.72598400  1
  S  S20  1  0.71497000  0.46802000  0.98475000  1
  S  S21  1  0.71497000  0.03198000  0.48475000  1
  S  S22  1  0.75414700  0.22668600  0.23907600  1
  S  S23  1  0.75414700  0.27331400  0.73907600  1
  S  S24  1  0.74585300  0.72668600  0.23907600  1
  S  S25  1  0.74585300  0.77331400  0.73907600  1
  S  S26  1  0.78503000  0.96802000  0.98475000  1
  S  S27  1  0.78503000  0.53198000  0.48475000  1
  S  S28  1  0.97053600  0.02981800  0.72598400  1
  S  S29  1  0.97053600  0.47018200  0.22598400  1
  S  S30  1  0.00313500  0.73280000  0.04269800  1
  S  S31  1  0.00313500  0.76720000  0.54269800  1
loop_
_geom_bond_atom_site_label_1
_geom_bond_atom_site_label_2
_geom_bond_distance
_geom_bond_site_symmetry_2
Li0 S30 2.431998 1_555
Li0 S29 2.454767 1_455
Li0 S8 2.481529 1_555
Li0 S10 2.538074 1_555
Li1 S31 2.431998 1_555
Li1 S28 2.454767 1_465
Li1 S9 2.481529 1_555
Li1 S11 2.538074 1_555
Li2 S1 2.410291 1_455
Li2 S28 2.500495 1_455
Li2 S7 2.545297 1_555
Li2 S4 2.565040 1_556
Li3 S0 2.410291 1_455
Li3 S29 2.500495 1_455
Li3 S6 2.545297 1_555
Li3 S5 2.565040 1_555
Li4 S31 2.376212 1_555
Li4 S2 2.457746 1_555
Li4 S8 2.570030 1_555
Li4 S11 2.582717 1_555
Li5 S30 2.376212 1_556
Li5 S3 2.457746 1_555
Li5 S9 2.570030 1_555
Li5 S10 2.582717 1_556
Li6 S30 2.433158 1_555
Li6 S2 2.470686 1_555
Li6 S8 2.493910 1_555
Li6 S4 2.584067 1_565
Li7 S31 2.433158 1_555
Li7 S3 2.470686 1_555
Li7 S9 2.493910 1_555
Li7 S5 2.584067 1_555
Li8 S0 2.393109 1_455
Li8 S6 2.504358 1_555
Li8 S2 2.563573 1_545
Li8 S11 2.605665 1_545
Li9 S1 2.393109 1_455
Li9 S7 2.504358 1_555
Li9 S3 2.563573 1_555
Li9 S10 2.605665 1_556
Li10 S15 2.393109 1_555
Li10 S9 2.504358 1_555
Li10 S13 2.563573 1_565
Li10 S4 2.605665 1_566
Li11 S14 2.393109 1_555
Li11 S8 2.504358 1_555
Li11 S12 2.563573 1_555
Li11 S5 2.605665 1_555
Li12 S17 2.433158 1_555
Li12 S13 2.470686 1_555
Li12 S7 2.493910 1_555
Li12 S11 2.584067 1_545
Li13 S16 2.433158 1_555
Li13 S12 2.470686 1_555
Li13 S6 2.493910 1_555
Li13 S10 2.584067 1_555
Li14 S17 2.376212 1_555
Li14 S12 2.457746 1_555
Li14 S6 2.570030 1_555
Li14 S5 2.582717 1_555
Li15 S16 2.376212 1_556
Li15 S13 2.457746 1_555
Li15 S7 2.570030 1_555
Li15 S4 2.582717 1_556
Li16 S15 2.410291 1_555
Li16 S19 2.500495 1_555
Li16 S9 2.545297 1_555
Li16 S10 2.565040 1_556
Li17 S14 2.410291 1_555
Li17 S18 2.500495 1_555
Li17 S8 2.545297 1_555
Li17 S11 2.565040 1_555
Li18 S17 2.431998 1_555
Li18 S19 2.454767 1_555
Li18 S7 2.481529 1_555
Li18 S5 2.538074 1_555
Li19 S16 2.431998 1_555
Li19 S18 2.454767 1_545
Li19 S6 2.481529 1_555
Li19 S4 2.538074 1_555
Li20 S14 2.431998 1_555
Li20 S12 2.454767 1_555
Li20 S24 2.481529 1_555
Li20 S27 2.538074 1_555
Li21 S15 2.431998 1_555
Li21 S13 2.454767 1_565
Li21 S25 2.481529 1_555
Li21 S26 2.538074 1_555
Li22 S17 2.410291 1_555
Li22 S13 2.500495 1_555
Li22 S23 2.545297 1_555
Li22 S21 2.565040 1_555
Li23 S16 2.410291 1_555
Li23 S12 2.500495 1_555
Li23 S22 2.545297 1_555
Li23 S20 2.565040 1_554
Li24 S14 2.376212 1_555
Li24 S19 2.457746 1_555
Li24 S25 2.570030 1_555
Li24 S27 2.582717 1_555
Li25 S15 2.376212 1_554
Li25 S18 2.457746 1_555
Li25 S24 2.570030 1_555
Li25 S26 2.582717 1_554
Li26 S15 2.433158 1_555
Li26 S19 2.470686 1_555
Li26 S25 2.493910 1_555
Li26 S20 2.584067 1_555
Li27 S14 2.433158 1_555
Li27 S18 2.470686 1_555
Li27 S24 2.493910 1_555
Li27 S21 2.584067 1_565
Li28 S16 2.393109 1_555
Li28 S22 2.504358 1_555
Li28 S18 2.563573 1_545
Li28 S26 2.605665 1_544
Li29 S17 2.393109 1_555
Li29 S23 2.504358 1_555
Li29 S19 2.563573 1_555
Li29 S27 2.605665 1_555
Li30 S30 2.393109 1_655
Li30 S24 2.504358 1_555
Li30 S29 2.563573 1_555
Li30 S20 2.605665 1_554
Li31 S31 2.393109 1_655
Li31 S25 2.504358 1_555
Li31 S28 2.563573 1_565
Li31 S21 2.605665 1_565
Li32 S0 2.433158 1_555
Li32 S29 2.470686 1_555
Li32 S22 2.493910 1_555
Li32 S27 2.584067 1_555
Li33 S1 2.433158 1_555
Li33 S28 2.470686 1_555
Li33 S23 2.493910 1_555
Li33 S26 2.584067 1_545
Li34 S0 2.376212 1_555
Li34 S28 2.457746 1_555
Li34 S23 2.570030 1_555
Li34 S21 2.582717 1_555
Li35 S1 2.376212 1_554
Li35 S29 2.457746 1_555
Li35 S22 2.570030 1_555
Li35 S20 2.582717 1_554
Li36 S31 2.410291 1_655
Li36 S3 2.500495 1_655
Li36 S25 2.545297 1_555
Li36 S27 2.565040 1_555
Li37 S30 2.410291 1_655
Li37 S2 2.500495 1_655
Li37 S24 2.545297 1_555
Li37 S26 2.565040 1_554
Li38 S0 2.431998 1_555
Li38 S2 2.454767 1_645
Li38 S22 2.481529 1_555
Li38 S21 2.538074 1_555
Li39 S1 2.431998 1_555
Li39 S3 2.454767 1_655
Li39 S23 2.481529 1_555
Li39 S20 2.538074 1_555
S0 Sb1 2.831287 1_655
S1 Sb0 2.831287 1_656
S2 Sb0 2.644363 1_565
S3 Sb1 2.644363 1_555
S4 Sb0 2.530298 1_555
S5 Sb1 2.530298 1_555
S6 Sb0 2.561271 1_555
S7 Sb1 2.561271 1_555
S8 Sb2 2.561271 1_555
S9 Sb3 2.561271 1_555
S10 Sb2 2.530298 1_555
S11 Sb3 2.530298 1_555
S12 Sb2 2.644363 1_555
S13 Sb3 2.644363 1_545
S14 Sb3 2.831287 1_555
S15 Sb2 2.831287 1_556
S16 Sb5 2.831287 1_554
S17 Sb4 2.831287 1_555
S18 Sb4 2.644363 1_565
S19 Sb5 2.644363 1_555
S20 Sb5 2.530298 1_555
S21 Sb4 2.530298 1_555
S22 Sb4 2.561271 1_555
S23 Sb5 2.561271 1_555
S24 Sb6 2.561271 1_555
S25 Sb7 2.561271 1_555
S26 Sb7 2.530298 1_555
S27 Sb6 2.530298 1_555
S28 Sb7 2.644363 1_545
S29 Sb6 2.644363 1_555
S30 Sb7 2.831287 1_454
S31 Sb6 2.831287 1_455
