# generated using pymatgen
data_NaBiCSO7
_symmetry_space_group_name_H-M   'P 1'
_cell_length_a   7.07063300
_cell_length_b   5.72711600
_cell_length_c   9.42468679
_cell_angle_alpha   89.47292075
_cell_angle_beta   90.00000000
_cell_angle_gamma   90.00000000
_symmetry_Int_Tables_number   1
_chemical_formula_structural   NaBiCSO7
_chemical_formula_sum   'Na2 Bi2 C2 S2 O14'
_cell_volume   381.63027903
_cell_formula_units_Z   2
loop_
 _symmetry_equiv_pos_site_id
 _symmetry_equiv_pos_as_xyz
  1  'x, y, z'
loop_
 _atom_site_type_symbol
 _atom_site_label
 _atom_site_symmetry_multiplicity
 _atom_site_fract_x
 _atom_site_fract_y
 _atom_site_fract_z
 _atom_site_occupancy
  Na  Na0  1  0.49186200  0.24665900  0.79384700  1
  Na  Na1  1  0.99186200  0.75334100  0.20615300  1
  Bi  Bi0  1  0.76380500  0.78014800  0.64911200  1
  Bi  Bi1  1  0.26380500  0.21985200  0.35088800  1
  C  C0  1  0.73437500  0.72161300  0.92916800  1
  C  C1  1  0.23437500  0.27838700  0.07083200  1
  S  S0  1  0.25954400  0.72199100  0.58544500  1
  S  S1  1  0.75954400  0.27800900  0.41455500  1
  O  O0  1  0.25113500  0.30581800  0.94226600  1
  O  O1  1  0.73650300  0.93297800  0.86385300  1
  O  O2  1  0.71787100  0.54397900  0.83686000  1
  O  O3  1  0.09530600  0.78996500  0.67512200  1
  O  O4  1  0.42811400  0.84215000  0.64829300  1
  O  O5  1  0.73113000  0.19677900  0.56519400  1
  O  O6  1  0.28820500  0.46554000  0.58499300  1
  O  O7  1  0.78820500  0.53446000  0.41500700  1
  O  O8  1  0.23113000  0.80322100  0.43480600  1
  O  O9  1  0.92811400  0.15785000  0.35170700  1
  O  O10  1  0.59530600  0.21003500  0.32487800  1
  O  O11  1  0.21787100  0.45602100  0.16314000  1
  O  O12  1  0.23650300  0.06702200  0.13614700  1
  O  O13  1  0.75113500  0.69418200  0.05773400  1
loop_
_geom_bond_atom_site_label_1
_geom_bond_atom_site_label_2
_geom_bond_distance
_geom_bond_site_symmetry_2
Na0 O0 2.230982 1_555
Na0 O2 2.372806 1_555
Na0 O1 2.575455 1_545
Na0 O6 2.733879 1_555
Na0 O4 2.740517 1_545
Na0 O5 2.756627 1_555
Na1 O13 2.230982 1_555
Na1 O11 2.372806 1_655
Na1 O12 2.575455 1_665
Na1 O7 2.733879 1_555
Na1 O9 2.740517 1_565
Na1 O8 2.756627 1_655
Bi0 O1 2.220811 1_555
Bi0 O2 2.240959 1_555
Bi0 O3 2.357430 1_655
Bi0 O4 2.399964 1_555
Bi0 O5 2.517464 1_565
Bi0 O7 2.633405 1_555
Bi1 O12 2.220811 1_555
Bi1 O11 2.240959 1_555
Bi1 O10 2.357430 1_555
Bi1 O9 2.399964 1_455
Bi1 O8 2.517464 1_545
Bi1 O6 2.633405 1_555
C0 O13 1.226142 1_556
C0 O2 1.349710 1_555
C0 O1 1.353066 1_555
C1 O0 1.226142 1_554
C1 O11 1.349710 1_555
C1 O12 1.353066 1_555
O3 S0 1.490124 1_555
O4 S0 1.500844 1_555
O5 S1 1.503414 1_555
O6 S0 1.482684 1_555
O7 S1 1.482684 1_555
O8 S0 1.503414 1_555
O9 S1 1.500844 1_555
O10 S1 1.490124 1_555
