# generated using pymatgen
data_LiNb7O12
_symmetry_space_group_name_H-M   'P 1'
_cell_length_a   9.60351900
_cell_length_b   10.40786600
_cell_length_c   10.87106144
_cell_angle_alpha   75.23812623
_cell_angle_beta   90.00000000
_cell_angle_gamma   90.00000000
_symmetry_Int_Tables_number   1
_chemical_formula_structural   LiNb7O12
_chemical_formula_sum   'Li4 Nb28 O48'
_cell_volume   1050.72107233
_cell_formula_units_Z   4
loop_
 _symmetry_equiv_pos_site_id
 _symmetry_equiv_pos_as_xyz
  1  'x, y, z'
loop_
 _atom_site_type_symbol
 _atom_site_label
 _atom_site_symmetry_multiplicity
 _atom_site_fract_x
 _atom_site_fract_y
 _atom_site_fract_z
 _atom_site_occupancy
  Li  Li0  1  0.93071800  0.52764400  0.58048900  1
  Li  Li1  1  0.56928200  0.02764400  0.58048900  1
  Li  Li2  1  0.43071800  0.97235600  0.41951100  1
  Li  Li3  1  0.06928200  0.47235600  0.41951100  1
  Nb  Nb0  1  0.10942500  0.65838600  0.99927600  1
  Nb  Nb1  1  0.12959600  0.96225700  0.85454900  1
  Nb  Nb2  1  0.39057500  0.15838600  0.99927600  1
  Nb  Nb3  1  0.63160600  0.61785900  0.85020900  1
  Nb  Nb4  1  0.37040400  0.46225700  0.85454900  1
  Nb  Nb5  1  0.88088200  0.90741300  0.72164100  1
  Nb  Nb6  1  0.37734000  0.74484700  0.71754600  1
  Nb  Nb7  1  0.86839400  0.11785900  0.85020900  1
  Nb  Nb8  1  0.61911800  0.40741300  0.72164100  1
  Nb  Nb9  1  0.12266000  0.24484700  0.71754600  1
  Nb  Nb10  1  0.62262800  0.68963100  0.57827700  1
  Nb  Nb11  1  0.37016300  0.53684600  0.58730800  1
  Nb  Nb12  1  0.87016300  0.96315400  0.41269200  1
  Nb  Nb13  1  0.87737200  0.18963100  0.57827700  1
  Nb  Nb14  1  0.12262800  0.81036900  0.42172300  1
  Nb  Nb15  1  0.12983700  0.03684600  0.58730800  1
  Nb  Nb16  1  0.62983700  0.46315400  0.41269200  1
  Nb  Nb17  1  0.37737200  0.31036900  0.42172300  1
  Nb  Nb18  1  0.87734000  0.75515300  0.28245400  1
  Nb  Nb19  1  0.38088200  0.59258700  0.27835900  1
  Nb  Nb20  1  0.13160600  0.88214100  0.14979100  1
  Nb  Nb21  1  0.62266000  0.25515300  0.28245400  1
  Nb  Nb22  1  0.11911800  0.09258700  0.27835900  1
  Nb  Nb23  1  0.62959600  0.53774300  0.14545100  1
  Nb  Nb24  1  0.36839400  0.38214100  0.14979100  1
  Nb  Nb25  1  0.60942500  0.84161400  0.00072400  1
  Nb  Nb26  1  0.87040400  0.03774300  0.14545100  1
  Nb  Nb27  1  0.89057500  0.34161400  0.00072400  1
  O  O0  1  0.73400100  0.67785900  0.99969800  1
  O  O1  1  0.00000000  0.50000000  0.00000000  1
  O  O2  1  0.50000000  0.50000000  0.00000000  1
  O  O3  1  0.74929700  0.94720200  0.86043300  1
  O  O4  1  0.00530500  0.78537300  0.86192600  1
  O  O5  1  0.76599900  0.17785900  0.99969800  1
  O  O6  1  0.50791000  0.78858700  0.85988900  1
  O  O7  1  0.25160200  0.62572400  0.86453800  1
  O  O8  1  0.00000000  0.00000000  0.00000000  1
  O  O9  1  0.50000000  0.00000000  0.00000000  1
  O  O10  1  0.75070300  0.44720200  0.86043300  1
  O  O11  1  0.25072400  0.91226900  0.72000200  1
  O  O12  1  0.49469500  0.28537300  0.86192600  1
  O  O13  1  0.99209000  0.28858700  0.85988900  1
  O  O14  1  0.24839800  0.12572400  0.86453800  1
  O  O15  1  0.75180800  0.73365900  0.71391500  1
  O  O16  1  0.24927600  0.41226900  0.72000200  1
  O  O17  1  0.50208300  0.85401900  0.57623400  1
  O  O18  1  0.00301000  0.86620100  0.56974900  1
  O  O19  1  0.74819200  0.23365900  0.71391500  1
  O  O20  1  0.25465700  0.70314700  0.57436600  1
  O  O21  1  0.73780300  0.51831200  0.57108600  1
  O  O22  1  0.99791700  0.35401900  0.57623400  1
  O  O23  1  0.49699000  0.36620100  0.56974900  1
  O  O24  1  0.23780300  0.98168800  0.42891400  1
  O  O25  1  0.24534300  0.20314700  0.57436600  1
  O  O26  1  0.75465700  0.79685300  0.42563400  1
  O  O27  1  0.76219700  0.01831200  0.57108600  1
  O  O28  1  0.50301000  0.63379900  0.43025100  1
  O  O29  1  0.00208300  0.64598100  0.42376600  1
  O  O30  1  0.26219700  0.48168800  0.42891400  1
  O  O31  1  0.74534300  0.29685300  0.42563400  1
  O  O32  1  0.25180800  0.76634100  0.28608500  1
  O  O33  1  0.99699000  0.13379900  0.43025100  1
  O  O34  1  0.49791700  0.14598100  0.42376600  1
  O  O35  1  0.75072400  0.58773100  0.27999800  1
  O  O36  1  0.24819200  0.26634100  0.28608500  1
  O  O37  1  0.75160200  0.87427600  0.13546200  1
  O  O38  1  0.00791000  0.71141300  0.14011100  1
  O  O39  1  0.50530500  0.71462700  0.13807400  1
  O  O40  1  0.74927600  0.08773100  0.27999800  1
  O  O41  1  0.24929700  0.55279800  0.13956700  1
  O  O42  1  0.74839800  0.37427600  0.13546200  1
  O  O43  1  0.49209000  0.21141300  0.14011100  1
  O  O44  1  0.23400100  0.82214100  0.00030200  1
  O  O45  1  0.99469500  0.21462700  0.13807400  1
  O  O46  1  0.25070300  0.05279800  0.13956700  1
  O  O47  1  0.26599900  0.32214100  0.00030200  1
loop_
_geom_bond_atom_site_label_1
_geom_bond_atom_site_label_2
_geom_bond_distance
_geom_bond_site_symmetry_2
Li0 O21 1.859382 1_555
Li0 O22 1.930465 1_555
Li0 O29 1.954491 1_655
Li1 O27 1.859382 1_555
Li1 O17 1.930465 1_545
Li1 O34 1.954491 1_555
Li2 O24 1.859382 1_555
Li2 O34 1.930465 1_565
Li2 O17 1.954491 1_555
Li3 O30 1.859382 1_555
Li3 O29 1.930465 1_555
Li3 O22 1.954491 1_455
Nb0 O1 1.953251 1_556
Nb0 O4 1.992594 1_555
Nb0 O38 2.007403 1_556
Nb0 O44 2.084678 1_556
Nb0 O7 2.092630 1_555
Nb0 O41 2.117522 1_556
Nb1 O11 2.037410 1_555
Nb1 O14 2.074175 1_565
Nb1 O44 2.113069 1_556
Nb1 O8 2.126037 1_566
Nb1 O4 2.178342 1_555
Nb2 O9 1.953251 1_556
Nb2 O12 1.992594 1_555
Nb2 O43 2.007403 1_556
Nb2 O47 2.084678 1_556
Nb2 O14 2.092630 1_555
Nb2 O46 2.117522 1_556
Nb3 O15 2.017530 1_555
Nb3 O10 2.091582 1_555
Nb3 O0 2.124870 1_555
Nb3 O6 2.162160 1_555
Nb3 O2 2.176192 1_556
Nb4 O16 2.037410 1_555
Nb4 O7 2.074175 1_555
Nb4 O47 2.113069 1_556
Nb4 O2 2.126037 1_556
Nb4 O12 2.178342 1_555
Nb5 O27 2.085048 1_565
Nb5 O3 2.088856 1_555
Nb5 O4 2.092786 1_655
Nb5 O18 2.155704 1_655
Nb5 O15 2.211632 1_555
Nb6 O17 2.048565 1_555
Nb6 O20 2.084107 1_555
Nb6 O6 2.129104 1_555
Nb6 O7 2.130522 1_555
Nb6 O11 2.130564 1_555
Nb7 O19 2.017530 1_555
Nb7 O3 2.091582 1_545
Nb7 O5 2.124870 1_555
Nb7 O13 2.162160 1_555
Nb7 O8 2.176192 1_656
Nb8 O21 2.085048 1_555
Nb8 O10 2.088856 1_555
Nb8 O12 2.092786 1_555
Nb8 O23 2.155704 1_555
Nb8 O19 2.211632 1_555
Nb9 O22 2.048565 1_455
Nb9 O25 2.084107 1_555
Nb9 O13 2.129104 1_455
Nb9 O14 2.130522 1_555
Nb9 O16 2.130564 1_555
Nb10 O17 2.061207 1_555
Nb10 O15 2.065816 1_555
Nb10 O21 2.116575 1_555
Nb10 O26 2.159380 1_555
Nb10 O28 2.173328 1_555
Nb11 O20 2.030262 1_555
Nb11 O16 2.038785 1_555
Nb11 O28 2.164034 1_555
Nb11 O23 2.201601 1_555
Nb11 O30 2.207568 1_555
Nb12 O26 2.030262 1_555
Nb12 O40 2.038785 1_565
Nb12 O18 2.164034 1_655
Nb12 O33 2.201601 1_565
Nb12 O27 2.207568 1_565
Nb13 O22 2.061207 1_555
Nb13 O19 2.065816 1_555
Nb13 O27 2.116575 1_555
Nb13 O31 2.159380 1_555
Nb13 O33 2.173328 1_555
Nb14 O29 2.061207 1_555
Nb14 O32 2.065816 1_555
Nb14 O24 2.116575 1_555
Nb14 O20 2.159380 1_555
Nb14 O18 2.173328 1_555
Nb15 O25 2.030262 1_555
Nb15 O11 2.038785 1_545
Nb15 O33 2.164034 1_455
Nb15 O18 2.201601 1_545
Nb15 O24 2.207568 1_545
Nb16 O31 2.030262 1_555
Nb16 O35 2.038785 1_555
Nb16 O23 2.164034 1_555
Nb16 O28 2.201601 1_555
Nb16 O21 2.207568 1_555
Nb17 O34 2.061207 1_555
Nb17 O36 2.065816 1_555
Nb17 O30 2.116575 1_555
Nb17 O25 2.159380 1_555
Nb17 O23 2.173328 1_555
Nb18 O29 2.048565 1_655
Nb18 O26 2.084107 1_555
Nb18 O38 2.129104 1_655
Nb18 O37 2.130522 1_555
Nb18 O35 2.130564 1_555
Nb19 O30 2.085048 1_555
Nb19 O41 2.088856 1_555
Nb19 O39 2.092786 1_555
Nb19 O28 2.155704 1_555
Nb19 O32 2.211632 1_555
Nb20 O32 2.017530 1_555
Nb20 O46 2.091582 1_565
Nb20 O44 2.124870 1_555
Nb20 O38 2.162160 1_555
Nb20 O8 2.176192 1_565
Nb21 O34 2.048565 1_555
Nb21 O31 2.084107 1_555
Nb21 O43 2.129104 1_555
Nb21 O42 2.130522 1_555
Nb21 O40 2.130564 1_555
Nb22 O24 2.085048 1_545
Nb22 O46 2.088856 1_555
Nb22 O45 2.092786 1_455
Nb22 O33 2.155704 1_455
Nb22 O36 2.211632 1_555
Nb23 O35 2.037410 1_555
Nb23 O42 2.074175 1_555
Nb23 O0 2.113069 1_554
Nb23 O2 2.126037 1_555
Nb23 O39 2.178342 1_555
Nb24 O36 2.017530 1_555
Nb24 O41 2.091582 1_555
Nb24 O47 2.124870 1_555
Nb24 O43 2.162160 1_555
Nb24 O2 2.176192 1_555
Nb25 O9 1.953251 1_565
Nb25 O39 1.992594 1_555
Nb25 O6 2.007403 1_554
Nb25 O0 2.084678 1_554
Nb25 O37 2.092630 1_555
Nb25 O3 2.117522 1_554
Nb26 O40 2.037410 1_555
Nb26 O37 2.074175 1_545
Nb26 O5 2.113069 1_554
Nb26 O8 2.126037 1_655
Nb26 O45 2.178342 1_555
Nb27 O1 1.953251 1_655
Nb27 O45 1.992594 1_555
Nb27 O13 2.007403 1_554
Nb27 O5 2.084678 1_554
Nb27 O42 2.092630 1_555
Nb27 O10 2.117522 1_554
