# generated using pymatgen
data_Li4Ti3Co2Sn3O16
_symmetry_space_group_name_H-M   'P 1'
_cell_length_a   6.13929230
_cell_length_b   6.10674452
_cell_length_c   9.84454581
_cell_angle_alpha   89.99566026
_cell_angle_beta   89.22890115
_cell_angle_gamma   119.83269135
_symmetry_Int_Tables_number   1
_chemical_formula_structural   Li4Ti3Co2Sn3O16
_chemical_formula_sum   'Li4 Ti3 Co2 Sn3 O16'
_cell_volume   320.13380186
_cell_formula_units_Z   1
loop_
 _symmetry_equiv_pos_site_id
 _symmetry_equiv_pos_as_xyz
  1  'x, y, z'
loop_
 _atom_site_type_symbol
 _atom_site_label
 _atom_site_symmetry_multiplicity
 _atom_site_fract_x
 _atom_site_fract_y
 _atom_site_fract_z
 _atom_site_occupancy
  Li  Li0  1  0.33725100  0.66864100  0.88560500  1
  Li  Li1  1  0.97951600  0.98975800  0.99615600  1
  Li  Li2  1  0.98750100  0.99369600  0.50154100  1
  Li  Li3  1  0.67035700  0.33524500  0.39258400  1
  Ti  Ti0  1  0.66142400  0.83072800  0.21731300  1
  Ti  Ti1  1  0.83018800  0.16744900  0.71618500  1
  Ti  Ti2  1  0.83084700  0.66225100  0.71653000  1
  Co  Co0  1  0.33042300  0.66528700  0.49375900  1
  Co  Co1  1  0.67325000  0.33670100  0.99310700  1
  Sn  Sn0  1  0.16947000  0.83115400  0.21415400  1
  Sn  Sn1  1  0.16949000  0.33836100  0.21415700  1
  Sn  Sn2  1  0.34117300  0.17066400  0.71280000  1
  O  O0  1  0.15317300  0.83601700  0.60225300  1
  O  O1  1  0.02962900  0.51482300  0.33668800  1
  O  O2  1  0.35055100  0.67528500  0.09772400  1
  O  O3  1  0.98687200  0.99343900  0.31882300  1
  O  O4  1  0.99040300  0.99523300  0.81459000  1
  O  O5  1  0.15331300  0.31727100  0.60227900  1
  O  O6  1  0.49084900  0.96396100  0.33459100  1
  O  O7  1  0.49101900  0.52691300  0.33464300  1
  O  O8  1  0.31329700  0.15667300  0.09525600  1
  O  O9  1  0.68957000  0.84507500  0.61361900  1
  O  O10  1  0.52917500  0.49318100  0.83188600  1
  O  O11  1  0.52926000  0.03619400  0.83193900  1
  O  O12  1  0.68950600  0.34476000  0.60261300  1
  O  O13  1  0.83034700  0.68154700  0.10540300  1
  O  O14  1  0.96177300  0.48116500  0.82624500  1
  O  O15  1  0.83037900  0.14882700  0.10539900  1
loop_
_geom_bond_atom_site_label_1
_geom_bond_atom_site_label_2
_geom_bond_distance
_geom_bond_site_symmetry_2
Li0 O10 2.013836 1_555
Li0 O11 2.014268 1_565
Li0 O2 2.090517 1_556
Li0 O14 2.092038 1_455
Li1 O4 1.787473 1_555
Li1 O13 1.948367 1_556
Li1 O15 1.948606 1_566
Li1 O8 2.041004 1_666
Li2 O3 1.798831 1_555
Li2 O9 1.918474 1_555
Li2 O0 1.986484 1_655
Li2 O5 1.987576 1_665
Li3 O1 1.982694 1_655
Li3 O7 2.050987 1_555
Li3 O6 2.052397 1_545
Li3 O12 2.071738 1_555
Co0 O5 2.123565 1_555
Co0 O0 2.123595 1_555
Co0 O6 2.218730 1_555
Co0 O7 2.219770 1_555
Co0 O1 2.243730 1_555
Co0 O9 2.262971 1_555
Co1 O13 2.143680 1_556
Co1 O15 2.144429 1_556
Co1 O8 2.150860 1_556
Co1 O14 2.231812 1_555
Co1 O11 2.256249 1_555
Co1 O10 2.256781 1_555
O0 Ti2 2.039168 1_455
O0 Sn2 2.092896 1_565
O1 Sn0 2.060481 1_555
O1 Sn1 2.060705 1_555
O2 Ti0 2.046404 1_555
O2 Sn1 2.114861 1_555
O2 Sn0 2.115275 1_555
O3 Ti0 2.014119 1_555
O3 Sn1 2.091504 1_665
O3 Sn0 2.091653 1_655
O4 Ti1 2.016603 1_565
O4 Ti2 2.017492 1_555
O4 Sn2 2.106116 1_665
O5 Ti1 2.040585 1_455
O5 Sn2 2.092005 1_555
O6 Ti0 1.976594 1_555
O6 Sn0 2.104147 1_555
O7 Ti0 1.976574 1_555
O7 Sn1 2.105011 1_555
O8 Sn0 2.080091 1_545
O8 Sn1 2.080295 1_555
O9 Ti1 1.993300 1_565
O9 Ti2 2.003019 1_555
O10 Ti2 1.956130 1_555
O10 Sn2 2.088221 1_555
O11 Ti1 1.955528 1_555
O11 Sn2 2.088795 1_555
O12 Ti2 2.030362 1_555
O12 Ti1 2.030944 1_555
O12 Sn2 2.134372 1_555
O13 Ti0 2.007136 1_555
O13 Sn0 2.117346 1_655
O14 Ti2 1.985734 1_555
O14 Ti1 1.995206 1_555
O15 Ti0 2.006846 1_545
O15 Sn1 2.117316 1_655
