# generated using pymatgen
data_Li2NiSnO4
_symmetry_space_group_name_H-M   'P 1'
_cell_length_a   5.98818842
_cell_length_b   5.98816700
_cell_length_c   9.85296215
_cell_angle_alpha   72.30954786
_cell_angle_beta   107.69047143
_cell_angle_gamma   89.99880530
_symmetry_Int_Tables_number   1
_chemical_formula_structural   Li2NiSnO4
_chemical_formula_sum   'Li8 Ni4 Sn4 O16'
_cell_volume   319.02106682
_cell_formula_units_Z   4
loop_
 _symmetry_equiv_pos_site_id
 _symmetry_equiv_pos_as_xyz
  1  'x, y, z'
loop_
 _atom_site_type_symbol
 _atom_site_label
 _atom_site_symmetry_multiplicity
 _atom_site_fract_x
 _atom_site_fract_y
 _atom_site_fract_z
 _atom_site_occupancy
  Li  Li0  1  0.87499800  0.62500100  0.25000000  1
  Li  Li1  1  0.37499800  0.12500100  0.25000000  1
  Li  Li2  1  0.62499900  0.37500100  0.75000000  1
  Li  Li3  1  0.12499800  0.87500100  0.75000000  1
  Li  Li4  1  0.50000000  0.00000000  0.00000100  1
  Li  Li5  1  0.99999900  0.50000000  0.00000100  1
  Li  Li6  1  0.24999900  0.75000000  0.50000100  1
  Li  Li7  1  0.74999900  0.25000000  0.50000000  1
  Ni  Ni0  1  0.74999500  0.75000000  0.50000300  1
  Ni  Ni1  1  0.49999500  0.49999800  0.99999900  1
  Ni  Ni2  1  0.25000200  0.25000000  0.49999900  1
  Ni  Ni3  1  0.00001700  0.00000400  0.99999900  1
  Sn  Sn0  1  0.37500700  0.62499800  0.25000000  1
  Sn  Sn1  1  0.87500500  0.12499600  0.24999900  1
  Sn  Sn2  1  0.12500200  0.37499500  0.75000100  1
  Sn  Sn3  1  0.62500800  0.87499400  0.75000100  1
  O  O0  1  0.48968200  0.51032000  0.47935700  1
  O  O1  1  0.98967400  0.01032200  0.47935700  1
  O  O2  1  0.23967700  0.26032500  0.97935700  1
  O  O3  1  0.73967900  0.76031700  0.97935600  1
  O  O4  1  0.26032400  0.73968100  0.02064300  1
  O  O5  1  0.76031600  0.23967900  0.02064200  1
  O  O6  1  0.01032000  0.48968400  0.52064200  1
  O  O7  1  0.51031900  0.98967600  0.52064300  1
  O  O8  1  0.63154400  0.86845500  0.26309300  1
  O  O9  1  0.13154300  0.36845500  0.26309100  1
  O  O10  1  0.38154400  0.61845600  0.76309300  1
  O  O11  1  0.88154400  0.11845500  0.76309200  1
  O  O12  1  0.61845300  0.38154700  0.23690700  1
  O  O13  1  0.11845300  0.88154700  0.23690800  1
  O  O14  1  0.36845400  0.13154600  0.73690900  1
  O  O15  1  0.86845300  0.63154600  0.73690700  1
loop_
_geom_bond_atom_site_label_1
_geom_bond_atom_site_label_2
_geom_bond_distance
_geom_bond_site_symmetry_2
Li0 O9 2.120319 1_655
Li0 O8 2.120325 1_555
Li0 O12 2.120360 1_555
Li0 O13 2.120368 1_655
Li0 O6 2.407827 1_655
Li0 O3 2.407844 1_554
Li1 O8 2.120316 1_545
Li1 O9 2.120320 1_555
Li1 O13 2.120360 1_545
Li1 O12 2.120369 1_555
Li1 O2 2.407835 1_554
Li1 O7 2.407835 1_545
Li2 O11 2.120315 1_555
Li2 O10 2.120334 1_555
Li2 O15 2.120360 1_555
Li2 O14 2.120364 1_555
Li2 O5 2.407827 1_556
Li2 O0 2.407835 1_555
Li3 O10 2.120311 1_555
Li3 O11 2.120321 1_465
Li3 O15 2.120365 1_455
Li3 O14 2.120368 1_565
Li3 O1 2.407835 1_465
Li3 O4 2.407835 1_556
Li4 O2 2.125086 1_554
Li4 O5 2.125091 1_555
Li4 O4 2.125091 1_545
Li4 O3 2.125101 1_544
Li4 O14 2.340656 1_554
Li4 O8 2.340656 1_545
Li5 O3 2.125036 1_554
Li5 O2 2.125059 1_654
Li5 O5 2.125129 1_555
Li5 O4 2.125138 1_655
Li5 O9 2.340638 1_655
Li5 O15 2.340674 1_554
Li6 O1 2.125082 1_465
Li6 O6 2.125091 1_555
Li6 O7 2.125096 1_555
Li6 O0 2.125101 1_555
Li6 O10 2.340656 1_555
Li6 O13 2.340665 1_555
Li7 O0 2.125043 1_555
Li7 O1 2.125054 1_555
Li7 O7 2.125130 1_545
Li7 O6 2.125134 1_655
Li7 O11 2.340656 1_555
Li7 O12 2.340665 1_555
Ni0 O15 2.107669 1_555
Ni0 O8 2.107722 1_555
Ni0 O7 2.125034 1_555
Ni0 O6 2.125074 1_655
Ni0 O0 2.125086 1_555
Ni0 O1 2.125120 1_565
Ni1 O10 2.107687 1_555
Ni1 O12 2.107705 1_556
Ni1 O5 2.125056 1_556
Ni1 O4 2.125063 1_556
Ni1 O2 2.125075 1_555
Ni1 O3 2.125126 1_555
Ni2 O9 2.107705 1_555
Ni2 O14 2.107722 1_555
Ni2 O7 2.125056 1_545
Ni2 O6 2.125108 1_555
Ni2 O0 2.125112 1_555
Ni2 O1 2.125138 1_455
Ni3 O11 2.107696 1_455
Ni3 O13 2.107713 1_546
Ni3 O4 2.125010 1_546
Ni3 O2 2.125032 1_555
Ni3 O5 2.125151 1_456
Ni3 O3 2.125219 1_445
O0 Sn0 2.040525 1_555
O1 Sn1 2.040534 1_555
O2 Sn2 2.040516 1_555
O3 Sn3 2.040508 1_555
O4 Sn0 2.040525 1_555
O5 Sn1 2.040525 1_555
O6 Sn2 2.040543 1_555
O7 Sn3 2.040534 1_555
O8 Sn0 2.120339 1_555
O8 Sn1 2.120374 1_565
O9 Sn1 2.120352 1_455
O9 Sn0 2.120393 1_555
O10 Sn3 2.120373 1_555
O10 Sn2 2.120377 1_555
O11 Sn3 2.120351 1_545
O11 Sn2 2.120355 1_655
O12 Sn0 2.120279 1_555
O12 Sn1 2.120366 1_555
O13 Sn1 2.120270 1_465
O13 Sn0 2.120366 1_555
O14 Sn2 2.120291 1_555
O14 Sn3 2.120379 1_545
O15 Sn3 2.120267 1_555
O15 Sn2 2.120346 1_655
