# generated using pymatgen
data_Rb2CoO3
_symmetry_space_group_name_H-M   'P 1'
_cell_length_a   6.72103490
_cell_length_b   6.72103490
_cell_length_c   13.34539600
_cell_angle_alpha   90.00000000
_cell_angle_beta   90.00000000
_cell_angle_gamma   127.50100229
_symmetry_Int_Tables_number   1
_chemical_formula_structural   Rb2CoO3
_chemical_formula_sum   'Rb8 Co4 O12'
_cell_volume   478.26058599
_cell_formula_units_Z   4
loop_
 _symmetry_equiv_pos_site_id
 _symmetry_equiv_pos_as_xyz
  1  'x, y, z'
loop_
 _atom_site_type_symbol
 _atom_site_label
 _atom_site_symmetry_multiplicity
 _atom_site_fract_x
 _atom_site_fract_y
 _atom_site_fract_z
 _atom_site_occupancy
  Rb  Rb0  1  0.94098200  0.05901800  0.14044900  1
  Rb  Rb1  1  0.86345400  0.13654600  0.57630600  1
  Rb  Rb2  1  0.63654600  0.36345400  0.07630600  1
  Rb  Rb3  1  0.44098200  0.55901800  0.35955100  1
  Rb  Rb4  1  0.05901800  0.94098200  0.85955100  1
  Rb  Rb5  1  0.55901800  0.44098200  0.64044900  1
  Rb  Rb6  1  0.36345400  0.63654600  0.92369400  1
  Rb  Rb7  1  0.13654600  0.86345400  0.42369400  1
  Co  Co0  1  0.75656200  0.24343800  0.32931000  1
  Co  Co1  1  0.25656200  0.74343800  0.17069000  1
  Co  Co2  1  0.74343800  0.25656200  0.82931000  1
  Co  Co3  1  0.24343800  0.75656200  0.67069000  1
  O  O0  1  0.47107800  0.02892200  0.25000000  1
  O  O1  1  0.02892200  0.47107800  0.75000000  1
  O  O2  1  0.89933300  0.10066700  0.35988100  1
  O  O3  1  0.66838400  0.33161600  0.43592100  1
  O  O4  1  0.33161600  0.66838400  0.56407900  1
  O  O5  1  0.16838400  0.83161600  0.06407900  1
  O  O6  1  0.83161600  0.16838400  0.93592100  1
  O  O7  1  0.39933300  0.60066700  0.14011900  1
  O  O8  1  0.60066700  0.39933300  0.85988100  1
  O  O9  1  0.10066700  0.89933300  0.64011900  1
  O  O10  1  0.97107800  0.52892200  0.25000000  1
  O  O11  1  0.52892200  0.97107800  0.75000000  1
loop_
_geom_bond_atom_site_label_1
_geom_bond_atom_site_label_2
_geom_bond_distance
_geom_bond_site_symmetry_2
Co0 O2 1.768921 1_555
Co0 O3 1.776054 1_555
Co0 O0 1.874121 1_555
Co0 O10 1.874121 1_555
Co1 O7 1.768921 1_555
Co1 O5 1.776054 1_555
Co1 O0 1.874121 1_565
Co1 O10 1.874121 1_455
Co2 O8 1.768921 1_555
Co2 O6 1.776054 1_555
Co2 O1 1.874121 1_655
Co2 O11 1.874121 1_545
Co3 O9 1.768921 1_555
Co3 O4 1.776054 1_555
Co3 O1 1.874121 1_555
Co3 O11 1.874121 1_555
O0 Rb2 2.936127 1_555
O0 Rb7 2.936127 1_545
O1 Rb1 2.936127 1_455
O1 Rb6 2.936127 1_555
O2 Rb1 2.920488 1_555
O2 Rb0 2.971142 1_555
O2 Rb7 2.983917 1_645
O2 Rb3 3.014697 1_655
O2 Rb3 3.014697 1_545
O3 Rb3 2.924848 1_555
O3 Rb7 3.001702 1_655
O3 Rb7 3.001702 1_545
O3 Rb1 3.006769 1_555
O3 Rb5 3.031280 1_555
O4 Rb5 2.924848 1_555
O4 Rb1 3.001702 1_455
O4 Rb1 3.001702 1_565
O4 Rb7 3.006769 1_555
O4 Rb3 3.031280 1_555
O5 Rb0 2.924848 1_465
O5 Rb2 3.001702 1_565
O5 Rb2 3.001702 1_455
O5 Rb6 3.006769 1_554
O5 Rb4 3.031280 1_554
O6 Rb4 2.924848 1_645
O6 Rb6 3.001702 1_655
O6 Rb6 3.001702 1_545
O6 Rb2 3.006769 1_556
O6 Rb0 3.031280 1_556
O7 Rb6 2.920488 1_554
O7 Rb3 2.971142 1_555
O7 Rb2 2.983917 1_555
O7 Rb0 3.014697 1_455
O7 Rb0 3.014697 1_565
O8 Rb2 2.920488 1_556
O8 Rb5 2.971142 1_555
O8 Rb6 2.983917 1_555
O8 Rb4 3.014697 1_545
O8 Rb4 3.014697 1_655
O9 Rb7 2.920488 1_555
O9 Rb4 2.971142 1_555
O9 Rb1 2.983917 1_465
O9 Rb5 3.014697 1_565
O9 Rb5 3.014697 1_455
O10 Rb2 2.936127 1_555
O10 Rb7 2.936127 1_655
O11 Rb1 2.936127 1_565
O11 Rb6 2.936127 1_555
