# generated using pymatgen
data_Mn3O5F
_symmetry_space_group_name_H-M   'P 1'
_cell_length_a   4.54121602
_cell_length_b   4.54121602
_cell_length_c   9.00405169
_cell_angle_alpha   89.64699227
_cell_angle_beta   89.64699227
_cell_angle_gamma   88.25421871
_symmetry_Int_Tables_number   1
_chemical_formula_structural   Mn3O5F
_chemical_formula_sum   'Mn6 O10 F2'
_cell_volume   185.59431669
_cell_formula_units_Z   2
loop_
 _symmetry_equiv_pos_site_id
 _symmetry_equiv_pos_as_xyz
  1  'x, y, z'
loop_
 _atom_site_type_symbol
 _atom_site_label
 _atom_site_symmetry_multiplicity
 _atom_site_fract_x
 _atom_site_fract_y
 _atom_site_fract_z
 _atom_site_occupancy
  Mn  Mn0  1  0.99383700  0.99383700  0.84019300  1
  Mn  Mn1  1  0.00616300  0.00616300  0.15980700  1
  Mn  Mn2  1  0.00000000  0.00000000  0.50000000  1
  Mn  Mn3  1  0.52310400  0.52310400  0.66747300  1
  Mn  Mn4  1  0.50000000  0.50000000  0.00000000  1
  Mn  Mn5  1  0.47689600  0.47689600  0.33252700  1
  O  O0  1  0.80643500  0.80643500  0.00127600  1
  O  O1  1  0.81145800  0.81145800  0.67032800  1
  O  O2  1  0.69882600  0.30914900  0.83388500  1
  O  O3  1  0.69085100  0.30117400  0.16611500  1
  O  O4  1  0.69247100  0.30752900  0.50000000  1
  O  O5  1  0.30914900  0.69882600  0.83388500  1
  O  O6  1  0.30117400  0.69085100  0.16611500  1
  O  O7  1  0.30752900  0.69247100  0.50000000  1
  O  O8  1  0.19356500  0.19356500  0.99872400  1
  O  O9  1  0.18854200  0.18854200  0.32967200  1
  F  F0  1  0.78999700  0.78999700  0.32273800  1
  F  F1  1  0.21000300  0.21000300  0.67726200  1
loop_
_geom_bond_atom_site_label_1
_geom_bond_atom_site_label_2
_geom_bond_distance
_geom_bond_site_symmetry_2
Mn0 O0 1.888354 1_556
Mn0 O5 1.931692 1_655
Mn0 O2 1.931692 1_565
Mn0 O8 1.940332 1_665
Mn0 O1 1.945304 1_555
Mn1 O8 1.888354 1_554
Mn1 O6 1.931692 1_545
Mn1 O3 1.931692 1_455
Mn1 O0 1.940332 1_445
Mn1 O9 1.945304 1_555
Mn2 O7 1.944711 1_545
Mn2 O4 1.944711 1_455
Mn2 O1 1.957180 1_445
Mn2 O9 1.957180 1_555
Mn3 O1 1.880275 1_555
Mn3 O5 1.943072 1_555
Mn3 O2 1.943072 1_555
Mn3 O7 1.944696 1_555
Mn3 O4 1.944696 1_555
Mn4 O6 1.937835 1_555
Mn4 O3 1.937835 1_555
Mn4 O2 1.937835 1_554
Mn4 O5 1.937835 1_554
Mn4 O8 1.997886 1_554
Mn4 O0 1.997886 1_555
Mn5 O9 1.880275 1_555
Mn5 O6 1.943072 1_555
Mn5 O3 1.943072 1_555
Mn5 O7 1.944696 1_555
Mn5 O4 1.944696 1_555
F0 Mn1 2.025519 1_665
F0 Mn5 2.042359 1_555
F0 Mn2 2.111719 1_665
F1 Mn0 2.025519 1_445
F1 Mn3 2.042359 1_555
F1 Mn2 2.111719 1_555
