# generated using pymatgen
data_Na5Mn2P2(CO7)2
_symmetry_space_group_name_H-M   'P 1'
_cell_length_a   6.63488400
_cell_length_b   9.07438898
_cell_length_c   10.52729796
_cell_angle_alpha   90.90544440
_cell_angle_beta   90.24676241
_cell_angle_gamma   90.30310545
_symmetry_Int_Tables_number   1
_chemical_formula_structural   Na5Mn2P2(CO7)2
_chemical_formula_sum   'Na10 Mn4 P4 C4 O28'
_cell_volume   633.72836462
_cell_formula_units_Z   2
loop_
 _symmetry_equiv_pos_site_id
 _symmetry_equiv_pos_as_xyz
  1  'x, y, z'
loop_
 _atom_site_type_symbol
 _atom_site_label
 _atom_site_symmetry_multiplicity
 _atom_site_fract_x
 _atom_site_fract_y
 _atom_site_fract_z
 _atom_site_occupancy
  Na  Na0  1  0.25929000  0.07069500  0.61923500  1
  Na  Na1  1  0.00587900  0.25567000  0.36871200  1
  Na  Na2  1  0.49328800  0.25536500  0.36676800  1
  Na  Na3  1  0.00771100  0.25274800  0.88429800  1
  Na  Na4  1  0.49201500  0.25354100  0.88560800  1
  Na  Na5  1  0.49801100  0.75125700  0.12607800  1
  Na  Na6  1  0.00492100  0.75195600  0.12335300  1
  Na  Na7  1  0.98779700  0.73729200  0.62351200  1
  Na  Na8  1  0.74055200  0.91631900  0.38889800  1
  Na  Na9  1  0.74068400  0.91678200  0.87530300  1
  Mn  Mn0  1  0.75160400  0.35653800  0.11123600  1
  Mn  Mn1  1  0.74813800  0.35665100  0.61031400  1
  Mn  Mn2  1  0.25647000  0.64786700  0.39585300  1
  Mn  Mn3  1  0.25462200  0.64828900  0.88320500  1
  P  P0  1  0.25109600  0.42516800  0.14890800  1
  P  P1  1  0.24797300  0.41809200  0.64857600  1
  P  P2  1  0.75183700  0.58202900  0.34782800  1
  P  P3  1  0.75190400  0.57866500  0.85162900  1
  C  C0  1  0.75020500  0.06339000  0.13496600  1
  C  C1  1  0.75320600  0.06575800  0.63553500  1
  C  C2  1  0.24671900  0.93376500  0.36556500  1
  C  C3  1  0.24619300  0.93392600  0.86099300  1
  O  O0  1  0.24835500  0.07469000  0.37269100  1
  O  O1  1  0.25024800  0.07518400  0.85746400  1
  O  O2  1  0.74940400  0.13044300  0.02573300  1
  O  O3  1  0.74652800  0.13394000  0.52620100  1
  O  O4  1  0.74963800  0.14416400  0.23833800  1
  O  O5  1  0.74536900  0.14625900  0.73947000  1
  O  O6  1  0.06302300  0.33128300  0.11309500  1
  O  O7  1  0.43938600  0.33312900  0.11351300  1
  O  O8  1  0.06384700  0.31836700  0.61508400  1
  O  O9  1  0.43331900  0.32363000  0.61198600  1
  O  O10  1  0.25123200  0.45131900  0.29857200  1
  O  O11  1  0.74824600  0.43072700  0.41349200  1
  O  O12  1  0.25076400  0.44579000  0.79695800  1
  O  O13  1  0.75135900  0.42749500  0.91757600  1
  O  O14  1  0.25083500  0.57544000  0.08231300  1
  O  O15  1  0.75900000  0.55811500  0.20049600  1
  O  O16  1  0.24069700  0.56646000  0.58142500  1
  O  O17  1  0.75743900  0.55271100  0.70648100  1
  O  O18  1  0.56446900  0.67848300  0.37764300  1
  O  O19  1  0.93784600  0.67756900  0.38884100  1
  O  O20  1  0.56722200  0.67379500  0.89198300  1
  O  O21  1  0.93765300  0.67598500  0.89111200  1
  O  O22  1  0.25075800  0.85581800  0.26247600  1
  O  O23  1  0.23365300  0.85401400  0.75834800  1
  O  O24  1  0.24308100  0.85936800  0.47316700  1
  O  O25  1  0.25714000  0.86293200  0.96877200  1
  O  O26  1  0.75139300  0.92203000  0.13898900  1
  O  O27  1  0.76588100  0.92582100  0.63783000  1
loop_
_geom_bond_atom_site_label_1
_geom_bond_atom_site_label_2
_geom_bond_distance
_geom_bond_site_symmetry_2
Na0 O24 2.440640 1_545
Na0 O23 2.475761 1_545
Na0 O1 2.508576 1_555
Na0 O9 2.566205 1_555
Na0 O0 2.596975 1_555
Na0 O8 2.601544 1_555
Na1 O0 2.305783 1_555
Na1 O11 2.383192 1_455
Na1 O4 2.390775 1_455
Na1 O10 2.523582 1_555
Na1 O3 2.644298 1_455
Na1 O8 2.672264 1_555
Na1 O6 2.814281 1_555
Na2 O0 2.304076 1_555
Na2 O11 2.361222 1_555
Na2 O4 2.394567 1_555
Na2 O10 2.513400 1_555
Na2 O3 2.628306 1_555
Na2 O9 2.677129 1_555
Na2 O7 2.790666 1_555
Na3 O1 2.298378 1_555
Na3 O13 2.355058 1_455
Na3 O5 2.490147 1_455
Na3 O6 2.525738 1_556
Na3 O2 2.537711 1_456
Na3 O12 2.558973 1_555
Na3 O8 2.930097 1_555
Na4 O1 2.287721 1_555
Na4 O13 2.348479 1_555
Na4 O5 2.476381 1_555
Na4 O7 2.520897 1_556
Na4 O2 2.527996 1_556
Na4 O12 2.558253 1_555
Na5 O26 2.282549 1_555
Na5 O14 2.321594 1_555
Na5 O22 2.376344 1_555
Na5 O25 2.524038 1_554
Na5 O20 2.595494 1_554
Na5 O15 2.597669 1_555
Na5 O18 2.773503 1_555
Na6 O26 2.293535 1_455
Na6 O14 2.329452 1_555
Na6 O22 2.369244 1_555
Na6 O15 2.538121 1_455
Na6 O25 2.553455 1_554
Na6 O21 2.566305 1_454
Na6 O19 2.920988 1_455
Na7 O27 2.266681 1_555
Na7 O16 2.329632 1_655
Na7 O23 2.389955 1_655
Na7 O17 2.436194 1_555
Na7 O19 2.540750 1_555
Na7 O24 2.580641 1_655
Na7 O21 2.900330 1_555
Na8 O3 2.428796 1_565
Na8 O18 2.449671 1_555
Na8 O19 2.537180 1_555
Na8 O27 2.625269 1_555
Na8 O4 2.625582 1_565
Na8 O26 2.633480 1_555
Na9 O2 2.484210 1_566
Na9 O20 2.490858 1_555
Na9 O27 2.508856 1_555
Na9 O5 2.544756 1_565
Na9 O21 2.559303 1_555
Na9 O26 2.776154 1_556
Mn0 O15 2.043438 1_555
Mn0 O6 2.080146 1_655
Mn0 O7 2.081554 1_555
Mn0 O13 2.147658 1_554
Mn0 O2 2.227328 1_555
Mn0 O4 2.363444 1_555
Mn1 O17 2.033563 1_555
Mn1 O9 2.108789 1_555
Mn1 O8 2.125628 1_655
Mn1 O11 2.188395 1_555
Mn1 O3 2.193543 1_555
Mn1 O5 2.361328 1_555
Mn2 O10 2.042639 1_555
Mn2 O18 2.070998 1_555
Mn2 O24 2.075304 1_555
Mn2 O16 2.102297 1_555
Mn2 O19 2.133669 1_455
Mn2 O22 2.370199 1_555
Mn3 O12 2.036714 1_555
Mn3 O20 2.087211 1_555
Mn3 O21 2.121170 1_455
Mn3 O25 2.132961 1_555
Mn3 O14 2.207987 1_556
Mn3 O23 2.304516 1_555
C0 O26 1.284188 1_545
C0 O4 1.302444 1_555
C0 O2 1.309461 1_555
C1 O27 1.273671 1_545
C1 O5 1.307339 1_555
C1 O3 1.316018 1_555
C2 O0 1.279809 1_565
C2 O22 1.286459 1_555
C2 O24 1.328054 1_555
C3 O1 1.283098 1_565
C3 O23 1.293921 1_555
C3 O25 1.315506 1_555
O6 P0 1.549069 1_555
O7 P0 1.549941 1_555
O8 P1 1.552477 1_555
O9 P1 1.549265 1_555
O10 P0 1.589611 1_555
O11 P2 1.547017 1_555
O12 P1 1.578241 1_555
O13 P3 1.547198 1_555
O14 P0 1.543114 1_555
O15 P2 1.563676 1_555
O16 P1 1.531403 1_555
O17 P3 1.543001 1_555
O18 P2 1.554428 1_555
O19 P2 1.559944 1_555
O20 P3 1.559236 1_555
O21 P3 1.563331 1_555
