# generated using pymatgen
data_Na2WO6
_symmetry_space_group_name_H-M   'P 1'
_cell_length_a   9.33011000
_cell_length_b   10.74435000
_cell_length_c   12.88520700
_cell_angle_alpha   90.00000000
_cell_angle_beta   90.00000000
_cell_angle_gamma   90.00000000
_symmetry_Int_Tables_number   1
_chemical_formula_structural   Na2WO6
_chemical_formula_sum   'Na16 W8 O48'
_cell_volume   1291.69004059
_cell_formula_units_Z   8
loop_
 _symmetry_equiv_pos_site_id
 _symmetry_equiv_pos_as_xyz
  1  'x, y, z'
loop_
 _atom_site_type_symbol
 _atom_site_label
 _atom_site_symmetry_multiplicity
 _atom_site_fract_x
 _atom_site_fract_y
 _atom_site_fract_z
 _atom_site_occupancy
  Na  Na0  1  0.07497800  0.38029500  0.33985800  1
  Na  Na1  1  0.42502200  0.88029500  0.66014200  1
  Na  Na2  1  0.57497800  0.61970500  0.16014200  1
  Na  Na3  1  0.92502200  0.11970500  0.83985800  1
  Na  Na4  1  0.92502200  0.61970500  0.66014200  1
  Na  Na5  1  0.57497800  0.11970500  0.33985800  1
  Na  Na6  1  0.42502200  0.38029500  0.83985800  1
  Na  Na7  1  0.07497800  0.88029500  0.16014200  1
  Na  Na8  1  0.78801700  0.89937900  0.58791600  1
  Na  Na9  1  0.71198300  0.39937900  0.41208400  1
  Na  Na10  1  0.28801700  0.10062100  0.91208400  1
  Na  Na11  1  0.21198300  0.60062100  0.08791600  1
  Na  Na12  1  0.21198300  0.10062100  0.41208400  1
  Na  Na13  1  0.28801700  0.60062100  0.58791600  1
  Na  Na14  1  0.71198300  0.89937900  0.08791600  1
  Na  Na15  1  0.78801700  0.39937900  0.91208400  1
  W  W0  1  0.07601200  0.72447700  0.43421700  1
  W  W1  1  0.42398800  0.22447700  0.56578300  1
  W  W2  1  0.57601200  0.27552300  0.06578300  1
  W  W3  1  0.92398800  0.77552300  0.93421700  1
  W  W4  1  0.92398800  0.27552300  0.56578300  1
  W  W5  1  0.57601200  0.77552300  0.43421700  1
  W  W6  1  0.42398800  0.72447700  0.93421700  1
  W  W7  1  0.07601200  0.22447700  0.06578300  1
  O  O0  1  0.01806600  0.79993500  0.31496400  1
  O  O1  1  0.48193400  0.29993500  0.68503600  1
  O  O2  1  0.51806600  0.20006500  0.18503600  1
  O  O3  1  0.98193400  0.70006500  0.81496400  1
  O  O4  1  0.98193400  0.20006500  0.68503600  1
  O  O5  1  0.51806600  0.70006500  0.31496400  1
  O  O6  1  0.48193400  0.79993500  0.81496400  1
  O  O7  1  0.01806600  0.29993500  0.18503600  1
  O  O8  1  0.13446200  0.56657300  0.41315900  1
  O  O9  1  0.36553800  0.06657300  0.58684100  1
  O  O10  1  0.63446200  0.43342700  0.08684100  1
  O  O11  1  0.86553800  0.93342700  0.91315900  1
  O  O12  1  0.86553800  0.43342700  0.58684100  1
  O  O13  1  0.63446200  0.93342700  0.41315900  1
  O  O14  1  0.36553800  0.56657300  0.91315900  1
  O  O15  1  0.13446200  0.06657300  0.08684100  1
  O  O16  1  0.09598600  0.75010200  0.57603600  1
  O  O17  1  0.40401400  0.25010200  0.42396400  1
  O  O18  1  0.59598600  0.24989800  0.92396400  1
  O  O19  1  0.90401400  0.74989800  0.07603600  1
  O  O20  1  0.90401400  0.24989800  0.42396400  1
  O  O21  1  0.59598600  0.74989800  0.57603600  1
  O  O22  1  0.40401400  0.75010200  0.07603600  1
  O  O23  1  0.09598600  0.25010200  0.92396400  1
  O  O24  1  0.00073700  0.98360400  0.45242000  1
  O  O25  1  0.49926300  0.48360400  0.54758000  1
  O  O26  1  0.50073700  0.01639600  0.04758000  1
  O  O27  1  0.99926300  0.51639600  0.95242000  1
  O  O28  1  0.99926300  0.01639600  0.54758000  1
  O  O29  1  0.50073700  0.51639600  0.45242000  1
  O  O30  1  0.49926300  0.98360400  0.95242000  1
  O  O31  1  0.00073700  0.48360400  0.04758000  1
  O  O32  1  0.25849400  0.82422000  0.40983600  1
  O  O33  1  0.24150600  0.32422000  0.59016400  1
  O  O34  1  0.75849400  0.17578000  0.09016400  1
  O  O35  1  0.74150600  0.67578000  0.90983600  1
  O  O36  1  0.74150600  0.17578000  0.59016400  1
  O  O37  1  0.75849400  0.67578000  0.40983600  1
  O  O38  1  0.24150600  0.82422000  0.90983600  1
  O  O39  1  0.25849400  0.32422000  0.09016400  1
  O  O40  1  0.86822500  0.70850900  0.48720700  1
  O  O41  1  0.63177500  0.20850900  0.51279300  1
  O  O42  1  0.36822500  0.29149100  0.01279300  1
  O  O43  1  0.13177500  0.79149100  0.98720700  1
  O  O44  1  0.13177500  0.29149100  0.51279300  1
  O  O45  1  0.36822500  0.79149100  0.48720700  1
  O  O46  1  0.63177500  0.70850900  0.98720700  1
  O  O47  1  0.86822500  0.20850900  0.01279300  1
loop_
_geom_bond_atom_site_label_1
_geom_bond_atom_site_label_2
_geom_bond_distance
_geom_bond_site_symmetry_2
Na0 O7 2.237660 1_555
Na0 O8 2.281631 1_555
Na0 O20 2.383638 1_455
Na0 O44 2.481237 1_555
Na1 O6 2.237660 1_555
Na1 O9 2.281631 1_565
Na1 O21 2.383638 1_555
Na1 O45 2.481237 1_555
Na2 O5 2.237660 1_555
Na2 O10 2.281631 1_555
Na2 O22 2.383638 1_555
Na2 O46 2.481237 1_554
Na3 O4 2.237660 1_555
Na3 O11 2.281631 1_545
Na3 O23 2.383638 1_655
Na3 O47 2.481237 1_556
Na4 O3 2.237660 1_555
Na4 O12 2.281631 1_555
Na4 O16 2.383638 1_655
Na4 O40 2.481237 1_555
Na5 O2 2.237660 1_555
Na5 O13 2.281631 1_545
Na5 O17 2.383638 1_555
Na5 O41 2.481237 1_555
Na6 O1 2.237660 1_555
Na6 O14 2.281631 1_555
Na6 O18 2.383638 1_555
Na6 O42 2.481237 1_556
Na7 O0 2.237660 1_555
Na7 O15 2.281631 1_565
Na7 O19 2.383638 1_455
Na7 O43 2.481237 1_554
Na8 O28 2.394890 1_565
Na8 O21 2.411015 1_555
Na8 O40 2.539609 1_555
Na8 O13 2.693868 1_555
Na8 O36 3.001427 1_565
Na9 O29 2.394890 1_555
Na9 O20 2.411015 1_555
Na9 O41 2.539609 1_555
Na9 O12 2.693868 1_555
Na9 O37 3.001427 1_555
Na10 O30 2.394890 1_545
Na10 O23 2.411015 1_555
Na10 O42 2.539609 1_556
Na10 O15 2.693868 1_556
Na10 O38 3.001427 1_545
Na11 O31 2.394890 1_555
Na11 O22 2.411015 1_555
Na11 O43 2.539609 1_554
Na11 O14 2.693868 1_554
Na11 O39 3.001427 1_555
Na12 O24 2.394890 1_545
Na12 O17 2.411015 1_555
Na12 O44 2.539609 1_555
Na12 O9 2.693868 1_555
Na12 O32 3.001427 1_545
Na13 O25 2.394890 1_555
Na13 O16 2.411015 1_555
Na13 O45 2.539609 1_555
Na13 O8 2.693868 1_555
Na13 O33 3.001427 1_555
Na14 O26 2.394890 1_565
Na14 O19 2.411015 1_555
Na14 O46 2.539609 1_554
Na14 O11 2.693868 1_554
Na14 O34 3.001427 1_565
Na15 O27 2.394890 1_555
Na15 O18 2.411015 1_555
Na15 O47 2.539609 1_556
Na15 O10 2.693868 1_556
Na15 O35 3.001427 1_555
O0 W0 1.819545 1_555
O1 W1 1.819545 1_555
O2 W2 1.819545 1_555
O3 W3 1.819545 1_555
O4 W4 1.819545 1_555
O5 W5 1.819545 1_555
O6 W6 1.819545 1_555
O7 W7 1.819545 1_555
O8 W0 1.802608 1_555
O9 W1 1.802608 1_555
O10 W2 1.802608 1_555
O11 W3 1.802608 1_555
O12 W4 1.802608 1_555
O13 W5 1.802608 1_555
O14 W6 1.802608 1_555
O15 W7 1.802608 1_555
O16 W0 1.857365 1_555
O17 W1 1.857365 1_555
O18 W2 1.857365 1_556
O19 W3 1.857365 1_554
O20 W4 1.857365 1_555
O21 W5 1.857365 1_555
O22 W6 1.857365 1_554
O23 W7 1.857365 1_556
O24 O28 1.275846 1_465
O25 O29 1.275846 1_555
O26 O30 1.275846 1_544
O27 O31 1.275846 1_656
O32 O45 1.471639 1_555
O32 W0 2.036160 1_555
O33 O44 1.471639 1_555
O33 W1 2.036160 1_555
O34 O47 1.471639 1_555
O34 W2 2.036160 1_555
O35 O46 1.471639 1_555
O35 W3 2.036160 1_555
O36 O41 1.471639 1_555
O36 W4 2.036160 1_555
O37 O40 1.471639 1_555
O37 W5 2.036160 1_555
O38 O43 1.471639 1_555
O38 W6 2.036160 1_555
O39 O42 1.471639 1_555
O39 W7 2.036160 1_555
O40 W0 2.062546 1_655
O41 W1 2.062546 1_555
O42 W2 2.062546 1_555
O43 W3 2.062546 1_455
O44 W4 2.062546 1_455
O45 W5 2.062546 1_555
O46 W6 2.062546 1_555
O47 W7 2.062546 1_655
