# generated using pymatgen
data_Li2FePCO7
_symmetry_space_group_name_H-M   'P 1'
_cell_length_a   5.07988100
_cell_length_b   10.03253612
_cell_length_c   11.16778702
_cell_angle_alpha   106.09222172
_cell_angle_beta   88.42501498
_cell_angle_gamma   96.35065400
_symmetry_Int_Tables_number   1
_chemical_formula_structural   Li2FePCO7
_chemical_formula_sum   'Li8 Fe4 P4 C4 O28'
_cell_volume   543.49598842
_cell_formula_units_Z   4
loop_
 _symmetry_equiv_pos_site_id
 _symmetry_equiv_pos_as_xyz
  1  'x, y, z'
loop_
 _atom_site_type_symbol
 _atom_site_label
 _atom_site_symmetry_multiplicity
 _atom_site_fract_x
 _atom_site_fract_y
 _atom_site_fract_z
 _atom_site_occupancy
  Li  Li0  1  0.71568900  0.12014100  0.84619500  1
  Li  Li1  1  0.69305800  0.61223400  0.34352800  1
  Li  Li2  1  0.60214900  0.33288200  0.08713600  1
  Li  Li3  1  0.35756900  0.10295500  0.30368300  1
  Li  Li4  1  0.32906400  0.61462800  0.85232900  1
  Li  Li5  1  0.23369800  0.31296000  0.53839100  1
  Li  Li6  1  0.18603500  0.68039800  0.57136000  1
  Li  Li7  1  0.19830400  0.88761600  0.04657600  1
  Fe  Fe0  1  0.78061800  0.42087000  0.73635700  1
  Fe  Fe1  1  0.78512600  0.91885500  0.24128800  1
  Fe  Fe2  1  0.16637100  0.00310400  0.63999700  1
  Fe  Fe3  1  0.16055800  0.50734100  0.13839100  1
  P  P0  1  0.69961600  0.12326900  0.52518600  1
  P  P1  1  0.69871100  0.62463700  0.02236000  1
  P  P2  1  0.24901000  0.30266300  0.85640800  1
  P  P3  1  0.25047600  0.80215500  0.35215500  1
  C  C0  1  0.72942700  0.06594300  0.09413200  1
  C  C1  1  0.65182700  0.55142600  0.58494600  1
  C  C2  1  0.23457300  0.36744100  0.28714600  1
  C  C3  1  0.28458100  0.87739400  0.79386800  1
  O  O0  1  0.96094800  0.04277200  0.12671700  1
  O  O1  1  0.81995200  0.01316800  0.57222000  1
  O  O2  1  0.85726600  0.26888800  0.58157100  1
  O  O3  1  0.89977900  0.55034100  0.61284600  1
  O  O4  1  0.70741200  0.08648000  0.38047900  1
  O  O5  1  0.80669900  0.50733800  0.06796800  1
  O  O6  1  0.71705300  0.59197900  0.87839600  1
  O  O7  1  0.85885000  0.76596800  0.08419800  1
  O  O8  1  0.54457700  0.29444200  0.81362100  1
  O  O9  1  0.69183900  0.14341600  0.02601500  1
  O  O10  1  0.57068100  0.61599300  0.51344200  1
  O  O11  1  0.40122100  0.13246500  0.56261900  1
  O  O12  1  0.48210600  0.47832800  0.64171200  1
  O  O13  1  0.43181700  0.44242300  0.24435900  1
  O  O14  1  0.54424200  0.78738600  0.31049700  1
  O  O15  1  0.27983900  0.29538300  0.35978700  1
  O  O16  1  0.45270700  0.97254400  0.76747200  1
  O  O17  1  0.32178700  0.81501700  0.87630800  1
  O  O18  1  0.39837300  0.62929000  0.05536500  1
  O  O19  1  0.52794100  0.00056600  0.14217000  1
  O  O20  1  0.08302600  0.16223600  0.79703400  1
  O  O21  1  0.24901800  0.33741600  0.00043600  1
  O  O22  1  0.13147100  0.42080100  0.81475900  1
  O  O23  1  0.22979500  0.83398900  0.49465200  1
  O  O24  1  0.00335400  0.37577800  0.24537400  1
  O  O25  1  0.07908300  0.66181600  0.29409400  1
  O  O26  1  0.14795700  0.92070000  0.30645900  1
  O  O27  1  0.06754200  0.84764400  0.72541200  1
loop_
_geom_bond_atom_site_label_1
_geom_bond_atom_site_label_2
_geom_bond_distance
_geom_bond_site_symmetry_2
Li0 O16 1.911942 1_545
Li0 O9 1.958306 1_556
Li0 O20 1.964617 1_655
Li0 O8 2.156868 1_555
Li1 O10 1.972131 1_555
Li1 O25 2.067492 1_655
Li1 O13 2.103500 1_555
Li1 O14 2.112802 1_555
Li2 O9 1.934388 1_555
Li2 O5 1.995494 1_555
Li2 O13 2.023984 1_555
Li2 O21 2.072550 1_555
Li3 O15 1.939060 1_555
Li3 O26 2.019157 1_545
Li3 O19 2.035046 1_555
Li3 O4 2.036792 1_555
Li4 O17 1.957618 1_555
Li4 O22 2.025826 1_555
Li4 O6 2.046524 1_555
Li4 O18 2.265946 1_556
Li4 O12 2.521584 1_555
Li5 O15 1.962897 1_555
Li5 O2 1.991263 1_455
Li5 O12 2.057155 1_555
Li5 O11 2.168333 1_555
Li6 O23 1.950183 1_555
Li6 O3 1.977384 1_455
Li6 O10 2.152199 1_555
Li6 O27 2.168809 1_555
Li7 O17 1.951272 1_554
Li7 O19 2.058069 1_565
Li7 O0 2.064322 1_465
Li7 O7 2.101992 1_455
Fe0 O8 2.001127 1_555
Fe0 O22 2.007384 1_655
Fe0 O2 2.024303 1_555
Fe0 O6 2.037718 1_555
Fe0 O12 2.090033 1_555
Fe0 O3 2.174766 1_555
Fe1 O26 1.996483 1_655
Fe1 O14 1.997629 1_555
Fe1 O4 2.016000 1_565
Fe1 O7 2.042030 1_555
Fe1 O19 2.103248 1_565
Fe1 O0 2.133956 1_565
Fe2 O1 1.958264 1_455
Fe2 O11 2.019127 1_555
Fe2 O23 2.045145 1_545
Fe2 O27 2.054194 1_545
Fe2 O20 2.088127 1_555
Fe2 O16 2.165837 1_545
Fe3 O5 1.981779 1_455
Fe3 O18 2.014037 1_555
Fe3 O21 2.038920 1_555
Fe3 O25 2.050643 1_555
Fe3 O24 2.096651 1_555
Fe3 O13 2.106877 1_555
C0 O9 1.260105 1_555
C0 O0 1.304063 1_555
C0 O19 1.334909 1_555
C1 O10 1.261396 1_555
C1 O3 1.307745 1_555
C1 O12 1.330731 1_555
C2 O15 1.267182 1_555
C2 O24 1.295263 1_555
C2 O13 1.343273 1_555
C3 O17 1.276761 1_555
C3 O16 1.299757 1_555
C3 O27 1.317636 1_555
O1 P0 1.535703 1_555
O2 P0 1.559193 1_555
O4 P0 1.555149 1_555
O5 P1 1.560668 1_555
O6 P1 1.551585 1_556
O7 P1 1.543378 1_555
O8 P2 1.567028 1_555
O11 P0 1.567061 1_555
O14 P3 1.561371 1_555
O18 P1 1.562385 1_555
O20 P2 1.544511 1_555
O21 P2 1.548502 1_554
O22 P2 1.566858 1_555
O23 P3 1.536877 1_555
O25 P3 1.553886 1_555
O26 P3 1.560189 1_555
