# generated using pymatgen
data_LiCoBO3
_symmetry_space_group_name_H-M   'P 1'
_cell_length_a   3.16536700
_cell_length_b   14.26019647
_cell_length_c   14.26733576
_cell_angle_alpha   60.07404771
_cell_angle_beta   89.07989630
_cell_angle_gamma   88.92895122
_symmetry_Int_Tables_number   1
_chemical_formula_structural   LiCoBO3
_chemical_formula_sum   'Li9 Co9 B9 O27'
_cell_volume   558.03015116
_cell_formula_units_Z   9
loop_
 _symmetry_equiv_pos_site_id
 _symmetry_equiv_pos_as_xyz
  1  'x, y, z'
loop_
 _atom_site_type_symbol
 _atom_site_label
 _atom_site_symmetry_multiplicity
 _atom_site_fract_x
 _atom_site_fract_y
 _atom_site_fract_z
 _atom_site_occupancy
  Li  Li0  1  0.51077500  0.87713800  0.90561200  1
  Li  Li1  1  0.48139500  0.56604700  0.88225700  1
  Li  Li2  1  0.56232600  0.88108000  0.55127200  1
  Li  Li3  1  0.50718200  0.21666800  0.87814400  1
  Li  Li4  1  0.45126600  0.55232000  0.56664500  1
  Li  Li5  1  0.50262700  0.25534000  0.54648600  1
  Li  Li6  1  0.49110900  0.90589600  0.21708300  1
  Li  Li7  1  0.48879000  0.54660400  0.19857500  1
  Li  Li8  1  0.50207700  0.19806000  0.25603400  1
  Co  Co0  1  0.05590100  0.81309900  0.74921100  1
  Co  Co1  1  0.99854700  0.43640300  0.81480900  1
  Co  Co2  1  0.01234800  0.10834500  0.77401600  1
  Co  Co3  1  0.95199000  0.75012300  0.43783500  1
  Co  Co4  1  0.97193300  0.47075500  0.42362100  1
  Co  Co5  1  0.02540800  0.10580100  0.47121300  1
  Co  Co6  1  0.98656000  0.77402400  0.11857100  1
  Co  Co7  1  0.98742600  0.42285500  0.10693300  1
  Co  Co8  1  0.00842600  0.11776400  0.10846300  1
  B  B0  1  0.00328600  0.66193900  0.99137700  1
  B  B1  1  0.00023800  0.66696800  0.66691900  1
  B  B2  1  0.99260800  0.34696800  0.66279800  1
  B  B3  1  0.00764900  0.99096200  0.34703900  1
  B  B4  1  0.53104800  0.01512100  0.66837900  1
  B  B5  1  0.46677200  0.66818800  0.31727500  1
  B  B6  1  0.99732600  0.33309100  0.33399100  1
  B  B7  1  0.00485100  0.99965100  0.00034300  1
  B  B8  1  0.50249500  0.31621900  0.01629300  1
  O  O0  1  0.00226100  0.91232800  0.98249500  1
  O  O1  1  0.96625400  0.56918600  0.98327800  1
  O  O2  1  0.09607700  0.76109100  0.90043100  1
  O  O3  1  0.56059900  0.91317700  0.68039600  1
  O  O4  1  0.50076600  0.40615200  0.91442600  1
  O  O5  1  0.01155200  0.58763900  0.77418000  1
  O  O6  1  0.08453700  0.77261900  0.63809900  1
  O  O7  1  0.01704700  0.10474500  0.91320000  1
  O  O8  1  0.05601000  0.98245700  0.44777600  1
  O  O9  1  0.07806000  0.33795200  0.76246700  1
  O  O10  1  0.90549900  0.64078000  0.58874600  1
  O  O11  1  0.89454500  0.90124200  0.33895800  1
  O  O12  1  0.94859000  0.25420400  0.65569100  1
  O  O13  1  0.95773600  0.44822900  0.57026300  1
  O  O14  1  0.51599500  0.02625700  0.75967600  1
  O  O15  1  0.45085300  0.68054900  0.40712900  1
  O  O16  1  0.47013700  0.56427500  0.33168700  1
  O  O17  1  0.51674800  0.10446200  0.56465000  1
  O  O18  1  0.99490700  0.98187200  0.10551300  1
  O  O19  1  0.47974500  0.75940200  0.21507300  1
  O  O20  1  0.00224400  0.32981300  0.43281400  1
  O  O21  1  0.99981100  0.23748800  0.33063500  1
  O  O22  1  0.98961000  0.43186100  0.23871300  1
  O  O23  1  0.95369200  0.65508100  0.09134200  1
  O  O24  1  0.06414400  0.09007900  0.25412300  1
  O  O25  1  0.49626700  0.33052000  0.10579400  1
  O  O26  1  0.50977500  0.21402200  0.02678600  1
loop_
_geom_bond_atom_site_label_1
_geom_bond_atom_site_label_2
_geom_bond_distance
_geom_bond_site_symmetry_2
Li0 O14 2.107111 1_565
Li0 O0 2.123271 1_555
Li0 O0 2.123337 1_655
Li0 O2 2.161825 1_555
Li0 O2 2.485864 1_655
Li1 O5 2.065704 1_555
Li1 O4 2.089243 1_555
Li1 O1 2.138413 1_555
Li1 O1 2.173570 1_455
Li1 O5 2.179709 1_655
Li2 O6 2.080782 1_555
Li2 O3 2.108162 1_555
Li2 O8 2.143073 1_655
Li2 O8 2.167572 1_555
Li2 O6 2.172015 1_655
Li3 O26 2.102302 1_556
Li3 O7 2.115585 1_555
Li3 O7 2.129639 1_655
Li3 O9 2.167097 1_555
Li3 O9 2.480630 1_655
Li4 O10 2.058459 1_555
Li4 O15 2.090691 1_555
Li4 O13 2.147874 1_555
Li4 O13 2.157339 1_455
Li4 O10 2.230034 1_455
Li5 O17 2.034397 1_555
Li5 O12 2.113089 1_555
Li5 O20 2.126275 1_655
Li5 O20 2.137269 1_555
Li5 O12 2.321965 1_455
Li6 O19 2.104470 1_555
Li6 O18 2.114374 1_455
Li6 O18 2.124399 1_555
Li6 O11 2.147494 1_555
Li6 O11 2.525445 1_455
Li7 O16 2.036446 1_555
Li7 O22 2.125006 1_555
Li7 O23 2.133213 1_555
Li7 O22 2.152819 1_455
Li7 O23 2.286134 1_455
Li8 O25 2.030546 1_555
Li8 O24 2.101505 1_555
Li8 O21 2.118008 1_455
Li8 O21 2.148322 1_555
Li8 O24 2.339894 1_655
Co0 O2 1.905206 1_555
Co0 O6 1.939332 1_555
Co0 O3 2.006601 1_455
Co0 O3 2.046866 1_555
Co1 O9 1.902336 1_655
Co1 O5 1.934962 1_655
Co1 O4 2.007623 1_555
Co1 O4 2.041679 1_655
Co2 O12 1.925806 1_455
Co2 O7 1.960970 1_555
Co2 O14 2.027910 1_555
Co2 O14 2.049063 1_455
Co3 O11 1.904592 1_555
Co3 O10 1.933249 1_555
Co3 O15 2.005657 1_655
Co3 O15 2.051192 1_555
Co4 O20 1.948364 1_655
Co4 O13 1.951775 1_555
Co4 O16 2.062221 1_655
Co4 O16 2.065012 1_555
Co5 O8 1.947917 1_545
Co5 O21 1.948661 1_455
Co5 O17 2.058267 1_555
Co5 O17 2.068027 1_455
Co6 O23 1.924583 1_555
Co6 O0 1.959988 1_654
Co6 O19 2.036324 1_655
Co6 O19 2.041541 1_555
Co7 O22 1.947531 1_555
Co7 O1 1.948519 1_554
Co7 O25 2.061500 1_555
Co7 O25 2.066272 1_655
Co8 O24 1.922590 1_555
Co8 O18 1.960456 1_445
Co8 O26 2.028698 1_455
Co8 O26 2.046122 1_555
B0 O23 1.386567 1_456
B0 O1 1.391147 1_455
B0 O2 1.393505 1_555
B1 O5 1.376899 1_555
B1 O6 1.379685 1_555
B1 O10 1.379797 1_455
B2 O12 1.385914 1_555
B2 O13 1.391728 1_555
B2 O9 1.392998 1_655
B3 O24 1.385440 1_565
B3 O8 1.391501 1_555
B3 O11 1.394283 1_455
B4 O3 1.377771 1_545
B4 O14 1.388623 1_555
B4 O17 1.390733 1_555
B5 O15 1.378455 1_555
B5 O19 1.388325 1_555
B5 O16 1.390558 1_555
B6 O22 1.386258 1_555
B6 O20 1.387544 1_655
B6 O21 1.387699 1_555
B7 O0 1.390098 1_554
B7 O7 1.390963 1_564
B7 O18 1.391390 1_455
B8 O4 1.377425 1_554
B8 O26 1.388517 1_555
B8 O25 1.389758 1_555
