# generated using pymatgen
data_KRe4O8F13
_symmetry_space_group_name_H-M   'P 1'
_cell_length_a   14.36436212
_cell_length_b   14.36436212
_cell_length_c   5.50963709
_cell_angle_alpha   80.70682289
_cell_angle_beta   80.70682289
_cell_angle_gamma   21.77520249
_symmetry_Int_Tables_number   1
_chemical_formula_structural   KRe4O8F13
_chemical_formula_sum   'K1 Re4 O8 F13'
_cell_volume   415.98401768
_cell_formula_units_Z   1
loop_
 _symmetry_equiv_pos_site_id
 _symmetry_equiv_pos_as_xyz
  1  'x, y, z'
loop_
 _atom_site_type_symbol
 _atom_site_label
 _atom_site_symmetry_multiplicity
 _atom_site_fract_x
 _atom_site_fract_y
 _atom_site_fract_z
 _atom_site_occupancy
  K  K0  1  0.50961700  0.49038300  0.50000000  1
  Re  Re0  1  0.87345800  0.97400900  0.08419900  1
  Re  Re1  1  0.33604000  0.26240500  0.61646500  1
  Re  Re2  1  0.73759500  0.66396000  0.38353500  1
  Re  Re3  1  0.02599100  0.12654200  0.91580100  1
  O  O0  1  0.69672000  0.14093700  0.82697500  1
  O  O1  1  0.91510500  0.81714800  0.17543700  1
  O  O2  1  0.18532100  0.49889400  0.69306500  1
  O  O3  1  0.63663100  0.00509600  0.68993100  1
  O  O4  1  0.99490400  0.36336900  0.31006900  1
  O  O5  1  0.50110600  0.81467900  0.30693500  1
  O  O6  1  0.18285200  0.08489500  0.82456300  1
  O  O7  1  0.85906300  0.30328000  0.17302500  1
  F  F0  1  0.18368200  0.71222000  0.90984000  1
  F  F1  1  0.04755300  0.85588200  0.35397400  1
  F  F2  1  0.58759500  0.25535500  0.28875300  1
  F  F3  1  0.36742900  0.27379200  0.27608500  1
  F  F4  1  0.24903500  0.25603700  0.89568200  1
  F  F5  1  0.98739700  0.53368700  0.50287500  1
  F  F6  1  0.46631300  0.01260300  0.49712500  1
  F  F7  1  0.74396300  0.75096500  0.10431800  1
  F  F8  1  0.72620800  0.63257100  0.72391500  1
  F  F9  1  0.74464500  0.41240500  0.71124700  1
  F  F10  1  0.14411800  0.95244700  0.64602600  1
  F  F11  1  0.28778000  0.81631800  0.09016000  1
  F  F12  1  0.83393000  0.16607000  0.00000000  1
loop_
_geom_bond_atom_site_label_1
_geom_bond_atom_site_label_2
_geom_bond_distance
_geom_bond_site_symmetry_2
K0 O0 3.041685 1_555
K0 O7 3.041685 1_555
O0 Re0 1.720918 1_546
O1 Re0 1.707427 1_555
O2 Re1 1.706894 1_555
O3 Re1 1.705609 1_555
O4 Re2 1.705609 1_555
O5 Re2 1.706894 1_555
O6 Re3 1.707427 1_555
O7 Re3 1.720918 1_654
F0 Re0 1.892724 1_456
F0 K0 2.893670 1_555
F1 Re0 1.961401 1_455
F1 K0 2.811517 1_555
F2 Re0 1.902355 1_545
F2 K0 2.798482 1_555
F3 Re1 1.873998 1_555
F4 Re1 1.866237 1_555
F5 Re1 2.153164 1_655
F5 Re2 2.168668 1_555
F6 Re2 2.153164 1_545
F6 Re1 2.168668 1_555
F7 Re2 1.866237 1_555
F8 Re2 1.873998 1_555
F9 Re3 1.902355 1_655
F9 K0 2.798482 1_555
F10 Re3 1.961401 1_565
F10 K0 2.811517 1_555
F11 Re3 1.892724 1_564
F11 K0 2.893670 1_555
F12 Re0 2.216106 1_545
F12 Re3 2.216106 1_654
F12 K0 3.268955 1_555
F12 K0 3.268955 1_554
