# generated using pymatgen
data_Li4Fe7(OF7)2
_symmetry_space_group_name_H-M   'P 1'
_cell_length_a   6.15558073
_cell_length_b   6.26946748
_cell_length_c   10.85899682
_cell_angle_alpha   90.11699470
_cell_angle_beta   72.61663799
_cell_angle_gamma   120.70671882
_symmetry_Int_Tables_number   1
_chemical_formula_structural   Li4Fe7(OF7)2
_chemical_formula_sum   'Li4 Fe7 O2 F14'
_cell_volume   338.02367807
_cell_formula_units_Z   1
loop_
 _symmetry_equiv_pos_site_id
 _symmetry_equiv_pos_as_xyz
  1  'x, y, z'
loop_
 _atom_site_type_symbol
 _atom_site_label
 _atom_site_symmetry_multiplicity
 _atom_site_fract_x
 _atom_site_fract_y
 _atom_site_fract_z
 _atom_site_occupancy
  Li  Li0  1  0.84631800  0.19608000  0.44484000  1
  Li  Li1  1  0.13506300  0.31654300  0.05704200  1
  Li  Li2  1  0.85394700  0.67372500  0.94759600  1
  Li  Li3  1  0.14412200  0.81275900  0.55808800  1
  Fe  Fe0  1  0.52126600  0.00616700  0.99073000  1
  Fe  Fe1  1  0.52269700  0.27184400  0.25209400  1
  Fe  Fe2  1  0.51395800  0.74231100  0.24260100  1
  Fe  Fe3  1  0.48919400  0.48374700  0.50297800  1
  Fe  Fe4  1  0.49207300  0.24813000  0.74961700  1
  Fe  Fe5  1  0.97827000  0.72951600  0.25232400  1
  Fe  Fe6  1  0.50514500  0.75288700  0.74841400  1
  O  O0  1  0.72864000  0.39669900  0.37602400  1
  O  O1  1  0.74116600  0.62961100  0.13773600  1
  F  F0  1  0.74382600  0.12451900  0.12087500  1
  F  F1  1  0.71391700  0.10056100  0.63732100  1
  F  F2  1  0.26995000  0.10428100  0.12926900  1
  F  F3  1  0.74551900  0.62095900  0.62996200  1
  F  F4  1  0.27248900  0.12432300  0.62918200  1
  F  F5  1  0.25827600  0.64123200  0.12217600  1
  F  F6  1  0.24086900  0.37757400  0.37872900  1
  F  F7  1  0.74326900  0.87588800  0.37566700  1
  F  F8  1  0.70550700  0.35680100  0.87588500  1
  F  F9  1  0.72296100  0.86522400  0.88134600  1
  F  F10  1  0.29303400  0.63591100  0.61304200  1
  F  F11  1  0.28411200  0.40684500  0.86760300  1
  F  F12  1  0.27371100  0.87515600  0.35360200  1
  F  F13  1  0.26070000  0.88070400  0.87525700  1
loop_
_geom_bond_atom_site_label_1
_geom_bond_atom_site_label_2
_geom_bond_distance
_geom_bond_site_symmetry_2
Li0 O0 1.980635 1_555
Li2 O1 1.941984 1_556
Fe1 O0 2.008107 1_555
Fe1 O1 2.077155 1_555
Fe2 O1 1.950984 1_555
Fe3 O0 1.993770 1_555
Fe5 O0 2.005727 1_555
Fe5 O1 2.054058 1_555
F0 Li1 1.942830 1_655
F0 Fe0 2.130521 1_554
F0 Fe1 2.203632 1_555
F0 Fe2 2.218985 1_545
F1 Li0 1.969864 1_555
F1 Fe6 2.020297 1_545
F1 Fe4 2.120950 1_555
F2 Li1 2.144146 1_555
F2 Fe0 2.147609 1_554
F2 Fe5 2.191034 1_445
F2 Fe1 2.206359 1_555
F3 Li3 1.980336 1_655
F3 Fe6 2.153201 1_555
F3 Fe4 2.159328 1_555
F3 Fe3 2.244987 1_555
F4 Li3 1.953951 1_545
F4 Fe4 2.029890 1_555
F4 Fe3 2.141427 1_555
F5 Li1 1.989260 1_555
F5 Fe0 2.177777 1_564
F5 Fe5 2.188627 1_455
F5 Fe2 2.190097 1_555
F6 Li0 1.961585 1_455
F6 Fe3 2.188507 1_555
F6 Fe2 2.200715 1_555
F6 Fe1 2.255043 1_555
F7 Li0 1.993604 1_565
F7 Fe2 2.188201 1_555
F7 Fe5 2.218475 1_555
F7 Fe3 2.279598 1_555
F8 Li2 1.988442 1_555
F8 Fe4 2.056388 1_555
F8 Fe0 2.072161 1_555
F9 Li2 1.986923 1_555
F9 Fe0 1.992008 1_565
F9 Fe6 2.136671 1_555
F10 Li3 1.947600 1_555
F10 Fe3 2.026332 1_555
F10 Fe6 2.137298 1_555
F11 Li1 1.934048 1_556
F11 Fe6 2.043936 1_555
F11 Fe4 2.141506 1_555
F12 Li3 2.084822 1_555
F12 Fe2 2.126564 1_555
F12 Fe5 2.201290 1_455
F12 Fe1 2.204124 1_565
F13 Li2 2.020072 1_455
F13 Fe0 2.161684 1_565
F13 Fe4 2.167337 1_565
F13 Fe6 2.189066 1_555
