# generated using pymatgen
data_Mo2P3Pb2BrO15
_symmetry_space_group_name_H-M   'P 1'
_cell_length_a   17.88321702
_cell_length_b   17.85991727
_cell_length_c   9.29947768
_cell_angle_alpha   75.05819642
_cell_angle_beta   74.78097577
_cell_angle_gamma   30.16082781
_symmetry_Int_Tables_number   1
_chemical_formula_structural   Mo2P3Pb2BrO15
_chemical_formula_sum   'Mo8 P12 Pb8 Br4 O60'
_cell_volume   1437.04968104
_cell_formula_units_Z   4
loop_
 _symmetry_equiv_pos_site_id
 _symmetry_equiv_pos_as_xyz
  1  'x, y, z'
loop_
 _atom_site_type_symbol
 _atom_site_label
 _atom_site_symmetry_multiplicity
 _atom_site_fract_x
 _atom_site_fract_y
 _atom_site_fract_z
 _atom_site_occupancy
  Mo  Mo0  1  0.84464400  0.36153800  0.14740300  1
  Mo  Mo1  1  0.38979500  0.90116700  0.10641100  1
  Mo  Mo2  1  0.14358900  0.64737300  0.86020500  1
  Mo  Mo3  1  0.10259700  0.60358400  0.40535600  1
  Mo  Mo4  1  0.88846200  0.40535600  0.60358400  1
  Mo  Mo5  1  0.64641600  0.14740300  0.36153800  1
  Mo  Mo6  1  0.60262700  0.10641100  0.90116700  1
  Mo  Mo7  1  0.34883300  0.86020500  0.64737300  1
  P  P0  1  0.87302000  0.87684700  0.63271900  1
  P  P1  1  0.87891100  0.88073200  0.12817900  1
  P  P2  1  0.92131700  0.57868300  0.57868300  1
  P  P3  1  0.42466100  0.07533900  0.07533900  1
  P  P4  1  0.37315300  0.37698000  0.63258700  1
  P  P5  1  0.11217800  0.12817900  0.88073200  1
  P  P6  1  0.12182100  0.13782200  0.37108900  1
  P  P7  1  0.17466100  0.82533900  0.82533900  1
  P  P8  1  0.67131700  0.32868300  0.32868300  1
  P  P9  1  0.36926800  0.37108900  0.13782200  1
  P  P10  1  0.61741300  0.63271900  0.87684700  1
  P  P11  1  0.61728100  0.63258700  0.37698000  1
  Pb  Pb0  1  0.17923900  0.32076100  0.32076100  1
  Pb  Pb1  1  0.92923900  0.07076100  0.07076100  1
  Pb  Pb2  1  0.67591100  0.82408900  0.82408900  1
  Pb  Pb3  1  0.94510500  0.11640800  0.55762900  1
  Pb  Pb4  1  0.69237100  0.86914100  0.30489500  1
  Pb  Pb5  1  0.13359200  0.30489500  0.86914100  1
  Pb  Pb6  1  0.38085900  0.55762900  0.11640800  1
  Pb  Pb7  1  0.42591100  0.57408900  0.57408900  1
  Br  Br0  1  0.12677800  0.86790300  0.37175800  1
  Br  Br1  1  0.38209700  0.12322200  0.61643900  1
  Br  Br2  1  0.87824200  0.61643900  0.12322200  1
  Br  Br3  1  0.63356100  0.37175800  0.86790300  1
  O  O0  1  0.08770300  0.60153900  0.91275200  1
  O  O1  1  0.96297000  0.46257900  0.54829000  1
  O  O2  1  0.56047200  0.74940400  0.94413300  1
  O  O3  1  0.25563100  0.43989800  0.56097100  1
  O  O4  1  0.44184600  0.05330600  0.24285400  1
  O  O5  1  0.23679100  0.06033300  0.94254200  1
  O  O6  1  0.26199300  0.24285400  0.05330600  1
  O  O7  1  0.22156500  0.70448000  0.79877800  1
  O  O8  1  0.48088700  0.31759900  0.20972500  1
  O  O9  1  0.19669400  0.80815400  0.98800700  1
  O  O10  1  0.02616100  0.54829000  0.46257900  1
  O  O11  1  0.44605300  0.24113500  0.07575600  1
  O  O12  1  0.99544100  0.18524800  0.00750000  1
  O  O13  1  0.69200500  0.30695900  0.49412600  1
  O  O14  1  0.75587400  0.74309000  0.55799500  1
  O  O15  1  0.50691000  0.49412600  0.30695900  1
  O  O16  1  0.68902900  0.50650000  0.99436900  1
  O  O17  1  0.86110500  0.05815100  0.63774700  1
  O  O18  1  0.33724800  0.85199400  0.16229700  1
  O  O19  1  0.54409400  0.76011800  0.26136800  1
  O  O20  1  0.30745800  0.48966600  0.01320900  1
  O  O21  1  0.17424400  0.01294300  0.80394700  1
  O  O22  1  0.81010200  0.99436900  0.50650000  1
  O  O23  1  0.43442000  0.26136800  0.76011800  1
  O  O24  1  0.74350000  0.56097100  0.43989800  1
  O  O25  1  0.78742100  0.28703000  0.22383900  1
  O  O26  1  0.54552000  0.02843500  0.97482200  1
  O  O27  1  0.50107000  0.30353700  0.51394000  1
  O  O28  1  0.93240100  0.76911300  0.25821200  1
  O  O29  1  0.45122200  0.97482200  0.02843500  1
  O  O30  1  0.94646300  0.74893000  0.56854700  1
  O  O31  1  0.60854500  0.08282100  0.39690400  1
  O  O32  1  0.00714600  0.98800700  0.80815400  1
  O  O33  1  0.98863200  0.81558000  0.70590600  1
  O  O34  1  0.99178800  0.20972500  0.31759900  1
  O  O35  1  0.18966700  0.01320900  0.48966600  1
  O  O36  1  0.68145300  0.51394000  0.30353700  1
  O  O37  1  0.74599000  0.94413400  0.74940400  1
  O  O38  1  0.39800600  0.91275200  0.60153900  1
  O  O39  1  0.16717900  0.64145500  0.33827000  1
  O  O40  1  0.48988200  0.70590600  0.81558000  1
  O  O41  1  0.61225300  0.80700300  0.38889500  1
  O  O42  1  0.64846100  0.16229700  0.85199400  1
  O  O43  1  0.85309600  0.33827000  0.64145500  1
  O  O44  1  0.27517800  0.79877800  0.70448000  1
  O  O45  1  0.30586600  0.50401000  0.68952800  1
  O  O46  1  0.70171000  0.22383900  0.28703000  1
  O  O47  1  0.94304100  0.55799500  0.74309000  1
  O  O48  1  0.06475200  0.25455900  0.43818900  1
  O  O49  1  0.91173000  0.39690400  0.08282100  1
  O  O50  1  0.50059600  0.68952800  0.50401000  1
  O  O51  1  0.73606000  0.56854700  0.74893000  1
  O  O52  1  0.19184900  0.38889500  0.80700300  1
  O  O53  1  0.23705700  0.07575600  0.24113500  1
  O  O54  1  0.00886500  0.80394700  0.01294300  1
  O  O55  1  0.81181100  0.00750000  0.18524800  1
  O  O56  1  0.76033400  0.94254200  0.06033300  1
  O  O57  1  0.24250000  0.43818900  0.25455900  1
  O  O58  1  0.04027500  0.25821200  0.76911300  1
  O  O59  1  0.44299700  0.63774700  0.05815100  1
loop_
_geom_bond_atom_site_label_1
_geom_bond_atom_site_label_2
_geom_bond_distance
_geom_bond_site_symmetry_2
Mo0 O49 1.713313 1_555
Mo0 O36 2.027536 1_555
Mo0 O16 2.047690 1_554
Mo0 O34 2.101645 1_555
Mo0 O12 2.113311 1_555
Mo0 O25 2.192800 1_555
Mo1 O18 1.691082 1_555
Mo1 O19 2.057194 1_555
Mo1 O53 2.059894 1_565
Mo1 O2 2.079717 1_554
Mo1 O5 2.096407 1_564
Mo1 O29 2.247612 1_555
Mo2 O0 1.691082 1_555
Mo2 O33 2.057194 1_455
Mo2 O54 2.059884 1_556
Mo2 O45 2.079711 1_555
Mo2 O20 2.096407 1_556
Mo2 O7 2.247628 1_555
Mo3 O39 1.713329 1_555
Mo3 O30 2.027541 1_455
Mo3 O3 2.047689 1_555
Mo3 O28 2.101644 1_455
Mo3 O57 2.113301 1_555
Mo3 O10 2.192783 1_555
Mo4 O43 1.713312 1_555
Mo4 O51 2.027542 1_555
Mo4 O24 2.047684 1_555
Mo4 O58 2.101658 1_655
Mo4 O48 2.113305 1_655
Mo4 O1 2.192800 1_555
Mo5 O31 1.713330 1_555
Mo5 O27 2.027534 1_555
Mo5 O22 2.047682 1_545
Mo5 O8 2.101657 1_555
Mo5 O55 2.113308 1_555
Mo5 O46 2.192784 1_555
Mo6 O42 1.691082 1_555
Mo6 O23 2.057194 1_555
Mo6 O11 2.059891 1_556
Mo6 O37 2.079711 1_545
Mo6 O56 2.096407 1_546
Mo6 O26 2.247628 1_555
Mo7 O38 1.691082 1_555
Mo7 O40 2.057194 1_555
Mo7 O21 2.059888 1_565
Mo7 O50 2.079711 1_555
Mo7 O35 2.096407 1_565
Mo7 O44 2.247611 1_555
Br0 Pb3 3.051934 1_465
Br0 Pb1 3.357168 1_465
Br0 Pb7 3.368138 1_555
Br1 Pb5 3.051928 1_555
Br1 Pb0 3.357168 1_555
Br1 Pb2 3.368138 1_545
Br2 Pb4 3.051922 1_555
Br2 Pb0 3.357168 1_655
Br2 Pb2 3.368138 1_554
Br3 Pb6 3.051928 1_556
Br3 Pb1 3.357168 1_556
Br3 Pb7 3.368138 1_555
O1 P2 1.566938 1_555
O1 Pb0 2.716272 1_655
O2 P10 1.561967 1_555
O3 P4 1.545429 1_555
O4 P3 1.549890 1_555
O4 Pb4 2.473843 1_545
O4 Pb0 2.569745 1_555
O5 P5 1.551992 1_555
O6 P3 1.549894 1_555
O6 Pb5 2.473843 1_554
O6 Pb0 2.569748 1_555
O7 P7 1.568157 1_555
O7 Pb7 2.632059 1_555
O8 P9 1.554992 1_555
O9 P7 1.549899 1_555
O9 Pb6 2.473843 1_556
O9 Pb1 2.569743 1_466
O10 P2 1.566938 1_455
O10 Pb0 2.716272 1_555
O11 P9 1.539191 1_555
O12 P5 1.560399 1_654
O13 P8 1.548321 1_555
O13 Pb3 2.479448 1_555
O13 Pb7 2.583001 1_555
O14 P2 1.548321 1_555
O14 Pb4 2.479443 1_555
O14 Pb2 2.583001 1_555
O15 P8 1.548321 1_555
O15 Pb6 2.479435 1_555
O15 Pb7 2.583001 1_555
O16 P10 1.545419 1_555
O17 Pb3 2.368469 1_555
O19 P11 1.542005 1_555
O20 P9 1.551992 1_555
O21 P5 1.539206 1_555
O22 P0 1.545423 1_555
O23 P4 1.542009 1_555
O24 P11 1.545414 1_555
O25 P8 1.566938 1_555
O25 Pb1 2.716272 1_555
O26 P3 1.568160 1_556
O26 Pb2 2.632053 1_545
O27 P4 1.550273 1_555
O28 P1 1.554998 1_555
O29 P3 1.568174 1_565
O29 Pb2 2.632061 1_554
O30 P0 1.550268 1_555
O32 P7 1.549893 1_555
O32 Pb3 2.473843 1_465
O32 Pb1 2.569739 1_466
O33 P0 1.542015 1_555
O34 P6 1.555008 1_655
O35 P6 1.551992 1_555
O36 P11 1.550283 1_555
O37 P0 1.561961 1_555
O40 P10 1.542000 1_555
O41 Pb4 2.368453 1_555
O44 P7 1.568169 1_555
O44 Pb7 2.632067 1_555
O45 P4 1.561957 1_555
O46 P8 1.566938 1_555
O46 Pb1 2.716272 1_555
O47 P2 1.548321 1_555
O47 Pb5 2.479445 1_655
O47 Pb2 2.583001 1_555
O48 P6 1.560399 1_555
O50 P11 1.561967 1_555
O51 P10 1.550278 1_555
O52 Pb5 2.368469 1_555
O53 P6 1.539200 1_555
O54 P1 1.539196 1_455
O55 P1 1.560399 1_545
O56 P1 1.551992 1_555
O57 P9 1.560399 1_555
O58 P5 1.555003 1_555
O59 Pb6 2.368452 1_555
