# generated using pymatgen
data_Na5GdO4
_symmetry_space_group_name_H-M   'P 1'
_cell_length_a   10.88045100
_cell_length_b   10.99416400
_cell_length_c   11.01851600
_cell_angle_alpha   90.00000000
_cell_angle_beta   90.00000000
_cell_angle_gamma   90.00000000
_symmetry_Int_Tables_number   1
_chemical_formula_structural   Na5GdO4
_chemical_formula_sum   'Na40 Gd8 O32'
_cell_volume   1318.05100057
_cell_formula_units_Z   8
loop_
 _symmetry_equiv_pos_site_id
 _symmetry_equiv_pos_as_xyz
  1  'x, y, z'
loop_
 _atom_site_type_symbol
 _atom_site_label
 _atom_site_symmetry_multiplicity
 _atom_site_fract_x
 _atom_site_fract_y
 _atom_site_fract_z
 _atom_site_occupancy
  Na  Na0  1  0.17058600  0.89357100  0.12014100  1
  Na  Na1  1  0.32941400  0.89357100  0.62014100  1
  Na  Na2  1  0.85924000  0.88920400  0.40005200  1
  Na  Na3  1  0.64076000  0.88920400  0.90005200  1
  Na  Na4  1  0.60103600  0.88317100  0.15975300  1
  Na  Na5  1  0.89896400  0.88317100  0.65975300  1
  Na  Na6  1  0.40092900  0.86960900  0.35456800  1
  Na  Na7  1  0.09907100  0.86960900  0.85456800  1
  Na  Na8  1  0.12982700  0.85276900  0.38065400  1
  Na  Na9  1  0.37017300  0.85276900  0.88065400  1
  Na  Na10  1  0.87017300  0.64723100  0.88065400  1
  Na  Na11  1  0.62982700  0.64723100  0.38065400  1
  Na  Na12  1  0.90092900  0.63039100  0.35456800  1
  Na  Na13  1  0.59907100  0.63039100  0.85456800  1
  Na  Na14  1  0.39896400  0.61682900  0.65975300  1
  Na  Na15  1  0.10103600  0.61682900  0.15975300  1
  Na  Na16  1  0.35924000  0.61079600  0.40005200  1
  Na  Na17  1  0.14076000  0.61079600  0.90005200  1
  Na  Na18  1  0.82941400  0.60642900  0.62014100  1
  Na  Na19  1  0.67058600  0.60642900  0.12014100  1
  Na  Na20  1  0.32941400  0.39357100  0.87985900  1
  Na  Na21  1  0.17058600  0.39357100  0.37985900  1
  Na  Na22  1  0.85924000  0.38920400  0.09994800  1
  Na  Na23  1  0.64076000  0.38920400  0.59994800  1
  Na  Na24  1  0.60103600  0.38317100  0.34024700  1
  Na  Na25  1  0.89896400  0.38317100  0.84024700  1
  Na  Na26  1  0.40092900  0.36960900  0.14543200  1
  Na  Na27  1  0.09907100  0.36960900  0.64543200  1
  Na  Na28  1  0.37017300  0.35276900  0.61934600  1
  Na  Na29  1  0.12982700  0.35276900  0.11934600  1
  Na  Na30  1  0.87017300  0.14723100  0.61934600  1
  Na  Na31  1  0.62982700  0.14723100  0.11934600  1
  Na  Na32  1  0.90092900  0.13039100  0.14543200  1
  Na  Na33  1  0.59907100  0.13039100  0.64543200  1
  Na  Na34  1  0.39896400  0.11682900  0.84024700  1
  Na  Na35  1  0.10103600  0.11682900  0.34024700  1
  Na  Na36  1  0.35924000  0.11079600  0.09994800  1
  Na  Na37  1  0.14076000  0.11079600  0.59994800  1
  Na  Na38  1  0.82941400  0.10642900  0.87985900  1
  Na  Na39  1  0.67058600  0.10642900  0.37985900  1
  Gd  Gd0  1  0.88393000  0.85348200  0.11927700  1
  Gd  Gd1  1  0.61607000  0.85348200  0.61927700  1
  Gd  Gd2  1  0.11607000  0.64651800  0.61927700  1
  Gd  Gd3  1  0.38393000  0.64651800  0.11927700  1
  Gd  Gd4  1  0.88393000  0.35348200  0.38072300  1
  Gd  Gd5  1  0.61607000  0.35348200  0.88072300  1
  Gd  Gd6  1  0.38393000  0.14651800  0.38072300  1
  Gd  Gd7  1  0.11607000  0.14651800  0.88072300  1
  O  O0  1  0.75986000  0.99038200  0.04070700  1
  O  O1  1  0.74014000  0.99038200  0.54070700  1
  O  O2  1  0.99840600  0.95978000  0.24111900  1
  O  O3  1  0.50159400  0.95978000  0.74111900  1
  O  O4  1  0.01583300  0.74859200  0.00885500  1
  O  O5  1  0.48416700  0.74859200  0.50885500  1
  O  O6  1  0.76586700  0.75347100  0.24517200  1
  O  O7  1  0.73413300  0.75347100  0.74517200  1
  O  O8  1  0.26586700  0.74652900  0.24517200  1
  O  O9  1  0.23413300  0.74652900  0.74517200  1
  O  O10  1  0.98416700  0.75140800  0.50885500  1
  O  O11  1  0.51583300  0.75140800  0.00885500  1
  O  O12  1  0.49840600  0.54022000  0.24111900  1
  O  O13  1  0.00159400  0.54022000  0.74111900  1
  O  O14  1  0.24014000  0.50961800  0.54070700  1
  O  O15  1  0.25986000  0.50961800  0.04070700  1
  O  O16  1  0.74014000  0.49038200  0.95929300  1
  O  O17  1  0.75986000  0.49038200  0.45929300  1
  O  O18  1  0.99840600  0.45978000  0.25888100  1
  O  O19  1  0.50159400  0.45978000  0.75888100  1
  O  O20  1  0.48416700  0.24859200  0.99114500  1
  O  O21  1  0.01583300  0.24859200  0.49114500  1
  O  O22  1  0.76586700  0.25347100  0.25482800  1
  O  O23  1  0.73413300  0.25347100  0.75482800  1
  O  O24  1  0.26586700  0.24652900  0.25482800  1
  O  O25  1  0.23413300  0.24652900  0.75482800  1
  O  O26  1  0.98416700  0.25140800  0.99114500  1
  O  O27  1  0.51583300  0.25140800  0.49114500  1
  O  O28  1  0.00159400  0.04022000  0.75888100  1
  O  O29  1  0.49840600  0.04022000  0.25888100  1
  O  O30  1  0.24014000  0.00961800  0.95929300  1
  O  O31  1  0.25986000  0.00961800  0.45929300  1
loop_
_geom_bond_atom_site_label_1
_geom_bond_atom_site_label_2
_geom_bond_distance
_geom_bond_site_symmetry_2
Na0 O30 2.311180 1_564
Na0 O8 2.363491 1_555
Na0 O2 2.411712 1_455
Na0 O4 2.622841 1_555
Na1 O31 2.311180 1_565
Na1 O9 2.363491 1_555
Na1 O3 2.411712 1_555
Na1 O5 2.622841 1_555
Na2 O1 2.306193 1_555
Na2 O10 2.362183 1_555
Na2 O2 2.441628 1_555
Na2 O6 2.484213 1_555
Na3 O0 2.306193 1_556
Na3 O11 2.362183 1_556
Na3 O3 2.441628 1_555
Na3 O7 2.484213 1_555
Na4 O29 2.328337 1_565
Na4 O11 2.392155 1_555
Na4 O0 2.469039 1_555
Na4 O6 2.477007 1_555
Na5 O28 2.328337 1_665
Na5 O10 2.392155 1_555
Na5 O1 2.469039 1_555
Na5 O7 2.477007 1_555
Na6 O8 2.333136 1_555
Na6 O5 2.341038 1_555
Na6 O29 2.398919 1_565
Na6 O31 2.461058 1_565
Na7 O9 2.333136 1_555
Na7 O4 2.341038 1_556
Na7 O28 2.398919 1_565
Na7 O30 2.461058 1_565
Na8 O31 2.392936 1_565
Na8 O10 2.397702 1_455
Na8 O8 2.404928 1_555
Na8 O2 2.406787 1_455
Na9 O30 2.392936 1_565
Na9 O11 2.397702 1_556
Na9 O9 2.404928 1_555
Na9 O3 2.406787 1_555
Na10 O16 2.392936 1_555
Na10 O4 2.397702 1_656
Na10 O7 2.404928 1_555
Na10 O13 2.406787 1_655
Na11 O17 2.392936 1_555
Na11 O5 2.397702 1_555
Na11 O6 2.404928 1_555
Na11 O12 2.406787 1_555
Na12 O6 2.333136 1_555
Na12 O10 2.341038 1_555
Na12 O18 2.398919 1_555
Na12 O17 2.461058 1_555
Na13 O7 2.333136 1_555
Na13 O11 2.341038 1_556
Na13 O19 2.398919 1_555
Na13 O16 2.461058 1_555
Na14 O19 2.328337 1_555
Na14 O5 2.392155 1_555
Na14 O14 2.469039 1_555
Na14 O9 2.477007 1_555
Na15 O18 2.328337 1_455
Na15 O4 2.392155 1_555
Na15 O15 2.469039 1_555
Na15 O8 2.477007 1_555
Na16 O14 2.306193 1_555
Na16 O5 2.362183 1_555
Na16 O12 2.441628 1_555
Na16 O8 2.484213 1_555
Na17 O15 2.306193 1_556
Na17 O4 2.362183 1_556
Na17 O13 2.441628 1_555
Na17 O9 2.484213 1_555
Na18 O17 2.311180 1_555
Na18 O7 2.363491 1_555
Na18 O13 2.411712 1_655
Na18 O10 2.622841 1_555
Na19 O16 2.311180 1_554
Na19 O6 2.363491 1_555
Na19 O12 2.411712 1_555
Na19 O11 2.622841 1_555
Na20 O15 2.311180 1_556
Na20 O25 2.363491 1_555
Na20 O19 2.411712 1_555
Na20 O20 2.622841 1_555
Na21 O14 2.311180 1_555
Na21 O24 2.363491 1_555
Na21 O18 2.411712 1_455
Na21 O21 2.622841 1_555
Na22 O16 2.306193 1_554
Na22 O26 2.362183 1_554
Na22 O18 2.441628 1_555
Na22 O22 2.484213 1_555
Na23 O17 2.306193 1_555
Na23 O27 2.362183 1_555
Na23 O19 2.441628 1_555
Na23 O23 2.484213 1_555
Na24 O12 2.328337 1_555
Na24 O27 2.392155 1_555
Na24 O17 2.469039 1_555
Na24 O22 2.477007 1_555
Na25 O13 2.328337 1_655
Na25 O26 2.392155 1_555
Na25 O16 2.469039 1_555
Na25 O23 2.477007 1_555
Na26 O24 2.333136 1_555
Na26 O20 2.341038 1_554
Na26 O12 2.398919 1_555
Na26 O15 2.461058 1_555
Na27 O25 2.333136 1_555
Na27 O21 2.341038 1_555
Na27 O13 2.398919 1_555
Na27 O14 2.461058 1_555
Na28 O14 2.392936 1_555
Na28 O27 2.397702 1_555
Na28 O25 2.404928 1_555
Na28 O19 2.406787 1_555
Na29 O15 2.392936 1_555
Na29 O26 2.397702 1_454
Na29 O24 2.404928 1_555
Na29 O18 2.406787 1_455
Na30 O1 2.392936 1_545
Na30 O21 2.397702 1_655
Na30 O23 2.404928 1_555
Na30 O28 2.406787 1_655
Na31 O0 2.392936 1_545
Na31 O20 2.397702 1_554
Na31 O22 2.404928 1_555
Na31 O29 2.406787 1_555
Na32 O22 2.333136 1_555
Na32 O26 2.341038 1_554
Na32 O2 2.398919 1_545
Na32 O0 2.461058 1_545
Na33 O23 2.333136 1_555
Na33 O27 2.341038 1_555
Na33 O3 2.398919 1_545
Na33 O1 2.461058 1_545
Na34 O3 2.328337 1_545
Na34 O20 2.392155 1_555
Na34 O30 2.469039 1_555
Na34 O25 2.477007 1_555
Na35 O2 2.328337 1_445
Na35 O21 2.392155 1_555
Na35 O31 2.469039 1_555
Na35 O24 2.477007 1_555
Na36 O30 2.306193 1_554
Na36 O20 2.362183 1_554
Na36 O29 2.441628 1_555
Na36 O24 2.484213 1_555
Na37 O31 2.306193 1_555
Na37 O21 2.362183 1_555
Na37 O28 2.441628 1_555
Na37 O25 2.484213 1_555
Na38 O0 2.311180 1_546
Na38 O23 2.363491 1_555
Na38 O28 2.411712 1_655
Na38 O26 2.622841 1_555
Na39 O1 2.311180 1_545
Na39 O22 2.363491 1_555
Na39 O29 2.411712 1_555
Na39 O27 2.622841 1_555
Gd0 O2 2.172444 1_555
Gd0 O6 2.187094 1_555
Gd0 O0 2.199350 1_555
Gd0 O4 2.206772 1_655
Gd1 O3 2.172444 1_555
Gd1 O7 2.187094 1_555
Gd1 O1 2.199350 1_555
Gd1 O5 2.206772 1_555
Gd2 O13 2.172444 1_555
Gd2 O9 2.187094 1_555
Gd2 O14 2.199350 1_555
Gd2 O10 2.206772 1_455
Gd3 O12 2.172444 1_555
Gd3 O8 2.187094 1_555
Gd3 O15 2.199350 1_555
Gd3 O11 2.206772 1_555
Gd4 O18 2.172444 1_555
Gd4 O22 2.187094 1_555
Gd4 O17 2.199350 1_555
Gd4 O21 2.206772 1_655
Gd5 O19 2.172444 1_555
Gd5 O23 2.187094 1_555
Gd5 O16 2.199350 1_555
Gd5 O20 2.206772 1_555
Gd6 O29 2.172444 1_555
Gd6 O24 2.187094 1_555
Gd6 O31 2.199350 1_555
Gd6 O27 2.206772 1_555
Gd7 O28 2.172444 1_555
Gd7 O25 2.187094 1_555
Gd7 O30 2.199350 1_555
Gd7 O26 2.206772 1_455
