# generated using pymatgen
data_Mn2Cr(PO4)3
_symmetry_space_group_name_H-M   'P 1'
_cell_length_a   8.44516397
_cell_length_b   8.44516397
_cell_length_c   8.44516461
_cell_angle_alpha   61.61267189
_cell_angle_beta   61.61267189
_cell_angle_gamma   61.61267024
_symmetry_Int_Tables_number   1
_chemical_formula_structural   Mn2Cr(PO4)3
_chemical_formula_sum   'Mn4 Cr2 P6 O24'
_cell_volume   441.30718764
_cell_formula_units_Z   2
loop_
 _symmetry_equiv_pos_site_id
 _symmetry_equiv_pos_as_xyz
  1  'x, y, z'
loop_
 _atom_site_type_symbol
 _atom_site_label
 _atom_site_symmetry_multiplicity
 _atom_site_fract_x
 _atom_site_fract_y
 _atom_site_fract_z
 _atom_site_occupancy
  Mn  Mn0  1  0.85517900  0.85517900  0.85517900  1
  Mn  Mn1  1  0.64482100  0.64482100  0.64482100  1
  Mn  Mn2  1  0.35517900  0.35517900  0.35517900  1
  Mn  Mn3  1  0.14482100  0.14482100  0.14482100  1
  Cr  Cr0  1  0.00000000  0.00000000  0.00000000  1
  Cr  Cr1  1  0.50000000  0.50000000  0.50000000  1
  P  P0  1  0.95193800  0.25000000  0.54806200  1
  P  P1  1  0.54806200  0.95193800  0.25000000  1
  P  P2  1  0.25000000  0.54806200  0.95193800  1
  P  P3  1  0.75000000  0.45193800  0.04806200  1
  P  P4  1  0.45193800  0.04806200  0.75000000  1
  P  P5  1  0.04806200  0.75000000  0.45193800  1
  O  O0  1  0.89353600  0.68162900  0.48758200  1
  O  O1  1  0.68162900  0.48758200  0.89353600  1
  O  O2  1  0.93710000  0.09452400  0.75127200  1
  O  O3  1  0.48758200  0.89353600  0.68162900  1
  O  O4  1  0.98758200  0.18162900  0.39353600  1
  O  O5  1  0.74872800  0.40547600  0.56290000  1
  O  O6  1  0.75127200  0.93710000  0.09452400  1
  O  O7  1  0.56290000  0.74872800  0.40547600  1
  O  O8  1  0.81837100  0.60646400  0.01241800  1
  O  O9  1  0.40547600  0.56290000  0.74872800  1
  O  O10  1  0.90547600  0.24872800  0.06290000  1
  O  O11  1  0.60646400  0.01241800  0.81837100  1
  O  O12  1  0.39353600  0.98758200  0.18162900  1
  O  O13  1  0.09452400  0.75127200  0.93710000  1
  O  O14  1  0.59452400  0.43710000  0.25127200  1
  O  O15  1  0.18162900  0.39353600  0.98758200  1
  O  O16  1  0.43710000  0.25127200  0.59452400  1
  O  O17  1  0.24872800  0.06290000  0.90547600  1
  O  O18  1  0.25127200  0.59452400  0.43710000  1
  O  O19  1  0.01241800  0.81837100  0.60646400  1
  O  O20  1  0.51241800  0.10646400  0.31837100  1
  O  O21  1  0.06290000  0.90547600  0.24872800  1
  O  O22  1  0.31837100  0.51241800  0.10646400  1
  O  O23  1  0.10646400  0.31837100  0.51241800  1
loop_
_geom_bond_atom_site_label_1
_geom_bond_atom_site_label_2
_geom_bond_distance
_geom_bond_site_symmetry_2
Mn0 O11 1.961638 1_565
Mn0 O8 1.961638 1_556
Mn0 O19 1.961638 1_655
Mn0 O2 2.097671 1_565
Mn0 O13 2.097671 1_655
Mn0 O6 2.097671 1_556
Mn1 O3 1.961638 1_555
Mn1 O0 1.961638 1_555
Mn1 O1 1.961638 1_555
Mn1 O9 2.097671 1_555
Mn1 O5 2.097671 1_555
Mn1 O7 2.097671 1_555
Mn2 O20 1.961638 1_555
Mn2 O23 1.961638 1_555
Mn2 O22 1.961638 1_555
Mn2 O14 2.097671 1_555
Mn2 O18 2.097671 1_555
Mn2 O16 2.097671 1_555
Mn3 O12 1.961638 1_545
Mn3 O15 1.961638 1_554
Mn3 O4 1.961638 1_455
Mn3 O21 2.097671 1_545
Mn3 O10 2.097671 1_455
Mn3 O17 2.097671 1_554
Cr0 O6 2.096446 1_445
Cr0 O17 2.096446 1_554
Cr0 O13 2.096446 1_544
Cr0 O10 2.096446 1_455
Cr0 O2 2.096446 1_454
Cr0 O21 2.096446 1_545
Cr1 O7 2.096446 1_555
Cr1 O16 2.096446 1_555
Cr1 O5 2.096446 1_555
Cr1 O18 2.096446 1_555
Cr1 O9 2.096446 1_555
Cr1 O14 2.096446 1_555
O0 P5 1.518129 1_655
O1 P3 1.518129 1_556
O2 P0 1.579315 1_555
O3 P4 1.518129 1_565
O4 P0 1.518129 1_555
O5 P0 1.579315 1_555
O6 P1 1.579315 1_555
O7 P1 1.579315 1_555
O8 P3 1.518129 1_555
O9 P2 1.579315 1_555
O10 P3 1.579315 1_555
O11 P4 1.518129 1_555
O12 P1 1.518129 1_555
O13 P2 1.579315 1_555
O14 P3 1.579315 1_555
O15 P2 1.518129 1_555
O16 P4 1.579315 1_555
O17 P4 1.579315 1_555
O18 P5 1.579315 1_555
O19 P5 1.518129 1_555
O20 P1 1.518129 1_545
O21 P5 1.579315 1_555
O22 P2 1.518129 1_554
O23 P0 1.518129 1_455
