# generated using pymatgen
data_MnFeCo(PO4)3
_symmetry_space_group_name_H-M   'P 1'
_cell_length_a   5.98355800
_cell_length_b   9.87213800
_cell_length_c   14.64297268
_cell_angle_alpha   89.82197279
_cell_angle_beta   90.00000000
_cell_angle_gamma   90.00000000
_symmetry_Int_Tables_number   1
_chemical_formula_structural   MnFeCo(PO4)3
_chemical_formula_sum   'Mn4 Fe4 Co4 P12 O48'
_cell_volume   864.96369352
_cell_formula_units_Z   4
loop_
 _symmetry_equiv_pos_site_id
 _symmetry_equiv_pos_as_xyz
  1  'x, y, z'
loop_
 _atom_site_type_symbol
 _atom_site_label
 _atom_site_symmetry_multiplicity
 _atom_site_fract_x
 _atom_site_fract_y
 _atom_site_fract_z
 _atom_site_occupancy
  Mn  Mn0  1  0.00000000  0.21714000  0.47876000  1
  Mn  Mn1  1  0.00000000  0.21186900  0.14531900  1
  Mn  Mn2  1  0.50000000  0.28279000  0.97764000  1
  Mn  Mn3  1  0.50000000  0.28735400  0.64395800  1
  Fe  Fe0  1  0.00000000  0.22158400  0.81860300  1
  Fe  Fe1  1  0.50000000  0.27857800  0.31926400  1
  Fe  Fe2  1  0.00000000  0.72761900  0.34506700  1
  Fe  Fe3  1  0.00000000  0.72673800  0.01229200  1
  Co  Co0  1  0.00000000  0.72616000  0.67806600  1
  Co  Co1  1  0.50000000  0.77712400  0.51673600  1
  Co  Co2  1  0.50000000  0.77124200  0.84229200  1
  Co  Co3  1  0.50000000  0.77392800  0.17790500  1
  P  P0  1  0.50000000  0.09899800  0.80524600  1
  P  P1  1  0.50000000  0.09776700  0.47162000  1
  P  P2  1  0.50000000  0.09706100  0.13863200  1
  P  P3  1  0.00000000  0.40005200  0.97198500  1
  P  P4  1  0.00000000  0.40447600  0.63824100  1
  P  P5  1  0.00000000  0.39920900  0.30475800  1
  P  P6  1  0.50000000  0.60317900  0.36354600  1
  P  P7  1  0.50000000  0.59846600  0.69705800  1
  P  P8  1  0.50000000  0.60044600  0.02801300  1
  P  P9  1  0.00000000  0.89705300  0.86286300  1
  P  P10  1  0.00000000  0.90317000  0.52805200  1
  P  P11  1  0.00000000  0.90134500  0.19622200  1
  O  O0  1  0.00000000  0.05503600  0.55214900  1
  O  O1  1  0.00000000  0.04899200  0.88052900  1
  O  O2  1  0.00000000  0.05385400  0.21906400  1
  O  O3  1  0.50000000  0.11991500  0.90988800  1
  O  O4  1  0.50000000  0.12229100  0.57515600  1
  O  O5  1  0.50000000  0.12022000  0.24140100  1
  O  O6  1  0.29621400  0.16835500  0.75798500  1
  O  O7  1  0.70378600  0.16835500  0.75798500  1
  O  O8  1  0.30119500  0.17249200  0.42204900  1
  O  O9  1  0.69880500  0.17249200  0.42204900  1
  O  O10  1  0.70127600  0.16655800  0.08886100  1
  O  O11  1  0.29872400  0.16655800  0.08886100  1
  O  O12  1  0.80182000  0.32573900  0.92189800  1
  O  O13  1  0.19818000  0.32573900  0.92189800  1
  O  O14  1  0.79856700  0.33467400  0.58898600  1
  O  O15  1  0.20143300  0.33467400  0.58898600  1
  O  O16  1  0.20399000  0.32799500  0.25867100  1
  O  O17  1  0.79601000  0.32799500  0.25867100  1
  O  O18  1  0.00000000  0.38022600  0.74107900  1
  O  O19  1  0.00000000  0.37898800  0.40981400  1
  O  O20  1  0.00000000  0.37608800  0.07543500  1
  O  O21  1  0.50000000  0.45155200  0.38362500  1
  O  O22  1  0.50000000  0.44531500  0.71866100  1
  O  O23  1  0.50000000  0.44707900  0.04726500  1
  O  O24  1  0.00000000  0.55100000  0.95178400  1
  O  O25  1  0.00000000  0.55196800  0.28665200  1
  O  O26  1  0.00000000  0.55896700  0.61887100  1
  O  O27  1  0.50000000  0.62424600  0.92418500  1
  O  O28  1  0.50000000  0.61951200  0.59307900  1
  O  O29  1  0.50000000  0.62664500  0.25878400  1
  O  O30  1  0.29846600  0.67651800  0.41103200  1
  O  O31  1  0.70153400  0.67651800  0.41103200  1
  O  O32  1  0.29859400  0.66944800  0.74611300  1
  O  O33  1  0.70140600  0.66944800  0.74611300  1
  O  O34  1  0.29747600  0.67097100  0.07672700  1
  O  O35  1  0.70252400  0.67097100  0.07672700  1
  O  O36  1  0.79713600  0.82912700  0.57631500  1
  O  O37  1  0.20286400  0.82912700  0.57631500  1
  O  O38  1  0.79980100  0.82594900  0.91230400  1
  O  O39  1  0.20019900  0.82594900  0.91230400  1
  O  O40  1  0.80010400  0.82900500  0.24566300  1
  O  O41  1  0.19989600  0.82900500  0.24566300  1
  O  O42  1  0.00000000  0.87136500  0.75853900  1
  O  O43  1  0.00000000  0.88454400  0.42506200  1
  O  O44  1  0.00000000  0.88197200  0.09287600  1
  O  O45  1  0.50000000  0.94696300  0.44981400  1
  O  O46  1  0.50000000  0.94410100  0.78877500  1
  O  O47  1  0.50000000  0.94217700  0.12010500  1
loop_
_geom_bond_atom_site_label_1
_geom_bond_atom_site_label_2
_geom_bond_distance
_geom_bond_site_symmetry_2
Mn0 O19 1.887362 1_555
Mn0 O0 1.924877 1_555
Mn0 O8 2.033258 1_555
Mn0 O9 2.033258 1_455
Mn0 O15 2.327185 1_555
Mn0 O14 2.327185 1_455
Mn1 O2 1.894474 1_555
Mn1 O20 1.914450 1_555
Mn1 O11 2.020089 1_555
Mn1 O10 2.020089 1_455
Mn1 O16 2.360272 1_555
Mn1 O17 2.360272 1_455
Mn2 O3 1.891977 1_555
Mn2 O23 1.918384 1_556
Mn2 O13 2.026163 1_555
Mn2 O12 2.026163 1_555
Mn2 O10 2.325480 1_556
Mn2 O11 2.325480 1_556
Mn3 O22 1.907598 1_555
Mn3 O4 1.918473 1_555
Mn3 O14 2.013802 1_555
Mn3 O15 2.013802 1_555
Mn3 O6 2.375423 1_555
Mn3 O7 2.375423 1_555
Fe0 O1 1.927631 1_555
Fe0 O18 1.931417 1_555
Fe0 O7 2.051430 1_455
Fe0 O6 2.051430 1_555
Fe0 O12 2.181947 1_455
Fe0 O13 2.181947 1_555
Fe1 O5 1.937786 1_555
Fe1 O21 1.952989 1_555
Fe1 O16 2.039526 1_555
Fe1 O17 2.039526 1_555
Fe1 O8 2.183426 1_555
Fe1 O9 2.183426 1_555
Fe2 O25 1.935925 1_555
Fe2 O43 1.945083 1_555
Fe2 O30 2.091381 1_555
Fe2 O31 2.091381 1_455
Fe2 O41 2.131210 1_555
Fe2 O40 2.131210 1_455
Fe3 O44 1.937045 1_555
Fe3 O24 1.950510 1_554
Fe3 O34 2.087671 1_555
Fe3 O35 2.087671 1_455
Fe3 O39 2.128141 1_554
Fe3 O38 2.128141 1_454
Co0 O42 1.858471 1_555
Co0 O26 1.866692 1_555
Co0 O32 2.120131 1_555
Co0 O33 2.120131 1_455
Co0 O37 2.171914 1_555
Co0 O36 2.171914 1_455
Co1 O28 1.913087 1_555
Co1 O45 1.939408 1_555
Co1 O36 2.046579 1_555
Co1 O37 2.046579 1_555
Co1 O30 2.201343 1_555
Co1 O31 2.201343 1_555
Co2 O46 1.875605 1_555
Co2 O27 1.879639 1_555
Co2 O33 2.110553 1_555
Co2 O32 2.110553 1_555
Co2 O38 2.136379 1_555
Co2 O39 2.136379 1_555
Co3 O47 1.861838 1_555
Co3 O29 1.872431 1_555
Co3 O40 2.123184 1_555
Co3 O41 2.123184 1_555
Co3 O35 2.169312 1_555
Co3 O34 2.169312 1_555
O0 P10 1.541272 1_545
O1 P9 1.522897 1_545
O2 P11 1.543309 1_545
O3 P0 1.546757 1_555
O4 P1 1.536027 1_555
O5 P2 1.522814 1_555
O6 P0 1.559373 1_555
O7 P0 1.559373 1_555
O8 P1 1.575692 1_555
O9 P1 1.575692 1_555
O10 P2 1.564991 1_555
O11 P2 1.564991 1_555
O12 P3 1.576590 1_655
O13 P3 1.576590 1_555
O14 P4 1.565516 1_655
O15 P4 1.565516 1_555
O16 P5 1.562837 1_555
O17 P5 1.562837 1_655
O18 P4 1.524030 1_555
O19 P5 1.550615 1_555
O20 P3 1.532451 1_554
O21 P6 1.524588 1_555
O22 P7 1.543703 1_555
O23 P8 1.539220 1_555
O24 P3 1.518353 1_555
O25 P5 1.530374 1_555
O26 P4 1.550439 1_555
O27 P8 1.537677 1_556
O28 P7 1.536033 1_555
O29 P6 1.550709 1_555
O30 P6 1.570028 1_555
O31 P6 1.570028 1_555
O32 P7 1.569225 1_555
O33 P7 1.569225 1_555
O34 P8 1.570077 1_555
O35 P8 1.570077 1_555
O36 P10 1.582393 1_655
O37 P10 1.582393 1_555
O38 P9 1.564822 1_655
O39 P9 1.564822 1_555
O40 P11 1.568933 1_655
O41 P11 1.568933 1_555
O42 P9 1.549297 1_555
O43 P10 1.519815 1_555
O44 P11 1.525920 1_555
O45 P1 1.523584 1_565
O46 P0 1.548808 1_565
O47 P2 1.553746 1_565
