# generated using pymatgen
data_Zr15VO32
_symmetry_space_group_name_H-M   'P 1'
_cell_length_a   5.26837100
_cell_length_b   10.38895044
_cell_length_c   10.76278005
_cell_angle_alpha   99.62009444
_cell_angle_beta   90.10545349
_cell_angle_gamma   90.16377571
_symmetry_Int_Tables_number   1
_chemical_formula_structural   Zr15VO32
_chemical_formula_sum   'Zr15 V1 O32'
_cell_volume   580.78968642
_cell_formula_units_Z   1
loop_
 _symmetry_equiv_pos_site_id
 _symmetry_equiv_pos_as_xyz
  1  'x, y, z'
loop_
 _atom_site_type_symbol
 _atom_site_label
 _atom_site_symmetry_multiplicity
 _atom_site_fract_x
 _atom_site_fract_y
 _atom_site_fract_z
 _atom_site_occupancy
  Zr  Zr0  1  0.54223700  0.86327000  0.14667700  1
  Zr  Zr1  1  0.95605400  0.86463800  0.39452100  1
  Zr  Zr2  1  0.54384800  0.86265600  0.64447200  1
  Zr  Zr3  1  0.95796100  0.86110000  0.89523000  1
  Zr  Zr4  1  0.04284500  0.63850200  0.10511700  1
  Zr  Zr5  1  0.45384400  0.63674400  0.35535300  1
  Zr  Zr6  1  0.04285700  0.63713900  0.60335700  1
  Zr  Zr7  1  0.45818400  0.63766000  0.85398600  1
  Zr  Zr8  1  0.54302300  0.35961600  0.14789400  1
  Zr  Zr9  1  0.95315500  0.35501200  0.39461900  1
  Zr  Zr10  1  0.54081500  0.35875000  0.64147000  1
  Zr  Zr11  1  0.95505200  0.36209000  0.89538000  1
  Zr  Zr12  1  0.04171700  0.13962300  0.10764200  1
  Zr  Zr13  1  0.04304100  0.14131200  0.60361400  1
  Zr  Zr14  1  0.45562900  0.13841900  0.85493600  1
  V  V0  1  0.44680600  0.12944400  0.34980000  1
  O  O0  1  0.83650300  0.96519100  0.08000500  1
  O  O1  1  0.66560700  0.97781100  0.33110900  1
  O  O2  1  0.83988900  0.96610500  0.57560700  1
  O  O3  1  0.66756100  0.96598600  0.82781600  1
  O  O4  1  0.25904900  0.77706400  0.01138900  1
  O  O5  1  0.24209800  0.77676300  0.26093900  1
  O  O6  1  0.25594600  0.77713000  0.50953200  1
  O  O7  1  0.75694200  0.73076400  0.24128600  1
  O  O8  1  0.24302200  0.77547300  0.75991000  1
  O  O9  1  0.74222800  0.72597000  0.48861000  1
  O  O10  1  0.75778300  0.72438100  0.73876300  1
  O  O11  1  0.74279400  0.72460300  0.98985900  1
  O  O12  1  0.33365000  0.53424900  0.17227400  1
  O  O13  1  0.16414800  0.53319500  0.42156000  1
  O  O14  1  0.83295400  0.46536900  0.07889500  1
  O  O15  1  0.33442700  0.53388300  0.67070700  1
  O  O16  1  0.66910700  0.46624100  0.32801000  1
  O  O17  1  0.16515200  0.53546000  0.92230300  1
  O  O18  1  0.83474600  0.46194900  0.57750700  1
  O  O19  1  0.66542200  0.46484600  0.82750400  1
  O  O20  1  0.25624500  0.27603700  0.01212000  1
  O  O21  1  0.24927100  0.26931400  0.26449400  1
  O  O22  1  0.25490100  0.27385000  0.50809400  1
  O  O23  1  0.75664600  0.22271800  0.23994700  1
  O  O24  1  0.24197200  0.27580800  0.76028500  1
  O  O25  1  0.73059400  0.21857400  0.48492700  1
  O  O26  1  0.75791700  0.22434900  0.73847200  1
  O  O27  1  0.74229900  0.22384700  0.99005200  1
  O  O28  1  0.33931600  0.03879400  0.17998300  1
  O  O29  1  0.18278600  0.03952700  0.41753400  1
  O  O30  1  0.33248000  0.03467100  0.67145200  1
  O  O31  1  0.16948400  0.03409900  0.92498800  1
loop_
_geom_bond_atom_site_label_1
_geom_bond_atom_site_label_2
_geom_bond_distance
_geom_bond_site_symmetry_2
O0 Zr0 2.070792 1_555
O0 Zr12 2.085365 1_665
O0 Zr3 2.196276 1_554
O1 V0 1.938080 1_565
O1 Zr1 2.112883 1_555
O1 Zr0 2.231600 1_555
O2 Zr13 2.086587 1_665
O2 Zr2 2.097096 1_555
O2 Zr1 2.146092 1_555
O3 Zr3 2.079466 1_555
O3 Zr14 2.092565 1_565
O3 Zr2 2.180441 1_555
O4 Zr0 2.167172 1_555
O4 Zr4 2.206229 1_555
O4 Zr3 2.281837 1_454
O4 Zr7 2.294180 1_554
O5 Zr1 2.179133 1_455
O5 Zr5 2.211831 1_555
O5 Zr4 2.271016 1_555
O5 Zr0 2.277895 1_555
O6 Zr2 2.179961 1_555
O6 Zr6 2.209275 1_555
O6 Zr5 2.274619 1_555
O6 Zr1 2.287375 1_455
O7 Zr0 2.164375 1_555
O7 Zr4 2.209577 1_655
O7 Zr1 2.230105 1_555
O7 Zr5 2.325992 1_555
O8 Zr3 2.179585 1_455
O8 Zr7 2.202173 1_555
O8 Zr6 2.278584 1_555
O8 Zr2 2.291496 1_555
O9 Zr5 2.182690 1_555
O9 Zr1 2.202816 1_555
O9 Zr2 2.267507 1_555
O9 Zr6 2.295099 1_655
O10 Zr6 2.185252 1_655
O10 Zr2 2.203665 1_555
O10 Zr3 2.269586 1_555
O10 Zr7 2.283294 1_555
O11 Zr7 2.178391 1_555
O11 Zr3 2.193389 1_555
O11 Zr4 2.282446 1_656
O11 Zr0 2.289766 1_556
O12 Zr4 2.076003 1_555
O12 Zr8 2.104874 1_555
O12 Zr5 2.169730 1_555
O13 Zr5 2.060393 1_555
O13 Zr9 2.134024 1_455
O13 Zr6 2.169156 1_555
O14 Zr4 2.086969 1_655
O14 Zr8 2.087814 1_555
O14 Zr11 2.183227 1_554
O15 Zr6 2.073882 1_555
O15 Zr10 2.100692 1_555
O15 Zr7 2.181520 1_555
O16 Zr5 2.085404 1_555
O16 Zr9 2.090809 1_555
O16 Zr8 2.167855 1_555
O17 Zr7 2.075334 1_555
O17 Zr11 2.089551 1_455
O17 Zr4 2.176508 1_556
O18 Zr10 2.064575 1_555
O18 Zr6 2.100068 1_655
O18 Zr9 2.185295 1_555
O19 Zr11 2.065784 1_555
O19 Zr7 2.082764 1_555
O19 Zr10 2.215456 1_555
O20 Zr8 2.175389 1_555
O20 Zr12 2.196560 1_555
O20 Zr14 2.283893 1_554
O20 Zr11 2.296087 1_454
O21 V0 2.118616 1_555
O21 Zr9 2.187936 1_455
O21 Zr12 2.255105 1_555
O21 Zr8 2.289624 1_555
O22 Zr13 2.160374 1_555
O22 Zr10 2.160745 1_555
O22 Zr9 2.252651 1_455
O22 V0 2.310010 1_555
O23 Zr12 2.152425 1_655
O23 Zr8 2.178745 1_555
O23 Zr9 2.225494 1_555
O23 V0 2.320010 1_555
O24 Zr11 2.186954 1_455
O24 Zr14 2.198409 1_555
O24 Zr13 2.256486 1_555
O24 Zr10 2.285716 1_555
O25 V0 2.177576 1_555
O25 Zr9 2.187207 1_555
O25 Zr10 2.270143 1_555
O25 Zr13 2.308278 1_655
O26 Zr13 2.168929 1_655
O26 Zr10 2.199942 1_555
O26 Zr11 2.270605 1_555
O26 Zr14 2.297313 1_555
O27 Zr14 2.176299 1_555
O27 Zr11 2.200304 1_555
O27 Zr8 2.278564 1_556
O27 Zr12 2.286122 1_656
O28 V0 1.991469 1_555
O28 Zr0 2.095391 1_545
O28 Zr12 2.106929 1_555
O29 V0 1.887523 1_555
O29 Zr1 2.150689 1_445
O29 Zr13 2.230073 1_555
O30 Zr2 2.087353 1_545
O30 Zr13 2.088457 1_555
O30 Zr14 2.182284 1_555
O31 Zr14 2.069680 1_555
O31 Zr3 2.090329 1_445
O31 Zr12 2.192792 1_556
