# generated using pymatgen
data_Be2PH5O7
_symmetry_space_group_name_H-M   'P 1'
_cell_length_a   11.89954900
_cell_length_b   6.84109400
_cell_length_c   8.59119411
_cell_angle_alpha   62.61605676
_cell_angle_beta   90.00000000
_cell_angle_gamma   90.00000000
_symmetry_Int_Tables_number   1
_chemical_formula_structural   Be2PH5O7
_chemical_formula_sum   'Be8 P4 H20 O28'
_cell_volume   621.00532474
_cell_formula_units_Z   4
loop_
 _symmetry_equiv_pos_site_id
 _symmetry_equiv_pos_as_xyz
  1  'x, y, z'
loop_
 _atom_site_type_symbol
 _atom_site_label
 _atom_site_symmetry_multiplicity
 _atom_site_fract_x
 _atom_site_fract_y
 _atom_site_fract_z
 _atom_site_occupancy
  Be  Be0  1  0.31779400  0.43220600  0.01933300  1
  Be  Be1  1  0.18220600  0.43220600  0.51933300  1
  Be  Be2  1  0.68220600  0.56779400  0.98066700  1
  Be  Be3  1  0.81779400  0.56779400  0.48066700  1
  Be  Be4  1  0.07214200  0.11959600  0.11521400  1
  Be  Be5  1  0.42785800  0.11959600  0.61521400  1
  Be  Be6  1  0.92785800  0.88040400  0.88478600  1
  Be  Be7  1  0.57214200  0.88040400  0.38478600  1
  P  P0  1  0.16577200  0.43294300  0.77861500  1
  P  P1  1  0.33422800  0.43294300  0.27861500  1
  P  P2  1  0.83422800  0.56705700  0.22138500  1
  P  P3  1  0.66577200  0.56705700  0.72138500  1
  H  H0  1  0.11744600  0.24787900  0.37311200  1
  H  H1  1  0.38255400  0.24787900  0.87311200  1
  H  H2  1  0.88255400  0.75212100  0.62688800  1
  H  H3  1  0.61744600  0.75212100  0.12688800  1
  H  H4  1  0.48598200  0.32962400  0.94301900  1
  H  H5  1  0.01401800  0.32962400  0.44301900  1
  H  H6  1  0.51401800  0.67037600  0.05698100  1
  H  H7  1  0.98598200  0.67037600  0.55698100  1
  H  H8  1  0.46590100  0.97342600  0.16369100  1
  H  H9  1  0.03409900  0.97342600  0.66369100  1
  H  H10  1  0.53409900  0.02657400  0.83630900  1
  H  H11  1  0.96590100  0.02657400  0.33630900  1
  H  H12  1  0.18028600  0.78375000  0.22039300  1
  H  H13  1  0.31971400  0.78375000  0.72039300  1
  H  H14  1  0.81971400  0.21625000  0.77960700  1
  H  H15  1  0.68028600  0.21625000  0.27960700  1
  H  H16  1  0.05708400  0.78160800  0.14052800  1
  H  H17  1  0.44291600  0.78160800  0.64052800  1
  H  H18  1  0.94291600  0.21839200  0.85947200  1
  H  H19  1  0.55708400  0.21839200  0.35947200  1
  O  O0  1  0.23638100  0.56127100  0.85363400  1
  O  O1  1  0.26361900  0.56127100  0.35363400  1
  O  O2  1  0.76361900  0.43872900  0.14636600  1
  O  O3  1  0.73638100  0.43872900  0.64636600  1
  O  O4  1  0.07718200  0.29296100  0.91638100  1
  O  O5  1  0.42281800  0.29296100  0.41638100  1
  O  O6  1  0.92281800  0.70703900  0.08361900  1
  O  O7  1  0.57718200  0.70703900  0.58361900  1
  O  O8  1  0.99913400  0.84662200  0.75967500  1
  O  O9  1  0.50086600  0.84662200  0.25967500  1
  O  O10  1  0.00086600  0.15337800  0.24032500  1
  O  O11  1  0.49913400  0.15337800  0.74032500  1
  O  O12  1  0.10969800  0.58127100  0.59695800  1
  O  O13  1  0.39030200  0.58127100  0.09695800  1
  O  O14  1  0.89030200  0.41872900  0.40304200  1
  O  O15  1  0.60969800  0.41872900  0.90304200  1
  O  O16  1  0.25797100  0.29510900  0.21732600  1
  O  O17  1  0.24202900  0.29510900  0.71732600  1
  O  O18  1  0.74202900  0.70489100  0.78267400  1
  O  O19  1  0.75797100  0.70489100  0.28267400  1
  O  O20  1  0.90424700  0.71912800  0.52977900  1
  O  O21  1  0.59575300  0.71912800  0.02977900  1
  O  O22  1  0.09575300  0.28087200  0.47022100  1
  O  O23  1  0.40424700  0.28087200  0.97022100  1
  O  O24  1  0.61699500  0.12263300  0.35092100  1
  O  O25  1  0.88300500  0.12263300  0.85092100  1
  O  O26  1  0.38300500  0.87736700  0.64907900  1
  O  O27  1  0.11699500  0.87736700  0.14907900  1
loop_
_geom_bond_atom_site_label_1
_geom_bond_atom_site_label_2
_geom_bond_distance
_geom_bond_site_symmetry_2
Be0 O0 1.608845 1_554
Be0 O23 1.646212 1_554
Be0 O16 1.676967 1_555
Be0 O13 1.689591 1_555
Be1 O1 1.608845 1_555
Be1 O22 1.646212 1_555
Be1 O17 1.676967 1_555
Be1 O12 1.689591 1_555
Be2 O2 1.608845 1_556
Be2 O21 1.646212 1_556
Be2 O18 1.676967 1_555
Be2 O15 1.689591 1_555
Be3 O3 1.608845 1_555
Be3 O20 1.646212 1_555
Be3 O19 1.676967 1_555
Be3 O14 1.689591 1_555
Be4 O10 1.468533 1_555
Be4 O4 1.569880 1_554
Be4 O27 1.634634 1_545
Be5 O11 1.468533 1_555
Be5 O5 1.569880 1_555
Be5 O26 1.634634 1_545
Be6 O8 1.468533 1_555
Be6 O6 1.569880 1_556
Be6 O25 1.634634 1_565
Be7 O9 1.468533 1_555
Be7 O7 1.569880 1_555
Be7 O24 1.634634 1_565
H0 O22 0.993392 1_555
H1 O23 0.993392 1_555
H2 O20 0.993392 1_555
H3 O21 0.993392 1_555
H4 O23 1.019862 1_555
H4 O15 1.569783 1_555
H5 O22 1.019862 1_555
H5 O14 1.569783 1_455
H6 O21 1.019862 1_555
H6 O13 1.569783 1_555
H7 O20 1.019862 1_555
H7 O12 1.569783 1_655
H8 O9 0.973439 1_555
H9 O8 0.973439 1_455
H10 O11 0.973439 1_555
H11 O10 0.973439 1_655
H12 O27 0.995888 1_555
H13 O26 0.995888 1_555
H14 O25 0.995888 1_555
H15 O24 0.995888 1_555
H16 O27 0.993511 1_555
H17 O26 0.993511 1_555
H18 O25 0.993511 1_555
H19 O24 0.993511 1_555
O0 P0 1.553239 1_555
O1 P1 1.553239 1_555
O2 P2 1.553239 1_555
O3 P3 1.553239 1_555
O4 P0 1.544850 1_555
O5 P1 1.544850 1_555
O6 P2 1.544850 1_555
O7 P3 1.544850 1_555
O12 P0 1.566442 1_555
O13 P1 1.566442 1_555
O14 P2 1.566442 1_555
O15 P3 1.566442 1_555
O16 P1 1.564137 1_555
O17 P0 1.564137 1_555
O18 P3 1.564137 1_555
O19 P2 1.564137 1_555
