# generated using pymatgen
data_Li5Fe8(BO3)8
_symmetry_space_group_name_H-M   'P 1'
_cell_length_a   5.25306400
_cell_length_b   9.05778016
_cell_length_c   11.39337440
_cell_angle_alpha   113.07092928
_cell_angle_beta   102.78057949
_cell_angle_gamma   89.70121585
_symmetry_Int_Tables_number   1
_chemical_formula_structural   Li5Fe8(BO3)8
_chemical_formula_sum   'Li5 Fe8 B8 O24'
_cell_volume   484.38522539
_cell_formula_units_Z   1
loop_
 _symmetry_equiv_pos_site_id
 _symmetry_equiv_pos_as_xyz
  1  'x, y, z'
loop_
 _atom_site_type_symbol
 _atom_site_label
 _atom_site_symmetry_multiplicity
 _atom_site_fract_x
 _atom_site_fract_y
 _atom_site_fract_z
 _atom_site_occupancy
  Li  Li0  1  0.03023600  0.04087100  0.41892400  1
  Li  Li1  1  0.29154000  0.27428000  0.90045400  1
  Li  Li2  1  0.49247100  0.51106800  0.66660300  1
  Li  Li3  1  0.26197000  0.24133300  0.15797900  1
  Li  Li4  1  0.76761100  0.74528200  0.15968200  1
  Fe  Fe0  1  0.01374700  0.36043500  0.38096100  1
  Fe  Fe1  1  0.26343300  0.92805200  0.87682900  1
  Fe  Fe2  1  0.49405300  0.15640300  0.63656900  1
  Fe  Fe3  1  0.24789600  0.56266100  0.12811000  1
  Fe  Fe4  1  0.77398000  0.44953300  0.88292400  1
  Fe  Fe5  1  0.52044100  0.84768300  0.38663600  1
  Fe  Fe6  1  0.96690700  0.66158000  0.63222600  1
  Fe  Fe7  1  0.74779400  0.05542600  0.12125600  1
  B  B0  1  0.02228000  0.68868500  0.37501800  1
  B  B1  1  0.26688900  0.60045600  0.87530300  1
  B  B2  1  0.47016200  0.81049700  0.62999400  1
  B  B3  1  0.24317800  0.89645100  0.13147000  1
  B  B4  1  0.51428500  0.17992800  0.37422700  1
  B  B5  1  0.76635700  0.10719100  0.88073900  1
  B  B6  1  0.98191300  0.31523200  0.62022900  1
  B  B7  1  0.73294200  0.39798600  0.12990300  1
  O  O0  1  0.03215400  0.10031500  0.88728900  1
  O  O1  1  0.11629500  0.71687000  0.84888300  1
  O  O2  1  0.16460800  0.49446900  0.91916100  1
  O  O3  1  0.10975100  0.18248000  0.61473700  1
  O  O4  1  0.08851800  0.42717800  0.57965400  1
  O  O5  1  0.25270600  0.84599000  0.68497600  1
  O  O6  1  0.25622200  0.67455200  0.33572700  1
  O  O7  1  0.51095600  0.58884200  0.85414300  1
  O  O8  1  0.62602400  0.21700500  0.84202400  1
  O  O9  1  0.42649000  0.06645600  0.41446800  1
  O  O10  1  0.34863400  0.28873600  0.35315000  1
  O  O11  1  0.63461400  0.00908400  0.92095700  1
  O  O12  1  0.34290500  0.00131500  0.08529600  1
  O  O13  1  0.59566700  0.67861300  0.62511100  1
  O  O14  1  0.54890600  0.91426300  0.57739300  1
  O  O15  1  0.41197000  0.79523400  0.17179900  1
  O  O16  1  0.46499300  0.37493900  0.10983800  1
  O  O17  1  0.74868500  0.34457900  0.66002500  1
  O  O18  1  0.76563000  0.17563600  0.35083800  1
  O  O19  1  0.94068300  0.58128900  0.41937500  1
  O  O20  1  0.87282100  0.81282600  0.36610600  1
  O  O21  1  0.84275000  0.51355500  0.09952800  1
  O  O22  1  0.89504700  0.29906900  0.17810400  1
  O  O23  1  0.98938000  0.89585900  0.14133900  1
loop_
_geom_bond_atom_site_label_1
_geom_bond_atom_site_label_2
_geom_bond_distance
_geom_bond_site_symmetry_2
Li0 O20 2.033714 1_445
Li0 O3 2.036537 1_555
Li0 O18 2.066700 1_455
Li0 O9 2.109533 1_555
Li1 O8 2.009212 1_555
Li1 O0 2.027012 1_555
Li1 O2 2.045386 1_555
Li1 O16 2.166753 1_556
Li2 O13 1.872068 1_555
Li2 O7 1.949473 1_555
Li2 O17 2.006513 1_555
Li2 O4 2.135041 1_555
Li3 O16 1.922305 1_555
Li3 O22 2.032793 1_455
Li3 O10 2.035220 1_555
Li3 O12 2.080400 1_555
Li4 O23 1.899662 1_555
Li4 O15 1.941727 1_555
Li4 O21 2.003659 1_555
Li4 O20 2.124091 1_555
Fe0 O10 1.921020 1_555
Fe0 O19 1.928931 1_455
Fe0 O18 1.998252 1_455
Fe0 O4 2.044737 1_555
Fe0 O22 2.097302 1_455
Fe1 O1 1.946009 1_555
Fe1 O0 1.955350 1_565
Fe1 O11 1.971127 1_565
Fe1 O5 2.001546 1_555
Fe1 O12 2.141227 1_566
Fe2 O3 2.002991 1_555
Fe2 O14 2.066004 1_545
Fe2 O17 2.067459 1_555
Fe2 O8 2.130803 1_555
Fe2 O9 2.276607 1_555
Fe3 O16 2.010589 1_555
Fe3 O21 2.103113 1_455
Fe3 O15 2.106103 1_555
Fe3 O2 2.151720 1_554
Fe3 O6 2.168004 1_555
Fe4 O7 1.927288 1_555
Fe4 O2 2.012208 1_655
Fe4 O8 2.084435 1_555
Fe4 O21 2.245708 1_556
Fe4 O17 2.308829 1_555
Fe5 O6 1.917210 1_555
Fe5 O20 1.925737 1_555
Fe5 O9 1.958933 1_565
Fe5 O14 1.984814 1_555
Fe5 O15 2.239660 1_555
Fe6 O13 1.941693 1_555
Fe6 O5 2.060433 1_655
Fe6 O4 2.105503 1_655
Fe6 O19 2.213579 1_555
Fe6 O1 2.266733 1_655
Fe7 O23 1.965561 1_545
Fe7 O11 2.095023 1_554
Fe7 O12 2.097563 1_555
Fe7 O22 2.136350 1_555
Fe7 O18 2.386792 1_555
B0 O19 1.367809 1_455
B0 O6 1.387031 1_555
B0 O20 1.391436 1_455
B1 O7 1.352197 1_555
B1 O2 1.400040 1_555
B1 O1 1.401069 1_555
B2 O13 1.349331 1_555
B2 O5 1.398418 1_555
B2 O14 1.403161 1_555
B3 O23 1.362722 1_455
B3 O12 1.404327 1_565
B3 O15 1.406864 1_555
B4 O10 1.367585 1_555
B4 O9 1.395386 1_555
B4 O18 1.401003 1_555
B5 O0 1.384050 1_655
B5 O8 1.385538 1_555
B5 O11 1.394423 1_555
B6 O3 1.360861 1_655
B6 O17 1.387508 1_555
B6 O4 1.429444 1_655
B7 O16 1.378529 1_555
B7 O21 1.388103 1_555
B7 O22 1.414304 1_555
