# generated using pymatgen
data_Li2MnFe3O8
_symmetry_space_group_name_H-M   'P 1'
_cell_length_a   5.90781040
_cell_length_b   5.90781040
_cell_length_c   9.55162800
_cell_angle_alpha   90.00000000
_cell_angle_beta   90.00000000
_cell_angle_gamma   120.00000445
_symmetry_Int_Tables_number   1
_chemical_formula_structural   Li2MnFe3O8
_chemical_formula_sum   'Li4 Mn2 Fe6 O16'
_cell_volume   288.70952344
_cell_formula_units_Z   2
loop_
 _symmetry_equiv_pos_site_id
 _symmetry_equiv_pos_as_xyz
  1  'x, y, z'
loop_
 _atom_site_type_symbol
 _atom_site_label
 _atom_site_symmetry_multiplicity
 _atom_site_fract_x
 _atom_site_fract_y
 _atom_site_fract_z
 _atom_site_occupancy
  Li  Li0  1  0.33333300  0.66666700  0.89676200  1
  Li  Li1  1  0.00000000  0.00000000  0.99414100  1
  Li  Li2  1  0.00000000  0.00000000  0.49414100  1
  Li  Li3  1  0.66666700  0.33333300  0.39676200  1
  Mn  Mn0  1  0.33333300  0.66666700  0.48232200  1
  Mn  Mn1  1  0.66666700  0.33333300  0.98232200  1
  Fe  Fe0  1  0.16933500  0.83066500  0.21208000  1
  Fe  Fe1  1  0.16933500  0.33866900  0.21208000  1
  Fe  Fe2  1  0.66133100  0.83066500  0.21208000  1
  Fe  Fe3  1  0.33866900  0.16933500  0.71208000  1
  Fe  Fe4  1  0.83066500  0.66133100  0.71208000  1
  Fe  Fe5  1  0.83066500  0.16933500  0.71208000  1
  O  O0  1  0.16891300  0.83108700  0.59775800  1
  O  O1  1  0.04174600  0.52087300  0.34687000  1
  O  O2  1  0.33333300  0.66666700  0.10391200  1
  O  O3  1  0.00000000  0.00000000  0.30668000  1
  O  O4  1  0.00000000  0.00000000  0.80668000  1
  O  O5  1  0.16891300  0.33782600  0.59775800  1
  O  O6  1  0.47912700  0.95825400  0.34687000  1
  O  O7  1  0.47912700  0.52087300  0.34687000  1
  O  O8  1  0.33782600  0.16891300  0.09775800  1
  O  O9  1  0.66217400  0.83108700  0.59775800  1
  O  O10  1  0.52087300  0.47912700  0.84687000  1
  O  O11  1  0.52087300  0.04174600  0.84687000  1
  O  O12  1  0.66666700  0.33333300  0.60391200  1
  O  O13  1  0.83108700  0.66217400  0.09775800  1
  O  O14  1  0.95825400  0.47912700  0.84687000  1
  O  O15  1  0.83108700  0.16891300  0.09775800  1
loop_
_geom_bond_atom_site_label_1
_geom_bond_atom_site_label_2
_geom_bond_distance
_geom_bond_site_symmetry_2
Li0 O14 1.977307 1_455
Li0 O11 1.977307 1_565
Li0 O10 1.977312 1_555
Li0 O2 1.978620 1_556
Li1 O4 1.790558 1_555
Li1 O13 1.991727 1_446
Li1 O8 1.991727 1_556
Li1 O15 1.991727 1_456
Li2 O3 1.790558 1_555
Li2 O9 1.991727 1_445
Li2 O5 1.991727 1_555
Li2 O0 1.991727 1_545
Li3 O6 1.977307 1_545
Li3 O1 1.977307 1_655
Li3 O7 1.977312 1_555
Li3 O12 1.978620 1_555
Mn0 O1 1.974716 1_555
Mn0 O6 1.974716 1_555
Mn0 O7 1.974720 1_555
Mn0 O0 2.011558 1_555
Mn0 O5 2.011562 1_555
Mn0 O9 2.011562 1_555
Mn1 O11 1.974716 1_555
Mn1 O14 1.974716 1_555
Mn1 O10 1.974720 1_555
Mn1 O15 2.011558 1_556
Mn1 O8 2.011562 1_556
Mn1 O13 2.011562 1_556
Fe0 O3 1.954190 1_565
Fe0 O2 1.970681 1_555
Fe0 O13 2.046292 1_455
Fe0 O8 2.046292 1_565
Fe0 O6 2.048363 1_555
Fe0 O1 2.048363 1_555
Fe1 O3 1.954186 1_555
Fe1 O2 1.970690 1_555
Fe1 O8 2.046288 1_555
Fe1 O15 2.046292 1_455
Fe1 O7 2.048364 1_555
Fe1 O1 2.048368 1_555
Fe2 O3 1.954186 1_665
Fe2 O2 1.970690 1_555
Fe2 O13 2.046288 1_555
Fe2 O15 2.046292 1_565
Fe2 O7 2.048364 1_555
Fe2 O6 2.048368 1_555
Fe3 O4 1.954186 1_555
Fe3 O12 1.970690 1_555
Fe3 O5 2.046288 1_555
Fe3 O0 2.046292 1_545
Fe3 O10 2.048364 1_555
Fe3 O11 2.048368 1_555
Fe4 O4 1.954186 1_665
Fe4 O12 1.970690 1_555
Fe4 O9 2.046288 1_555
Fe4 O0 2.046292 1_655
Fe4 O10 2.048364 1_555
Fe4 O14 2.048368 1_555
Fe5 O4 1.954190 1_655
Fe5 O12 1.970681 1_555
Fe5 O9 2.046292 1_545
Fe5 O5 2.046292 1_655
Fe5 O11 2.048363 1_555
Fe5 O14 2.048363 1_555
