# generated using pymatgen
data_V3FeCu2(PO4)6
_symmetry_space_group_name_H-M   'P 1'
_cell_length_a   8.56377896
_cell_length_b   8.56377896
_cell_length_c   8.56377819
_cell_angle_alpha   60.19195990
_cell_angle_beta   60.19195990
_cell_angle_gamma   60.19195599
_symmetry_Int_Tables_number   1
_chemical_formula_structural   V3FeCu2(PO4)6
_chemical_formula_sum   'V3 Fe1 Cu2 P6 O24'
_cell_volume   446.03100329
_cell_formula_units_Z   1
loop_
 _symmetry_equiv_pos_site_id
 _symmetry_equiv_pos_as_xyz
  1  'x, y, z'
loop_
 _atom_site_type_symbol
 _atom_site_label
 _atom_site_symmetry_multiplicity
 _atom_site_fract_x
 _atom_site_fract_y
 _atom_site_fract_z
 _atom_site_occupancy
  V  V0  1  0.64289400  0.64289400  0.64289400  1
  V  V1  1  0.85774100  0.85774100  0.85774100  1
  V  V2  1  0.35732900  0.35732900  0.35732900  1
  Fe  Fe0  1  0.14290600  0.14290600  0.14290600  1
  Cu  Cu0  1  0.00129600  0.00129600  0.00129600  1
  Cu  Cu1  1  0.50041100  0.50041100  0.50041100  1
  P  P0  1  0.54036900  0.95900800  0.24980100  1
  P  P1  1  0.24980100  0.54036900  0.95900800  1
  P  P2  1  0.95900800  0.24980100  0.54036900  1
  P  P3  1  0.03995700  0.75011700  0.45882000  1
  P  P4  1  0.75011700  0.45882000  0.03995700  1
  P  P5  1  0.45882000  0.03995700  0.75011700  1
  O  O0  1  0.30500600  0.50454600  0.12334700  1
  O  O1  1  0.12334700  0.30500600  0.50454600  1
  O  O2  1  0.50454600  0.12334700  0.30500600  1
  O  O3  1  0.73541700  0.94252400  0.08292400  1
  O  O4  1  0.38090000  0.99042200  0.19650100  1
  O  O5  1  0.56165300  0.76549700  0.41763000  1
  O  O6  1  0.08292400  0.73541700  0.94252400  1
  O  O7  1  0.41763000  0.56165300  0.76549700  1
  O  O8  1  0.00420100  0.80556800  0.62277400  1
  O  O9  1  0.76549700  0.41763000  0.56165300  1
  O  O10  1  0.05344800  0.91327700  0.26677200  1
  O  O11  1  0.80556800  0.62277400  0.00420100  1
  O  O12  1  0.19650100  0.38090000  0.99042200  1
  O  O13  1  0.94252400  0.08292400  0.73541700  1
  O  O14  1  0.23332500  0.58158500  0.44452800  1
  O  O15  1  0.99042200  0.19650100  0.38090000  1
  O  O16  1  0.58158500  0.44452800  0.23332500  1
  O  O17  1  0.91327700  0.26677200  0.05344800  1
  O  O18  1  0.44452800  0.23332500  0.58158500  1
  O  O19  1  0.62277400  0.00420100  0.80556800  1
  O  O20  1  0.26677200  0.05344800  0.91327700  1
  O  O21  1  0.49990100  0.87766800  0.68993500  1
  O  O22  1  0.87766800  0.68993500  0.49990100  1
  O  O23  1  0.68993500  0.49990100  0.87766800  1
loop_
_geom_bond_atom_site_label_1
_geom_bond_atom_site_label_2
_geom_bond_distance
_geom_bond_site_symmetry_2
Fe0 O15 1.938552 1_455
Fe0 O4 1.938552 1_545
Fe0 O12 1.938552 1_554
Fe0 O20 2.048218 1_554
Fe0 O17 2.048218 1_455
Fe0 O10 2.048219 1_545
Cu0 O10 2.215264 1_545
Cu0 O17 2.215264 1_455
Cu0 O20 2.215264 1_554
Cu0 O13 2.265726 1_454
Cu0 O6 2.265726 1_544
Cu0 O3 2.265726 1_445
Cu1 O16 2.262872 1_555
Cu1 O14 2.262873 1_555
Cu1 O18 2.262873 1_555
Cu1 O7 2.268304 1_555
Cu1 O9 2.268304 1_555
Cu1 O5 2.268304 1_555
O0 P1 1.544778 1_554
O0 V2 1.903886 1_555
O1 P2 1.544778 1_455
O1 V2 1.903886 1_555
O2 P0 1.544778 1_545
O2 V2 1.903886 1_555
O3 P0 1.563722 1_555
O3 V1 1.992684 1_554
O4 P0 1.509348 1_555
O5 P0 1.561206 1_555
O5 V0 1.975426 1_555
O6 P1 1.563722 1_555
O6 V1 1.992684 1_455
O7 P1 1.561206 1_555
O7 V0 1.975426 1_555
O8 P3 1.543224 1_555
O8 V1 1.910309 1_455
O9 P2 1.561206 1_555
O9 V0 1.975426 1_555
O10 P3 1.535417 1_555
O11 P4 1.543224 1_555
O11 V1 1.910309 1_554
O12 P1 1.509348 1_555
O13 P2 1.563722 1_555
O13 V1 1.992684 1_545
O14 P3 1.561480 1_555
O14 V2 1.995845 1_555
O15 P2 1.509348 1_555
O16 P4 1.561480 1_555
O16 V2 1.995846 1_555
O17 P4 1.535417 1_555
O18 P5 1.561480 1_555
O18 V2 1.995845 1_555
O19 P5 1.543224 1_555
O19 V1 1.910309 1_545
O20 P5 1.535417 1_555
O21 P5 1.538412 1_565
O21 V0 1.889765 1_555
O22 P3 1.538412 1_655
O22 V0 1.889765 1_555
O23 P4 1.538412 1_556
O23 V0 1.889765 1_555
