# generated using pymatgen
data_Fe(PO3)3
_symmetry_space_group_name_H-M   'P 1'
_cell_length_a   9.45070100
_cell_length_b   9.45662839
_cell_length_c   9.65869468
_cell_angle_alpha   104.51748443
_cell_angle_beta   109.54135950
_cell_angle_gamma   108.51006787
_symmetry_Int_Tables_number   1
_chemical_formula_structural   Fe(PO3)3
_chemical_formula_sum   'Fe4 P12 O36'
_cell_volume   707.23232334
_cell_formula_units_Z   4
loop_
 _symmetry_equiv_pos_site_id
 _symmetry_equiv_pos_as_xyz
  1  'x, y, z'
loop_
 _atom_site_type_symbol
 _atom_site_label
 _atom_site_symmetry_multiplicity
 _atom_site_fract_x
 _atom_site_fract_y
 _atom_site_fract_z
 _atom_site_occupancy
  Fe  Fe0  1  0.69460600  0.89291900  0.79368200  1
  Fe  Fe1  1  0.22412800  0.74099900  0.27257400  1
  Fe  Fe2  1  0.30539400  0.10708100  0.20631800  1
  Fe  Fe3  1  0.77587200  0.25900100  0.72742600  1
  P  P0  1  0.79971100  0.06719300  0.16970200  1
  P  P1  1  0.43235500  0.29618900  0.59147600  1
  P  P2  1  0.56764500  0.70381100  0.40852400  1
  P  P3  1  0.09309700  0.18403300  0.92119000  1
  P  P4  1  0.84109000  0.49177800  0.09844300  1
  P  P5  1  0.15891000  0.50822200  0.90155700  1
  P  P6  1  0.66630500  0.43192300  0.30634600  1
  P  P7  1  0.90690300  0.81596700  0.07881000  1
  P  P8  1  0.20028900  0.93280700  0.83029800  1
  P  P9  1  0.33369500  0.56807700  0.69365400  1
  P  P10  1  0.60880400  0.00235100  0.35101000  1
  P  P11  1  0.39119600  0.99764900  0.64899000  1
  O  O0  1  0.13982300  0.17201000  0.08211600  1
  O  O1  1  0.81317400  0.48183000  0.45431400  1
  O  O2  1  0.36592800  0.98358100  0.79828400  1
  O  O3  1  0.86017700  0.82799000  0.91788400  1
  O  O4  1  0.42500600  0.96546100  0.30954100  1
  O  O5  1  0.72423600  0.03763500  0.99348700  1
  O  O6  1  0.67473900  0.76281500  0.58584500  1
  O  O7  1  0.83868000  0.90994400  0.17953600  1
  O  O8  1  0.18682600  0.51817000  0.54568600  1
  O  O9  1  0.98466800  0.42699900  0.76533900  1
  O  O10  1  0.27576400  0.96236500  0.00651300  1
  O  O11  1  0.38271400  0.65326700  0.35275700  1
  O  O12  1  0.73638700  0.14260500  0.50632900  1
  O  O13  1  0.57499400  0.03453900  0.69045900  1
  O  O14  1  0.09412700  0.87369700  0.18164400  1
  O  O15  1  0.63407200  0.01641900  0.20171600  1
  O  O16  1  0.50996600  0.27273600  0.23876500  1
  O  O17  1  0.01533200  0.57300100  0.23466100  1
  O  O18  1  0.32526100  0.23718500  0.41415500  1
  O  O19  1  0.80629400  0.36093200  0.94905700  1
  O  O20  1  0.80219500  0.63297500  0.05007900  1
  O  O21  1  0.61728600  0.34673300  0.64724300  1
  O  O22  1  0.16132000  0.09005600  0.82046400  1
  O  O23  1  0.36367600  0.15541100  0.64954400  1
  O  O24  1  0.19370600  0.63906800  0.05094300  1
  O  O25  1  0.93740700  0.22139600  0.29257600  1
  O  O26  1  0.29981400  0.57963100  0.85215700  1
  O  O27  1  0.06259300  0.77860400  0.70742400  1
  O  O28  1  0.59303900  0.56831700  0.30244300  1
  O  O29  1  0.49003400  0.72726400  0.76123500  1
  O  O30  1  0.70018600  0.42036900  0.14784300  1
  O  O31  1  0.19780500  0.36702500  0.94992100  1
  O  O32  1  0.90587300  0.12630300  0.81835600  1
  O  O33  1  0.26361300  0.85739500  0.49367100  1
  O  O34  1  0.40696100  0.43168300  0.69755700  1
  O  O35  1  0.63632400  0.84458900  0.35045600  1
loop_
_geom_bond_atom_site_label_1
_geom_bond_atom_site_label_2
_geom_bond_distance
_geom_bond_site_symmetry_2
Fe0 O29 1.927588 1_555
Fe0 O5 1.935634 1_565
Fe0 O6 1.985377 1_555
Fe0 O3 1.997040 1_555
Fe0 O13 2.223094 1_565
Fe0 O32 2.352510 1_565
Fe1 O17 1.945836 1_555
Fe1 O11 1.967106 1_555
Fe1 O33 1.984654 1_555
Fe1 O24 1.993003 1_555
Fe1 O14 2.159893 1_555
Fe1 O4 2.201167 1_555
Fe2 O16 1.927588 1_555
Fe2 O10 1.935634 1_545
Fe2 O18 1.985377 1_555
Fe2 O0 1.997040 1_555
Fe2 O4 2.223094 1_545
Fe2 O14 2.352510 1_545
Fe3 O9 1.945836 1_555
Fe3 O21 1.967106 1_555
Fe3 O12 1.984654 1_555
Fe3 O19 1.993003 1_555
Fe3 O32 2.159893 1_555
Fe3 O13 2.201167 1_555
O0 P3 1.511686 1_554
O1 P6 1.452831 1_555
O2 P11 1.568569 1_555
O2 P8 1.642454 1_555
O3 P7 1.511686 1_556
O4 P10 1.542442 1_565
O5 P0 1.518711 1_556
O6 P2 1.507218 1_555
O7 P7 1.581766 1_555
O7 P0 1.658644 1_565
O8 P9 1.452831 1_555
O9 P5 1.507826 1_655
O10 P8 1.518711 1_554
O11 P2 1.511254 1_555
O12 P10 1.496824 1_555
O13 P11 1.542442 1_545
O14 P7 1.534428 1_455
O15 P10 1.568569 1_555
O15 P0 1.642454 1_555
O16 P6 1.524860 1_555
O17 P4 1.507826 1_455
O18 P1 1.507218 1_555
O19 P4 1.500074 1_556
O20 P7 1.593448 1_555
O20 P4 1.626561 1_555
O21 P1 1.511254 1_555
O22 P3 1.581766 1_555
O22 P8 1.658644 1_545
O23 P11 1.592710 1_545
O23 P1 1.605427 1_555
O24 P5 1.500074 1_554
O25 P0 1.456942 1_555
O26 P5 1.572441 1_555
O26 P9 1.650607 1_555
O27 P8 1.456942 1_555
O28 P2 1.565481 1_555
O28 P6 1.648786 1_555
O29 P9 1.524860 1_555
O30 P4 1.572441 1_555
O30 P6 1.650607 1_555
O31 P3 1.593448 1_555
O31 P5 1.626561 1_555
O32 P3 1.534428 1_655
O33 P11 1.496824 1_555
O34 P1 1.565481 1_555
O34 P9 1.648786 1_555
O35 P10 1.592710 1_565
O35 P2 1.605427 1_555
