# generated using pymatgen
data_Li5Mn6(BO3)6
_symmetry_space_group_name_H-M   'P 1'
_cell_length_a   14.74462498
_cell_length_b   14.74462498
_cell_length_c   8.24060698
_cell_angle_alpha   89.58026406
_cell_angle_beta   89.58026406
_cell_angle_gamma   24.99165005
_symmetry_Int_Tables_number   1
_chemical_formula_structural   Li5Mn6(BO3)6
_chemical_formula_sum   'Li10 Mn12 B12 O36'
_cell_volume   756.87984833
_cell_formula_units_Z   2
loop_
 _symmetry_equiv_pos_site_id
 _symmetry_equiv_pos_as_xyz
  1  'x, y, z'
loop_
 _atom_site_type_symbol
 _atom_site_label
 _atom_site_symmetry_multiplicity
 _atom_site_fract_x
 _atom_site_fract_y
 _atom_site_fract_z
 _atom_site_occupancy
  Li  Li0  1  0.74488600  0.74488600  0.71046300  1
  Li  Li1  1  0.24498100  0.24498100  0.70807800  1
  Li  Li2  1  0.92926700  0.92926700  0.65781700  1
  Li  Li3  1  0.42924400  0.42924400  0.65875500  1
  Li  Li4  1  0.57352300  0.57352300  0.63101200  1
  Li  Li5  1  0.99372800  0.99372800  0.21071900  1
  Li  Li6  1  0.49515600  0.49515600  0.21286700  1
  Li  Li7  1  0.67930900  0.67930900  0.15659800  1
  Li  Li8  1  0.17891000  0.17891000  0.16156300  1
  Li  Li9  1  0.32394300  0.32394300  0.13115400  1
  Mn  Mn0  1  0.75794000  0.25143000  0.86431000  1
  Mn  Mn1  1  0.25143000  0.75794000  0.86431000  1
  Mn  Mn2  1  0.90631200  0.40357100  0.82232500  1
  Mn  Mn3  1  0.40357100  0.90631200  0.82232500  1
  Mn  Mn4  1  0.59170200  0.08893000  0.81745300  1
  Mn  Mn5  1  0.08893000  0.59170200  0.81745300  1
  Mn  Mn6  1  0.50892400  0.00031700  0.35896000  1
  Mn  Mn7  1  0.00031700  0.50892400  0.35896000  1
  Mn  Mn8  1  0.65847600  0.14914600  0.32247700  1
  Mn  Mn9  1  0.14914600  0.65847600  0.32247700  1
  Mn  Mn10  1  0.84700800  0.33324900  0.31833800  1
  Mn  Mn11  1  0.33324900  0.84700800  0.31833800  1
  B  B0  1  0.00452100  0.49202800  0.99703700  1
  B  B1  1  0.49202800  0.00452100  0.99703700  1
  B  B2  1  0.91854100  0.91854100  0.99995400  1
  B  B3  1  0.41771000  0.41771000  0.99910300  1
  B  B4  1  0.08228700  0.08228700  0.00768800  1
  B  B5  1  0.58283800  0.58283800  0.00154500  1
  B  B6  1  0.74394100  0.25228500  0.49896700  1
  B  B7  1  0.25228500  0.74394100  0.49896700  1
  B  B8  1  0.33341200  0.33341200  0.50199700  1
  B  B9  1  0.83215900  0.83215900  0.50742900  1
  B  B10  1  0.66636600  0.66636600  0.49928200  1
  B  B11  1  0.16922100  0.16922100  0.49940500  1
  O  O0  1  0.46571500  0.46571500  0.98572400  1
  O  O1  1  0.96652400  0.96652400  0.97975800  1
  O  O2  1  0.63122800  0.63122800  0.98051200  1
  O  O3  1  0.13076000  0.13076000  0.98683000  1
  O  O4  1  0.05430900  0.05430900  0.87377400  1
  O  O5  1  0.55501000  0.55501000  0.86346600  1
  O  O6  1  0.89010300  0.89010300  0.86527900  1
  O  O7  1  0.39005500  0.39005500  0.86217600  1
  O  O8  1  0.97677800  0.47790200  0.84427800  1
  O  O9  1  0.47790200  0.97677800  0.84427800  1
  O  O10  1  0.81348700  0.81348700  0.66427200  1
  O  O11  1  0.31392300  0.31392300  0.65578200  1
  O  O12  1  0.64436500  0.64436500  0.65092700  1
  O  O13  1  0.15251700  0.15251700  0.65731000  1
  O  O14  1  0.72101400  0.22039600  0.64047000  1
  O  O15  1  0.22039600  0.72101400  0.64047000  1
  O  O16  1  0.77579800  0.31480700  0.50840200  1
  O  O17  1  0.31480700  0.77579800  0.50840200  1
  O  O18  1  0.21708400  0.21708400  0.47523600  1
  O  O19  1  0.71422900  0.71422900  0.48791900  1
  O  O20  1  0.88059600  0.88059600  0.48576500  1
  O  O21  1  0.38189700  0.38189700  0.48177900  1
  O  O22  1  0.80379000  0.80379000  0.37454700  1
  O  O23  1  0.30599100  0.30599100  0.36379700  1
  O  O24  1  0.63930100  0.63930100  0.36088200  1
  O  O25  1  0.13980500  0.13980500  0.36718000  1
  O  O26  1  0.72874000  0.22365000  0.34773900  1
  O  O27  1  0.22365000  0.72874000  0.34773900  1
  O  O28  1  0.06319700  0.06319700  0.16405100  1
  O  O29  1  0.56339300  0.56339300  0.15491000  1
  O  O30  1  0.90111600  0.90111600  0.15662500  1
  O  O31  1  0.39627500  0.39627500  0.15156700  1
  O  O32  1  0.97126600  0.46865900  0.13643200  1
  O  O33  1  0.46865900  0.97126600  0.13643200  1
  O  O34  1  0.52618100  0.06429900  0.00801400  1
  O  O35  1  0.06429900  0.52618100  0.00801400  1
loop_
_geom_bond_atom_site_label_1
_geom_bond_atom_site_label_2
_geom_bond_distance
_geom_bond_site_symmetry_2
Li0 O8 1.998961 1_555
Li0 O9 1.998961 1_555
Li0 O10 2.008609 1_555
Li0 O19 2.041205 1_555
Li1 O8 2.016192 1_455
Li1 O9 2.016192 1_545
Li1 O11 2.027971 1_555
Li1 O18 2.085630 1_555
Li2 O15 1.994835 1_655
Li2 O14 1.994835 1_565
Li2 O20 2.000893 1_555
Li2 O6 2.040891 1_555
Li3 O14 1.998914 1_555
Li3 O15 1.998914 1_555
Li3 O21 2.003727 1_555
Li3 O7 2.013617 1_555
Li4 O17 1.963732 1_555
Li4 O16 1.963732 1_555
Li4 O5 1.984477 1_555
Li4 O12 2.047410 1_555
Li5 O27 2.003523 1_655
Li5 O26 2.003523 1_565
Li5 O28 2.033863 1_665
Li5 O1 2.063541 1_554
Li6 O29 2.018326 1_555
Li6 O26 2.029951 1_555
Li6 O27 2.029951 1_555
Li6 O0 2.060559 1_554
Li7 O33 1.991405 1_555
Li7 O32 1.991405 1_555
Li7 O2 2.012946 1_554
Li7 O24 2.032633 1_555
Li8 O32 1.988509 1_455
Li8 O33 1.988509 1_545
Li8 O3 2.006249 1_554
Li8 O25 2.027302 1_555
Li9 O34 1.973953 1_555
Li9 O35 1.973953 1_555
Li9 O23 1.981820 1_555
Li9 O31 2.090530 1_555
Mn0 O14 2.094514 1_555
Mn0 O4 2.127815 1_655
Mn0 O1 2.138957 1_545
Mn0 O5 2.170330 1_555
Mn0 O0 2.203220 1_555
Mn1 O15 2.094514 1_555
Mn1 O4 2.127815 1_565
Mn1 O1 2.138957 1_455
Mn1 O5 2.170330 1_555
Mn1 O0 2.203220 1_555
Mn2 O13 2.090946 1_655
Mn2 O8 2.093628 1_555
Mn2 O12 2.160220 1_555
Mn2 O2 2.173581 1_555
Mn2 O3 2.196561 1_655
Mn3 O13 2.090946 1_565
Mn3 O9 2.093628 1_555
Mn3 O12 2.160220 1_555
Mn3 O2 2.173581 1_555
Mn3 O3 2.196561 1_565
Mn4 O34 2.033864 1_556
Mn4 O10 2.172789 1_545
Mn4 O6 2.175953 1_545
Mn4 O7 2.183387 1_555
Mn4 O11 2.222675 1_555
Mn5 O35 2.033864 1_556
Mn5 O10 2.172789 1_455
Mn5 O6 2.175953 1_455
Mn5 O7 2.183387 1_555
Mn5 O11 2.222675 1_555
Mn6 O33 2.094540 1_545
Mn6 O22 2.116798 1_545
Mn6 O18 2.168711 1_555
Mn6 O23 2.196066 1_555
Mn6 O19 2.218273 1_545
Mn7 O32 2.094540 1_455
Mn7 O22 2.116798 1_455
Mn7 O18 2.168711 1_555
Mn7 O23 2.196066 1_555
Mn7 O19 2.218273 1_455
Mn8 O30 2.079886 1_545
Mn8 O26 2.095955 1_555
Mn8 O31 2.162305 1_555
Mn8 O20 2.166618 1_545
Mn8 O21 2.179274 1_555
Mn9 O30 2.079886 1_455
Mn9 O27 2.095955 1_555
Mn9 O31 2.162305 1_555
Mn9 O20 2.166618 1_455
Mn9 O21 2.179274 1_555
Mn10 O16 2.028965 1_555
Mn10 O25 2.150004 1_655
Mn10 O28 2.153801 1_655
Mn10 O24 2.195682 1_555
Mn10 O29 2.260131 1_555
Mn11 O17 2.028965 1_555
Mn11 O25 2.150004 1_565
Mn11 O28 2.153801 1_565
Mn11 O24 2.195682 1_555
Mn11 O29 2.260131 1_555
B0 O35 1.358331 1_556
B0 O8 1.400424 1_455
B0 O32 1.403880 1_456
B1 O34 1.358331 1_556
B1 O9 1.400424 1_545
B1 O33 1.403880 1_546
B2 O30 1.381596 1_556
B2 O6 1.384071 1_555
B2 O1 1.390213 1_555
B3 O0 1.385663 1_555
B3 O7 1.385867 1_555
B3 O31 1.395616 1_556
B4 O4 1.371118 1_554
B4 O28 1.397050 1_555
B4 O3 1.404836 1_554
B5 O29 1.378420 1_555
B5 O5 1.396530 1_554
B5 O2 1.402631 1_554
B6 O16 1.364934 1_555
B6 O26 1.401743 1_555
B6 O14 1.403354 1_555
B7 O17 1.364934 1_555
B7 O27 1.401743 1_555
B7 O15 1.403354 1_555
B8 O11 1.382088 1_555
B8 O23 1.390589 1_555
B8 O21 1.404583 1_555
B9 O22 1.370989 1_555
B9 O10 1.396092 1_555
B9 O20 1.404587 1_555
B10 O19 1.380486 1_555
B10 O24 1.386096 1_555
B10 O12 1.396769 1_555
B11 O13 1.383871 1_555
B11 O25 1.385049 1_555
B11 O18 1.390848 1_555
