# generated using pymatgen
data_Li2Mn2Cr3O12
_symmetry_space_group_name_H-M   'P 1'
_cell_length_a   9.28830500
_cell_length_b   9.33983700
_cell_length_c   12.89355900
_cell_angle_alpha   90.00000000
_cell_angle_beta   90.00000000
_cell_angle_gamma   90.00000000
_symmetry_Int_Tables_number   1
_chemical_formula_structural   Li2Mn2Cr3O12
_chemical_formula_sum   'Li8 Mn8 Cr12 O48'
_cell_volume   1118.53242088
_cell_formula_units_Z   4
loop_
 _symmetry_equiv_pos_site_id
 _symmetry_equiv_pos_as_xyz
  1  'x, y, z'
loop_
 _atom_site_type_symbol
 _atom_site_label
 _atom_site_symmetry_multiplicity
 _atom_site_fract_x
 _atom_site_fract_y
 _atom_site_fract_z
 _atom_site_occupancy
  Li  Li0  1  0.21977400  0.27251200  0.18602200  1
  Li  Li1  1  0.78022600  0.77251200  0.18602200  1
  Li  Li2  1  0.28022600  0.77251200  0.31397800  1
  Li  Li3  1  0.71977400  0.27251200  0.31397800  1
  Li  Li4  1  0.28022600  0.72748800  0.68602200  1
  Li  Li5  1  0.71977400  0.22748800  0.68602200  1
  Li  Li6  1  0.21977400  0.22748800  0.81397800  1
  Li  Li7  1  0.78022600  0.72748800  0.81397800  1
  Mn  Mn0  1  0.25288000  0.96538300  0.11847500  1
  Mn  Mn1  1  0.74712000  0.46538300  0.11847500  1
  Mn  Mn2  1  0.75288000  0.96538300  0.38152500  1
  Mn  Mn3  1  0.24712000  0.46538300  0.38152500  1
  Mn  Mn4  1  0.24712000  0.03461700  0.61847500  1
  Mn  Mn5  1  0.75288000  0.53461700  0.61847500  1
  Mn  Mn6  1  0.25288000  0.53461700  0.88152500  1
  Mn  Mn7  1  0.74712000  0.03461700  0.88152500  1
  Cr  Cr0  1  0.45867100  0.25000000  0.00000000  1
  Cr  Cr1  1  0.54132900  0.75000000  0.00000000  1
  Cr  Cr2  1  0.10045900  0.60557400  0.14485300  1
  Cr  Cr3  1  0.89954100  0.10557400  0.14485300  1
  Cr  Cr4  1  0.39954100  0.10557400  0.35514700  1
  Cr  Cr5  1  0.60045900  0.60557400  0.35514700  1
  Cr  Cr6  1  0.04132900  0.75000000  0.50000000  1
  Cr  Cr7  1  0.95867100  0.25000000  0.50000000  1
  Cr  Cr8  1  0.39954100  0.39442600  0.64485300  1
  Cr  Cr9  1  0.60045900  0.89442600  0.64485300  1
  Cr  Cr10  1  0.10045900  0.89442600  0.85514700  1
  Cr  Cr11  1  0.89954100  0.39442600  0.85514700  1
  O  O0  1  0.13884700  0.57285000  0.02272800  1
  O  O1  1  0.86115300  0.07285000  0.02272800  1
  O  O2  1  0.55974400  0.36866800  0.06017900  1
  O  O3  1  0.44025600  0.86866800  0.06017900  1
  O  O4  1  0.35199200  0.16913900  0.08842700  1
  O  O5  1  0.64800800  0.66913900  0.08842700  1
  O  O6  1  0.07943100  0.11107400  0.16082200  1
  O  O7  1  0.92056900  0.61107400  0.16082200  1
  O  O8  1  0.17141900  0.76356800  0.17918200  1
  O  O9  1  0.82858100  0.26356800  0.17918200  1
  O  O10  1  0.83038800  0.97462700  0.21928400  1
  O  O11  1  0.16961200  0.47462700  0.21928400  1
  O  O12  1  0.33038800  0.97462700  0.28071600  1
  O  O13  1  0.66961200  0.47462700  0.28071600  1
  O  O14  1  0.67141900  0.76356800  0.32081800  1
  O  O15  1  0.32858100  0.26356800  0.32081800  1
  O  O16  1  0.42056900  0.61107400  0.33917800  1
  O  O17  1  0.57943100  0.11107400  0.33917800  1
  O  O18  1  0.14800800  0.66913900  0.41157300  1
  O  O19  1  0.85199200  0.16913900  0.41157300  1
  O  O20  1  0.05974400  0.36866800  0.43982100  1
  O  O21  1  0.94025600  0.86866800  0.43982100  1
  O  O22  1  0.63884700  0.57285000  0.47727200  1
  O  O23  1  0.36115300  0.07285000  0.47727200  1
  O  O24  1  0.36115300  0.42715000  0.52272800  1
  O  O25  1  0.63884700  0.92715000  0.52272800  1
  O  O26  1  0.05974400  0.13133200  0.56017900  1
  O  O27  1  0.94025600  0.63133200  0.56017900  1
  O  O28  1  0.14800800  0.83086100  0.58842700  1
  O  O29  1  0.85199200  0.33086100  0.58842700  1
  O  O30  1  0.42056900  0.88892600  0.66082200  1
  O  O31  1  0.57943100  0.38892600  0.66082200  1
  O  O32  1  0.32858100  0.23643200  0.67918200  1
  O  O33  1  0.67141900  0.73643200  0.67918200  1
  O  O34  1  0.33038800  0.52537300  0.71928400  1
  O  O35  1  0.66961200  0.02537300  0.71928400  1
  O  O36  1  0.16961200  0.02537300  0.78071600  1
  O  O37  1  0.83038800  0.52537300  0.78071600  1
  O  O38  1  0.17141900  0.73643200  0.82081800  1
  O  O39  1  0.82858100  0.23643200  0.82081800  1
  O  O40  1  0.07943100  0.38892600  0.83917800  1
  O  O41  1  0.92056900  0.88892600  0.83917800  1
  O  O42  1  0.35199200  0.33086100  0.91157300  1
  O  O43  1  0.64800800  0.83086100  0.91157300  1
  O  O44  1  0.44025600  0.63133200  0.93982100  1
  O  O45  1  0.55974400  0.13133200  0.93982100  1
  O  O46  1  0.13884700  0.92715000  0.97727200  1
  O  O47  1  0.86115300  0.42715000  0.97727200  1
loop_
_geom_bond_atom_site_label_1
_geom_bond_atom_site_label_2
_geom_bond_distance
_geom_bond_site_symmetry_2
Li0 O11 1.991105 1_555
Li0 O4 2.005937 1_555
Li0 O15 2.012213 1_555
Li0 O6 2.019476 1_555
Li1 O10 1.991105 1_555
Li1 O5 2.005937 1_555
Li1 O14 2.012213 1_555
Li1 O7 2.019476 1_555
Li2 O12 1.991105 1_555
Li2 O18 2.005937 1_555
Li2 O8 2.012213 1_555
Li2 O16 2.019476 1_555
Li3 O13 1.991105 1_555
Li3 O19 2.005937 1_555
Li3 O9 2.012213 1_555
Li3 O17 2.019476 1_555
Li4 O34 1.991105 1_555
Li4 O28 2.005937 1_555
Li4 O38 2.012213 1_555
Li4 O30 2.019476 1_555
Li5 O35 1.991105 1_555
Li5 O29 2.005937 1_555
Li5 O39 2.012213 1_555
Li5 O31 2.019476 1_555
Li6 O36 1.991105 1_555
Li6 O42 2.005937 1_555
Li6 O32 2.012213 1_555
Li6 O40 2.019476 1_555
Li7 O37 1.991105 1_555
Li7 O43 2.005937 1_555
Li7 O33 2.012213 1_555
Li7 O41 2.019476 1_555
Mn0 O3 2.099984 1_555
Mn0 O46 2.136347 1_554
Mn0 O4 2.149224 1_565
Mn0 O8 2.176713 1_555
Mn0 O6 2.178343 1_565
Mn0 O12 2.213963 1_555
Mn1 O2 2.099984 1_555
Mn1 O47 2.136347 1_554
Mn1 O5 2.149224 1_555
Mn1 O9 2.176713 1_555
Mn1 O7 2.178343 1_555
Mn1 O13 2.213963 1_555
Mn2 O21 2.099984 1_555
Mn2 O25 2.136347 1_555
Mn2 O19 2.149224 1_565
Mn2 O14 2.176713 1_555
Mn2 O17 2.178343 1_565
Mn2 O10 2.213963 1_555
Mn3 O20 2.099984 1_555
Mn3 O24 2.136347 1_555
Mn3 O18 2.149224 1_555
Mn3 O15 2.176713 1_555
Mn3 O16 2.178343 1_555
Mn3 O11 2.213963 1_555
Mn4 O26 2.099984 1_555
Mn4 O23 2.136347 1_555
Mn4 O28 2.149224 1_545
Mn4 O32 2.176713 1_555
Mn4 O30 2.178343 1_545
Mn4 O36 2.213963 1_555
Mn5 O27 2.099984 1_555
Mn5 O22 2.136347 1_555
Mn5 O29 2.149224 1_555
Mn5 O33 2.176713 1_555
Mn5 O31 2.178343 1_555
Mn5 O37 2.213963 1_555
Mn6 O44 2.099984 1_555
Mn6 O0 2.136347 1_556
Mn6 O42 2.149224 1_555
Mn6 O38 2.176713 1_555
Mn6 O40 2.178343 1_555
Mn6 O34 2.213963 1_555
Mn7 O45 2.099984 1_555
Mn7 O1 2.136347 1_556
Mn7 O43 2.149224 1_545
Mn7 O39 2.176713 1_555
Mn7 O41 2.178343 1_545
Mn7 O35 2.213963 1_555
Cr0 O45 1.646758 1_554
Cr0 O2 1.646758 1_555
Cr0 O4 1.688817 1_555
Cr0 O42 1.688817 1_554
Cr1 O44 1.646758 1_554
Cr1 O3 1.646758 1_555
Cr1 O5 1.688817 1_555
Cr1 O43 1.688817 1_554
Cr2 O0 1.643166 1_555
Cr2 O8 1.675659 1_555
Cr2 O11 1.682064 1_555
Cr2 O7 1.684295 1_455
Cr3 O1 1.643166 1_555
Cr3 O9 1.675659 1_555
Cr3 O10 1.682064 1_545
Cr3 O6 1.684295 1_655
Cr4 O23 1.643166 1_555
Cr4 O15 1.675659 1_555
Cr4 O12 1.682064 1_545
Cr4 O17 1.684295 1_555
Cr5 O22 1.643166 1_555
Cr5 O14 1.675659 1_555
Cr5 O13 1.682064 1_555
Cr5 O16 1.684295 1_555
Cr6 O21 1.646758 1_455
Cr6 O27 1.646758 1_455
Cr6 O18 1.688817 1_555
Cr6 O28 1.688817 1_555
Cr7 O20 1.646758 1_655
Cr7 O26 1.646758 1_655
Cr7 O19 1.688817 1_555
Cr7 O29 1.688817 1_555
Cr8 O24 1.643166 1_555
Cr8 O32 1.675659 1_555
Cr8 O34 1.682064 1_555
Cr8 O31 1.684295 1_555
Cr9 O25 1.643166 1_555
Cr9 O33 1.675659 1_555
Cr9 O35 1.682064 1_565
Cr9 O30 1.684295 1_555
Cr10 O46 1.643166 1_555
Cr10 O38 1.675659 1_555
Cr10 O36 1.682064 1_565
Cr10 O41 1.684295 1_455
Cr11 O47 1.643166 1_555
Cr11 O39 1.675659 1_555
Cr11 O37 1.682064 1_555
Cr11 O40 1.684295 1_655
