# generated using pymatgen
data_Li3V4FeO8
_symmetry_space_group_name_H-M   'P 1'
_cell_length_a   6.03381744
_cell_length_b   6.03381744
_cell_length_c   6.08541907
_cell_angle_alpha   60.00978793
_cell_angle_beta   60.00978793
_cell_angle_gamma   60.01261608
_symmetry_Int_Tables_number   1
_chemical_formula_structural   Li3V4FeO8
_chemical_formula_sum   'Li3 V4 Fe1 O8'
_cell_volume   156.69872529
_cell_formula_units_Z   1
loop_
 _symmetry_equiv_pos_site_id
 _symmetry_equiv_pos_as_xyz
  1  'x, y, z'
loop_
 _atom_site_type_symbol
 _atom_site_label
 _atom_site_symmetry_multiplicity
 _atom_site_fract_x
 _atom_site_fract_y
 _atom_site_fract_z
 _atom_site_occupancy
  Li  Li0  1  0.00000000  0.50000000  0.00000000  1
  Li  Li1  1  0.50000000  0.00000000  0.00000000  1
  Li  Li2  1  0.00000000  0.00000000  0.50000000  1
  V  V0  1  0.50000000  0.50000000  0.50000000  1
  V  V1  1  0.00000000  0.00000000  0.00000000  1
  V  V2  1  0.50000000  0.00000000  0.50000000  1
  V  V3  1  0.00000000  0.50000000  0.50000000  1
  Fe  Fe0  1  0.50000000  0.50000000  0.00000000  1
  O  O0  1  0.74514300  0.74514300  0.73486700  1
  O  O1  1  0.24455000  0.73988100  0.26843000  1
  O  O2  1  0.73988100  0.24455000  0.26843000  1
  O  O3  1  0.25485700  0.25485700  0.26513300  1
  O  O4  1  0.25806800  0.25806800  0.72987700  1
  O  O5  1  0.75545000  0.26011900  0.73157000  1
  O  O6  1  0.26011900  0.75545000  0.73157000  1
  O  O7  1  0.74193200  0.74193200  0.27012300  1
loop_
_geom_bond_atom_site_label_1
_geom_bond_atom_site_label_2
_geom_bond_distance
_geom_bond_site_symmetry_2
Li0 O7 2.196709 1_455
Li0 O4 2.196709 1_554
Li0 O2 2.201265 1_455
Li0 O6 2.201265 1_554
Li0 O3 2.230835 1_555
Li0 O0 2.230835 1_454
Li1 O7 2.196709 1_545
Li1 O4 2.196709 1_554
Li1 O1 2.201265 1_545
Li1 O5 2.201265 1_554
Li1 O3 2.230835 1_555
Li1 O0 2.230835 1_544
Li2 O1 2.108037 1_545
Li2 O5 2.108037 1_455
Li2 O2 2.108037 1_455
Li2 O6 2.108037 1_545
Li2 O3 2.177518 1_555
Li2 O0 2.177518 1_445
Fe0 O0 2.096276 1_554
Fe0 O3 2.096276 1_555
Fe0 O6 2.180723 1_554
Fe0 O5 2.180723 1_554
Fe0 O1 2.180723 1_555
Fe0 O2 2.180723 1_555
O0 V2 2.058623 1_565
O0 V3 2.058623 1_655
O1 V3 2.067658 1_555
O1 V0 2.087773 1_555
O1 V1 2.200131 1_565
O2 V2 2.067658 1_555
O2 V0 2.087773 1_555
O2 V1 2.200131 1_655
O3 V3 2.058623 1_555
O3 V2 2.058623 1_555
O4 V0 2.065425 1_555
O4 V3 2.092005 1_555
O4 V2 2.092005 1_555
O4 V1 2.203961 1_556
O5 V3 2.067658 1_655
O5 V0 2.087773 1_555
O5 V1 2.200131 1_656
O6 V2 2.067658 1_565
O6 V0 2.087773 1_555
O6 V1 2.200131 1_566
O7 V0 2.065425 1_555
O7 V2 2.092005 1_565
O7 V3 2.092005 1_655
O7 V1 2.203961 1_665
