# generated using pymatgen
data_Li4SbTe2WO12
_symmetry_space_group_name_H-M   'P 1'
_cell_length_a   5.26904200
_cell_length_b   5.68942500
_cell_length_c   7.73917481
_cell_angle_alpha   95.71831934
_cell_angle_beta   90.22099039
_cell_angle_gamma   89.99980866
_symmetry_Int_Tables_number   1
_chemical_formula_structural   Li4SbTe2WO12
_chemical_formula_sum   'Li4 Sb1 Te2 W1 O12'
_cell_volume   230.84734504
_cell_formula_units_Z   1
loop_
 _symmetry_equiv_pos_site_id
 _symmetry_equiv_pos_as_xyz
  1  'x, y, z'
loop_
 _atom_site_type_symbol
 _atom_site_label
 _atom_site_symmetry_multiplicity
 _atom_site_fract_x
 _atom_site_fract_y
 _atom_site_fract_z
 _atom_site_occupancy
  Li  Li0  1  0.00503400  0.57829500  0.70447100  1
  Li  Li1  1  0.49558900  0.09400700  0.20979900  1
  Li  Li2  1  0.01066300  0.55168400  0.22940700  1
  Li  Li3  1  0.49156100  0.05809100  0.71614900  1
  Sb  Sb0  1  0.50210700  0.50742600  0.49646800  1
  Te  Te0  1  0.00481400  0.00602700  0.48581800  1
  Te  Te1  1  0.49439300  0.53648000  0.99382800  1
  W  W0  1  0.99708100  0.00896200  0.99467900  1
  O  O0  1  0.29335800  0.80017200  0.57776900  1
  O  O1  1  0.13650700  0.96350700  0.24902200  1
  O  O2  1  0.30655300  0.12425800  0.93796200  1
  O  O3  1  0.20409700  0.30188100  0.57555400  1
  O  O4  1  0.85154500  0.28285300  0.08909700  1
  O  O5  1  0.36938800  0.47130700  0.25669200  1
  O  O6  1  0.63580500  0.50761500  0.73882500  1
  O  O7  1  0.15543400  0.66904000  0.95062400  1
  O  O8  1  0.82135400  0.68289100  0.43912500  1
  O  O9  1  0.68329400  0.82363500  0.07543200  1
  O  O10  1  0.85583700  0.98986400  0.77033500  1
  O  O11  1  0.68558700  0.18440200  0.43774600  1
loop_
_geom_bond_atom_site_label_1
_geom_bond_atom_site_label_2
_geom_bond_distance
_geom_bond_site_symmetry_2
Li0 O6 2.010622 1_455
Li0 O3 2.064978 1_555
Li0 O7 2.077503 1_555
Li0 O0 2.262999 1_555
Li0 O8 2.395016 1_455
Li0 O10 2.475095 1_455
Li1 O9 2.028533 1_545
Li1 O11 2.045586 1_555
Li1 O1 2.067001 1_545
Li1 O5 2.242423 1_555
Li1 O2 2.345987 1_554
Li1 O4 2.399626 1_555
Li2 O5 1.960227 1_555
Li2 O4 1.970641 1_455
Li2 O8 1.989353 1_455
Li2 O1 2.425054 1_555
Li2 O7 2.445909 1_554
Li3 O2 1.980655 1_555
Li3 O10 2.009179 1_545
Li3 O0 2.017197 1_545
Li3 O3 2.385370 1_555
Li3 O11 2.555287 1_555
Li3 O6 2.656870 1_555
O0 Sb0 2.043590 1_555
O0 Te0 2.085019 1_565
O1 Te0 1.954462 1_565
O1 W0 2.138103 1_464
O2 W0 1.828878 1_455
O2 Te1 2.541972 1_555
O3 Te0 2.044407 1_555
O3 Sb0 2.087550 1_555
O4 W0 1.824180 1_554
O4 Te1 2.523587 1_554
O5 Sb0 1.971993 1_555
O5 Te1 2.206934 1_554
O6 Sb0 2.000927 1_555
O6 Te1 2.103250 1_555
O7 Te1 1.978887 1_555
O7 W0 2.103190 1_465
O8 Sb0 2.029074 1_555
O8 Te0 2.076022 1_665
O9 Te1 1.961685 1_554
O9 W0 2.091705 1_564
O10 W0 1.879529 1_565
O10 Te0 2.350913 1_665
O11 Te0 2.016911 1_655
O11 Sb0 2.087029 1_555
