# generated using pymatgen
data_CaB3H5O8
_symmetry_space_group_name_H-M   'P 1'
_cell_length_a   11.19390279
_cell_length_b   6.04063088
_cell_length_c   8.79262649
_cell_angle_alpha   68.47033126
_cell_angle_beta   90.00000000
_cell_angle_gamma   90.00000000
_symmetry_Int_Tables_number   1
_chemical_formula_structural   CaB3H5O8
_chemical_formula_sum   'Ca4 B12 H20 O32'
_cell_volume   553.05930624
_cell_formula_units_Z   4
loop_
 _symmetry_equiv_pos_site_id
 _symmetry_equiv_pos_as_xyz
  1  'x, y, z'
loop_
 _atom_site_type_symbol
 _atom_site_label
 _atom_site_symmetry_multiplicity
 _atom_site_fract_x
 _atom_site_fract_y
 _atom_site_fract_z
 _atom_site_occupancy
  Ca  Ca0  1  0.29472640  0.26586136  0.13232591  1
  Ca  Ca1  1  0.79472640  0.73413864  0.36767409  1
  Ca  Ca2  1  0.70527360  0.73413864  0.86767409  1
  Ca  Ca3  1  0.20527360  0.26586136  0.63232591  1
  B  B0  1  0.28917315  0.68391042  0.83017515  1
  B  B1  1  0.78917315  0.31608958  0.66982485  1
  B  B2  1  0.71082685  0.31608958  0.16982485  1
  B  B3  1  0.21082685  0.68391042  0.33017515  1
  B  B4  1  0.33145457  0.83534368  0.53301427  1
  B  B5  1  0.83145457  0.16465632  0.96698573  1
  B  B6  1  0.66854543  0.16465632  0.46698573  1
  B  B7  1  0.16854543  0.83534368  0.03301427  1
  B  B8  1  0.44757918  0.48842941  0.72281386  1
  B  B9  1  0.94757918  0.51157059  0.77718614  1
  B  B10  1  0.55242082  0.51157059  0.27718614  1
  B  B11  1  0.05242082  0.48842941  0.22281386  1
  H  H0  1  0.42371676  0.13927575  0.41256171  1
  H  H1  1  0.92371676  0.86072425  0.08743829  1
  H  H2  1  0.57628324  0.86072425  0.58743829  1
  H  H3  1  0.07628324  0.13927575  0.91256171  1
  H  H4  1  0.60829612  0.31700172  0.79960580  1
  H  H5  1  0.10829612  0.68299828  0.70039420  1
  H  H6  1  0.39170388  0.68299828  0.20039420  1
  H  H7  1  0.89170388  0.31700172  0.29960580  1
  H  H8  1  0.47009478  0.28933920  0.57854379  1
  H  H9  1  0.97009478  0.71066080  0.92145621  1
  H  H10  1  0.52990522  0.71066080  0.42145621  1
  H  H11  1  0.02990522  0.28933920  0.07854379  1
  H  H12  1  0.53242446  0.98209537  0.18028999  1
  H  H13  1  0.03242446  0.01790463  0.31971001  1
  H  H14  1  0.46757554  0.01790463  0.81971001  1
  H  H15  1  0.96757554  0.98209537  0.68028999  1
  H  H16  1  0.52909903  0.21768159  0.01584924  1
  H  H17  1  0.02909903  0.78231841  0.48415076  1
  H  H18  1  0.47090097  0.78231841  0.98415076  1
  H  H19  1  0.97090097  0.21768159  0.51584924  1
  O  O0  1  0.25534076  0.68390185  0.47419005  1
  O  O1  1  0.75534076  0.31609815  0.02580995  1
  O  O2  1  0.74465924  0.31609815  0.52580995  1
  O  O3  1  0.24465924  0.68390185  0.97419005  1
  O  O4  1  0.26752715  0.85691086  0.68042291  1
  O  O5  1  0.76752715  0.14308914  0.81957709  1
  O  O6  1  0.73247285  0.14308914  0.31957709  1
  O  O7  1  0.23247285  0.85691086  0.18042291  1
  O  O8  1  0.34291789  0.07275219  0.41200792  1
  O  O9  1  0.84291789  0.92724781  0.08799208  1
  O  O10  1  0.65708211  0.92724781  0.58799208  1
  O  O11  1  0.15708211  0.07275219  0.91200792  1
  O  O12  1  0.35331383  0.48329517  0.84289221  1
  O  O13  1  0.85331383  0.51670483  0.65710779  1
  O  O14  1  0.64668617  0.51670483  0.15710779  1
  O  O15  1  0.14668617  0.48329517  0.34289221  1
  O  O16  1  0.44618482  0.71821686  0.58560496  1
  O  O17  1  0.94618482  0.28178314  0.91439504  1
  O  O18  1  0.55381518  0.28178314  0.41439504  1
  O  O19  1  0.05381518  0.71821686  0.08560496  1
  O  O20  1  0.56547547  0.45414171  0.80365157  1
  O  O21  1  0.06547547  0.54585829  0.69634843  1
  O  O22  1  0.43452453  0.54585829  0.19634843  1
  O  O23  1  0.93452453  0.45414171  0.30365157  1
  O  O24  1  0.41988693  0.28638203  0.67182417  1
  O  O25  1  0.91988693  0.71361797  0.82817583  1
  O  O26  1  0.58011307  0.71361797  0.32817583  1
  O  O27  1  0.08011307  0.28638203  0.17182417  1
  O  O28  1  0.48588605  0.12294667  0.11437640  1
  O  O29  1  0.98588605  0.87705333  0.38562360  1
  O  O30  1  0.51411395  0.87705333  0.88562360  1
  O  O31  1  0.01411395  0.12294667  0.61437640  1
loop_
_geom_bond_atom_site_label_1
_geom_bond_atom_site_label_2
_geom_bond_distance
_geom_bond_site_symmetry_2
Ca0 O28 2.334315 1_555
Ca0 O8 2.365090 1_555
Ca0 O27 2.436988 1_555
Ca0 O7 2.449523 1_545
Ca0 O3 2.459087 1_554
Ca0 O12 2.485625 1_554
Ca0 O22 2.515008 1_555
Ca1 O29 2.334315 1_555
Ca1 O9 2.365090 1_555
Ca1 O26 2.436988 1_555
Ca1 O6 2.449523 1_565
Ca1 O2 2.459087 1_555
Ca1 O13 2.485625 1_555
Ca1 O23 2.515008 1_555
Ca2 O30 2.334315 1_555
Ca2 O10 2.365090 1_555
Ca2 O25 2.436988 1_555
Ca2 O5 2.449523 1_565
Ca2 O1 2.459087 1_556
Ca2 O14 2.485625 1_556
Ca2 O20 2.515008 1_555
Ca3 O31 2.334315 1_555
Ca3 O11 2.365090 1_555
Ca3 O24 2.436988 1_555
Ca3 O4 2.449523 1_545
Ca3 O0 2.459087 1_555
Ca3 O15 2.485625 1_555
Ca3 O21 2.515008 1_555
B0 O3 1.360763 1_555
B0 O4 1.369160 1_555
B0 O12 1.377357 1_555
B1 O2 1.360763 1_555
B1 O5 1.369160 1_555
B1 O13 1.377357 1_555
B2 O1 1.360763 1_555
B2 O6 1.369160 1_555
B2 O14 1.377357 1_555
B3 O0 1.360763 1_555
B3 O7 1.369160 1_555
B3 O15 1.377357 1_555
B4 O8 1.444027 1_565
B4 O16 1.457276 1_555
B4 O0 1.475664 1_555
B4 O4 1.527379 1_555
B5 O9 1.444027 1_546
B5 O17 1.457276 1_555
B5 O1 1.475664 1_556
B5 O5 1.527379 1_555
B6 O10 1.444027 1_545
B6 O18 1.457276 1_555
B6 O2 1.475664 1_555
B6 O6 1.527379 1_555
B7 O11 1.444027 1_564
B7 O19 1.457276 1_555
B7 O3 1.475664 1_554
B7 O7 1.527379 1_555
B8 O16 1.467422 1_555
B8 O20 1.477061 1_555
B8 O24 1.479295 1_555
B8 O12 1.484955 1_555
B9 O17 1.467422 1_555
B9 O21 1.477061 1_655
B9 O25 1.479295 1_555
B9 O13 1.484955 1_555
B10 O18 1.467422 1_555
B10 O22 1.477061 1_555
B10 O26 1.479295 1_555
B10 O14 1.484955 1_555
B11 O19 1.467422 1_555
B11 O23 1.477061 1_455
B11 O27 1.479295 1_555
B11 O15 1.484955 1_555
H0 O8 0.990443 1_555
H1 O9 0.990443 1_555
H2 O10 0.990443 1_555
H3 O11 0.990443 1_555
H4 O20 0.968978 1_555
H5 O21 0.968978 1_555
H6 O22 0.968978 1_555
H7 O23 0.968978 1_555
H8 O24 0.989004 1_555
H9 O25 0.989004 1_555
H10 O26 0.989004 1_555
H11 O27 0.989004 1_555
H12 O28 0.984510 1_565
H13 O29 0.984510 1_445
H14 O30 0.984510 1_545
H15 O31 0.984510 1_665
H16 O28 0.973703 1_555
H17 O29 0.973703 1_455
H18 O30 0.973703 1_555
H19 O31 0.973703 1_655
