# generated using pymatgen
data_Li3Fe(CoO3)2
_symmetry_space_group_name_H-M   'P 1'
_cell_length_a   6.45494526
_cell_length_b   6.45494526
_cell_length_c   5.75610018
_cell_angle_alpha   76.31832468
_cell_angle_beta   76.31832468
_cell_angle_gamma   25.43970510
_symmetry_Int_Tables_number   1
_chemical_formula_structural   Li3Fe(CoO3)2
_chemical_formula_sum   'Li3 Fe1 Co2 O6'
_cell_volume   99.94942442
_cell_formula_units_Z   1
loop_
 _symmetry_equiv_pos_site_id
 _symmetry_equiv_pos_as_xyz
  1  'x, y, z'
loop_
 _atom_site_type_symbol
 _atom_site_label
 _atom_site_symmetry_multiplicity
 _atom_site_fract_x
 _atom_site_fract_y
 _atom_site_fract_z
 _atom_site_occupancy
  Li  Li0  1  0.66963000  0.66963000  0.66307600  1
  Li  Li1  1  0.00000000  0.00000000  0.00000000  1
  Li  Li2  1  0.33037000  0.33037000  0.33692400  1
  Fe  Fe0  1  0.00000000  0.00000000  0.50000000  1
  Co  Co0  1  0.66751800  0.66751800  0.16469300  1
  Co  Co1  1  0.33248200  0.33248200  0.83530700  1
  O  O0  1  0.16126400  0.16126400  0.39672000  1
  O  O1  1  0.49163700  0.49163700  0.73700800  1
  O  O2  1  0.82533500  0.82533500  0.06659500  1
  O  O3  1  0.50836300  0.50836300  0.26299200  1
  O  O4  1  0.83873600  0.83873600  0.60328000  1
  O  O5  1  0.17466500  0.17466500  0.93340500  1
loop_
_geom_bond_atom_site_label_1
_geom_bond_atom_site_label_2
_geom_bond_distance
_geom_bond_site_symmetry_2
Li0 O4 2.073171 1_555
Li0 O0 2.111889 1_655
Li0 O0 2.111889 1_565
Li0 O5 2.119707 1_565
Li0 O5 2.119707 1_655
Li0 O1 2.177780 1_555
Li1 O3 2.097630 1_545
Li1 O1 2.097630 1_454
Li1 O1 2.097630 1_544
Li1 O3 2.097630 1_455
Li1 O5 2.139192 1_554
Li1 O2 2.139192 1_445
Li2 O0 2.073171 1_555
Li2 O4 2.111889 1_545
Li2 O4 2.111889 1_455
Li2 O2 2.119707 1_545
Li2 O2 2.119707 1_455
Li2 O3 2.177780 1_555
Fe0 O3 1.955147 1_545
Fe0 O3 1.955147 1_455
Fe0 O1 1.955147 1_545
Fe0 O1 1.955147 1_455
Fe0 O0 1.972843 1_555
Fe0 O4 1.972843 1_445
Co0 O2 1.929864 1_555
Co0 O5 1.934535 1_654
Co0 O5 1.934535 1_564
Co0 O0 1.938806 1_655
Co0 O0 1.938806 1_565
Co0 O3 1.946074 1_555
Co1 O5 1.929864 1_555
Co1 O2 1.934535 1_546
Co1 O2 1.934535 1_456
Co1 O4 1.938806 1_455
Co1 O4 1.938806 1_545
Co1 O1 1.946074 1_555
