# generated using pymatgen
data_Zn4As3NO13
_symmetry_space_group_name_H-M   'P 1'
_cell_length_a   12.16221482
_cell_length_b   12.16221482
_cell_length_c   12.16221482
_cell_angle_alpha   109.47122063
_cell_angle_beta   109.47122063
_cell_angle_gamma   109.47122063
_symmetry_Int_Tables_number   1
_chemical_formula_structural   Zn4As3NO13
_chemical_formula_sum   'Zn16 As12 N4 O52'
_cell_volume   1384.89267863
_cell_formula_units_Z   4
loop_
 _symmetry_equiv_pos_site_id
 _symmetry_equiv_pos_as_xyz
  1  'x, y, z'
loop_
 _atom_site_type_symbol
 _atom_site_label
 _atom_site_symmetry_multiplicity
 _atom_site_fract_x
 _atom_site_fract_y
 _atom_site_fract_z
 _atom_site_occupancy
  Zn  Zn0  1  0.53901000  0.77180000  0.96101000  1
  Zn  Zn1  1  0.57800000  0.53899000  0.31078900  1
  Zn  Zn2  1  0.26721000  0.18921100  0.72820000  1
  Zn  Zn3  1  0.31078900  0.57800000  0.53899000  1
  Zn  Zn4  1  0.72820000  0.26721000  0.18921100  1
  Zn  Zn5  1  0.96101000  0.53901000  0.77180000  1
  Zn  Zn6  1  0.18921100  0.72820000  0.26721000  1
  Zn  Zn7  1  0.77180000  0.96101000  0.53901000  1
  Zn  Zn8  1  0.53899000  0.31078900  0.57800000  1
  Zn  Zn9  1  0.96099000  0.92200000  0.23279000  1
  Zn  Zn10  1  0.92200000  0.23279000  0.96099000  1
  Zn  Zn11  1  0.23279000  0.96099000  0.92200000  1
  Zn  Zn12  1  0.50000000  0.00000000  0.41392000  1
  Zn  Zn13  1  0.08608000  0.08608000  0.08608000  1
  Zn  Zn14  1  0.00000000  0.41392000  0.50000000  1
  Zn  Zn15  1  0.41392000  0.50000000  0.00000000  1
  As  As0  1  0.22579500  0.69724300  0.76801900  1
  As  As1  1  0.45777500  0.73198100  0.42922400  1
  As  As2  1  0.02855200  0.07077600  0.80275700  1
  As  As3  1  0.42922400  0.45777500  0.73198100  1
  As  As4  1  0.80275700  0.02855200  0.07077600  1
  As  As5  1  0.76801900  0.22579500  0.69724300  1
  As  As6  1  0.07077600  0.80275700  0.02855200  1
  As  As7  1  0.69724300  0.76801900  0.22579500  1
  As  As8  1  0.73198100  0.42922400  0.45777500  1
  As  As9  1  0.27420500  0.04222500  0.47144800  1
  As  As10  1  0.04222500  0.47144800  0.27420500  1
  As  As11  1  0.47144800  0.27420500  0.04222500  1
  N  N0  1  0.50000000  0.00000000  0.73702500  1
  N  N1  1  0.76297500  0.76297500  0.76297500  1
  N  N2  1  0.00000000  0.73702500  0.50000000  1
  N  N3  1  0.73702500  0.50000000  0.00000000  1
  O  O0  1  0.39619100  0.79379000  0.86167300  1
  O  O1  1  0.53451800  0.63832700  0.43211700  1
  O  O2  1  0.10240100  0.06788300  0.70621000  1
  O  O3  1  0.43211700  0.53451800  0.63832700  1
  O  O4  1  0.70621000  0.10240100  0.06788300  1
  O  O5  1  0.86167300  0.39619100  0.79379000  1
  O  O6  1  0.06788300  0.70621000  0.10240100  1
  O  O7  1  0.79379000  0.86167300  0.39619100  1
  O  O8  1  0.63832700  0.43211700  0.53451800  1
  O  O9  1  0.10380900  0.96548200  0.39759900  1
  O  O10  1  0.96548200  0.39759900  0.10380900  1
  O  O11  1  0.39759900  0.10380900  0.96548200  1
  O  O12  1  0.18017200  0.58047900  0.60578400  1
  O  O13  1  0.57438800  0.89421600  0.47469500  1
  O  O14  1  0.09969400  0.02530500  0.91952100  1
  O  O15  1  0.47469500  0.57438800  0.89421600  1
  O  O16  1  0.91952100  0.09969400  0.02530500  1
  O  O17  1  0.60578400  0.18017200  0.58047900  1
  O  O18  1  0.02530500  0.91952100  0.09969400  1
  O  O19  1  0.58047900  0.60578400  0.18017200  1
  O  O20  1  0.89421600  0.47469500  0.57438800  1
  O  O21  1  0.31982800  0.92561200  0.40030600  1
  O  O22  1  0.92561200  0.40030600  0.31982800  1
  O  O23  1  0.40030600  0.31982800  0.92561200  1
  O  O24  1  0.15291800  0.60225400  0.82851400  1
  O  O25  1  0.32440400  0.67148600  0.27374000  1
  O  O26  1  0.05066500  0.22626000  0.89774600  1
  O  O27  1  0.27374000  0.32440400  0.67148600  1
  O  O28  1  0.89774600  0.05066500  0.22626000  1
  O  O29  1  0.82851400  0.15291800  0.60225400  1
  O  O30  1  0.22626000  0.89774600  0.05066500  1
  O  O31  1  0.60225400  0.82851400  0.15291800  1
  O  O32  1  0.67148600  0.27374000  0.32440400  1
  O  O33  1  0.34708200  0.17559600  0.44933500  1
  O  O34  1  0.17559600  0.44933500  0.34708200  1
  O  O35  1  0.44933500  0.34708200  0.17559600  1
  O  O36  1  0.16271400  0.80159300  0.75040600  1
  O  O37  1  0.41230800  0.74959400  0.55118700  1
  O  O38  1  0.86112100  0.94881300  0.69840700  1
  O  O39  1  0.55118700  0.41230800  0.74959400  1
  O  O40  1  0.69840700  0.86112100  0.94881300  1
  O  O41  1  0.75040600  0.16271400  0.80159300  1
  O  O42  1  0.94881300  0.69840700  0.86112100  1
  O  O43  1  0.80159300  0.75040600  0.16271400  1
  O  O44  1  0.74959400  0.55118700  0.41230800  1
  O  O45  1  0.33728600  0.08769200  0.63887900  1
  O  O46  1  0.08769200  0.63887900  0.33728600  1
  O  O47  1  0.63887900  0.33728600  0.08769200  1
  O  O48  1  0.50000000  0.00000000  0.25530900  1
  O  O49  1  0.24469100  0.24469100  0.24469100  1
  O  O50  1  0.00000000  0.25530900  0.50000000  1
  O  O51  1  0.25530900  0.50000000  0.00000000  1
loop_
_geom_bond_atom_site_label_1
_geom_bond_atom_site_label_2
_geom_bond_distance
_geom_bond_site_symmetry_2
As0 O0 1.698050 1_555
As0 O36 1.722200 1_555
As0 O24 1.726377 1_555
As0 O12 1.759147 1_555
As1 O1 1.698059 1_555
As1 O37 1.722192 1_555
As1 O25 1.726371 1_555
As1 O13 1.759151 1_555
As2 O2 1.698050 1_555
As2 O38 1.722200 1_445
As2 O26 1.726371 1_555
As2 O14 1.759151 1_555
As3 O3 1.698059 1_555
As3 O39 1.722192 1_555
As3 O27 1.726371 1_555
As3 O15 1.759151 1_555
As4 O4 1.698050 1_555
As4 O40 1.722200 1_544
As4 O28 1.726371 1_555
As4 O16 1.759151 1_555
As5 O5 1.698050 1_555
As5 O41 1.722200 1_555
As5 O29 1.726377 1_555
As5 O17 1.759147 1_555
As6 O6 1.698050 1_555
As6 O42 1.722200 1_454
As6 O30 1.726371 1_555
As6 O18 1.759151 1_555
As7 O7 1.698050 1_555
As7 O43 1.722200 1_555
As7 O31 1.726377 1_555
As7 O19 1.759147 1_555
As8 O8 1.698059 1_555
As8 O44 1.722192 1_555
As8 O32 1.726371 1_555
As8 O20 1.759151 1_555
As9 O9 1.698049 1_545
As9 O45 1.722203 1_555
As9 O33 1.726374 1_555
As9 O21 1.759160 1_545
As10 O10 1.698049 1_455
As10 O46 1.722203 1_555
As10 O34 1.726374 1_555
As10 O22 1.759160 1_455
As11 O11 1.698049 1_554
As11 O47 1.722203 1_555
As11 O35 1.726374 1_555
As11 O23 1.759160 1_554
O0 Zn0 1.916872 1_555
O1 Zn1 1.916880 1_555
O2 Zn2 1.916877 1_555
O3 Zn3 1.916880 1_555
O4 Zn4 1.916877 1_555
O5 Zn5 1.916872 1_555
O6 Zn6 1.916877 1_555
O7 Zn7 1.916872 1_555
O8 Zn8 1.916880 1_555
O9 Zn9 1.916872 1_455
O10 Zn10 1.916872 1_554
O11 Zn11 1.916872 1_545
O12 Zn14 1.996069 1_555
O12 Zn3 2.015046 1_555
O13 Zn12 1.996069 1_565
O13 Zn7 2.015058 1_555
O14 Zn13 1.996075 1_556
O14 Zn11 2.015046 1_545
O15 Zn15 1.996069 1_556
O15 Zn0 2.015058 1_555
O16 Zn13 1.996075 1_655
O16 Zn10 2.015046 1_554
O17 Zn12 1.996069 1_555
O17 Zn8 2.015046 1_555
O18 Zn13 1.996075 1_565
O18 Zn9 2.015046 1_455
O19 Zn15 1.996069 1_555
O19 Zn1 2.015046 1_555
O20 Zn14 1.996069 1_655
O20 Zn5 2.015058 1_555
O21 Zn12 1.996063 1_565
O21 Zn6 2.015054 1_555
O22 Zn14 1.996063 1_655
O22 Zn4 2.015054 1_555
O23 Zn15 1.996063 1_556
O23 Zn2 2.015054 1_555
O24 Zn5 1.972623 1_455
O25 Zn6 1.972611 1_555
O26 Zn10 1.972634 1_455
O27 Zn2 1.972611 1_555
O28 Zn9 1.972634 1_545
O29 Zn7 1.972623 1_545
O30 Zn11 1.972634 1_554
O31 Zn0 1.972623 1_554
O32 Zn4 1.972611 1_555
O33 Zn8 1.972622 1_555
O34 Zn3 1.972622 1_555
O35 Zn1 1.972622 1_555
O36 Zn11 1.963554 1_555
O37 Zn3 1.963557 1_555
O38 Zn7 1.963554 1_555
O39 Zn8 1.963557 1_555
O40 Zn0 1.963554 1_555
O41 Zn10 1.963554 1_555
O42 Zn5 1.963554 1_555
O43 Zn9 1.963554 1_555
O44 Zn1 1.963557 1_555
O45 Zn2 1.963561 1_555
O46 Zn6 1.963561 1_555
O47 Zn4 1.963561 1_555
O48 Zn12 1.929061 1_555
O49 Zn13 1.929061 1_555
O50 Zn14 1.929061 1_555
O51 Zn15 1.929061 1_555
