# generated using pymatgen
data_LiV2O3F
_symmetry_space_group_name_H-M   'P 1'
_cell_length_a   8.00375146
_cell_length_b   8.00375146
_cell_length_c   8.00375146
_cell_angle_alpha   135.20758138
_cell_angle_beta   115.47584018
_cell_angle_gamma   81.96404877
_symmetry_Int_Tables_number   1
_chemical_formula_structural   LiV2O3F
_chemical_formula_sum   'Li4 V8 O12 F4'
_cell_volume   314.88156401
_cell_formula_units_Z   4
loop_
 _symmetry_equiv_pos_site_id
 _symmetry_equiv_pos_as_xyz
  1  'x, y, z'
loop_
 _atom_site_type_symbol
 _atom_site_label
 _atom_site_symmetry_multiplicity
 _atom_site_fract_x
 _atom_site_fract_y
 _atom_site_fract_z
 _atom_site_occupancy
  Li  Li0  1  0.27070600  0.37866800  0.89203700  1
  Li  Li1  1  0.51336900  0.62133200  0.89203700  1
  Li  Li2  1  0.99085700  0.87521000  0.11564700  1
  Li  Li3  1  0.24043700  0.12479000  0.11564700  1
  V  V0  1  0.49074300  0.00000000  0.49074300  1
  V  V1  1  0.23718300  0.74994200  0.48724100  1
  V  V2  1  0.73729800  0.25005800  0.48724100  1
  V  V3  1  0.62514900  0.61904200  0.49304800  1
  V  V4  1  0.87400600  0.86789900  0.49304800  1
  V  V5  1  0.87400600  0.38095800  0.00610600  1
  V  V6  1  0.62514900  0.13210100  0.00610600  1
  V  V7  1  0.01330200  0.50000000  0.51330200  1
  O  O0  1  0.39221900  0.65288800  0.29520400  1
  O  O1  1  0.64231600  0.90298600  0.29520400  1
  O  O2  1  0.39221900  0.09701400  0.73933100  1
  O  O3  1  0.64231600  0.34711200  0.73933100  1
  O  O4  1  0.74411200  0.00000000  0.74411200  1
  O  O5  1  0.99040300  0.73507700  0.25532600  1
  O  O6  1  0.52024800  0.26492300  0.25532600  1
  O  O7  1  0.76185700  0.50000000  0.26185700  1
  O  O8  1  0.85977200  0.15298400  0.25978600  1
  O  O9  1  0.85977200  0.59998600  0.70678800  1
  O  O10  1  0.10680200  0.40001400  0.25978600  1
  O  O11  1  0.10680200  0.84701600  0.70678800  1
  F  F0  1  0.25224500  0.50000000  0.75224500  1
  F  F1  1  0.49727300  0.75510500  0.74216800  1
  F  F2  1  0.98706300  0.24489500  0.74216800  1
  F  F3  1  0.25237800  0.00000000  0.25237800  1
loop_
_geom_bond_atom_site_label_1
_geom_bond_atom_site_label_2
_geom_bond_distance
_geom_bond_site_symmetry_2
Li0 O2 2.005125 1_555
Li0 O0 2.005125 1_556
Li1 O3 2.005124 1_555
Li1 O1 2.005125 1_556
Li2 O8 2.030562 1_565
Li2 O9 2.030562 1_554
Li2 O5 2.071742 1_555
Li3 O10 2.030562 1_555
Li3 O11 2.030562 1_544
Li3 O6 2.071735 1_555
O0 V3 1.996130 1_555
O0 V0 2.041856 1_565
O0 V1 2.045045 1_555
O1 V4 1.996135 1_555
O1 V0 2.041858 1_565
O1 V2 2.045036 1_565
O2 V6 1.996122 1_556
O2 V0 2.041859 1_555
O2 V1 2.045039 1_545
O3 V5 1.996126 1_556
O3 V0 2.041856 1_555
O3 V2 2.045039 1_555
O4 V0 2.164960 1_555
O4 V6 2.170474 1_556
O4 V4 2.170481 1_545
O4 V3 2.170481 1_545
O4 V5 2.170483 1_556
O5 V1 1.989767 1_655
O5 V5 1.998820 1_555
O5 V4 1.998822 1_555
O6 V2 1.989767 1_555
O6 V3 1.998824 1_555
O6 V6 1.998835 1_555
O7 V6 2.115874 1_555
O7 V4 2.115876 1_555
O7 V3 2.115876 1_555
O7 V5 2.115883 1_555
O7 V7 2.148520 1_655
O8 V6 2.000721 1_555
O8 V7 2.037583 1_655
O8 V2 2.047785 1_555
O9 V3 2.000716 1_555
O9 V7 2.037583 1_655
O9 V2 2.047781 1_555
O10 V5 2.000721 1_455
O10 V7 2.037583 1_555
O10 V1 2.047778 1_555
O11 V4 2.000716 1_455
O11 V7 2.037583 1_555
O11 V1 2.047778 1_555
F0 Li0 1.891178 1_555
F0 Li1 1.891180 1_555
F0 V7 2.041694 1_555
F1 Li1 2.062315 1_555
F1 V3 2.138019 1_555
F1 V6 2.138021 1_566
F1 V1 2.179166 1_555
F2 Li0 2.062323 1_655
F2 V5 2.138012 1_556
F2 V4 2.138019 1_545
F2 V2 2.179170 1_555
F3 Li2 1.907629 1_445
F3 Li3 1.907629 1_555
F3 V0 2.036755 1_555
