# generated using pymatgen
data_V2CoO4
_symmetry_space_group_name_H-M   'P 1'
_cell_length_a   6.01843225
_cell_length_b   6.04641538
_cell_length_c   6.06735298
_cell_angle_alpha   119.88520732
_cell_angle_beta   119.96458853
_cell_angle_gamma   89.99951317
_symmetry_Int_Tables_number   1
_chemical_formula_structural   V2CoO4
_chemical_formula_sum   'V4 Co2 O8'
_cell_volume   156.47690872
_cell_formula_units_Z   2
loop_
 _symmetry_equiv_pos_site_id
 _symmetry_equiv_pos_as_xyz
  1  'x, y, z'
loop_
 _atom_site_type_symbol
 _atom_site_label
 _atom_site_symmetry_multiplicity
 _atom_site_fract_x
 _atom_site_fract_y
 _atom_site_fract_z
 _atom_site_occupancy
  V  V0  1  0.99998800  0.49999600  0.49999400  1
  V  V1  1  0.50000700  0.00002800  0.00002100  1
  V  V2  1  0.50001000  0.49999100  0.49998300  1
  V  V3  1  0.50000700  0.49999200  0.00001900  1
  Co  Co0  1  0.87293700  0.12432500  0.74866100  1
  Co  Co1  1  0.12705800  0.87567300  0.25133600  1
  O  O0  1  0.73678800  0.25746500  0.01502000  1
  O  O1  1  0.74297600  0.26100500  0.48187900  1
  O  O2  1  0.28309100  0.26195000  0.02386300  1
  O  O3  1  0.74303800  0.72087300  0.48182900  1
  O  O4  1  0.25696200  0.27912300  0.51816700  1
  O  O5  1  0.71690700  0.73805000  0.97613700  1
  O  O6  1  0.25702300  0.73899400  0.51811600  1
  O  O7  1  0.26320700  0.74253300  0.98497700  1
loop_
_geom_bond_atom_site_label_1
_geom_bond_atom_site_label_2
_geom_bond_distance
_geom_bond_site_symmetry_2
Co0 O0 1.989365 1_556
Co0 O3 1.995782 1_545
Co0 O1 1.995786 1_555
Co0 O2 2.017917 1_656
Co1 O7 1.989365 1_554
Co1 O6 1.995771 1_555
Co1 O4 1.995772 1_565
Co1 O5 2.017903 1_454
O0 V1 2.047265 1_555
O0 V3 2.047643 1_555
O0 V0 2.088525 1_555
O1 V0 2.040778 1_555
O1 V2 2.059272 1_555
O1 V1 2.075538 1_555
O2 V3 2.047688 1_555
O2 V1 2.047835 1_555
O2 V2 2.051918 1_555
O3 V0 2.040490 1_555
O3 V2 2.059784 1_555
O3 V3 2.075319 1_555
O4 V0 2.040579 1_455
O4 V2 2.059949 1_555
O4 V3 2.075511 1_556
O5 V3 2.047865 1_556
O5 V1 2.048021 1_566
O5 V2 2.052080 1_555
O6 V0 2.040879 1_455
O6 V2 2.059445 1_555
O6 V1 2.075751 1_566
O7 V1 2.047414 1_566
O7 V3 2.047796 1_556
O7 V0 2.088568 1_455
