# generated using pymatgen
data_Li2Mn(PO4)2
_symmetry_space_group_name_H-M   'P 1'
_cell_length_a   4.66156681
_cell_length_b   4.96179076
_cell_length_c   28.17420247
_cell_angle_alpha   93.82383511
_cell_angle_beta   88.01632114
_cell_angle_gamma   116.54700314
_symmetry_Int_Tables_number   1
_chemical_formula_structural   Li2Mn(PO4)2
_chemical_formula_sum   'Li8 Mn4 P8 O32'
_cell_volume   581.64922520
_cell_formula_units_Z   4
loop_
 _symmetry_equiv_pos_site_id
 _symmetry_equiv_pos_as_xyz
  1  'x, y, z'
loop_
 _atom_site_type_symbol
 _atom_site_label
 _atom_site_symmetry_multiplicity
 _atom_site_fract_x
 _atom_site_fract_y
 _atom_site_fract_z
 _atom_site_occupancy
  Li  Li0  1  0.67394200  0.20812500  0.03774900  1
  Li  Li1  1  0.42403300  0.20826500  0.28776500  1
  Li  Li2  1  0.17392800  0.20826400  0.53775900  1
  Li  Li3  1  0.92392400  0.20810300  0.78771000  1
  Li  Li4  1  0.07582300  0.79172600  0.21227600  1
  Li  Li5  1  0.82596600  0.79175400  0.46223400  1
  Li  Li6  1  0.57589600  0.79169800  0.71225800  1
  Li  Li7  1  0.32583000  0.79162200  0.96226900  1
  Mn  Mn0  1  0.87461000  0.49994700  0.62499300  1
  Mn  Mn1  1  0.62517500  0.50012000  0.87496600  1
  Mn  Mn2  1  0.37534600  0.50004100  0.12502200  1
  Mn  Mn3  1  0.12534500  0.50010900  0.37500500  1
  P  P0  1  0.71470700  0.15750800  0.17793000  1
  P  P1  1  0.46476400  0.15760600  0.42791200  1
  P  P2  1  0.21415700  0.15723400  0.67790500  1
  P  P3  1  0.96455600  0.15747700  0.92788200  1
  P  P4  1  0.03565400  0.84268700  0.07211100  1
  P  P5  1  0.78569000  0.84279500  0.32209700  1
  P  P6  1  0.53512500  0.84240200  0.57209400  1
  P  P7  1  0.28551500  0.84266700  0.82206300  1
  O  O0  1  0.53982000  0.14976900  0.22432100  1
  O  O1  1  0.28995200  0.14988900  0.47430500  1
  O  O2  1  0.03925800  0.14976700  0.72430100  1
  O  O3  1  0.78975100  0.14980600  0.97429800  1
  O  O4  1  0.21034900  0.85004700  0.02571100  1
  O  O5  1  0.96051300  0.85022600  0.27570300  1
  O  O6  1  0.70997000  0.85002400  0.52569300  1
  O  O7  1  0.46047600  0.85023500  0.77568200  1
  O  O8  1  0.58178600  0.26331800  0.13719800  1
  O  O9  1  0.33191600  0.26350600  0.38718000  1
  O  O10  1  0.08136700  0.26333300  0.63716200  1
  O  O11  1  0.83164500  0.26343000  0.88715400  1
  O  O12  1  0.16841200  0.73653000  0.11284700  1
  O  O13  1  0.91850100  0.73670500  0.36283400  1
  O  O14  1  0.66794700  0.73651800  0.61282000  1
  O  O15  1  0.41819400  0.73660600  0.86279400  1
  O  O16  1  0.06252400  0.16604600  0.08598600  1
  O  O17  1  0.81254400  0.16615400  0.33597200  1
  O  O18  1  0.56202500  0.16584200  0.58592800  1
  O  O19  1  0.31237700  0.16601500  0.83591800  1
  O  O20  1  0.68785600  0.83404600  0.16408500  1
  O  O21  1  0.43790100  0.83414200  0.41406200  1
  O  O22  1  0.18724600  0.83382100  0.66403500  1
  O  O23  1  0.93764400  0.83398800  0.91402300  1
  O  O24  1  0.08387000  0.37879900  0.18244200  1
  O  O25  1  0.83398600  0.37890000  0.43242100  1
  O  O26  1  0.58348000  0.37880400  0.68241700  1
  O  O27  1  0.33378300  0.37890800  0.93239400  1
  O  O28  1  0.66628700  0.62107400  0.06760800  1
  O  O29  1  0.41637400  0.62119500  0.31759000  1
  O  O30  1  0.16598500  0.62114400  0.56757700  1
  O  O31  1  0.91627600  0.62126400  0.81753700  1
loop_
_geom_bond_atom_site_label_1
_geom_bond_atom_site_label_2
_geom_bond_distance
_geom_bond_site_symmetry_2
Li0 O3 1.890715 1_554
Li0 O4 2.116659 1_545
Li0 O28 2.177296 1_555
Li0 O16 2.391251 1_655
Li1 O0 1.890691 1_555
Li1 O5 2.116459 1_445
Li1 O29 2.176908 1_555
Li1 O17 2.390547 1_555
Li2 O1 1.891176 1_555
Li2 O6 2.118177 1_445
Li2 O30 2.177176 1_555
Li2 O18 2.389046 1_555
Li3 O2 1.888928 1_655
Li3 O7 2.115791 1_545
Li3 O31 2.177962 1_555
Li3 O19 2.390291 1_655
Li4 O5 1.889539 1_455
Li4 O0 2.117849 1_565
Li4 O24 2.177743 1_555
Li4 O20 2.388688 1_455
Li5 O6 1.891151 1_555
Li5 O1 2.118088 1_665
Li5 O25 2.177164 1_555
Li5 O21 2.388896 1_555
Li6 O7 1.889665 1_555
Li6 O2 2.115960 1_665
Li6 O26 2.176740 1_555
Li6 O22 2.391374 1_555
Li7 O4 1.890104 1_556
Li7 O3 2.117815 1_565
Li7 O27 2.176955 1_555
Li7 O23 2.390558 1_455
Mn0 O14 1.873747 1_555
Mn0 O10 1.874255 1_655
Mn0 O22 1.946312 1_655
Mn0 O18 1.947115 1_555
Mn0 O26 2.017211 1_555
Mn0 O30 2.017630 1_655
Mn1 O11 1.873642 1_555
Mn1 O15 1.874560 1_555
Mn1 O23 1.946222 1_555
Mn1 O19 1.947244 1_555
Mn1 O31 2.017255 1_555
Mn1 O27 2.017944 1_555
Mn2 O8 1.873590 1_555
Mn2 O12 1.874418 1_555
Mn2 O20 1.946712 1_555
Mn2 O16 1.946845 1_555
Mn2 O28 2.016508 1_555
Mn2 O24 2.017972 1_555
Mn3 O9 1.873555 1_555
Mn3 O13 1.874516 1_455
Mn3 O17 1.946667 1_455
Mn3 O21 1.946771 1_555
Mn3 O29 2.016754 1_555
Mn3 O25 2.017595 1_455
O0 P0 1.509759 1_555
O1 P1 1.509650 1_555
O2 P2 1.510121 1_555
O3 P3 1.510220 1_555
O4 P4 1.509826 1_555
O5 P5 1.509925 1_555
O6 P6 1.509993 1_555
O7 P7 1.509827 1_555
O8 P0 1.548190 1_555
O9 P1 1.548247 1_555
O10 P2 1.548893 1_555
O11 P3 1.548478 1_555
O12 P4 1.548817 1_555
O13 P5 1.548792 1_555
O14 P6 1.548001 1_555
O15 P7 1.548224 1_555
O16 P4 1.575700 1_545
O17 P5 1.575727 1_545
O18 P6 1.575826 1_545
O19 P7 1.575558 1_545
O20 P0 1.576072 1_565
O21 P1 1.576087 1_565
O22 P2 1.575863 1_565
O23 P3 1.576169 1_565
O24 P0 1.578207 1_455
O25 P1 1.578419 1_555
O26 P2 1.579071 1_555
O27 P3 1.578581 1_455
O28 P4 1.579257 1_655
O29 P5 1.579066 1_555
O30 P6 1.578100 1_555
O31 P7 1.578625 1_655
