# generated using pymatgen
data_H13ClO6
_symmetry_space_group_name_H-M   'P 1'
_cell_length_a   6.38380000
_cell_length_b   6.53489400
_cell_length_c   18.04711100
_cell_angle_alpha   90.00000000
_cell_angle_beta   90.00000000
_cell_angle_gamma   90.00000000
_symmetry_Int_Tables_number   1
_chemical_formula_structural   H13ClO6
_chemical_formula_sum   'H52 Cl4 O24'
_cell_volume   752.87956479
_cell_formula_units_Z   4
loop_
 _symmetry_equiv_pos_site_id
 _symmetry_equiv_pos_as_xyz
  1  'x, y, z'
loop_
 _atom_site_type_symbol
 _atom_site_label
 _atom_site_symmetry_multiplicity
 _atom_site_fract_x
 _atom_site_fract_y
 _atom_site_fract_z
 _atom_site_occupancy
  H  H0  1  0.10096300  0.51787200  0.70563200  1
  H  H1  1  0.89903700  0.48212800  0.20563200  1
  H  H2  1  0.10096300  0.98212800  0.29436800  1
  H  H3  1  0.89903700  0.01787200  0.79436800  1
  H  H4  1  0.89903700  0.48212800  0.29436800  1
  H  H5  1  0.10096300  0.51787200  0.79436800  1
  H  H6  1  0.89903700  0.01787200  0.70563200  1
  H  H7  1  0.10096300  0.98212800  0.20563200  1
  H  H8  1  0.27533400  0.28797500  0.75000000  1
  H  H9  1  0.72466600  0.71202500  0.25000000  1
  H  H10  1  0.27533400  0.21202500  0.25000000  1
  H  H11  1  0.72466600  0.78797500  0.75000000  1
  H  H12  1  0.39812600  0.09332500  0.70229500  1
  H  H13  1  0.60187400  0.90667500  0.20229500  1
  H  H14  1  0.39812600  0.40667500  0.29770500  1
  H  H15  1  0.60187400  0.59332500  0.79770500  1
  H  H16  1  0.60187400  0.90667500  0.29770500  1
  H  H17  1  0.39812600  0.09332500  0.79770500  1
  H  H18  1  0.60187400  0.59332500  0.70229500  1
  H  H19  1  0.39812600  0.40667500  0.20229500  1
  H  H20  1  0.62289300  0.55841400  0.58937100  1
  H  H21  1  0.37710700  0.44158600  0.08937100  1
  H  H22  1  0.62289300  0.94158600  0.41062900  1
  H  H23  1  0.37710700  0.05841400  0.91062900  1
  H  H24  1  0.37710700  0.44158600  0.41062900  1
  H  H25  1  0.62289300  0.55841400  0.91062900  1
  H  H26  1  0.37710700  0.05841400  0.58937100  1
  H  H27  1  0.62289300  0.94158600  0.08937100  1
  H  H28  1  0.68244700  0.35061600  0.62961100  1
  H  H29  1  0.31755300  0.64938400  0.12961100  1
  H  H30  1  0.68244700  0.14938400  0.37038900  1
  H  H31  1  0.31755300  0.85061600  0.87038900  1
  H  H32  1  0.31755300  0.64938400  0.37038900  1
  H  H33  1  0.68244700  0.35061600  0.87038900  1
  H  H34  1  0.31755300  0.85061600  0.62961100  1
  H  H35  1  0.68244700  0.14938400  0.12961100  1
  H  H36  1  0.96311800  0.18160900  0.58211400  1
  H  H37  1  0.03688200  0.81839100  0.08211400  1
  H  H38  1  0.96311800  0.31839100  0.41788600  1
  H  H39  1  0.03688200  0.68160900  0.91788600  1
  H  H40  1  0.03688200  0.81839100  0.41788600  1
  H  H41  1  0.96311800  0.18160900  0.91788600  1
  H  H42  1  0.03688200  0.68160900  0.58211400  1
  H  H43  1  0.96311800  0.31839100  0.08211400  1
  H  H44  1  0.77271700  0.03274800  0.58901200  1
  H  H45  1  0.22728300  0.96725200  0.08901200  1
  H  H46  1  0.77271700  0.46725200  0.41098800  1
  H  H47  1  0.22728300  0.53274800  0.91098800  1
  H  H48  1  0.22728300  0.96725200  0.41098800  1
  H  H49  1  0.77271700  0.03274800  0.91098800  1
  H  H50  1  0.22728300  0.53274800  0.58901200  1
  H  H51  1  0.77271700  0.46725200  0.08901200  1
  Cl  Cl0  1  0.22781000  0.25000000  0.50000000  1
  Cl  Cl1  1  0.77219000  0.75000000  0.00000000  1
  Cl  Cl2  1  0.77219000  0.75000000  0.50000000  1
  Cl  Cl3  1  0.22781000  0.25000000  0.00000000  1
  O  O0  1  0.09498300  0.42873700  0.75000000  1
  O  O1  1  0.90501700  0.57126300  0.25000000  1
  O  O2  1  0.09498300  0.07126300  0.25000000  1
  O  O3  1  0.90501700  0.92873700  0.75000000  1
  O  O4  1  0.40078500  0.18372300  0.75000000  1
  O  O5  1  0.59921500  0.81627700  0.25000000  1
  O  O6  1  0.40078500  0.31627700  0.25000000  1
  O  O7  1  0.59921500  0.68372300  0.75000000  1
  O  O8  1  0.41137800  0.97309100  0.86731300  1
  O  O9  1  0.58862200  0.02690900  0.36731300  1
  O  O10  1  0.41137800  0.52690900  0.13268700  1
  O  O11  1  0.58862200  0.47309100  0.63268700  1
  O  O12  1  0.58862200  0.02690900  0.13268700  1
  O  O13  1  0.41137800  0.97309100  0.63268700  1
  O  O14  1  0.58862200  0.47309100  0.86731300  1
  O  O15  1  0.41137800  0.52690900  0.36731300  1
  O  O16  1  0.15183400  0.64111100  0.88409100  1
  O  O17  1  0.84816600  0.35888900  0.38409100  1
  O  O18  1  0.15183400  0.85888900  0.11590900  1
  O  O19  1  0.84816600  0.14111100  0.61590900  1
  O  O20  1  0.84816600  0.35888900  0.11590900  1
  O  O21  1  0.15183400  0.64111100  0.61590900  1
  O  O22  1  0.84816600  0.14111100  0.88409100  1
  O  O23  1  0.15183400  0.85888900  0.38409100  1
loop_
_geom_bond_atom_site_label_1
_geom_bond_atom_site_label_2
_geom_bond_distance
_geom_bond_site_symmetry_2
H0 O0 0.990905 1_555
H1 O1 0.990905 1_555
H2 O2 0.990905 1_565
H3 O3 0.990905 1_545
H4 O1 0.990905 1_555
H5 O0 0.990905 1_555
H6 O3 0.990905 1_545
H7 O2 0.990905 1_565
H8 O4 1.051429 1_555
H8 O0 1.473669 1_555
H9 O5 1.051429 1_555
H9 O1 1.473669 1_555
H10 O6 1.051429 1_555
H10 O2 1.473669 1_555
H11 O7 1.051429 1_555
H11 O3 1.473669 1_555
H12 O4 1.044259 1_555
H12 O13 1.484117 1_545
H13 O5 1.044259 1_555
H13 O12 1.484117 1_565
H14 O6 1.044259 1_555
H14 O15 1.484117 1_555
H15 O7 1.044259 1_555
H15 O14 1.484117 1_555
H16 O5 1.044259 1_555
H16 O9 1.484117 1_565
H17 O4 1.044259 1_555
H17 O8 1.484117 1_545
H18 O7 1.044259 1_555
H18 O11 1.484117 1_555
H19 O6 1.044259 1_555
H19 O10 1.484117 1_555
H20 O11 0.984813 1_555
H21 O10 0.984813 1_555
H22 O9 0.984813 1_565
H23 O8 0.984813 1_545
H24 O15 0.984813 1_555
H25 O14 0.984813 1_555
H26 O13 0.984813 1_545
H27 O12 0.984813 1_565
H28 O11 1.001206 1_555
H29 O10 1.001206 1_555
H30 O9 1.001206 1_555
H31 O8 1.001206 1_555
H32 O15 1.001206 1_555
H33 O14 1.001206 1_555
H34 O13 1.001206 1_555
H35 O12 1.001206 1_555
H36 O19 0.990216 1_555
H37 O18 0.990216 1_555
H38 O17 0.990216 1_555
H39 O16 0.990216 1_555
H40 O23 0.990216 1_555
H41 O22 0.990216 1_555
H42 O21 0.990216 1_555
H43 O20 0.990216 1_555
H44 O19 0.984417 1_555
H45 O18 0.984417 1_555
H46 O17 0.984417 1_555
H47 O16 0.984417 1_555
H48 O23 0.984417 1_555
H49 O22 0.984417 1_555
H50 O21 0.984417 1_555
H51 O20 0.984417 1_555
