# generated using pymatgen
data_FeOF
_symmetry_space_group_name_H-M   'P 1'
_cell_length_a   3.08953900
_cell_length_b   14.21079700
_cell_length_c   14.24318404
_cell_angle_alpha   89.60818384
_cell_angle_beta   90.00000000
_cell_angle_gamma   90.00000000
_symmetry_Int_Tables_number   1
_chemical_formula_structural   FeOF
_chemical_formula_sum   'Fe18 O18 F18'
_cell_volume   625.32968913
_cell_formula_units_Z   18
loop_
 _symmetry_equiv_pos_site_id
 _symmetry_equiv_pos_as_xyz
  1  'x, y, z'
loop_
 _atom_site_type_symbol
 _atom_site_label
 _atom_site_symmetry_multiplicity
 _atom_site_fract_x
 _atom_site_fract_y
 _atom_site_fract_z
 _atom_site_occupancy
  Fe  Fe0  1  0.00000000  0.98662600  0.99876600  1
  Fe  Fe1  1  0.00000000  0.00447100  0.33610800  1
  Fe  Fe2  1  0.00000000  0.98872100  0.66263200  1
  Fe  Fe3  1  0.50000000  0.85623500  0.17457000  1
  Fe  Fe4  1  0.50000000  0.82984300  0.51487700  1
  Fe  Fe5  1  0.50000000  0.84747300  0.82988200  1
  Fe  Fe6  1  0.00000000  0.66184500  0.00567400  1
  Fe  Fe7  1  0.00000000  0.65383400  0.32981000  1
  Fe  Fe8  1  0.00000000  0.66079800  0.65700300  1
  Fe  Fe9  1  0.50000000  0.51168600  0.49819000  1
  Fe  Fe10  1  0.50000000  0.50996900  0.16440900  1
  Fe  Fe11  1  0.50000000  0.48034300  0.83423600  1
  Fe  Fe12  1  0.00000000  0.32635800  0.99116300  1
  Fe  Fe13  1  0.00000000  0.31870100  0.33320500  1
  Fe  Fe14  1  0.00000000  0.33242000  0.67655600  1
  Fe  Fe15  1  0.50000000  0.18507700  0.15999100  1
  Fe  Fe16  1  0.50000000  0.16638800  0.48686500  1
  Fe  Fe17  1  0.50000000  0.17883100  0.83092400  1
  O  O0  1  0.50000000  0.93891300  0.27537400  1
  O  O1  1  0.50000000  0.93838800  0.59741900  1
  O  O2  1  0.50000000  0.93359400  0.93452400  1
  O  O3  1  0.00000000  0.89781700  0.10328200  1
  O  O4  1  0.00000000  0.89627800  0.76683900  1
  O  O5  1  0.00000000  0.76530000  0.56816600  1
  O  O6  1  0.50000000  0.60109100  0.26509600  1
  O  O7  1  0.50000000  0.59422200  0.60814000  1
  O  O8  1  0.00000000  0.56658500  0.09714200  1
  O  O9  1  0.00000000  0.56652700  0.43581800  1
  O  O10  1  0.00000000  0.43837100  0.90367500  1
  O  O11  1  0.50000000  0.39920600  0.72703700  1
  O  O12  1  0.50000000  0.27032300  0.26792200  1
  O  O13  1  0.50000000  0.26873900  0.93176200  1
  O  O14  1  0.00000000  0.23629000  0.09756100  1
  O  O15  1  0.00000000  0.23493600  0.44008800  1
  O  O16  1  0.00000000  0.22745700  0.76436900  1
  O  O17  1  0.50000000  0.06450200  0.40107600  1
  F  F0  1  0.00000000  0.89173200  0.43726500  1
  F  F1  1  0.00000000  0.76746500  0.23101200  1
  F  F2  1  0.00000000  0.76299500  0.90249400  1
  F  F3  1  0.50000000  0.73075400  0.06354000  1
  F  F4  1  0.50000000  0.72776900  0.73854600  1
  F  F5  1  0.50000000  0.73340400  0.39396100  1
  F  F6  1  0.50000000  0.60720900  0.93413200  1
  F  F7  1  0.00000000  0.56822900  0.77555500  1
  F  F8  1  0.00000000  0.43666700  0.23176900  1
  F  F9  1  0.00000000  0.42850900  0.55925700  1
  F  F10  1  0.50000000  0.40112100  0.06890800  1
  F  F11  1  0.50000000  0.40051700  0.39754800  1
  F  F12  1  0.50000000  0.26685800  0.60226000  1
  F  F13  1  0.00000000  0.10481800  0.22527800  1
  F  F14  1  0.00000000  0.10505000  0.57226900  1
  F  F15  1  0.00000000  0.09965400  0.89987500  1
  F  F16  1  0.50000000  0.06568700  0.06339500  1
  F  F17  1  0.50000000  0.06340600  0.73279100  1
loop_
_geom_bond_atom_site_label_1
_geom_bond_atom_site_label_2
_geom_bond_distance
_geom_bond_site_symmetry_2
Fe0 O3 1.945024 1_556
Fe0 O2 1.949601 1_455
Fe0 O2 1.949601 1_555
Fe1 O17 1.995280 1_455
Fe1 O17 1.995280 1_555
Fe1 O0 2.003391 1_445
Fe1 O0 2.003391 1_545
Fe2 O1 1.941587 1_455
Fe2 O1 1.941587 1_555
Fe2 O4 1.975368 1_555
Fe3 O0 1.861436 1_555
Fe3 O3 1.938623 1_555
Fe3 O3 1.938623 1_655
Fe4 O1 1.945847 1_555
Fe4 O5 1.947858 1_655
Fe4 O5 1.947858 1_555
Fe5 O4 1.914446 1_655
Fe5 O4 1.914446 1_555
Fe5 O2 1.934980 1_555
Fe6 O8 1.872355 1_555
Fe7 O9 1.947689 1_555
Fe7 O6 1.951188 1_555
Fe7 O6 1.951188 1_455
Fe8 O7 1.942881 1_555
Fe8 O7 1.942881 1_455
Fe8 O5 1.944411 1_555
Fe9 O9 1.942529 1_655
Fe9 O9 1.942529 1_555
Fe9 O7 1.962982 1_555
Fe10 O6 1.938778 1_555
Fe10 O8 1.985203 1_655
Fe10 O8 1.985203 1_555
Fe11 O11 1.919589 1_555
Fe11 O10 1.926704 1_655
Fe11 O10 1.926704 1_555
Fe12 O13 1.944751 1_455
Fe12 O13 1.944751 1_555
Fe12 O14 1.976940 1_556
Fe12 O10 2.014811 1_555
Fe13 O15 1.926072 1_555
Fe13 O12 1.931915 1_555
Fe13 O12 1.931915 1_455
Fe14 O16 1.940031 1_555
Fe14 O11 1.952787 1_455
Fe14 O11 1.952787 1_555
Fe15 O14 1.922967 1_655
Fe15 O14 1.922967 1_555
Fe15 O12 1.963728 1_555
Fe16 O17 1.900952 1_555
Fe16 O15 1.941711 1_655
Fe16 O15 1.941711 1_555
Fe17 O13 1.928821 1_555
Fe17 O16 1.937388 1_555
Fe17 O16 1.937388 1_655
F0 Fe4 2.090101 1_555
F0 Fe4 2.090101 1_455
F0 Fe1 2.147344 1_565
F1 Fe7 2.134635 1_555
F1 Fe3 2.147110 1_455
F1 Fe3 2.147110 1_555
F2 Fe6 2.048670 1_556
F2 Fe5 2.209107 1_555
F2 Fe5 2.209107 1_455
F3 Fe6 2.008876 1_555
F3 Fe6 2.008876 1_655
F3 Fe3 2.391487 1_555
F4 Fe5 2.148570 1_555
F4 Fe8 2.157802 1_655
F4 Fe8 2.157802 1_555
F5 Fe7 2.124599 1_655
F5 Fe7 2.124599 1_555
F5 Fe4 2.208292 1_555
F6 Fe6 2.009551 1_656
F6 Fe6 2.009551 1_556
F6 Fe11 2.304317 1_555
F7 Fe8 2.133386 1_555
F7 Fe11 2.151844 1_455
F7 Fe11 2.151844 1_555
F8 Fe10 2.092422 1_455
F8 Fe10 2.092422 1_555
F8 Fe13 2.205567 1_555
F9 Fe9 2.127424 1_555
F9 Fe9 2.127424 1_455
F9 Fe14 2.150504 1_555
F10 Fe10 2.066801 1_555
F10 Fe12 2.181142 1_554
F10 Fe12 2.181142 1_654
F11 Fe9 2.140457 1_555
F11 Fe13 2.143028 1_655
F11 Fe13 2.143028 1_555
F12 Fe14 2.094672 1_555
F12 Fe14 2.094672 1_655
F12 Fe16 2.184487 1_555
F13 Fe1 2.120049 1_555
F13 Fe15 2.130106 1_555
F13 Fe15 2.130106 1_455
F14 Fe2 2.088120 1_545
F14 Fe16 2.147393 1_555
F14 Fe16 2.147393 1_455
F15 Fe0 2.129068 1_545
F15 Fe17 2.145155 1_455
F15 Fe17 2.145155 1_555
F16 Fe0 2.123704 1_644
F16 Fe0 2.123704 1_544
F16 Fe15 2.191664 1_555
F17 Fe2 2.127398 1_645
F17 Fe2 2.127398 1_545
F17 Fe17 2.162295 1_555
