# generated using pymatgen
data_Sb8O11F2
_symmetry_space_group_name_H-M   'P 1'
_cell_length_a   4.24416100
_cell_length_b   10.51513800
_cell_length_c   18.17020856
_cell_angle_alpha   88.98562154
_cell_angle_beta   90.00000000
_cell_angle_gamma   90.00000000
_symmetry_Int_Tables_number   1
_chemical_formula_structural   Sb8O11F2
_chemical_formula_sum   'Sb16 O22 F4'
_cell_volume   810.77187140
_cell_formula_units_Z   2
loop_
 _symmetry_equiv_pos_site_id
 _symmetry_equiv_pos_as_xyz
  1  'x, y, z'
loop_
 _atom_site_type_symbol
 _atom_site_label
 _atom_site_symmetry_multiplicity
 _atom_site_fract_x
 _atom_site_fract_y
 _atom_site_fract_z
 _atom_site_occupancy
  Sb  Sb0  1  0.72102200  0.66456500  0.00689900  1
  Sb  Sb1  1  0.18728900  0.93565300  0.92695000  1
  Sb  Sb2  1  0.98437800  0.14293200  0.74502400  1
  Sb  Sb3  1  0.48437800  0.85706800  0.75497600  1
  Sb  Sb4  1  0.44837100  0.36466100  0.80688400  1
  Sb  Sb5  1  0.94837100  0.63533900  0.69311600  1
  Sb  Sb6  1  0.68728900  0.06434700  0.57305000  1
  Sb  Sb7  1  0.22102200  0.33543500  0.49310100  1
  Sb  Sb8  1  0.77897800  0.66456500  0.50689900  1
  Sb  Sb9  1  0.31271100  0.93565300  0.42695000  1
  Sb  Sb10  1  0.05162900  0.36466100  0.30688400  1
  Sb  Sb11  1  0.55162900  0.63533900  0.19311600  1
  Sb  Sb12  1  0.51562200  0.14293200  0.24502400  1
  Sb  Sb13  1  0.01562200  0.85706800  0.25497600  1
  Sb  Sb14  1  0.81271100  0.06434700  0.07305000  1
  Sb  Sb15  1  0.27897800  0.33543500  0.99310100  1
  O  O0  1  0.08838200  0.77827500  0.98550900  1
  O  O1  1  0.50381100  0.84332300  0.86551900  1
  O  O2  1  0.46465800  0.20357700  0.74512400  1
  O  O3  1  0.50000000  0.00000000  0.00000000  1
  O  O4  1  0.40879100  0.25824900  0.89840000  1
  O  O5  1  0.46113100  0.67791500  0.71962700  1
  O  O6  1  0.96465800  0.79642300  0.75487600  1
  O  O7  1  0.00381100  0.15667700  0.63448100  1
  O  O8  1  0.58838200  0.22172500  0.51449100  1
  O  O9  1  0.96113100  0.32208500  0.78037300  1
  O  O10  1  0.90879100  0.74175100  0.60160000  1
  O  O11  1  0.00000000  0.00000000  0.50000000  1
  O  O12  1  0.09120900  0.25824900  0.39840000  1
  O  O13  1  0.03886900  0.67791500  0.21962700  1
  O  O14  1  0.41161800  0.77827500  0.48550900  1
  O  O15  1  0.99618900  0.84332300  0.36551900  1
  O  O16  1  0.03534200  0.20357700  0.24512400  1
  O  O17  1  0.53886900  0.32208500  0.28037300  1
  O  O18  1  0.59120900  0.74175100  0.10160000  1
  O  O19  1  0.53534200  0.79642300  0.25487600  1
  O  O20  1  0.49618900  0.15667700  0.13448100  1
  O  O21  1  0.91161800  0.22172500  0.01449100  1
  F  F0  1  0.01729500  0.45814400  0.93022700  1
  F  F1  1  0.51729500  0.54185600  0.56977300  1
  F  F2  1  0.48270500  0.45814400  0.43022700  1
  F  F3  1  0.98270500  0.54185600  0.06977300  1
loop_
_geom_bond_atom_site_label_1
_geom_bond_atom_site_label_2
_geom_bond_distance
_geom_bond_site_symmetry_2
O0 Sb1 1.996136 1_555
O0 Sb0 1.998786 1_456
O1 Sb1 2.007865 1_555
O1 Sb3 2.012919 1_555
O2 Sb4 2.049493 1_555
O2 Sb2 2.135816 1_455
O2 Sb2 2.296114 1_555
O3 Sb14 2.003216 1_555
O3 Sb1 2.003216 1_544
O4 Sb15 1.993152 1_555
O4 Sb4 1.994863 1_555
O5 Sb3 2.003471 1_555
O5 Sb5 2.171733 1_555
O5 Sb5 2.275107 1_455
O6 Sb5 2.049493 1_555
O6 Sb3 2.135816 1_555
O6 Sb3 2.296114 1_655
O7 Sb6 2.007865 1_455
O7 Sb2 2.012919 1_455
O8 Sb6 1.996136 1_555
O8 Sb7 1.998786 1_555
O9 Sb2 2.003471 1_555
O9 Sb4 2.171733 1_655
O9 Sb4 2.275107 1_555
O10 Sb8 1.993152 1_555
O10 Sb5 1.994863 1_555
O11 Sb9 2.003216 1_545
O11 Sb6 2.003216 1_455
O12 Sb7 1.993152 1_555
O12 Sb10 1.994863 1_555
O13 Sb13 2.003471 1_555
O13 Sb11 2.171733 1_455
O13 Sb11 2.275107 1_555
O14 Sb9 1.996136 1_555
O14 Sb8 1.998786 1_555
O15 Sb9 2.007865 1_655
O15 Sb13 2.012919 1_655
O16 Sb10 2.049493 1_555
O16 Sb12 2.135816 1_555
O16 Sb12 2.296114 1_455
O17 Sb12 2.003471 1_555
O17 Sb10 2.171733 1_555
O17 Sb10 2.275107 1_655
O18 Sb0 1.993152 1_555
O18 Sb11 1.994863 1_555
O19 Sb11 2.049493 1_555
O19 Sb13 2.135816 1_655
O19 Sb13 2.296114 1_555
O20 Sb14 2.007865 1_555
O20 Sb12 2.012919 1_555
O21 Sb14 1.996136 1_555
O21 Sb15 1.998786 1_654
F0 Sb15 2.037481 1_555
F1 Sb8 2.037481 1_555
F2 Sb7 2.037481 1_555
F3 Sb0 2.037481 1_555
