# generated using pymatgen
data_Li6Ni2P(CO4)4
_symmetry_space_group_name_H-M   'P 1'
_cell_length_a   9.32611760
_cell_length_b   9.32611760
_cell_length_c   9.32611760
_cell_angle_alpha   60.00000000
_cell_angle_beta   60.00000000
_cell_angle_gamma   60.00000000
_symmetry_Int_Tables_number   1
_chemical_formula_structural   Li6Ni2P(CO4)4
_chemical_formula_sum   'Li12 Ni4 P2 C8 O32'
_cell_volume   573.57163411
_cell_formula_units_Z   2
loop_
 _symmetry_equiv_pos_site_id
 _symmetry_equiv_pos_as_xyz
  1  'x, y, z'
loop_
 _atom_site_type_symbol
 _atom_site_label
 _atom_site_symmetry_multiplicity
 _atom_site_fract_x
 _atom_site_fract_y
 _atom_site_fract_z
 _atom_site_occupancy
  Li  Li0  1  0.28239400  0.28239400  0.71760600  1
  Li  Li1  1  0.96760600  0.53239400  0.53239400  1
  Li  Li2  1  0.71760600  0.28239400  0.71760600  1
  Li  Li3  1  0.28239400  0.71760600  0.28239400  1
  Li  Li4  1  0.53239400  0.96760600  0.96760600  1
  Li  Li5  1  0.53239400  0.53239400  0.96760600  1
  Li  Li6  1  0.71760600  0.28239400  0.28239400  1
  Li  Li7  1  0.71760600  0.71760600  0.28239400  1
  Li  Li8  1  0.96760600  0.53239400  0.96760600  1
  Li  Li9  1  0.53239400  0.96760600  0.53239400  1
  Li  Li10  1  0.28239400  0.71760600  0.71760600  1
  Li  Li11  1  0.96760600  0.96760600  0.53239400  1
  Ni  Ni0  1  0.62500000  0.12500000  0.12500000  1
  Ni  Ni1  1  0.12500000  0.12500000  0.12500000  1
  Ni  Ni2  1  0.12500000  0.12500000  0.62500000  1
  Ni  Ni3  1  0.12500000  0.62500000  0.12500000  1
  P  P0  1  0.50000000  0.50000000  0.50000000  1
  P  P1  1  0.75000000  0.75000000  0.75000000  1
  C  C0  1  0.29426600  0.90191100  0.90191100  1
  C  C1  1  0.90191100  0.29426600  0.90191100  1
  C  C2  1  0.90191100  0.90191100  0.90191100  1
  C  C3  1  0.90191100  0.90191100  0.29426600  1
  C  C4  1  0.34808900  0.34808900  0.95573400  1
  C  C5  1  0.34808900  0.34808900  0.34808900  1
  C  C6  1  0.34808900  0.95573400  0.34808900  1
  C  C7  1  0.95573400  0.34808900  0.34808900  1
  O  O0  1  0.21527300  0.49309200  0.33697600  1
  O  O1  1  0.95465900  0.33697600  0.49309200  1
  O  O2  1  0.29534100  0.03472700  0.91302400  1
  O  O3  1  0.03472700  0.29534100  0.75690800  1
  O  O4  1  0.29534100  0.75690800  0.03472700  1
  O  O5  1  0.56777600  0.56777600  0.29667300  1
  O  O6  1  0.91302400  0.03472700  0.75690800  1
  O  O7  1  0.56777600  0.56777600  0.56777600  1
  O  O8  1  0.56777600  0.29667300  0.56777600  1
  O  O9  1  0.91302400  0.29534100  0.03472700  1
  O  O10  1  0.75690800  0.29534100  0.91302400  1
  O  O11  1  0.29667300  0.56777600  0.56777600  1
  O  O12  1  0.03472700  0.91302400  0.29534100  1
  O  O13  1  0.75690800  0.91302400  0.03472700  1
  O  O14  1  0.91302400  0.75690800  0.29534100  1
  O  O15  1  0.49309200  0.21527300  0.95465900  1
  O  O16  1  0.75690800  0.03472700  0.29534100  1
  O  O17  1  0.33697600  0.49309200  0.95465900  1
  O  O18  1  0.49309200  0.33697600  0.21527300  1
  O  O19  1  0.21527300  0.33697600  0.95465900  1
  O  O20  1  0.95332700  0.68222400  0.68222400  1
  O  O21  1  0.49309200  0.95465900  0.33697600  1
  O  O22  1  0.33697600  0.95465900  0.21527300  1
  O  O23  1  0.68222400  0.95332700  0.68222400  1
  O  O24  1  0.68222400  0.68222400  0.68222400  1
  O  O25  1  0.33697600  0.21527300  0.49309200  1
  O  O26  1  0.68222400  0.68222400  0.95332700  1
  O  O27  1  0.95465900  0.49309200  0.21527300  1
  O  O28  1  0.21527300  0.95465900  0.49309200  1
  O  O29  1  0.95465900  0.21527300  0.33697600  1
  O  O30  1  0.29534100  0.91302400  0.75690800  1
  O  O31  1  0.03472700  0.75690800  0.91302400  1
loop_
_geom_bond_atom_site_label_1
_geom_bond_atom_site_label_2
_geom_bond_distance
_geom_bond_site_symmetry_2
Li0 O3 2.098267 1_555
Li0 O2 2.098267 1_555
Li0 O25 2.227411 1_555
Li0 O19 2.227411 1_555
Li0 O11 2.345895 1_555
Li0 O8 2.345895 1_555
Li1 O1 2.098267 1_555
Li1 O0 2.098267 1_655
Li1 O3 2.227411 1_655
Li1 O14 2.227411 1_555
Li1 O20 2.345887 1_555
Li1 O24 2.345892 1_555
Li2 O6 2.098267 1_555
Li2 O10 2.098267 1_555
Li2 O15 2.227411 1_555
Li2 O1 2.227411 1_555
Li2 O8 2.345887 1_555
Li2 O7 2.345892 1_555
Li3 O4 2.098267 1_555
Li3 O12 2.098267 1_555
Li3 O0 2.227411 1_555
Li3 O22 2.227411 1_555
Li3 O11 2.345895 1_555
Li3 O5 2.345895 1_555
Li4 O22 2.098267 1_556
Li4 O15 2.098267 1_565
Li4 O13 2.227411 1_556
Li4 O2 2.227411 1_565
Li4 O23 2.345895 1_555
Li4 O26 2.345895 1_555
Li5 O17 2.098267 1_555
Li5 O18 2.098267 1_556
Li5 O4 2.227411 1_556
Li5 O10 2.227411 1_555
Li5 O26 2.345887 1_555
Li5 O24 2.345892 1_555
Li6 O9 2.098267 1_555
Li6 O16 2.098267 1_555
Li6 O18 2.227411 1_555
Li6 O29 2.227411 1_555
Li6 O8 2.345895 1_555
Li6 O5 2.345895 1_555
Li7 O13 2.098267 1_555
Li7 O14 2.098267 1_555
Li7 O27 2.227411 1_555
Li7 O21 2.227411 1_555
Li7 O5 2.345887 1_555
Li7 O7 2.345892 1_555
Li8 O19 2.098267 1_655
Li8 O27 2.098267 1_556
Li8 O31 2.227411 1_655
Li8 O9 2.227411 1_556
Li8 O20 2.345895 1_555
Li8 O26 2.345895 1_555
Li9 O21 2.098267 1_555
Li9 O25 2.098267 1_565
Li9 O16 2.227411 1_565
Li9 O30 2.227411 1_555
Li9 O23 2.345887 1_555
Li9 O24 2.345892 1_555
Li10 O31 2.098267 1_555
Li10 O30 2.098267 1_555
Li10 O28 2.227411 1_555
Li10 O17 2.227411 1_555
Li10 O11 2.345887 1_555
Li10 O7 2.345892 1_555
Li11 O28 2.098267 1_655
Li11 O29 2.098267 1_565
Li11 O6 2.227411 1_565
Li11 O12 2.227411 1_655
Li11 O23 2.345895 1_555
Li11 O20 2.345895 1_555
Ni0 O15 2.080151 1_554
Ni0 O21 2.080151 1_545
Ni0 O18 2.080151 1_555
Ni0 O13 2.080151 1_545
Ni0 O16 2.080151 1_555
Ni0 O10 2.080151 1_554
Ni1 O22 2.080151 1_545
Ni1 O29 2.080151 1_455
Ni1 O19 2.080151 1_554
Ni1 O12 2.080151 1_545
Ni1 O9 2.080151 1_455
Ni1 O2 2.080151 1_554
Ni2 O1 2.080151 1_455
Ni2 O25 2.080151 1_555
Ni2 O28 2.080151 1_545
Ni2 O30 2.080151 1_545
Ni2 O6 2.080151 1_455
Ni2 O3 2.080151 1_555
Ni3 O27 2.080151 1_455
Ni3 O0 2.080151 1_555
Ni3 O17 2.080151 1_554
Ni3 O31 2.080151 1_554
Ni3 O4 2.080151 1_555
Ni3 O14 2.080151 1_455
C0 O30 1.298816 1_555
C0 O4 1.298820 1_556
C0 O2 1.298826 1_565
C1 O10 1.298816 1_555
C1 O3 1.298820 1_655
C1 O9 1.298826 1_556
C2 O13 1.298821 1_556
C2 O31 1.298821 1_655
C2 O6 1.298821 1_565
C3 O14 1.298816 1_555
C3 O16 1.298820 1_565
C3 O12 1.298826 1_655
C4 O17 1.298816 1_555
C4 O15 1.298820 1_555
C4 O19 1.298826 1_555
C5 O25 1.298821 1_555
C5 O0 1.298821 1_555
C5 O18 1.298821 1_555
C6 O21 1.298816 1_555
C6 O28 1.298820 1_555
C6 O22 1.298826 1_555
C7 O1 1.298816 1_555
C7 O27 1.298820 1_555
C7 O29 1.298826 1_555
O5 P0 1.548283 1_555
O7 P0 1.548290 1_555
O8 P0 1.548283 1_555
O11 P0 1.548283 1_555
O20 P1 1.548283 1_555
O23 P1 1.548283 1_555
O24 P1 1.548290 1_555
O26 P1 1.548283 1_555
