# generated using pymatgen
data_LiCuF3
_symmetry_space_group_name_H-M   'P 1'
_cell_length_a   5.43585286
_cell_length_b   5.43585286
_cell_length_c   5.43585173
_cell_angle_alpha   55.12123596
_cell_angle_beta   55.12123596
_cell_angle_gamma   55.12123193
_symmetry_Int_Tables_number   1
_chemical_formula_structural   LiCuF3
_chemical_formula_sum   'Li2 Cu2 F6'
_cell_volume   100.69027688
_cell_formula_units_Z   2
loop_
 _symmetry_equiv_pos_site_id
 _symmetry_equiv_pos_as_xyz
  1  'x, y, z'
loop_
 _atom_site_type_symbol
 _atom_site_label
 _atom_site_symmetry_multiplicity
 _atom_site_fract_x
 _atom_site_fract_y
 _atom_site_fract_z
 _atom_site_occupancy
  Li  Li0  1  0.80554969  0.80554969  0.80554969  1
  Li  Li1  1  0.30554969  0.30554969  0.30554969  1
  Cu  Cu0  1  0.51023609  0.51023609  0.51023609  1
  Cu  Cu1  1  0.01023609  0.01023609  0.01023609  1
  F  F0  1  0.73272211  0.40982237  0.11113474  1
  F  F1  1  0.61113474  0.90982237  0.23272211  1
  F  F2  1  0.90982237  0.23272211  0.61113474  1
  F  F3  1  0.11113474  0.73272211  0.40982237  1
  F  F4  1  0.40982237  0.11113474  0.73272211  1
  F  F5  1  0.23272211  0.61113474  0.90982237  1
loop_
_geom_bond_atom_site_label_1
_geom_bond_atom_site_label_2
_geom_bond_distance
_geom_bond_site_symmetry_2
Cu0 F5 1.990787 1_555
Cu0 F2 1.990787 1_555
Cu0 F1 1.990787 1_555
Cu0 F0 2.016363 1_555
Cu0 F3 2.016363 1_555
Cu0 F4 2.016363 1_555
Cu1 F3 1.990787 1_545
Cu1 F0 1.990787 1_455
Cu1 F4 1.990787 1_554
Cu1 F2 2.016363 1_454
Cu1 F5 2.016363 1_544
Cu1 F1 2.016363 1_445
F0 Li0 1.917944 1_554
F0 Li1 2.200831 1_555
F1 Li1 1.917943 1_565
F1 Li0 2.200830 1_554
F2 Li1 1.917944 1_655
F2 Li0 2.200831 1_545
F3 Li0 1.917943 1_455
F3 Li1 2.200831 1_555
F4 Li0 1.917943 1_545
F4 Li1 2.200830 1_555
F5 Li1 1.917943 1_556
F5 Li0 2.200831 1_455
