# generated using pymatgen
data_Li2NiO2F
_symmetry_space_group_name_H-M   'P 1'
_cell_length_a   5.02047800
_cell_length_b   5.02086172
_cell_length_c   9.16389911
_cell_angle_alpha   101.27426595
_cell_angle_beta   99.99976903
_cell_angle_gamma   108.90700125
_symmetry_Int_Tables_number   1
_chemical_formula_structural   Li2NiO2F
_chemical_formula_sum   'Li8 Ni4 O8 F4'
_cell_volume   207.20533187
_cell_formula_units_Z   4
loop_
 _symmetry_equiv_pos_site_id
 _symmetry_equiv_pos_as_xyz
  1  'x, y, z'
loop_
 _atom_site_type_symbol
 _atom_site_label
 _atom_site_symmetry_multiplicity
 _atom_site_fract_x
 _atom_site_fract_y
 _atom_site_fract_z
 _atom_site_occupancy
  Li  Li0  1  0.49835000  0.98440200  0.00533500  1
  Li  Li1  1  0.25761700  0.24571900  0.16793400  1
  Li  Li2  1  0.99178900  0.50413700  0.33026200  1
  Li  Li3  1  0.71868500  0.73221800  0.50455400  1
  Li  Li4  1  0.24794300  0.23565600  0.50516300  1
  Li  Li5  1  0.49687100  0.99247000  0.66707300  1
  Li  Li6  1  0.75292100  0.76811200  0.82877600  1
  Li  Li7  1  0.00321100  0.51686600  0.00490400  1
  Ni  Ni0  1  0.76133400  0.76287700  0.16568200  1
  Ni  Ni1  1  0.51914300  0.00328700  0.32771900  1
  Ni  Ni2  1  0.99071100  0.49203500  0.66573600  1
  Ni  Ni3  1  0.26375900  0.24781800  0.82780300  1
  O  O0  1  0.52858400  0.99519900  0.17556800  1
  O  O1  1  0.97017300  0.51298200  0.17411700  1
  O  O2  1  0.73098500  0.74889400  0.32550800  1
  O  O3  1  0.45069500  0.95459100  0.49958000  1
  O  O4  1  0.21465300  0.25687700  0.67424300  1
  O  O5  1  0.72898700  0.69540300  0.67527800  1
  O  O6  1  0.52454000  0.04280300  0.82553800  1
  O  O7  1  0.79716600  0.80071400  0.99991200  1
  F  F0  1  0.22953000  0.22421000  0.33507900  1
  F  F1  1  0.97152400  0.46789600  0.49889300  1
  F  F2  1  0.02172200  0.51456500  0.83513600  1
  F  F3  1  0.28728800  0.28197900  0.99904700  1
loop_
_geom_bond_atom_site_label_1
_geom_bond_atom_site_label_2
_geom_bond_distance
_geom_bond_site_symmetry_2
Li0 O0 1.529359 1_555
Li0 O6 1.748471 1_564
Li0 O7 2.002069 1_554
Li1 O0 2.132591 1_545
Li1 O1 2.267174 1_455
Li2 O1 1.426624 1_555
Li2 O2 2.066494 1_555
Li3 O5 1.604887 1_555
Li3 O2 1.669871 1_555
Li3 O3 2.007730 1_555
Li4 O4 1.573832 1_555
Li4 O3 1.987711 1_545
Li5 O6 1.398436 1_565
Li5 O3 1.476316 1_555
Li5 O4 2.234154 1_565
Li6 O5 1.355887 1_555
Li6 O7 1.513504 1_555
Li6 O6 2.060749 1_565
Li7 O1 1.591056 1_455
Li7 O7 2.016860 1_454
Ni0 O2 1.511310 1_555
Ni0 O7 1.600536 1_554
Ni0 O1 1.881973 1_555
Ni0 O0 1.900798 1_555
Ni1 O0 1.396430 1_545
Ni1 O3 1.715313 1_545
Ni1 O2 1.908060 1_545
Ni2 O4 1.878826 1_655
Ni2 O5 1.910834 1_555
Ni3 O4 1.398175 1_555
Ni3 O6 1.910127 1_555
F0 Li4 1.533844 1_555
F0 Li1 1.583499 1_555
F0 Ni1 2.097389 1_555
F0 Li2 2.120151 1_455
F1 Ni2 1.493463 1_555
F1 Li2 1.607488 1_555
F1 Li4 2.082312 1_655
F1 Li3 2.112569 1_555
F2 Ni2 1.510913 1_455
F2 Li7 1.572567 1_556
F2 Ni3 2.079102 1_555
F2 Li6 2.135465 1_455
F3 Ni3 1.524207 1_555
F3 Li1 1.619648 1_556
F3 Li0 2.096884 1_546
F3 Li7 2.125942 1_556
