# generated using pymatgen
data_H9PtN2ClO2
_symmetry_space_group_name_H-M   'P 1'
_cell_length_a   4.39303300
_cell_length_b   8.02793900
_cell_length_c   19.30068162
_cell_angle_alpha   67.59222953
_cell_angle_beta   90.00000000
_cell_angle_gamma   90.00000000
_symmetry_Int_Tables_number   1
_chemical_formula_structural   H9PtN2ClO2
_chemical_formula_sum   'H36 Pt4 N8 Cl4 O8'
_cell_volume   629.28218199
_cell_formula_units_Z   4
loop_
 _symmetry_equiv_pos_site_id
 _symmetry_equiv_pos_as_xyz
  1  'x, y, z'
loop_
 _atom_site_type_symbol
 _atom_site_label
 _atom_site_symmetry_multiplicity
 _atom_site_fract_x
 _atom_site_fract_y
 _atom_site_fract_z
 _atom_site_occupancy
  H  H0  1  0.23266400  0.48057800  0.24037500  1
  H  H1  1  0.26733600  0.48057800  0.74037500  1
  H  H2  1  0.76733600  0.51942200  0.75962500  1
  H  H3  1  0.73266400  0.51942200  0.25962500  1
  H  H4  1  0.72568600  0.78213900  0.25664600  1
  H  H5  1  0.77431400  0.78213900  0.75664600  1
  H  H6  1  0.27431400  0.21786100  0.74335400  1
  H  H7  1  0.22568600  0.21786100  0.24335400  1
  H  H8  1  0.66141100  0.98597300  0.24412300  1
  H  H9  1  0.83858900  0.98597300  0.74412300  1
  H  H10  1  0.33858900  0.01402700  0.75587700  1
  H  H11  1  0.16141100  0.01402700  0.25587700  1
  H  H12  1  0.51121100  0.41774700  0.07539100  1
  H  H13  1  0.98878900  0.41774700  0.57539100  1
  H  H14  1  0.48878900  0.58225300  0.92460900  1
  H  H15  1  0.01121100  0.58225300  0.42460900  1
  H  H16  1  0.59928200  0.29884800  0.16295300  1
  H  H17  1  0.90071800  0.29884800  0.66295300  1
  H  H18  1  0.40071800  0.70115200  0.83704700  1
  H  H19  1  0.09928200  0.70115200  0.33704700  1
  H  H20  1  0.82013900  0.29062200  0.09385900  1
  H  H21  1  0.67986100  0.29062200  0.59385900  1
  H  H22  1  0.17986100  0.70937800  0.90614100  1
  H  H23  1  0.32013900  0.70937800  0.40614100  1
  H  H24  1  0.43951100  0.75148900  0.13093400  1
  H  H25  1  0.06048900  0.75148900  0.63093400  1
  H  H26  1  0.56048900  0.24851100  0.86906600  1
  H  H27  1  0.93951100  0.24851100  0.36906600  1
  H  H28  1  0.14312000  0.83001200  0.16380400  1
  H  H29  1  0.35688000  0.83001200  0.66380400  1
  H  H30  1  0.85688000  0.16998800  0.83619600  1
  H  H31  1  0.64312000  0.16998800  0.33619600  1
  H  H32  1  0.20292800  0.90168800  0.07218400  1
  H  H33  1  0.29707200  0.90168800  0.57218400  1
  H  H34  1  0.79707200  0.09831200  0.92781600  1
  H  H35  1  0.70292800  0.09831200  0.42781600  1
  Pt  Pt0  1  0.95300800  0.58332900  0.11584000  1
  Pt  Pt1  1  0.54699200  0.58332900  0.61584000  1
  Pt  Pt2  1  0.04699200  0.41667100  0.88416000  1
  Pt  Pt3  1  0.45300800  0.41667100  0.38416000  1
  N  N0  1  0.69209200  0.37394400  0.11169700  1
  N  N1  1  0.80790800  0.37394400  0.61169700  1
  N  N2  1  0.30790800  0.62605600  0.88830300  1
  N  N3  1  0.19209200  0.62605600  0.38830300  1
  N  N4  1  0.21504700  0.79055200  0.12170500  1
  N  N5  1  0.28495300  0.79055200  0.62170500  1
  N  N6  1  0.78495300  0.20944800  0.87829500  1
  N  N7  1  0.71504700  0.20944800  0.37829500  1
  Cl  Cl0  1  0.80504000  0.76300300  0.99465500  1
  Cl  Cl1  1  0.69496000  0.76300300  0.49465500  1
  Cl  Cl2  1  0.19496000  0.23699700  0.00534500  1
  Cl  Cl3  1  0.30504000  0.23699700  0.50534500  1
  O  O0  1  0.07009200  0.41993200  0.22299900  1
  O  O1  1  0.42990800  0.41993200  0.72299900  1
  O  O2  1  0.92990800  0.58006800  0.77700100  1
  O  O3  1  0.57009200  0.58006800  0.27700100  1
  O  O4  1  0.82910200  0.90239400  0.24410000  1
  O  O5  1  0.67089800  0.90239400  0.74410000  1
  O  O6  1  0.17089800  0.09760600  0.75590000  1
  O  O7  1  0.32910200  0.09760600  0.25590000  1
loop_
_geom_bond_atom_site_label_1
_geom_bond_atom_site_label_2
_geom_bond_distance
_geom_bond_site_symmetry_2
H0 O0 0.991992 1_555
H1 O1 0.991992 1_555
H2 O2 0.991992 1_555
H3 O3 0.991992 1_555
H4 O4 1.009359 1_555
H5 O5 1.009359 1_555
H6 O6 1.009359 1_555
H7 O7 1.009359 1_555
H8 O4 0.996549 1_555
H9 O5 0.996549 1_555
H10 O6 0.996549 1_555
H11 O7 0.996549 1_555
H12 N0 1.028705 1_555
H13 N1 1.028705 1_555
H14 N2 1.028705 1_555
H15 N3 1.028705 1_555
H16 N0 1.026478 1_555
H17 N1 1.026478 1_555
H18 N2 1.026478 1_555
H19 N3 1.026478 1_555
H20 N0 1.028573 1_555
H21 N1 1.028573 1_555
H22 N2 1.028573 1_555
H23 N3 1.028573 1_555
H24 N4 1.029482 1_555
H25 N5 1.029482 1_555
H26 N6 1.029482 1_555
H27 N7 1.029482 1_555
H28 N4 1.027936 1_555
H29 N5 1.027936 1_555
H30 N6 1.027936 1_555
H31 N7 1.027936 1_555
H32 N4 1.030654 1_555
H33 N5 1.030654 1_555
H34 N6 1.030654 1_555
H35 N7 1.030654 1_555
N0 Pt0 2.061116 1_555
N1 Pt1 2.061116 1_555
N2 Pt2 2.061116 1_555
N3 Pt3 2.061116 1_555
N4 Pt0 2.061310 1_455
N5 Pt1 2.061310 1_555
N6 Pt2 2.061310 1_655
N7 Pt3 2.061310 1_555
Cl0 Pt0 2.324152 1_556
Cl1 Pt1 2.324152 1_555
Cl2 Pt2 2.324152 1_554
Cl3 Pt3 2.324152 1_555
O0 Pt0 2.048043 1_455
O1 Pt1 2.048043 1_555
O2 Pt2 2.048043 1_655
O3 Pt3 2.048043 1_555
