# generated using pymatgen
data_Li4VCr(WO6)2
_symmetry_space_group_name_H-M   'P 1'
_cell_length_a   7.46690992
_cell_length_b   7.47945272
_cell_length_c   8.86960726
_cell_angle_alpha   66.68837093
_cell_angle_beta   113.28167024
_cell_angle_gamma   93.06879012
_symmetry_Int_Tables_number   1
_chemical_formula_structural   Li4VCr(WO6)2
_chemical_formula_sum   'Li8 V2 Cr2 W4 O24'
_cell_volume   414.75413942
_cell_formula_units_Z   2
loop_
 _symmetry_equiv_pos_site_id
 _symmetry_equiv_pos_as_xyz
  1  'x, y, z'
loop_
 _atom_site_type_symbol
 _atom_site_label
 _atom_site_symmetry_multiplicity
 _atom_site_fract_x
 _atom_site_fract_y
 _atom_site_fract_z
 _atom_site_occupancy
  Li  Li0  1  0.31834400  0.67941400  0.21336700  1
  Li  Li1  1  0.81840500  0.17937900  0.21343500  1
  Li  Li2  1  0.17175800  0.32139600  0.78669100  1
  Li  Li3  1  0.67177300  0.82138300  0.78671200  1
  Li  Li4  1  0.69200400  0.30457500  0.79664800  1
  Li  Li5  1  0.19196900  0.80469600  0.79660900  1
  Li  Li6  1  0.83195800  0.67745600  0.21626400  1
  Li  Li7  1  0.33191000  0.17749000  0.21622600  1
  V  V0  1  0.23106700  0.27052000  0.48783500  1
  V  V1  1  0.73099900  0.77057700  0.48786500  1
  Cr  Cr0  1  0.50966200  0.49022400  0.00660900  1
  Cr  Cr1  1  0.00945800  0.99028400  0.00638500  1
  W  W0  1  0.74658700  0.26363500  0.50354000  1
  W  W1  1  0.24659000  0.76354200  0.50355900  1
  W  W2  1  0.49537200  0.99628900  0.98929000  1
  W  W3  1  0.99535900  0.49617800  0.98929300  1
  O  O0  1  0.78391400  0.52583200  0.44249000  1
  O  O1  1  0.28389400  0.02585800  0.44247200  1
  O  O2  1  0.93090600  0.18117300  0.74935400  1
  O  O3  1  0.43095000  0.68120500  0.74935100  1
  O  O4  1  0.29424600  0.02610100  0.06540600  1
  O  O5  1  0.79427200  0.52610800  0.06545400  1
  O  O6  1  0.98562200  0.21811400  0.44617200  1
  O  O7  1  0.48560900  0.71821800  0.44589200  1
  O  O8  1  0.54591300  0.26232800  0.95201100  1
  O  O9  1  0.04590800  0.76223500  0.95199300  1
  O  O10  1  0.31650800  0.06451900  0.74989700  1
  O  O11  1  0.81643500  0.56445900  0.74988700  1
  O  O12  1  0.69883100  0.91726600  0.26297800  1
  O  O13  1  0.19875700  0.41727000  0.26295900  1
  O  O14  1  0.47145400  0.71962700  0.06100100  1
  O  O15  1  0.97137600  0.21953300  0.06102200  1
  O  O16  1  0.03580300  0.76765200  0.56424200  1
  O  O17  1  0.53580300  0.26765100  0.56422400  1
  O  O18  1  0.72588000  0.95718800  0.95192000  1
  O  O19  1  0.22592300  0.45691000  0.95225600  1
  O  O20  1  0.08930700  0.79343700  0.26275900  1
  O  O21  1  0.58931200  0.29345300  0.26277400  1
  O  O22  1  0.23188800  0.45661500  0.56277600  1
  O  O23  1  0.73188000  0.95661000  0.56278000  1
loop_
_geom_bond_atom_site_label_1
_geom_bond_atom_site_label_2
_geom_bond_distance
_geom_bond_site_symmetry_2
Li0 O14 2.021555 1_555
Li0 O13 2.067751 1_555
Li0 O7 2.072766 1_555
Li0 O20 2.210914 1_555
Li0 O9 2.273034 1_554
Li0 O4 2.376638 1_565
Li1 O15 2.021114 1_555
Li1 O12 2.067508 1_545
Li1 O6 2.073963 1_555
Li1 O21 2.211163 1_555
Li1 O8 2.273414 1_554
Li1 O5 2.376907 1_555
Li2 O19 2.003004 1_555
Li2 O2 2.011489 1_455
Li2 O22 2.057991 1_555
Li2 O4 2.435868 1_556
Li2 O10 2.442034 1_555
Li2 O8 2.555694 1_555
Li3 O18 2.002062 1_555
Li3 O3 2.011138 1_555
Li3 O23 2.058027 1_555
Li3 O5 2.435912 1_556
Li3 O11 2.442155 1_555
Li3 O9 2.555540 1_655
Li4 O8 1.998864 1_555
Li4 O17 2.049842 1_555
Li4 O11 2.070453 1_555
Li4 O2 2.298751 1_555
Li4 O15 2.312897 1_556
Li4 O18 2.382124 1_545
Li5 O9 1.998609 1_555
Li5 O16 2.049829 1_555
Li5 O10 2.070455 1_565
Li5 O3 2.299400 1_555
Li5 O14 2.313405 1_556
Li5 O19 2.385024 1_555
Li6 O5 2.004152 1_555
Li6 O20 2.023204 1_655
Li6 O0 2.040941 1_555
Li6 O18 2.308456 1_554
Li6 O12 2.341293 1_555
Li6 O14 2.461450 1_555
Li7 O4 2.004503 1_555
Li7 O21 2.023476 1_555
Li7 O1 2.040986 1_555
Li7 O19 2.305513 1_554
Li7 O13 2.341314 1_555
Li7 O15 2.461640 1_455
Cr0 O19 2.003580 1_554
Cr0 O8 2.004883 1_554
Cr0 O5 2.008413 1_555
Cr0 O3 2.010585 1_554
Cr0 O21 2.015197 1_555
Cr0 O14 2.018539 1_555
Cr1 O18 2.002039 1_454
Cr1 O9 2.005231 1_554
Cr1 O2 2.009050 1_464
Cr1 O4 2.009419 1_565
Cr1 O20 2.016540 1_555
Cr1 O15 2.018550 1_465
O0 W0 1.853938 1_555
O0 V1 2.110750 1_555
O1 W1 1.854712 1_545
O1 V0 2.109891 1_555
O2 W0 1.919038 1_555
O3 W1 1.919068 1_555
O4 W2 1.928045 1_544
O5 W3 1.928318 1_554
O6 V0 1.775217 1_655
O6 W0 2.116752 1_555
O7 V1 1.774438 1_555
O7 W1 2.117886 1_555
O8 W2 1.925789 1_545
O9 W3 1.925900 1_455
O10 W2 1.877839 1_545
O10 V0 2.069364 1_555
O11 W3 1.877997 1_555
O11 V1 2.069394 1_555
O12 V1 1.776938 1_555
O12 W2 2.143688 1_554
O13 V0 1.776648 1_555
O13 W3 2.143533 1_454
O14 W2 1.930520 1_554
O15 W3 1.930472 1_554
O16 W1 1.858987 1_555
O16 V1 2.100980 1_455
O17 W0 1.858847 1_555
O17 V0 2.100508 1_555
O18 W2 1.933768 1_555
O19 W3 1.932785 1_455
O20 W1 1.912644 1_555
O21 W0 1.912552 1_555
O22 V0 1.762762 1_555
O22 W1 2.149931 1_555
O23 V1 1.762084 1_555
O23 W0 2.150612 1_565
