# generated using pymatgen
data_CaB5H3O10
_symmetry_space_group_name_H-M   'P 1'
_cell_length_a   20.03708500
_cell_length_b   6.57974200
_cell_length_c   6.62052191
_cell_angle_alpha   60.63659922
_cell_angle_beta   90.00000000
_cell_angle_gamma   90.00000000
_symmetry_Int_Tables_number   1
_chemical_formula_structural   CaB5H3O10
_chemical_formula_sum   'Ca4 B20 H12 O40'
_cell_volume   760.70554859
_cell_formula_units_Z   4
loop_
 _symmetry_equiv_pos_site_id
 _symmetry_equiv_pos_as_xyz
  1  'x, y, z'
loop_
 _atom_site_type_symbol
 _atom_site_label
 _atom_site_symmetry_multiplicity
 _atom_site_fract_x
 _atom_site_fract_y
 _atom_site_fract_z
 _atom_site_occupancy
  Ca  Ca0  1  0.19463500  0.81511900  0.54907500  1
  Ca  Ca1  1  0.30536500  0.81511900  0.04907500  1
  Ca  Ca2  1  0.69463500  0.18488100  0.95092500  1
  Ca  Ca3  1  0.80536500  0.18488100  0.45092500  1
  B  B0  1  0.34484800  0.91240800  0.55882600  1
  B  B1  1  0.68373300  0.77723400  0.83598800  1
  B  B2  1  0.44767300  0.67722300  0.65403200  1
  B  B3  1  0.67188400  0.68046200  0.52742200  1
  B  B4  1  0.15515200  0.91240800  0.05882600  1
  B  B5  1  0.81626700  0.77723400  0.33598800  1
  B  B6  1  0.83990400  0.51424800  0.75651800  1
  B  B7  1  0.33990400  0.48575200  0.74348200  1
  B  B8  1  0.17188400  0.31953800  0.97257800  1
  B  B9  1  0.05232700  0.67722300  0.15403200  1
  B  B10  1  0.94767300  0.32277700  0.84596800  1
  B  B11  1  0.82811600  0.68046200  0.02742200  1
  B  B12  1  0.66009600  0.51424800  0.25651800  1
  B  B13  1  0.16009600  0.48575200  0.24348200  1
  B  B14  1  0.18373300  0.22276600  0.66401200  1
  B  B15  1  0.84484800  0.08759200  0.94117400  1
  B  B16  1  0.32811600  0.31953800  0.47257800  1
  B  B17  1  0.55232700  0.32277700  0.34596800  1
  B  B18  1  0.31626700  0.22276600  0.16401200  1
  B  B19  1  0.65515200  0.08759200  0.44117400  1
  H  H0  1  0.04937300  0.91394100  0.56902200  1
  H  H1  1  0.53847700  0.81667000  0.58805100  1
  H  H2  1  0.05002000  0.64353500  0.64770300  1
  H  H3  1  0.45062700  0.91394100  0.06902200  1
  H  H4  1  0.96152300  0.81667000  0.08805100  1
  H  H5  1  0.55002000  0.35646500  0.85229700  1
  H  H6  1  0.44998000  0.64353500  0.14770300  1
  H  H7  1  0.03847700  0.18333000  0.91194900  1
  H  H8  1  0.54937300  0.08605900  0.93097800  1
  H  H9  1  0.94998000  0.35646500  0.35229700  1
  H  H10  1  0.46152300  0.18333000  0.41194900  1
  H  H11  1  0.95062700  0.08605900  0.43097800  1
  O  O0  1  0.19074700  0.99101200  0.82968300  1
  O  O1  1  0.83393200  0.91086700  0.86673400  1
  O  O2  1  0.30925300  0.99101200  0.32968300  1
  O  O3  1  0.41657900  0.89204300  0.52952400  1
  O  O4  1  0.66606800  0.91086700  0.36673400  1
  O  O5  1  0.07604900  0.79033200  0.57052600  1
  O  O6  1  0.31187300  0.70057900  0.73267400  1
  O  O7  1  0.81113400  0.72656600  0.56003500  1
  O  O8  1  0.51664800  0.66240000  0.66326100  1
  O  O9  1  0.67275300  0.61101000  0.76698800  1
  O  O10  1  0.82151300  0.50466800  0.97970600  1
  O  O11  1  0.08342100  0.89204300  0.02952400  1
  O  O12  1  0.91236400  0.52456100  0.72980300  1
  O  O13  1  0.41236400  0.47543900  0.77019700  1
  O  O14  1  0.42395100  0.79033200  0.07052600  1
  O  O15  1  0.18812700  0.70057900  0.23267400  1
  O  O16  1  0.68886600  0.72656600  0.06003500  1
  O  O17  1  0.32151300  0.49533200  0.52029400  1
  O  O18  1  0.17275300  0.38899000  0.73301200  1
  O  O19  1  0.01664800  0.33760000  0.83673900  1
  O  O20  1  0.98335200  0.66240000  0.16326100  1
  O  O21  1  0.82724700  0.61101000  0.26698800  1
  O  O22  1  0.67848700  0.50466800  0.47970600  1
  O  O23  1  0.31113400  0.27343400  0.93996500  1
  O  O24  1  0.81187300  0.29942100  0.76732600  1
  O  O25  1  0.57604900  0.20966800  0.92947400  1
  O  O26  1  0.58763600  0.52456100  0.22980300  1
  O  O27  1  0.08763600  0.47543900  0.27019700  1
  O  O28  1  0.91657900  0.10795700  0.97047600  1
  O  O29  1  0.17848700  0.49533200  0.02029400  1
  O  O30  1  0.32724700  0.38899000  0.23301200  1
  O  O31  1  0.48335200  0.33760000  0.33673900  1
  O  O32  1  0.18886600  0.27343400  0.43996500  1
  O  O33  1  0.68812700  0.29942100  0.26732600  1
  O  O34  1  0.92395100  0.20966800  0.42947400  1
  O  O35  1  0.33393200  0.08913300  0.63326600  1
  O  O36  1  0.58342100  0.10795700  0.47047600  1
  O  O37  1  0.69074700  0.00898800  0.67031700  1
  O  O38  1  0.16606800  0.08913300  0.13326600  1
  O  O39  1  0.80925300  0.00898800  0.17031700  1
loop_
_geom_bond_atom_site_label_1
_geom_bond_atom_site_label_2
_geom_bond_distance
_geom_bond_site_symmetry_2
Ca0 O5 2.381174 1_555
Ca0 O18 2.487593 1_555
Ca0 O38 2.507807 1_565
Ca0 O15 2.553650 1_555
Ca0 O6 2.581742 1_555
Ca0 O0 2.627802 1_555
Ca0 O2 2.659888 1_555
Ca0 O32 2.737276 1_565
Ca0 O29 2.797696 1_556
Ca1 O14 2.381174 1_555
Ca1 O30 2.487593 1_555
Ca1 O35 2.507807 1_564
Ca1 O6 2.553650 1_554
Ca1 O15 2.581742 1_555
Ca1 O2 2.627802 1_555
Ca1 O0 2.659888 1_554
Ca1 O23 2.737276 1_564
Ca1 O17 2.797696 1_555
Ca2 O25 2.381174 1_555
Ca2 O9 2.487593 1_555
Ca2 O4 2.507807 1_546
Ca2 O33 2.553650 1_556
Ca2 O24 2.581742 1_555
Ca2 O37 2.627802 1_555
Ca2 O39 2.659888 1_556
Ca2 O16 2.737276 1_546
Ca2 O22 2.797696 1_555
Ca3 O34 2.381174 1_555
Ca3 O21 2.487593 1_555
Ca3 O1 2.507807 1_545
Ca3 O24 2.553650 1_555
Ca3 O33 2.581742 1_555
Ca3 O39 2.627802 1_555
Ca3 O37 2.659888 1_555
Ca3 O7 2.737276 1_545
Ca3 O10 2.797696 1_554
B0 O6 1.459683 1_555
B0 O3 1.465215 1_555
B0 O35 1.484871 1_565
B0 O2 1.519257 1_555
B1 O16 1.355346 1_556
B1 O37 1.381233 1_565
B1 O9 1.394011 1_555
B2 O13 1.361393 1_555
B2 O8 1.384733 1_555
B2 O3 1.386683 1_555
B3 O22 1.346682 1_555
B3 O4 1.364535 1_555
B3 O9 1.419118 1_555
B4 O15 1.459683 1_555
B4 O11 1.465215 1_555
B4 O38 1.484871 1_565
B4 O0 1.519257 1_554
B5 O7 1.355346 1_555
B5 O39 1.381233 1_565
B5 O21 1.394011 1_555
B6 O12 1.460169 1_555
B6 O7 1.481179 1_555
B6 O24 1.489762 1_555
B6 O10 1.493917 1_555
B7 O13 1.460169 1_555
B7 O23 1.481179 1_555
B7 O6 1.489762 1_555
B7 O17 1.493917 1_555
B8 O29 1.346682 1_556
B8 O38 1.364535 1_556
B8 O18 1.419118 1_555
B9 O27 1.361393 1_555
B9 O20 1.384733 1_455
B9 O11 1.386683 1_555
B10 O12 1.361393 1_555
B10 O19 1.384733 1_655
B10 O28 1.386683 1_555
B11 O10 1.346682 1_554
B11 O1 1.364535 1_554
B11 O21 1.419118 1_555
B12 O26 1.460169 1_555
B12 O16 1.481179 1_555
B12 O33 1.489762 1_555
B12 O22 1.493917 1_555
B13 O27 1.460169 1_555
B13 O32 1.481179 1_555
B13 O15 1.489762 1_555
B13 O29 1.493917 1_555
B14 O32 1.355346 1_555
B14 O0 1.381233 1_545
B14 O18 1.394011 1_555
B15 O24 1.459683 1_555
B15 O28 1.465215 1_555
B15 O1 1.484871 1_545
B15 O39 1.519257 1_556
B16 O17 1.346682 1_555
B16 O35 1.364535 1_555
B16 O30 1.419118 1_555
B17 O26 1.361393 1_555
B17 O31 1.384733 1_555
B17 O36 1.386683 1_555
B18 O23 1.355346 1_554
B18 O2 1.381233 1_545
B18 O30 1.394011 1_555
B19 O33 1.459683 1_555
B19 O36 1.465215 1_555
B19 O4 1.484871 1_545
B19 O37 1.519257 1_555
H0 O5 0.969195 1_555
H1 O8 0.986871 1_555
H2 O5 0.990971 1_555
H3 O14 0.969195 1_555
H4 O20 0.986871 1_555
H5 O25 0.990971 1_555
H6 O14 0.990971 1_555
H7 O19 0.986871 1_555
H8 O25 0.969195 1_555
H9 O34 0.990971 1_555
H10 O31 0.986871 1_555
H11 O34 0.969195 1_555
