# generated using pymatgen
data_Li9Cr4(BO3)8
_symmetry_space_group_name_H-M   'P 1'
_cell_length_a   6.03887800
_cell_length_b   8.94389014
_cell_length_c   9.46049152
_cell_angle_alpha   65.62891850
_cell_angle_beta   88.99489582
_cell_angle_gamma   89.37733692
_symmetry_Int_Tables_number   1
_chemical_formula_structural   Li9Cr4(BO3)8
_chemical_formula_sum   'Li9 Cr4 B8 O24'
_cell_volume   465.36428412
_cell_formula_units_Z   1
loop_
 _symmetry_equiv_pos_site_id
 _symmetry_equiv_pos_as_xyz
  1  'x, y, z'
loop_
 _atom_site_type_symbol
 _atom_site_label
 _atom_site_symmetry_multiplicity
 _atom_site_fract_x
 _atom_site_fract_y
 _atom_site_fract_z
 _atom_site_occupancy
  Li  Li0  1  0.25137200  0.14636700  0.08608700  1
  Li  Li1  1  0.21928200  0.12753800  0.57384000  1
  Li  Li2  1  0.42892800  0.30228000  0.67320700  1
  Li  Li3  1  0.76157300  0.38322800  0.48630200  1
  Li  Li4  1  0.25501900  0.60374700  0.01107600  1
  Li  Li5  1  0.77445400  0.37889300  0.99744900  1
  Li  Li6  1  0.54758900  0.70550800  0.34085200  1
  Li  Li7  1  0.79215000  0.86833100  0.42666600  1
  Li  Li8  1  0.91917100  0.72453100  0.83706000  1
  Cr  Cr0  1  0.53334900  0.23035800  0.28222900  1
  Cr  Cr1  1  0.96726100  0.23007500  0.78049600  1
  Cr  Cr2  1  0.04600800  0.76133600  0.22354300  1
  Cr  Cr3  1  0.46575100  0.76165600  0.72099200  1
  B  B0  1  0.71625300  0.05153200  0.08020700  1
  B  B1  1  0.78407200  0.05325400  0.57675400  1
  B  B2  1  0.33686300  0.45116500  0.31339900  1
  B  B3  1  0.84134800  0.54385200  0.18959200  1
  B  B4  1  0.15381800  0.45585300  0.80309100  1
  B  B5  1  0.67377700  0.54732000  0.68753100  1
  B  B6  1  0.22302200  0.94102500  0.42475900  1
  B  B7  1  0.27734200  0.94610400  0.91833200  1
  O  O0  1  0.59890900  0.17647600  0.09841400  1
  O  O1  1  0.28755100  0.08969200  0.30809800  1
  O  O2  1  0.72808100  0.08468900  0.42214800  1
  O  O3  1  0.90152000  0.17340500  0.59866100  1
  O  O4  1  0.24242700  0.10135300  0.79768800  1
  O  O5  1  0.76850200  0.40099800  0.19043800  1
  O  O6  1  0.77902400  0.08624900  0.92616800  1
  O  O7  1  0.33418500  0.41504800  0.18487000  1
  O  O8  1  0.43142100  0.32191600  0.44247600  1
  O  O9  1  0.96363500  0.66285800  0.07146200  1
  O  O10  1  0.71446500  0.39599900  0.68517600  1
  O  O11  1  0.81876300  0.58559900  0.31678600  1
  O  O12  1  0.15646600  0.42149200  0.67220100  1
  O  O13  1  0.28297100  0.60243200  0.30756500  1
  O  O14  1  0.06145700  0.32141200  0.92971300  1
  O  O15  1  0.59223600  0.68063700  0.56037100  1
  O  O16  1  0.68598500  0.57280100  0.82245500  1
  O  O17  1  0.20349400  0.93102100  0.06714900  1
  O  O18  1  0.21411200  0.59682500  0.81141400  1
  O  O19  1  0.76271000  0.90237100  0.19824300  1
  O  O20  1  0.10376800  0.83172400  0.38825200  1
  O  O21  1  0.26522100  0.91927900  0.57375700  1
  O  O22  1  0.73414300  0.90367100  0.68743800  1
  O  O23  1  0.37229800  0.81968100  0.89778900  1
loop_
_geom_bond_atom_site_label_1
_geom_bond_atom_site_label_2
_geom_bond_distance
_geom_bond_site_symmetry_2
Li0 O1 1.962428 1_555
Li0 O14 2.015931 1_554
Li0 O17 2.030762 1_545
Li0 O0 2.130162 1_555
Li1 O21 1.880526 1_545
Li1 O3 1.988036 1_455
Li1 O4 2.039473 1_555
Li1 O8 2.101781 1_555
Li2 O12 1.948893 1_555
Li2 O10 1.950720 1_555
Li2 O4 2.033631 1_555
Li2 O8 2.116208 1_555
Li3 O11 1.888330 1_555
Li3 O3 1.927861 1_555
Li3 O10 1.947226 1_555
Li3 O8 2.165190 1_555
Li4 O7 1.870875 1_555
Li4 O23 1.917026 1_554
Li4 O18 1.935463 1_554
Li4 O9 1.973815 1_455
Li5 O5 1.915531 1_556
Li5 O16 1.917112 1_555
Li5 O14 1.972918 1_655
Li5 O0 1.973007 1_556
Li6 O13 1.947288 1_555
Li6 O11 2.008468 1_555
Li6 O15 2.017966 1_555
Li6 O19 2.153079 1_555
Li7 O2 1.952463 1_565
Li7 O20 1.959933 1_655
Li7 O15 2.028198 1_555
Li7 O19 2.064830 1_555
Li8 O22 1.991002 1_555
Li8 O16 2.011660 1_555
Li8 O9 2.074151 1_556
Li8 O18 2.169136 1_655
Cr0 O2 1.852166 1_555
Cr0 O1 1.902558 1_555
Cr0 O7 1.939988 1_555
Cr0 O5 2.002493 1_555
Cr0 O0 2.019000 1_555
Cr0 O8 2.080531 1_555
Cr1 O6 1.833008 1_555
Cr1 O12 1.959600 1_655
Cr1 O4 1.981535 1_655
Cr1 O14 1.993418 1_655
Cr1 O3 2.030190 1_555
Cr1 O10 2.059275 1_555
Cr2 O17 1.877681 1_555
Cr2 O13 1.939797 1_555
Cr2 O20 1.944091 1_555
Cr2 O11 1.997994 1_455
Cr2 O9 2.042965 1_455
Cr2 O19 2.072091 1_455
Cr3 O21 1.948224 1_555
Cr3 O22 2.008725 1_555
Cr3 O23 2.015503 1_555
Cr3 O18 2.043690 1_555
Cr3 O16 2.049666 1_555
Cr3 O15 2.067254 1_555
B0 O19 1.370707 1_545
B0 O0 1.384903 1_555
B0 O6 1.404821 1_554
B1 O22 1.348621 1_545
B1 O3 1.380697 1_555
B1 O2 1.417257 1_555
B2 O13 1.367032 1_555
B2 O7 1.381340 1_555
B2 O8 1.413742 1_555
B3 O5 1.352656 1_555
B3 O9 1.390554 1_555
B3 O11 1.403539 1_555
B4 O18 1.349594 1_555
B4 O12 1.393310 1_555
B4 O14 1.412195 1_555
B5 O10 1.382036 1_555
B5 O16 1.389401 1_555
B5 O15 1.391271 1_555
B6 O21 1.369303 1_555
B6 O20 1.377040 1_555
B6 O1 1.386721 1_565
B7 O23 1.344789 1_555
B7 O4 1.403323 1_565
B7 O17 1.421882 1_556
