# generated using pymatgen
data_LiMn2PO5
_symmetry_space_group_name_H-M   'P 1'
_cell_length_a   6.45592200
_cell_length_b   7.82908000
_cell_length_c   8.64602600
_cell_angle_alpha   90.00000000
_cell_angle_beta   90.00000000
_cell_angle_gamma   90.00000000
_symmetry_Int_Tables_number   1
_chemical_formula_structural   LiMn2PO5
_chemical_formula_sum   'Li4 Mn8 P4 O20'
_cell_volume   437.00413129
_cell_formula_units_Z   4
loop_
 _symmetry_equiv_pos_site_id
 _symmetry_equiv_pos_as_xyz
  1  'x, y, z'
loop_
 _atom_site_type_symbol
 _atom_site_label
 _atom_site_symmetry_multiplicity
 _atom_site_fract_x
 _atom_site_fract_y
 _atom_site_fract_z
 _atom_site_occupancy
  Li  Li0  1  0.54185800  0.65982100  0.61342600  1
  Li  Li1  1  0.54185800  0.84017900  0.11342600  1
  Li  Li2  1  0.04185800  0.15982100  0.88657400  1
  Li  Li3  1  0.04185800  0.34017900  0.38657400  1
  Mn  Mn0  1  0.98016500  0.51080900  0.00225500  1
  Mn  Mn1  1  0.48016500  0.48919100  0.99774500  1
  Mn  Mn2  1  0.75023800  0.62493600  0.33402000  1
  Mn  Mn3  1  0.75023800  0.87506400  0.83402000  1
  Mn  Mn4  1  0.48016500  0.01080900  0.49774500  1
  Mn  Mn5  1  0.98016500  0.98919100  0.50225500  1
  Mn  Mn6  1  0.25023800  0.12493600  0.16598000  1
  Mn  Mn7  1  0.25023800  0.37506400  0.66598000  1
  P  P0  1  0.25404200  0.66103700  0.34260800  1
  P  P1  1  0.25404200  0.83896300  0.84260800  1
  P  P2  1  0.75404200  0.16103700  0.15739200  1
  P  P3  1  0.75404200  0.33896300  0.65739200  1
  O  O0  1  0.29481700  0.57076300  0.49838000  1
  O  O1  1  0.44498600  0.63702900  0.23374600  1
  O  O2  1  0.06117200  0.57745800  0.26345600  1
  O  O3  1  0.72199800  0.67867500  0.98827700  1
  O  O4  1  0.22305700  0.64499400  0.86953100  1
  O  O5  1  0.22305700  0.85500600  0.36953100  1
  O  O6  1  0.72199800  0.82132500  0.48827700  1
  O  O7  1  0.44498600  0.86297100  0.73374600  1
  O  O8  1  0.06117200  0.92254200  0.76345600  1
  O  O9  1  0.29481700  0.92923700  0.99838000  1
  O  O10  1  0.79481700  0.07076300  0.00162000  1
  O  O11  1  0.94498600  0.13702900  0.26625400  1
  O  O12  1  0.56117200  0.07745800  0.23654400  1
  O  O13  1  0.22199800  0.17867500  0.51172300  1
  O  O14  1  0.72305700  0.14499400  0.63046900  1
  O  O15  1  0.72305700  0.35500600  0.13046900  1
  O  O16  1  0.22199800  0.32132500  0.01172300  1
  O  O17  1  0.94498600  0.36297100  0.76625400  1
  O  O18  1  0.56117200  0.42254200  0.73654400  1
  O  O19  1  0.79481700  0.42923700  0.50162000  1
loop_
_geom_bond_atom_site_label_1
_geom_bond_atom_site_label_2
_geom_bond_distance
_geom_bond_site_symmetry_2
Li0 O7 2.000736 1_555
Li0 O0 2.004792 1_555
Li0 O6 2.030293 1_555
Li0 O18 2.144675 1_555
Li1 O1 2.000736 1_555
Li1 O9 2.004792 1_554
Li1 O3 2.030293 1_554
Li1 O12 2.144675 1_565
Li2 O17 2.000736 1_455
Li2 O10 2.004792 1_456
Li2 O16 2.030293 1_556
Li2 O8 2.144675 1_545
Li3 O11 2.000736 1_455
Li3 O19 2.004792 1_455
Li3 O13 2.030293 1_555
Li3 O2 2.144675 1_555
Mn0 O3 2.125966 1_554
Mn0 O16 2.155214 1_655
Mn0 O4 2.208935 1_654
Mn0 O15 2.339215 1_555
Mn0 O17 2.356853 1_554
Mn0 O2 2.376116 1_655
Mn1 O16 2.125966 1_556
Mn1 O3 2.155214 1_555
Mn1 O15 2.208935 1_556
Mn1 O4 2.339215 1_555
Mn1 O1 2.356853 1_556
Mn1 O18 2.376116 1_555
Mn2 O6 2.043543 1_555
Mn2 O19 2.128405 1_555
Mn2 O2 2.130705 1_655
Mn2 O1 2.155040 1_555
Mn2 O15 2.755743 1_555
Mn3 O3 2.043543 1_555
Mn3 O10 2.128405 1_566
Mn3 O8 2.130705 1_655
Mn3 O7 2.155040 1_555
Mn3 O14 2.755743 1_565
Mn4 O13 2.125966 1_555
Mn4 O6 2.155214 1_545
Mn4 O14 2.208935 1_555
Mn4 O5 2.339215 1_545
Mn4 O7 2.356853 1_545
Mn4 O12 2.376116 1_555
Mn5 O6 2.125966 1_555
Mn5 O13 2.155214 1_665
Mn5 O5 2.208935 1_655
Mn5 O14 2.339215 1_565
Mn5 O11 2.356853 1_565
Mn5 O8 2.376116 1_655
Mn6 O16 2.043543 1_555
Mn6 O9 2.128405 1_544
Mn6 O12 2.130705 1_555
Mn6 O11 2.155040 1_455
Mn6 O5 2.755743 1_545
Mn7 O13 2.043543 1_555
Mn7 O0 2.128405 1_555
Mn7 O18 2.130705 1_555
Mn7 O17 2.155040 1_455
Mn7 O4 2.755743 1_555
O0 P0 1.543600 1_555
O1 P0 1.562315 1_555
O2 P0 1.564261 1_555
O4 P1 1.549304 1_555
O5 P0 1.549304 1_555
O7 P1 1.562315 1_555
O8 P1 1.564261 1_555
O9 P1 1.543600 1_555
O10 P2 1.543600 1_555
O11 P2 1.562315 1_555
O12 P2 1.564261 1_555
O14 P3 1.549304 1_555
O15 P2 1.549304 1_555
O17 P3 1.562315 1_555
O18 P3 1.564261 1_555
O19 P3 1.543600 1_555
