# generated using pymatgen
data_Ag3IrO4
_symmetry_space_group_name_H-M   'P 1'
_cell_length_a   7.42162900
_cell_length_b   7.42162900
_cell_length_c   8.26871400
_cell_angle_alpha   90.00000000
_cell_angle_beta   90.00000000
_cell_angle_gamma   90.00000000
_symmetry_Int_Tables_number   1
_chemical_formula_structural   Ag3IrO4
_chemical_formula_sum   'Ag12 Ir4 O16'
_cell_volume   455.44553828
_cell_formula_units_Z   4
loop_
 _symmetry_equiv_pos_site_id
 _symmetry_equiv_pos_as_xyz
  1  'x, y, z'
loop_
 _atom_site_type_symbol
 _atom_site_label
 _atom_site_symmetry_multiplicity
 _atom_site_fract_x
 _atom_site_fract_y
 _atom_site_fract_z
 _atom_site_occupancy
  Ag  Ag0  1  0.00000000  0.17928800  0.00000000  1
  Ag  Ag1  1  0.00000000  0.75635200  0.00000000  1
  Ag  Ag2  1  0.00000000  0.24364800  0.50000000  1
  Ag  Ag3  1  0.00000000  0.82071200  0.50000000  1
  Ag  Ag4  1  0.19950900  0.50000000  0.25000000  1
  Ag  Ag5  1  0.17928800  0.00000000  0.75000000  1
  Ag  Ag6  1  0.24364800  0.00000000  0.25000000  1
  Ag  Ag7  1  0.50000000  0.19950900  0.50000000  1
  Ag  Ag8  1  0.50000000  0.80049100  0.00000000  1
  Ag  Ag9  1  0.75635200  0.00000000  0.75000000  1
  Ag  Ag10  1  0.82071200  0.00000000  0.25000000  1
  Ag  Ag11  1  0.80049100  0.50000000  0.75000000  1
  Ir  Ir0  1  0.27854400  0.50000000  0.75000000  1
  Ir  Ir1  1  0.50000000  0.27854400  0.00000000  1
  Ir  Ir2  1  0.50000000  0.72145600  0.50000000  1
  Ir  Ir3  1  0.72145600  0.50000000  0.25000000  1
  O  O0  1  0.08904200  0.31655100  0.74199100  1
  O  O1  1  0.08904200  0.68344900  0.75800900  1
  O  O2  1  0.31205500  0.47381000  0.98740800  1
  O  O3  1  0.31205500  0.52619000  0.51259200  1
  O  O4  1  0.31655100  0.08904200  0.00800900  1
  O  O5  1  0.31655100  0.91095800  0.49199100  1
  O  O6  1  0.47381000  0.31205500  0.76259200  1
  O  O7  1  0.47381000  0.68794500  0.73740800  1
  O  O8  1  0.52619000  0.31205500  0.23740800  1
  O  O9  1  0.52619000  0.68794500  0.26259200  1
  O  O10  1  0.68344900  0.91095800  0.50800900  1
  O  O11  1  0.68344900  0.08904200  0.99199100  1
  O  O12  1  0.68794500  0.47381000  0.01259200  1
  O  O13  1  0.68794500  0.52619000  0.48740800  1
  O  O14  1  0.91095800  0.31655100  0.25800900  1
  O  O15  1  0.91095800  0.68344900  0.24199100  1
loop_
_geom_bond_atom_site_label_1
_geom_bond_atom_site_label_2
_geom_bond_distance
_geom_bond_site_symmetry_2
Ag0 O4 2.443830 1_555
Ag0 O11 2.443830 1_454
Ag0 O14 2.454769 1_455
Ag0 O0 2.454769 1_554
Ag1 O15 2.175608 1_455
Ag1 O1 2.175608 1_554
Ag2 O0 2.175608 1_555
Ag2 O14 2.175608 1_455
Ag3 O10 2.443830 1_455
Ag3 O5 2.443830 1_555
Ag3 O15 2.454769 1_455
Ag3 O1 2.454769 1_555
Ag4 O2 2.334524 1_554
Ag4 O3 2.334524 1_555
Ag4 O15 2.538532 1_455
Ag4 O14 2.538532 1_455
Ag5 O1 2.443830 1_545
Ag5 O0 2.443830 1_555
Ag5 O4 2.454769 1_556
Ag5 O5 2.454769 1_545
Ag6 O4 2.175608 1_555
Ag6 O5 2.175608 1_545
Ag7 O8 2.334524 1_555
Ag7 O6 2.334524 1_555
Ag7 O5 2.538532 1_545
Ag7 O10 2.538532 1_545
Ag8 O9 2.334524 1_555
Ag8 O7 2.334524 1_554
Ag8 O11 2.538532 1_564
Ag8 O4 2.538532 1_565
Ag9 O10 2.175608 1_545
Ag9 O11 2.175608 1_555
Ag10 O14 2.443830 1_555
Ag10 O15 2.443830 1_545
Ag10 O10 2.454769 1_545
Ag10 O11 2.454769 1_554
Ag11 O12 2.334524 1_556
Ag11 O13 2.334524 1_555
Ag11 O0 2.538532 1_655
Ag11 O1 2.538532 1_655
Ir0 O1 1.958581 1_555
Ir0 O0 1.958581 1_555
Ir0 O2 1.988275 1_555
Ir0 O3 1.988275 1_555
Ir0 O6 2.014107 1_555
Ir0 O7 2.014107 1_555
Ir1 O11 1.958581 1_554
Ir1 O4 1.958581 1_555
Ir1 O6 1.988275 1_554
Ir1 O8 1.988275 1_555
Ir1 O2 2.014107 1_554
Ir1 O12 2.014107 1_555
Ir2 O5 1.958581 1_555
Ir2 O10 1.958581 1_555
Ir2 O7 1.988275 1_555
Ir2 O9 1.988275 1_555
Ir2 O3 2.014107 1_555
Ir2 O13 2.014107 1_555
Ir3 O14 1.958581 1_555
Ir3 O15 1.958581 1_555
Ir3 O13 1.988275 1_555
Ir3 O12 1.988275 1_555
Ir3 O8 2.014107 1_555
Ir3 O9 2.014107 1_555
