# generated using pymatgen
data_Li7Ti11O24
_symmetry_space_group_name_H-M   'P 1'
_cell_length_a   8.86977500
_cell_length_b   5.08480200
_cell_length_c   9.73636228
_cell_angle_alpha   89.69133898
_cell_angle_beta   90.00000000
_cell_angle_gamma   90.00000000
_symmetry_Int_Tables_number   1
_chemical_formula_structural   Li7Ti11O24
_chemical_formula_sum   'Li7 Ti11 O24'
_cell_volume   439.11378682
_cell_formula_units_Z   1
loop_
 _symmetry_equiv_pos_site_id
 _symmetry_equiv_pos_as_xyz
  1  'x, y, z'
loop_
 _atom_site_type_symbol
 _atom_site_label
 _atom_site_symmetry_multiplicity
 _atom_site_fract_x
 _atom_site_fract_y
 _atom_site_fract_z
 _atom_site_occupancy
  Li  Li0  1  0.50000000  0.52589300  0.64973700  1
  Li  Li1  1  0.33230700  0.43808400  0.03453300  1
  Li  Li2  1  0.66769300  0.43808400  0.03453300  1
  Li  Li3  1  0.00000000  0.44152600  0.03741500  1
  Li  Li4  1  0.33995700  0.06497400  0.54107000  1
  Li  Li5  1  0.00000000  0.05765900  0.53781100  1
  Li  Li6  1  0.66004300  0.06497400  0.54107000  1
  Ti  Ti0  1  0.17034500  0.97755400  0.14315700  1
  Ti  Ti1  1  0.82965500  0.97755400  0.14315700  1
  Ti  Ti2  1  0.50000000  0.98227900  0.14308700  1
  Ti  Ti3  1  0.17592100  0.52262800  0.64268600  1
  Ti  Ti4  1  0.82407900  0.52262800  0.64268600  1
  Ti  Ti5  1  0.33748400  0.48736900  0.36890400  1
  Ti  Ti6  1  0.66251600  0.48736900  0.36890400  1
  Ti  Ti7  1  0.00000000  0.48272700  0.36102100  1
  Ti  Ti8  1  0.33442100  0.01477600  0.85534200  1
  Ti  Ti9  1  0.00000000  0.02590000  0.86132500  1
  Ti  Ti10  1  0.66557900  0.01477600  0.85534200  1
  O  O0  1  0.16433400  0.80177900  0.77727800  1
  O  O1  1  0.50000000  0.83229600  0.77856300  1
  O  O2  1  0.83566600  0.80177900  0.77727800  1
  O  O3  1  0.33103600  0.80517300  0.03496600  1
  O  O4  1  0.00000000  0.80981900  0.03599900  1
  O  O5  1  0.66896400  0.80517300  0.03496600  1
  O  O6  1  0.32228500  0.69751300  0.53073500  1
  O  O7  1  0.00000000  0.68587100  0.53596500  1
  O  O8  1  0.67771500  0.69751300  0.53073500  1
  O  O9  1  0.83667300  0.68898900  0.27415000  1
  O  O10  1  0.50000000  0.69140800  0.27390100  1
  O  O11  1  0.16332700  0.68898900  0.27415000  1
  O  O12  1  0.31822500  0.28289000  0.71685400  1
  O  O13  1  0.68177500  0.28289000  0.71685400  1
  O  O14  1  0.00000000  0.29440100  0.71406800  1
  O  O15  1  0.16736600  0.28475400  0.46553100  1
  O  O16  1  0.83263400  0.28475400  0.46553100  1
  O  O17  1  0.50000000  0.27683200  0.45172900  1
  O  O18  1  0.16535100  0.21356300  0.96771300  1
  O  O19  1  0.83464900  0.21356300  0.96771300  1
  O  O20  1  0.50000000  0.20949600  0.96584800  1
  O  O21  1  0.33045900  0.21077100  0.21216400  1
  O  O22  1  0.00000000  0.20225600  0.21824200  1
  O  O23  1  0.66954100  0.21077100  0.21216400  1
loop_
_geom_bond_atom_site_label_1
_geom_bond_atom_site_label_2
_geom_bond_distance
_geom_bond_site_symmetry_2
Li0 O1 2.005411 1_555
Li0 O12 2.131810 1_555
Li0 O13 2.131810 1_555
Li0 O8 2.139577 1_555
Li0 O6 2.139577 1_555
Li0 O17 2.312326 1_555
Li1 O3 1.866636 1_555
Li1 O18 1.981809 1_554
Li1 O20 2.004731 1_554
Li1 O21 2.075042 1_555
Li2 O5 1.866636 1_555
Li2 O19 1.981809 1_554
Li2 O20 2.004731 1_554
Li2 O23 2.075042 1_555
Li3 O4 1.872673 1_555
Li3 O18 1.990891 1_554
Li3 O19 1.990891 1_454
Li3 O22 2.134675 1_555
Li4 O6 1.878267 1_545
Li4 O17 1.980440 1_555
Li4 O15 2.030872 1_555
Li4 O12 2.052950 1_555
Li5 O7 1.890651 1_545
Li5 O15 2.005903 1_555
Li5 O16 2.005903 1_455
Li5 O14 2.101515 1_555
Li6 O8 1.878267 1_545
Li6 O17 1.980440 1_555
Li6 O16 2.030872 1_555
Li6 O13 2.052950 1_555
O0 Ti3 1.939748 1_555
O0 Ti8 2.008862 1_565
O0 Ti9 2.025589 1_565
O1 Ti8 1.893193 1_565
O1 Ti10 1.893193 1_565
O2 Ti4 1.939748 1_555
O2 Ti10 2.008862 1_565
O2 Ti9 2.025589 1_665
O3 Ti0 1.979729 1_555
O3 Ti8 2.043361 1_564
O3 Ti2 2.043382 1_555
O4 Ti9 2.019757 1_564
O4 Ti1 2.026930 1_455
O4 Ti0 2.026930 1_555
O5 Ti1 1.979729 1_555
O5 Ti10 2.043361 1_564
O5 Ti2 2.043382 1_555
O6 Ti3 1.911488 1_555
O6 Ti5 1.913309 1_555
O7 Ti7 1.996805 1_555
O7 Ti4 2.047966 1_455
O7 Ti3 2.047966 1_555
O8 Ti4 1.911488 1_555
O8 Ti6 1.913309 1_555
O9 Ti1 1.939923 1_555
O9 Ti7 1.975974 1_655
O9 Ti6 2.068371 1_555
O10 Ti2 1.946638 1_555
O10 Ti6 1.999881 1_555
O10 Ti5 1.999881 1_555
O11 Ti0 1.939923 1_555
O11 Ti7 1.975974 1_555
O11 Ti5 2.068371 1_555
O12 Ti3 1.895034 1_555
O12 Ti8 1.917690 1_555
O13 Ti4 1.895034 1_555
O13 Ti10 1.917690 1_555
O14 Ti9 1.974466 1_555
O14 Ti3 2.062973 1_555
O14 Ti4 2.062973 1_455
O15 Ti5 2.052532 1_555
O15 Ti7 2.059479 1_555
O15 Ti3 2.113367 1_555
O16 Ti6 2.052532 1_555
O16 Ti7 2.059479 1_655
O16 Ti4 2.113367 1_555
O17 Ti6 1.965940 1_555
O17 Ti5 1.965940 1_555
O18 Ti9 2.035963 1_555
O18 Ti0 2.082767 1_546
O18 Ti8 2.116477 1_555
O19 Ti9 2.035963 1_655
O19 Ti1 2.082767 1_546
O19 Ti10 2.116477 1_555
O20 Ti2 2.071539 1_546
O20 Ti10 2.075174 1_555
O20 Ti8 2.075174 1_555
O21 Ti0 1.970576 1_545
O21 Ti2 2.017921 1_545
O21 Ti5 2.081829 1_555
O22 Ti7 1.996934 1_555
O22 Ti1 2.032678 1_445
O22 Ti0 2.032678 1_545
O23 Ti1 1.970576 1_545
O23 Ti2 2.017921 1_545
O23 Ti6 2.081829 1_555
