# generated using pymatgen
data_LiCrAsCO7
_symmetry_space_group_name_H-M   'P 1'
_cell_length_a   6.45871400
_cell_length_b   5.17348200
_cell_length_c   8.84790714
_cell_angle_alpha   86.12954482
_cell_angle_beta   90.00000000
_cell_angle_gamma   90.00000000
_symmetry_Int_Tables_number   1
_chemical_formula_structural   LiCrAsCO7
_chemical_formula_sum   'Li2 Cr2 As2 C2 O14'
_cell_volume   294.97002858
_cell_formula_units_Z   2
loop_
 _symmetry_equiv_pos_site_id
 _symmetry_equiv_pos_as_xyz
  1  'x, y, z'
loop_
 _atom_site_type_symbol
 _atom_site_label
 _atom_site_symmetry_multiplicity
 _atom_site_fract_x
 _atom_site_fract_y
 _atom_site_fract_z
 _atom_site_occupancy
  Li  Li0  1  0.49575700  0.78229900  0.79751200  1
  Li  Li1  1  0.99575700  0.21770100  0.20248800  1
  Cr  Cr0  1  0.24320600  0.20005700  0.67222300  1
  Cr  Cr1  1  0.74320600  0.79994300  0.32777700  1
  As  As0  1  0.75016200  0.28190100  0.57188000  1
  As  As1  1  0.25016200  0.71809900  0.42812000  1
  C  C0  1  0.25381500  0.27144000  0.93642300  1
  C  C1  1  0.75381500  0.72856000  0.06357700  1
  O  O0  1  0.72136700  0.67554600  0.93240400  1
  O  O1  1  0.25469400  0.03879300  0.88351800  1
  O  O2  1  0.28302600  0.45324300  0.82053900  1
  O  O3  1  0.95638200  0.20112300  0.69011200  1
  O  O4  1  0.54971200  0.16573000  0.68189600  1
  O  O5  1  0.26425800  0.86040200  0.59799700  1
  O  O6  1  0.72985600  0.60917000  0.52985700  1
  O  O7  1  0.22985600  0.39083000  0.47014300  1
  O  O8  1  0.76425800  0.13959800  0.40200300  1
  O  O9  1  0.04971200  0.83427000  0.31810400  1
  O  O10  1  0.45638200  0.79887700  0.30988800  1
  O  O11  1  0.78302600  0.54675700  0.17946100  1
  O  O12  1  0.75469400  0.96120700  0.11648200  1
  O  O13  1  0.22136700  0.32445400  0.06759600  1
loop_
_geom_bond_atom_site_label_1
_geom_bond_atom_site_label_2
_geom_bond_distance
_geom_bond_site_symmetry_2
Li0 O0 1.940049 1_555
Li0 O2 2.186441 1_555
Li0 O4 2.197475 1_565
Li0 O1 2.213676 1_565
Li0 O5 2.327832 1_555
Li1 O13 1.940049 1_655
Li1 O11 2.186441 1_555
Li1 O9 2.197475 1_645
Li1 O12 2.213676 1_545
Li1 O8 2.327832 1_555
Cr0 O3 1.859304 1_455
Cr0 O5 1.921808 1_545
Cr0 O2 1.932876 1_555
Cr0 O7 1.984989 1_555
Cr0 O4 1.988910 1_555
Cr0 O1 1.996519 1_555
Cr1 O10 1.859304 1_555
Cr1 O8 1.921808 1_565
Cr1 O11 1.932876 1_555
Cr1 O6 1.984989 1_555
Cr1 O9 1.988910 1_655
Cr1 O12 1.996519 1_555
As0 O4 1.704664 1_555
As0 O6 1.713802 1_555
As0 O8 1.720130 1_555
As0 O3 1.727415 1_555
As1 O9 1.704664 1_555
As1 O7 1.713802 1_555
As1 O5 1.720130 1_555
As1 O10 1.727415 1_555
C0 O13 1.228464 1_556
C0 O1 1.320549 1_555
C0 O2 1.356963 1_555
C1 O0 1.228464 1_554
C1 O12 1.320549 1_555
C1 O11 1.356963 1_555
