# generated using pymatgen
data_Li3Mn2Cr2O8
_symmetry_space_group_name_H-M   'P 1'
_cell_length_a   6.00939000
_cell_length_b   10.22519502
_cell_length_c   10.26010924
_cell_angle_alpha   108.31073016
_cell_angle_beta   90.24057341
_cell_angle_gamma   90.73835143
_symmetry_Int_Tables_number   1
_chemical_formula_structural   Li3Mn2Cr2O8
_chemical_formula_sum   'Li12 Mn8 Cr8 O32'
_cell_volume   598.46050783
_cell_formula_units_Z   4
loop_
 _symmetry_equiv_pos_site_id
 _symmetry_equiv_pos_as_xyz
  1  'x, y, z'
loop_
 _atom_site_type_symbol
 _atom_site_label
 _atom_site_symmetry_multiplicity
 _atom_site_fract_x
 _atom_site_fract_y
 _atom_site_fract_z
 _atom_site_occupancy
  Li  Li0  1  0.75177300  0.00138100  0.75642600  1
  Li  Li1  1  0.75110100  0.49321800  0.24477900  1
  Li  Li2  1  0.01044700  0.25685800  0.25074900  1
  Li  Li3  1  0.98955300  0.74314200  0.74925100  1
  Li  Li4  1  0.25600900  0.75342100  0.00565400  1
  Li  Li5  1  0.24822700  0.99861900  0.24357400  1
  Li  Li6  1  0.25249000  0.25147200  0.49741100  1
  Li  Li7  1  0.24889900  0.50678200  0.75522100  1
  Li  Li8  1  0.49737800  0.24951100  0.75376300  1
  Li  Li9  1  0.50262200  0.75048900  0.24623700  1
  Li  Li10  1  0.74399100  0.24657900  0.99434600  1
  Li  Li11  1  0.74751000  0.74852800  0.50258900  1
  Mn  Mn0  1  0.74997500  0.25025900  0.49908900  1
  Mn  Mn1  1  0.75422600  0.74961100  0.99802200  1
  Mn  Mn2  1  0.00000000  0.00000000  0.50000000  1
  Mn  Mn3  1  0.00000000  0.50000000  0.00000000  1
  Mn  Mn4  1  0.25002500  0.74974100  0.50091100  1
  Mn  Mn5  1  0.24577400  0.25038900  0.00197800  1
  Mn  Mn6  1  0.50000000  0.00000000  0.00000000  1
  Mn  Mn7  1  0.50000000  0.50000000  0.00000000  1
  Cr  Cr0  1  0.00000000  0.00000000  0.00000000  1
  Cr  Cr1  1  0.00000000  0.50000000  0.50000000  1
  Cr  Cr2  1  0.25048300  0.99819300  0.75128800  1
  Cr  Cr3  1  0.25275500  0.50582400  0.25104700  1
  Cr  Cr4  1  0.50000000  0.00000000  0.50000000  1
  Cr  Cr5  1  0.50000000  0.50000000  0.50000000  1
  Cr  Cr6  1  0.74951700  0.00180700  0.24871200  1
  Cr  Cr7  1  0.74724500  0.49417600  0.74895300  1
  O  O0  1  0.75301200  0.37837300  0.39286600  1
  O  O1  1  0.77107500  0.86946600  0.88624100  1
  O  O2  1  0.74283800  0.61555500  0.10266000  1
  O  O3  1  0.98026300  0.12472900  0.38389700  1
  O  O4  1  0.97715000  0.88282500  0.12395400  1
  O  O5  1  0.02285000  0.11717500  0.87604600  1
  O  O6  1  0.97219000  0.37383600  0.61470500  1
  O  O7  1  0.01973700  0.87527100  0.61610300  1
  O  O8  1  0.99251900  0.60514300  0.87094700  1
  O  O9  1  0.00748100  0.39485700  0.12905300  1
  O  O10  1  0.02781000  0.62616400  0.38529500  1
  O  O11  1  0.22892500  0.13053400  0.11375900  1
  O  O12  1  0.24773700  0.88217100  0.39493000  1
  O  O13  1  0.25716200  0.38444500  0.89734000  1
  O  O14  1  0.25235900  0.89322700  0.88930000  1
  O  O15  1  0.24698300  0.10448300  0.61172600  1
  O  O16  1  0.24430400  0.39429000  0.38346500  1
  O  O17  1  0.24698800  0.62162700  0.60713400  1
  O  O18  1  0.28416300  0.61579800  0.11854600  1
  O  O19  1  0.49284800  0.11215200  0.87117800  1
  O  O20  1  0.47252800  0.87591500  0.61527000  1
  O  O21  1  0.52747200  0.12408500  0.38473000  1
  O  O22  1  0.50715200  0.88784800  0.12882200  1
  O  O23  1  0.48164800  0.38835900  0.12058400  1
  O  O24  1  0.47957600  0.63010300  0.38503900  1
  O  O25  1  0.52042400  0.36989700  0.61496100  1
  O  O26  1  0.51835200  0.61164100  0.87941600  1
  O  O27  1  0.75301700  0.89551700  0.38827400  1
  O  O28  1  0.74764100  0.10677300  0.11070000  1
  O  O29  1  0.75226300  0.11782900  0.60507000  1
  O  O30  1  0.71583700  0.38420200  0.88145400  1
  O  O31  1  0.75569600  0.60571000  0.61653500  1
loop_
_geom_bond_atom_site_label_1
_geom_bond_atom_site_label_2
_geom_bond_distance
_geom_bond_site_symmetry_2
Li0 O19 2.076791 1_555
Li0 O5 2.140627 1_655
Li0 O1 2.176800 1_545
Li0 O29 2.234093 1_555
Li0 O7 2.288045 1_645
Li0 O20 2.305647 1_545
Li1 O9 2.024854 1_655
Li1 O23 2.115363 1_555
Li1 O0 2.192942 1_555
Li1 O2 2.200135 1_555
Li1 O10 2.319854 1_655
Li1 O24 2.346368 1_555
Li2 O11 2.070310 1_555
Li2 O16 2.129464 1_555
Li2 O9 2.158237 1_555
Li2 O3 2.209065 1_455
Li2 O0 2.234587 1_455
Li2 O28 2.333873 1_455
Li3 O1 2.070310 1_555
Li3 O31 2.129464 1_555
Li3 O8 2.158237 1_555
Li3 O7 2.209065 1_655
Li3 O17 2.234587 1_655
Li3 O14 2.333873 1_655
Li4 O18 2.092650 1_555
Li4 O14 2.131234 1_554
Li4 O22 2.145496 1_555
Li4 O4 2.257731 1_455
Li4 O26 2.271767 1_554
Li4 O8 2.306351 1_454
Li5 O22 2.076791 1_555
Li5 O4 2.140627 1_455
Li5 O11 2.176800 1_565
Li5 O12 2.234093 1_555
Li5 O3 2.288045 1_465
Li5 O21 2.305647 1_565
Li6 O25 2.128193 1_555
Li6 O16 2.139143 1_555
Li6 O3 2.166374 1_455
Li6 O15 2.177714 1_555
Li6 O21 2.211160 1_555
Li6 O6 2.230764 1_455
Li7 O8 2.024854 1_455
Li7 O26 2.115363 1_555
Li7 O17 2.192942 1_555
Li7 O13 2.200135 1_555
Li7 O6 2.319854 1_455
Li7 O25 2.346368 1_555
Li8 O30 2.035162 1_555
Li8 O19 2.118291 1_555
Li8 O25 2.159021 1_555
Li8 O13 2.224780 1_555
Li8 O15 2.270072 1_555
Li8 O29 2.295349 1_555
Li9 O18 2.035162 1_555
Li9 O22 2.118291 1_555
Li9 O24 2.159021 1_555
Li9 O2 2.224780 1_555
Li9 O27 2.270072 1_555
Li9 O12 2.295349 1_555
Li10 O30 2.092650 1_555
Li10 O28 2.131234 1_556
Li10 O19 2.145496 1_555
Li10 O5 2.257731 1_655
Li10 O23 2.271767 1_556
Li10 O9 2.306351 1_656
Li11 O24 2.128193 1_555
Li11 O31 2.139143 1_555
Li11 O7 2.166374 1_655
Li11 O27 2.177714 1_555
Li11 O20 2.211160 1_555
Li11 O10 2.230764 1_655
Mn0 O6 1.946391 1_555
Mn0 O0 1.949574 1_555
Mn0 O21 1.954549 1_555
Mn0 O29 1.985390 1_555
Mn0 O25 1.989032 1_555
Mn0 O3 2.016396 1_555
Mn1 O1 1.925745 1_555
Mn1 O2 1.989757 1_556
Mn1 O4 2.037664 1_556
Mn1 O26 2.082207 1_555
Mn1 O8 2.189221 1_555
Mn1 O22 2.209621 1_556
Mn2 O27 1.957976 1_445
Mn2 O15 1.957976 1_555
Mn2 O7 2.004249 1_545
Mn2 O3 2.004249 1_455
Mn2 O29 2.018345 1_455
Mn2 O12 2.018345 1_545
Mn3 O8 1.950982 1_454
Mn3 O9 1.950982 1_555
Mn3 O13 2.042671 1_554
Mn3 O2 2.042671 1_455
Mn3 O18 2.196123 1_555
Mn3 O30 2.196123 1_454
Mn4 O10 1.946391 1_555
Mn4 O17 1.949574 1_555
Mn4 O20 1.954549 1_555
Mn4 O12 1.985390 1_555
Mn4 O24 1.989032 1_555
Mn4 O7 2.016396 1_555
Mn5 O11 1.925745 1_555
Mn5 O13 1.989757 1_554
Mn5 O5 2.037664 1_554
Mn5 O23 2.082207 1_555
Mn5 O9 2.189221 1_555
Mn5 O19 2.209621 1_554
Mn6 O28 1.965051 1_555
Mn6 O14 1.965051 1_544
Mn6 O22 2.004268 1_545
Mn6 O19 2.004268 1_554
Mn6 O11 2.211466 1_555
Mn6 O1 2.211466 1_544
Mn7 O18 1.926556 1_555
Mn7 O30 1.926556 1_554
Mn7 O23 1.931658 1_555
Mn7 O26 1.931658 1_554
Mn7 O2 1.948279 1_555
Mn7 O13 1.948279 1_554
Cr0 O11 1.999173 1_555
Cr0 O1 1.999173 1_444
Cr0 O5 2.006611 1_554
Cr0 O4 2.006611 1_445
Cr0 O28 2.014899 1_455
Cr0 O14 2.014899 1_544
Cr1 O31 1.999227 1_455
Cr1 O16 1.999227 1_555
Cr1 O6 2.006811 1_455
Cr1 O10 2.006811 1_555
Cr1 O17 2.009401 1_555
Cr1 O0 2.009401 1_455
Cr2 O19 2.008181 1_565
Cr2 O5 2.017165 1_565
Cr2 O14 2.027890 1_555
Cr2 O15 2.051890 1_565
Cr2 O20 2.062433 1_555
Cr2 O7 2.066375 1_555
Cr3 O9 2.018830 1_555
Cr3 O18 2.026218 1_555
Cr3 O16 2.030209 1_555
Cr3 O23 2.043098 1_555
Cr3 O24 2.050534 1_555
Cr3 O10 2.057234 1_555
Cr4 O21 1.993727 1_555
Cr4 O20 1.993727 1_545
Cr4 O12 2.008715 1_545
Cr4 O29 2.008715 1_555
Cr4 O15 2.013524 1_555
Cr4 O27 2.013524 1_545
Cr5 O16 2.022062 1_555
Cr5 O31 2.022062 1_555
Cr5 O24 2.040841 1_555
Cr5 O25 2.040841 1_555
Cr5 O0 2.066521 1_555
Cr5 O17 2.066521 1_555
Cr6 O22 2.008181 1_545
Cr6 O4 2.017165 1_545
Cr6 O28 2.027890 1_555
Cr6 O27 2.051890 1_545
Cr6 O21 2.062433 1_555
Cr6 O3 2.066375 1_555
Cr7 O8 2.018830 1_555
Cr7 O30 2.026218 1_555
Cr7 O31 2.030209 1_555
Cr7 O26 2.043098 1_555
Cr7 O25 2.050534 1_555
Cr7 O6 2.057234 1_555
