# generated using pymatgen
data_LiFe(SiO3)2
_symmetry_space_group_name_H-M   'P 1'
_cell_length_a   5.20714800
_cell_length_b   9.55555700
_cell_length_c   18.52391200
_cell_angle_alpha   90.00000000
_cell_angle_beta   90.00000000
_cell_angle_gamma   90.00000000
_symmetry_Int_Tables_number   1
_chemical_formula_structural   LiFe(SiO3)2
_chemical_formula_sum   'Li8 Fe8 Si16 O48'
_cell_volume   921.69798530
_cell_formula_units_Z   8
loop_
 _symmetry_equiv_pos_site_id
 _symmetry_equiv_pos_as_xyz
  1  'x, y, z'
loop_
 _atom_site_type_symbol
 _atom_site_label
 _atom_site_symmetry_multiplicity
 _atom_site_fract_x
 _atom_site_fract_y
 _atom_site_fract_z
 _atom_site_occupancy
  Li  Li0  1  0.61831300  0.63745700  0.12377200  1
  Li  Li1  1  0.11831300  0.86254300  0.12377200  1
  Li  Li2  1  0.11831300  0.36254300  0.37622800  1
  Li  Li3  1  0.61831300  0.13745700  0.37622800  1
  Li  Li4  1  0.38168700  0.86254300  0.62377200  1
  Li  Li5  1  0.88168700  0.63745700  0.62377200  1
  Li  Li6  1  0.38168700  0.36254300  0.87622800  1
  Li  Li7  1  0.88168700  0.13745700  0.87622800  1
  Fe  Fe0  1  0.62074100  0.97572900  0.12445200  1
  Fe  Fe1  1  0.12074100  0.52427100  0.12445200  1
  Fe  Fe2  1  0.12074100  0.02427100  0.37554800  1
  Fe  Fe3  1  0.62074100  0.47572900  0.37554800  1
  Fe  Fe4  1  0.37925900  0.52427100  0.62445200  1
  Fe  Fe5  1  0.87925900  0.97572900  0.62445200  1
  Fe  Fe6  1  0.37925900  0.02427100  0.87554800  1
  Fe  Fe7  1  0.87925900  0.47572900  0.87554800  1
  Si  Si0  1  0.71860500  0.33232800  0.02813900  1
  Si  Si1  1  0.21860500  0.16767200  0.02813900  1
  Si  Si2  1  0.41988900  0.33860200  0.22652200  1
  Si  Si3  1  0.91988900  0.16139800  0.22652200  1
  Si  Si4  1  0.41988900  0.83860200  0.27347800  1
  Si  Si5  1  0.91988900  0.66139800  0.27347800  1
  Si  Si6  1  0.71860500  0.83232800  0.47186100  1
  Si  Si7  1  0.21860500  0.66767200  0.47186100  1
  Si  Si8  1  0.78139500  0.33232800  0.52813900  1
  Si  Si9  1  0.28139500  0.16767200  0.52813900  1
  Si  Si10  1  0.08011100  0.33860200  0.72652200  1
  Si  Si11  1  0.58011100  0.16139800  0.72652200  1
  Si  Si12  1  0.08011100  0.83860200  0.77347800  1
  Si  Si13  1  0.58011100  0.66139800  0.77347800  1
  Si  Si14  1  0.78139500  0.83232800  0.97186100  1
  Si  Si15  1  0.28139500  0.66767200  0.97186100  1
  O  O0  1  0.41337300  0.30026300  0.04986500  1
  O  O1  1  0.91337300  0.19973700  0.04986500  1
  O  O2  1  0.78656200  0.84866400  0.06011900  1
  O  O3  1  0.28656200  0.65133600  0.06011900  1
  O  O4  1  0.82537000  0.46770700  0.07192100  1
  O  O5  1  0.32537000  0.03229300  0.07192100  1
  O  O6  1  0.43326100  0.84877800  0.18554000  1
  O  O7  1  0.93326100  0.65122200  0.18554000  1
  O  O8  1  0.91275100  0.01078700  0.18478400  1
  O  O9  1  0.41275100  0.48921300  0.18478400  1
  O  O10  1  0.15260200  0.26344900  0.19889400  1
  O  O11  1  0.65260200  0.23655100  0.19889400  1
  O  O12  1  0.15260200  0.76344900  0.30110600  1
  O  O13  1  0.65260200  0.73655100  0.30110600  1
  O  O14  1  0.91275100  0.51078700  0.31521600  1
  O  O15  1  0.41275100  0.98921300  0.31521600  1
  O  O16  1  0.43326100  0.34877800  0.31446000  1
  O  O17  1  0.93326100  0.15122200  0.31446000  1
  O  O18  1  0.82537000  0.96770700  0.42807900  1
  O  O19  1  0.32537000  0.53229300  0.42807900  1
  O  O20  1  0.78656200  0.34866400  0.43988100  1
  O  O21  1  0.28656200  0.15133600  0.43988100  1
  O  O22  1  0.41337300  0.80026300  0.45013500  1
  O  O23  1  0.91337300  0.69973700  0.45013500  1
  O  O24  1  0.08662700  0.30026300  0.54986500  1
  O  O25  1  0.58662700  0.19973700  0.54986500  1
  O  O26  1  0.71343800  0.84866400  0.56011900  1
  O  O27  1  0.21343800  0.65133600  0.56011900  1
  O  O28  1  0.67463000  0.46770700  0.57192100  1
  O  O29  1  0.17463000  0.03229300  0.57192100  1
  O  O30  1  0.06673900  0.84877800  0.68554000  1
  O  O31  1  0.56673900  0.65122200  0.68554000  1
  O  O32  1  0.58724900  0.01078700  0.68478400  1
  O  O33  1  0.08724900  0.48921300  0.68478400  1
  O  O34  1  0.34739800  0.26344900  0.69889400  1
  O  O35  1  0.84739800  0.23655100  0.69889400  1
  O  O36  1  0.34739800  0.76344900  0.80110600  1
  O  O37  1  0.84739800  0.73655100  0.80110600  1
  O  O38  1  0.58724900  0.51078700  0.81521600  1
  O  O39  1  0.08724900  0.98921300  0.81521600  1
  O  O40  1  0.06673900  0.34877800  0.81446000  1
  O  O41  1  0.56673900  0.15122200  0.81446000  1
  O  O42  1  0.67463000  0.96770700  0.92807900  1
  O  O43  1  0.17463000  0.53229300  0.92807900  1
  O  O44  1  0.71343800  0.34866400  0.93988100  1
  O  O45  1  0.21343800  0.15133600  0.93988100  1
  O  O46  1  0.08662700  0.80026300  0.95013500  1
  O  O47  1  0.58662700  0.69973700  0.95013500  1
loop_
_geom_bond_atom_site_label_1
_geom_bond_atom_site_label_2
_geom_bond_distance
_geom_bond_site_symmetry_2
Li0 O7 2.003995 1_555
Li0 O3 2.095721 1_555
Li0 O9 2.104679 1_555
Li0 O4 2.171649 1_555
Li0 O2 2.496190 1_555
Li0 O6 2.513007 1_555
Li1 O6 2.003995 1_555
Li1 O2 2.095721 1_455
Li1 O8 2.104679 1_465
Li1 O5 2.171649 1_565
Li1 O3 2.496190 1_555
Li1 O7 2.513007 1_455
Li2 O16 2.003995 1_555
Li2 O20 2.095721 1_455
Li2 O14 2.104679 1_455
Li2 O19 2.171649 1_555
Li2 O21 2.496190 1_555
Li2 O17 2.513007 1_455
Li3 O17 2.003995 1_555
Li3 O21 2.095721 1_555
Li3 O15 2.104679 1_545
Li3 O18 2.171649 1_545
Li3 O20 2.496190 1_555
Li3 O16 2.513007 1_555
Li4 O30 2.003995 1_555
Li4 O26 2.095721 1_555
Li4 O32 2.104679 1_565
Li4 O29 2.171649 1_565
Li4 O27 2.496190 1_555
Li4 O31 2.513007 1_555
Li5 O31 2.003995 1_555
Li5 O27 2.095721 1_655
Li5 O33 2.104679 1_655
Li5 O28 2.171649 1_555
Li5 O26 2.496190 1_555
Li5 O30 2.513007 1_655
Li6 O40 2.003995 1_555
Li6 O44 2.095721 1_555
Li6 O38 2.104679 1_555
Li6 O43 2.171649 1_555
Li6 O45 2.496190 1_555
Li6 O41 2.513007 1_555
Li7 O41 2.003995 1_555
Li7 O45 2.095721 1_655
Li7 O39 2.104679 1_645
Li7 O42 2.171649 1_545
Li7 O44 2.496190 1_555
Li7 O40 2.513007 1_655
Fe0 O5 1.898577 1_565
Fe0 O2 1.907859 1_555
Fe0 O8 1.916575 1_565
Fe0 O6 1.924867 1_555
Fe1 O4 1.898577 1_455
Fe1 O3 1.907859 1_555
Fe1 O9 1.916575 1_555
Fe1 O7 1.924867 1_455
Fe2 O18 1.898577 1_445
Fe2 O21 1.907859 1_555
Fe2 O15 1.916575 1_545
Fe2 O17 1.924867 1_455
Fe3 O19 1.898577 1_555
Fe3 O20 1.907859 1_555
Fe3 O14 1.916575 1_555
Fe3 O16 1.924867 1_555
Fe4 O28 1.898577 1_555
Fe4 O27 1.907859 1_555
Fe4 O33 1.916575 1_555
Fe4 O31 1.924867 1_555
Fe5 O29 1.898577 1_665
Fe5 O26 1.907859 1_555
Fe5 O32 1.916575 1_565
Fe5 O30 1.924867 1_655
Fe6 O42 1.898577 1_545
Fe6 O45 1.907859 1_555
Fe6 O39 1.916575 1_545
Fe6 O41 1.924867 1_555
Fe7 O43 1.898577 1_655
Fe7 O44 1.907859 1_555
Fe7 O38 1.916575 1_555
Fe7 O40 1.924867 1_655
O0 Si0 1.667933 1_555
O0 Si1 1.672059 1_555
O1 Si1 1.667933 1_655
O1 Si0 1.672059 1_555
O2 Si14 1.642539 1_554
O3 Si15 1.642539 1_554
O4 Si0 1.624891 1_555
O5 Si1 1.624891 1_555
O6 Si4 1.633340 1_555
O7 Si5 1.633340 1_555
O8 Si3 1.634124 1_555
O9 Si2 1.634124 1_555
O10 Si3 1.637447 1_455
O10 Si2 1.647647 1_555
O11 Si2 1.637447 1_555
O11 Si3 1.647647 1_555
O12 Si5 1.637447 1_455
O12 Si4 1.647647 1_555
O13 Si4 1.637447 1_555
O13 Si5 1.647647 1_555
O14 Si5 1.634124 1_555
O15 Si4 1.634124 1_555
O16 Si2 1.633340 1_555
O17 Si3 1.633340 1_555
O18 Si6 1.624891 1_555
O19 Si7 1.624891 1_555
O20 Si8 1.642539 1_555
O21 Si9 1.642539 1_555
O22 Si6 1.667933 1_555
O22 Si7 1.672059 1_555
O23 Si7 1.667933 1_655
O23 Si6 1.672059 1_555
O24 Si8 1.667933 1_455
O24 Si9 1.672059 1_555
O25 Si9 1.667933 1_555
O25 Si8 1.672059 1_555
O26 Si6 1.642539 1_555
O27 Si7 1.642539 1_555
O28 Si8 1.624891 1_555
O29 Si9 1.624891 1_555
O30 Si12 1.633340 1_555
O31 Si13 1.633340 1_555
O32 Si11 1.634124 1_555
O33 Si10 1.634124 1_555
O34 Si11 1.637447 1_555
O34 Si10 1.647647 1_555
O35 Si10 1.637447 1_655
O35 Si11 1.647647 1_555
O36 Si13 1.637447 1_555
O36 Si12 1.647647 1_555
O37 Si12 1.637447 1_655
O37 Si13 1.647647 1_555
O38 Si13 1.634124 1_555
O39 Si12 1.634124 1_555
O40 Si10 1.633340 1_555
O41 Si11 1.633340 1_555
O42 Si14 1.624891 1_555
O43 Si15 1.624891 1_555
O44 Si0 1.642539 1_556
O45 Si1 1.642539 1_556
O46 Si14 1.667933 1_455
O46 Si15 1.672059 1_555
O47 Si15 1.667933 1_555
O47 Si14 1.672059 1_555
