# generated using pymatgen
data_Li3Co4TeO8
_symmetry_space_group_name_H-M   'P 1'
_cell_length_a   6.04836716
_cell_length_b   6.04836716
_cell_length_c   6.18482448
_cell_angle_alpha   60.00127592
_cell_angle_beta   60.00127592
_cell_angle_gamma   61.39488778
_symmetry_Int_Tables_number   1
_chemical_formula_structural   Li3Co4TeO8
_chemical_formula_sum   'Li3 Co4 Te1 O8'
_cell_volume   161.60962375
_cell_formula_units_Z   1
loop_
 _symmetry_equiv_pos_site_id
 _symmetry_equiv_pos_as_xyz
  1  'x, y, z'
loop_
 _atom_site_type_symbol
 _atom_site_label
 _atom_site_symmetry_multiplicity
 _atom_site_fract_x
 _atom_site_fract_y
 _atom_site_fract_z
 _atom_site_occupancy
  Li  Li0  1  0.00000000  0.50000000  0.00000000  1
  Li  Li1  1  0.50000000  0.00000000  0.00000000  1
  Li  Li2  1  0.00000000  0.00000000  0.50000000  1
  Co  Co0  1  0.00000000  0.00000000  0.00000000  1
  Co  Co1  1  0.50000000  0.00000000  0.50000000  1
  Co  Co2  1  0.00000000  0.50000000  0.50000000  1
  Co  Co3  1  0.50000000  0.50000000  0.50000000  1
  Te  Te0  1  0.50000000  0.50000000  0.00000000  1
  O  O0  1  0.74475100  0.74475100  0.74845700  1
  O  O1  1  0.26248300  0.74222100  0.23750100  1
  O  O2  1  0.74222100  0.26248300  0.23750100  1
  O  O3  1  0.25524900  0.25524900  0.25154300  1
  O  O4  1  0.24979000  0.24979000  0.73095900  1
  O  O5  1  0.73751700  0.25777900  0.76249900  1
  O  O6  1  0.25777900  0.73751700  0.76249900  1
  O  O7  1  0.75021000  0.75021000  0.26904100  1
loop_
_geom_bond_atom_site_label_1
_geom_bond_atom_site_label_2
_geom_bond_distance
_geom_bond_site_symmetry_2
Li0 O6 2.096870 1_554
Li0 O2 2.096870 1_455
Li0 O3 2.214863 1_555
Li0 O0 2.214863 1_454
Li0 O7 2.270800 1_455
Li0 O4 2.270800 1_554
Li1 O5 2.096870 1_554
Li1 O1 2.096870 1_545
Li1 O3 2.214863 1_555
Li1 O0 2.214863 1_544
Li1 O7 2.270800 1_545
Li1 O4 2.270800 1_554
Li2 O3 2.160073 1_555
Li2 O0 2.160073 1_445
Li2 O5 2.273937 1_455
Li2 O6 2.273937 1_545
Li2 O1 2.273937 1_545
Li2 O2 2.273937 1_455
Co0 O7 2.119409 1_445
Co0 O4 2.119409 1_554
Co0 O2 2.186471 1_455
Co0 O1 2.186471 1_545
Co0 O5 2.186471 1_454
Co0 O6 2.186471 1_544
Co1 O4 2.102456 1_555
Co1 O7 2.102456 1_545
Co1 O2 2.138674 1_555
Co1 O6 2.138674 1_545
Co1 O0 2.156443 1_545
Co1 O3 2.156443 1_555
Co2 O4 2.102456 1_555
Co2 O7 2.102456 1_455
Co2 O1 2.138674 1_555
Co2 O5 2.138674 1_455
Co2 O0 2.156443 1_455
Co2 O3 2.156443 1_555
Co3 O7 2.119119 1_555
Co3 O4 2.119119 1_555
Co3 O5 2.187335 1_555
Co3 O6 2.187335 1_555
Co3 O2 2.187335 1_555
Co3 O1 2.187335 1_555
O0 Te0 2.072596 1_556
O1 Te0 2.096259 1_555
O2 Te0 2.096259 1_555
O3 Te0 2.072596 1_555
O5 Te0 2.096259 1_556
O6 Te0 2.096259 1_556
