# generated using pymatgen
data_TmHO2
_symmetry_space_group_name_H-M   'P 1'
_cell_length_a   5.36818156
_cell_length_b   5.84807403
_cell_length_c   5.85079490
_cell_angle_alpha   71.42813365
_cell_angle_beta   90.00000000
_cell_angle_gamma   90.00000000
_symmetry_Int_Tables_number   1
_chemical_formula_structural   TmHO2
_chemical_formula_sum   'Tm4 H4 O8'
_cell_volume   174.11206602
_cell_formula_units_Z   4
loop_
 _symmetry_equiv_pos_site_id
 _symmetry_equiv_pos_as_xyz
  1  'x, y, z'
loop_
 _atom_site_type_symbol
 _atom_site_label
 _atom_site_symmetry_multiplicity
 _atom_site_fract_x
 _atom_site_fract_y
 _atom_site_fract_z
 _atom_site_occupancy
  Tm  Tm0  1  0.48512771  0.23398729  0.25292082  1
  Tm  Tm1  1  0.01487229  0.23398729  0.75292082  1
  Tm  Tm2  1  0.98512771  0.76601271  0.24707918  1
  Tm  Tm3  1  0.51487229  0.76601271  0.74707918  1
  H  H0  1  0.97140411  0.28035469  0.26823889  1
  H  H1  1  0.47140411  0.71964531  0.23176111  1
  H  H2  1  0.52859589  0.28035469  0.76823889  1
  H  H3  1  0.02859589  0.71964531  0.73176111  1
  O  O0  1  0.13905263  0.13182286  0.12533982  1
  O  O1  1  0.36094737  0.13182286  0.62533982  1
  O  O2  1  0.86657811  0.36725842  0.35721156  1
  O  O3  1  0.36657811  0.63274158  0.14278844  1
  O  O4  1  0.63342189  0.36725842  0.85721156  1
  O  O5  1  0.13342189  0.63274158  0.64278844  1
  O  O6  1  0.63905263  0.86817714  0.37466018  1
  O  O7  1  0.86094737  0.86817714  0.87466018  1
loop_
_geom_bond_atom_site_label_1
_geom_bond_atom_site_label_2
_geom_bond_distance
_geom_bond_site_symmetry_2
H0 O2 1.007200 1_555
H0 O0 1.651082 1_655
H1 O3 1.007200 1_555
H1 O6 1.651082 1_555
H2 O4 1.007200 1_555
H2 O1 1.651082 1_555
H3 O5 1.007200 1_555
H3 O7 1.651082 1_455
O0 Tm0 2.156301 1_555
O0 Tm1 2.172533 1_554
O0 Tm2 2.189983 1_445
O1 Tm1 2.156301 1_555
O1 Tm0 2.172533 1_555
O1 Tm3 2.189983 1_545
O2 Tm2 2.302394 1_555
O2 Tm1 2.334946 1_655
O2 Tm0 2.340030 1_555
O3 Tm0 2.302394 1_555
O3 Tm3 2.334946 1_554
O3 Tm2 2.340030 1_455
O4 Tm3 2.302394 1_555
O4 Tm0 2.334946 1_556
O4 Tm1 2.340030 1_655
O5 Tm1 2.302394 1_555
O5 Tm2 2.334946 1_455
O5 Tm3 2.340030 1_555
O6 Tm2 2.156301 1_555
O6 Tm3 2.172533 1_555
O6 Tm0 2.189983 1_565
O7 Tm3 2.156301 1_555
O7 Tm2 2.172533 1_556
O7 Tm1 2.189983 1_665
