# generated using pymatgen
data_Li3Mn2Fe(BO3)3
_symmetry_space_group_name_H-M   'P 1'
_cell_length_a   6.34369601
_cell_length_b   8.84984675
_cell_length_c   8.24126517
_cell_angle_alpha   62.31125589
_cell_angle_beta   89.99405296
_cell_angle_gamma   68.99470810
_symmetry_Int_Tables_number   1
_chemical_formula_structural   Li3Mn2Fe(BO3)3
_chemical_formula_sum   'Li6 Mn4 Fe2 B6 O18'
_cell_volume   374.62865157
_cell_formula_units_Z   2
loop_
 _symmetry_equiv_pos_site_id
 _symmetry_equiv_pos_as_xyz
  1  'x, y, z'
loop_
 _atom_site_type_symbol
 _atom_site_label
 _atom_site_symmetry_multiplicity
 _atom_site_fract_x
 _atom_site_fract_y
 _atom_site_fract_z
 _atom_site_occupancy
  Li  Li0  1  0.59957900  0.30089300  0.98282000  1
  Li  Li1  1  0.09955000  0.30088200  0.98281700  1
  Li  Li2  1  0.39153600  0.71689300  0.30059600  1
  Li  Li3  1  0.89153800  0.71691800  0.30056300  1
  Li  Li4  1  0.25759700  0.98483200  0.71461700  1
  Li  Li5  1  0.75759600  0.98482100  0.71461900  1
  Mn  Mn0  1  0.49410700  0.01185800  0.36054500  1
  Mn  Mn1  1  0.18571800  0.62838900  0.01156000  1
  Mn  Mn2  1  0.99411400  0.01182100  0.36057600  1
  Mn  Mn3  1  0.68576300  0.62841500  0.01151600  1
  Fe  Fe0  1  0.32020500  0.35944300  0.63334100  1
  Fe  Fe1  1  0.82018000  0.35947300  0.63331700  1
  B  B0  1  0.99985700  0.00029800  0.99753000  1
  B  B1  1  0.49988600  0.00027500  0.99754100  1
  B  B2  1  0.41790500  0.66422800  0.66673000  1
  B  B3  1  0.91789900  0.66422000  0.66671300  1
  B  B4  1  0.08297700  0.33405400  0.33585200  1
  B  B5  1  0.58297700  0.33404200  0.33588000  1
  O  O0  1  0.40273000  0.19472100  0.91660100  1
  O  O1  1  0.90263900  0.19473700  0.91655800  1
  O  O2  1  0.47174500  0.55659300  0.58009300  1
  O  O3  1  0.97172700  0.55659400  0.58004400  1
  O  O4  1  0.05605700  0.88792500  0.19127500  1
  O  O5  1  0.55605900  0.88790500  0.19128300  1
  O  O6  1  0.46085800  0.57828100  0.86042900  1
  O  O7  1  0.96088500  0.57825900  0.86040700  1
  O  O8  1  0.32111000  0.85777800  0.55976300  1
  O  O9  1  0.82109900  0.85776400  0.55975600  1
  O  O10  1  0.13887400  0.22232700  0.25269500  1
  O  O11  1  0.63888200  0.22233000  0.25270100  1
  O  O12  1  0.03965100  0.92070900  0.88347200  1
  O  O13  1  0.53964500  0.92070400  0.88347300  1
  O  O14  1  0.12336700  0.25325100  0.52937900  1
  O  O15  1  0.62336400  0.25319800  0.52942100  1
  O  O16  1  0.98615600  0.52758600  0.22274500  1
  O  O17  1  0.48617600  0.52756900  0.22277900  1
loop_
_geom_bond_atom_site_label_1
_geom_bond_atom_site_label_2
_geom_bond_distance
_geom_bond_site_symmetry_2
Li0 O11 1.982719 1_556
Li0 O6 1.992081 1_555
Li0 O0 2.014424 1_555
Li0 O1 2.014598 1_555
Li1 O10 1.982711 1_556
Li1 O7 1.991989 1_455
Li1 O1 2.014700 1_455
Li1 O0 2.015023 1_555
Li2 O17 1.963756 1_555
Li2 O2 2.005762 1_555
Li2 O4 2.013854 1_555
Li2 O5 2.014062 1_555
Li3 O16 1.963825 1_555
Li3 O3 2.005672 1_555
Li3 O5 2.013755 1_555
Li3 O4 2.013990 1_655
Li4 O14 1.969375 1_565
Li4 O12 1.999562 1_555
Li4 O13 1.999632 1_555
Li4 O8 2.015929 1_555
Li5 O15 1.969047 1_565
Li5 O13 1.999572 1_555
Li5 O12 1.999704 1_655
Li5 O9 2.016016 1_555
Mn0 O5 2.101548 1_545
Mn0 O9 2.179446 1_545
Mn0 O8 2.179718 1_545
Mn0 O10 2.188673 1_555
Mn0 O11 2.188738 1_555
Mn1 O12 2.099816 1_554
Mn1 O7 2.179543 1_454
Mn1 O6 2.179985 1_554
Mn1 O16 2.189489 1_455
Mn1 O17 2.190245 1_555
Mn2 O4 2.101454 1_645
Mn2 O8 2.179402 1_645
Mn2 O9 2.179564 1_545
Mn2 O11 2.188775 1_555
Mn2 O10 2.188917 1_655
Mn3 O13 2.099611 1_554
Mn3 O6 2.179538 1_554
Mn3 O7 2.179859 1_554
Mn3 O16 2.189975 1_555
Mn3 O17 2.190086 1_555
Fe0 O0 2.034512 1_555
Fe0 O3 2.155664 1_455
Fe0 O2 2.156774 1_555
Fe0 O14 2.183176 1_555
Fe0 O15 2.183511 1_555
Fe1 O1 2.034395 1_555
Fe1 O2 2.155472 1_555
Fe1 O3 2.156546 1_555
Fe1 O15 2.183353 1_555
Fe1 O14 2.183668 1_655
B0 O12 1.389667 1_645
B0 O4 1.391335 1_646
B0 O1 1.399569 1_555
B1 O13 1.389622 1_545
B1 O5 1.391313 1_546
B1 O0 1.399647 1_555
B2 O6 1.387138 1_555
B2 O8 1.389585 1_555
B2 O2 1.390171 1_555
B3 O7 1.387094 1_555
B3 O9 1.389538 1_555
B3 O3 1.390324 1_555
B4 O14 1.389084 1_555
B4 O16 1.393499 1_455
B4 O10 1.396922 1_555
B5 O15 1.389158 1_555
B5 O17 1.393461 1_555
B5 O11 1.396958 1_555
