# generated using pymatgen
data_KTiF4
_symmetry_space_group_name_H-M   'P 1'
_cell_length_a   4.04013932
_cell_length_b   7.65097898
_cell_length_c   12.16964133
_cell_angle_alpha   142.52336376
_cell_angle_beta   89.35340933
_cell_angle_gamma   75.23393255
_symmetry_Int_Tables_number   1
_chemical_formula_structural   KTiF4
_chemical_formula_sum   'K2 Ti2 F8'
_cell_volume   206.22677271
_cell_formula_units_Z   2
loop_
 _symmetry_equiv_pos_site_id
 _symmetry_equiv_pos_as_xyz
  1  'x, y, z'
loop_
 _atom_site_type_symbol
 _atom_site_label
 _atom_site_symmetry_multiplicity
 _atom_site_fract_x
 _atom_site_fract_y
 _atom_site_fract_z
 _atom_site_occupancy
  K  K0  1  0.98707376  0.50138461  0.19026582  1
  K  K1  1  0.00087414  0.49865154  0.81122927  1
  Ti  Ti0  1  0.18848289  0.11242991  0.30703831  1
  Ti  Ti1  1  0.80048404  0.88750174  0.69439517  1
  F  F0  1  0.99194647  0.50073040  0.60296752  1
  F  F1  1  0.31850226  0.85947964  0.05149070  1
  F  F2  1  0.67882319  0.13809259  0.69040348  1
  F  F3  1  0.69958823  0.09022358  0.29594017  1
  F  F4  1  0.28949964  0.90965467  0.70536992  1
  F  F5  1  0.30913585  0.86235261  0.31145872  1
  F  F6  1  0.66975890  0.14031956  0.94994120  1
  F  F7  1  -0.00063139  0.49918014  0.39845573  1
loop_
_geom_bond_atom_site_label_1
_geom_bond_atom_site_label_2
_geom_bond_distance
_geom_bond_site_symmetry_2
F0 Ti0 2.043907 1_655
F0 Ti1 2.044736 1_555
F0 K1 2.547715 1_655
F1 Ti0 1.893421 1_565
F1 K1 2.626030 1_554
F1 K1 2.626318 1_654
F2 Ti1 1.894162 1_545
F2 K1 2.625571 1_555
F2 K1 2.626732 1_655
F3 Ti0 2.022176 1_655
F3 Ti0 2.022256 1_555
F4 Ti1 2.021879 1_555
F4 Ti1 2.022534 1_455
F5 Ti0 1.894703 1_565
F5 K0 2.625327 1_555
F5 K0 2.627862 1_455
F6 Ti1 1.893760 1_545
F6 K0 2.625806 1_556
F6 K0 2.627316 1_456
F7 Ti1 2.043979 1_455
F7 Ti0 2.044654 1_555
F7 K0 2.547960 1_455
