# generated using pymatgen
data_Li8Ti2O7
_symmetry_space_group_name_H-M   'P 1'
_cell_length_a   10.24250200
_cell_length_b   7.74287900
_cell_length_c   9.43577020
_cell_angle_alpha   70.82539658
_cell_angle_beta   90.00000000
_cell_angle_gamma   90.00000000
_symmetry_Int_Tables_number   1
_chemical_formula_structural   Li8Ti2O7
_chemical_formula_sum   'Li32 Ti8 O28'
_cell_volume   706.80235166
_cell_formula_units_Z   4
loop_
 _symmetry_equiv_pos_site_id
 _symmetry_equiv_pos_as_xyz
  1  'x, y, z'
loop_
 _atom_site_type_symbol
 _atom_site_label
 _atom_site_symmetry_multiplicity
 _atom_site_fract_x
 _atom_site_fract_y
 _atom_site_fract_z
 _atom_site_occupancy
  Li  Li0  1  0.53976000  0.85338200  0.92859600  1
  Li  Li1  1  0.54287300  0.92258000  0.64079900  1
  Li  Li2  1  0.20067400  0.91883500  0.52449700  1
  Li  Li3  1  0.96024000  0.85338200  0.42859600  1
  Li  Li4  1  0.04500400  0.72921000  0.71650000  1
  Li  Li5  1  0.95712700  0.92258000  0.14079900  1
  Li  Li6  1  0.72540600  0.69492800  0.60494100  1
  Li  Li7  1  0.29932600  0.91883500  0.02449700  1
  Li  Li8  1  0.53942000  0.55346400  0.84862200  1
  Li  Li9  1  0.49335100  0.64179700  0.53308400  1
  Li  Li10  1  0.45499600  0.72921000  0.21650000  1
  Li  Li11  1  0.77432800  0.50433500  0.88723200  1
  Li  Li12  1  0.77459400  0.69492800  0.10494100  1
  Li  Li13  1  0.27432800  0.49566500  0.61276800  1
  Li  Li14  1  0.96058000  0.55346400  0.34862200  1
  Li  Li15  1  0.99335100  0.35820300  0.96691600  1
  Li  Li16  1  0.00664900  0.64179700  0.03308400  1
  Li  Li17  1  0.03942000  0.44653600  0.65137800  1
  Li  Li18  1  0.72567200  0.50433500  0.38723200  1
  Li  Li19  1  0.22540600  0.30507200  0.89505900  1
  Li  Li20  1  0.22567200  0.49566500  0.11276800  1
  Li  Li21  1  0.54500400  0.27079000  0.78350000  1
  Li  Li22  1  0.50664900  0.35820300  0.46691600  1
  Li  Li23  1  0.46058000  0.44653600  0.15137800  1
  Li  Li24  1  0.70067400  0.08116500  0.97550300  1
  Li  Li25  1  0.27459400  0.30507200  0.39505900  1
  Li  Li26  1  0.04287300  0.07742000  0.85920100  1
  Li  Li27  1  0.95499600  0.27079000  0.28350000  1
  Li  Li28  1  0.03976000  0.14661800  0.57140400  1
  Li  Li29  1  0.79932600  0.08116500  0.47550300  1
  Li  Li30  1  0.45712700  0.07742000  0.35920100  1
  Li  Li31  1  0.46024000  0.14661800  0.07140400  1
  Ti  Ti0  1  0.80678800  0.90835700  0.78042100  1
  Ti  Ti1  1  0.69321200  0.90835700  0.28042100  1
  Ti  Ti2  1  0.29080200  0.70666300  0.83800300  1
  Ti  Ti3  1  0.20919800  0.70666300  0.33800300  1
  Ti  Ti4  1  0.79080200  0.29333700  0.66199700  1
  Ti  Ti5  1  0.70919800  0.29333700  0.16199700  1
  Ti  Ti6  1  0.30678800  0.09164300  0.71957900  1
  Ti  Ti7  1  0.19321200  0.09164300  0.21957900  1
  O  O0  1  0.90187000  0.87561000  0.95430300  1
  O  O1  1  0.16889000  0.91110700  0.72535800  1
  O  O2  1  0.88443400  0.85645200  0.61745200  1
  O  O3  1  0.59813000  0.87561000  0.45430300  1
  O  O4  1  0.66294200  0.73639700  0.80111700  1
  O  O5  1  0.33111000  0.91110700  0.22535800  1
  O  O6  1  0.61556600  0.85645200  0.11745200  1
  O  O7  1  0.38973800  0.61675100  0.71854400  1
  O  O8  1  0.83705800  0.73639700  0.30111700  1
  O  O9  1  0.13525700  0.55124100  0.90958800  1
  O  O10  1  0.12100800  0.67119600  0.52332900  1
  O  O11  1  0.11026200  0.61675100  0.21854400  1
  O  O12  1  0.36474300  0.55124100  0.40958800  1
  O  O13  1  0.62100800  0.32880400  0.97667100  1
  O  O14  1  0.37899200  0.67119600  0.02332900  1
  O  O15  1  0.63525700  0.44875900  0.59041200  1
  O  O16  1  0.88973800  0.38324900  0.78145600  1
  O  O17  1  0.87899200  0.32880400  0.47667100  1
  O  O18  1  0.86474300  0.44875900  0.09041200  1
  O  O19  1  0.16294200  0.26360300  0.69888300  1
  O  O20  1  0.61026200  0.38324900  0.28145600  1
  O  O21  1  0.38443400  0.14354800  0.88254800  1
  O  O22  1  0.66889000  0.08889300  0.77464200  1
  O  O23  1  0.33705800  0.26360300  0.19888300  1
  O  O24  1  0.40187000  0.12439000  0.54569700  1
  O  O25  1  0.11556600  0.14354800  0.38254800  1
  O  O26  1  0.83111000  0.08889300  0.27464200  1
  O  O27  1  0.09813000  0.12439000  0.04569700  1
loop_
_geom_bond_atom_site_label_1
_geom_bond_atom_site_label_2
_geom_bond_distance
_geom_bond_site_symmetry_2
Li0 O6 1.951098 1_556
Li0 O4 2.138912 1_555
Li0 O14 2.161513 1_556
Li0 O22 2.333394 1_565
Li1 O3 1.992399 1_555
Li1 O24 2.100386 1_565
Li1 O4 2.108657 1_555
Li1 O22 2.446941 1_565
Li2 O1 1.904506 1_555
Li2 O25 2.012550 1_565
Li2 O10 2.087198 1_555
Li3 O2 1.951098 1_555
Li3 O8 2.138912 1_555
Li3 O10 2.161513 1_655
Li3 O26 2.333394 1_565
Li4 O1 1.917821 1_555
Li4 O2 1.985976 1_455
Li4 O9 2.103246 1_555
Li4 O10 2.160539 1_555
Li5 O0 1.992399 1_554
Li5 O27 2.100386 1_665
Li5 O8 2.108657 1_555
Li5 O26 2.446941 1_565
Li6 O2 2.080435 1_555
Li6 O4 2.080703 1_555
Li6 O3 2.090627 1_555
Li6 O15 2.162423 1_555
Li7 O5 1.904506 1_555
Li7 O21 2.012550 1_564
Li7 O14 2.087198 1_555
Li8 O4 1.841410 1_555
Li8 O7 1.924048 1_555
Li8 O13 1.950247 1_555
Li9 O7 2.000824 1_555
Li9 O3 2.024304 1_555
Li9 O15 2.026849 1_555
Li9 O12 2.030128 1_555
Li10 O5 1.917821 1_555
Li10 O6 1.985976 1_555
Li10 O12 2.103246 1_555
Li10 O14 2.160539 1_555
Li11 O16 1.971596 1_555
Li11 O18 2.043614 1_556
Li11 O4 2.057023 1_555
Li11 O13 2.066893 1_555
Li12 O6 2.080435 1_555
Li12 O8 2.080703 1_555
Li12 O0 2.090627 1_554
Li12 O18 2.162423 1_555
Li13 O7 1.971596 1_555
Li13 O12 2.043614 1_555
Li13 O19 2.057023 1_555
Li13 O10 2.066893 1_555
Li14 O8 1.841410 1_555
Li14 O11 1.924048 1_655
Li14 O17 1.950247 1_555
Li15 O16 2.000824 1_555
Li15 O27 2.024304 1_656
Li15 O9 2.026849 1_655
Li15 O18 2.030128 1_556
Li16 O11 2.000824 1_555
Li16 O0 2.024304 1_454
Li16 O18 2.026849 1_455
Li16 O9 2.030128 1_554
Li17 O19 1.841410 1_555
Li17 O16 1.924048 1_455
Li17 O10 1.950247 1_555
Li18 O20 1.971596 1_555
Li18 O15 2.043614 1_555
Li18 O8 2.057023 1_555
Li18 O17 2.066893 1_555
Li19 O21 2.080435 1_555
Li19 O19 2.080703 1_555
Li19 O27 2.090627 1_556
Li19 O9 2.162423 1_555
Li20 O11 1.971596 1_555
Li20 O9 2.043614 1_554
Li20 O23 2.057023 1_555
Li20 O14 2.066893 1_555
Li21 O22 1.917821 1_555
Li21 O21 1.985976 1_555
Li21 O15 2.103246 1_555
Li21 O13 2.160539 1_555
Li22 O20 2.000824 1_555
Li22 O24 2.024304 1_555
Li22 O12 2.026849 1_555
Li22 O15 2.030128 1_555
Li23 O23 1.841410 1_555
Li23 O20 1.924048 1_555
Li23 O14 1.950247 1_555
Li24 O22 1.904506 1_555
Li24 O6 2.012550 1_546
Li24 O13 2.087198 1_555
Li25 O25 2.080435 1_555
Li25 O23 2.080703 1_555
Li25 O24 2.090627 1_555
Li25 O12 2.162423 1_555
Li26 O27 1.992399 1_556
Li26 O0 2.100386 1_445
Li26 O19 2.108657 1_555
Li26 O1 2.446941 1_545
Li27 O26 1.917821 1_555
Li27 O25 1.985976 1_655
Li27 O18 2.103246 1_555
Li27 O17 2.160539 1_555
Li28 O25 1.951098 1_555
Li28 O19 2.138912 1_555
Li28 O17 2.161513 1_455
Li28 O1 2.333394 1_545
Li29 O26 1.904506 1_555
Li29 O2 2.012550 1_545
Li29 O17 2.087198 1_555
Li30 O24 1.992399 1_555
Li30 O3 2.100386 1_545
Li30 O23 2.108657 1_555
Li30 O5 2.446941 1_545
Li31 O21 1.951098 1_554
Li31 O23 2.138912 1_555
Li31 O13 2.161513 1_554
Li31 O5 2.333394 1_545
O0 Ti0 1.852399 1_555
O1 Ti6 1.975315 1_565
O1 Ti2 2.022261 1_555
O2 Ti0 1.888017 1_555
O3 Ti1 1.852399 1_555
O4 Ti0 1.952146 1_555
O5 Ti7 1.975315 1_565
O5 Ti3 2.022261 1_555
O6 Ti1 1.888017 1_555
O7 Ti2 1.815924 1_555
O8 Ti1 1.952146 1_555
O9 Ti2 1.977038 1_555
O10 Ti3 1.906257 1_555
O11 Ti3 1.815924 1_555
O12 Ti3 1.977038 1_555
O13 Ti5 1.906257 1_556
O14 Ti2 1.906257 1_554
O15 Ti4 1.977038 1_555
O16 Ti4 1.815924 1_555
O17 Ti4 1.906257 1_555
O18 Ti5 1.977038 1_555
O19 Ti6 1.952146 1_555
O20 Ti5 1.815924 1_555
O21 Ti6 1.888017 1_555
O22 Ti0 1.975315 1_545
O22 Ti4 2.022261 1_555
O23 Ti7 1.952146 1_555
O24 Ti6 1.852399 1_555
O25 Ti7 1.888017 1_555
O26 Ti1 1.975315 1_545
O26 Ti5 2.022261 1_555
O27 Ti7 1.852399 1_555
