# generated using pymatgen
data_Li2TiMn3O8
_symmetry_space_group_name_H-M   'P 1'
_cell_length_a   5.92921068
_cell_length_b   5.92921068
_cell_length_c   5.92921070
_cell_angle_alpha   60.86246935
_cell_angle_beta   60.86246935
_cell_angle_gamma   60.86246365
_symmetry_Int_Tables_number   1
_chemical_formula_structural   Li2TiMn3O8
_chemical_formula_sum   'Li2 Ti1 Mn3 O8'
_cell_volume   150.25863532
_cell_formula_units_Z   1
loop_
 _symmetry_equiv_pos_site_id
 _symmetry_equiv_pos_as_xyz
  1  'x, y, z'
loop_
 _atom_site_type_symbol
 _atom_site_label
 _atom_site_symmetry_multiplicity
 _atom_site_fract_x
 _atom_site_fract_y
 _atom_site_fract_z
 _atom_site_occupancy
  Li  Li0  1  0.87594400  0.87594400  0.87594400  1
  Li  Li1  1  0.12405600  0.12405600  0.12405600  1
  Ti  Ti0  1  0.50000000  0.50000000  0.50000000  1
  Mn  Mn0  1  0.50000000  0.00000000  0.50000000  1
  Mn  Mn1  1  0.00000000  0.50000000  0.50000000  1
  Mn  Mn2  1  0.50000000  0.50000000  0.00000000  1
  O  O0  1  0.70823100  0.26511100  0.26511100  1
  O  O1  1  0.26511100  0.26511100  0.70823100  1
  O  O2  1  0.26511100  0.70823100  0.26511100  1
  O  O3  1  0.25966000  0.25966000  0.25966000  1
  O  O4  1  0.74034000  0.74034000  0.74034000  1
  O  O5  1  0.73488900  0.29176900  0.73488900  1
  O  O6  1  0.29176900  0.73488900  0.73488900  1
  O  O7  1  0.73488900  0.73488900  0.29176900  1
loop_
_geom_bond_atom_site_label_1
_geom_bond_atom_site_label_2
_geom_bond_distance
_geom_bond_site_symmetry_2
Li0 O4 1.956515 1_555
Li0 O6 2.035389 1_655
Li0 O5 2.035389 1_565
Li0 O7 2.035389 1_556
Li1 O3 1.956515 1_555
Li1 O0 2.035389 1_455
Li1 O2 2.035389 1_545
Li1 O1 2.035389 1_554
Mn0 O1 2.004600 1_555
Mn0 O7 2.004600 1_545
Mn0 O0 2.004601 1_555
Mn0 O6 2.004601 1_545
Mn0 O3 2.033776 1_555
Mn0 O4 2.033776 1_545
Mn1 O1 2.004600 1_555
Mn1 O7 2.004600 1_455
Mn1 O2 2.004601 1_555
Mn1 O5 2.004601 1_455
Mn1 O3 2.033776 1_555
Mn1 O4 2.033776 1_455
Mn2 O0 2.004600 1_555
Mn2 O2 2.004600 1_555
Mn2 O5 2.004600 1_554
Mn2 O6 2.004600 1_554
Mn2 O3 2.033776 1_555
Mn2 O4 2.033776 1_554
O0 Ti0 1.985826 1_555
O1 Ti0 1.985826 1_555
O2 Ti0 1.985826 1_555
O5 Ti0 1.985826 1_555
O6 Ti0 1.985826 1_555
O7 Ti0 1.985826 1_555
