# generated using pymatgen
data_Tb2WO6
_symmetry_space_group_name_H-M   'P 1'
_cell_length_a   5.42258700
_cell_length_b   5.65900100
_cell_length_c   8.26117312
_cell_angle_alpha   84.60872243
_cell_angle_beta   90.00000000
_cell_angle_gamma   90.00000000
_symmetry_Int_Tables_number   1
_chemical_formula_structural   Tb2WO6
_chemical_formula_sum   'Tb4 W2 O12'
_cell_volume   252.38443238
_cell_formula_units_Z   2
loop_
 _symmetry_equiv_pos_site_id
 _symmetry_equiv_pos_as_xyz
  1  'x, y, z'
loop_
 _atom_site_type_symbol
 _atom_site_label
 _atom_site_symmetry_multiplicity
 _atom_site_fract_x
 _atom_site_fract_y
 _atom_site_fract_z
 _atom_site_occupancy
  Tb  Tb0  1  0.46517900  0.01560200  0.36538800  1
  Tb  Tb1  1  0.96517900  0.98439800  0.63461200  1
  Tb  Tb2  1  0.02261000  0.51317200  0.36486500  1
  Tb  Tb3  1  0.52261000  0.48682800  0.63513500  1
  W  W0  1  0.06436800  0.26003000  0.97771800  1
  W  W1  1  0.56436800  0.73997000  0.02228200  1
  O  O0  1  0.15549700  0.21099500  0.19594800  1
  O  O1  1  0.20848300  0.99964800  0.90068400  1
  O  O2  1  0.74028000  0.24932100  0.47630000  1
  O  O3  1  0.24028000  0.75067900  0.52370000  1
  O  O4  1  0.70848300  0.00035200  0.09931600  1
  O  O5  1  0.65549700  0.78900500  0.80405200  1
  O  O6  1  0.32972900  0.70650000  0.18850900  1
  O  O7  1  0.30211300  0.48686400  0.90544100  1
  O  O8  1  0.74544600  0.74929400  0.47298400  1
  O  O9  1  0.80211300  0.51313600  0.09455900  1
  O  O10  1  0.24544600  0.25070600  0.52701600  1
  O  O11  1  0.82972900  0.29350000  0.81149100  1
loop_
_geom_bond_atom_site_label_1
_geom_bond_atom_site_label_2
_geom_bond_distance
_geom_bond_site_symmetry_2
O0 W0 1.864779 1_554
O0 Tb0 2.389797 1_555
O0 Tb2 2.416426 1_555
O1 W0 1.833881 1_565
O1 Tb1 2.572011 1_455
O1 W1 2.572039 1_556
O2 Tb0 2.245423 1_555
O2 Tb1 2.253191 1_545
O2 Tb2 2.272105 1_655
O2 Tb3 2.291909 1_555
O3 Tb1 2.245423 1_455
O3 Tb0 2.253191 1_565
O3 Tb3 2.272105 1_555
O3 Tb2 2.291909 1_555
O4 W1 1.833881 1_545
O4 Tb0 2.572011 1_555
O4 W0 2.572039 1_654
O5 W1 1.864779 1_556
O5 Tb1 2.389797 1_555
O5 Tb3 2.416426 1_555
O6 W1 1.868592 1_555
O6 Tb2 2.406965 1_555
O6 Tb0 2.492930 1_565
O7 W0 1.876773 1_555
O7 W1 2.294651 1_556
O7 Tb3 2.533019 1_555
O8 Tb2 2.250861 1_655
O8 Tb3 2.255380 1_555
O8 Tb0 2.262573 1_565
O8 Tb1 2.303586 1_555
O9 W1 1.876773 1_555
O9 W0 2.294651 1_654
O9 Tb2 2.533019 1_655
O10 Tb3 2.250861 1_555
O10 Tb2 2.255380 1_555
O10 Tb1 2.262573 1_445
O10 Tb0 2.303586 1_555
O11 W0 1.868592 1_655
O11 Tb3 2.406965 1_555
O11 Tb1 2.492930 1_545
