# generated using pymatgen
data_Mn6O5F7
_symmetry_space_group_name_H-M   'P 1'
_cell_length_a   5.09247300
_cell_length_b   5.69664359
_cell_length_c   14.79817402
_cell_angle_alpha   92.40111343
_cell_angle_beta   95.11505814
_cell_angle_gamma   89.88440547
_symmetry_Int_Tables_number   1
_chemical_formula_structural   Mn6O5F7
_chemical_formula_sum   'Mn12 O10 F14'
_cell_volume   427.20943801
_cell_formula_units_Z   2
loop_
 _symmetry_equiv_pos_site_id
 _symmetry_equiv_pos_as_xyz
  1  'x, y, z'
loop_
 _atom_site_type_symbol
 _atom_site_label
 _atom_site_symmetry_multiplicity
 _atom_site_fract_x
 _atom_site_fract_y
 _atom_site_fract_z
 _atom_site_occupancy
  Mn  Mn0  1  0.04302900  0.90718800  0.99895900  1
  Mn  Mn1  1  0.50842600  0.14506900  0.83235800  1
  Mn  Mn2  1  0.96461600  0.90933800  0.65969600  1
  Mn  Mn3  1  0.46486100  0.91605200  0.50359300  1
  Mn  Mn4  1  0.03724000  0.98182300  0.32812200  1
  Mn  Mn5  1  0.49237700  0.88753300  0.15895100  1
  Mn  Mn6  1  0.00546000  0.43443800  0.83770100  1
  Mn  Mn7  1  0.55693400  0.60405500  0.98834800  1
  Mn  Mn8  1  0.48322000  0.57625600  0.33564700  1
  Mn  Mn9  1  0.99241900  0.47129200  0.50112300  1
  Mn  Mn10  1  0.48612500  0.58105700  0.67256500  1
  Mn  Mn11  1  0.04942700  0.48170900  0.15963800  1
  O  O0  1  0.28316500  0.82179000  0.60294500  1
  O  O1  1  0.73298600  0.84128800  0.06963400  1
  O  O2  1  0.26634700  0.77060300  0.24817300  1
  O  O3  1  0.86920500  0.65223300  0.92297200  1
  O  O4  1  0.24870400  0.69395200  0.42720700  1
  O  O5  1  0.26478800  0.68334100  0.06827500  1
  O  O6  1  0.77289700  0.65344800  0.58973300  1
  O  O7  1  0.72692900  0.41736700  0.41144500  1
  O  O8  1  0.67103100  0.38096200  0.76350600  1
  O  O9  1  0.34909800  0.38955100  0.90300500  1
  F  F0  1  0.66411100  0.89513800  0.74849200  1
  F  F1  1  0.36778600  0.90801400  0.91147200  1
  F  F2  1  0.70631300  0.91268400  0.40759300  1
  F  F3  1  0.17049200  0.64600800  0.74847300  1
  F  F4  1  0.74729500  0.60533600  0.24497400  1
  F  F5  1  0.73671000  0.37095200  0.07359500  1
  F  F6  1  0.23183000  0.35264900  0.60043200  1
  F  F7  1  0.23558600  0.29853100  0.26928300  1
  F  F8  1  0.71684800  0.12422900  0.57777500  1
  F  F9  1  0.87246800  0.13842800  0.91539700  1
  F  F10  1  0.73475800  0.08503300  0.23548400  1
  F  F11  1  0.19804100  0.17789000  0.44293000  1
  F  F12  1  0.21344600  0.14199900  0.08726300  1
  F  F13  1  0.13503400  0.14276600  0.75323600  1
loop_
_geom_bond_atom_site_label_1
_geom_bond_atom_site_label_2
_geom_bond_distance
_geom_bond_site_symmetry_2
Mn0 O3 1.961705 1_455
Mn0 O5 1.962344 1_556
Mn0 O1 2.014292 1_456
Mn1 O9 1.927606 1_555
Mn1 O8 1.949169 1_555
Mn2 O0 1.946822 1_655
Mn2 O6 1.961908 1_555
Mn3 O0 1.901786 1_555
Mn3 O4 1.937564 1_555
Mn3 O6 2.473311 1_555
Mn4 O2 2.080853 1_555
Mn4 O4 2.431397 1_555
Mn5 O1 1.891035 1_555
Mn5 O2 1.964599 1_555
Mn5 O5 2.023412 1_555
Mn6 O3 1.906449 1_455
Mn6 O9 1.943968 1_555
Mn6 O8 1.959436 1_455
Mn7 O1 1.937386 1_556
Mn7 O3 1.959196 1_555
Mn7 O9 1.961100 1_555
Mn7 O5 2.020554 1_556
Mn8 O7 1.857420 1_555
Mn8 O4 1.980101 1_555
Mn8 O2 1.995323 1_555
Mn9 O7 1.825097 1_555
Mn9 O6 2.046609 1_555
Mn9 O4 2.210465 1_655
Mn10 O8 1.973647 1_555
Mn10 O0 1.983210 1_555
Mn10 O6 2.041871 1_555
Mn11 O5 2.179370 1_555
Mn11 O2 2.283375 1_555
F0 Mn1 2.053962 1_565
F0 Mn2 2.107846 1_555
F0 Mn10 2.223003 1_555
F1 Mn1 1.998275 1_565
F1 Mn0 2.189423 1_555
F1 Mn7 2.276661 1_555
F2 Mn3 1.959470 1_555
F2 Mn4 2.184735 1_655
F2 Mn8 2.391523 1_555
F3 Mn6 2.058567 1_555
F3 Mn10 2.065675 1_555
F3 Mn2 2.233509 1_455
F4 Mn8 1.994394 1_555
F4 Mn11 2.173830 1_655
F4 Mn5 2.399666 1_555
F5 Mn7 2.030365 1_554
F5 Mn11 2.032381 1_655
F6 Mn9 1.965539 1_455
F6 Mn10 2.037983 1_555
F7 Mn11 2.117514 1_555
F7 Mn8 2.171364 1_555
F7 Mn4 2.308511 1_545
F8 Mn3 1.975861 1_545
F8 Mn2 2.098946 1_545
F9 Mn0 1.989757 1_645
F9 Mn1 2.132063 1_555
F9 Mn6 2.220364 1_655
F10 Mn5 1.929145 1_545
F10 Mn4 2.070048 1_645
F11 Mn4 2.097885 1_545
F11 Mn9 2.159809 1_455
F11 Mn3 2.182548 1_545
F12 Mn0 1.976359 1_544
F12 Mn5 2.257493 1_545
F12 Mn11 2.359893 1_555
F13 Mn2 2.018341 1_445
F13 Mn1 2.142095 1_555
F13 Mn6 2.174190 1_555
