# generated using pymatgen
data_Li5V3P8O29
_symmetry_space_group_name_H-M   'P 1'
_cell_length_a   9.78982200
_cell_length_b   9.79896951
_cell_length_c   14.03799470
_cell_angle_alpha   89.85935176
_cell_angle_beta   89.76492248
_cell_angle_gamma   60.05961802
_symmetry_Int_Tables_number   1
_chemical_formula_structural   Li5V3P8O29
_chemical_formula_sum   'Li10 V6 P16 O58'
_cell_volume   1166.93803122
_cell_formula_units_Z   2
loop_
 _symmetry_equiv_pos_site_id
 _symmetry_equiv_pos_as_xyz
  1  'x, y, z'
loop_
 _atom_site_type_symbol
 _atom_site_label
 _atom_site_symmetry_multiplicity
 _atom_site_fract_x
 _atom_site_fract_y
 _atom_site_fract_z
 _atom_site_occupancy
  Li  Li0  1  0.22905800  0.09578300  0.56083000  1
  Li  Li1  1  0.09561900  0.67291900  0.56324000  1
  Li  Li2  1  0.23421500  0.66647700  0.05564100  1
  Li  Li3  1  0.67023800  0.09547500  0.05761800  1
  Li  Li4  1  0.31722700  0.77453000  0.43989900  1
  Li  Li5  1  0.67715100  0.22771600  0.56499700  1
  Li  Li6  1  0.32825800  0.90809000  0.93907800  1
  Li  Li7  1  0.90576500  0.32305500  0.43996600  1
  Li  Li8  1  0.77384900  0.90544800  0.44142900  1
  Li  Li9  1  0.96762000  0.05073600  0.99358700  1
  V  V0  1  0.43355800  0.56546000  0.25028800  1
  V  V1  1  0.57106100  0.43200900  0.75144000  1
  V  V2  1  0.43364000  0.00065100  0.74977600  1
  V  V3  1  0.56781300  0.99923500  0.24907700  1
  V  V4  1  0.00326800  0.43154400  0.24117000  1
  V  V5  1  0.99645800  0.56665000  0.75949000  1
  P  P0  1  0.08283900  0.22160700  0.84271300  1
  P  P1  1  0.22946100  0.08962200  0.33902900  1
  P  P2  1  0.08593700  0.67874800  0.34469400  1
  P  P3  1  0.33557200  0.33468400  0.12736700  1
  P  P4  1  0.33045900  0.33627100  0.63075000  1
  P  P5  1  0.22866500  0.68549000  0.84016800  1
  P  P6  1  0.32073100  0.76783000  0.65748000  1
  P  P7  1  0.68562000  0.08721800  0.84197200  1
  P  P8  1  0.31669200  0.91110900  0.15659100  1
  P  P9  1  0.67949600  0.23217200  0.34480200  1
  P  P10  1  0.77560300  0.30787100  0.16053900  1
  P  P11  1  0.67066100  0.66371900  0.36850000  1
  P  P12  1  0.66243900  0.66726100  0.87127900  1
  P  P13  1  0.91511700  0.31937800  0.65713600  1
  P  P14  1  0.77213600  0.90800300  0.66053300  1
  P  P15  1  0.91733000  0.77605400  0.15965200  1
  O  O0  1  0.00263500  0.24677300  0.56581100  1
  O  O1  1  0.08085900  0.25589700  0.33805500  1
  O  O2  1  0.23216100  0.98411000  0.06597300  1
  O  O3  1  0.25618400  0.08465100  0.83854400  1
  O  O4  1  0.07960000  0.38267900  0.83221300  1
  O  O5  1  0.18845400  0.32827500  0.17516300  1
  O  O6  1  0.09461900  0.52088500  0.32145100  1
  O  O7  1  0.01108900  0.78193000  0.07791000  1
  O  O8  1  0.08374700  0.66046000  0.83556600  1
  O  O9  1  0.32717900  0.18598300  0.66926600  1
  O  O10  1  0.38013600  0.09916900  0.32096500  1
  O  O11  1  0.18401100  0.48461000  0.67802500  1
  O  O12  1  0.32470300  0.33915500  0.02165500  1
  O  O13  1  0.31741800  0.34446800  0.52435400  1
  O  O14  1  0.32242800  0.48903600  0.16815100  1
  O  O15  1  0.53068400  0.08632400  0.83040600  1
  O  O16  1  0.48858400  0.18904000  0.16631100  1
  O  O17  1  0.25069000  0.66377300  0.34256700  1
  O  O18  1  0.20741100  0.79381700  0.74796300  1
  O  O19  1  0.24179200  0.75691300  0.56799200  1
  O  O20  1  0.22149000  0.77625500  0.92863800  1
  O  O21  1  0.38065500  0.52988900  0.82897900  1
  O  O22  1  0.48522700  0.32912300  0.66609100  1
  O  O23  1  0.34180100  0.74101700  0.16503000  1
  O  O24  1  0.51948800  0.38047600  0.32327700  1
  O  O25  1  0.66310000  0.08316100  0.34241800  1
  O  O26  1  0.20746000  0.00069000  0.24889900  1
  O  O27  1  0.23986200  0.00264500  0.42969600  1
  O  O28  1  0.76172000  0.99674800  0.57045200  1
  O  O29  1  0.33872700  0.91592400  0.65660600  1
  O  O30  1  0.47839500  0.61782500  0.67567000  1
  O  O31  1  0.65606800  0.25664000  0.82957800  1
  O  O32  1  0.51614700  0.67029000  0.33070000  1
  O  O33  1  0.61951800  0.46169500  0.16811100  1
  O  O34  1  0.79345900  0.20057100  0.08000000  1
  O  O35  1  0.75081000  0.24678800  0.43626400  1
  O  O36  1  0.79717300  0.21074300  0.25895700  1
  O  O37  1  0.75027100  0.33585300  0.65757100  1
  O  O38  1  0.51005100  0.81365700  0.83105000  1
  O  O39  1  0.47283100  0.90856000  0.17126200  1
  O  O40  1  0.67355300  0.51849500  0.82634900  1
  O  O41  1  0.66782100  0.67073100  0.97693200  1
  O  O42  1  0.67827400  0.65680900  0.47478000  1
  O  O43  1  0.81728000  0.51381100  0.32301100  1
  O  O44  1  0.62193300  0.89825600  0.67778000  1
  O  O45  1  0.67454400  0.81320700  0.32983800  1
  O  O46  1  0.91616200  0.34067800  0.16416900  1
  O  O47  1  0.00886200  0.20276400  0.74374300  1
  O  O48  1  0.99756100  0.20671900  0.92535700  1
  O  O49  1  0.90624800  0.47782300  0.67899700  1
  O  O50  1  0.81179400  0.67277000  0.82480400  1
  O  O51  1  0.91608500  0.61760100  0.17022700  1
  O  O52  1  0.74568300  0.91586100  0.15953700  1
  O  O53  1  0.77272000  0.01698500  0.93275600  1
  O  O54  1  0.79573200  0.99501900  0.75081100  1
  O  O55  1  0.92011800  0.74145300  0.66123700  1
  O  O56  1  0.99987300  0.75045000  0.43630800  1
  O  O57  1  0.98845200  0.79744300  0.25894900  1
loop_
_geom_bond_atom_site_label_1
_geom_bond_atom_site_label_2
_geom_bond_distance
_geom_bond_site_symmetry_2
Li0 O0 1.957797 1_555
Li0 O27 2.035481 1_555
Li0 O29 2.044007 1_545
Li0 O9 2.210706 1_555
Li1 O19 1.976456 1_555
Li1 O56 1.981683 1_455
Li1 O55 2.031954 1_455
Li1 O11 2.270049 1_555
Li2 O7 1.917923 1_555
Li2 O20 2.051812 1_554
Li2 O14 2.182295 1_555
Li2 O23 2.188061 1_555
Li3 O34 1.964490 1_555
Li3 O53 1.972918 1_554
Li3 O52 2.094982 1_545
Li3 O16 2.165270 1_555
Li4 O27 1.974859 1_565
Li4 O19 1.980763 1_555
Li4 O17 2.046790 1_555
Li4 O32 2.276664 1_555
Li5 O28 1.985666 1_545
Li5 O35 1.985673 1_555
Li5 O37 2.023763 1_555
Li5 O22 2.157095 1_555
Li6 O2 1.976461 1_556
Li6 O20 2.032957 1_555
Li6 O3 2.064109 1_565
Li6 O38 2.159696 1_555
Li7 O0 1.969434 1_655
Li7 O35 1.998735 1_555
Li7 O1 2.067976 1_655
Li7 O43 2.306559 1_555
Li8 O56 1.962835 1_555
Li8 O28 1.998793 1_555
Li8 O25 2.062936 1_565
Li8 O45 2.261118 1_555
Li9 O48 1.943521 1_555
Li9 O34 2.006792 1_556
Li9 O53 2.263594 1_555
Li9 O2 2.548824 1_646
O0 P13 1.506925 1_455
O1 P1 1.550902 1_555
O1 V4 2.020179 1_555
O2 P8 1.492657 1_555
O3 P0 1.552598 1_555
O3 V2 1.951489 1_555
O4 P0 1.569339 1_555
O4 V5 1.867523 1_455
O5 P3 1.615744 1_555
O5 V4 1.824529 1_555
O6 P2 1.541940 1_555
O6 V4 1.905498 1_555
O7 P15 1.485381 1_455
O8 P5 1.557328 1_555
O8 V5 1.874087 1_455
O9 P4 1.582806 1_555
O9 V2 1.942144 1_555
O10 P1 1.543853 1_555
O10 V3 1.883290 1_545
O11 P4 1.589179 1_555
O11 V5 1.959409 1_455
O12 P3 1.487204 1_555
O13 P4 1.498096 1_555
O14 P3 1.562481 1_555
O14 V0 1.975281 1_555
O15 P7 1.530490 1_555
O15 V2 1.923053 1_555
O16 P3 1.564756 1_555
O16 V3 1.991868 1_545
O17 P2 1.545074 1_555
O17 V0 2.019081 1_555
O18 P6 1.617720 1_555
O18 P5 1.618783 1_555
O19 P6 1.509281 1_555
O20 P5 1.510211 1_555
O21 P5 1.515949 1_555
O21 V1 1.945054 1_555
O22 P4 1.564220 1_555
O22 V1 2.004463 1_555
O23 P8 1.562927 1_555
O23 V0 1.911786 1_555
O24 P9 1.544786 1_555
O24 V0 1.875917 1_555
O25 P9 1.546988 1_555
O25 V3 2.011108 1_545
O26 P1 1.612964 1_555
O26 P8 1.628016 1_545
O27 P1 1.505272 1_555
O28 P14 1.507603 1_555
O29 P6 1.546666 1_555
O29 V2 2.012133 1_565
O30 P6 1.531303 1_555
O30 V1 1.902437 1_555
O31 P7 1.545855 1_555
O31 V1 1.849189 1_555
O32 P11 1.575776 1_555
O32 V0 1.955860 1_555
O33 P10 1.522689 1_555
O33 V0 1.954408 1_555
O34 P10 1.495018 1_555
O35 P9 1.504828 1_555
O36 P9 1.603716 1_555
O36 P10 1.629277 1_555
O37 P13 1.539596 1_555
O37 V1 2.009796 1_555
O38 P12 1.571340 1_555
O38 V2 1.961456 1_565
O39 P8 1.531020 1_555
O39 V3 1.919682 1_555
O40 P12 1.542831 1_555
O40 V1 1.921619 1_555
O41 P12 1.485383 1_555
O42 P11 1.493806 1_555
O43 P11 1.586907 1_555
O43 V4 1.951227 1_655
O44 P14 1.538555 1_555
O44 V2 1.889349 1_565
O45 P11 1.579000 1_555
O45 V3 1.948927 1_555
O46 P10 1.562585 1_555
O46 V4 1.859737 1_655
O47 P13 1.606760 1_455
O47 P0 1.622299 1_555
O48 P0 1.475475 1_655
O49 P13 1.542671 1_555
O49 V5 1.895968 1_555
O50 P12 1.623963 1_555
O50 V5 1.817910 1_555
O51 P15 1.565482 1_555
O51 V4 1.867888 1_655
O52 P15 1.550035 1_555
O52 V3 1.961279 1_555
O53 P7 1.497904 1_555
O54 P14 1.609605 1_555
O54 P7 1.624239 1_565
O55 P14 1.549946 1_555
O55 V5 2.028290 1_555
O56 P2 1.504052 1_655
O57 P2 1.614618 1_655
O57 P15 1.620751 1_555
