# generated using pymatgen
data_Mn6O5F7
_symmetry_space_group_name_H-M   'P 1'
_cell_length_a   4.81155600
_cell_length_b   5.73791986
_cell_length_c   7.89571964
_cell_angle_alpha   85.76692308
_cell_angle_beta   86.39437476
_cell_angle_gamma   85.20941689
_symmetry_Int_Tables_number   1
_chemical_formula_structural   Mn6O5F7
_chemical_formula_sum   'Mn6 O5 F7'
_cell_volume   216.28029195
_cell_formula_units_Z   1
loop_
 _symmetry_equiv_pos_site_id
 _symmetry_equiv_pos_as_xyz
  1  'x, y, z'
loop_
 _atom_site_type_symbol
 _atom_site_label
 _atom_site_symmetry_multiplicity
 _atom_site_fract_x
 _atom_site_fract_y
 _atom_site_fract_z
 _atom_site_occupancy
  Mn  Mn0  1  0.49823300  0.48783000  0.00649700  1
  Mn  Mn1  1  0.56005600  0.83900700  0.66729900  1
  Mn  Mn2  1  0.50757300  0.16540700  0.32305300  1
  Mn  Mn3  1  0.97338600  0.33308700  0.67805800  1
  Mn  Mn4  1  0.00022900  0.66452800  0.32986100  1
  Mn  Mn5  1  0.97750100  0.00741600  0.99372400  1
  O  O0  1  0.82402000  0.05091600  0.77526900  1
  O  O1  1  0.69598600  0.20160600  0.10132800  1
  O  O2  1  0.69304000  0.53013700  0.78599000  1
  O  O3  1  0.70401600  0.87845700  0.42165000  1
  O  O4  1  0.30582800  0.46047800  0.23403100  1
  F  F0  1  0.80041800  0.37794500  0.43486800  1
  F  F1  1  0.80529900  0.69709200  0.10255300  1
  F  F2  1  0.29756100  0.13717800  0.55715000  1
  F  F3  1  0.29916300  0.79914400  0.90318500  1
  F  F4  1  0.16656500  0.61646500  0.57216100  1
  F  F5  1  0.18088500  0.95733100  0.21441700  1
  F  F6  1  0.21024200  0.29597400  0.89891000  1
loop_
_geom_bond_atom_site_label_1
_geom_bond_atom_site_label_2
_geom_bond_distance
_geom_bond_site_symmetry_2
Mn0 O2 1.933689 1_554
Mn0 O1 1.951999 1_555
Mn0 O4 1.970457 1_555
Mn1 O2 2.017284 1_555
Mn1 O3 2.021232 1_555
Mn1 O0 2.089369 1_565
Mn2 O1 1.925621 1_555
Mn2 O3 1.963105 1_545
Mn2 O4 1.984570 1_555
Mn3 O2 1.888672 1_555
Mn3 O0 1.915347 1_555
Mn4 O3 1.942304 1_455
Mn4 O4 1.951597 1_555
Mn5 O1 1.881765 1_556
Mn5 O0 1.910148 1_555
F0 Mn4 2.068395 1_655
F0 Mn3 2.130294 1_555
F0 Mn2 2.203294 1_555
F1 Mn4 2.066086 1_655
F1 Mn5 2.127548 1_564
F1 Mn0 2.184391 1_555
F2 Mn2 2.052312 1_555
F2 Mn3 2.070313 1_455
F2 Mn1 2.199151 1_545
F3 Mn5 2.003140 1_465
F3 Mn0 2.090714 1_556
F3 Mn1 2.188143 1_555
F4 Mn3 2.039836 1_455
F4 Mn4 2.110568 1_555
F4 Mn1 2.550239 1_555
F5 Mn5 2.042112 1_464
F5 Mn4 2.080214 1_555
F5 Mn2 2.294828 1_565
F6 Mn0 2.096309 1_556
F6 Mn3 2.130617 1_455
F6 Mn5 2.139434 1_455
