# generated using pymatgen
data_Li5V3P8O29
_symmetry_space_group_name_H-M   'P 1'
_cell_length_a   9.77051900
_cell_length_b   9.80169520
_cell_length_c   13.96687510
_cell_angle_alpha   90.24211457
_cell_angle_beta   89.89151972
_cell_angle_gamma   119.80468662
_symmetry_Int_Tables_number   1
_chemical_formula_structural   Li5V3P8O29
_chemical_formula_sum   'Li10 V6 P16 O58'
_cell_volume   1160.63642451
_cell_formula_units_Z   2
loop_
 _symmetry_equiv_pos_site_id
 _symmetry_equiv_pos_as_xyz
  1  'x, y, z'
loop_
 _atom_site_type_symbol
 _atom_site_label
 _atom_site_symmetry_multiplicity
 _atom_site_fract_x
 _atom_site_fract_y
 _atom_site_fract_z
 _atom_site_occupancy
  Li  Li0  1  0.76357000  0.09677300  0.43948800  1
  Li  Li1  1  0.89899000  0.66289800  0.43776300  1
  Li  Li2  1  0.76920100  0.67841200  0.94061400  1
  Li  Li3  1  0.32046400  0.09325400  0.94046700  1
  Li  Li4  1  0.33640200  0.23085200  0.43795700  1
  Li  Li5  1  0.68522700  0.91252300  0.06088300  1
  Li  Li6  1  0.22582300  0.32238400  0.06061000  1
  Li  Li7  1  0.09988300  0.33585400  0.55849200  1
  Li  Li8  1  0.09581000  0.77278900  0.06198000  1
  Li  Li9  1  0.98587500  0.96674200  0.49882900  1
  V  V0  1  0.56372800  0.57080000  0.74362000  1
  V  V1  1  0.43407700  0.43362300  0.25116400  1
  V  V2  1  0.56745300  0.00073500  0.25122700  1
  V  V3  1  0.43281300  0.99883200  0.74719100  1
  V  V4  1  0.99700600  0.43047700  0.75505500  1
  V  V5  1  0.99994600  0.56685300  0.24919500  1
  P  P0  1  0.91467100  0.22990300  0.15911700  1
  P  P1  1  0.77642100  0.08848100  0.65770400  1
  P  P2  1  0.91291400  0.68404600  0.65751100  1
  P  P3  1  0.66267000  0.33810900  0.87054700  1
  P  P4  1  0.66738200  0.33375700  0.37386800  1
  P  P5  1  0.76663400  0.68005800  0.15663200  1
  P  P6  1  0.69027500  0.77498900  0.34196900  1
  P  P7  1  0.31948600  0.08721500  0.15703500  1
  P  P8  1  0.68302100  0.91274300  0.84148900  1
  P  P9  1  0.31467000  0.22661400  0.65868700  1
  P  P10  1  0.23159700  0.31993900  0.84183700  1
  P  P11  1  0.32488400  0.66169200  0.62817300  1
  P  P12  1  0.33460900  0.66749800  0.12845400  1
  P  P13  1  0.08688500  0.31603400  0.34380300  1
  P  P14  1  0.22396800  0.91499100  0.34161800  1
  P  P15  1  0.08778300  0.77040000  0.84141700  1
  O  O0  1  0.00495100  0.22984900  0.43436900  1
  O  O1  1  0.92282700  0.25888100  0.66610100  1
  O  O2  1  0.75666100  0.98927100  0.93350500  1
  O  O3  1  0.74663400  0.08453700  0.15911900  1
  O  O4  1  0.90561500  0.38193300  0.17811300  1
  O  O5  1  0.81363700  0.33936400  0.82249300  1
  O  O6  1  0.91523800  0.52985700  0.67204200  1
  O  O7  1  0.99589100  0.75292600  0.93115800  1
  O  O8  1  0.91639700  0.66459200  0.15730100  1
  O  O9  1  0.68066400  0.19030500  0.33328200  1
  O  O10  1  0.62406100  0.09392800  0.67110100  1
  O  O11  1  0.80999700  0.48908400  0.33299500  1
  O  O12  1  0.67595100  0.34747300  0.97652200  1
  O  O13  1  0.66663000  0.33385800  0.48108500  1
  O  O14  1  0.66647800  0.48837400  0.82816200  1
  O  O15  1  0.47986000  0.09825800  0.17737500  1
  O  O16  1  0.51349900  0.18776100  0.83272900  1
  O  O17  1  0.74140100  0.65398400  0.66681300  1
  O  O18  1  0.78784400  0.79613200  0.24337000  1
  O  O19  1  0.79639400  0.78945900  0.42322700  1
  O  O20  1  0.75108700  0.75217800  0.06560300  1
  O  O21  1  0.61902900  0.51950500  0.17760700  1
  O  O22  1  0.51045600  0.31989200  0.33277600  1
  O  O23  1  0.65885100  0.74267200  0.83556200  1
  O  O24  1  0.47217400  0.38200800  0.67299400  1
  O  O25  1  0.34290700  0.08617500  0.66362400  1
  O  O26  1  0.79457500  0.99954100  0.75025300  1
  O  O27  1  0.79254700  0.01686000  0.56676700  1
  O  O28  1  0.20746600  0.00433100  0.42389100  1
  O  O29  1  0.66203900  0.91791600  0.34079600  1
  O  O30  1  0.53488300  0.61994000  0.33240300  1
  O  O31  1  0.33654600  0.25259900  0.15817600  1
  O  O32  1  0.47819600  0.66466200  0.67444700  1
  O  O33  1  0.38295000  0.47696300  0.82251400  1
  O  O34  1  0.24302100  0.24313800  0.93175300  1
  O  O35  1  0.22991200  0.22820700  0.56935100  1
  O  O36  1  0.20644900  0.20660900  0.75112900  1
  O  O37  1  0.25543100  0.33686900  0.33967800  1
  O  O38  1  0.48820200  0.81370600  0.16977200  1
  O  O39  1  0.52461100  0.90779900  0.82113700  1
  O  O40  1  0.32673000  0.51378500  0.17003100  1
  O  O41  1  0.33522500  0.66670300  0.02157200  1
  O  O42  1  0.32816600  0.64529400  0.52274200  1
  O  O43  1  0.18043600  0.50723900  0.67077900  1
  O  O44  1  0.38017300  0.91545300  0.33204000  1
  O  O45  1  0.32347000  0.80575200  0.67106900  1
  O  O46  1  0.08735500  0.34443900  0.83829100  1
  O  O47  1  0.99348900  0.20388300  0.25499700  1
  O  O48  1  0.00900000  0.23976600  0.07408900  1
  O  O49  1  0.09256500  0.47291900  0.33004100  1
  O  O50  1  0.18710400  0.67596900  0.16787700  1
  O  O51  1  0.09848900  0.62004100  0.82203700  1
  O  O52  1  0.25266800  0.91770200  0.84219500  1
  O  O53  1  0.24633500  0.00025100  0.06525500  1
  O  O54  1  0.20311800  0.99214200  0.24330400  1
  O  O55  1  0.08200500  0.74387300  0.33880400  1
  O  O56  1  0.98432500  0.76850900  0.56605200  1
  O  O57  1  0.00130800  0.79374600  0.74943400  1
loop_
_geom_bond_atom_site_label_1
_geom_bond_atom_site_label_2
_geom_bond_distance
_geom_bond_site_symmetry_2
Li0 O27 2.021880 1_555
Li0 O0 2.052001 1_655
Li0 O29 2.052663 1_545
Li0 O9 2.109804 1_555
Li1 O19 1.955502 1_555
Li1 O56 2.027133 1_555
Li1 O11 2.076267 1_555
Li1 O55 2.080102 1_655
Li2 O20 1.927941 1_556
Li2 O7 1.961674 1_555
Li2 O23 2.097829 1_555
Li2 O14 2.250897 1_555
Li3 O53 1.935348 1_556
Li3 O34 1.962794 1_555
Li3 O52 2.033207 1_545
Li3 O16 2.223476 1_555
Li4 O28 1.942172 1_555
Li4 O22 2.082735 1_555
Li4 O35 2.101765 1_555
Li4 O37 2.103161 1_555
Li5 O2 1.924266 1_554
Li5 O20 1.973553 1_555
Li5 O3 2.015726 1_565
Li5 O38 2.259357 1_555
Li6 O48 1.863740 1_555
Li6 O34 1.996843 1_554
Li6 O31 2.060146 1_555
Li6 O40 2.229348 1_555
Li7 O0 1.994526 1_555
Li7 O35 2.021132 1_555
Li7 O1 2.126745 1_455
Li7 O43 2.137530 1_555
Li8 O53 1.968657 1_565
Li8 O8 2.031023 1_455
Li8 O7 2.035770 1_454
Li8 O50 2.177657 1_555
Li9 O19 2.087056 1_555
Li9 O56 2.154806 1_555
Li9 O28 2.262832 1_665
Li9 O27 2.370948 1_565
O0 P13 1.512429 1_555
O1 P1 1.572738 1_555
O1 V4 1.916170 1_555
O2 P8 1.480155 1_555
O3 P0 1.549260 1_555
O3 V2 1.991352 1_555
O4 P0 1.557695 1_555
O4 V5 1.856867 1_555
O5 P3 1.613877 1_555
O5 V4 1.817899 1_555
O6 P2 1.537042 1_555
O6 V4 1.928231 1_555
O7 P15 1.500380 1_655
O8 P5 1.544272 1_555
O8 V5 2.005799 1_555
O9 P4 1.577843 1_555
O9 V2 1.983221 1_555
O10 P1 1.527013 1_555
O10 V3 1.938890 1_545
O11 P4 1.575073 1_555
O11 V5 1.997071 1_555
O12 P3 1.484525 1_555
O13 P4 1.497489 1_555
O14 P3 1.572874 1_555
O14 V0 1.968167 1_555
O15 P7 1.542899 1_555
O15 V2 1.880171 1_555
O16 P3 1.560808 1_555
O16 V3 2.002915 1_545
O17 P2 1.555811 1_555
O17 V0 1.849983 1_555
O18 P5 1.599972 1_555
O18 P6 1.627647 1_555
O19 P6 1.496697 1_555
O20 P5 1.501428 1_555
O21 P5 1.545436 1_555
O21 V1 1.875553 1_555
O22 P4 1.579319 1_555
O22 V1 1.984899 1_555
O23 P8 1.564937 1_555
O23 V0 1.944376 1_555
O24 P9 1.548081 1_555
O24 V0 1.881458 1_555
O25 P9 1.534320 1_555
O25 V3 1.904405 1_545
O26 P8 1.617921 1_555
O26 P1 1.620619 1_565
O27 P1 1.494145 1_555
O28 P14 1.498129 1_545
O29 P6 1.556724 1_555
O29 V2 1.958762 1_565
O30 P6 1.529022 1_555
O30 V1 1.947117 1_555
O31 P7 1.544994 1_555
O31 V1 2.011840 1_555
O32 P11 1.619423 1_555
O32 V0 1.803627 1_555
O33 P10 1.538812 1_555
O33 V0 1.888432 1_555
O34 P10 1.499444 1_555
O35 P9 1.503277 1_555
O36 P9 1.616898 1_555
O36 P10 1.617813 1_555
O37 P13 1.556387 1_555
O37 V1 1.957185 1_555
O38 P12 1.580254 1_555
O38 V2 1.956811 1_565
O39 P8 1.551020 1_555
O39 V3 1.863905 1_555
O40 P12 1.582736 1_555
O40 V1 1.957742 1_555
O41 P12 1.492811 1_555
O42 P11 1.482628 1_555
O43 P11 1.586918 1_555
O43 V4 1.955152 1_455
O44 P14 1.529567 1_555
O44 V2 1.949512 1_565
O45 P11 1.537916 1_555
O45 V3 1.957221 1_555
O46 P10 1.543730 1_555
O46 V4 1.895831 1_455
O47 P13 1.604720 1_655
O47 P0 1.628935 1_555
O48 P0 1.475588 1_455
O49 P13 1.523906 1_555
O49 V5 1.944879 1_455
O50 P12 1.581991 1_555
O50 V5 1.958549 1_455
O51 P15 1.551124 1_555
O51 V4 1.862281 1_455
O52 P15 1.538749 1_555
O52 V3 2.024777 1_555
O53 P7 1.506397 1_555
O54 P7 1.601235 1_565
O54 P14 1.631515 1_555
O55 P14 1.557429 1_555
O55 V5 1.955074 1_455
O56 P2 1.495089 1_555
O57 P15 1.617255 1_555
O57 P2 1.618571 1_455
