# generated using pymatgen
data_Li15Ti11Nb5O42
_symmetry_space_group_name_H-M   'P 1'
_cell_length_a   5.13793008
_cell_length_b   5.13793008
_cell_length_c   33.16918400
_cell_angle_alpha   90.00000000
_cell_angle_beta   90.00000000
_cell_angle_gamma   120.00000108
_symmetry_Int_Tables_number   1
_chemical_formula_structural   Li15Ti11Nb5O42
_chemical_formula_sum   'Li15 Ti11 Nb5 O42'
_cell_volume   758.30129005
_cell_formula_units_Z   1
loop_
 _symmetry_equiv_pos_site_id
 _symmetry_equiv_pos_as_xyz
  1  'x, y, z'
loop_
 _atom_site_type_symbol
 _atom_site_label
 _atom_site_symmetry_multiplicity
 _atom_site_fract_x
 _atom_site_fract_y
 _atom_site_fract_z
 _atom_site_occupancy
  Li  Li0  1  0.00000000  0.00000000  0.19900600  1
  Li  Li1  1  0.66666700  0.33333300  0.05378400  1
  Li  Li2  1  0.66666700  0.33333300  0.26085100  1
  Li  Li3  1  0.66666700  0.33333300  0.44612700  1
  Li  Li4  1  0.66666700  0.33333300  0.55348800  1
  Li  Li5  1  0.66666700  0.33333300  0.71954400  1
  Li  Li6  1  0.66666700  0.33333300  0.78045500  1
  Li  Li7  1  0.66666700  0.33333300  0.94645700  1
  Li  Li8  1  0.00000000  0.00000000  0.87128600  1
  Li  Li9  1  0.00000000  0.00000000  0.37239100  1
  Li  Li10  1  0.00000000  0.00000000  0.69856500  1
  Li  Li11  1  0.33333300  0.66666700  0.30306100  1
  Li  Li12  1  0.33333300  0.66666700  0.80141700  1
  Li  Li13  1  0.33333300  0.66666700  0.62868200  1
  Li  Li14  1  0.33333300  0.66666700  0.12689700  1
  Ti  Ti0  1  0.00000000  0.00000000  0.08065400  1
  Ti  Ti1  1  0.00000000  0.00000000  0.98993600  1
  Ti  Ti2  1  0.00000000  0.00000000  0.48987000  1
  Ti  Ti3  1  0.00000000  0.00000000  0.58034900  1
  Ti  Ti4  1  0.00000000  0.00000000  0.28608000  1
  Ti  Ti5  1  0.00000000  0.00000000  0.78313600  1
  Ti  Ti6  1  0.33333300  0.66666700  0.71693800  1
  Ti  Ti7  1  0.33333300  0.66666700  0.51008000  1
  Ti  Ti8  1  0.33333300  0.66666700  0.41925600  1
  Ti  Ti9  1  0.33333300  0.66666700  0.01015300  1
  Ti  Ti10  1  0.33333300  0.66666700  0.91973700  1
  Nb  Nb0  1  0.66666700  0.33333300  0.14554600  1
  Nb  Nb1  1  0.66666700  0.33333300  0.35420600  1
  Nb  Nb2  1  0.66666700  0.33333300  0.64393200  1
  Nb  Nb3  1  0.66666700  0.33333300  0.85607800  1
  Nb  Nb4  1  0.33333300  0.66666700  0.21661800  1
  O  O0  1  0.67098200  0.95810800  0.25039600  1
  O  O1  1  0.70307500  0.04040300  0.10734900  1
  O  O2  1  0.71547100  0.04778100  0.81999900  1
  O  O3  1  0.68840600  0.96602800  0.53443700  1
  O  O4  1  0.66655700  0.69585900  0.74998900  1
  O  O5  1  0.96288000  0.29872600  0.60710300  1
  O  O6  1  0.95967100  0.28817400  0.32017500  1
  O  O7  1  0.68844800  0.72252100  0.03449000  1
  O  O8  1  0.70127400  0.66415400  0.60710300  1
  O  O9  1  0.71182600  0.67149700  0.32017500  1
  O  O10  1  0.03407300  0.31155200  0.03449000  1
  O  O11  1  0.27762200  0.31159400  0.53443700  1
  O  O12  1  0.95221900  0.66769100  0.81999900  1
  O  O13  1  0.95959700  0.66267200  0.10734900  1
  O  O14  1  0.03397200  0.72237800  0.53443700  1
  O  O15  1  0.33230900  0.28452900  0.81999900  1
  O  O16  1  0.33732800  0.29692500  0.10734900  1
  O  O17  1  0.04189200  0.71287500  0.25039600  1
  O  O18  1  0.99652200  0.62648400  0.39224000  1
  O  O19  1  0.00095300  0.61894700  0.68000100  1
  O  O20  1  0.05565200  0.70049200  0.96554200  1
  O  O21  1  0.27747900  0.96592700  0.03449000  1
  O  O22  1  0.32850300  0.04032900  0.32017500  1
  O  O23  1  0.33584600  0.03712000  0.60710300  1
  O  O24  1  0.30414100  0.97069700  0.74998900  1
  O  O25  1  0.99746400  0.36802400  0.89292200  1
  O  O26  1  0.00589500  0.37218600  0.17847400  1
  O  O27  1  0.29926700  0.94409600  0.46542000  1
  O  O28  1  0.37056000  0.00253600  0.89292200  1
  O  O29  1  0.02930300  0.33344300  0.74998900  1
  O  O30  1  0.36629100  0.99410500  0.17847400  1
  O  O31  1  0.05590400  0.35517100  0.46542000  1
  O  O32  1  0.29950800  0.35516000  0.96554200  1
  O  O33  1  0.61799400  0.99904700  0.68000100  1
  O  O34  1  0.28712500  0.32901800  0.25039600  1
  O  O35  1  0.62996100  0.00347800  0.39224000  1
  O  O36  1  0.64484000  0.94434800  0.96554200  1
  O  O37  1  0.38105300  0.38200600  0.68000100  1
  O  O38  1  0.37351600  0.37003900  0.39224000  1
  O  O39  1  0.64482900  0.70073300  0.46542000  1
  O  O40  1  0.62781400  0.63370900  0.17847400  1
  O  O41  1  0.63197600  0.62944000  0.89292200  1
loop_
_geom_bond_atom_site_label_1
_geom_bond_atom_site_label_2
_geom_bond_distance
_geom_bond_site_symmetry_2
Li0 O40 2.015827 1_445
Li0 O26 2.015827 1_555
Li0 O30 2.015827 1_545
Li0 O17 2.333600 1_545
Li0 O34 2.333602 1_555
Li0 O0 2.333604 1_445
Li1 O10 2.048601 1_655
Li1 O21 2.048604 1_545
Li1 O7 2.048606 1_555
Li1 O1 2.395497 1_555
Li1 O13 2.395499 1_555
Li1 O16 2.395500 1_555
Li2 O0 1.969826 1_545
Li2 O17 1.969831 1_655
Li2 O34 1.969836 1_555
Li2 O6 2.557620 1_555
Li2 O22 2.557622 1_555
Li2 O9 2.557623 1_555
Li3 O31 2.048708 1_655
Li3 O27 2.048710 1_545
Li3 O39 2.048713 1_555
Li3 O35 2.404777 1_555
Li3 O18 2.404780 1_555
Li3 O38 2.404784 1_555
Li4 O3 2.045493 1_545
Li4 O14 2.045496 1_655
Li4 O11 2.045498 1_555
Li4 O5 2.404383 1_555
Li4 O23 2.404385 1_555
Li4 O8 2.404386 1_555
Li5 O33 2.074434 1_545
Li5 O19 2.074435 1_655
Li5 O37 2.074438 1_555
Li5 O24 2.119015 1_545
Li5 O29 2.119015 1_655
Li5 O4 2.119015 1_555
Li6 O2 2.074533 1_555
Li6 O12 2.074538 1_555
Li6 O15 2.074541 1_555
Li6 O24 2.119347 1_545
Li6 O29 2.119347 1_655
Li6 O4 2.119347 1_555
Li7 O36 2.045358 1_545
Li7 O20 2.045360 1_655
Li7 O32 2.045363 1_555
Li7 O25 2.402221 1_555
Li7 O28 2.402222 1_555
Li7 O41 2.402224 1_555
Li8 O41 2.028610 1_445
Li8 O28 2.028610 1_555
Li8 O25 2.028610 1_455
Li8 O12 2.334559 1_445
Li8 O15 2.334560 1_555
Li8 O2 2.334563 1_455
Li9 O18 2.020501 1_445
Li9 O38 2.020503 1_555
Li9 O35 2.020506 1_455
Li9 O9 2.354071 1_445
Li9 O22 2.354071 1_555
Li9 O6 2.354071 1_455
Li10 O37 2.054710 1_555
Li10 O33 2.054711 1_445
Li10 O19 2.054711 1_545
Li10 O29 2.368374 1_555
Li10 O4 2.368376 1_445
Li10 O24 2.368378 1_545
Li11 O22 2.014030 1_565
Li11 O6 2.014032 1_455
Li11 O9 2.014035 1_555
Li11 O0 2.388637 1_555
Li11 O34 2.388637 1_555
Li11 O17 2.388637 1_555
Li12 O2 2.055363 1_565
Li12 O15 2.055363 1_555
Li12 O12 2.055363 1_455
Li12 O24 2.367854 1_555
Li12 O29 2.367859 1_555
Li12 O4 2.367862 1_555
Li13 O23 2.027483 1_565
Li13 O5 2.027485 1_455
Li13 O8 2.027487 1_555
Li13 O19 2.335662 1_555
Li13 O33 2.335663 1_555
Li13 O37 2.335665 1_555
Li14 O13 2.017102 1_455
Li14 O1 2.017104 1_565
Li14 O16 2.017106 1_555
Li14 O30 2.345385 1_555
Li14 O26 2.345386 1_555
Li14 O40 2.345388 1_555
Nb0 O26 1.980559 1_655
Nb0 O30 1.980560 1_545
Nb0 O40 1.980563 1_555
Nb0 O1 2.046195 1_555
Nb0 O13 2.046197 1_555
Nb0 O16 2.046199 1_555
Nb1 O6 1.985852 1_555
Nb1 O22 1.985855 1_555
Nb1 O9 1.985856 1_555
Nb1 O35 2.044437 1_555
Nb1 O18 2.044440 1_555
Nb1 O38 2.044445 1_555
Nb2 O33 2.003567 1_545
Nb2 O19 2.003568 1_655
Nb2 O37 2.003571 1_555
Nb2 O5 2.027498 1_555
Nb2 O23 2.027501 1_555
Nb2 O8 2.027502 1_555
Nb3 O2 2.003846 1_555
Nb3 O12 2.003852 1_555
Nb3 O15 2.003855 1_555
Nb3 O25 2.027561 1_555
Nb3 O28 2.027563 1_555
Nb3 O41 2.027565 1_555
Nb4 O0 1.977209 1_555
Nb4 O34 1.977209 1_555
Nb4 O17 1.977209 1_555
Nb4 O30 2.043245 1_555
Nb4 O26 2.043247 1_555
Nb4 O40 2.043249 1_555
O0 Ti4 1.985220 1_665
O1 Ti0 1.863116 1_655
O2 Ti5 2.012787 1_655
O3 Ti7 1.881662 1_555
O3 Ti2 2.121153 1_665
O3 Ti3 2.152481 1_665
O4 Ti6 1.974525 1_555
O4 Ti5 1.977025 1_665
O5 Ti3 1.863412 1_655
O6 Ti4 1.954713 1_655
O7 Ti9 1.881327 1_555
O7 Ti1 2.120545 1_664
O7 Ti0 2.158101 1_665
O8 Ti3 1.863412 1_665
O9 Ti4 1.954713 1_665
O10 Ti9 1.881326 1_555
O10 Ti1 2.120545 1_554
O10 Ti0 2.158101 1_555
O11 Ti7 1.881664 1_555
O11 Ti2 2.121153 1_555
O11 Ti3 2.152481 1_555
O12 Ti5 2.012783 1_665
O13 Ti0 1.863116 1_665
O14 Ti7 1.881659 1_555
O14 Ti2 2.121153 1_565
O14 Ti3 2.152481 1_565
O15 Ti5 2.012785 1_555
O16 Ti0 1.863116 1_555
O17 Ti4 1.985216 1_565
O18 Ti8 1.866282 1_655
O19 Ti6 2.014657 1_555
O20 Ti1 1.882691 1_565
O20 Ti9 2.122070 1_556
O20 Ti10 2.149874 1_555
O21 Ti9 1.881323 1_555
O21 Ti1 2.120545 1_564
O21 Ti0 2.158101 1_565
O22 Ti4 1.954713 1_555
O23 Ti3 1.863412 1_555
O24 Ti6 1.974516 1_555
O24 Ti5 1.977027 1_565
O25 Ti10 1.864283 1_655
O27 Ti2 1.883110 1_565
O27 Ti7 2.122799 1_555
O27 Ti8 2.157906 1_555
O28 Ti10 1.864282 1_545
O29 Ti6 1.974521 1_555
O29 Ti5 1.977023 1_555
O31 Ti2 1.883110 1_555
O31 Ti7 2.122801 1_555
O31 Ti8 2.157909 1_555
O32 Ti1 1.882691 1_555
O32 Ti9 2.122074 1_556
O32 Ti10 2.149877 1_555
O33 Ti6 2.014658 1_555
O34 Ti4 1.985218 1_555
O35 Ti8 1.866282 1_545
O36 Ti1 1.882691 1_665
O36 Ti9 2.122073 1_556
O36 Ti10 2.149876 1_555
O37 Ti6 2.014661 1_555
O38 Ti8 1.866282 1_555
O39 Ti2 1.883110 1_665
O39 Ti7 2.122802 1_555
O39 Ti8 2.157910 1_555
O41 Ti10 1.864286 1_555
