# generated using pymatgen
data_Er3GaS6
_symmetry_space_group_name_H-M   'P 1'
_cell_length_a   6.38823605
_cell_length_b   8.43151277
_cell_length_c   8.43151251
_cell_angle_alpha   102.39109062
_cell_angle_beta   90.00000000
_cell_angle_gamma   90.00000000
_symmetry_Int_Tables_number   1
_chemical_formula_structural   Er3GaS6
_chemical_formula_sum   'Er6 Ga2 S12'
_cell_volume   443.56334475
_cell_formula_units_Z   2
loop_
 _symmetry_equiv_pos_site_id
 _symmetry_equiv_pos_as_xyz
  1  'x, y, z'
loop_
 _atom_site_type_symbol
 _atom_site_label
 _atom_site_symmetry_multiplicity
 _atom_site_fract_x
 _atom_site_fract_y
 _atom_site_fract_z
 _atom_site_occupancy
  Er  Er0  1  0.33713411  0.59727195  0.40272805  1
  Er  Er1  1  0.83713411  0.40272805  0.59727195  1
  Er  Er2  1  0.24610236  0.08561651  0.28434227  1
  Er  Er3  1  0.74610236  0.91438349  0.71565773  1
  Er  Er4  1  0.24610236  0.71565773  0.91438349  1
  Er  Er5  1  0.74610236  0.28434227  0.08561651  1
  Ga  Ga0  1  0.71052341  0.79861397  0.20138603  1
  Ga  Ga1  1  0.21052341  0.20138603  0.79861397  1
  S  S0  1  0.06410441  0.04052462  0.95947538  1
  S  S1  1  0.56410441  0.95947538  0.04052462  1
  S  S2  1  0.06287389  0.78274221  0.21725779  1
  S  S3  1  0.56287389  0.21725779  0.78274221  1
  S  S4  1  0.04312044  0.69432096  0.63138378  1
  S  S5  1  0.54312044  0.30567904  0.36861622  1
  S  S6  1  0.04312044  0.36861622  0.30567904  1
  S  S7  1  0.54312044  0.63138378  0.69432096  1
  S  S8  1  0.52976029  0.56571975  0.10220073  1
  S  S9  1  0.02976029  0.43428025  0.89779927  1
  S  S10  1  0.52976029  0.89779927  0.43428025  1
  S  S11  1  0.02976029  0.10220073  0.56571975  1
loop_
_geom_bond_atom_site_label_1
_geom_bond_atom_site_label_2
_geom_bond_distance
_geom_bond_site_symmetry_2
Er0 S4 2.690191 1_555
Er0 S6 2.690191 1_555
Er0 S7 2.748705 1_555
Er0 S5 2.748705 1_555
Er0 S8 2.777832 1_555
Er0 S10 2.777832 1_555
Er0 S2 3.001676 1_555
Er1 S5 2.690191 1_555
Er1 S7 2.690191 1_555
Er1 S6 2.748705 1_655
Er1 S4 2.748705 1_655
Er1 S9 2.777832 1_655
Er1 S11 2.777832 1_655
Er1 S3 3.001676 1_555
Er2 S5 2.642350 1_555
Er2 S6 2.687584 1_555
Er2 S11 2.723176 1_555
Er2 S2 2.755257 1_545
Er2 S10 2.872062 1_545
Er2 S1 2.923323 1_545
Er2 S0 2.924403 1_554
Er3 S4 2.642350 1_655
Er3 S7 2.687584 1_555
Er3 S10 2.723176 1_555
Er3 S3 2.755257 1_565
Er3 S11 2.872062 1_665
Er3 S0 2.923323 1_665
Er3 S1 2.924403 1_556
Er4 S7 2.642350 1_555
Er4 S4 2.687584 1_555
Er4 S9 2.723176 1_555
Er4 S2 2.755257 1_556
Er4 S8 2.872062 1_556
Er4 S1 2.923323 1_556
Er4 S0 2.924403 1_565
Er5 S6 2.642350 1_655
Er5 S5 2.687584 1_555
Er5 S8 2.723176 1_555
Er5 S3 2.755257 1_554
Er5 S9 2.872062 1_654
Er5 S0 2.923323 1_654
Er5 S1 2.924403 1_545
Ga0 S2 2.260541 1_655
Ga0 S10 2.276838 1_555
Ga0 S8 2.276838 1_555
Ga0 S1 2.311602 1_555
Ga1 S3 2.260541 1_555
Ga1 S11 2.276838 1_555
Ga1 S9 2.276838 1_555
Ga1 S0 2.311602 1_555
