# generated using pymatgen
data_Li4Nb2V3Cr3O16
_symmetry_space_group_name_H-M   'P 1'
_cell_length_a   6.02044847
_cell_length_b   6.02044847
_cell_length_c   9.68387421
_cell_angle_alpha   89.54960836
_cell_angle_beta   89.54960836
_cell_angle_gamma   59.82222641
_symmetry_Int_Tables_number   1
_chemical_formula_structural   Li4Nb2V3Cr3O16
_chemical_formula_sum   'Li4 Nb2 V3 Cr3 O16'
_cell_volume   303.41624424
_cell_formula_units_Z   1
loop_
 _symmetry_equiv_pos_site_id
 _symmetry_equiv_pos_as_xyz
  1  'x, y, z'
loop_
 _atom_site_type_symbol
 _atom_site_label
 _atom_site_symmetry_multiplicity
 _atom_site_fract_x
 _atom_site_fract_y
 _atom_site_fract_z
 _atom_site_occupancy
  Li  Li0  1  0.66651300  0.66651300  0.09890600  1
  Li  Li1  1  0.00054800  0.00054800  0.00786300  1
  Li  Li2  1  0.00125400  0.00125400  0.50803600  1
  Li  Li3  1  0.33246200  0.33246200  0.60227100  1
  Nb  Nb0  1  0.66587200  0.66587200  0.50693900  1
  Nb  Nb1  1  0.33116100  0.33116100  0.00542600  1
  V  V0  1  0.82870800  0.82870800  0.78229600  1
  V  V1  1  0.17177000  0.65685500  0.28386900  1
  V  V2  1  0.65685500  0.17177000  0.28386900  1
  Cr  Cr0  1  0.34090500  0.82875300  0.78531300  1
  Cr  Cr1  1  0.82875300  0.34090500  0.78531300  1
  Cr  Cr2  1  0.16941400  0.16941400  0.28528800  1
  O  O0  1  0.33558100  0.83247300  0.40660600  1
  O  O1  1  0.51960400  0.51960400  0.66073900  1
  O  O2  1  0.66732400  0.66732400  0.89123000  1
  O  O3  1  0.99926900  0.99926900  0.69473500  1
  O  O4  1  0.99961900  0.99961900  0.19532700  1
  O  O5  1  0.83247300  0.33558100  0.40660600  1
  O  O6  1  0.51602300  0.95914200  0.65647400  1
  O  O7  1  0.95914200  0.51602300  0.65647400  1
  O  O8  1  0.16621100  0.16621100  0.90458000  1
  O  O9  1  0.83218200  0.83218200  0.40865000  1
  O  O10  1  0.04044600  0.47658800  0.15730100  1
  O  O11  1  0.47658800  0.04044600  0.15730100  1
  O  O12  1  0.33274100  0.33274100  0.39198500  1
  O  O13  1  0.17032500  0.66388000  0.90740400  1
  O  O14  1  0.47970800  0.47970800  0.15455600  1
  O  O15  1  0.66388000  0.17032500  0.90740400  1
loop_
_geom_bond_atom_site_label_1
_geom_bond_atom_site_label_2
_geom_bond_distance
_geom_bond_site_symmetry_2
Li0 O2 2.011049 1_554
Li0 O14 2.018085 1_555
Li0 O10 2.029088 1_655
Li0 O11 2.029088 1_565
Li1 O4 1.815316 1_445
Li1 O8 1.989610 1_554
Li1 O13 2.007969 1_544
Li1 O15 2.007969 1_454
Li2 O3 1.807900 1_445
Li2 O5 1.994249 1_455
Li2 O0 1.994249 1_545
Li2 O9 2.017661 1_445
Li3 O6 2.010404 1_545
Li3 O7 2.010404 1_455
Li3 O12 2.036359 1_555
Li3 O1 2.038546 1_555
Nb0 O9 1.972041 1_555
Nb0 O5 1.978396 1_555
Nb0 O0 1.978396 1_555
Nb0 O6 2.108664 1_555
Nb0 O7 2.108664 1_555
Nb0 O1 2.123097 1_555
Nb1 O15 1.971206 1_554
Nb1 O13 1.971206 1_554
Nb1 O8 1.986977 1_554
Nb1 O10 2.105258 1_555
Nb1 O11 2.105258 1_555
Nb1 O14 2.128359 1_555
Cr0 O3 1.986223 1_455
Cr0 O2 1.988564 1_555
Cr0 O1 2.019563 1_555
Cr0 O6 2.019998 1_555
Cr0 O13 2.103596 1_555
Cr0 O8 2.106479 1_565
Cr1 O3 1.986223 1_545
Cr1 O2 1.988564 1_555
Cr1 O1 2.019563 1_555
Cr1 O7 2.019998 1_555
Cr1 O15 2.103596 1_555
Cr1 O8 2.106479 1_655
Cr2 O4 1.981789 1_445
Cr2 O12 2.001342 1_555
Cr2 O10 2.023485 1_555
Cr2 O11 2.023485 1_555
Cr2 O5 2.106359 1_455
Cr2 O0 2.106359 1_545
O0 V1 2.142361 1_555
O2 V0 1.979319 1_555
O3 V0 1.964829 1_555
O4 V1 1.975776 1_655
O4 V2 1.975776 1_565
O5 V2 2.142361 1_555
O6 V0 2.044476 1_555
O7 V0 2.044476 1_555
O9 V1 2.136768 1_655
O9 V2 2.136768 1_565
O10 V1 2.050372 1_555
O11 V2 2.050372 1_555
O12 V1 1.981314 1_555
O12 V2 1.981314 1_555
O13 V0 2.156592 1_455
O14 V1 2.034518 1_555
O14 V2 2.034518 1_555
O15 V0 2.156592 1_545
