# generated using pymatgen
data_Li2VGaO4
_symmetry_space_group_name_H-M   'P 1'
_cell_length_a   5.06343229
_cell_length_b   10.53135583
_cell_length_c   8.77174141
_cell_angle_alpha   74.75822169
_cell_angle_beta   73.85314387
_cell_angle_gamma   76.54726796
_symmetry_Int_Tables_number   1
_chemical_formula_structural   Li2VGaO4
_chemical_formula_sum   'Li12 V6 Ga6 O24'
_cell_volume   427.02454984
_cell_formula_units_Z   6
loop_
 _symmetry_equiv_pos_site_id
 _symmetry_equiv_pos_as_xyz
  1  'x, y, z'
loop_
 _atom_site_type_symbol
 _atom_site_label
 _atom_site_symmetry_multiplicity
 _atom_site_fract_x
 _atom_site_fract_y
 _atom_site_fract_z
 _atom_site_occupancy
  Li  Li0  1  0.00319158  0.75047127  0.24912212  1
  Li  Li1  1  0.00313909  0.25050445  0.74910274  1
  Li  Li2  1  -0.00193876  0.49904053  0.83349544  1
  Li  Li3  1  -0.00189904  -0.00097059  0.33349462  1
  Li  Li4  1  0.00170648  0.50038603  0.16291171  1
  Li  Li5  1  0.00171070  0.00034189  0.66294664  1
  Li  Li6  1  0.99801763  0.74928035  0.92075499  1
  Li  Li7  1  0.99799388  0.24927974  0.42077935  1
  Li  Li8  1  0.00061302  0.99423803  0.00411847  1
  Li  Li9  1  0.00049028  0.49429245  0.50420687  1
  Li  Li10  1  0.99927446  0.25643593  0.08019203  1
  Li  Li11  1  0.99928042  0.75640168  0.58023238  1
  V  V0  1  0.49975726  0.37505611  0.29168520  1
  V  V1  1  0.50039513  0.62176078  0.37921606  1
  V  V2  1  0.49962665  0.12826212  0.20399997  1
  V  V3  1  0.49978345  0.87509055  0.79168695  1
  V  V4  1  0.50038752  0.12179294  0.87923626  1
  V  V5  1  0.49959989  0.62822817  0.70403436  1
  Ga  Ga0  1  0.49994743  0.62496286  0.04151219  1
  Ga  Ga1  1  0.49991689  0.12500344  0.54151315  1
  Ga  Ga2  1  0.50029747  0.87156492  0.12794288  1
  Ga  Ga3  1  0.50024055  0.37151990  0.62797554  1
  Ga  Ga4  1  0.49993768  0.37836172  0.95523125  1
  Ga  Ga5  1  0.49995548  0.87841268  0.45520635  1
  O  O0  1  0.26978780  0.55866914  0.60177386  1
  O  O1  1  0.26982752  0.05867915  0.10171880  1
  O  O2  1  0.73001351  0.19134810  0.98156648  1
  O  O3  1  0.73003527  0.69131674  0.48163168  1
  O  O4  1  0.27350057  0.31208645  0.85131663  1
  O  O5  1  0.27355918  0.81206481  0.35130680  1
  O  O6  1  0.72644418  0.43796123  0.73190411  1
  O  O7  1  0.72645730  0.93796374  0.23191160  1
  O  O8  1  0.26947048  0.31540811  0.17874453  1
  O  O9  1  0.26942005  0.81540315  0.67872996  1
  O  O10  1  0.73039148  0.43461910  0.40456725  1
  O  O11  1  0.73041769  0.93461404  0.90457007  1
  O  O12  1  0.27354865  0.56271544  0.93230315  1
  O  O13  1  0.27351958  0.06272379  0.43232391  1
  O  O14  1  0.72643693  0.68722858  0.15088613  1
  O  O15  1  0.72640759  0.18725878  0.65090889  1
  O  O16  1  0.27240532  0.55948160  0.26743560  1
  O  O17  1  0.27242413  0.05951291  0.76744398  1
  O  O18  1  0.72740984  0.69058088  0.81582140  1
  O  O19  1  0.72736883  0.19064670  0.31582538  1
  O  O20  1  0.27192950  0.80688473  0.02382413  1
  O  O21  1  0.27192950  0.30692775  0.52380344  1
  O  O22  1  0.72792987  0.44307815  0.05955301  1
  O  O23  1  0.72793608  0.94310395  0.55952770  1
loop_
_geom_bond_atom_site_label_1
_geom_bond_atom_site_label_2
_geom_bond_distance
_geom_bond_site_symmetry_2
Li0 O20 2.091234 1_555
Li0 O5 2.121249 1_555
Li0 O14 2.134830 1_455
Li0 O7 2.135099 1_455
Li0 O16 2.146114 1_555
Li0 O3 2.150489 1_455
Li1 O21 2.091382 1_555
Li1 O4 2.121329 1_555
Li1 O15 2.134502 1_455
Li1 O6 2.134723 1_455
Li1 O17 2.146289 1_555
Li1 O2 2.150144 1_455
Li2 O22 2.098153 1_456
Li2 O6 2.119920 1_455
Li2 O4 2.127866 1_555
Li2 O12 2.135397 1_555
Li2 O0 2.143421 1_555
Li2 O18 2.153746 1_455
Li3 O23 2.098010 1_445
Li3 O7 2.119902 1_445
Li3 O5 2.127993 1_545
Li3 O13 2.135349 1_555
Li3 O1 2.143794 1_555
Li3 O19 2.154549 1_455
Li4 O8 2.094285 1_555
Li4 O22 2.117533 1_455
Li4 O16 2.121929 1_555
Li4 O14 2.126556 1_455
Li4 O12 2.142656 1_554
Li4 O10 2.216165 1_455
Li5 O9 2.093845 1_545
Li5 O23 2.117482 1_445
Li5 O17 2.122273 1_555
Li5 O15 2.127227 1_455
Li5 O13 2.142780 1_555
Li5 O11 2.215835 1_445
Li6 O11 2.096776 1_555
Li6 O20 2.118088 1_656
Li6 O18 2.121701 1_555
Li6 O12 2.124987 1_655
Li6 O14 2.138585 1_556
Li6 O9 2.219400 1_655
Li7 O10 2.096827 1_555
Li7 O21 2.118172 1_655
Li7 O19 2.121509 1_555
Li7 O13 2.124904 1_655
Li7 O15 2.138521 1_555
Li7 O8 2.219633 1_655
Li8 O11 2.093084 1_454
Li8 O1 2.106353 1_565
Li8 O7 2.118538 1_455
Li8 O20 2.121743 1_555
Li8 O17 2.185718 1_564
Li8 O2 2.199327 1_464
Li9 O10 2.093508 1_455
Li9 O0 2.106114 1_555
Li9 O6 2.117817 1_455
Li9 O21 2.122100 1_555
Li9 O16 2.186346 1_555
Li9 O3 2.198316 1_455
Li10 O8 2.083324 1_655
Li10 O22 2.116302 1_555
Li10 O2 2.116546 1_554
Li10 O4 2.124049 1_654
Li10 O19 2.180780 1_555
Li10 O1 2.204401 1_655
Li11 O9 2.082931 1_655
Li11 O3 2.116315 1_555
Li11 O23 2.116791 1_555
Li11 O5 2.124498 1_655
Li11 O18 2.180505 1_555
Li11 O0 2.204106 1_655
Ga0 O22 1.984974 1_555
Ga0 O20 1.985399 1_555
Ga0 O12 1.988011 1_554
Ga0 O14 1.989541 1_555
Ga0 O18 2.026349 1_554
Ga0 O16 2.027678 1_555
Ga1 O23 1.985173 1_545
Ga1 O21 1.985359 1_555
Ga1 O13 1.988079 1_555
Ga1 O15 1.989621 1_555
Ga1 O19 2.026367 1_555
Ga1 O17 2.027653 1_555
Ga2 O20 1.978933 1_555
Ga2 O7 1.980106 1_555
Ga2 O5 1.996904 1_555
Ga2 O14 2.002196 1_555
Ga2 O11 2.010919 1_554
Ga2 O1 2.034421 1_565
Ga3 O21 1.978482 1_555
Ga3 O6 1.980302 1_555
Ga3 O4 1.996627 1_555
Ga3 O15 2.001606 1_555
Ga3 O10 2.011316 1_555
Ga3 O0 2.034681 1_555
Ga4 O22 1.978928 1_556
Ga4 O4 1.980082 1_555
Ga4 O6 1.996425 1_555
Ga4 O12 2.002817 1_555
Ga4 O8 2.012282 1_556
Ga4 O2 2.032828 1_555
Ga5 O23 1.978720 1_555
Ga5 O5 1.980290 1_555
Ga5 O7 1.996109 1_555
Ga5 O13 2.002540 1_565
Ga5 O9 2.012604 1_555
Ga5 O3 2.033548 1_555
O0 V5 2.004487 1_555
O0 V1 2.006783 1_555
O1 V2 2.004719 1_555
O1 V4 2.006261 1_554
O2 V4 2.004149 1_555
O2 V2 2.005548 1_556
O3 V1 2.004739 1_555
O3 V5 2.005453 1_555
O4 V4 2.055041 1_555
O5 V1 2.055035 1_555
O6 V5 2.054727 1_555
O7 V2 2.054978 1_565
O8 V0 2.011529 1_555
O8 V2 2.033955 1_555
O9 V3 2.012180 1_555
O9 V5 2.034252 1_555
O10 V0 2.012024 1_555
O10 V1 2.033624 1_555
O11 V3 2.011791 1_555
O11 V4 2.034003 1_565
O12 V5 2.040032 1_555
O13 V2 2.040549 1_555
O14 V1 2.040310 1_555
O15 V4 2.040249 1_555
O16 V0 2.005355 1_555
O16 V1 2.011031 1_555
O17 V3 2.005342 1_545
O17 V4 2.011007 1_555
O18 V3 2.006586 1_555
O18 V5 2.010813 1_555
O19 V0 2.005706 1_555
O19 V2 2.010988 1_555
O20 V3 2.074423 1_554
O21 V0 2.074075 1_555
O22 V0 2.074558 1_555
O23 V3 2.074676 1_555
