# generated using pymatgen
data_Na5LiMn2P2(CO7)2
_symmetry_space_group_name_H-M   'P 1'
_cell_length_a   6.76701100
_cell_length_b   8.98329939
_cell_length_c   10.37511082
_cell_angle_alpha   90.03286748
_cell_angle_beta   90.34279558
_cell_angle_gamma   90.64055281
_symmetry_Int_Tables_number   1
_chemical_formula_structural   Na5LiMn2P2(CO7)2
_chemical_formula_sum   'Na10 Li2 Mn4 P4 C4 O28'
_cell_volume   630.65304559
_cell_formula_units_Z   2
loop_
 _symmetry_equiv_pos_site_id
 _symmetry_equiv_pos_as_xyz
  1  'x, y, z'
loop_
 _atom_site_type_symbol
 _atom_site_label
 _atom_site_symmetry_multiplicity
 _atom_site_fract_x
 _atom_site_fract_y
 _atom_site_fract_z
 _atom_site_occupancy
  Na  Na0  1  0.24394100  0.91743100  0.62903700  1
  Na  Na1  1  0.24794200  0.91638200  0.13050400  1
  Na  Na2  1  0.49836500  0.74221400  0.37370500  1
  Na  Na3  1  0.00092900  0.74164200  0.87371800  1
  Na  Na4  1  0.49902800  0.74085600  0.87331400  1
  Na  Na5  1  0.50163500  0.25778600  0.62629500  1
  Na  Na6  1  0.50097200  0.25914400  0.12668600  1
  Na  Na7  1  0.99907100  0.25835800  0.12628200  1
  Na  Na8  1  0.75605900  0.08256900  0.37096300  1
  Na  Na9  1  0.75205800  0.08361800  0.86949600  1
  Li  Li0  1  0.01212900  0.72989100  0.36891400  1
  Li  Li1  1  0.98787100  0.27010900  0.63108600  1
  Mn  Mn0  1  0.75018800  0.63881600  0.63684300  1
  Mn  Mn1  1  0.75276800  0.63806400  0.14182100  1
  Mn  Mn2  1  0.24981200  0.36118400  0.36315700  1
  Mn  Mn3  1  0.24723200  0.36193600  0.85817900  1
  P  P0  1  0.24163000  0.58743200  0.59855300  1
  P  P1  1  0.25056100  0.58829100  0.10317600  1
  P  P2  1  0.75837000  0.41256800  0.40144700  1
  P  P3  1  0.74943900  0.41170900  0.89682400  1
  C  C0  1  0.75790700  0.94408400  0.61725700  1
  C  C1  1  0.75100000  0.93935400  0.11839800  1
  C  C2  1  0.24209300  0.05591600  0.38274300  1
  C  C3  1  0.24900000  0.06064600  0.88160200  1
  O  O0  1  0.23079900  0.91154100  0.39239200  1
  O  O1  1  0.25246800  0.91657600  0.89256600  1
  O  O2  1  0.75056200  0.88075100  0.73033100  1
  O  O3  1  0.75279600  0.87723900  0.23144300  1
  O  O4  1  0.75279800  0.86028900  0.51470800  1
  O  O5  1  0.75293000  0.85568400  0.01560300  1
  O  O6  1  0.06486200  0.68151600  0.64524600  1
  O  O7  1  0.43247000  0.67321900  0.64034100  1
  O  O8  1  0.06912800  0.68021600  0.14751700  1
  O  O9  1  0.43692100  0.68056800  0.14312700  1
  O  O10  1  0.23436100  0.57733900  0.44769700  1
  O  O11  1  0.76580300  0.57403200  0.34600300  1
  O  O12  1  0.24621700  0.57112300  0.95303100  1
  O  O13  1  0.74903900  0.56934900  0.83646800  1
  O  O14  1  0.23419700  0.42596800  0.65399700  1
  O  O15  1  0.76563900  0.42266100  0.55230300  1
  O  O16  1  0.25096100  0.43065100  0.16353200  1
  O  O17  1  0.75378300  0.42887700  0.04696900  1
  O  O18  1  0.56753000  0.32678100  0.35965900  1
  O  O19  1  0.93513800  0.31848400  0.35475400  1
  O  O20  1  0.56307900  0.31943200  0.85687300  1
  O  O21  1  0.93087200  0.31978400  0.85248300  1
  O  O22  1  0.24720200  0.13971100  0.48529200  1
  O  O23  1  0.24707000  0.14431600  0.98439700  1
  O  O24  1  0.24943800  0.11924900  0.26966900  1
  O  O25  1  0.24720400  0.12276100  0.76855700  1
  O  O26  1  0.76920100  0.08845900  0.60760800  1
  O  O27  1  0.74753200  0.08342400  0.10743400  1
loop_
_geom_bond_atom_site_label_1
_geom_bond_atom_site_label_2
_geom_bond_distance
_geom_bond_site_symmetry_2
Na0 O25 2.343890 1_565
Na0 O6 2.435908 1_555
Na0 O0 2.456815 1_555
Na0 O22 2.492938 1_565
Na0 O7 2.552516 1_555
Na0 O1 2.734423 1_555
Na1 O24 2.324307 1_565
Na1 O8 2.437602 1_555
Na1 O1 2.469008 1_554
Na1 O9 2.489778 1_555
Na1 O23 2.548392 1_564
Na1 O0 2.720637 1_555
Na2 O0 2.386457 1_555
Na2 O11 2.388993 1_555
Na2 O10 2.435825 1_555
Na2 O4 2.481311 1_555
Na2 O9 2.486756 1_555
Na2 O3 2.569041 1_555
Na2 O7 2.871653 1_555
Na3 O1 2.311067 1_555
Na3 O13 2.320092 1_455
Na3 O12 2.412618 1_555
Na3 O5 2.469658 1_456
Na3 O6 2.472619 1_555
Na3 O2 2.581572 1_455
Na4 O1 2.319056 1_555
Na4 O13 2.333991 1_555
Na4 O12 2.428117 1_555
Na4 O5 2.474623 1_556
Na4 O7 2.528573 1_555
Na4 O2 2.581045 1_555
Na4 O9 2.883917 1_556
Na5 O26 2.386457 1_555
Na5 O14 2.388993 1_555
Na5 O15 2.435825 1_555
Na5 O22 2.481311 1_555
Na5 O20 2.486756 1_555
Na5 O25 2.569041 1_555
Na5 O18 2.871653 1_555
Na6 O27 2.319056 1_555
Na6 O16 2.333991 1_555
Na6 O17 2.428117 1_555
Na6 O23 2.474623 1_554
Na6 O18 2.528573 1_555
Na6 O24 2.581045 1_555
Na6 O20 2.883917 1_554
Na7 O27 2.311067 1_555
Na7 O16 2.320092 1_655
Na7 O17 2.412618 1_555
Na7 O23 2.469658 1_654
Na7 O19 2.472619 1_555
Na7 O24 2.581572 1_655
Na8 O3 2.343890 1_545
Na8 O19 2.435908 1_555
Na8 O26 2.456815 1_555
Na8 O4 2.492938 1_545
Na8 O18 2.552516 1_555
Na8 O27 2.734423 1_555
Na9 O2 2.324307 1_545
Na9 O21 2.437602 1_555
Na9 O27 2.469008 1_556
Na9 O20 2.489778 1_555
Na9 O5 2.548392 1_546
Na9 O26 2.720637 1_555
Li0 O11 2.176713 1_455
Li0 O10 2.200085 1_555
Li0 O0 2.202961 1_555
Li0 O8 2.374337 1_555
Li0 O4 2.610668 1_455
Li0 O3 2.624925 1_455
Li1 O14 2.176713 1_655
Li1 O15 2.200085 1_555
Li1 O26 2.202961 1_555
Li1 O21 2.374337 1_555
Li1 O22 2.610668 1_655
Li1 O25 2.624925 1_655
Mn0 O15 2.134120 1_555
Mn0 O6 2.160688 1_655
Mn0 O13 2.163479 1_555
Mn0 O7 2.176032 1_555
Mn0 O4 2.359393 1_555
Mn0 O2 2.379452 1_555
Mn1 O17 2.120873 1_555
Mn1 O8 2.170320 1_655
Mn1 O9 2.175497 1_555
Mn1 O11 2.196957 1_555
Mn1 O3 2.340661 1_555
Mn1 O5 2.353631 1_555
Mn2 O10 2.134120 1_555
Mn2 O19 2.160688 1_455
Mn2 O16 2.163479 1_555
Mn2 O18 2.176032 1_555
Mn2 O22 2.359393 1_555
Mn2 O24 2.379452 1_555
Mn3 O12 2.120873 1_555
Mn3 O21 2.170320 1_455
Mn3 O20 2.175497 1_555
Mn3 O14 2.196957 1_555
Mn3 O25 2.340661 1_555
Mn3 O23 2.353631 1_555
C0 O26 1.302307 1_565
C0 O4 1.303035 1_555
C0 O2 1.305100 1_555
C1 O3 1.299165 1_555
C1 O27 1.299739 1_565
C1 O5 1.304619 1_555
C2 O0 1.302307 1_545
C2 O22 1.303035 1_555
C2 O24 1.305100 1_555
C3 O25 1.299165 1_555
C3 O1 1.299739 1_545
C3 O23 1.304619 1_555
O6 P0 1.552085 1_555
O7 P0 1.555729 1_555
O8 P1 1.558830 1_555
O9 P1 1.555416 1_555
O10 P0 1.568166 1_555
O11 P2 1.561087 1_555
O12 P1 1.565367 1_556
O13 P3 1.548752 1_555
O14 P0 1.561087 1_555
O15 P2 1.568166 1_555
O16 P1 1.548752 1_555
O17 P3 1.565367 1_554
O18 P2 1.555729 1_555
O19 P2 1.552085 1_555
O20 P3 1.555416 1_555
O21 P3 1.558830 1_555
