# generated using pymatgen
data_CeScO3
_symmetry_space_group_name_H-M   'P 1'
_cell_length_a   5.62210231
_cell_length_b   5.81908325
_cell_length_c   8.04918263
_cell_angle_alpha   90.00000000
_cell_angle_beta   90.00000000
_cell_angle_gamma   90.00000000
_symmetry_Int_Tables_number   1
_chemical_formula_structural   CeScO3
_chemical_formula_sum   'Ce4 Sc4 O12'
_cell_volume   263.33288447
_cell_formula_units_Z   4
loop_
 _symmetry_equiv_pos_site_id
 _symmetry_equiv_pos_as_xyz
  1  'x, y, z'
loop_
 _atom_site_type_symbol
 _atom_site_label
 _atom_site_symmetry_multiplicity
 _atom_site_fract_x
 _atom_site_fract_y
 _atom_site_fract_z
 _atom_site_occupancy
  Ce  Ce0  1  0.98704771  0.05465754  0.25000000  1
  Ce  Ce1  1  0.48704771  0.44534246  0.75000000  1
  Ce  Ce2  1  0.51295229  0.55465754  0.25000000  1
  Ce  Ce3  1  0.01295229  0.94534246  0.75000000  1
  Sc  Sc0  1  0.50000000  -0.00000000  0.00000000  1
  Sc  Sc1  1  0.50000000  -0.00000000  0.50000000  1
  Sc  Sc2  1  -0.00000000  0.50000000  0.00000000  1
  Sc  Sc3  1  -0.00000000  0.50000000  0.50000000  1
  O  O0  1  0.60712983  0.03924686  0.75000000  1
  O  O1  1  0.19811541  0.19951977  0.94419714  1
  O  O2  1  0.19811541  0.19951977  0.55580286  1
  O  O3  1  0.69811541  0.30048023  0.05580286  1
  O  O4  1  0.69811541  0.30048023  0.44419714  1
  O  O5  1  0.10712983  0.46075314  0.25000000  1
  O  O6  1  0.89287017  0.53924686  0.75000000  1
  O  O7  1  0.30188459  0.69951977  0.55580286  1
  O  O8  1  0.30188459  0.69951977  0.94419714  1
  O  O9  1  0.80188459  0.80048023  0.44419714  1
  O  O10  1  0.80188459  0.80048023  0.05580286  1
  O  O11  1  0.39287017  0.96075314  0.25000000  1
loop_
_geom_bond_atom_site_label_1
_geom_bond_atom_site_label_2
_geom_bond_distance
_geom_bond_site_symmetry_2
Ce0 O11 2.346099 1_645
Ce0 O9 2.390552 1_545
Ce0 O10 2.390552 1_545
Ce0 O5 2.457649 1_655
Ce0 O3 2.669886 1_555
Ce0 O4 2.669886 1_555
Ce0 O1 2.859636 1_654
Ce0 O2 2.859636 1_655
Ce1 O6 2.346099 1_555
Ce1 O8 2.390552 1_555
Ce1 O7 2.390552 1_555
Ce1 O0 2.457649 1_555
Ce1 O2 2.669886 1_555
Ce1 O1 2.669886 1_555
Ce1 O4 2.859636 1_555
Ce1 O3 2.859636 1_556
Ce2 O5 2.346099 1_555
Ce2 O3 2.390552 1_555
Ce2 O4 2.390552 1_555
Ce2 O11 2.457649 1_555
Ce2 O9 2.669886 1_555
Ce2 O10 2.669886 1_555
Ce2 O7 2.859636 1_555
Ce2 O8 2.859636 1_554
Ce3 O0 2.346099 1_465
Ce3 O1 2.390552 1_565
Ce3 O2 2.390552 1_565
Ce3 O6 2.457649 1_455
Ce3 O7 2.669886 1_555
Ce3 O8 2.669886 1_555
Ce3 O9 2.859636 1_455
Ce3 O10 2.859636 1_456
O0 Sc0 2.112877 1_556
O0 Sc1 2.112877 1_555
O1 Sc0 2.104828 1_556
O1 Sc2 2.121244 1_556
O2 Sc1 2.104828 1_555
O2 Sc3 2.121244 1_555
O3 Sc2 2.104828 1_655
O3 Sc0 2.121244 1_555
O4 Sc3 2.104828 1_655
O4 Sc1 2.121244 1_555
O5 Sc3 2.112877 1_555
O5 Sc2 2.112877 1_555
O6 Sc3 2.112877 1_655
O6 Sc2 2.112877 1_656
O7 Sc3 2.104828 1_555
O7 Sc1 2.121244 1_565
O8 Sc2 2.104828 1_556
O8 Sc0 2.121244 1_566
O9 Sc1 2.104828 1_565
O9 Sc3 2.121244 1_655
O10 Sc0 2.104828 1_565
O10 Sc2 2.121244 1_655
O11 Sc1 2.112877 1_565
O11 Sc0 2.112877 1_565
