# generated using pymatgen
data_LiVF3
_symmetry_space_group_name_H-M   'P 1'
_cell_length_a   5.00538800
_cell_length_b   8.82867800
_cell_length_c   10.67567400
_cell_angle_alpha   90.00000000
_cell_angle_beta   90.00000000
_cell_angle_gamma   90.00000000
_symmetry_Int_Tables_number   1
_chemical_formula_structural   LiVF3
_chemical_formula_sum   'Li8 V8 F24'
_cell_volume   471.76827115
_cell_formula_units_Z   8
loop_
 _symmetry_equiv_pos_site_id
 _symmetry_equiv_pos_as_xyz
  1  'x, y, z'
loop_
 _atom_site_type_symbol
 _atom_site_label
 _atom_site_symmetry_multiplicity
 _atom_site_fract_x
 _atom_site_fract_y
 _atom_site_fract_z
 _atom_site_occupancy
  Li  Li0  1  0.99626200  0.78567500  0.60104200  1
  Li  Li1  1  0.50373800  0.78567500  0.10104200  1
  Li  Li2  1  0.99626200  0.71432500  0.10104200  1
  Li  Li3  1  0.50373800  0.71432500  0.60104200  1
  Li  Li4  1  0.00373800  0.28567500  0.89895800  1
  Li  Li5  1  0.49626200  0.28567500  0.39895800  1
  Li  Li6  1  0.49626200  0.21432500  0.89895800  1
  Li  Li7  1  0.00373800  0.21432500  0.39895800  1
  V  V0  1  0.99314100  0.91370800  0.86363100  1
  V  V1  1  0.50685900  0.91370800  0.36363100  1
  V  V2  1  0.99314100  0.58629200  0.36363100  1
  V  V3  1  0.50685900  0.58629200  0.86363100  1
  V  V4  1  0.00685900  0.41370800  0.63636900  1
  V  V5  1  0.49314100  0.41370800  0.13636900  1
  V  V6  1  0.00685900  0.08629200  0.13636900  1
  V  V7  1  0.49314100  0.08629200  0.63636900  1
  F  F0  1  0.22355000  0.91473600  0.69696000  1
  F  F1  1  0.27645000  0.91473600  0.19696000  1
  F  F2  1  0.80239700  0.90484700  0.04253800  1
  F  F3  1  0.69760300  0.90484700  0.54253800  1
  F  F4  1  0.75000000  0.75000000  0.77200600  1
  F  F5  1  0.75000000  0.75000000  0.27200600  1
  F  F6  1  0.25000000  0.75000000  0.95490700  1
  F  F7  1  0.25000000  0.75000000  0.45490700  1
  F  F8  1  0.69760300  0.59515300  0.04253800  1
  F  F9  1  0.80239700  0.59515300  0.54253800  1
  F  F10  1  0.22355000  0.58526400  0.19696000  1
  F  F11  1  0.27645000  0.58526400  0.69696000  1
  F  F12  1  0.77645000  0.41473600  0.80304000  1
  F  F13  1  0.72355000  0.41473600  0.30304000  1
  F  F14  1  0.19760300  0.40484700  0.45746200  1
  F  F15  1  0.30239700  0.40484700  0.95746200  1
  F  F16  1  0.75000000  0.25000000  0.54509300  1
  F  F17  1  0.75000000  0.25000000  0.04509300  1
  F  F18  1  0.25000000  0.25000000  0.72799400  1
  F  F19  1  0.25000000  0.25000000  0.22799400  1
  F  F20  1  0.30239700  0.09515300  0.45746200  1
  F  F21  1  0.19760300  0.09515300  0.95746200  1
  F  F22  1  0.77645000  0.08526400  0.30304000  1
  F  F23  1  0.72355000  0.08526400  0.80304000  1
loop_
_geom_bond_atom_site_label_1
_geom_bond_atom_site_label_2
_geom_bond_distance
_geom_bond_site_symmetry_2
F0 Li0 1.908181 1_455
F0 V0 2.120413 1_455
F0 V7 2.129170 1_565
F0 Li3 2.479127 1_555
F1 Li1 1.908181 1_555
F1 V1 2.120413 1_555
F1 V6 2.129170 1_565
F1 Li2 2.479127 1_455
F2 Li1 1.931788 1_555
F2 Li2 2.039858 1_555
F2 V0 2.136722 1_554
F2 V6 2.148706 1_665
F3 Li0 1.931788 1_555
F3 Li3 2.039858 1_555
F3 V1 2.136722 1_555
F3 V7 2.148706 1_565
F4 V0 2.127648 1_555
F4 V3 2.127648 1_555
F4 Li3 2.224812 1_555
F4 Li0 2.224812 1_555
F5 V1 2.127648 1_555
F5 V2 2.127648 1_555
F5 Li1 2.224812 1_555
F5 Li2 2.224812 1_555
F6 Li2 2.036204 1_456
F6 Li1 2.036204 1_556
F6 V0 2.165977 1_455
F6 V3 2.165977 1_555
F7 Li3 2.036204 1_555
F7 Li0 2.036204 1_455
F7 V1 2.165977 1_555
F7 V2 2.165977 1_455
F8 Li2 1.931788 1_555
F8 Li1 2.039858 1_555
F8 V3 2.136722 1_554
F8 V5 2.148706 1_555
F9 Li3 1.931788 1_555
F9 Li0 2.039858 1_555
F9 V2 2.136722 1_555
F9 V4 2.148706 1_655
F10 Li2 1.908181 1_455
F10 V2 2.120413 1_455
F10 V5 2.129170 1_555
F10 Li1 2.479127 1_555
F11 Li3 1.908181 1_555
F11 V3 2.120413 1_555
F11 V4 2.129170 1_555
F11 Li0 2.479127 1_455
F12 Li4 1.908181 1_655
F12 V4 2.120413 1_655
F12 V3 2.129170 1_555
F12 Li6 2.479127 1_555
F13 Li5 1.908181 1_555
F13 V5 2.120413 1_555
F13 V2 2.129170 1_555
F13 Li7 2.479127 1_655
F14 Li5 1.931788 1_555
F14 Li7 2.039858 1_555
F14 V4 2.136722 1_555
F14 V2 2.148706 1_455
F15 Li4 1.931788 1_555
F15 Li6 2.039858 1_555
F15 V5 2.136722 1_556
F15 V3 2.148706 1_555
F16 Li7 2.036204 1_655
F16 Li5 2.036204 1_555
F16 V4 2.165977 1_655
F16 V7 2.165977 1_555
F17 Li4 2.036204 1_654
F17 Li6 2.036204 1_554
F17 V5 2.165977 1_555
F17 V6 2.165977 1_655
F18 V4 2.127648 1_555
F18 V7 2.127648 1_555
F18 Li6 2.224812 1_555
F18 Li4 2.224812 1_555
F19 V5 2.127648 1_555
F19 V6 2.127648 1_555
F19 Li5 2.224812 1_555
F19 Li7 2.224812 1_555
F20 Li7 1.931788 1_555
F20 Li5 2.039858 1_555
F20 V7 2.136722 1_555
F20 V1 2.148706 1_545
F21 Li6 1.931788 1_555
F21 Li4 2.039858 1_555
F21 V6 2.136722 1_556
F21 V0 2.148706 1_445
F22 Li7 1.908181 1_655
F22 V6 2.120413 1_655
F22 V1 2.129170 1_545
F22 Li5 2.479127 1_555
F23 Li6 1.908181 1_555
F23 V7 2.120413 1_555
F23 V0 2.129170 1_545
F23 Li4 2.479127 1_655
