# generated using pymatgen
data_Li4V5Fe3O16
_symmetry_space_group_name_H-M   'P 1'
_cell_length_a   5.90102800
_cell_length_b   5.95171663
_cell_length_c   9.54574610
_cell_angle_alpha   89.39069586
_cell_angle_beta   89.18656825
_cell_angle_gamma   60.55642153
_symmetry_Int_Tables_number   1
_chemical_formula_structural   Li4V5Fe3O16
_chemical_formula_sum   'Li4 V5 Fe3 O16'
_cell_volume   291.92457999
_cell_formula_units_Z   1
loop_
 _symmetry_equiv_pos_site_id
 _symmetry_equiv_pos_as_xyz
  1  'x, y, z'
loop_
 _atom_site_type_symbol
 _atom_site_label
 _atom_site_symmetry_multiplicity
 _atom_site_fract_x
 _atom_site_fract_y
 _atom_site_fract_z
 _atom_site_occupancy
  Li  Li0  1  0.65817700  0.66826100  0.89674800  1
  Li  Li1  1  0.00659000  0.99939800  0.99471600  1
  Li  Li2  1  0.00087200  0.00714900  0.49475100  1
  Li  Li3  1  0.32689300  0.32990900  0.39204500  1
  V  V0  1  0.17058600  0.17889600  0.71967700  1
  V  V1  1  0.66666900  0.66705300  0.49075300  1
  V  V2  1  0.34652200  0.82191400  0.22108800  1
  V  V3  1  0.33303500  0.33430000  0.99003900  1
  V  V4  1  0.16817400  0.65763400  0.71009700  1
  Fe  Fe0  1  0.82933400  0.34019700  0.21184900  1
  Fe  Fe1  1  0.83097800  0.83287900  0.21061600  1
  Fe  Fe2  1  0.66572100  0.16693400  0.71275600  1
  O  O0  1  0.83852900  0.33449300  0.59619200  1
  O  O1  1  0.94777600  0.52560000  0.34641200  1
  O  O2  1  0.64604700  0.67893200  0.10439900  1
  O  O3  1  0.01427300  0.99594600  0.30543800  1
  O  O4  1  0.00823600  0.00732800  0.80577200  1
  O  O5  1  0.84060100  0.82958700  0.59810900  1
  O  O6  1  0.50939500  0.52620800  0.34414200  1
  O  O7  1  0.51450300  0.95827500  0.34293000  1
  O  O8  1  0.66899600  0.17013700  0.09710100  1
  O  O9  1  0.34870200  0.82272600  0.59466000  1
  O  O10  1  0.47262400  0.04032400  0.84384000  1
  O  O11  1  0.47244100  0.47579700  0.84598300  1
  O  O12  1  0.33220000  0.31473700  0.60249800  1
  O  O13  1  0.17588400  0.17412700  0.09445800  1
  O  O14  1  0.03443900  0.47433900  0.84341000  1
  O  O15  1  0.17180100  0.66661800  0.09735800  1
loop_
_geom_bond_atom_site_label_1
_geom_bond_atom_site_label_2
_geom_bond_distance
_geom_bond_site_symmetry_2
Li0 O2 1.983025 1_556
Li0 O10 1.991421 1_565
Li0 O14 1.995546 1_655
Li0 O11 2.002367 1_555
Li1 O4 1.803740 1_565
Li1 O15 1.980094 1_556
Li1 O8 1.982950 1_466
Li1 O13 2.013816 1_566
Li2 O3 1.808246 1_545
Li2 O0 1.957032 1_455
Li2 O5 1.979566 1_445
Li2 O9 2.036099 1_545
Li3 O7 1.984358 1_545
Li3 O6 1.986335 1_555
Li3 O1 2.001608 1_455
Li3 O12 2.009997 1_555
Fe0 O3 1.994370 1_645
Fe0 O8 2.028293 1_555
Fe0 O2 2.032267 1_555
Fe0 O1 2.042049 1_555
Fe0 O6 2.071707 1_555
Fe0 O13 2.094273 1_655
Fe1 O3 2.002415 1_655
Fe1 O2 2.023028 1_555
Fe1 O15 2.048756 1_655
Fe1 O8 2.052750 1_565
Fe1 O7 2.054927 1_555
Fe1 O1 2.058089 1_555
Fe2 O4 1.980245 1_655
Fe2 O12 2.022889 1_555
Fe2 O10 2.053190 1_555
Fe2 O0 2.053407 1_555
Fe2 O11 2.060265 1_555
Fe2 O5 2.066766 1_545
O0 V1 1.993071 1_555
O0 V0 2.084463 1_655
O1 V1 1.986379 1_555
O2 V2 1.890634 1_555
O3 V2 1.881904 1_555
O4 V0 1.886135 1_555
O4 V4 2.035032 1_545
O5 V4 2.004297 1_655
O5 V1 2.016558 1_555
O6 V2 1.930305 1_555
O6 V1 2.085508 1_555
O7 V2 1.959013 1_555
O7 V1 2.062889 1_555
O8 V3 2.015291 1_554
O9 V1 1.902744 1_555
O9 V4 2.070583 1_555
O9 V0 2.202327 1_565
O10 V0 1.963594 1_555
O10 V3 2.071193 1_555
O11 V3 1.975161 1_555
O11 V4 2.050238 1_555
O12 V0 1.876931 1_555
O12 V4 2.056968 1_555
O13 V3 1.893404 1_554
O13 V2 2.185150 1_545
O14 V0 1.939282 1_555
O14 V4 2.054435 1_555
O14 V3 2.088038 1_555
O15 V3 2.007984 1_554
O15 V2 2.075328 1_555
