# generated using pymatgen
data_MnFeO3
_symmetry_space_group_name_H-M   'P 1'
_cell_length_a   8.24329500
_cell_length_b   8.26158864
_cell_length_c   8.26695775
_cell_angle_alpha   109.34926995
_cell_angle_beta   108.58349517
_cell_angle_gamma   109.52411165
_symmetry_Int_Tables_number   1
_chemical_formula_structural   MnFeO3
_chemical_formula_sum   'Mn8 Fe8 O24'
_cell_volume   438.41711795
_cell_formula_units_Z   8
loop_
 _symmetry_equiv_pos_site_id
 _symmetry_equiv_pos_as_xyz
  1  'x, y, z'
loop_
 _atom_site_type_symbol
 _atom_site_label
 _atom_site_symmetry_multiplicity
 _atom_site_fract_x
 _atom_site_fract_y
 _atom_site_fract_z
 _atom_site_occupancy
  Mn  Mn0  1  0.00695900  0.00502200  0.50357500  1
  Mn  Mn1  1  0.25078400  0.03134700  0.27945900  1
  Mn  Mn2  1  0.03054500  0.28035200  0.25081400  1
  Mn  Mn3  1  0.78018500  0.74997300  0.03041300  1
  Mn  Mn4  1  0.27961700  0.74671400  0.53302900  1
  Mn  Mn5  1  0.49974700  0.50064800  0.49265500  1
  Mn  Mn6  1  0.74230700  0.46584900  0.20943600  1
  Mn  Mn7  1  0.49688800  0.99798800  0.99874200  1
  Fe  Fe0  1  0.46451800  0.21110800  0.74922500  1
  Fe  Fe1  1  0.25280900  0.54126500  0.79400200  1
  Fe  Fe2  1  0.99901800  0.49648300  0.00204000  1
  Fe  Fe3  1  0.71304000  0.25294500  0.46225700  1
  Fe  Fe4  1  0.20771200  0.24947500  0.95775400  1
  Fe  Fe5  1  0.96563800  0.71646300  0.75449300  1
  Fe  Fe6  1  0.54000500  0.78661500  0.25046800  1
  Fe  Fe7  1  0.74924900  0.96022000  0.70937600  1
  O  O0  1  0.04498000  0.77681100  0.04896100  1
  O  O1  1  0.49465600  0.27292200  0.52419800  1
  O  O2  1  0.74204400  0.74248400  0.78583200  1
  O  O3  1  0.05453300  0.54077100  0.27595500  1
  O  O4  1  0.22503300  0.94569900  0.49793900  1
  O  O5  1  0.44002900  0.20507900  0.00508400  1
  O  O6  1  0.73240500  0.44722900  0.96227200  1
  O  O7  1  0.23493400  0.78800000  0.80302200  1
  O  O8  1  0.01403000  0.05649200  0.29112700  1
  O  O9  1  0.53937300  0.97855100  0.77604900  1
  O  O10  1  0.28807100  0.51987200  0.56331700  1
  O  O11  1  0.75699000  0.71835900  0.25393800  1
  O  O12  1  0.45393400  0.99233600  0.22321000  1
  O  O13  1  0.74110000  0.51149700  0.45815500  1
  O  O14  1  0.23402100  0.28612300  0.73751200  1
  O  O15  1  0.76417900  0.22207900  0.22127500  1
  O  O16  1  0.99948500  0.95046400  0.71461000  1
  O  O17  1  0.27596300  0.54952900  0.05214800  1
  O  O18  1  0.54793000  0.78006700  0.00002100  1
  O  O19  1  0.25353800  0.27476200  0.21590600  1
  O  O20  1  0.76933500  0.04728000  0.49771100  1
  O  O21  1  0.95510300  0.45705900  0.72514100  1
  O  O22  1  0.51634500  0.72328400  0.45369300  1
  O  O23  1  0.94296900  0.22078700  0.93519000  1
loop_
_geom_bond_atom_site_label_1
_geom_bond_atom_site_label_2
_geom_bond_distance
_geom_bond_site_symmetry_2
Mn0 O8 1.952527 1_555
Mn0 O16 1.954912 1_445
Mn0 O4 2.025105 1_545
Mn0 O20 2.090200 1_455
Mn0 O14 2.109037 1_555
Mn0 O11 2.214221 1_445
Mn1 O0 1.957268 1_545
Mn1 O12 1.970342 1_545
Mn1 O1 2.041595 1_555
Mn1 O8 2.058891 1_555
Mn1 O4 2.190623 1_545
Mn1 O19 2.235591 1_555
Mn2 O8 1.954247 1_555
Mn2 O19 1.962244 1_555
Mn2 O15 1.996604 1_455
Mn2 O3 2.025900 1_555
Mn2 O23 2.298393 1_454
Mn2 O10 2.324977 1_555
Mn3 O2 1.920895 1_554
Mn3 O18 1.960457 1_555
Mn3 O11 2.007744 1_555
Mn3 O0 2.068300 1_655
Mn3 O6 2.234878 1_554
Mn3 O8 2.290482 1_665
Mn4 O4 1.927784 1_555
Mn4 O3 1.958208 1_555
Mn4 O10 1.991691 1_555
Mn4 O9 2.063167 1_555
Mn4 O22 2.293420 1_555
Mn4 O7 2.310286 1_555
Mn5 O22 1.938569 1_555
Mn5 O1 1.971964 1_555
Mn5 O10 2.045630 1_555
Mn5 O13 2.075351 1_555
Mn5 O19 2.125019 1_555
Mn5 O2 2.212185 1_555
Mn6 O11 1.948391 1_555
Mn6 O13 1.967685 1_555
Mn6 O6 1.970380 1_554
Mn6 O15 2.111885 1_555
Mn6 O5 2.240822 1_555
Mn6 O3 2.262153 1_655
Mn7 O5 1.908360 1_566
Mn7 O7 1.923425 1_555
Mn7 O9 1.946877 1_555
Mn7 O18 1.983582 1_556
Mn7 O12 2.009033 1_556
Mn7 O15 2.024758 1_566
Fe0 O6 2.036875 1_555
Fe0 O4 2.120145 1_545
Fe0 O1 2.149997 1_555
Fe0 O14 2.171001 1_555
Fe0 O5 2.202827 1_556
Fe0 O9 2.260269 1_545
Fe1 O14 1.941293 1_555
Fe1 O10 1.979123 1_555
Fe1 O17 2.056823 1_556
Fe1 O7 2.071107 1_555
Fe1 O21 2.129916 1_455
Fe1 O18 2.153098 1_556
Fe2 O6 1.989200 1_554
Fe2 O23 2.001620 1_554
Fe2 O3 2.037048 1_655
Fe2 O17 2.045405 1_655
Fe2 O21 2.091920 1_554
Fe2 O0 2.093368 1_655
Fe3 O20 1.989624 1_555
Fe3 O21 2.026509 1_555
Fe3 O1 2.064052 1_555
Fe3 O13 2.083294 1_555
Fe3 O15 2.117082 1_555
Fe3 O12 2.125888 1_545
Fe4 O19 1.969476 1_556
Fe4 O14 2.006701 1_555
Fe4 O5 2.010490 1_556
Fe4 O23 2.054058 1_455
Fe4 O17 2.139310 1_556
Fe4 O16 2.182980 1_445
Fe5 O7 1.958686 1_655
Fe5 O2 2.010681 1_555
Fe5 O16 2.011063 1_555
Fe5 O21 2.043729 1_555
Fe5 O13 2.135634 1_555
Fe5 O0 2.136681 1_656
Fe6 O22 1.964052 1_555
Fe6 O17 2.002484 1_555
Fe6 O11 2.042144 1_555
Fe6 O20 2.070843 1_565
Fe6 O18 2.075632 1_555
Fe6 O12 2.097773 1_555
Fe7 O23 1.951498 1_565
Fe7 O9 2.011835 1_555
Fe7 O22 2.035988 1_555
Fe7 O16 2.078446 1_555
Fe7 O2 2.084419 1_555
Fe7 O20 2.132062 1_565
