# generated using pymatgen
data_Li2Fe5B3O13
_symmetry_space_group_name_H-M   'P 1'
_cell_length_a   3.16669600
_cell_length_b   9.62085800
_cell_length_c   15.69930610
_cell_angle_alpha   72.96869542
_cell_angle_beta   90.00000000
_cell_angle_gamma   90.00000000
_symmetry_Int_Tables_number   1
_chemical_formula_structural   Li2Fe5B3O13
_chemical_formula_sum   'Li4 Fe10 B6 O26'
_cell_volume   457.32435970
_cell_formula_units_Z   2
loop_
 _symmetry_equiv_pos_site_id
 _symmetry_equiv_pos_as_xyz
  1  'x, y, z'
loop_
 _atom_site_type_symbol
 _atom_site_label
 _atom_site_symmetry_multiplicity
 _atom_site_fract_x
 _atom_site_fract_y
 _atom_site_fract_z
 _atom_site_occupancy
  Li  Li0  1  0.25000000  0.51292500  0.76094600  1
  Li  Li1  1  0.75000000  0.43355900  0.95130200  1
  Li  Li2  1  0.25000000  0.56644100  0.04869800  1
  Li  Li3  1  0.75000000  0.48707500  0.23905400  1
  Fe  Fe0  1  0.25000000  0.14274100  0.00058800  1
  Fe  Fe1  1  0.25000000  0.66567600  0.37459900  1
  Fe  Fe2  1  0.75000000  0.99880700  0.19499100  1
  Fe  Fe3  1  0.75000000  0.91849300  0.43744700  1
  Fe  Fe4  1  0.75000000  0.79375300  0.68900700  1
  Fe  Fe5  1  0.25000000  0.20624700  0.31099300  1
  Fe  Fe6  1  0.25000000  0.08150700  0.56255300  1
  Fe  Fe7  1  0.25000000  0.00119300  0.80500900  1
  Fe  Fe8  1  0.75000000  0.33432400  0.62540100  1
  Fe  Fe9  1  0.75000000  0.85725900  0.99941200  1
  B  B0  1  0.75000000  0.26136500  0.81833200  1
  B  B1  1  0.25000000  0.63163900  0.57465400  1
  B  B2  1  0.75000000  0.70221500  0.88008400  1
  B  B3  1  0.25000000  0.29778500  0.11991600  1
  B  B4  1  0.75000000  0.36836100  0.42534600  1
  B  B5  1  0.25000000  0.73863500  0.18166800  1
  O  O0  1  0.75000000  0.26143000  0.90742100  1
  O  O1  1  0.25000000  0.48428400  0.58381300  1
  O  O2  1  0.75000000  0.38444300  0.74776000  1
  O  O3  1  0.25000000  0.87080000  0.20115700  1
  O  O4  1  0.75000000  0.80313600  0.35122700  1
  O  O5  1  0.25000000  0.73564000  0.49204100  1
  O  O6  1  0.25000000  0.67680600  0.65187300  1
  O  O7  1  0.75000000  0.02259500  0.05893800  1
  O  O8  1  0.75000000  0.63076300  0.81656500  1
  O  O9  1  0.75000000  0.63882700  0.97156300  1
  O  O10  1  0.25000000  0.14627400  0.14305500  1
  O  O11  1  0.75000000  0.09453400  0.28953300  1
  O  O12  1  0.75000000  0.94912900  0.56770700  1
  O  O13  1  0.25000000  0.05087100  0.43229300  1
  O  O14  1  0.25000000  0.90546600  0.71046700  1
  O  O15  1  0.75000000  0.85372600  0.85694500  1
  O  O16  1  0.25000000  0.36117300  0.02843700  1
  O  O17  1  0.25000000  0.36923700  0.18343500  1
  O  O18  1  0.25000000  0.97740500  0.94106200  1
  O  O19  1  0.75000000  0.32319400  0.34812700  1
  O  O20  1  0.75000000  0.26436000  0.50795900  1
  O  O21  1  0.25000000  0.19686400  0.64877300  1
  O  O22  1  0.75000000  0.12920000  0.79884300  1
  O  O23  1  0.25000000  0.61555700  0.25224000  1
  O  O24  1  0.75000000  0.51571600  0.41618700  1
  O  O25  1  0.25000000  0.73857000  0.09257900  1
loop_
_geom_bond_atom_site_label_1
_geom_bond_atom_site_label_2
_geom_bond_distance
_geom_bond_site_symmetry_2
Li0 O6 1.958718 1_555
Li0 O2 2.056137 1_455
Li0 O2 2.056137 1_555
Li0 O8 2.265966 1_555
Li0 O8 2.265966 1_455
Li1 O0 1.971118 1_555
Li1 O16 1.991082 1_556
Li1 O16 1.991082 1_656
Li1 O9 2.090263 1_555
Li1 O8 2.392304 1_555
Li2 O25 1.971118 1_555
Li2 O9 1.991082 1_554
Li2 O9 1.991082 1_454
Li2 O16 2.090263 1_555
Li2 O17 2.392304 1_555
Li3 O19 1.958718 1_555
Li3 O23 2.056137 1_655
Li3 O23 2.056137 1_555
Li3 O17 2.265966 1_655
Li3 O17 2.265966 1_555
Fe0 O7 2.015439 1_555
Fe0 O7 2.015439 1_455
Fe0 O18 2.067450 1_544
Fe0 O0 2.229774 1_554
Fe0 O0 2.229774 1_454
Fe0 O10 2.246824 1_555
Fe0 O16 2.268411 1_555
Fe1 O4 2.026409 1_455
Fe1 O4 2.026409 1_555
Fe1 O24 2.112578 1_455
Fe1 O24 2.112578 1_555
Fe1 O23 2.113090 1_555
Fe1 O5 2.139982 1_555
Fe2 O11 1.962631 1_565
Fe2 O3 1.990781 1_555
Fe2 O3 1.990781 1_655
Fe2 O7 2.080446 1_565
Fe2 O10 2.122979 1_565
Fe2 O10 2.122979 1_665
Fe3 O4 1.985940 1_555
Fe3 O13 2.018713 1_565
Fe3 O13 2.018713 1_665
Fe3 O12 2.149872 1_555
Fe3 O5 2.335196 1_555
Fe3 O5 2.335196 1_655
Fe3 O11 2.440697 1_565
Fe4 O14 1.996936 1_655
Fe4 O14 1.996936 1_555
Fe4 O12 2.047799 1_555
Fe4 O6 2.120615 1_555
Fe4 O6 2.120615 1_655
Fe4 O8 2.151680 1_555
Fe5 O11 1.996936 1_555
Fe5 O11 1.996936 1_455
Fe5 O13 2.047799 1_555
Fe5 O19 2.120615 1_455
Fe5 O19 2.120615 1_555
Fe5 O17 2.151680 1_555
Fe6 O21 1.985940 1_555
Fe6 O12 2.018713 1_445
Fe6 O12 2.018713 1_545
Fe6 O13 2.149872 1_555
Fe6 O20 2.335196 1_555
Fe6 O20 2.335196 1_455
Fe6 O14 2.440697 1_545
Fe7 O14 1.962631 1_545
Fe7 O22 1.990781 1_455
Fe7 O22 1.990781 1_555
Fe7 O18 2.080446 1_545
Fe7 O15 2.122979 1_445
Fe7 O15 2.122979 1_545
Fe8 O21 2.026409 1_555
Fe8 O21 2.026409 1_655
Fe8 O1 2.112578 1_555
Fe8 O1 2.112578 1_655
Fe8 O2 2.113090 1_555
Fe8 O20 2.139982 1_555
Fe9 O18 2.015439 1_555
Fe9 O18 2.015439 1_655
Fe9 O7 2.067450 1_566
Fe9 O25 2.229774 1_656
Fe9 O25 2.229774 1_556
Fe9 O15 2.246824 1_555
Fe9 O9 2.268411 1_555
B0 O2 1.364234 1_555
B0 O22 1.392238 1_555
B0 O0 1.398819 1_555
B1 O1 1.382420 1_555
B1 O5 1.386756 1_555
B1 O6 1.402517 1_555
B2 O8 1.366945 1_555
B2 O9 1.386148 1_555
B2 O15 1.395194 1_555
B3 O17 1.366945 1_555
B3 O16 1.386148 1_555
B3 O10 1.395194 1_555
B4 O24 1.382420 1_555
B4 O20 1.386756 1_555
B4 O19 1.402517 1_555
B5 O23 1.364234 1_555
B5 O3 1.392238 1_555
B5 O25 1.398819 1_555
