# generated using pymatgen
data_PrAsO4
_symmetry_space_group_name_H-M   'P 1'
_cell_length_a   6.12598876
_cell_length_b   6.12598876
_cell_length_c   6.12598876
_cell_angle_alpha   106.40084762
_cell_angle_beta   106.40084762
_cell_angle_gamma   115.80366589
_symmetry_Int_Tables_number   1
_chemical_formula_structural   PrAsO4
_chemical_formula_sum   'Pr2 As2 O8'
_cell_volume   175.33398131
_cell_formula_units_Z   2
loop_
 _symmetry_equiv_pos_site_id
 _symmetry_equiv_pos_as_xyz
  1  'x, y, z'
loop_
 _atom_site_type_symbol
 _atom_site_label
 _atom_site_symmetry_multiplicity
 _atom_site_fract_x
 _atom_site_fract_y
 _atom_site_fract_z
 _atom_site_occupancy
  Pr  Pr0  1  0.75000000  0.25000000  0.50000000  1
  Pr  Pr1  1  -0.00000000  0.00000000  0.00000000  1
  As  As0  1  0.50000000  0.50000000  0.00000000  1
  As  As1  1  0.25000000  0.75000000  0.50000000  1
  O  O0  1  0.51126186  0.33331189  0.17794997  1
  O  O1  1  0.66668811  0.84463808  0.17794997  1
  O  O2  1  0.08331189  0.40536192  0.32205003  1
  O  O3  1  0.66668811  0.48873814  0.82205003  1
  O  O4  1  0.15536192  0.33331189  0.82205003  1
  O  O5  1  0.23873814  0.91668811  0.32205003  1
  O  O6  1  0.59463808  0.91668811  0.67794997  1
  O  O7  1  0.08331189  0.76126186  0.67794997  1
loop_
_geom_bond_atom_site_label_1
_geom_bond_atom_site_label_2
_geom_bond_distance
_geom_bond_site_symmetry_2
As0 O4 1.698027 1_554
As0 O0 1.698027 1_555
As0 O1 1.698027 1_555
As0 O3 1.698027 1_554
As1 O6 1.698027 1_555
As1 O7 1.698027 1_555
As1 O2 1.698027 1_555
As1 O5 1.698027 1_555
O0 Pr0 2.425009 1_555
O0 Pr1 2.532675 1_555
O1 Pr0 2.425009 1_565
O1 Pr1 2.532675 1_665
O2 Pr1 2.425009 1_555
O2 Pr0 2.532675 1_455
O3 Pr0 2.425009 1_555
O3 Pr1 2.532675 1_666
O4 Pr0 2.425009 1_455
O4 Pr1 2.532675 1_556
O5 Pr1 2.425009 1_565
O5 Pr0 2.532675 1_565
O6 Pr1 2.425009 1_666
O6 Pr0 2.532675 1_565
O7 Pr1 2.425009 1_566
O7 Pr0 2.532675 1_455
