# generated using pymatgen
data_Li3Mn(OF)2
_symmetry_space_group_name_H-M   'P 1'
_cell_length_a   5.97612238
_cell_length_b   5.97612238
_cell_length_c   9.39338851
_cell_angle_alpha   70.34339459
_cell_angle_beta   70.34339459
_cell_angle_gamma   86.23252379
_symmetry_Int_Tables_number   1
_chemical_formula_structural   Li3Mn(OF)2
_chemical_formula_sum   'Li12 Mn4 O8 F8'
_cell_volume   297.08969630
_cell_formula_units_Z   4
loop_
 _symmetry_equiv_pos_site_id
 _symmetry_equiv_pos_as_xyz
  1  'x, y, z'
loop_
 _atom_site_type_symbol
 _atom_site_label
 _atom_site_symmetry_multiplicity
 _atom_site_fract_x
 _atom_site_fract_y
 _atom_site_fract_z
 _atom_site_occupancy
  Li  Li0  1  0.54767200  0.29704800  0.13267500  1
  Li  Li1  1  0.29704800  0.54767200  0.63267500  1
  Li  Li2  1  0.19787800  0.94729200  0.36887100  1
  Li  Li3  1  0.54396500  0.82683000  0.12493100  1
  Li  Li4  1  0.19645100  0.43989200  0.38126600  1
  Li  Li5  1  0.07077000  0.82179000  0.12375100  1
  Li  Li6  1  0.94729200  0.19787800  0.86887100  1
  Li  Li7  1  0.82683000  0.54396500  0.62493100  1
  Li  Li8  1  0.43989200  0.19645100  0.88126600  1
  Li  Li9  1  0.82179000  0.07077000  0.62375100  1
  Li  Li10  1  0.68117500  0.44118800  0.35654800  1
  Li  Li11  1  0.44118800  0.68117500  0.85654800  1
  Mn  Mn0  1  0.06439900  0.30021000  0.11600000  1
  Mn  Mn1  1  0.30021000  0.06439900  0.61600000  1
  Mn  Mn2  1  0.67449600  0.93991400  0.37665400  1
  Mn  Mn3  1  0.93991400  0.67449600  0.87665400  1
  O  O0  1  0.80551800  0.05202900  0.14868300  1
  O  O1  1  0.05202900  0.80551800  0.64868300  1
  O  O2  1  0.29668100  0.07766300  0.12484800  1
  O  O3  1  0.83831300  0.55406400  0.10850500  1
  O  O4  1  0.07766300  0.29668100  0.62484800  1
  O  O5  1  0.55406400  0.83831300  0.60850500  1
  O  O6  1  0.44845400  0.18148800  0.37830000  1
  O  O7  1  0.18148800  0.44845400  0.87830000  1
  F  F0  1  0.43158600  0.67935100  0.37146500  1
  F  F1  1  0.67935100  0.43158600  0.87146500  1
  F  F2  1  0.92034400  0.68942200  0.38343800  1
  F  F3  1  0.31260100  0.56896900  0.13069000  1
  F  F4  1  0.68942200  0.92034400  0.88343800  1
  F  F5  1  0.56896900  0.31260100  0.63069000  1
  F  F6  1  0.94936700  0.20318100  0.37337400  1
  F  F7  1  0.20318100  0.94936700  0.87337400  1
loop_
_geom_bond_atom_site_label_1
_geom_bond_atom_site_label_2
_geom_bond_distance
_geom_bond_site_symmetry_2
Li0 O6 2.052649 1_555
Li0 O0 2.062123 1_555
Li0 O2 2.090849 1_555
Li0 O3 2.297443 1_555
Li1 O7 2.052649 1_555
Li1 O1 2.062123 1_555
Li1 O4 2.090849 1_555
Li1 O5 2.297443 1_555
Li2 O2 2.039185 1_565
Li2 O6 2.158045 1_565
Li2 O1 2.333142 1_555
Li3 O2 2.034648 1_565
Li3 O0 2.239927 1_565
Li3 O3 2.320573 1_555
Li4 O4 2.035019 1_555
Li4 O6 2.085336 1_555
Li5 O0 2.035004 1_465
Li5 O2 2.110045 1_565
Li5 O3 2.256177 1_455
Li6 O4 2.039185 1_655
Li6 O7 2.158045 1_655
Li6 O0 2.333142 1_556
Li7 O4 2.034648 1_655
Li7 O1 2.239927 1_655
Li7 O5 2.320573 1_555
Li8 O2 2.035019 1_556
Li8 O7 2.085336 1_555
Li9 O1 2.035004 1_645
Li9 O4 2.110045 1_655
Li9 O5 2.256177 1_545
Li10 O6 2.064903 1_555
Li10 O3 2.078334 1_555
Li11 O7 2.064903 1_555
Li11 O5 2.078334 1_555
Mn0 O2 1.860996 1_555
Mn0 O3 1.963346 1_455
Mn0 O7 1.989846 1_554
Mn0 O0 2.088832 1_455
Mn1 O4 1.860996 1_555
Mn1 O5 1.963346 1_545
Mn1 O6 1.989846 1_555
Mn1 O1 2.088832 1_545
Mn2 O0 1.903501 1_565
Mn2 O6 1.911525 1_565
Mn2 O5 1.934692 1_555
Mn3 O1 1.903501 1_655
Mn3 O7 1.911525 1_655
Mn3 O3 1.934692 1_556
F0 Li10 1.996187 1_555
F0 Li4 2.029657 1_555
F0 Li2 2.053781 1_555
F0 Li3 2.061317 1_555
F0 Li1 2.177846 1_555
F0 Mn2 2.220395 1_555
F1 Li11 1.996187 1_555
F1 Li8 2.029657 1_555
F1 Li6 2.053781 1_555
F1 Li7 2.061317 1_555
F1 Li0 2.177846 1_556
F1 Mn3 2.220395 1_555
F2 Li7 2.024378 1_555
F2 Mn2 2.028143 1_555
F2 Li4 2.149717 1_655
F2 Li5 2.168928 1_655
F2 Li10 2.254114 1_555
F2 Li2 2.277240 1_655
F3 Li5 2.021346 1_555
F3 Li0 2.076491 1_555
F3 Li4 2.089668 1_555
F3 Li3 2.112577 1_555
F3 Li11 2.290442 1_554
F3 Mn0 2.323517 1_555
F4 Li3 2.024378 1_556
F4 Mn3 2.028143 1_555
F4 Li8 2.149717 1_565
F4 Li9 2.168928 1_565
F4 Li11 2.254114 1_555
F4 Li6 2.277240 1_565
F5 Li9 2.021346 1_555
F5 Li1 2.076491 1_555
F5 Li8 2.089668 1_555
F5 Li7 2.112577 1_555
F5 Li10 2.290442 1_555
F5 Mn1 2.323517 1_555
F6 Li2 2.061245 1_645
F6 Li10 2.082423 1_555
F6 Li9 2.087990 1_555
F6 Li4 2.146086 1_655
F6 Mn0 2.155182 1_655
F6 Mn2 2.334006 1_545
F7 Li6 2.061245 1_465
F7 Li11 2.082423 1_555
F7 Li5 2.087990 1_556
F7 Li8 2.146086 1_565
F7 Mn1 2.155182 1_565
F7 Mn3 2.334006 1_455
