# generated using pymatgen
data_V4O7F5
_symmetry_space_group_name_H-M   'P 1'
_cell_length_a   5.23796300
_cell_length_b   5.35790574
_cell_length_c   17.34032963
_cell_angle_alpha   89.90785463
_cell_angle_beta   98.26102681
_cell_angle_gamma   119.15207435
_symmetry_Int_Tables_number   1
_chemical_formula_structural   V4O7F5
_chemical_formula_sum   'V8 O14 F10'
_cell_volume   419.27553716
_cell_formula_units_Z   2
loop_
 _symmetry_equiv_pos_site_id
 _symmetry_equiv_pos_as_xyz
  1  'x, y, z'
loop_
 _atom_site_type_symbol
 _atom_site_label
 _atom_site_symmetry_multiplicity
 _atom_site_fract_x
 _atom_site_fract_y
 _atom_site_fract_z
 _atom_site_occupancy
  V  V0  1  0.27002000  0.65243800  0.86757900  1
  V  V1  1  0.25282800  0.16512000  0.36640300  1
  V  V2  1  0.55280000  0.28799800  0.74484500  1
  V  V3  1  0.53763100  0.79903200  0.24491500  1
  V  V4  1  0.76648800  0.91404700  0.62416400  1
  V  V5  1  0.75419800  0.42685600  0.12298000  1
  V  V6  1  0.95616000  0.01055000  0.99221700  1
  V  V7  1  0.00570500  0.52120700  0.48820300  1
  O  O0  1  0.04426100  0.29539400  0.94111400  1
  O  O1  1  0.05582600  0.80726200  0.44151900  1
  O  O2  1  0.43835100  0.92343500  0.81342700  1
  O  O3  1  0.07832600  0.33274200  0.42360200  1
  O  O4  1  0.59161200  0.79199200  0.95924800  1
  O  O5  1  0.55187300  0.53902600  0.68774400  1
  O  O6  1  0.43443600  0.43459000  0.31277600  1
  O  O7  1  0.59394400  0.05950900  0.67080800  1
  O  O8  1  0.58920900  0.57819400  0.16909300  1
  O  O9  1  0.90365600  0.44108100  0.79380600  1
  O  O10  1  0.89037700  0.95479700  0.29456600  1
  O  O11  1  0.54257300  0.05113600  0.18794800  1
  O  O12  1  0.94772700  0.67794300  0.06612400  1
  O  O13  1  0.94216700  0.16601800  0.56618500  1
  F  F0  1  0.07619900  0.81968700  0.92281700  1
  F  F1  1  0.08470800  0.02375200  0.70698400  1
  F  F2  1  0.07598000  0.53083100  0.20704000  1
  F  F3  1  0.40702900  0.39557000  0.83199700  1
  F  F4  1  0.39595000  0.90617200  0.33123400  1
  F  F5  1  0.41260800  0.68654300  0.54583500  1
  F  F6  1  0.58364700  0.29355500  0.46010000  1
  F  F7  1  0.42690700  0.19525400  0.04560200  1
  F  F8  1  0.91259300  0.65359000  0.58303500  1
  F  F9  1  0.92421400  0.16467600  0.08608900  1
loop_
_geom_bond_atom_site_label_1
_geom_bond_atom_site_label_2
_geom_bond_distance
_geom_bond_site_symmetry_2
O0 V6 1.659639 1_455
O0 V0 2.214815 1_555
O1 V7 1.654793 1_555
O1 V1 2.210956 1_565
O2 V0 1.659417 1_555
O2 V2 2.155364 1_565
O3 V7 1.708656 1_555
O3 V1 1.920669 1_555
O4 V6 1.689446 1_565
O4 V0 1.982570 1_555
O5 V2 1.670360 1_555
O5 V4 2.159860 1_555
O6 V1 1.663123 1_555
O6 V3 2.153321 1_555
O7 V4 1.725332 1_545
O7 V2 1.880154 1_555
O8 V5 1.710875 1_555
O8 V3 1.902676 1_555
O9 V2 1.690048 1_555
O9 V0 1.945110 1_655
O10 V3 1.701326 1_555
O10 V1 1.914809 1_665
O11 V3 1.664328 1_545
O11 V5 2.174372 1_555
O12 V5 1.662445 1_555
O12 V6 2.180001 1_564
O13 V4 1.652668 1_545
O13 V7 2.250547 1_655
F0 V6 1.933171 1_465
F0 V0 1.979821 1_555
F1 V4 1.883232 1_445
F1 V2 2.146048 1_555
F2 V5 1.912510 1_455
F2 V3 2.122463 1_555
F3 V0 1.970298 1_555
F3 V2 1.990525 1_555
F4 V3 1.964102 1_555
F4 V1 2.001567 1_565
F5 V4 1.961400 1_555
F5 V7 1.969107 1_555
F6 V7 1.917752 1_655
F6 V1 2.036858 1_555
F7 V5 1.884382 1_555
F7 V6 2.210408 1_454
F8 V7 2.004079 1_655
F8 V4 2.059677 1_555
F9 V6 1.891241 1_554
F9 V5 2.135632 1_555
