# generated using pymatgen
data_Na4CaTa4TiO15
_symmetry_space_group_name_H-M   'P 1'
_cell_length_a   5.50445500
_cell_length_b   5.57754486
_cell_length_c   39.07108418
_cell_angle_alpha   90.13109467
_cell_angle_beta   90.04959387
_cell_angle_gamma   90.20256544
_symmetry_Int_Tables_number   1
_chemical_formula_structural   Na4CaTa4TiO15
_chemical_formula_sum   'Na16 Ca4 Ta16 Ti4 O60'
_cell_volume   1199.52372819
_cell_formula_units_Z   4
loop_
 _symmetry_equiv_pos_site_id
 _symmetry_equiv_pos_as_xyz
  1  'x, y, z'
loop_
 _atom_site_type_symbol
 _atom_site_label
 _atom_site_symmetry_multiplicity
 _atom_site_fract_x
 _atom_site_fract_y
 _atom_site_fract_z
 _atom_site_occupancy
  Na  Na0  1  0.99143400  0.03190100  0.35100000  1
  Na  Na1  1  0.99080300  0.02436500  0.55458500  1
  Na  Na2  1  0.98963300  0.02364300  0.74758900  1
  Na  Na3  1  0.99600200  0.02015500  0.95504500  1
  Na  Na4  1  0.50987800  0.52746600  0.15203500  1
  Na  Na5  1  0.50727400  0.51884700  0.55479500  1
  Na  Na6  1  0.50811000  0.52325000  0.74773100  1
  Na  Na7  1  0.51415900  0.51640100  0.95471500  1
  Na  Na8  1  0.49090400  0.48221300  0.24691300  1
  Na  Na9  1  0.49118600  0.48005900  0.04622900  1
  Na  Na10  1  0.48263200  0.48340200  0.64677100  1
  Na  Na11  1  0.49411700  0.47486000  0.44943500  1
  Na  Na12  1  0.49371800  0.47081000  0.85042500  1
  Na  Na13  1  0.00968200  0.97672300  0.24744000  1
  Na  Na14  1  0.01165500  0.97498000  0.04641600  1
  Na  Na15  1  0.00911800  0.97882300  0.64659500  1
  Ca  Ca0  1  0.99075000  0.04549400  0.15213100  1
  Ca  Ca1  1  0.50987500  0.53839100  0.35129000  1
  Ca  Ca2  1  0.01102800  0.95301200  0.44877500  1
  Ca  Ca3  1  0.00880300  0.95686600  0.85046600  1
  Ta  Ta0  1  0.00437400  0.49438900  0.90223500  1
  Ta  Ta1  1  0.49821300  0.00261300  0.09931500  1
  Ta  Ta2  1  0.51082400  0.99485800  0.99995600  1
  Ta  Ta3  1  0.50224300  0.99710800  0.50103100  1
  Ta  Ta4  1  0.49817200  0.00456100  0.29926100  1
  Ta  Ta5  1  0.50412000  0.99796600  0.90082300  1
  Ta  Ta6  1  0.49714500  0.00821500  0.19991300  1
  Ta  Ta7  1  0.49161700  0.00619300  0.60076400  1
  Ta  Ta8  1  0.49871100  0.00140200  0.69936500  1
  Ta  Ta9  1  0.50588000  0.00473900  0.39994800  1
  Ta  Ta10  1  0.50136700  0.99789500  0.79907600  1
  Ta  Ta11  1  0.99892000  0.50620300  0.09937600  1
  Ta  Ta12  1  0.99895000  0.50148900  0.29876900  1
  Ta  Ta13  1  0.00270800  0.49296600  0.50105200  1
  Ta  Ta14  1  0.99446100  0.50165300  0.69782300  1
  Ta  Ta15  1  0.00082200  0.49416300  0.79913900  1
  Ti  Ti0  1  0.01143900  0.49139200  0.00166600  1
  Ti  Ti1  1  0.00445100  0.51787900  0.19932800  1
  Ti  Ti2  1  0.98793100  0.51010400  0.59946200  1
  Ti  Ti3  1  0.00855300  0.49421900  0.40047300  1
  O  O0  1  0.92481900  0.50923700  0.05100400  1
  O  O1  1  0.92757600  0.51069600  0.25046400  1
  O  O2  1  0.92824400  0.51828000  0.44882000  1
  O  O3  1  0.92497200  0.50776900  0.64992500  1
  O  O4  1  0.92462600  0.52011700  0.84988200  1
  O  O5  1  0.77390900  0.77758600  0.39251000  1
  O  O6  1  0.77175700  0.76172300  0.59264400  1
  O  O7  1  0.78402100  0.78683400  0.79357200  1
  O  O8  1  0.78184400  0.77367600  0.19173300  1
  O  O9  1  0.78577100  0.78261800  0.10959200  1
  O  O10  1  0.77195900  0.77103600  0.30925200  1
  O  O11  1  0.78429900  0.78586200  0.50547400  1
  O  O12  1  0.76999900  0.76885100  0.70838900  1
  O  O13  1  0.76552600  0.76644700  0.99325800  1
  O  O14  1  0.78625000  0.78850600  0.90613000  1
  O  O15  1  0.73094800  0.26529500  0.19198500  1
  O  O16  1  0.72576400  0.27109100  0.10956800  1
  O  O17  1  0.73813700  0.26402000  0.59274300  1
  O  O18  1  0.71322500  0.28087500  0.30927700  1
  O  O19  1  0.72732500  0.26912400  0.70848400  1
  O  O20  1  0.71178500  0.28684100  0.39121000  1
  O  O21  1  0.71482500  0.28494400  0.79254500  1
  O  O22  1  0.71548200  0.28514900  0.50665900  1
  O  O23  1  0.71759600  0.28595400  0.90722300  1
  O  O24  1  0.73204400  0.26913600  0.99337800  1
  O  O25  1  0.57385200  0.01141400  0.05085200  1
  O  O26  1  0.57731100  0.00764200  0.25062900  1
  O  O27  1  0.57770100  0.00641600  0.65056000  1
  O  O28  1  0.58413000  0.01580200  0.44964300  1
  O  O29  1  0.58469200  0.01697500  0.84980400  1
  O  O30  1  0.42195600  0.98166200  0.34980900  1
  O  O31  1  0.41681900  0.98222600  0.14992600  1
  O  O32  1  0.42723600  0.98727300  0.54913200  1
  O  O33  1  0.42204700  0.98704900  0.75065800  1
  O  O34  1  0.42521900  0.99152700  0.94925100  1
  O  O35  1  0.27405100  0.72052700  0.20719800  1
  O  O36  1  0.26185600  0.73486300  0.00709000  1
  O  O37  1  0.28430400  0.71516200  0.09269800  1
  O  O38  1  0.26822800  0.72963800  0.60657100  1
  O  O39  1  0.27227400  0.72524500  0.69287600  1
  O  O40  1  0.28279800  0.71450900  0.29351400  1
  O  O41  1  0.27264900  0.72270300  0.40708000  1
  O  O42  1  0.27420200  0.72905900  0.49016700  1
  O  O43  1  0.27492400  0.72823100  0.80910300  1
  O  O44  1  0.27530600  0.73004600  0.89068000  1
  O  O45  1  0.22861500  0.23706300  0.00715200  1
  O  O46  1  0.21668000  0.21391800  0.09408300  1
  O  O47  1  0.22244200  0.21939700  0.20622700  1
  O  O48  1  0.21651700  0.21487900  0.29263500  1
  O  O49  1  0.21042200  0.21603200  0.40813300  1
  O  O50  1  0.21531500  0.21699600  0.49013300  1
  O  O51  1  0.23490000  0.23219000  0.60670700  1
  O  O52  1  0.22543800  0.22447900  0.69302300  1
  O  O53  1  0.21697900  0.21982400  0.89053400  1
  O  O54  1  0.21373900  0.21695600  0.80923500  1
  O  O55  1  0.07411300  0.48196700  0.15052200  1
  O  O56  1  0.08136000  0.48497300  0.35032900  1
  O  O57  1  0.07483500  0.48963900  0.54875700  1
  O  O58  1  0.07672700  0.48921500  0.75070200  1
  O  O59  1  0.07599800  0.49117300  0.94971300  1
loop_
_geom_bond_atom_site_label_1
_geom_bond_atom_site_label_2
_geom_bond_distance
_geom_bond_site_symmetry_2
Na0 O30 2.387762 1_645
Na0 O5 2.465344 1_545
Na0 O10 2.492064 1_545
Na0 O56 2.573532 1_655
Na0 O20 2.620885 1_555
Na0 O18 2.636673 1_555
Na0 O49 2.732539 1_655
Na0 O48 2.789862 1_655
Na1 O6 2.410701 1_545
Na1 O32 2.421479 1_645
Na1 O17 2.439538 1_555
Na1 O11 2.591792 1_545
Na1 O57 2.644745 1_655
Na1 O51 2.696217 1_655
Na1 O22 2.818130 1_555
Na2 O33 2.392584 1_645
Na2 O12 2.408652 1_545
Na2 O7 2.501415 1_545
Na2 O19 2.512674 1_555
Na2 O58 2.641473 1_655
Na2 O52 2.736822 1_655
Na2 O21 2.739695 1_555
Na2 O54 2.908448 1_655
Na3 O34 2.379512 1_645
Na3 O13 2.416867 1_545
Na3 O24 2.508227 1_555
Na3 O14 2.574734 1_545
Na3 O59 2.670872 1_655
Na3 O45 2.687220 1_656
Na3 O23 2.839228 1_555
Na4 O55 2.411803 1_555
Na4 O15 2.464776 1_555
Na4 O16 2.492889 1_555
Na4 O8 2.550358 1_555
Na4 O31 2.590907 1_555
Na4 O9 2.661083 1_555
Na4 O35 2.737500 1_555
Na4 O37 2.833337 1_555
Na5 O57 2.396733 1_555
Na5 O17 2.419184 1_555
Na5 O6 2.472762 1_555
Na5 O22 2.559823 1_555
Na5 O32 2.660770 1_555
Na5 O38 2.685257 1_555
Na5 O11 2.873813 1_555
Na6 O58 2.384384 1_555
Na6 O19 2.412837 1_555
Na6 O21 2.478919 1_555
Na6 O12 2.513338 1_555
Na6 O33 2.633770 1_555
Na6 O39 2.750376 1_555
Na6 O7 2.764644 1_555
Na7 O24 2.374960 1_555
Na7 O59 2.423141 1_555
Na7 O13 2.469900 1_555
Na7 O23 2.520322 1_555
Na7 O34 2.705462 1_555
Na7 O36 2.757980 1_556
Na7 O14 2.855161 1_555
Na8 O35 2.369991 1_555
Na8 O1 2.412178 1_555
Na8 O40 2.511837 1_555
Na8 O47 2.613313 1_555
Na8 O26 2.695206 1_555
Na8 O48 2.774280 1_555
Na8 O15 2.796374 1_555
Na8 O18 2.951759 1_555
Na8 O26 2.970490 1_565
Na9 O0 2.398956 1_555
Na9 O36 2.443563 1_555
Na9 O45 2.495944 1_555
Na9 O37 2.513151 1_555
Na9 O25 2.661301 1_555
Na9 O24 2.722200 1_554
Na9 O46 2.825626 1_555
Na10 O38 2.400857 1_555
Na10 O3 2.441141 1_555
Na10 O51 2.499151 1_555
Na10 O39 2.531547 1_555
Na10 O52 2.712454 1_555
Na10 O27 2.717547 1_555
Na10 O17 2.817225 1_555
Na11 O2 2.401167 1_555
Na11 O42 2.452214 1_555
Na11 O41 2.480817 1_555
Na11 O28 2.609665 1_555
Na11 O50 2.636525 1_555
Na11 O49 2.663778 1_555
Na11 O22 2.760144 1_555
Na11 O20 2.777266 1_555
Na12 O4 2.386956 1_555
Na12 O44 2.452526 1_555
Na12 O43 2.477490 1_555
Na12 O29 2.582142 1_555
Na12 O53 2.595191 1_555
Na12 O54 2.634317 1_555
Na12 O23 2.742456 1_555
Na12 O21 2.770020 1_555
Na13 O26 2.390151 1_465
Na13 O47 2.408000 1_565
Na13 O48 2.480699 1_565
Na13 O35 2.576823 1_555
Na13 O1 2.639640 1_455
Na13 O8 2.750753 1_455
Na13 O40 2.768122 1_555
Na14 O25 2.425452 1_465
Na14 O45 2.432599 1_565
Na14 O36 2.461404 1_555
Na14 O46 2.548056 1_565
Na14 O0 2.646160 1_455
Na14 O13 2.734030 1_454
Na14 O37 2.764951 1_555
Na15 O27 2.385387 1_465
Na15 O51 2.443653 1_565
Na15 O38 2.533617 1_555
Na15 O52 2.561069 1_565
Na15 O3 2.669712 1_455
Na15 O39 2.718460 1_555
Na15 O6 2.754815 1_455
Ca0 O31 2.374518 1_645
Ca0 O15 2.445454 1_555
Ca0 O8 2.452834 1_545
Ca0 O55 2.476671 1_655
Ca0 O9 2.481754 1_545
Ca0 O16 2.548460 1_555
Ca0 O47 2.647973 1_655
Ca0 O46 2.753042 1_655
Ca1 O56 2.376692 1_555
Ca1 O20 2.377914 1_555
Ca1 O18 2.452374 1_555
Ca1 O30 2.521746 1_555
Ca1 O5 2.541317 1_555
Ca1 O10 2.542291 1_555
Ca1 O41 2.741806 1_555
Ca1 O40 2.763500 1_555
Ca2 O28 2.377279 1_465
Ca2 O49 2.424982 1_565
Ca2 O50 2.453117 1_565
Ca2 O2 2.465605 1_455
Ca2 O42 2.508429 1_555
Ca2 O41 2.526926 1_555
Ca2 O11 2.709287 1_455
Ca2 O5 2.733088 1_455
Ca3 O29 2.359752 1_465
Ca3 O53 2.426822 1_565
Ca3 O54 2.444247 1_565
Ca3 O4 2.478103 1_455
Ca3 O44 2.497867 1_555
Ca3 O43 2.528167 1_555
Ca3 O14 2.668015 1_455
Ca3 O7 2.710891 1_455
O0 Ta11 1.933240 1_555
O0 Ti0 1.988536 1_655
O1 Ta12 1.928289 1_555
O1 Ti1 2.043070 1_655
O2 Ti3 1.944823 1_655
O2 Ta13 2.086366 1_655
O3 Ta14 1.910197 1_555
O3 Ti2 2.002229 1_555
O4 Ta15 2.031763 1_655
O4 Ta0 2.097032 1_655
O5 Ta9 1.969410 1_565
O5 Ti3 2.068560 1_655
O6 Ti2 1.862638 1_555
O6 Ta7 2.086014 1_565
O7 Ta10 1.965988 1_555
O7 Ta15 2.037419 1_655
O8 Ti1 1.907535 1_655
O8 Ta6 2.069468 1_565
O9 Ta11 1.980797 1_555
O9 Ta1 2.046250 1_565
O10 Ta12 2.000126 1_555
O10 Ta4 2.033534 1_565
O11 Ta3 1.960161 1_555
O11 Ta13 2.038854 1_655
O12 Ta14 1.982194 1_555
O12 Ta8 2.012830 1_565
O13 Ta2 1.915417 1_555
O13 Ti0 2.076049 1_656
O14 Ta5 1.957794 1_555
O14 Ta0 2.041790 1_655
O15 Ta6 1.948816 1_555
O15 Ti1 2.077478 1_655
O16 Ta1 1.988673 1_555
O16 Ta11 2.031853 1_555
O17 Ti2 1.956463 1_555
O17 Ta7 1.999128 1_555
O18 Ta4 1.978156 1_555
O18 Ta12 2.036166 1_555
O19 Ta8 1.980844 1_555
O19 Ta14 2.001948 1_555
O20 Ta9 1.966561 1_555
O20 Ti3 2.030029 1_655
O21 Ta15 1.972642 1_655
O21 Ta10 1.999512 1_545
O22 Ta13 1.969762 1_655
O22 Ta3 1.997929 1_545
O23 Ta0 1.967219 1_655
O23 Ta5 2.001927 1_545
O24 Ta2 1.969337 1_545
O24 Ti0 1.997645 1_656
O25 Ta1 1.939782 1_555
O25 Ta2 2.020151 1_544
O26 Ta4 1.949868 1_555
O26 Ta6 2.029707 1_555
O27 Ta8 1.956414 1_555
O27 Ta7 2.002053 1_555
O28 Ta9 1.989247 1_555
O28 Ta3 2.060930 1_545
O29 Ta10 2.036449 1_545
O29 Ta5 2.045389 1_545
O30 Ta9 2.016049 1_565
O30 Ta4 2.023614 1_565
O31 Ta6 2.006902 1_565
O31 Ta1 2.031275 1_565
O32 Ta3 1.925387 1_555
O32 Ta7 2.050322 1_565
O33 Ta10 1.941866 1_555
O33 Ta8 2.050062 1_565
O34 Ta5 1.942089 1_555
O34 Ta2 2.035999 1_555
O35 Ti1 1.886822 1_555
O35 Ta6 2.037770 1_565
O36 Ti0 1.942665 1_555
O36 Ta2 2.011747 1_554
O37 Ta11 1.970596 1_455
O37 Ta1 2.001984 1_565
O38 Ta7 1.982789 1_565
O38 Ti2 1.985266 1_455
O39 Ta14 1.979701 1_455
O39 Ta8 1.993582 1_565
O40 Ta12 1.970668 1_455
O40 Ta4 2.014296 1_565
O41 Ti3 1.946454 1_555
O41 Ta9 2.046633 1_565
O42 Ta3 1.993464 1_555
O42 Ta13 2.034193 1_555
O43 Ta10 1.989874 1_555
O43 Ta15 2.028572 1_555
O44 Ta5 1.989859 1_555
O44 Ta0 2.036058 1_555
O45 Ti0 1.870877 1_555
O45 Ta2 2.081089 1_544
O46 Ta1 1.961069 1_555
O46 Ta11 2.037128 1_455
O47 Ta6 1.935608 1_555
O47 Ti1 2.073557 1_555
O48 Ta4 1.964752 1_555
O48 Ta12 2.014794 1_455
O49 Ti3 1.935328 1_555
O49 Ta9 2.036865 1_555
O50 Ta13 1.982779 1_555
O50 Ta3 2.048125 1_545
O51 Ta7 1.910873 1_555
O51 Ti2 2.084985 1_455
O52 Ta8 1.971335 1_555
O52 Ta14 2.013599 1_455
O53 Ta0 1.983463 1_555
O53 Ta5 2.050849 1_545
O54 Ta15 1.983558 1_555
O54 Ta10 2.041955 1_545
O55 Ti1 1.955376 1_555
O55 Ta11 2.045264 1_455
O56 Ti3 2.000675 1_555
O56 Ta12 2.066894 1_455
O57 Ta13 1.905510 1_555
O57 Ti2 2.041471 1_455
O58 Ta15 1.938568 1_555
O58 Ta14 2.116045 1_455
O59 Ta0 1.896254 1_555
O59 Ti0 2.061033 1_556
