# generated using pymatgen
data_K(WO3)3
_symmetry_space_group_name_H-M   'P 1'
_cell_length_a   7.39781262
_cell_length_b   7.39781249
_cell_length_c   7.62841233
_cell_angle_alpha   89.99988509
_cell_angle_beta   89.99988325
_cell_angle_gamma   119.99681025
_symmetry_Int_Tables_number   1
_chemical_formula_structural   K(WO3)3
_chemical_formula_sum   'K2 W6 O18'
_cell_volume   361.56417717
_cell_formula_units_Z   2
loop_
 _symmetry_equiv_pos_site_id
 _symmetry_equiv_pos_as_xyz
  1  'x, y, z'
loop_
 _atom_site_type_symbol
 _atom_site_label
 _atom_site_symmetry_multiplicity
 _atom_site_fract_x
 _atom_site_fract_y
 _atom_site_fract_z
 _atom_site_occupancy
  K  K0  1  0.00013334  0.00011183  0.73271109  1
  K  K1  1  0.00011183  0.00013327  0.23271105  1
  W  W0  1  0.00011709  0.49976894  0.49985002  1
  W  W1  1  0.99988659  0.49981676  0.99983776  1
  W  W2  1  0.50011648  0.49990040  0.49977430  1
  W  W3  1  0.49990034  0.50011658  0.99977423  1
  W  W4  1  0.49976882  0.00011695  0.99984997  1
  W  W5  1  0.49981664  0.99988644  0.49983781  1
  O  O0  1  0.98557371  0.49245677  0.25001319  1
  O  O1  1  0.78935404  0.21008260  0.99149433  1
  O  O2  1  0.78941685  0.21027566  0.50883876  1
  O  O3  1  0.78933878  0.57880817  0.50865153  1
  O  O4  1  0.50713194  0.01441964  0.25004282  1
  O  O5  1  0.78930106  0.57860273  0.99156667  1
  O  O6  1  0.42032221  0.21022168  0.99162753  1
  O  O7  1  0.42080743  0.21028657  0.50867924  1
  O  O8  1  0.50714602  0.49280011  0.25001080  1
  O  O9  1  0.49280016  0.50714597  0.75001081  1
  O  O10  1  0.57880817  0.78933877  0.00865152  1
  O  O11  1  0.57860265  0.78930100  0.49156667  1
  O  O12  1  0.21022171  0.42032223  0.49162753  1
  O  O13  1  0.49245682  0.98557378  0.75001321  1
  O  O14  1  0.21028654  0.42080737  0.00867924  1
  O  O15  1  0.21027563  0.78941688  0.00883874  1
  O  O16  1  0.21008259  0.78935400  0.49149436  1
  O  O17  1  0.01441956  0.50713191  0.75004285  1
loop_
_geom_bond_atom_site_label_1
_geom_bond_atom_site_label_2
_geom_bond_distance
_geom_bond_site_symmetry_2
K0 O7 3.191374 1_555
K0 O2 3.191734 1_455
K0 O3 3.194904 1_445
K0 O12 3.260427 1_555
K0 O16 3.263527 1_545
K0 O11 3.267688 1_445
K0 O6 3.338950 1_555
K0 O1 3.341140 1_455
K0 O5 3.345488 1_445
K0 O14 3.420064 1_556
K0 O15 3.421421 1_546
K0 O10 3.423102 1_446
K1 O14 3.191374 1_555
K1 O15 3.191734 1_545
K1 O10 3.194904 1_445
K1 O6 3.260427 1_554
K1 O1 3.263528 1_454
K1 O5 3.267687 1_444
K1 O12 3.338951 1_555
K1 O16 3.341140 1_545
K1 O11 3.345489 1_445
K1 O7 3.420064 1_555
K1 O2 3.421421 1_455
K1 O3 3.423102 1_445
O0 W0 1.908135 1_655
O0 W1 1.910643 1_554
O1 W4 1.918050 1_555
O1 W1 1.919890 1_555
O2 W5 1.919090 1_545
O2 W0 1.919108 1_655
O3 W2 1.916877 1_555
O3 W0 1.920801 1_655
O4 W5 1.907812 1_545
O4 W4 1.910774 1_554
O5 W1 1.917958 1_555
O5 W3 1.918769 1_555
O6 W4 1.917991 1_555
O6 W3 1.920231 1_555
O7 W5 1.917957 1_545
O7 W2 1.918925 1_555
O8 W2 1.907448 1_555
O8 W3 1.911186 1_554
O9 W3 1.907448 1_555
O9 W2 1.911186 1_555
O10 W3 1.916876 1_554
O10 W4 1.920800 1_564
O11 W5 1.917958 1_555
O11 W2 1.918769 1_555
O12 W0 1.917991 1_555
O12 W2 1.920230 1_555
O13 W4 1.908134 1_565
O13 W5 1.910643 1_555
O14 W1 1.917956 1_454
O14 W3 1.918924 1_554
O15 W1 1.919089 1_454
O15 W4 1.919107 1_564
O16 W0 1.918049 1_555
O16 W5 1.919889 1_555
O17 W1 1.907812 1_455
O17 W0 1.910774 1_555
