# generated using pymatgen
data_LiAg2F6
_symmetry_space_group_name_H-M   'P 1'
_cell_length_a   5.48718000
_cell_length_b   5.60953300
_cell_length_c   16.08450163
_cell_angle_alpha   86.18731797
_cell_angle_beta   90.00000000
_cell_angle_gamma   90.00000000
_symmetry_Int_Tables_number   1
_chemical_formula_structural   LiAg2F6
_chemical_formula_sum   'Li4 Ag8 F24'
_cell_volume   493.99353623
_cell_formula_units_Z   4
loop_
 _symmetry_equiv_pos_site_id
 _symmetry_equiv_pos_as_xyz
  1  'x, y, z'
loop_
 _atom_site_type_symbol
 _atom_site_label
 _atom_site_symmetry_multiplicity
 _atom_site_fract_x
 _atom_site_fract_y
 _atom_site_fract_z
 _atom_site_occupancy
  Li  Li0  1  0.46220000  0.15676300  0.06741100  1
  Li  Li1  1  0.03780000  0.15676300  0.56741100  1
  Li  Li2  1  0.96220000  0.84323700  0.43258900  1
  Li  Li3  1  0.53780000  0.84323700  0.93258900  1
  Ag  Ag0  1  0.98581200  0.24184400  0.24505600  1
  Ag  Ag1  1  0.52824600  0.29911000  0.42308500  1
  Ag  Ag2  1  0.51418800  0.24184400  0.74505600  1
  Ag  Ag3  1  0.97175400  0.29911000  0.92308500  1
  Ag  Ag4  1  0.02824600  0.70089000  0.07691500  1
  Ag  Ag5  1  0.48581200  0.75815600  0.25494400  1
  Ag  Ag6  1  0.47175400  0.70089000  0.57691500  1
  Ag  Ag7  1  0.01418800  0.75815600  0.75494400  1
  F  F0  1  0.14651500  0.00920700  0.17324400  1
  F  F1  1  0.35348500  0.00920700  0.67324400  1
  F  F2  1  0.14342300  0.07564700  0.34489900  1
  F  F3  1  0.76318900  0.07953300  0.49393400  1
  F  F4  1  0.35657700  0.07564700  0.84489900  1
  F  F5  1  0.73681100  0.07953300  0.99393400  1
  F  F6  1  0.23944900  0.39354300  0.02157700  1
  F  F7  1  0.82881000  0.42448600  0.14694800  1
  F  F8  1  0.26055100  0.39354300  0.52157700  1
  F  F9  1  0.82512800  0.46932900  0.31688500  1
  F  F10  1  0.67119000  0.42448600  0.64694800  1
  F  F11  1  0.32512800  0.53067100  0.18311500  1
  F  F12  1  0.67487200  0.46932900  0.81688500  1
  F  F13  1  0.32881000  0.57551400  0.35305200  1
  F  F14  1  0.17487200  0.53067100  0.68311500  1
  F  F15  1  0.73944900  0.60645700  0.47842300  1
  F  F16  1  0.17119000  0.57551400  0.85305200  1
  F  F17  1  0.76055100  0.60645700  0.97842300  1
  F  F18  1  0.26318900  0.92046700  0.00606600  1
  F  F19  1  0.64342300  0.92435300  0.15510100  1
  F  F20  1  0.23681100  0.92046700  0.50606600  1
  F  F21  1  0.85657700  0.92435300  0.65510100  1
  F  F22  1  0.64651500  0.99079300  0.32675600  1
  F  F23  1  0.85348500  0.99079300  0.82675600  1
loop_
_geom_bond_atom_site_label_1
_geom_bond_atom_site_label_2
_geom_bond_distance
_geom_bond_site_symmetry_2
Ag0 F9 1.984100 1_555
Ag0 F2 1.999248 1_655
Ag0 F0 2.003794 1_655
Ag0 F7 2.016677 1_555
Ag0 F11 2.620983 1_655
Ag0 F22 2.632535 1_545
Ag1 F3 2.071489 1_555
Ag1 F13 2.153656 1_555
Ag1 F8 2.249339 1_555
Ag1 F15 2.304741 1_555
Ag1 F22 2.483828 1_545
Ag1 F9 2.503292 1_555
Ag2 F12 1.984100 1_555
Ag2 F4 1.999248 1_555
Ag2 F1 2.003794 1_555
Ag2 F10 2.016677 1_555
Ag2 F14 2.620983 1_555
Ag2 F23 2.632535 1_545
Ag3 F5 2.071489 1_555
Ag3 F16 2.153656 1_655
Ag3 F6 2.249339 1_656
Ag3 F17 2.304741 1_555
Ag3 F23 2.483828 1_545
Ag3 F12 2.503292 1_555
Ag4 F18 2.071489 1_555
Ag4 F7 2.153656 1_455
Ag4 F17 2.249339 1_454
Ag4 F6 2.304741 1_555
Ag4 F0 2.483828 1_565
Ag4 F11 2.503292 1_555
Ag5 F11 1.984100 1_555
Ag5 F19 1.999248 1_555
Ag5 F22 2.003794 1_555
Ag5 F13 2.016677 1_555
Ag5 F9 2.620983 1_555
Ag5 F0 2.632535 1_565
Ag6 F20 2.071489 1_555
Ag6 F10 2.153656 1_555
Ag6 F15 2.249339 1_555
Ag6 F8 2.304741 1_555
Ag6 F1 2.483828 1_565
Ag6 F14 2.503292 1_555
Ag7 F14 1.984100 1_555
Ag7 F21 1.999248 1_455
Ag7 F23 2.003794 1_455
Ag7 F16 2.016677 1_555
Ag7 F12 2.620983 1_455
Ag7 F1 2.632535 1_565
F0 Li0 2.529042 1_555
F1 Li1 2.529042 1_555
F2 Li2 2.105547 1_445
F3 Li1 1.980679 1_655
F3 Li2 2.024100 1_545
F4 Li3 2.105547 1_545
F5 Li0 1.980679 1_556
F5 Li3 2.024100 1_545
F6 Li0 1.916091 1_555
F8 Li1 1.916091 1_555
F15 Li2 1.916091 1_555
F17 Li3 1.916091 1_555
F18 Li3 1.980679 1_554
F18 Li0 2.024100 1_565
F19 Li0 2.105547 1_565
F20 Li2 1.980679 1_455
F20 Li1 2.024100 1_565
F21 Li1 2.105547 1_665
F22 Li2 2.529042 1_555
F23 Li3 2.529042 1_555
