# generated using pymatgen
data_Li2PdO2
_symmetry_space_group_name_H-M   'P 1'
_cell_length_a   5.19001127
_cell_length_b   5.19001127
_cell_length_c   5.19001127
_cell_angle_alpha   146.49843944
_cell_angle_beta   137.95876741
_cell_angle_gamma   54.79287794
_symmetry_Int_Tables_number   1
_chemical_formula_structural   Li2PdO2
_chemical_formula_sum   'Li2 Pd1 O2'
_cell_volume   51.32696581
_cell_formula_units_Z   1
loop_
 _symmetry_equiv_pos_site_id
 _symmetry_equiv_pos_as_xyz
  1  'x, y, z'
loop_
 _atom_site_type_symbol
 _atom_site_label
 _atom_site_symmetry_multiplicity
 _atom_site_fract_x
 _atom_site_fract_y
 _atom_site_fract_z
 _atom_site_occupancy
  Li  Li0  1  0.70619937  0.70619937  0.00000000  1
  Li  Li1  1  0.29380063  0.29380063  -0.00000000  1
  Pd  Pd0  1  -0.00000000  -0.00000000  -0.00000000  1
  O  O0  1  0.15101207  0.65101207  0.50000000  1
  O  O1  1  0.84898793  0.34898793  0.50000000  1
loop_
_geom_bond_atom_site_label_1
_geom_bond_atom_site_label_2
_geom_bond_distance
_geom_bond_site_symmetry_2
Li0 O0 1.929900 1_655
Li0 O0 1.929900 1_554
Li0 O1 1.992256 1_554
Li0 O1 1.992256 1_565
Li1 O1 1.929900 1_555
Li1 O1 1.929900 1_454
Li1 O0 1.992256 1_555
Li1 O0 1.992256 1_544
O0 Pd0 2.043106 1_566
O0 Pd0 2.043106 1_555
O1 Pd0 2.043106 1_666
O1 Pd0 2.043106 1_655
