# generated using pymatgen
data_Na2MnBSO7
_symmetry_space_group_name_H-M   'P 1'
_cell_length_a   7.06486500
_cell_length_b   5.30407600
_cell_length_c   9.03296844
_cell_angle_alpha   87.96811990
_cell_angle_beta   90.00000000
_cell_angle_gamma   90.00000000
_symmetry_Int_Tables_number   1
_chemical_formula_structural   Na2MnBSO7
_chemical_formula_sum   'Na4 Mn2 B2 S2 O14'
_cell_volume   338.27581727
_cell_formula_units_Z   2
loop_
 _symmetry_equiv_pos_site_id
 _symmetry_equiv_pos_as_xyz
  1  'x, y, z'
loop_
 _atom_site_type_symbol
 _atom_site_label
 _atom_site_symmetry_multiplicity
 _atom_site_fract_x
 _atom_site_fract_y
 _atom_site_fract_z
 _atom_site_occupancy
  Na  Na0  1  0.49552800  0.76240400  0.79293700  1
  Na  Na1  1  0.00447200  0.76240400  0.79293700  1
  Na  Na2  1  0.50447200  0.23759600  0.20706300  1
  Na  Na3  1  0.99552800  0.23759600  0.20706300  1
  Mn  Mn0  1  0.25000000  0.22526000  0.65604700  1
  Mn  Mn1  1  0.75000000  0.77474000  0.34395300  1
  B  B0  1  0.25000000  0.27382800  0.92251800  1
  B  B1  1  0.75000000  0.72617200  0.07748200  1
  S  S0  1  0.75000000  0.27219200  0.57346700  1
  S  S1  1  0.25000000  0.72780800  0.42653300  1
  O  O0  1  0.75000000  0.70073700  0.93343700  1
  O  O1  1  0.25000000  0.04429700  0.84701700  1
  O  O2  1  0.25000000  0.46996900  0.81082700  1
  O  O3  1  0.92182600  0.20649600  0.65953100  1
  O  O4  1  0.57817400  0.20649600  0.65953100  1
  O  O5  1  0.25000000  0.86210300  0.57040600  1
  O  O6  1  0.75000000  0.55294400  0.53635200  1
  O  O7  1  0.25000000  0.44705600  0.46364800  1
  O  O8  1  0.75000000  0.13789700  0.42959400  1
  O  O9  1  0.42182600  0.79350400  0.34046900  1
  O  O10  1  0.07817400  0.79350400  0.34046900  1
  O  O11  1  0.75000000  0.53003100  0.18917300  1
  O  O12  1  0.75000000  0.95570300  0.15298300  1
  O  O13  1  0.25000000  0.29926300  0.06656300  1
loop_
_geom_bond_atom_site_label_1
_geom_bond_atom_site_label_2
_geom_bond_distance
_geom_bond_site_symmetry_2
Na0 O0 2.218190 1_555
Na0 O2 2.328767 1_555
Na0 O1 2.352639 1_565
Na0 O4 2.672107 1_565
Na0 O5 2.693277 1_555
Na1 O0 2.218190 1_455
Na1 O2 2.328767 1_555
Na1 O1 2.352639 1_565
Na1 O3 2.672107 1_465
Na1 O5 2.693277 1_555
Na2 O13 2.218190 1_555
Na2 O11 2.328767 1_555
Na2 O12 2.352639 1_545
Na2 O9 2.672107 1_545
Na2 O8 2.693277 1_555
Na3 O13 2.218190 1_655
Na3 O11 2.328767 1_555
Na3 O12 2.352639 1_545
Na3 O10 2.672107 1_645
Na3 O8 2.693277 1_555
Mn0 O2 1.941164 1_555
Mn0 O1 1.944119 1_555
Mn0 O7 2.063833 1_555
Mn0 O5 2.101048 1_545
Mn0 O4 2.320806 1_555
Mn0 O3 2.320806 1_455
Mn1 O11 1.941164 1_555
Mn1 O12 1.944119 1_555
Mn1 O6 2.063833 1_555
Mn1 O8 2.101048 1_565
Mn1 O10 2.320806 1_655
Mn1 O9 2.320806 1_555
B0 O13 1.312878 1_556
B0 O1 1.416398 1_555
B0 O2 1.423297 1_555
B1 O0 1.312878 1_554
B1 O12 1.416398 1_555
B1 O11 1.423297 1_555
O3 S0 1.476551 1_555
O4 S0 1.476551 1_555
O5 S1 1.503992 1_555
O6 S0 1.514762 1_555
O7 S1 1.514762 1_555
O8 S0 1.503992 1_555
O9 S1 1.476551 1_555
O10 S1 1.476551 1_555
