# generated using pymatgen
data_Li4Mn2V3O12
_symmetry_space_group_name_H-M   'P 1'
_cell_length_a   9.27184600
_cell_length_b   9.06058500
_cell_length_c   15.31640131
_cell_angle_alpha   55.05048233
_cell_angle_beta   90.00000000
_cell_angle_gamma   90.00000000
_symmetry_Int_Tables_number   1
_chemical_formula_structural   Li4Mn2V3O12
_chemical_formula_sum   'Li16 Mn8 V12 O48'
_cell_volume   1054.65736035
_cell_formula_units_Z   4
loop_
 _symmetry_equiv_pos_site_id
 _symmetry_equiv_pos_as_xyz
  1  'x, y, z'
loop_
 _atom_site_type_symbol
 _atom_site_label
 _atom_site_symmetry_multiplicity
 _atom_site_fract_x
 _atom_site_fract_y
 _atom_site_fract_z
 _atom_site_occupancy
  Li  Li0  1  0.91938000  0.63058400  0.80110400  1
  Li  Li1  1  0.48412300  0.28351800  0.14895600  1
  Li  Li2  1  0.32814200  0.85408700  0.53634200  1
  Li  Li3  1  0.22482900  0.99964100  0.31099900  1
  Li  Li4  1  0.72482900  0.00035900  0.18900100  1
  Li  Li5  1  0.82814200  0.14591300  0.96365800  1
  Li  Li6  1  0.41938000  0.36941600  0.69889600  1
  Li  Li7  1  0.98412300  0.71648200  0.35104400  1
  Li  Li8  1  0.01587700  0.28351800  0.64895600  1
  Li  Li9  1  0.58062000  0.63058400  0.30110400  1
  Li  Li10  1  0.17185800  0.85408700  0.03634200  1
  Li  Li11  1  0.27517100  0.99964100  0.81099900  1
  Li  Li12  1  0.77517100  0.00035900  0.68900100  1
  Li  Li13  1  0.67185800  0.14591300  0.46365800  1
  Li  Li14  1  0.51587700  0.71648200  0.85104400  1
  Li  Li15  1  0.08062000  0.36941600  0.19889600  1
  Mn  Mn0  1  0.97604700  0.63585700  0.61044300  1
  Mn  Mn1  1  0.47604700  0.36414300  0.88955700  1
  Mn  Mn2  1  0.52395300  0.63585700  0.11044300  1
  Mn  Mn3  1  0.02395300  0.36414300  0.38955700  1
  Mn  Mn4  1  0.03665300  0.13288600  0.11702400  1
  Mn  Mn5  1  0.53665300  0.86711400  0.38297600  1
  Mn  Mn6  1  0.46334700  0.13288600  0.61702400  1
  Mn  Mn7  1  0.96334700  0.86711400  0.88297600  1
  V  V0  1  0.74819600  0.44012500  0.00947300  1
  V  V1  1  0.62579100  0.72685800  0.65709500  1
  V  V2  1  0.88869900  0.02613900  0.36159100  1
  V  V3  1  0.12579100  0.27314200  0.84290500  1
  V  V4  1  0.38869900  0.97386100  0.13840900  1
  V  V5  1  0.24819600  0.55987500  0.49052700  1
  V  V6  1  0.75180400  0.44012500  0.50947300  1
  V  V7  1  0.61130100  0.02613900  0.86159100  1
  V  V8  1  0.87420900  0.72685800  0.15709500  1
  V  V9  1  0.11130100  0.97386100  0.63840900  1
  V  V10  1  0.37420900  0.27314200  0.34290500  1
  V  V11  1  0.25180400  0.55987500  0.99052700  1
  O  O0  1  0.33894800  0.56128100  0.89149100  1
  O  O1  1  0.13219000  0.84758700  0.58770400  1
  O  O2  1  0.12338500  0.39362300  0.05896000  1
  O  O3  1  0.41009200  0.13765100  0.29825200  1
  O  O4  1  0.62767100  0.48999400  0.90570900  1
  O  O5  1  0.81583400  0.70999900  0.65863300  1
  O  O6  1  0.56647400  0.84818800  0.52749000  1
  O  O7  1  0.02116000  0.12082100  0.26157200  1
  O  O8  1  0.72554100  0.02193600  0.30800100  1
  O  O9  1  0.81769000  0.22348400  0.06109700  1
  O  O10  1  0.52372600  0.52643100  0.72950300  1
  O  O11  1  0.94480300  0.79927700  0.45273700  1
  O  O12  1  0.02372600  0.47356900  0.77049700  1
  O  O13  1  0.44480300  0.20072300  0.04726300  1
  O  O14  1  0.31769000  0.77651600  0.43890300  1
  O  O15  1  0.22554100  0.97806400  0.19199900  1
  O  O16  1  0.06647400  0.15181200  0.97251000  1
  O  O17  1  0.52116000  0.87917900  0.23842800  1
  O  O18  1  0.31583400  0.29000100  0.84136700  1
  O  O19  1  0.12767100  0.51000600  0.59429100  1
  O  O20  1  0.63219000  0.15241300  0.91229600  1
  O  O21  1  0.83894800  0.43871900  0.60850900  1
  O  O22  1  0.91009200  0.86234900  0.20174800  1
  O  O23  1  0.62338500  0.60637700  0.44104000  1
  O  O24  1  0.37661500  0.39362300  0.55896000  1
  O  O25  1  0.08990800  0.13765100  0.79825200  1
  O  O26  1  0.16105200  0.56128100  0.39149100  1
  O  O27  1  0.36781000  0.84758700  0.08770400  1
  O  O28  1  0.87232900  0.48999400  0.40570900  1
  O  O29  1  0.68416600  0.70999900  0.15863300  1
  O  O30  1  0.47884000  0.12082100  0.76157200  1
  O  O31  1  0.93352600  0.84818800  0.02749000  1
  O  O32  1  0.77445900  0.02193600  0.80800100  1
  O  O33  1  0.68231000  0.22348400  0.56109700  1
  O  O34  1  0.55519700  0.79927700  0.95273700  1
  O  O35  1  0.97627400  0.52643100  0.22950300  1
  O  O36  1  0.05519700  0.20072300  0.54726300  1
  O  O37  1  0.47627400  0.47356900  0.27049700  1
  O  O38  1  0.18231000  0.77651600  0.93890300  1
  O  O39  1  0.27445900  0.97806400  0.69199900  1
  O  O40  1  0.97884000  0.87917900  0.73842800  1
  O  O41  1  0.43352600  0.15181200  0.47251000  1
  O  O42  1  0.18416600  0.29000100  0.34136700  1
  O  O43  1  0.37232900  0.51000600  0.09429100  1
  O  O44  1  0.58990800  0.86234900  0.70174800  1
  O  O45  1  0.87661500  0.60637700  0.94104000  1
  O  O46  1  0.86781000  0.15241300  0.41229600  1
  O  O47  1  0.66105200  0.43871900  0.10850900  1
loop_
_geom_bond_atom_site_label_1
_geom_bond_atom_site_label_2
_geom_bond_distance
_geom_bond_site_symmetry_2
Li0 O40 1.954877 1_555
Li0 O12 1.985902 1_655
Li0 O45 2.064108 1_555
Li0 O5 2.098160 1_555
Li1 O3 1.996060 1_555
Li1 O43 2.004513 1_555
Li1 O47 2.013513 1_555
Li1 O13 2.111964 1_555
Li2 O1 1.967270 1_555
Li2 O14 1.983038 1_555
Li2 O6 2.216452 1_555
Li2 O41 2.483103 1_565
Li3 O15 1.941281 1_555
Li3 O14 2.031899 1_555
Li3 O3 2.067035 1_565
Li3 O7 2.095787 1_565
Li4 O8 1.941281 1_555
Li4 O9 2.031899 1_555
Li4 O22 2.067035 1_545
Li4 O17 2.095787 1_545
Li5 O20 1.967270 1_555
Li5 O9 1.983038 1_556
Li5 O16 2.216452 1_655
Li5 O31 2.483103 1_546
Li6 O30 1.954877 1_555
Li6 O10 1.985902 1_555
Li6 O24 2.064108 1_555
Li6 O18 2.098160 1_555
Li7 O22 1.996060 1_555
Li7 O28 2.004513 1_555
Li7 O26 2.013513 1_655
Li7 O11 2.111964 1_555
Li8 O25 1.996060 1_555
Li8 O19 2.004513 1_555
Li8 O21 2.013513 1_455
Li8 O36 2.111964 1_555
Li9 O17 1.954877 1_555
Li9 O37 1.985902 1_555
Li9 O23 2.064108 1_555
Li9 O29 2.098160 1_555
Li10 O27 1.967270 1_555
Li10 O38 1.983038 1_554
Li10 O31 2.216452 1_455
Li10 O16 2.483103 1_564
Li11 O39 1.941281 1_555
Li11 O38 2.031899 1_555
Li11 O25 2.067035 1_565
Li11 O30 2.095787 1_565
Li12 O32 1.941281 1_555
Li12 O33 2.031899 1_555
Li12 O44 2.067035 1_545
Li12 O40 2.095787 1_545
Li13 O46 1.967270 1_555
Li13 O33 1.983038 1_555
Li13 O41 2.216452 1_555
Li13 O6 2.483103 1_545
Li14 O44 1.996060 1_555
Li14 O4 2.004513 1_555
Li14 O0 2.013513 1_555
Li14 O34 2.111964 1_555
Li15 O7 1.954877 1_555
Li15 O35 1.985902 1_455
Li15 O2 2.064108 1_555
Li15 O42 2.098160 1_555
Mn0 O19 1.913379 1_655
Mn0 O5 1.941845 1_555
Mn0 O11 2.003301 1_555
Mn0 O12 2.058466 1_655
Mn0 O21 2.206311 1_555
Mn0 O1 2.265389 1_655
Mn1 O4 1.913379 1_555
Mn1 O18 1.941845 1_555
Mn1 O13 2.003301 1_556
Mn1 O10 2.058466 1_555
Mn1 O0 2.206311 1_555
Mn1 O20 2.265389 1_555
Mn2 O43 1.913379 1_555
Mn2 O29 1.941845 1_555
Mn2 O34 2.003301 1_554
Mn2 O37 2.058466 1_555
Mn2 O47 2.206311 1_555
Mn2 O27 2.265389 1_555
Mn3 O28 1.913379 1_455
Mn3 O42 1.941845 1_555
Mn3 O36 2.003301 1_555
Mn3 O35 2.058466 1_455
Mn3 O26 2.206311 1_555
Mn3 O46 2.265389 1_455
Mn4 O15 2.123225 1_545
Mn4 O16 2.137822 1_554
Mn4 O2 2.147452 1_555
Mn4 O7 2.157985 1_555
Mn4 O9 2.173397 1_455
Mn4 O22 2.329180 1_445
Mn5 O8 2.123225 1_565
Mn5 O6 2.137822 1_555
Mn5 O23 2.147452 1_555
Mn5 O17 2.157985 1_555
Mn5 O14 2.173397 1_555
Mn5 O3 2.329180 1_565
Mn6 O39 2.123225 1_545
Mn6 O41 2.137822 1_555
Mn6 O24 2.147452 1_555
Mn6 O30 2.157985 1_555
Mn6 O33 2.173397 1_555
Mn6 O44 2.329180 1_545
Mn7 O32 2.123225 1_565
Mn7 O31 2.137822 1_556
Mn7 O45 2.147452 1_555
Mn7 O40 2.157985 1_555
Mn7 O38 2.173397 1_655
Mn7 O25 2.329180 1_665
O0 V11 1.712242 1_555
O1 V9 1.722690 1_555
O2 V11 1.725246 1_554
O3 V10 1.745695 1_555
O4 V0 1.776526 1_556
O5 V1 1.767649 1_555
O6 V1 1.717940 1_555
O7 V2 1.756541 1_455
O8 V2 1.731899 1_555
O9 V0 1.764972 1_555
O10 V1 1.765179 1_555
O11 V2 1.776773 1_565
O12 V3 1.765179 1_555
O13 V4 1.776773 1_545
O14 V5 1.764972 1_555
O15 V4 1.731899 1_555
O16 V3 1.717940 1_555
O17 V4 1.756541 1_555
O18 V3 1.767649 1_555
O19 V5 1.776526 1_555
O20 V7 1.722690 1_555
O21 V6 1.712242 1_555
O22 V8 1.745695 1_555
O23 V6 1.725246 1_555
O24 V5 1.725246 1_555
O25 V3 1.745695 1_555
O26 V5 1.712242 1_555
O27 V4 1.722690 1_555
O28 V6 1.776526 1_555
O29 V8 1.767649 1_555
O30 V7 1.756541 1_555
O31 V8 1.717940 1_555
O32 V7 1.731899 1_555
O33 V6 1.764972 1_555
O34 V7 1.776773 1_565
O35 V8 1.765179 1_555
O36 V9 1.776773 1_545
O37 V10 1.765179 1_555
O38 V11 1.764972 1_555
O39 V9 1.731899 1_555
O40 V9 1.756541 1_655
O41 V10 1.717940 1_555
O42 V10 1.767649 1_555
O43 V11 1.776526 1_554
O44 V1 1.745695 1_555
O45 V0 1.725246 1_556
O46 V2 1.722690 1_555
O47 V0 1.712242 1_555
