# generated using pymatgen
data_Li2CrCuO4
_symmetry_space_group_name_H-M   'P 1'
_cell_length_a   5.89469507
_cell_length_b   5.89469457
_cell_length_c   5.88407445
_cell_angle_alpha   119.93765289
_cell_angle_beta   119.93766743
_cell_angle_gamma   90.17126167
_symmetry_Int_Tables_number   1
_chemical_formula_structural   Li2CrCuO4
_chemical_formula_sum   'Li4 Cr2 Cu2 O8'
_cell_volume   144.62826322
_cell_formula_units_Z   2
loop_
 _symmetry_equiv_pos_site_id
 _symmetry_equiv_pos_as_xyz
  1  'x, y, z'
loop_
 _atom_site_type_symbol
 _atom_site_label
 _atom_site_symmetry_multiplicity
 _atom_site_fract_x
 _atom_site_fract_y
 _atom_site_fract_z
 _atom_site_occupancy
  Li  Li0  1  0.00000000  0.50000000  0.50000000  1
  Li  Li1  1  0.50000000  0.50000000  0.50000000  1
  Li  Li2  1  0.50000000  0.00000000  0.00000000  1
  Li  Li3  1  0.50000000  0.50000000  0.00000000  1
  Cr  Cr0  1  0.00000000  0.50000000  0.00000000  1
  Cr  Cr1  1  0.50000000  0.00000000  0.50000000  1
  Cu  Cu0  1  0.00000000  0.00000000  0.50000000  1
  Cu  Cu1  1  0.00000000  0.00000000  0.00000000  1
  O  O0  1  0.24458400  0.75543700  0.01557800  1
  O  O1  1  0.24796000  0.22720600  0.48758200  1
  O  O2  1  0.24456300  0.75541600  0.48442200  1
  O  O3  1  0.77279400  0.75204000  0.01241800  1
  O  O4  1  0.22720600  0.24796000  0.98758200  1
  O  O5  1  0.75543700  0.24458400  0.51557800  1
  O  O6  1  0.75204000  0.77279400  0.51241800  1
  O  O7  1  0.75541600  0.24456300  0.98442200  1
loop_
_geom_bond_atom_site_label_1
_geom_bond_atom_site_label_2
_geom_bond_distance
_geom_bond_site_symmetry_2
Li0 O5 2.147132 1_455
Li0 O2 2.147132 1_555
Li0 O7 2.147396 1_454
Li0 O0 2.147396 1_556
Li0 O6 2.175067 1_455
Li0 O1 2.175067 1_555
Li1 O5 2.134473 1_555
Li1 O2 2.134473 1_555
Li1 O1 2.135068 1_555
Li1 O6 2.135068 1_555
Li1 O3 2.135254 1_556
Li1 O4 2.135254 1_554
Li2 O7 2.147132 1_554
Li2 O0 2.147132 1_545
Li2 O5 2.147396 1_555
Li2 O2 2.147396 1_544
Li2 O4 2.175067 1_554
Li2 O3 2.175067 1_545
Li3 O0 2.134473 1_555
Li3 O7 2.134473 1_554
Li3 O4 2.135068 1_554
Li3 O3 2.135068 1_555
Li3 O6 2.135254 1_555
Li3 O1 2.135254 1_554
Cr0 O4 2.001902 1_554
Cr0 O3 2.001902 1_455
Cr0 O7 2.017821 1_454
Cr0 O0 2.017821 1_555
Cr0 O2 2.017899 1_555
Cr0 O5 2.017899 1_454
Cr1 O6 2.001902 1_545
Cr1 O1 2.001902 1_555
Cr1 O5 2.017821 1_555
Cr1 O2 2.017821 1_545
Cr1 O7 2.017899 1_555
Cr1 O0 2.017899 1_545
Cu0 O1 2.031768 1_555
Cu0 O6 2.031768 1_445
Cu0 O3 2.031928 1_445
Cu0 O4 2.031928 1_555
Cu0 O2 2.043951 1_545
Cu0 O5 2.043951 1_455
Cu1 O3 2.031768 1_445
Cu1 O4 2.031768 1_554
Cu1 O6 2.031928 1_444
Cu1 O1 2.031928 1_555
Cu1 O0 2.043951 1_545
Cu1 O7 2.043951 1_454
