# generated using pymatgen
data_Na2VPCO7
_symmetry_space_group_name_H-M   'P 1'
_cell_length_a   6.55673300
_cell_length_b   10.37054354
_cell_length_c   10.62192185
_cell_angle_alpha   119.58230010
_cell_angle_beta   90.00019329
_cell_angle_gamma   90.00047847
_symmetry_Int_Tables_number   1
_chemical_formula_structural   Na2VPCO7
_chemical_formula_sum   'Na8 V4 P4 C4 O28'
_cell_volume   628.10949924
_cell_formula_units_Z   4
loop_
 _symmetry_equiv_pos_site_id
 _symmetry_equiv_pos_as_xyz
  1  'x, y, z'
loop_
 _atom_site_type_symbol
 _atom_site_label
 _atom_site_symmetry_multiplicity
 _atom_site_fract_x
 _atom_site_fract_y
 _atom_site_fract_z
 _atom_site_occupancy
  Na  Na0  1  0.49326900  0.00633500  0.23384800  1
  Na  Na1  1  0.49311900  0.50578300  0.73423100  1
  Na  Na2  1  0.00673500  0.00633400  0.23385600  1
  Na  Na3  1  0.00687000  0.50578900  0.73423300  1
  Na  Na4  1  0.50651000  0.99283900  0.76572100  1
  Na  Na5  1  0.50698700  0.49372000  0.26539500  1
  Na  Na6  1  0.99350800  0.99283000  0.76571700  1
  Na  Na7  1  0.99301700  0.49371400  0.26539000  1
  V  V0  1  0.75000000  0.71945900  0.07071700  1
  V  V1  1  0.24999900  0.28037200  0.92890200  1
  V  V2  1  0.75000300  0.21984900  0.57088800  1
  V  V3  1  0.24998700  0.78024900  0.42879300  1
  P  P0  1  0.24999800  0.14562000  0.57039500  1
  P  P1  1  0.24999600  0.64541900  0.06897600  1
  P  P2  1  0.74999500  0.85448300  0.43016000  1
  P  P3  1  0.75000500  0.35456300  0.93053800  1
  C  C0  1  0.75000100  0.32356000  0.40378100  1
  C  C1  1  0.75000200  0.82189300  0.90286800  1
  C  C2  1  0.24999900  0.67690000  0.59633900  1
  C  C3  1  0.25000200  0.17803600  0.09687000  1
  O  O0  1  0.25000500  0.12896800  0.18360000  1
  O  O1  1  0.24999800  0.62936700  0.68422200  1
  O  O2  1  0.75000400  0.87116200  0.81632100  1
  O  O3  1  0.75000400  0.37007000  0.31514700  1
  O  O4  1  0.75000300  0.40766300  0.54491200  1
  O  O5  1  0.75001100  0.90514500  0.04492900  1
  O  O6  1  0.24998500  0.59318500  0.45475700  1
  O  O7  1  0.24999600  0.09477200  0.95489400  1
  O  O8  1  0.74999600  0.17845500  0.36187700  1
  O  O9  1  0.74999000  0.67770100  0.86013100  1
  O  O10  1  0.25001500  0.82139100  0.63827900  1
  O  O11  1  0.25000600  0.32230500  0.13956200  1
  O  O12  1  0.75000200  0.86472000  0.28837700  1
  O  O13  1  0.75000000  0.36313700  0.78800500  1
  O  O14  1  0.24999900  0.13404900  0.71132500  1
  O  O15  1  0.25000000  0.63713800  0.21177000  1
  O  O16  1  0.24999500  0.98776800  0.43471000  1
  O  O17  1  0.25000300  0.48593400  0.93559700  1
  O  O18  1  0.74999500  0.01258100  0.56496700  1
  O  O19  1  0.75000500  0.51407400  0.06423000  1
  O  O20  1  0.05862600  0.23376600  0.57013700  1
  O  O21  1  0.05874400  0.73079200  0.06442900  1
  O  O22  1  0.44137600  0.23376700  0.57013700  1
  O  O23  1  0.44124800  0.73079200  0.06443000  1
  O  O24  1  0.55870700  0.76751700  0.43257300  1
  O  O25  1  0.55873100  0.26925700  0.93524300  1
  O  O26  1  0.94128400  0.76752100  0.43258100  1
  O  O27  1  0.94127100  0.26925300  0.93524000  1
loop_
_geom_bond_atom_site_label_1
_geom_bond_atom_site_label_2
_geom_bond_distance
_geom_bond_site_symmetry_2
Na0 O0 2.261984 1_555
Na0 O8 2.339276 1_555
Na0 O5 2.425428 1_545
Na0 O12 2.483110 1_545
Na0 O23 2.538302 1_545
Na0 O16 2.745722 1_545
Na1 O1 2.266726 1_555
Na1 O9 2.334426 1_555
Na1 O4 2.428149 1_555
Na1 O13 2.487127 1_555
Na1 O22 2.501240 1_555
Na1 O17 2.755531 1_555
Na2 O0 2.262050 1_555
Na2 O8 2.339348 1_455
Na2 O5 2.425376 1_445
Na2 O12 2.483044 1_445
Na2 O21 2.538306 1_545
Na2 O16 2.745589 1_545
Na3 O1 2.266714 1_555
Na3 O9 2.334462 1_455
Na3 O4 2.428064 1_455
Na3 O13 2.487097 1_455
Na3 O20 2.501319 1_555
Na3 O17 2.755600 1_555
Na4 O2 2.258252 1_555
Na4 O10 2.333591 1_555
Na4 O7 2.426242 1_565
Na4 O14 2.478415 1_565
Na4 O25 2.545691 1_565
Na4 O18 2.751144 1_565
Na5 O3 2.265312 1_555
Na5 O11 2.332302 1_555
Na5 O6 2.429151 1_555
Na5 O15 2.492444 1_555
Na5 O24 2.520375 1_555
Na5 O19 2.755825 1_555
Na6 O2 2.258245 1_555
Na6 O10 2.333623 1_655
Na6 O7 2.426131 1_665
Na6 O14 2.478355 1_665
Na6 O27 2.545755 1_565
Na6 O18 2.751252 1_565
Na7 O3 2.265265 1_555
Na7 O11 2.332328 1_655
Na7 O6 2.429009 1_655
Na7 O15 2.492428 1_655
Na7 O26 2.520495 1_555
Na7 O19 2.755782 1_555
C0 O3 1.251940 1_555
C0 O4 1.310353 1_555
C0 O8 1.342114 1_555
C1 O2 1.252971 1_555
C1 O5 1.317598 1_556
C1 O9 1.331134 1_555
C2 O1 1.252487 1_555
C2 O6 1.313871 1_555
C2 O10 1.335934 1_555
C3 O0 1.253186 1_555
C3 O7 1.316867 1_554
C3 O11 1.331998 1_555
O4 V2 2.097714 1_555
O5 V0 2.074612 1_555
O6 V3 2.089912 1_555
O7 V1 2.075006 1_555
O8 V2 2.042581 1_555
O9 V0 2.057796 1_556
O10 V3 2.048397 1_555
O11 V1 2.057978 1_554
O12 P2 1.561150 1_555
O12 V0 2.043473 1_555
O13 P3 1.559788 1_555
O13 V2 2.035457 1_555
O14 P0 1.559682 1_555
O14 V1 2.044796 1_555
O15 P1 1.560930 1_555
O15 V3 2.034373 1_555
O16 P0 1.558044 1_565
O16 V3 2.121762 1_555
O17 P1 1.558567 1_556
O17 V1 2.097595 1_555
O18 P2 1.555806 1_545
O18 V2 2.119139 1_555
O19 P3 1.560015 1_554
O19 V0 2.096794 1_555
O20 P0 1.553248 1_555
O20 V2 2.028994 1_455
O21 P1 1.549493 1_555
O21 V0 2.030769 1_455
O22 P0 1.553274 1_555
O22 V2 2.029023 1_555
O23 P1 1.549478 1_555
O23 V0 2.030822 1_555
O24 P2 1.552397 1_555
O24 V3 2.030184 1_555
O25 P3 1.549716 1_555
O25 V1 2.030560 1_555
O26 P2 1.552416 1_555
O26 V3 2.030073 1_655
O27 P3 1.549700 1_555
O27 V1 2.030534 1_655
