# generated using pymatgen
data_LiV6O7F5
_symmetry_space_group_name_H-M   'P 1'
_cell_length_a   9.28484100
_cell_length_b   6.58826400
_cell_length_c   9.61386788
_cell_angle_alpha   46.78687224
_cell_angle_beta   90.00000000
_cell_angle_gamma   90.00000000
_symmetry_Int_Tables_number   1
_chemical_formula_structural   LiV6O7F5
_chemical_formula_sum   'Li2 V12 O14 F10'
_cell_volume   428.60673153
_cell_formula_units_Z   2
loop_
 _symmetry_equiv_pos_site_id
 _symmetry_equiv_pos_as_xyz
  1  'x, y, z'
loop_
 _atom_site_type_symbol
 _atom_site_label
 _atom_site_symmetry_multiplicity
 _atom_site_fract_x
 _atom_site_fract_y
 _atom_site_fract_z
 _atom_site_occupancy
  Li  Li0  1  0.23541700  0.50673900  0.75142200  1
  Li  Li1  1  0.76458300  0.50673900  0.25142200  1
  V  V0  1  0.49738900  0.04672500  0.97910300  1
  V  V1  1  0.99981700  0.50339500  0.99333900  1
  V  V2  1  0.82932900  0.03059500  0.97564900  1
  V  V3  1  0.17142600  0.98654900  0.99979900  1
  V  V4  1  0.17067100  0.03059500  0.47564900  1
  V  V5  1  0.82857400  0.98654900  0.49979900  1
  V  V6  1  0.50261100  0.04672500  0.47910300  1
  V  V7  1  0.32686200  0.47014500  0.51525300  1
  V  V8  1  0.67315800  0.46408300  0.53650800  1
  V  V9  1  0.00018300  0.50339500  0.49333900  1
  V  V10  1  0.32684200  0.46408300  0.03650800  1
  V  V11  1  0.67313800  0.47014500  0.01525300  1
  O  O0  1  0.32844200  0.20424200  0.80149700  1
  O  O1  1  0.66359800  0.19758300  0.80710800  1
  O  O2  1  0.16442500  0.68821700  0.00433000  1
  O  O3  1  0.83384000  0.69459500  0.00367400  1
  O  O4  1  0.16616000  0.69459500  0.50367400  1
  O  O5  1  0.83557500  0.68821700  0.50433000  1
  O  O6  1  0.67155800  0.20424200  0.30149700  1
  O  O7  1  0.33640200  0.19758300  0.30710800  1
  O  O8  1  0.83682100  0.29370500  0.49865500  1
  O  O9  1  0.16060500  0.30206200  0.49430600  1
  O  O10  1  0.50366200  0.31575600  0.49878300  1
  O  O11  1  0.16317900  0.29370500  0.99865500  1
  O  O12  1  0.83939500  0.30206200  0.99430600  1
  O  O13  1  0.49633800  0.31575600  0.99878300  1
  F  F0  1  0.49857800  0.70122400  0.50947200  1
  F  F1  1  0.33211200  0.80642000  0.69378800  1
  F  F2  1  0.66311200  0.79860200  0.69969600  1
  F  F3  1  0.00337000  0.80338200  0.68984200  1
  F  F4  1  0.66788800  0.80642000  0.19378800  1
  F  F5  1  0.33688800  0.79860200  0.19969600  1
  F  F6  1  0.00516900  0.19792500  0.79745000  1
  F  F7  1  0.99483100  0.19792500  0.29745000  1
  F  F8  1  0.50142200  0.70122400  0.00947200  1
  F  F9  1  0.99663000  0.80338200  0.18984200  1
loop_
_geom_bond_atom_site_label_1
_geom_bond_atom_site_label_2
_geom_bond_distance
_geom_bond_site_symmetry_2
Li0 O11 1.871052 1_555
Li0 O4 1.892474 1_555
Li0 O0 1.906747 1_555
Li1 O8 1.871052 1_555
Li1 O3 1.892474 1_555
Li1 O6 1.906747 1_555
O0 V0 2.006619 1_555
O0 V7 2.010047 1_555
O0 V3 2.018052 1_545
O1 V8 1.898261 1_555
O1 V2 1.939720 1_555
O1 V0 1.962900 1_555
O2 V3 1.937015 1_554
O2 V10 1.981098 1_555
O2 V1 2.001482 1_454
O3 V1 2.035424 1_554
O3 V2 2.039084 1_564
O3 V11 2.049382 1_555
O4 V9 2.035424 1_555
O4 V4 2.039084 1_565
O4 V7 2.049382 1_555
O5 V5 1.937015 1_555
O5 V8 1.981098 1_555
O5 V9 2.001482 1_655
O6 V6 2.006619 1_555
O6 V11 2.010047 1_555
O6 V5 2.018052 1_545
O7 V10 1.898261 1_555
O7 V4 1.939720 1_555
O7 V6 1.962900 1_555
O8 V5 2.017564 1_545
O8 V9 2.028571 1_655
O8 V8 2.064211 1_555
O9 V4 1.918054 1_555
O9 V7 1.988753 1_555
O9 V9 1.990281 1_555
O10 V6 1.907013 1_555
O10 V7 1.993728 1_555
O10 V8 2.012092 1_555
O11 V3 2.017564 1_545
O11 V1 2.028571 1_455
O11 V10 2.064211 1_556
O12 V2 1.918054 1_555
O12 V11 1.988753 1_556
O12 V1 1.990281 1_555
O13 V0 1.907013 1_555
O13 V11 1.993728 1_556
O13 V10 2.012092 1_556
F0 V6 2.087551 1_565
F0 V8 2.140059 1_555
F0 V7 2.178743 1_555
F1 Li0 1.874326 1_555
F1 V4 2.141180 1_565
F1 V6 2.190360 1_565
F1 V10 2.401835 1_556
F2 V5 2.080370 1_555
F2 V6 2.154781 1_565
F2 V11 2.214671 1_556
F3 V5 2.099768 1_455
F3 V1 2.126876 1_455
F3 V4 2.161679 1_565
F4 Li1 1.874326 1_555
F4 V2 2.141180 1_564
F4 V0 2.190360 1_564
F4 V8 2.401835 1_555
F5 V3 2.080370 1_554
F5 V0 2.154781 1_564
F5 V7 2.214671 1_555
F6 V2 2.056573 1_455
F6 V3 2.096841 1_545
F6 V9 2.131344 1_555
F7 V4 2.056573 1_655
F7 V5 2.096841 1_545
F7 V1 2.131344 1_554
F8 V0 2.087551 1_564
F8 V10 2.140059 1_555
F8 V11 2.178743 1_555
F9 V3 2.099768 1_654
F9 V9 2.126876 1_655
F9 V2 2.161679 1_564
