# generated using pymatgen
data_Fe3P2(HO)16
_symmetry_space_group_name_H-M   'P 1'
_cell_length_a   8.42427959
_cell_length_b   8.42427959
_cell_length_c   4.78610890
_cell_angle_alpha   81.35778381
_cell_angle_beta   81.35778381
_cell_angle_gamma   105.06374207
_symmetry_Int_Tables_number   1
_chemical_formula_structural   Fe3P2(HO)16
_chemical_formula_sum   'Fe3 P2 H16 O16'
_cell_volume   317.82731155
_cell_formula_units_Z   1
loop_
 _symmetry_equiv_pos_site_id
 _symmetry_equiv_pos_as_xyz
  1  'x, y, z'
loop_
 _atom_site_type_symbol
 _atom_site_label
 _atom_site_symmetry_multiplicity
 _atom_site_fract_x
 _atom_site_fract_y
 _atom_site_fract_z
 _atom_site_occupancy
  Fe  Fe0  1  0.00000000  0.00000000  0.00000000  1
  Fe  Fe1  1  0.38988300  0.61011700  0.00000000  1
  Fe  Fe2  1  0.61011700  0.38988300  0.00000000  1
  P  P0  1  0.68841400  0.68841400  0.37391600  1
  P  P1  1  0.31158600  0.31158600  0.62608400  1
  H  H0  1  0.31890200  0.06049300  0.05706700  1
  H  H1  1  0.93950700  0.68109800  0.94293300  1
  H  H2  1  0.68109800  0.93950700  0.94293300  1
  H  H3  1  0.06049300  0.31890200  0.05706700  1
  H  H4  1  0.21009800  0.04359800  0.36608100  1
  H  H5  1  0.95640200  0.78990200  0.63391900  1
  H  H6  1  0.78990200  0.95640200  0.63391900  1
  H  H7  1  0.04359800  0.21009800  0.36608100  1
  H  H8  1  0.82767500  0.43359200  0.51509900  1
  H  H9  1  0.56640800  0.17232500  0.48490100  1
  H  H10  1  0.17232500  0.56640800  0.48490100  1
  H  H11  1  0.43359200  0.82767500  0.51509900  1
  H  H12  1  0.82469900  0.26220300  0.71489800  1
  H  H13  1  0.73779700  0.17530100  0.28510200  1
  H  H14  1  0.17530100  0.73779700  0.28510200  1
  H  H15  1  0.26220300  0.82469900  0.71489800  1
  O  O0  1  0.84305800  0.84305800  0.36791600  1
  O  O1  1  0.15694200  0.15694200  0.63208400  1
  O  O2  1  0.61071200  0.61071200  0.69432800  1
  O  O3  1  0.38928800  0.38928800  0.30567200  1
  O  O4  1  0.56140100  0.75562300  0.21902000  1
  O  O5  1  0.24437700  0.43859900  0.78098000  1
  O  O6  1  0.43859900  0.24437700  0.78098000  1
  O  O7  1  0.75562300  0.56140100  0.21902000  1
  O  O8  1  0.01537300  0.78062700  0.79885000  1
  O  O9  1  0.21937300  0.98462700  0.20115000  1
  O  O10  1  0.98462700  0.21937300  0.20115000  1
  O  O11  1  0.78062700  0.01537300  0.79885000  1
  O  O12  1  0.82725000  0.37986600  0.71336000  1
  O  O13  1  0.62013400  0.17275000  0.28664000  1
  O  O14  1  0.17275000  0.62013400  0.28664000  1
  O  O15  1  0.37986600  0.82725000  0.71336000  1
loop_
_geom_bond_atom_site_label_1
_geom_bond_atom_site_label_2
_geom_bond_distance
_geom_bond_site_symmetry_2
Fe0 O0 2.070948 1_445
Fe0 O1 2.070948 1_554
Fe0 O10 2.231717 1_455
Fe0 O9 2.231717 1_545
Fe0 O11 2.231717 1_454
Fe0 O8 2.231717 1_544
Fe1 O14 2.143829 1_555
Fe1 O15 2.143829 1_554
Fe1 O5 2.147065 1_554
Fe1 O4 2.147065 1_555
Fe1 O2 2.185445 1_554
Fe1 O3 2.185445 1_555
Fe2 O13 2.143829 1_555
Fe2 O12 2.143829 1_554
Fe2 O6 2.147065 1_554
Fe2 O7 2.147065 1_555
Fe2 O2 2.185445 1_554
Fe2 O3 2.185445 1_555
H0 O9 1.001135 1_545
H1 O8 1.001135 1_655
H2 O11 1.001135 1_565
H3 O10 1.001135 1_455
H4 O9 0.997755 1_545
H5 O8 0.997755 1_655
H6 O11 0.997755 1_565
H7 O10 0.997755 1_455
H8 O12 0.987086 1_555
H9 O13 0.987086 1_555
H10 O14 0.987086 1_555
H11 O15 0.987086 1_555
H12 O12 0.984750 1_555
H13 O13 0.984750 1_555
H14 O14 0.984750 1_555
H15 O15 0.984750 1_555
O0 P0 1.578147 1_555
O1 P1 1.578147 1_555
O2 P0 1.543565 1_555
O3 P1 1.543565 1_555
O4 P0 1.562752 1_555
O5 P1 1.562752 1_555
O6 P1 1.562752 1_555
O7 P0 1.562752 1_555
