# generated using pymatgen
data_Li3ZnPCO7
_symmetry_space_group_name_H-M   'P 1'
_cell_length_a   6.45146300
_cell_length_b   4.93091800
_cell_length_c   8.47407746
_cell_angle_alpha   87.64658847
_cell_angle_beta   90.00000000
_cell_angle_gamma   90.00000000
_symmetry_Int_Tables_number   1
_chemical_formula_structural   Li3ZnPCO7
_chemical_formula_sum   'Li6 Zn2 P2 C2 O14'
_cell_volume   269.34688701
_cell_formula_units_Z   2
loop_
 _symmetry_equiv_pos_site_id
 _symmetry_equiv_pos_as_xyz
  1  'x, y, z'
loop_
 _atom_site_type_symbol
 _atom_site_label
 _atom_site_symmetry_multiplicity
 _atom_site_fract_x
 _atom_site_fract_y
 _atom_site_fract_z
 _atom_site_occupancy
  Li  Li0  1  0.75000000  0.25575300  0.91337600  1
  Li  Li1  1  0.98268100  0.76873200  0.73636700  1
  Li  Li2  1  0.51731900  0.76873200  0.73636700  1
  Li  Li3  1  0.48268100  0.23126800  0.26363300  1
  Li  Li4  1  0.01731900  0.23126800  0.26363300  1
  Li  Li5  1  0.25000000  0.74424700  0.08662400  1
  Zn  Zn0  1  0.25000000  0.22519400  0.64649600  1
  Zn  Zn1  1  0.75000000  0.77480600  0.35350400  1
  P  P0  1  0.75000000  0.28736300  0.58970600  1
  P  P1  1  0.25000000  0.71263700  0.41029400  1
  C  C0  1  0.25000000  0.27090800  0.95766900  1
  C  C1  1  0.75000000  0.72909200  0.04233100  1
  O  O0  1  0.25000000  0.02098000  0.91766100  1
  O  O1  1  0.75000000  0.66626500  0.89429600  1
  O  O2  1  0.25000000  0.46640600  0.84955800  1
  O  O3  1  0.93776400  0.18367200  0.68945900  1
  O  O4  1  0.56223600  0.18367200  0.68945900  1
  O  O5  1  0.75000000  0.60544900  0.57727700  1
  O  O6  1  0.25000000  0.81362400  0.58157800  1
  O  O7  1  0.75000000  0.18637600  0.41842200  1
  O  O8  1  0.25000000  0.39455100  0.42272300  1
  O  O9  1  0.43776400  0.81632800  0.31054100  1
  O  O10  1  0.06223600  0.81632800  0.31054100  1
  O  O11  1  0.75000000  0.53359400  0.15044200  1
  O  O12  1  0.25000000  0.33373500  0.10570400  1
  O  O13  1  0.75000000  0.97902000  0.08233900  1
loop_
_geom_bond_atom_site_label_1
_geom_bond_atom_site_label_2
_geom_bond_distance
_geom_bond_site_symmetry_2
Li0 O13 1.936905 1_546
Li0 O1 2.024019 1_555
Li0 O4 2.291191 1_555
Li0 O3 2.291191 1_555
Li0 O11 2.477641 1_556
Li1 O1 2.060147 1_555
Li1 O3 2.088408 1_565
Li1 O6 2.172541 1_655
Li1 O5 2.192777 1_555
Li1 O2 2.449321 1_655
Li2 O1 2.060147 1_555
Li2 O4 2.088408 1_565
Li2 O6 2.172541 1_555
Li2 O5 2.192777 1_555
Li2 O2 2.449321 1_555
Li3 O12 2.060147 1_555
Li3 O9 2.088408 1_545
Li3 O7 2.172541 1_555
Li3 O8 2.192777 1_555
Li3 O11 2.449321 1_555
Li4 O12 2.060147 1_555
Li4 O10 2.088408 1_545
Li4 O7 2.172541 1_455
Li4 O8 2.192777 1_555
Li4 O11 2.449321 1_455
Li5 O0 1.936905 1_564
Li5 O12 2.024019 1_555
Li5 O9 2.291191 1_555
Li5 O10 2.291191 1_555
Li5 O2 2.477641 1_554
C0 O0 1.291512 1_555
C0 O2 1.302325 1_555
C0 O12 1.304438 1_556
C1 O13 1.291512 1_555
C1 O11 1.302325 1_555
C1 O1 1.304438 1_554
O0 Zn0 2.470661 1_555
O2 Zn0 2.131613 1_555
O3 P0 1.551727 1_555
O3 Zn0 2.055740 1_655
O4 P0 1.551727 1_555
O4 Zn0 2.055740 1_555
O5 P0 1.567667 1_555
O5 Zn1 2.040381 1_555
O6 P1 1.553737 1_555
O6 Zn0 2.124349 1_565
O7 P0 1.553737 1_555
O7 Zn1 2.124349 1_545
O8 P1 1.567667 1_555
O8 Zn0 2.040381 1_555
O9 P1 1.551727 1_555
O9 Zn1 2.055740 1_555
O10 P1 1.551727 1_555
O10 Zn1 2.055740 1_455
O11 Zn1 2.131613 1_555
O13 Zn1 2.470661 1_555
