# generated using pymatgen
data_Li2CuNiO4
_symmetry_space_group_name_H-M   'P 1'
_cell_length_a   5.86708284
_cell_length_b   5.86708284
_cell_length_c   5.86708284
_cell_angle_alpha   121.07338573
_cell_angle_beta   120.71931667
_cell_angle_gamma   88.45464227
_symmetry_Int_Tables_number   1
_chemical_formula_structural   Li2CuNiO4
_chemical_formula_sum   'Li4 Cu2 Ni2 O8'
_cell_volume   140.81558369
_cell_formula_units_Z   2
loop_
 _symmetry_equiv_pos_site_id
 _symmetry_equiv_pos_as_xyz
  1  'x, y, z'
loop_
 _atom_site_type_symbol
 _atom_site_label
 _atom_site_symmetry_multiplicity
 _atom_site_fract_x
 _atom_site_fract_y
 _atom_site_fract_z
 _atom_site_occupancy
  Li  Li0  1  0.50000000  0.00000000  0.00000000  1
  Li  Li1  1  0.00000000  0.50000000  0.50000000  1
  Li  Li2  1  0.50000000  0.50000000  0.50000000  1
  Li  Li3  1  0.50000000  0.50000000  0.00000000  1
  Cu  Cu0  1  0.50000000  0.00000000  0.50000000  1
  Cu  Cu1  1  0.00000000  0.00000000  0.00000000  1
  Ni  Ni0  1  0.00000000  0.00000000  0.50000000  1
  Ni  Ni1  1  0.00000000  0.50000000  0.00000000  1
  O  O0  1  0.77035700  0.74717800  0.02317900  1
  O  O1  1  0.22785600  0.73748000  0.00962400  1
  O  O2  1  0.22400000  0.74717800  0.47682100  1
  O  O3  1  0.22785600  0.21823200  0.49037600  1
  O  O4  1  0.77214400  0.78176800  0.50962400  1
  O  O5  1  0.77600000  0.25282200  0.52317900  1
  O  O6  1  0.77214400  0.26252000  0.99037600  1
  O  O7  1  0.22964300  0.25282200  0.97682100  1
loop_
_geom_bond_atom_site_label_1
_geom_bond_atom_site_label_2
_geom_bond_distance
_geom_bond_site_symmetry_2
Li0 O5 2.143769 1_555
Li0 O2 2.143769 1_544
Li0 O0 2.143769 1_545
Li0 O7 2.143769 1_554
Li0 O1 2.288982 1_545
Li0 O6 2.288982 1_554
Li1 O2 2.082735 1_555
Li1 O5 2.082735 1_455
Li1 O3 2.094002 1_555
Li1 O4 2.094002 1_455
Li1 O6 2.094002 1_454
Li1 O1 2.094002 1_556
Li2 O5 2.143765 1_555
Li2 O2 2.143765 1_555
Li2 O7 2.143769 1_554
Li2 O0 2.143769 1_556
Li2 O4 2.288982 1_555
Li2 O3 2.288982 1_555
Li3 O0 2.082731 1_555
Li3 O7 2.082731 1_554
Li3 O1 2.094002 1_555
Li3 O4 2.094002 1_555
Li3 O3 2.094002 1_554
Li3 O6 2.094002 1_554
Cu0 O1 2.015999 1_545
Cu0 O3 2.015999 1_555
Cu0 O6 2.015999 1_555
Cu0 O4 2.015999 1_545
Cu0 O2 2.130087 1_545
Cu0 O5 2.130087 1_555
Cu1 O6 2.015999 1_454
Cu1 O3 2.015999 1_555
Cu1 O4 2.015999 1_444
Cu1 O1 2.015999 1_545
Cu1 O7 2.130091 1_554
Cu1 O0 2.130091 1_445
Ni0 O4 1.916720 1_445
Ni0 O3 1.916720 1_555
Ni0 O0 1.953241 1_445
Ni0 O7 1.953241 1_555
Ni0 O5 1.953245 1_455
Ni0 O2 1.953245 1_545
Ni1 O6 1.916720 1_454
Ni1 O1 1.916720 1_555
Ni1 O5 1.953241 1_454
Ni1 O2 1.953241 1_555
Ni1 O7 1.953241 1_554
Ni1 O0 1.953241 1_455
