# generated using pymatgen
data_Li2VF4
_symmetry_space_group_name_H-M   'P 1'
_cell_length_a   6.01107300
_cell_length_b   9.03566400
_cell_length_c   12.24803000
_cell_angle_alpha   90.00000000
_cell_angle_beta   90.00000000
_cell_angle_gamma   90.00000000
_symmetry_Int_Tables_number   1
_chemical_formula_structural   Li2VF4
_chemical_formula_sum   'Li16 V8 F32'
_cell_volume   665.23994122
_cell_formula_units_Z   8
loop_
 _symmetry_equiv_pos_site_id
 _symmetry_equiv_pos_as_xyz
  1  'x, y, z'
loop_
 _atom_site_type_symbol
 _atom_site_label
 _atom_site_symmetry_multiplicity
 _atom_site_fract_x
 _atom_site_fract_y
 _atom_site_fract_z
 _atom_site_occupancy
  Li  Li0  1  0.62371300  0.75511800  0.54494700  1
  Li  Li1  1  0.22244100  0.95250500  0.61068100  1
  Li  Li2  1  0.78478500  0.47082200  0.63362000  1
  Li  Li3  1  0.25605300  0.69285700  0.72480400  1
  Li  Li4  1  0.75605300  0.19285700  0.77519600  1
  Li  Li5  1  0.28478500  0.97082200  0.86638000  1
  Li  Li6  1  0.72244100  0.45250500  0.88931900  1
  Li  Li7  1  0.12371300  0.25511800  0.95505300  1
  Li  Li8  1  0.87628700  0.75511800  0.04494700  1
  Li  Li9  1  0.27755900  0.95250500  0.11068100  1
  Li  Li10  1  0.71521500  0.47082200  0.13362000  1
  Li  Li11  1  0.24394700  0.69285700  0.22480400  1
  Li  Li12  1  0.74394700  0.19285700  0.27519600  1
  Li  Li13  1  0.21521500  0.97082200  0.36638000  1
  Li  Li14  1  0.77755900  0.45250500  0.38931900  1
  Li  Li15  1  0.37628700  0.25511800  0.45505300  1
  V  V0  1  0.74831000  0.09624100  0.55210800  1
  V  V1  1  0.28806200  0.31637300  0.69336200  1
  V  V2  1  0.78806200  0.81637300  0.80663800  1
  V  V3  1  0.24831000  0.59624100  0.94789200  1
  V  V4  1  0.75169000  0.09624100  0.05210800  1
  V  V5  1  0.21193800  0.31637300  0.19336200  1
  V  V6  1  0.71193800  0.81637300  0.30663800  1
  V  V7  1  0.25169000  0.59624100  0.44789200  1
  F  F0  1  0.95751900  0.50356400  0.50467800  1
  F  F1  1  0.40149800  0.43149600  0.54623600  1
  F  F2  1  0.30998400  0.74481100  0.57969600  1
  F  F3  1  0.40220600  0.14248500  0.59096200  1
  F  F4  1  0.94386600  0.25161700  0.64982500  1
  F  F5  1  0.75286900  0.67896200  0.67009000  1
  F  F6  1  0.69078100  0.00026500  0.71241000  1
  F  F7  1  0.10870400  0.88168700  0.74978300  1
  F  F8  1  0.60870400  0.38168700  0.75021700  1
  F  F9  1  0.19078100  0.50026500  0.78759000  1
  F  F10  1  0.25286900  0.17896200  0.82991000  1
  F  F11  1  0.44386600  0.75161700  0.85017500  1
  F  F12  1  0.90220600  0.64248500  0.90903800  1
  F  F13  1  0.80998400  0.24481100  0.92030400  1
  F  F14  1  0.90149800  0.93149600  0.95376400  1
  F  F15  1  0.45751900  0.00356400  0.99532200  1
  F  F16  1  0.54248100  0.50356400  0.00467800  1
  F  F17  1  0.09850200  0.43149600  0.04623600  1
  F  F18  1  0.19001600  0.74481100  0.07969600  1
  F  F19  1  0.09779400  0.14248500  0.09096200  1
  F  F20  1  0.55613400  0.25161700  0.14982500  1
  F  F21  1  0.74713100  0.67896200  0.17009000  1
  F  F22  1  0.80921900  0.00026500  0.21241000  1
  F  F23  1  0.39129600  0.88168700  0.24978300  1
  F  F24  1  0.89129600  0.38168700  0.25021700  1
  F  F25  1  0.30921900  0.50026500  0.28759000  1
  F  F26  1  0.24713100  0.17896200  0.32991000  1
  F  F27  1  0.05613400  0.75161700  0.35017500  1
  F  F28  1  0.59779400  0.64248500  0.40903800  1
  F  F29  1  0.69001600  0.24481100  0.42030400  1
  F  F30  1  0.59850200  0.93149600  0.45376400  1
  F  F31  1  0.04248100  0.00356400  0.49532200  1
loop_
_geom_bond_atom_site_label_1
_geom_bond_atom_site_label_2
_geom_bond_distance
_geom_bond_site_symmetry_2
F0 Li14 1.838309 1_555
F0 Li2 1.913052 1_555
F0 V7 2.076489 1_655
F1 Li15 1.951945 1_555
F1 V7 2.116047 1_555
F1 V1 2.189568 1_555
F2 Li3 1.866606 1_555
F2 Li0 1.935520 1_555
F2 Li1 1.985640 1_555
F2 V7 2.128613 1_555
F3 Li15 1.957286 1_555
F3 Li1 2.042715 1_545
F3 V1 2.124249 1_555
F3 V0 2.174709 1_555
F4 Li4 1.978470 1_555
F4 V0 2.187519 1_555
F4 Li2 2.208354 1_555
F4 V1 2.215268 1_655
F5 Li0 1.850836 1_555
F5 Li2 1.942499 1_555
F5 V2 2.093655 1_555
F6 Li4 1.942574 1_555
F6 V2 2.105892 1_545
F6 V0 2.174053 1_555
F7 Li1 1.944108 1_555
F7 Li3 1.946598 1_555
F7 Li5 1.951504 1_555
F7 V2 2.132624 1_455
F8 Li6 1.944108 1_555
F8 Li4 1.946598 1_555
F8 Li2 1.951504 1_555
F8 V1 2.132624 1_555
F9 Li3 1.942574 1_555
F9 V1 2.105892 1_555
F9 V3 2.174053 1_555
F10 Li7 1.850836 1_555
F10 Li5 1.942499 1_545
F10 V1 2.093655 1_555
F11 Li3 1.978470 1_555
F11 V3 2.187519 1_555
F11 Li5 2.208354 1_555
F11 V2 2.215268 1_555
F12 Li8 1.957286 1_556
F12 Li6 2.042715 1_555
F12 V2 2.124249 1_555
F12 V3 2.174709 1_655
F13 Li4 1.866606 1_555
F13 Li7 1.935520 1_655
F13 Li6 1.985640 1_555
F13 V4 2.128613 1_556
F14 Li8 1.951945 1_556
F14 V4 2.116047 1_566
F14 V2 2.189568 1_555
F15 Li9 1.838309 1_546
F15 Li5 1.913052 1_545
F15 V4 2.076489 1_556
F16 Li6 1.838309 1_554
F16 Li10 1.913052 1_555
F16 V3 2.076489 1_554
F17 Li7 1.951945 1_554
F17 V3 2.116047 1_554
F17 V5 2.189568 1_555
F18 Li11 1.866606 1_555
F18 Li8 1.935520 1_455
F18 Li9 1.985640 1_555
F18 V3 2.128613 1_554
F19 Li7 1.957286 1_554
F19 Li9 2.042715 1_545
F19 V5 2.124249 1_555
F19 V4 2.174709 1_455
F20 Li12 1.978470 1_555
F20 V4 2.187519 1_555
F20 Li10 2.208354 1_555
F20 V5 2.215268 1_555
F21 Li8 1.850836 1_555
F21 Li10 1.942499 1_555
F21 V6 2.093655 1_555
F22 Li12 1.942574 1_555
F22 V6 2.105892 1_545
F22 V4 2.174053 1_555
F23 Li9 1.944108 1_555
F23 Li11 1.946598 1_555
F23 Li13 1.951504 1_555
F23 V6 2.132624 1_555
F24 Li14 1.944108 1_555
F24 Li12 1.946598 1_555
F24 Li10 1.951504 1_555
F24 V5 2.132624 1_655
F25 Li11 1.942574 1_555
F25 V5 2.105892 1_555
F25 V7 2.174053 1_555
F26 Li15 1.850836 1_555
F26 Li13 1.942499 1_545
F26 V5 2.093655 1_555
F27 Li11 1.978470 1_555
F27 V7 2.187519 1_555
F27 Li13 2.208354 1_555
F27 V6 2.215268 1_455
F28 Li0 1.957286 1_555
F28 Li14 2.042715 1_555
F28 V6 2.124249 1_555
F28 V7 2.174709 1_555
F29 Li12 1.866606 1_555
F29 Li15 1.935520 1_555
F29 Li14 1.985640 1_555
F29 V0 2.128613 1_555
F30 Li0 1.951945 1_555
F30 V0 2.116047 1_565
F30 V6 2.189568 1_555
F31 Li1 1.838309 1_545
F31 Li13 1.913052 1_545
F31 V0 2.076489 1_455
