# generated using pymatgen
data_Li2Ti6Zn3O16
_symmetry_space_group_name_H-M   'P 1'
_cell_length_a   8.46251600
_cell_length_b   8.45611300
_cell_length_c   8.46209970
_cell_angle_alpha   89.55633429
_cell_angle_beta   90.00000000
_cell_angle_gamma   90.00000000
_symmetry_Int_Tables_number   1
_chemical_formula_structural   Li2Ti6Zn3O16
_chemical_formula_sum   'Li4 Ti12 Zn6 O32'
_cell_volume   605.52962834
_cell_formula_units_Z   2
loop_
 _symmetry_equiv_pos_site_id
 _symmetry_equiv_pos_as_xyz
  1  'x, y, z'
loop_
 _atom_site_type_symbol
 _atom_site_label
 _atom_site_symmetry_multiplicity
 _atom_site_fract_x
 _atom_site_fract_y
 _atom_site_fract_z
 _atom_site_occupancy
  Li  Li0  1  0.50442800  0.74698000  0.49801100  1
  Li  Li1  1  0.37542900  0.62565400  0.87458000  1
  Li  Li2  1  0.87542900  0.37434600  0.12542000  1
  Li  Li3  1  0.00442800  0.25302000  0.50198900  1
  Ti  Ti0  1  0.86619900  0.13111800  0.86563300  1
  Ti  Ti1  1  0.11548700  0.12303000  0.14104400  1
  Ti  Ti2  1  0.37284300  0.11128400  0.38761300  1
  Ti  Ti3  1  0.87284300  0.88871600  0.61238700  1
  Ti  Ti4  1  0.61548700  0.87697000  0.85895600  1
  Ti  Ti5  1  0.36619900  0.86888200  0.13436700  1
  Ti  Ti6  1  0.13791600  0.63489100  0.61816900  1
  Ti  Ti7  1  0.88073600  0.62491900  0.37096800  1
  Ti  Ti8  1  0.62510600  0.61913000  0.12362900  1
  Ti  Ti9  1  0.12510600  0.38087000  0.87637100  1
  Ti  Ti10  1  0.38073600  0.37508100  0.62903200  1
  Ti  Ti11  1  0.63791600  0.36510900  0.38183100  1
  Zn  Zn0  1  0.49904100  0.24779500  0.00384500  1
  Zn  Zn1  1  0.24492400  0.00141100  0.75379000  1
  Zn  Zn2  1  0.74492400  0.99858900  0.24621000  1
  Zn  Zn3  1  0.99904100  0.75220500  0.99615500  1
  Zn  Zn4  1  0.75125300  0.50552100  0.74799000  1
  Zn  Zn5  1  0.25125300  0.49447900  0.25201000  1
  O  O0  1  0.60615100  0.14631700  0.35992100  1
  O  O1  1  0.36177800  0.14210200  0.60740000  1
  O  O2  1  0.11002300  0.14071600  0.88759900  1
  O  O3  1  0.14554100  0.13729000  0.35410300  1
  O  O4  1  0.89369900  0.12178400  0.11098000  1
  O  O5  1  0.36114500  0.11053000  0.13628500  1
  O  O6  1  0.64505300  0.10840300  0.88730600  1
  O  O7  1  0.88704900  0.10551700  0.64321600  1
  O  O8  1  0.38704900  0.89448300  0.35678400  1
  O  O9  1  0.14505300  0.89159700  0.11269400  1
  O  O10  1  0.86114500  0.88947000  0.86371500  1
  O  O11  1  0.39369900  0.87821600  0.88902000  1
  O  O12  1  0.64554100  0.86271000  0.64589700  1
  O  O13  1  0.61002300  0.85928400  0.11240100  1
  O  O14  1  0.86177800  0.85789800  0.39260000  1
  O  O15  1  0.10615100  0.85368300  0.64007900  1
  O  O16  1  0.38835200  0.64181200  0.12702100  1
  O  O17  1  0.62866800  0.64020100  0.89491100  1
  O  O18  1  0.88876300  0.63717200  0.60919800  1
  O  O19  1  0.86187600  0.62845800  0.14224800  1
  O  O20  1  0.10544000  0.61173700  0.39084100  1
  O  O21  1  0.64069000  0.60931300  0.35682300  1
  O  O22  1  0.35560300  0.60919500  0.62298800  1
  O  O23  1  0.12182400  0.60580700  0.86171500  1
  O  O24  1  0.62182400  0.39419300  0.13828500  1
  O  O25  1  0.85560300  0.39080500  0.37701200  1
  O  O26  1  0.14069000  0.39068700  0.64317700  1
  O  O27  1  0.60544000  0.38826300  0.60915900  1
  O  O28  1  0.36187600  0.37154200  0.85775200  1
  O  O29  1  0.38876300  0.36282800  0.39080200  1
  O  O30  1  0.12866800  0.35979900  0.10508900  1
  O  O31  1  0.88835200  0.35818800  0.87297900  1
loop_
_geom_bond_atom_site_label_1
_geom_bond_atom_site_label_2
_geom_bond_distance
_geom_bond_site_symmetry_2
Li0 O8 1.986850 1_555
Li0 O12 1.992181 1_555
Li0 O22 2.010736 1_555
Li0 O21 2.033184 1_555
Li1 O22 2.141200 1_555
Li1 O16 2.144392 1_556
Li1 O11 2.145707 1_555
Li1 O17 2.153526 1_555
Li1 O23 2.155505 1_555
Li1 O28 2.157663 1_555
Li2 O25 2.141200 1_555
Li2 O31 2.144392 1_554
Li2 O4 2.145707 1_555
Li2 O30 2.153526 1_655
Li2 O24 2.155505 1_555
Li2 O19 2.157663 1_555
Li3 O7 1.986850 1_455
Li3 O3 1.992181 1_555
Li3 O25 2.010736 1_455
Li3 O26 2.033184 1_555
O0 Ti11 1.880140 1_555
O0 Zn2 1.970828 1_545
O0 Ti2 2.009911 1_555
O1 Ti2 1.882356 1_555
O1 Zn1 1.976103 1_555
O1 Ti10 1.986483 1_555
O2 Zn1 1.998414 1_555
O2 Ti9 2.036260 1_555
O2 Ti0 2.073366 1_455
O2 Ti1 2.149227 1_556
O3 Ti1 1.825688 1_555
O3 Ti2 1.956486 1_555
O4 Ti1 1.894088 1_655
O4 Zn2 1.990322 1_545
O4 Ti0 2.090036 1_554
O5 Zn0 1.986183 1_555
O5 Ti5 2.044040 1_545
O5 Ti1 2.081976 1_555
O5 Ti2 2.129124 1_555
O6 Ti0 1.890057 1_555
O6 Zn0 1.976530 1_556
O6 Ti4 1.989313 1_545
O7 Ti3 1.857655 1_545
O7 Ti0 1.904380 1_555
O8 Ti2 1.857655 1_565
O8 Ti5 1.904380 1_555
O9 Ti5 1.890057 1_555
O9 Zn3 1.976530 1_454
O9 Ti1 1.989313 1_565
O10 Zn3 1.986183 1_555
O10 Ti0 2.044040 1_565
O10 Ti4 2.081976 1_555
O10 Ti3 2.129124 1_555
O11 Ti4 1.894088 1_555
O11 Zn1 1.990322 1_565
O11 Ti5 2.090036 1_556
O12 Ti4 1.825688 1_555
O12 Ti3 1.956486 1_555
O13 Zn2 1.998414 1_555
O13 Ti8 2.036260 1_555
O13 Ti5 2.073366 1_555
O13 Ti4 2.149227 1_554
O14 Ti3 1.882356 1_555
O14 Zn2 1.976103 1_555
O14 Ti7 1.986483 1_555
O15 Ti6 1.880140 1_555
O15 Zn1 1.970828 1_565
O15 Ti3 2.009911 1_455
O16 Ti5 1.930740 1_555
O16 Zn5 1.999126 1_555
O16 Ti8 2.012920 1_555
O17 Ti8 1.942478 1_556
O17 Zn4 1.985145 1_555
O17 Ti4 2.025874 1_555
O18 Zn4 1.988121 1_555
O18 Ti7 2.020530 1_555
O18 Ti6 2.109910 1_655
O18 Ti3 2.131726 1_555
O19 Ti7 1.942021 1_555
O19 Zn3 1.987623 1_554
O19 Ti8 2.011450 1_555
O20 Ti7 1.912159 1_455
O20 Ti6 1.954537 1_555
O20 Zn5 1.975850 1_555
O21 Ti8 1.978813 1_555
O21 Ti7 2.039251 1_555
O21 Ti11 2.074334 1_555
O22 Ti6 1.855361 1_555
O22 Ti10 1.991350 1_555
O23 Ti9 1.905376 1_555
O23 Zn3 1.981973 1_455
O23 Ti6 2.078108 1_555
O24 Ti8 1.905376 1_555
O24 Zn0 1.981973 1_555
O24 Ti11 2.078108 1_555
O25 Ti11 1.855361 1_555
O25 Ti7 1.991350 1_555
O26 Ti9 1.978813 1_555
O26 Ti10 2.039251 1_555
O26 Ti6 2.074334 1_555
O27 Ti10 1.912159 1_555
O27 Ti11 1.954537 1_555
O27 Zn4 1.975850 1_555
O28 Ti10 1.942021 1_555
O28 Zn0 1.987623 1_556
O28 Ti9 2.011450 1_555
O29 Zn5 1.988121 1_555
O29 Ti10 2.020530 1_555
O29 Ti11 2.109910 1_555
O29 Ti2 2.131726 1_555
O30 Ti9 1.942478 1_554
O30 Zn5 1.985145 1_555
O30 Ti1 2.025874 1_555
O31 Ti0 1.930740 1_555
O31 Zn4 1.999126 1_555
O31 Ti9 2.012920 1_655
