# generated using pymatgen
data_Sr2CaI6
_symmetry_space_group_name_H-M   'P 1'
_cell_length_a   13.88188383
_cell_length_b   13.88188383
_cell_length_c   7.48515900
_cell_angle_alpha   90.00000000
_cell_angle_beta   90.00000000
_cell_angle_gamma   119.99999919
_symmetry_Int_Tables_number   1
_chemical_formula_structural   Sr2CaI6
_chemical_formula_sum   'Sr6 Ca3 I18'
_cell_volume   1249.18993603
_cell_formula_units_Z   3
loop_
 _symmetry_equiv_pos_site_id
 _symmetry_equiv_pos_as_xyz
  1  'x, y, z'
loop_
 _atom_site_type_symbol
 _atom_site_label
 _atom_site_symmetry_multiplicity
 _atom_site_fract_x
 _atom_site_fract_y
 _atom_site_fract_z
 _atom_site_occupancy
  Sr  Sr0  1  0.00000000  0.64274300  0.00000000  1
  Sr  Sr1  1  0.00000000  0.31017500  0.50000000  1
  Sr  Sr2  1  0.35725700  0.35725700  0.00000000  1
  Sr  Sr3  1  0.31017500  0.00000000  0.50000000  1
  Sr  Sr4  1  0.68982500  0.68982500  0.50000000  1
  Sr  Sr5  1  0.64274300  0.00000000  0.00000000  1
  Ca  Ca0  1  0.33333300  0.66666700  0.49573500  1
  Ca  Ca1  1  0.00000000  0.00000000  0.00000000  1
  Ca  Ca2  1  0.66666700  0.33333300  0.50426500  1
  I  I0  1  0.09008200  0.87459100  0.76215800  1
  I  I1  1  0.22778300  0.77489700  0.25285600  1
  I  I2  1  0.12157100  0.54045600  0.74225800  1
  I  I3  1  0.41888500  0.87842900  0.74225800  1
  I  I4  1  0.22510300  0.45288600  0.25285600  1
  I  I5  1  0.12540900  0.21549100  0.76215800  1
  I  I6  1  0.54711400  0.77221700  0.25285600  1
  I  I7  1  0.21549100  0.12540900  0.23784200  1
  I  I8  1  0.45954400  0.58111500  0.74225800  1
  I  I9  1  0.78450900  0.90991800  0.76215800  1
  I  I10  1  0.45288600  0.22510300  0.74714400  1
  I  I11  1  0.58111500  0.45954400  0.25774200  1
  I  I12  1  0.54045600  0.12157100  0.25774200  1
  I  I13  1  0.77221700  0.54711400  0.74714400  1
  I  I14  1  0.90991800  0.78450900  0.23784200  1
  I  I15  1  0.77489700  0.22778300  0.74714400  1
  I  I16  1  0.87842900  0.41888500  0.25774200  1
  I  I17  1  0.87459100  0.09008200  0.23784200  1
loop_
_geom_bond_atom_site_label_1
_geom_bond_atom_site_label_2
_geom_bond_distance
_geom_bond_site_symmetry_2
Ca0 I1 3.148130 1_555
Ca0 I4 3.148140 1_555
Ca0 I6 3.148140 1_555
Ca0 I3 3.156869 1_555
Ca0 I2 3.156870 1_555
Ca0 I8 3.156879 1_555
Ca1 I17 3.152933 1_455
Ca1 I0 3.152933 1_544
Ca1 I9 3.152933 1_444
Ca1 I14 3.152933 1_445
Ca1 I5 3.152933 1_554
Ca1 I7 3.152933 1_555
Ca2 I15 3.148130 1_555
Ca2 I10 3.148140 1_555
Ca2 I13 3.148140 1_555
Ca2 I16 3.156869 1_555
Ca2 I12 3.156870 1_555
Ca2 I11 3.156879 1_555
I0 Sr3 3.301098 1_565
I0 Sr0 3.326725 1_556
I1 Sr3 3.304693 1_565
I1 Sr0 3.338475 1_555
I2 Sr1 3.310665 1_555
I2 Sr0 3.314005 1_556
I3 Sr3 3.310665 1_565
I3 Sr5 3.314005 1_566
I4 Sr1 3.304693 1_555
I4 Sr2 3.338475 1_555
I5 Sr1 3.301098 1_555
I5 Sr2 3.326725 1_556
I6 Sr4 3.304693 1_555
I6 Sr5 3.338475 1_565
I7 Sr3 3.301098 1_555
I7 Sr2 3.326725 1_555
I8 Sr4 3.310665 1_555
I8 Sr2 3.314005 1_556
I9 Sr4 3.301098 1_555
I9 Sr5 3.326725 1_566
I10 Sr3 3.304693 1_555
I10 Sr2 3.338475 1_556
I11 Sr4 3.310665 1_555
I11 Sr2 3.314005 1_555
I12 Sr3 3.310665 1_555
I12 Sr5 3.314005 1_555
I13 Sr4 3.304693 1_555
I13 Sr0 3.338475 1_656
I14 Sr4 3.301098 1_555
I14 Sr0 3.326725 1_655
I15 Sr1 3.304693 1_655
I15 Sr5 3.338475 1_556
I16 Sr1 3.310665 1_655
I16 Sr0 3.314005 1_655
I17 Sr1 3.301098 1_655
I17 Sr5 3.326725 1_555
