# generated using pymatgen
data_Pr2S2O
_symmetry_space_group_name_H-M   'P 1'
_cell_length_a   7.25515415
_cell_length_b   7.14288540
_cell_length_c   8.61920605
_cell_angle_alpha   81.44457220
_cell_angle_beta   90.00000000
_cell_angle_gamma   90.00000000
_symmetry_Int_Tables_number   1
_chemical_formula_structural   Pr2S2O
_chemical_formula_sum   'Pr8 S8 O4'
_cell_volume   441.70045858
_cell_formula_units_Z   4
loop_
 _symmetry_equiv_pos_site_id
 _symmetry_equiv_pos_as_xyz
  1  'x, y, z'
loop_
 _atom_site_type_symbol
 _atom_site_label
 _atom_site_symmetry_multiplicity
 _atom_site_fract_x
 _atom_site_fract_y
 _atom_site_fract_z
 _atom_site_occupancy
  Pr  Pr0  1  0.44416484  0.24836395  0.13738295  1
  Pr  Pr1  1  0.05583516  0.74836395  0.13738295  1
  Pr  Pr2  1  0.86468521  0.31361072  0.41860962  1
  Pr  Pr3  1  0.63531479  0.81361072  0.41860962  1
  Pr  Pr4  1  0.36468521  0.18638928  0.58139038  1
  Pr  Pr5  1  0.13531479  0.68638928  0.58139038  1
  Pr  Pr6  1  0.94416484  0.25163605  0.86261705  1
  Pr  Pr7  1  0.55583516  0.75163605  0.86261705  1
  S  S0  1  0.77505107  0.47176739  0.07877645  1
  S  S1  1  0.72494893  0.97176739  0.07877645  1
  S  S2  1  0.14491056  0.06299081  0.32406827  1
  S  S3  1  0.35508944  0.56299081  0.32406827  1
  S  S4  1  0.64491056  0.43700919  0.67593173  1
  S  S5  1  0.85508944  0.93700919  0.67593173  1
  S  S6  1  0.27505107  0.02823261  0.92122355  1
  S  S7  1  0.22494893  0.52823261  0.92122355  1
  O  O0  1  0.58747116  0.14913806  0.38268376  1
  O  O1  1  0.91252884  0.64913806  0.38268376  1
  O  O2  1  0.08747116  0.35086194  0.61731624  1
  O  O3  1  0.41252884  0.85086194  0.61731624  1
loop_
_geom_bond_atom_site_label_1
_geom_bond_atom_site_label_2
_geom_bond_distance
_geom_bond_site_symmetry_2
Pr0 S6 2.884546 1_554
Pr0 S0 2.885267 1_555
Pr0 S2 2.902118 1_555
Pr0 S1 2.933495 1_545
Pr0 S7 2.981419 1_554
Pr0 S3 3.022128 1_555
Pr1 S7 2.884546 1_554
Pr1 S1 2.885267 1_455
Pr1 S3 2.902118 1_555
Pr1 S0 2.933495 1_455
Pr1 S6 2.981419 1_564
Pr1 S2 3.022128 1_565
Pr2 S2 2.904493 1_655
Pr2 S4 2.969868 1_555
Pr2 S0 3.048633 1_555
Pr2 S5 3.222585 1_545
Pr3 S3 2.904493 1_555
Pr3 S5 2.969868 1_555
Pr3 S1 3.048633 1_555
Pr3 S4 3.222585 1_555
Pr4 S4 2.904493 1_555
Pr4 S2 2.969868 1_555
Pr4 S6 3.048633 1_555
Pr4 S3 3.222585 1_555
Pr5 S5 2.904493 1_455
Pr5 S3 2.969868 1_555
Pr5 S7 3.048633 1_555
Pr5 S2 3.222585 1_565
Pr6 S0 2.884546 1_556
Pr6 S6 2.885267 1_655
Pr6 S4 2.902118 1_555
Pr6 S7 2.933495 1_655
Pr6 S1 2.981419 1_546
Pr6 S5 3.022128 1_545
Pr7 S1 2.884546 1_556
Pr7 S7 2.885267 1_555
Pr7 S5 2.902118 1_555
Pr7 S6 2.933495 1_565
Pr7 S0 2.981419 1_556
Pr7 S4 3.022128 1_555
O0 Pr0 2.368065 1_555
O0 Pr2 2.372625 1_555
O0 Pr3 2.395708 1_545
O0 Pr4 2.398392 1_555
O1 Pr1 2.368065 1_655
O1 Pr3 2.372625 1_555
O1 Pr2 2.395708 1_555
O1 Pr5 2.398392 1_655
O2 Pr6 2.368065 1_455
O2 Pr4 2.372625 1_555
O2 Pr5 2.395708 1_555
O2 Pr2 2.398392 1_455
O3 Pr7 2.368065 1_555
O3 Pr5 2.372625 1_555
O3 Pr4 2.395708 1_565
O3 Pr3 2.398392 1_555
