# generated using pymatgen
data_Ti(PO3)4
_symmetry_space_group_name_H-M   'P 1'
_cell_length_a   7.20893472
_cell_length_b   7.20893472
_cell_length_c   10.20865755
_cell_angle_alpha   66.03707848
_cell_angle_beta   66.03707848
_cell_angle_gamma   69.97091260
_symmetry_Int_Tables_number   1
_chemical_formula_structural   Ti(PO3)4
_chemical_formula_sum   'Ti2 P8 O24'
_cell_volume   432.88870131
_cell_formula_units_Z   2
loop_
 _symmetry_equiv_pos_site_id
 _symmetry_equiv_pos_as_xyz
  1  'x, y, z'
loop_
 _atom_site_type_symbol
 _atom_site_label
 _atom_site_symmetry_multiplicity
 _atom_site_fract_x
 _atom_site_fract_y
 _atom_site_fract_z
 _atom_site_occupancy
  Ti  Ti0  1  0.06026000  0.93974000  0.25000000  1
  Ti  Ti1  1  0.93974000  0.06026000  0.75000000  1
  P  P0  1  0.28248900  0.31124700  0.19802900  1
  P  P1  1  0.24753800  0.73172400  0.97871500  1
  P  P2  1  0.26827600  0.75246200  0.52128500  1
  P  P3  1  0.31124700  0.28248900  0.69802900  1
  P  P4  1  0.68875300  0.71751100  0.30197100  1
  P  P5  1  0.73172400  0.24753800  0.47871500  1
  P  P6  1  0.75246200  0.26827600  0.02128500  1
  P  P7  1  0.71751100  0.68875300  0.80197100  1
  O  O0  1  0.81017700  0.64352400  0.65827100  1
  O  O1  1  0.80854500  0.24926400  0.59642900  1
  O  O2  1  0.46799200  0.71326500  0.85535500  1
  O  O3  1  0.24926400  0.80854500  0.09642900  1
  O  O4  1  0.21612700  0.49833100  0.05674500  1
  O  O5  1  0.24162300  0.12341600  0.18855800  1
  O  O6  1  0.35647600  0.18982300  0.84172900  1
  O  O7  1  0.49833100  0.21612700  0.55674500  1
  O  O8  1  0.08661100  0.85084700  0.89930700  1
  O  O9  1  0.87658400  0.75837700  0.31144200  1
  O  O10  1  0.28673500  0.53200800  0.64464500  1
  O  O11  1  0.14915300  0.91338900  0.60069300  1
  O  O12  1  0.85084700  0.08661100  0.39930700  1
  O  O13  1  0.71326500  0.46799200  0.35535500  1
  O  O14  1  0.12341600  0.24162300  0.68855800  1
  O  O15  1  0.91338900  0.14915300  0.10069300  1
  O  O16  1  0.50166900  0.78387300  0.44325500  1
  O  O17  1  0.64352400  0.81017700  0.15827100  1
  O  O18  1  0.75837700  0.87658400  0.81144200  1
  O  O19  1  0.78387300  0.50166900  0.94325500  1
  O  O20  1  0.75073600  0.19145500  0.90357100  1
  O  O21  1  0.53200800  0.28673500  0.14464500  1
  O  O22  1  0.19145500  0.75073500  0.40357100  1
  O  O23  1  0.18982300  0.35647600  0.34172900  1
loop_
_geom_bond_atom_site_label_1
_geom_bond_atom_site_label_2
_geom_bond_distance
_geom_bond_site_symmetry_2
O0 P7 1.465575 1_555
O1 P5 1.519335 1_555
O1 Ti1 1.948174 1_555
O2 P1 1.579517 1_555
O2 P7 1.621112 1_555
O3 P1 1.519335 1_554
O3 Ti0 1.948174 1_555
O4 P1 1.594506 1_554
O4 P0 1.632947 1_555
O5 P0 1.527203 1_555
O5 Ti0 1.923838 1_545
O6 P3 1.465575 1_555
O7 P5 1.594506 1_555
O7 P3 1.632947 1_555
O8 P1 1.502159 1_555
O8 Ti1 2.017475 1_465
O9 P4 1.527203 1_555
O9 Ti0 1.923838 1_655
O10 P2 1.579517 1_555
O10 P3 1.621112 1_555
O11 P2 1.502159 1_555
O11 Ti1 2.017475 1_465
O12 P5 1.502159 1_555
O12 Ti0 2.017475 1_645
O13 P5 1.579517 1_555
O13 P4 1.621112 1_555
O14 P3 1.527203 1_555
O14 Ti1 1.923838 1_455
O15 P6 1.502159 1_555
O15 Ti0 2.017475 1_645
O16 P2 1.594506 1_555
O16 P4 1.632947 1_555
O17 P4 1.465575 1_555
O18 P7 1.527203 1_555
O18 Ti1 1.923838 1_565
O19 P6 1.594506 1_556
O19 P7 1.632947 1_555
O20 P6 1.519335 1_556
O20 Ti1 1.948174 1_555
O21 P6 1.579517 1_555
O21 P0 1.621112 1_555
O22 P2 1.519338 1_555
O22 Ti0 1.948175 1_555
O23 P0 1.465575 1_555
