# generated using pymatgen
data_U3As2O19
_symmetry_space_group_name_H-M   'P 1'
_cell_length_a   7.31923000
_cell_length_b   12.02396300
_cell_length_c   20.77534200
_cell_angle_alpha   90.00000000
_cell_angle_beta   90.00000000
_cell_angle_gamma   90.00000000
_symmetry_Int_Tables_number   1
_chemical_formula_structural   U3As2O19
_chemical_formula_sum   'U12 As8 O76'
_cell_volume   1828.35787907
_cell_formula_units_Z   4
loop_
 _symmetry_equiv_pos_site_id
 _symmetry_equiv_pos_as_xyz
  1  'x, y, z'
loop_
 _atom_site_type_symbol
 _atom_site_label
 _atom_site_symmetry_multiplicity
 _atom_site_fract_x
 _atom_site_fract_y
 _atom_site_fract_z
 _atom_site_occupancy
  U  U0  1  0.83937600  0.84004400  0.07895600  1
  U  U1  1  0.33937600  0.15995600  0.92104400  1
  U  U2  1  0.33937600  0.84004400  0.42104400  1
  U  U3  1  0.83937600  0.15995600  0.57895600  1
  U  U4  1  0.33954600  0.72954200  0.14867100  1
  U  U5  1  0.83954600  0.27045800  0.85132900  1
  U  U6  1  0.83954600  0.72954200  0.35132900  1
  U  U7  1  0.33954600  0.27045800  0.64867100  1
  U  U8  1  0.85583900  0.33624400  0.10469500  1
  U  U9  1  0.35583900  0.66375600  0.89530500  1
  U  U10  1  0.35583900  0.33624400  0.39530500  1
  U  U11  1  0.85583900  0.66375600  0.60469500  1
  As  As0  1  0.84650600  0.63030100  0.18511200  1
  As  As1  1  0.34650600  0.36969900  0.81488800  1
  As  As2  1  0.34650600  0.63030100  0.31488800  1
  As  As3  1  0.84650600  0.36969900  0.68511200  1
  As  As4  1  0.33334800  0.89607800  0.01917000  1
  As  As5  1  0.83334800  0.10392200  0.98083000  1
  As  As6  1  0.83334800  0.89607800  0.48083000  1
  As  As7  1  0.33334800  0.10392200  0.51917000  1
  O  O0  1  0.34767400  0.03535900  0.00471700  1
  O  O1  1  0.84767400  0.96464100  0.99528300  1
  O  O2  1  0.84767400  0.03535900  0.49528300  1
  O  O3  1  0.34767400  0.96464100  0.50471700  1
  O  O4  1  0.66437900  0.70189200  0.15216600  1
  O  O5  1  0.16437900  0.29810800  0.84783400  1
  O  O6  1  0.16437900  0.70189200  0.34783400  1
  O  O7  1  0.66437900  0.29810800  0.65216600  1
  O  O8  1  0.83111900  0.60957800  0.26621100  1
  O  O9  1  0.33111900  0.39042200  0.73378900  1
  O  O10  1  0.33111900  0.60957800  0.23378900  1
  O  O11  1  0.83111900  0.39042200  0.76621100  1
  O  O12  1  0.16462700  0.86340000  0.07442500  1
  O  O13  1  0.66462700  0.13660000  0.92557500  1
  O  O14  1  0.66462700  0.86340000  0.42557500  1
  O  O15  1  0.16462700  0.13660000  0.57442500  1
  O  O16  1  0.01554700  0.72192300  0.16108400  1
  O  O17  1  0.51554700  0.27807700  0.83891600  1
  O  O18  1  0.51554700  0.72192300  0.33891600  1
  O  O19  1  0.01554700  0.27807700  0.66108400  1
  O  O20  1  0.35971700  0.84243900  0.20483900  1
  O  O21  1  0.85971700  0.15756100  0.79516100  1
  O  O22  1  0.85971700  0.84243900  0.29516100  1
  O  O23  1  0.35971700  0.15756100  0.70483900  1
  O  O24  1  0.31819200  0.61844700  0.09176300  1
  O  O25  1  0.81819200  0.38155300  0.90823700  1
  O  O26  1  0.81819200  0.61844700  0.40823700  1
  O  O27  1  0.31819200  0.38155300  0.59176300  1
  O  O28  1  0.86456200  0.72831900  0.02284500  1
  O  O29  1  0.36456200  0.27168100  0.97715500  1
  O  O30  1  0.36456200  0.72831900  0.47715500  1
  O  O31  1  0.86456200  0.27168100  0.52284500  1
  O  O32  1  0.88503800  0.50277600  0.15094600  1
  O  O33  1  0.38503800  0.49722400  0.84905400  1
  O  O34  1  0.38503800  0.50277600  0.34905400  1
  O  O35  1  0.88503800  0.49722400  0.65094600  1
  O  O36  1  0.51488700  0.84323300  0.06296100  1
  O  O37  1  0.01488700  0.15676700  0.93703900  1
  O  O38  1  0.01488700  0.84323300  0.43703900  1
  O  O39  1  0.51488700  0.15676700  0.56296100  1
  O  O40  1  0.81700100  0.94868400  0.13770200  1
  O  O41  1  0.31700100  0.05131600  0.86229800  1
  O  O42  1  0.31700100  0.94868400  0.36229800  1
  O  O43  1  0.81700100  0.05131600  0.63770200  1
  O  O44  1  0.31051900  0.82625700  0.94763200  1
  O  O45  1  0.81051900  0.17374300  0.05236800  1
  O  O46  1  0.81051900  0.82625700  0.55236800  1
  O  O47  1  0.31051900  0.17374300  0.44763200  1
  O  O48  1  0.02925200  0.36576600  0.04426600  1
  O  O49  1  0.52925200  0.63423400  0.95573400  1
  O  O50  1  0.52925200  0.36576600  0.45573400  1
  O  O51  1  0.02925200  0.63423400  0.54426600  1
  O  O52  1  0.78108600  0.27929200  0.18233800  1
  O  O53  1  0.28108600  0.72070800  0.81766200  1
  O  O54  1  0.28108600  0.27929200  0.31766200  1
  O  O55  1  0.78108600  0.72070800  0.68233800  1
  O  O56  1  0.64238400  0.38897200  0.06521600  1
  O  O57  1  0.14238400  0.61102800  0.93478400  1
  O  O58  1  0.14238400  0.38897200  0.43478400  1
  O  O59  1  0.64238400  0.61102800  0.56521600  1
  O  O60  1  0.21292400  0.31421900  0.17587500  1
  O  O61  1  0.71292400  0.68578100  0.82412500  1
  O  O62  1  0.71292400  0.31421900  0.32412500  1
  O  O63  1  0.21292400  0.68578100  0.67587500  1
  O  O64  1  0.18064500  0.22090400  0.15349200  1
  O  O65  1  0.68064500  0.77909600  0.84650800  1
  O  O66  1  0.68064500  0.22090400  0.34650800  1
  O  O67  1  0.18064500  0.77909600  0.65349200  1
  O  O68  1  0.04467600  0.07923600  0.27148200  1
  O  O69  1  0.54467600  0.92076400  0.72851800  1
  O  O70  1  0.54467600  0.07923600  0.22851800  1
  O  O71  1  0.04467600  0.92076400  0.77148200  1
  O  O72  1  0.49155700  0.11038800  0.17618600  1
  O  O73  1  0.99155700  0.88961200  0.82381400  1
  O  O74  1  0.99155700  0.11038800  0.32381400  1
  O  O75  1  0.49155700  0.88961200  0.67618600  1
loop_
_geom_bond_atom_site_label_1
_geom_bond_atom_site_label_2
_geom_bond_distance
_geom_bond_site_symmetry_2
As0 O8 1.706904 1_555
As0 O32 1.713052 1_555
As0 O4 1.728134 1_555
As0 O16 1.730211 1_655
As1 O9 1.706904 1_555
As1 O33 1.713052 1_555
As1 O5 1.728134 1_555
As1 O17 1.730211 1_555
As2 O10 1.706904 1_555
As2 O34 1.713052 1_555
As2 O6 1.728134 1_555
As2 O18 1.730211 1_555
As3 O11 1.706904 1_555
As3 O35 1.713052 1_555
As3 O7 1.728134 1_555
As3 O19 1.730211 1_655
As4 O0 1.704643 1_565
As4 O44 1.715107 1_554
As4 O36 1.731167 1_555
As4 O12 1.731229 1_555
As5 O1 1.704643 1_545
As5 O45 1.715107 1_556
As5 O37 1.731167 1_655
As5 O13 1.731229 1_555
As6 O2 1.704643 1_565
As6 O46 1.715107 1_555
As6 O38 1.731167 1_655
As6 O14 1.731229 1_555
As7 O3 1.704643 1_545
As7 O47 1.715107 1_555
As7 O39 1.731167 1_555
As7 O15 1.731229 1_555
O0 U1 2.295637 1_554
O1 U0 2.295637 1_556
O2 U3 2.295637 1_555
O3 U2 2.295637 1_555
O4 U4 2.401758 1_555
O4 U0 2.590995 1_555
O5 U5 2.401758 1_455
O5 U1 2.590995 1_555
O6 U6 2.401758 1_455
O6 U2 2.590995 1_555
O7 U7 2.401758 1_555
O7 U3 2.590995 1_555
O8 U6 2.282877 1_555
O9 U7 2.282877 1_555
O10 U4 2.282877 1_555
O11 U5 2.282877 1_555
O12 U0 2.398942 1_455
O12 U4 2.570771 1_555
O13 U1 2.398942 1_555
O13 U5 2.570771 1_555
O14 U2 2.398942 1_555
O14 U6 2.570771 1_555
O15 U3 2.398942 1_455
O15 U7 2.570771 1_555
O16 U4 2.387163 1_555
O16 U0 2.567313 1_455
O17 U5 2.387163 1_555
O17 U1 2.567313 1_555
O18 U6 2.387163 1_555
O18 U2 2.567313 1_555
O19 U7 2.387163 1_555
O19 U3 2.567313 1_455
O20 U4 1.796162 1_555
O21 U5 1.796162 1_555
O22 U6 1.796162 1_555
O23 U7 1.796162 1_555
O24 U4 1.790695 1_555
O25 U5 1.790695 1_555
O26 U6 1.790695 1_555
O27 U7 1.790695 1_555
O28 U0 1.788172 1_555
O29 U1 1.788172 1_555
O30 U2 1.788172 1_555
O31 U3 1.788172 1_555
O32 U8 2.231248 1_555
O33 U9 2.231248 1_555
O34 U10 2.231248 1_555
O35 U11 2.231248 1_555
O36 U0 2.398451 1_555
O36 U4 2.585823 1_555
O37 U1 2.398451 1_555
O37 U5 2.585823 1_455
O38 U2 2.398451 1_555
O38 U6 2.585823 1_455
O39 U3 2.398451 1_555
O39 U7 2.585823 1_555
O40 U0 1.795199 1_555
O41 U1 1.795199 1_555
O42 U2 1.795199 1_555
O43 U3 1.795199 1_555
O44 U9 2.260440 1_555
O45 U8 2.260440 1_555
O46 U11 2.260440 1_555
O47 U10 2.260440 1_555
O48 U8 1.820196 1_455
O49 U9 1.820196 1_555
O50 U10 1.820196 1_555
O51 U11 1.820196 1_455
O52 U8 1.835825 1_555
O53 U9 1.835825 1_555
O54 U10 1.835825 1_555
O55 U11 1.835825 1_555
O56 U8 1.874975 1_555
O57 U9 1.874975 1_555
O58 U10 1.874975 1_555
O59 U11 1.874975 1_555
O60 O64 1.237326 1_555
O61 O65 1.237326 1_555
O62 O66 1.237326 1_555
O63 O67 1.237326 1_555
O64 U8 2.933048 1_455
O65 U9 2.933048 1_555
O66 U10 2.933048 1_555
O67 U11 2.933048 1_455
O68 O74 1.213877 1_455
O69 O75 1.213877 1_555
O70 O72 1.213877 1_555
O71 O73 1.213877 1_455
