# generated using pymatgen
data_Li6Hf2O7
_symmetry_space_group_name_H-M   'P 1'
_cell_length_a   5.94853961
_cell_length_b   5.94853961
_cell_length_c   10.07624667
_cell_angle_alpha   81.05634503
_cell_angle_beta   81.05634503
_cell_angle_gamma   59.71495854
_symmetry_Int_Tables_number   1
_chemical_formula_structural   Li6Hf2O7
_chemical_formula_sum   'Li12 Hf4 O14'
_cell_volume   302.90289120
_cell_formula_units_Z   2
loop_
 _symmetry_equiv_pos_site_id
 _symmetry_equiv_pos_as_xyz
  1  'x, y, z'
loop_
 _atom_site_type_symbol
 _atom_site_label
 _atom_site_symmetry_multiplicity
 _atom_site_fract_x
 _atom_site_fract_y
 _atom_site_fract_z
 _atom_site_occupancy
  Li  Li0  1  0.66290460  0.92375867  0.39482798  1
  Li  Li1  1  0.92375867  0.66290460  0.89482798  1
  Li  Li2  1  0.20545219  0.91707129  0.41492312  1
  Li  Li3  1  0.66653150  0.46717396  0.39762195  1
  Li  Li4  1  0.91707129  0.20545219  0.91492312  1
  Li  Li5  1  0.46717396  0.66653150  0.89762195  1
  Li  Li6  1  0.53282604  0.33346850  0.10237805  1
  Li  Li7  1  0.08292871  0.79454781  0.08507688  1
  Li  Li8  1  0.33346850  0.53282604  0.60237805  1
  Li  Li9  1  0.79454781  0.08292871  0.58507688  1
  Li  Li10  1  0.07624133  0.33709540  0.10517202  1
  Li  Li11  1  0.33709540  0.07624133  0.60517202  1
  Hf  Hf0  1  0.56178156  0.80537605  0.13518831  1
  Hf  Hf1  1  0.80537605  0.56178156  0.63518831  1
  Hf  Hf2  1  0.19462395  0.43821844  0.36481169  1
  Hf  Hf3  1  0.43821844  0.19462395  0.86481169  1
  O  O0  1  0.86258114  0.63627467  0.25479597  1
  O  O1  1  0.00048144  0.26586988  0.49798251  1
  O  O2  1  0.63627467  0.86258114  0.75479597  1
  O  O3  1  0.26586988  0.00048144  0.99798251  1
  O  O4  1  0.74393846  0.49952983  0.02167307  1
  O  O5  1  0.35004370  0.64995630  0.25000000  1
  O  O6  1  0.49952983  0.74393846  0.52167307  1
  O  O7  1  0.50047017  0.25606154  0.47832693  1
  O  O8  1  0.64995630  0.35004370  0.75000000  1
  O  O9  1  0.25606154  0.50047017  0.97832693  1
  O  O10  1  0.73413012  0.99951856  0.00201749  1
  O  O11  1  0.36372533  0.13741886  0.24520403  1
  O  O12  1  0.99951856  0.73413012  0.50201749  1
  O  O13  1  0.13741886  0.36372533  0.74520403  1
loop_
_geom_bond_atom_site_label_1
_geom_bond_atom_site_label_2
_geom_bond_distance
_geom_bond_site_symmetry_2
Li0 O7 1.971504 1_565
Li0 O6 1.989838 1_555
Li0 O12 2.112797 1_555
Li0 O0 2.122888 1_555
Li0 O11 2.238908 1_565
Li1 O9 1.971504 1_655
Li1 O4 1.989838 1_556
Li1 O10 2.112797 1_556
Li1 O2 2.122888 1_555
Li1 O13 2.238908 1_655
Li2 O6 1.923884 1_555
Li2 O1 2.040371 1_565
Li2 O12 2.041666 1_455
Li2 O5 2.241494 1_555
Li2 O11 2.361382 1_565
Li3 O6 1.965689 1_555
Li3 O7 1.974348 1_555
Li3 O1 2.061954 1_655
Li3 O0 2.157375 1_555
Li3 O5 2.289623 1_555
Li4 O4 1.923884 1_556
Li4 O3 2.040371 1_655
Li4 O10 2.041666 1_546
Li4 O8 2.241494 1_555
Li4 O13 2.361382 1_655
Li5 O4 1.965689 1_556
Li5 O9 1.974348 1_555
Li5 O3 2.061954 1_565
Li5 O2 2.157375 1_555
Li5 O8 2.289623 1_555
Li6 O9 1.965689 1_554
Li6 O4 1.974348 1_555
Li6 O10 2.061954 1_545
Li6 O11 2.157375 1_555
Li6 O5 2.289623 1_555
Li7 O9 1.923884 1_554
Li7 O10 2.040371 1_455
Li7 O3 2.041666 1_564
Li7 O5 2.241494 1_555
Li7 O0 2.361382 1_455
Li8 O7 1.965689 1_555
Li8 O6 1.974348 1_555
Li8 O12 2.061954 1_455
Li8 O13 2.157375 1_555
Li8 O8 2.289623 1_555
Li9 O7 1.923884 1_555
Li9 O12 2.040371 1_545
Li9 O1 2.041666 1_655
Li9 O8 2.241494 1_555
Li9 O2 2.361382 1_545
Li10 O4 1.971504 1_455
Li10 O9 1.989838 1_554
Li10 O3 2.112797 1_554
Li10 O11 2.122888 1_555
Li10 O0 2.238908 1_455
Li11 O6 1.971504 1_545
Li11 O7 1.989838 1_555
Li11 O1 2.112797 1_555
Li11 O13 2.122888 1_555
Li11 O2 2.238908 1_545
Hf0 O4 2.016367 1_555
Hf0 O0 2.035730 1_555
Hf0 O5 2.041662 1_555
Hf0 O11 2.108519 1_565
Hf0 O10 2.114235 1_555
Hf0 O3 2.134023 1_564
Hf1 O6 2.016367 1_555
Hf1 O2 2.035730 1_555
Hf1 O8 2.041662 1_555
Hf1 O13 2.108519 1_655
Hf1 O12 2.114235 1_555
Hf1 O1 2.134023 1_655
Hf2 O7 2.016367 1_555
Hf2 O11 2.035730 1_555
Hf2 O5 2.041662 1_555
Hf2 O0 2.108519 1_455
Hf2 O1 2.114235 1_555
Hf2 O12 2.134023 1_455
Hf3 O9 2.016367 1_555
Hf3 O13 2.035730 1_555
Hf3 O8 2.041662 1_555
Hf3 O2 2.108519 1_545
Hf3 O3 2.114235 1_555
Hf3 O10 2.134023 1_546
