# generated using pymatgen
data_Li3Mn2(SiO4)2
_symmetry_space_group_name_H-M   'P 1'
_cell_length_a   7.53923326
_cell_length_b   8.14652066
_cell_length_c   7.38217100
_cell_angle_alpha   63.76772627
_cell_angle_beta   93.89621858
_cell_angle_gamma   65.45523624
_symmetry_Int_Tables_number   1
_chemical_formula_structural   Li3Mn2(SiO4)2
_chemical_formula_sum   'Li6 Mn4 Si4 O16'
_cell_volume   351.93332433
_cell_formula_units_Z   2
loop_
 _symmetry_equiv_pos_site_id
 _symmetry_equiv_pos_as_xyz
  1  'x, y, z'
loop_
 _atom_site_type_symbol
 _atom_site_label
 _atom_site_symmetry_multiplicity
 _atom_site_fract_x
 _atom_site_fract_y
 _atom_site_fract_z
 _atom_site_occupancy
  Li  Li0  1  0.78100100  0.25382800  0.44598500  1
  Li  Li1  1  0.28106400  0.25375100  0.94616400  1
  Li  Li2  1  0.53098600  0.75374200  0.19929200  1
  Li  Li3  1  0.03113300  0.75361500  0.69946000  1
  Li  Li4  1  0.96753000  0.74701200  0.29439300  1
  Li  Li5  1  0.46742100  0.74707500  0.79437500  1
  Mn  Mn0  1  0.57154900  0.00762500  0.39255800  1
  Mn  Mn1  1  0.92329200  0.48961000  0.09838600  1
  Mn  Mn2  1  0.07179400  0.00779200  0.89208000  1
  Mn  Mn3  1  0.42347700  0.48964500  0.59847500  1
  Si  Si0  1  0.66768400  0.99380200  0.83197800  1
  Si  Si1  1  0.16751400  0.99356100  0.33220500  1
  Si  Si2  1  0.32843200  0.50801000  0.17376400  1
  Si  Si3  1  0.82850300  0.50793000  0.67380700  1
  O  O0  1  0.85737000  0.97423200  0.98581600  1
  O  O1  1  0.35731500  0.97409500  0.48582200  1
  O  O2  1  0.24670400  0.00155900  0.12310300  1
  O  O3  1  0.74723100  0.00185300  0.62300500  1
  O  O4  1  0.95397700  0.19995800  0.27531700  1
  O  O5  1  0.45403600  0.20009300  0.77521000  1
  O  O6  1  0.93207200  0.29066200  0.65909000  1
  O  O7  1  0.43218800  0.29046700  0.15957300  1
  O  O8  1  0.13275200  0.52131000  0.25766300  1
  O  O9  1  0.63308200  0.52090900  0.75833000  1
  O  O10  1  0.50501600  0.50123400  0.32518400  1
  O  O11  1  0.00504700  0.50117500  0.82521200  1
  O  O12  1  0.74346100  0.72788800  0.43113800  1
  O  O13  1  0.24351900  0.72787900  0.93105500  1
  O  O14  1  0.65004900  0.78009700  0.96703300  1
  O  O15  1  0.15015600  0.77972900  0.46750100  1
loop_
_geom_bond_atom_site_label_1
_geom_bond_atom_site_label_2
_geom_bond_distance
_geom_bond_site_symmetry_2
Li0 O4 1.928011 1_555
Li0 O10 1.965108 1_555
Li0 O3 2.023420 1_555
Li0 O6 2.078440 1_555
Li1 O5 1.929275 1_555
Li1 O11 1.965230 1_555
Li1 O2 2.027311 1_556
Li1 O7 2.079742 1_556
Li2 O10 1.950093 1_555
Li2 O14 1.958438 1_554
Li2 O2 2.055047 1_565
Li2 O12 2.137332 1_555
Li3 O11 1.950084 1_555
Li3 O15 1.956539 1_555
Li3 O3 2.054302 1_465
Li3 O13 2.136130 1_555
Li4 O8 1.894654 1_655
Li4 O15 1.991661 1_655
Li4 O0 2.010810 1_554
Li4 O12 2.051451 1_555
Li5 O9 1.895290 1_555
Li5 O14 1.991253 1_555
Li5 O1 2.010301 1_555
Li5 O13 2.050203 1_555
Mn0 O1 1.873175 1_545
Mn0 O7 1.900263 1_555
Mn0 O12 1.968867 1_545
Mn0 O3 2.054735 1_555
Mn1 O4 2.026897 1_555
Mn1 O8 2.073137 1_655
Mn1 O14 2.105694 1_554
Mn1 O11 2.122437 1_654
Mn2 O0 1.875879 1_445
Mn2 O6 1.900376 1_455
Mn2 O13 1.968608 1_545
Mn2 O2 2.052380 1_556
Mn3 O5 2.026435 1_555
Mn3 O9 2.073965 1_555
Mn3 O15 2.104580 1_555
Mn3 O10 2.122601 1_555
O0 Si0 1.670358 1_555
O1 Si1 1.670557 1_555
O2 Si1 1.676940 1_545
O3 Si0 1.677134 1_545
O4 Si1 1.621814 1_645
O5 Si0 1.622066 1_545
O6 Si3 1.669618 1_555
O7 Si2 1.669475 1_555
O8 Si2 1.619408 1_555
O9 Si3 1.620193 1_555
O10 Si2 1.645321 1_555
O11 Si3 1.645131 1_455
O12 Si3 1.697888 1_555
O13 Si2 1.697870 1_556
O14 Si0 1.648786 1_555
O15 Si1 1.648723 1_555
