# generated using pymatgen
data_Li2V3CrO8
_symmetry_space_group_name_H-M   'P 1'
_cell_length_a   5.85112357
_cell_length_b   6.02383947
_cell_length_c   6.02866737
_cell_angle_alpha   122.56965124
_cell_angle_beta   60.97802093
_cell_angle_gamma   90.18269319
_symmetry_Int_Tables_number   1
_chemical_formula_structural   Li2V3CrO8
_chemical_formula_sum   'Li2 V3 Cr1 O8'
_cell_volume   146.67758898
_cell_formula_units_Z   1
loop_
 _symmetry_equiv_pos_site_id
 _symmetry_equiv_pos_as_xyz
  1  'x, y, z'
loop_
 _atom_site_type_symbol
 _atom_site_label
 _atom_site_symmetry_multiplicity
 _atom_site_fract_x
 _atom_site_fract_y
 _atom_site_fract_z
 _atom_site_occupancy
  Li  Li0  1  0.50000300  0.00000300  0.50000400  1
  Li  Li1  1  0.00000600  0.00000100  0.50000000  1
  V  V0  1  0.49998900  0.50001000  0.50001800  1
  V  V1  1  0.00001700  0.49999400  0.49999100  1
  V  V2  1  0.49998500  0.00000100  0.00000900  1
  Cr  Cr0  1  0.99996700  0.00001900  0.00000100  1
  O  O0  1  0.73673600  0.74347500  0.52688300  1
  O  O1  1  0.73569300  0.23058600  0.02695000  1
  O  O2  1  0.23617300  0.74163300  0.52702100  1
  O  O3  1  0.75993700  0.76988300  0.97500100  1
  O  O4  1  0.24005500  0.23009800  0.02499000  1
  O  O5  1  0.76383700  0.25836700  0.47297000  1
  O  O6  1  0.26433000  0.76941000  0.97303600  1
  O  O7  1  0.26327000  0.25652100  0.47312900  1
loop_
_geom_bond_atom_site_label_1
_geom_bond_atom_site_label_2
_geom_bond_distance
_geom_bond_site_symmetry_2
Li0 O7 2.198538 1_555
Li0 O0 2.198601 1_545
Li0 O2 2.201251 1_545
Li0 O5 2.201251 1_555
Li0 O4 2.207054 1_556
Li0 O3 2.207111 1_544
Li1 O7 2.190663 1_555
Li1 O0 2.190721 1_445
Li1 O2 2.205312 1_545
Li1 O5 2.205352 1_455
Li1 O1 2.215627 1_456
Li1 O6 2.215686 1_544
Cr0 O1 1.968113 1_555
Cr0 O5 1.968446 1_555
Cr0 O2 1.968495 1_644
Cr0 O6 1.968605 1_644
Cr0 O3 1.971048 1_544
Cr0 O4 1.971072 1_655
O0 V2 1.968991 1_566
O0 V0 2.011219 1_555
O0 V1 2.016592 1_655
O1 V2 1.954490 1_555
O1 V0 1.970840 1_555
O2 V1 2.001223 1_555
O2 V0 2.010756 1_555
O3 V2 1.955422 1_566
O3 V1 1.978861 1_655
O4 V2 1.955352 1_555
O4 V1 1.978825 1_555
O5 V1 2.001275 1_655
O5 V0 2.010790 1_555
O6 V2 1.954291 1_566
O6 V0 1.970633 1_555
O7 V2 1.968965 1_555
O7 V0 2.011203 1_555
O7 V1 2.016563 1_555
