# generated using pymatgen
data_Na2SeO5
_symmetry_space_group_name_H-M   'P 1'
_cell_length_a   6.18457052
_cell_length_b   6.18457052
_cell_length_c   7.91948700
_cell_angle_alpha   90.00000000
_cell_angle_beta   90.00000000
_cell_angle_gamma   118.98969483
_symmetry_Int_Tables_number   1
_chemical_formula_structural   Na2SeO5
_chemical_formula_sum   'Na4 Se2 O10'
_cell_volume   264.95900813
_cell_formula_units_Z   2
loop_
 _symmetry_equiv_pos_site_id
 _symmetry_equiv_pos_as_xyz
  1  'x, y, z'
loop_
 _atom_site_type_symbol
 _atom_site_label
 _atom_site_symmetry_multiplicity
 _atom_site_fract_x
 _atom_site_fract_y
 _atom_site_fract_z
 _atom_site_occupancy
  Na  Na0  1  0.00000000  0.00000000  0.50000000  1
  Na  Na1  1  0.00000000  0.00000000  0.00000000  1
  Na  Na2  1  0.64677500  0.35322500  0.75000000  1
  Na  Na3  1  0.35322500  0.64677500  0.25000000  1
  Se  Se0  1  0.22283800  0.77716200  0.75000000  1
  Se  Se1  1  0.77716200  0.22283800  0.25000000  1
  O  O0  1  0.93418600  0.06581400  0.25000000  1
  O  O1  1  0.06581400  0.93418600  0.75000000  1
  O  O2  1  0.96696300  0.57535100  0.94471400  1
  O  O3  1  0.57535100  0.96696300  0.05528600  1
  O  O4  1  0.96696300  0.57535100  0.55528600  1
  O  O5  1  0.57535100  0.96696300  0.44471400  1
  O  O6  1  0.03303700  0.42464900  0.05528600  1
  O  O7  1  0.42464900  0.03303700  0.94471400  1
  O  O8  1  0.03303700  0.42464900  0.44471400  1
  O  O9  1  0.42464900  0.03303700  0.55528600  1
loop_
_geom_bond_atom_site_label_1
_geom_bond_atom_site_label_2
_geom_bond_distance
_geom_bond_site_symmetry_2
Na0 O1 2.100436 1_545
Na0 O0 2.100436 1_455
Na0 O8 2.571113 1_555
Na0 O4 2.571113 1_445
Na0 O9 2.571113 1_555
Na0 O5 2.571113 1_445
Na1 O1 2.100436 1_544
Na1 O0 2.100436 1_455
Na1 O6 2.571113 1_555
Na1 O2 2.571113 1_444
Na1 O7 2.571113 1_554
Na1 O3 2.571113 1_445
Na2 O2 2.355743 1_555
Na2 O9 2.355743 1_555
Na2 O4 2.355743 1_555
Na2 O7 2.355743 1_555
Na3 O5 2.355743 1_555
Na3 O3 2.355743 1_555
Na3 O6 2.355743 1_555
Na3 O8 2.355743 1_555
O0 Se1 1.673412 1_555
O1 Se0 1.673412 1_555
O2 O6 1.473648 1_656
O2 Se0 2.127301 1_655
O3 O7 1.473648 1_564
O3 Se1 2.127301 1_565
O4 O8 1.473648 1_655
O4 Se0 2.127301 1_655
O5 O9 1.473648 1_565
O5 Se1 2.127301 1_565
O6 Se1 2.127301 1_455
O7 Se0 2.127301 1_545
O8 Se1 2.127301 1_455
O9 Se0 2.127301 1_545
