# generated using pymatgen
data_Li2Ni3TeO8
_symmetry_space_group_name_H-M   'P 1'
_cell_length_a   5.87963469
_cell_length_b   5.87963469
_cell_length_c   6.17639806
_cell_angle_alpha   58.58718230
_cell_angle_beta   58.58718230
_cell_angle_gamma   61.38939594
_symmetry_Int_Tables_number   1
_chemical_formula_structural   Li2Ni3TeO8
_chemical_formula_sum   'Li2 Ni3 Te1 O8'
_cell_volume   149.09051696
_cell_formula_units_Z   1
loop_
 _symmetry_equiv_pos_site_id
 _symmetry_equiv_pos_as_xyz
  1  'x, y, z'
loop_
 _atom_site_type_symbol
 _atom_site_label
 _atom_site_symmetry_multiplicity
 _atom_site_fract_x
 _atom_site_fract_y
 _atom_site_fract_z
 _atom_site_occupancy
  Li  Li0  1  0.50000000  0.50000000  0.50000000  1
  Li  Li1  1  0.00000000  0.00000000  0.50000000  1
  Ni  Ni0  1  0.50000000  0.50000000  0.00000000  1
  Ni  Ni1  1  0.50000000  0.00000000  0.50000000  1
  Ni  Ni2  1  0.00000000  0.50000000  0.50000000  1
  Te  Te0  1  0.00000000  0.00000000  0.00000000  1
  O  O0  1  0.74903400  0.74903400  0.68548800  1
  O  O1  1  0.77489900  0.24094600  0.76793600  1
  O  O2  1  0.24094600  0.77489900  0.76793600  1
  O  O3  1  0.75913800  0.75913800  0.25122700  1
  O  O4  1  0.24086200  0.24086200  0.74877300  1
  O  O5  1  0.75905400  0.22510100  0.23206400  1
  O  O6  1  0.22510100  0.75905400  0.23206400  1
  O  O7  1  0.25096600  0.25096600  0.31451200  1
loop_
_geom_bond_atom_site_label_1
_geom_bond_atom_site_label_2
_geom_bond_distance
_geom_bond_site_symmetry_2
Li0 O4 2.084801 1_555
Li0 O3 2.084801 1_555
Li0 O2 2.339657 1_555
Li0 O1 2.339657 1_555
Li0 O5 2.339657 1_555
Li0 O6 2.339657 1_555
Li1 O7 2.056244 1_555
Li1 O0 2.056244 1_445
Li1 O5 2.205061 1_455
Li1 O1 2.205061 1_455
Li1 O2 2.205061 1_545
Li1 O6 2.205061 1_545
Ni0 O0 2.045690 1_554
Ni0 O7 2.045690 1_555
Ni0 O6 2.118931 1_555
Ni0 O5 2.118931 1_555
Ni0 O1 2.118931 1_554
Ni0 O2 2.118931 1_554
Ni1 O0 1.884422 1_545
Ni1 O7 1.884422 1_555
Ni1 O5 1.957115 1_555
Ni1 O2 1.957115 1_545
Ni1 O4 2.109344 1_555
Ni1 O3 2.109344 1_545
Ni2 O0 1.884422 1_455
Ni2 O7 1.884422 1_555
Ni2 O6 1.957115 1_555
Ni2 O1 1.957115 1_455
Ni2 O4 2.109344 1_555
Ni2 O3 2.109344 1_455
O1 Te0 1.969307 1_656
O2 Te0 1.969307 1_566
O3 Te0 1.938641 1_665
O4 Te0 1.938641 1_556
O5 Te0 1.969307 1_655
O6 Te0 1.969307 1_565
