# generated using pymatgen
data_Li2MnOF3
_symmetry_space_group_name_H-M   'P 1'
_cell_length_a   5.22686500
_cell_length_b   9.58365584
_cell_length_c   6.06138141
_cell_angle_alpha   93.23640227
_cell_angle_beta   90.00044840
_cell_angle_gamma   90.00081967
_symmetry_Int_Tables_number   1
_chemical_formula_structural   Li2MnOF3
_chemical_formula_sum   'Li8 Mn4 O4 F12'
_cell_volume   303.14533863
_cell_formula_units_Z   4
loop_
 _symmetry_equiv_pos_site_id
 _symmetry_equiv_pos_as_xyz
  1  'x, y, z'
loop_
 _atom_site_type_symbol
 _atom_site_label
 _atom_site_symmetry_multiplicity
 _atom_site_fract_x
 _atom_site_fract_y
 _atom_site_fract_z
 _atom_site_occupancy
  Li  Li0  1  0.47184400  0.81951100  0.24172400  1
  Li  Li1  1  0.47184300  0.81950800  0.74172000  1
  Li  Li2  1  0.02816200  0.31950500  0.24172000  1
  Li  Li3  1  0.02816200  0.31951000  0.74172400  1
  Li  Li4  1  0.03132300  0.68623800  0.26205900  1
  Li  Li5  1  0.03132900  0.68623400  0.76205700  1
  Li  Li6  1  0.46867700  0.18623200  0.26205600  1
  Li  Li7  1  0.46868300  0.18623500  0.76206100  1
  Mn  Mn0  1  0.51777400  0.51374800  0.99726000  1
  Mn  Mn1  1  0.98222800  0.01373900  0.49726700  1
  Mn  Mn2  1  0.51773400  0.51373800  0.49724900  1
  Mn  Mn3  1  0.98226300  0.01374200  0.99723700  1
  O  O0  1  0.38918800  0.61716900  0.23512100  1
  O  O1  1  0.38919600  0.61716000  0.73509600  1
  O  O2  1  0.11080400  0.11716300  0.23509600  1
  O  O3  1  0.11081200  0.11717100  0.73511400  1
  F  F0  1  0.85915700  0.61586400  0.00703700  1
  F  F1  1  0.85919400  0.61588700  0.50705100  1
  F  F2  1  0.64080400  0.11588600  0.00705000  1
  F  F3  1  0.64080200  0.11588700  0.50705500  1
  F  F4  1  0.26432800  0.86253000  0.49553700  1
  F  F5  1  0.26433600  0.86252500  0.99553300  1
  F  F6  1  0.23566700  0.36252600  0.49553400  1
  F  F7  1  0.23567600  0.36253000  0.99553800  1
  F  F8  1  0.82537800  0.88494000  0.26128000  1
  F  F9  1  0.82537800  0.88493600  0.76126800  1
  F  F10  1  0.67462900  0.38494200  0.26127300  1
  F  F11  1  0.67462800  0.38494200  0.76128000  1
loop_
_geom_bond_atom_site_label_1
_geom_bond_atom_site_label_2
_geom_bond_distance
_geom_bond_site_symmetry_2
Li0 O0 1.984910 1_555
Li1 O1 1.984952 1_555
Li2 O2 1.984902 1_555
Li3 O3 1.984886 1_555
Li4 O0 1.987830 1_555
Li5 O1 1.987865 1_555
Li6 O2 1.987858 1_555
Li7 O3 1.987827 1_555
Mn0 O0 1.830703 1_556
Mn0 O1 2.033928 1_555
Mn1 O3 1.830669 1_655
Mn1 O2 2.034018 1_655
Mn2 O1 1.830552 1_555
Mn2 O0 2.033793 1_555
Mn3 O2 1.830589 1_656
Mn3 O3 2.033762 1_655
F0 Li4 1.880523 1_655
F0 Li5 1.892810 1_654
F0 Mn0 2.034357 1_554
F1 Li5 1.880287 1_655
F1 Li4 1.892689 1_655
F1 Mn2 2.034862 1_555
F2 Li6 1.880285 1_555
F2 Li7 1.892645 1_554
F2 Mn3 2.034860 1_554
F3 Li7 1.880271 1_555
F3 Li6 1.892688 1_555
F3 Mn1 2.034727 1_555
F4 Li0 1.908332 1_555
F4 Li1 1.908563 1_555
F4 Mn1 2.067025 1_465
F4 Li4 2.463830 1_555
F5 Li1 1.908302 1_555
F5 Li0 1.908561 1_556
F5 Mn3 2.066984 1_465
F5 Li5 2.463823 1_555
F6 Li2 1.908287 1_555
F6 Li3 1.908559 1_555
F6 Mn2 2.066896 1_555
F6 Li6 2.463891 1_555
F7 Li3 1.908312 1_555
F7 Li2 1.908570 1_556
F7 Mn0 2.067050 1_555
F7 Li7 2.463886 1_555
F8 Li0 1.952806 1_555
F8 Mn1 2.010582 1_565
F8 Li4 2.187729 1_655
F8 Mn3 2.231749 1_564
F9 Li1 1.952806 1_555
F9 Mn3 2.010621 1_565
F9 Li5 2.187748 1_655
F9 Mn1 2.231497 1_565
F10 Li2 1.952844 1_655
F10 Mn2 2.010640 1_555
F10 Li6 2.187789 1_555
F10 Mn0 2.231582 1_554
F11 Li3 1.952834 1_655
F11 Mn0 2.010624 1_555
F11 Li7 2.187745 1_555
F11 Mn2 2.231682 1_555
