# generated using pymatgen
data_Li3(NiO2)4
_symmetry_space_group_name_H-M   'P 1'
_cell_length_a   5.53470295
_cell_length_b   5.75251668
_cell_length_c   5.72363217
_cell_angle_alpha   119.81374317
_cell_angle_beta   89.99257838
_cell_angle_gamma   118.75152949
_symmetry_Int_Tables_number   1
_chemical_formula_structural   Li3(NiO2)4
_chemical_formula_sum   'Li3 Ni4 O8'
_cell_volume   131.59843993
_cell_formula_units_Z   1
loop_
 _symmetry_equiv_pos_site_id
 _symmetry_equiv_pos_as_xyz
  1  'x, y, z'
loop_
 _atom_site_type_symbol
 _atom_site_label
 _atom_site_symmetry_multiplicity
 _atom_site_fract_x
 _atom_site_fract_y
 _atom_site_fract_z
 _atom_site_occupancy
  Li  Li0  1  0.00000112  0.50000030  0.50000022  1
  Li  Li1  1  0.00000073  0.00000088  0.50000080  1
  Li  Li2  1  0.49999965  -0.00000053  0.49999982  1
  Ni  Ni0  1  -0.00000009  -0.00000197  -0.00000094  1
  Ni  Ni1  1  0.50000150  0.00000299  0.00000037  1
  Ni  Ni2  1  -0.00000151  0.49999907  -0.00000119  1
  Ni  Ni3  1  0.50000170  0.50000310  0.00000049  1
  O  O0  1  0.24751442  0.99505997  0.77855441  1
  O  O1  1  0.75248413  0.00493588  0.22144428  1
  O  O2  1  0.77606003  0.05228808  0.79430372  1
  O  O3  1  0.22393913  0.94771254  0.20569598  1
  O  O4  1  0.24724536  0.49954969  0.77934240  1
  O  O5  1  0.24754582  0.50028720  0.22059040  1
  O  O6  1  0.75245456  0.49971486  0.77941142  1
  O  O7  1  0.75275247  0.50044594  0.22065582  1
loop_
_geom_bond_atom_site_label_1
_geom_bond_atom_site_label_2
_geom_bond_distance
_geom_bond_site_symmetry_2
Li0 O0 2.064307 1_555
Li0 O1 2.064326 1_455
Li0 O5 2.105846 1_555
Li0 O6 2.105858 1_455
Li0 O4 2.106423 1_555
Li0 O7 2.106429 1_455
Li1 O3 2.078093 1_545
Li1 O2 2.078093 1_455
Li1 O4 2.082233 1_555
Li1 O7 2.082258 1_445
Li1 O1 2.121903 1_455
Li1 O0 2.121903 1_545
Li2 O2 2.077788 1_555
Li2 O3 2.077794 1_545
Li2 O5 2.082911 1_545
Li2 O6 2.082924 1_555
Li2 O0 2.121750 1_545
Li2 O1 2.121750 1_555
Ni0 O0 1.866855 1_544
Ni0 O1 1.866862 1_455
Ni0 O3 1.929743 1_545
Ni0 O2 1.929760 1_454
Ni0 O6 2.085097 1_444
Ni0 O5 2.085122 1_555
Ni1 O0 1.867227 1_544
Ni1 O1 1.867241 1_555
Ni1 O2 1.928887 1_554
Ni1 O3 1.928901 1_545
Ni1 O7 2.085766 1_555
Ni1 O4 2.085811 1_544
Ni2 O7 1.862093 1_455
Ni2 O4 1.862095 1_554
Ni2 O6 1.862103 1_454
Ni2 O5 1.862118 1_555
Ni2 O2 1.862719 1_454
Ni2 O3 1.862729 1_555
Ni3 O4 1.883021 1_554
Ni3 O7 1.883030 1_555
Ni3 O6 1.883106 1_554
Ni3 O5 1.883121 1_555
Ni3 O1 2.104990 1_565
Ni3 O0 2.105035 1_544
