# generated using pymatgen
data_NaZn(H3O2)3
_symmetry_space_group_name_H-M   'P 1'
_cell_length_a   3.46694400
_cell_length_b   8.20129319
_cell_length_c   11.18130961
_cell_angle_alpha   94.39770936
_cell_angle_beta   98.25184625
_cell_angle_gamma   92.22319971
_symmetry_Int_Tables_number   1
_chemical_formula_structural   NaZn(H3O2)3
_chemical_formula_sum   'Na2 Zn2 H18 O12'
_cell_volume   313.30530596
_cell_formula_units_Z   2
loop_
 _symmetry_equiv_pos_site_id
 _symmetry_equiv_pos_as_xyz
  1  'x, y, z'
loop_
 _atom_site_type_symbol
 _atom_site_label
 _atom_site_symmetry_multiplicity
 _atom_site_fract_x
 _atom_site_fract_y
 _atom_site_fract_z
 _atom_site_occupancy
  Na  Na0  1  0.29456500  0.77729200  0.71583300  1
  Na  Na1  1  0.70543500  0.22270800  0.28416700  1
  Zn  Zn0  1  0.73128700  0.40959600  0.82241200  1
  Zn  Zn1  1  0.26871300  0.59040400  0.17758800  1
  H  H0  1  0.28125400  0.60586100  0.92185000  1
  H  H1  1  0.71874600  0.39413900  0.07815000  1
  H  H2  1  0.48625800  0.19852300  0.94023700  1
  H  H3  1  0.51374200  0.80147700  0.05976300  1
  H  H4  1  0.91235900  0.30604300  0.62460500  1
  H  H5  1  0.08764100  0.69395700  0.37539500  1
  H  H6  1  0.70229800  0.54395200  0.60485400  1
  H  H7  1  0.29770200  0.45604800  0.39514600  1
  H  H8  1  0.60543800  0.67410100  0.50959800  1
  H  H9  1  0.39456200  0.32589900  0.49040200  1
  H  H10  1  0.82520800  0.01743000  0.87473500  1
  H  H11  1  0.17479200  0.98257000  0.12526500  1
  H  H12  1  0.98266200  0.85457300  0.92769700  1
  H  H13  1  0.01733800  0.14542700  0.07230300  1
  H  H14  1  0.54878800  0.87052700  0.38516500  1
  H  H15  1  0.45121200  0.12947300  0.61483500  1
  H  H16  1  0.88002700  0.93904300  0.32255800  1
  H  H17  1  0.11997300  0.06095700  0.67744200  1
  O  O0  1  0.25336800  0.53412000  0.84589200  1
  O  O1  1  0.74663200  0.46588000  0.15410800  1
  O  O2  1  0.75751800  0.23094500  0.93529100  1
  O  O3  1  0.24248200  0.76905500  0.06470900  1
  O  O4  1  0.66028400  0.34000700  0.64435700  1
  O  O5  1  0.33971600  0.65999300  0.35564300  1
  O  O6  1  0.72900400  0.66304600  0.59382100  1
  O  O7  1  0.27099600  0.33695400  0.40617900  1
  O  O8  1  0.86030300  0.89974700  0.85227600  1
  O  O9  1  0.13969700  0.10025300  0.14772400  1
  O  O10  1  0.68765800  0.97435900  0.37405800  1
  O  O11  1  0.31234200  0.02564100  0.62594200  1
loop_
_geom_bond_atom_site_label_1
_geom_bond_atom_site_label_2
_geom_bond_distance
_geom_bond_site_symmetry_2
Na0 O6 2.340360 1_455
Na0 O11 2.341901 1_565
Na0 O6 2.347540 1_555
Na0 O8 2.436467 1_555
Na0 O8 2.478804 1_455
Na0 O0 2.568036 1_555
Na1 O7 2.340360 1_655
Na1 O10 2.341901 1_545
Na1 O7 2.347540 1_555
Na1 O9 2.436467 1_555
Na1 O9 2.478804 1_655
Na1 O1 2.568036 1_555
H0 O0 0.986020 1_555
H1 O1 0.986020 1_555
H2 O2 0.977742 1_555
H3 O3 0.977742 1_555
H4 O4 0.977228 1_555
H5 O5 0.977228 1_555
H6 O6 0.996255 1_555
H7 O7 0.996255 1_555
H8 O6 0.989389 1_555
H9 O7 0.989389 1_555
H10 O8 0.995037 1_545
H11 O9 0.995037 1_565
H12 O8 0.992874 1_555
H13 O9 0.992874 1_555
H14 O10 0.986886 1_555
H15 O11 0.986886 1_555
H16 O10 0.979758 1_555
H16 Na1 2.480061 1_565
H17 O11 0.979758 1_555
H17 Na0 2.480061 1_545
O0 Zn0 2.016717 1_455
O0 Zn0 2.017995 1_555
O1 Zn1 2.016717 1_655
O1 Zn1 2.017995 1_555
O2 Zn0 2.002239 1_555
O3 Zn1 2.002239 1_555
O4 Zn0 2.006022 1_555
O5 Zn1 2.006022 1_555
