# generated using pymatgen
data_Li2Ti4Co(AsO5)4
_symmetry_space_group_name_H-M   'P 1'
_cell_length_a   10.08532300
_cell_length_b   10.10779716
_cell_length_c   10.10734468
_cell_angle_alpha   96.75364014
_cell_angle_beta   115.76119726
_cell_angle_gamma   116.08887291
_symmetry_Int_Tables_number   1
_chemical_formula_structural   Li2Ti4Co(AsO5)4
_chemical_formula_sum   'Li4 Ti8 Co2 As8 O40'
_cell_volume   770.30200860
_cell_formula_units_Z   2
loop_
 _symmetry_equiv_pos_site_id
 _symmetry_equiv_pos_as_xyz
  1  'x, y, z'
loop_
 _atom_site_type_symbol
 _atom_site_label
 _atom_site_symmetry_multiplicity
 _atom_site_fract_x
 _atom_site_fract_y
 _atom_site_fract_z
 _atom_site_occupancy
  Li  Li0  1  0.50232800  0.00100800  0.50158800  1
  Li  Li1  1  0.50108300  0.75028200  0.24882300  1
  Li  Li2  1  0.99435700  0.24489500  0.24723400  1
  Li  Li3  1  0.50305000  0.25308400  0.75526800  1
  Ti  Ti0  1  0.84042800  0.92379100  0.65417000  1
  Ti  Ti1  1  0.34338300  0.65939100  0.43795900  1
  Ti  Ti2  1  0.65577700  0.83175000  0.06239500  1
  Ti  Ti3  1  0.16314400  0.57964700  0.84763900  1
  Ti  Ti4  1  0.83533700  0.43027000  0.15178700  1
  Ti  Ti5  1  0.33951400  0.16659700  0.93514800  1
  Ti  Ti6  1  0.66113900  0.34377800  0.56427000  1
  Ti  Ti7  1  0.16168600  0.06909600  0.34718400  1
  Co  Co0  1  0.99801700  0.00146300  0.00000800  1
  Co  Co1  1  0.00201500  0.49931500  0.50004100  1
  As  As0  1  0.37454100  0.87781100  0.74731900  1
  As  As1  1  0.12852600  0.75368400  0.12327600  1
  As  As2  1  0.87078100  0.74784400  0.37713500  1
  As  As3  1  0.37321300  0.37947100  0.24412500  1
  As  As4  1  0.62866300  0.62370500  0.75697500  1
  As  As5  1  0.12767100  0.25058200  0.62380100  1
  As  As6  1  0.87320800  0.25011000  0.87613400  1
  As  As7  1  0.62396000  0.12098300  0.25169400  1
  O  O0  1  0.56457400  0.91120700  0.90312800  1
  O  O1  1  0.06487300  0.89976700  0.40991800  1
  O  O2  1  0.37990500  0.84565200  0.57955000  1
  O  O3  1  0.13014400  0.92583400  0.15847900  1
  O  O4  1  0.81283200  0.79042900  0.78981900  1
  O  O5  1  0.31494300  0.78360700  0.28314000  1
  O  O6  1  0.61781700  0.84356600  0.51923600  1
  O  O7  1  0.11923400  0.52299300  0.36449200  1
  O  O8  1  0.63587900  0.95870300  0.22185000  1
  O  O9  1  0.11863400  0.71551000  0.95028700  1
  O  O10  1  0.87904800  0.78458600  0.55005500  1
  O  O11  1  0.36692300  0.54551400  0.28063700  1
  O  O12  1  0.88171100  0.97559800  0.13742500  1
  O  O13  1  0.38349000  0.66970000  0.98638300  1
  O  O14  1  0.56267200  0.41399500  0.40208100  1
  O  O15  1  0.06391600  0.40427000  0.90946400  1
  O  O16  1  0.68856600  0.72731300  0.22522700  1
  O  O17  1  0.18835100  0.70906700  0.70949100  1
  O  O18  1  0.86938100  0.57596600  0.34103300  1
  O  O19  1  0.38011300  0.34820900  0.07995600  1
  O  O20  1  0.62214300  0.65434400  0.92209400  1
  O  O21  1  0.13444000  0.42415000  0.65950600  1
  O  O22  1  0.81500800  0.28486500  0.28552600  1
  O  O23  1  0.31144300  0.27016600  0.77211800  1
  O  O24  1  0.93597400  0.60118000  0.09060200  1
  O  O25  1  0.43737900  0.58641300  0.59769300  1
  O  O26  1  0.61618900  0.33605100  0.01315900  1
  O  O27  1  0.11771300  0.03757200  0.86752800  1
  O  O28  1  0.63568800  0.45828500  0.72013000  1
  O  O29  1  0.11863200  0.21290100  0.44826400  1
  O  O30  1  0.88194100  0.28834900  0.05095400  1
  O  O31  1  0.36441400  0.04086800  0.77921100  1
  O  O32  1  0.88134900  0.46667400  0.63015800  1
  O  O33  1  0.38335900  0.15409900  0.48130200  1
  O  O34  1  0.68519100  0.22046500  0.71901000  1
  O  O35  1  0.18410200  0.21781200  0.21507900  1
  O  O36  1  0.86600600  0.07623200  0.84155500  1
  O  O37  1  0.61910700  0.15405700  0.41900500  1
  O  O38  1  0.93543400  0.09733500  0.59075700  1
  O  O39  1  0.43562800  0.08971600  0.09696600  1
loop_
_geom_bond_atom_site_label_1
_geom_bond_atom_site_label_2
_geom_bond_distance
_geom_bond_site_symmetry_2
Li0 O37 2.008169 1_555
Li0 O2 2.010645 1_545
Li0 O5 2.203294 1_545
Li0 O34 2.209863 1_555
Li0 O33 2.317305 1_555
Li0 O6 2.331825 1_545
Li1 O11 2.071144 1_555
Li1 O8 2.073371 1_555
Li1 O16 2.109755 1_555
Li1 O5 2.202873 1_555
Li1 O13 2.239150 1_554
Li1 O6 2.316412 1_555
Li2 O29 2.025187 1_655
Li2 O30 2.025305 1_555
Li2 O22 2.190712 1_555
Li2 O35 2.196137 1_655
Li2 O12 2.324937 1_545
Li2 O7 2.386952 1_655
Li3 O28 2.088899 1_555
Li3 O23 2.089420 1_555
Li3 O31 2.095956 1_555
Li3 O34 2.169524 1_555
Li3 O26 2.204201 1_556
Li3 O33 2.346596 1_555
Co0 O36 2.055444 1_554
Co0 O3 2.062570 1_645
Co0 O27 2.125078 1_654
Co0 O4 2.129034 1_544
Co0 O12 2.145969 1_545
Co0 O35 2.180770 1_655
Co1 O21 2.065925 1_555
Co1 O18 2.075623 1_455
Co1 O32 2.111759 1_455
Co1 O17 2.118984 1_555
Co1 O7 2.137290 1_555
Co1 O22 2.168188 1_455
As0 O31 1.697775 1_565
As0 O0 1.717422 1_555
As0 O2 1.717424 1_555
As0 O17 1.728299 1_555
As1 O9 1.694635 1_554
As1 O24 1.716491 1_455
As1 O3 1.725985 1_555
As1 O5 1.726640 1_555
As2 O10 1.700877 1_555
As2 O16 1.707223 1_555
As2 O1 1.724048 1_655
As2 O18 1.725234 1_555
As3 O19 1.689497 1_555
As3 O11 1.710356 1_555
As3 O14 1.718274 1_555
As3 O35 1.747345 1_555
As4 O20 1.696246 1_555
As4 O28 1.708821 1_555
As4 O25 1.724411 1_555
As4 O4 1.726125 1_555
As5 O23 1.707031 1_555
As5 O21 1.713801 1_555
As5 O38 1.715771 1_455
As5 O29 1.723700 1_555
As6 O15 1.708270 1_655
As6 O36 1.713913 1_555
As6 O30 1.718566 1_556
As6 O34 1.725746 1_555
As7 O8 1.698401 1_545
As7 O39 1.710867 1_555
As7 O37 1.710919 1_555
As7 O22 1.749354 1_555
O0 Ti2 1.936279 1_556
O1 Ti7 1.899568 1_565
O2 Ti1 2.006596 1_555
O3 Ti7 2.062461 1_565
O4 Ti0 2.052010 1_555
O5 Ti1 2.120378 1_555
O6 Ti0 1.742172 1_555
O6 Ti1 2.221050 1_555
O7 Ti1 1.766750 1_555
O7 Ti4 2.348089 1_455
O8 Ti2 2.074990 1_555
O9 Ti3 1.943121 1_555
O10 Ti0 1.931048 1_555
O11 Ti1 2.011894 1_555
O12 Ti2 1.790512 1_555
O12 Ti7 2.310626 1_665
O13 Ti3 1.716195 1_555
O13 Ti2 2.174451 1_556
O14 Ti6 1.911991 1_555
O15 Ti3 1.943757 1_555
O16 Ti2 2.043266 1_555
O17 Ti3 2.042362 1_555
O18 Ti4 2.065725 1_555
O19 Ti5 1.966136 1_554
O20 Ti2 1.946869 1_556
O21 Ti3 2.142037 1_555
O22 Ti4 2.114826 1_555
O23 Ti5 2.037691 1_555
O24 Ti4 1.910929 1_555
O25 Ti1 1.901083 1_555
O26 Ti4 1.702377 1_555
O26 Ti5 2.215361 1_554
O27 Ti5 1.751390 1_555
O27 Ti0 2.267027 1_445
O28 Ti6 2.017696 1_555
O29 Ti7 1.984079 1_555
O30 Ti4 1.995732 1_555
O31 Ti5 2.077465 1_555
O32 Ti6 1.735593 1_555
O32 Ti3 2.310363 1_655
O33 Ti7 1.725168 1_555
O33 Ti6 2.254572 1_555
O34 Ti6 2.110258 1_555
O35 Ti7 2.128169 1_555
O36 Ti0 2.137095 1_545
O37 Ti6 2.023521 1_555
O38 Ti0 1.930257 1_545
O39 Ti5 1.949843 1_554
