# generated using pymatgen
data_Mn3(OF2)2
_symmetry_space_group_name_H-M   'P 1'
_cell_length_a   4.73880200
_cell_length_b   4.73880200
_cell_length_c   9.69982939
_cell_angle_alpha   89.34830247
_cell_angle_beta   89.34830247
_cell_angle_gamma   89.79185455
_symmetry_Int_Tables_number   1
_chemical_formula_structural   Mn3(OF2)2
_chemical_formula_sum   'Mn6 O4 F8'
_cell_volume   217.79222301
_cell_formula_units_Z   2
loop_
 _symmetry_equiv_pos_site_id
 _symmetry_equiv_pos_as_xyz
  1  'x, y, z'
loop_
 _atom_site_type_symbol
 _atom_site_label
 _atom_site_symmetry_multiplicity
 _atom_site_fract_x
 _atom_site_fract_y
 _atom_site_fract_z
 _atom_site_occupancy
  Mn  Mn0  1  0.04503900  0.01392300  0.82572600  1
  Mn  Mn1  1  0.98607700  0.95496100  0.17427400  1
  Mn  Mn2  1  0.01557300  0.98442700  0.50000000  1
  Mn  Mn3  1  0.47513100  0.51324800  0.67476000  1
  Mn  Mn4  1  0.51233100  0.48766900  0.00000000  1
  Mn  Mn5  1  0.48675200  0.52486900  0.32524000  1
  O  O0  1  0.18231200  0.79595700  0.33250700  1
  O  O1  1  0.20404300  0.81768800  0.66749300  1
  O  O2  1  0.68214900  0.67932200  0.16593700  1
  O  O3  1  0.32067800  0.31785100  0.83406300  1
  F  F0  1  0.20745700  0.79254300  0.00000000  1
  F  F1  1  0.72881600  0.71892900  0.83722900  1
  F  F2  1  0.67709500  0.70030700  0.51229000  1
  F  F3  1  0.28107100  0.27118400  0.16277100  1
  F  F4  1  0.29969300  0.32290500  0.48771000  1
  F  F5  1  0.82350900  0.17649100  0.00000000  1
  F  F6  1  0.78080500  0.20853200  0.34133200  1
  F  F7  1  0.79146800  0.21919500  0.65866800  1
loop_
_geom_bond_atom_site_label_1
_geom_bond_atom_site_label_2
_geom_bond_distance
_geom_bond_site_symmetry_2
Mn0 O1 1.946606 1_545
Mn0 O3 1.950833 1_555
Mn1 O0 1.946606 1_655
Mn1 O2 1.950833 1_555
Mn2 O0 2.014987 1_555
Mn2 O1 2.014987 1_555
Mn3 O1 1.929471 1_555
Mn3 O3 1.930652 1_555
Mn4 O3 2.032523 1_554
Mn4 O2 2.032523 1_555
Mn5 O0 1.929471 1_555
Mn5 O2 1.930652 1_555
F0 Mn4 2.039453 1_555
F0 Mn0 2.129292 1_564
F0 Mn1 2.129292 1_455
F1 Mn0 2.054276 1_665
F1 Mn4 2.162903 1_556
F1 Mn3 2.228291 1_555
F2 Mn3 2.031103 1_555
F2 Mn2 2.099385 1_655
F2 Mn5 2.207631 1_555
F3 Mn1 2.054276 1_445
F3 Mn4 2.162903 1_555
F3 Mn5 2.228291 1_555
F4 Mn5 2.031103 1_555
F4 Mn2 2.099385 1_545
F4 Mn3 2.207631 1_555
F5 Mn4 2.081623 1_555
F5 Mn1 2.129897 1_545
F5 Mn0 2.129897 1_654
F6 Mn5 2.048833 1_555
F6 Mn2 2.174256 1_645
F6 Mn1 2.239616 1_545
F7 Mn3 2.048833 1_555
F7 Mn2 2.174256 1_645
F7 Mn0 2.239616 1_655
