# generated using pymatgen
data_GdH18(IO3)3
_symmetry_space_group_name_H-M   'P 1'
_cell_length_a   8.16604300
_cell_length_b   9.04909100
_cell_length_c   11.69050600
_cell_angle_alpha   90.00000000
_cell_angle_beta   90.00000000
_cell_angle_gamma   90.00000000
_symmetry_Int_Tables_number   1
_chemical_formula_structural   GdH18(IO3)3
_chemical_formula_sum   'Gd2 H36 I6 O18'
_cell_volume   863.87305308
_cell_formula_units_Z   2
loop_
 _symmetry_equiv_pos_site_id
 _symmetry_equiv_pos_as_xyz
  1  'x, y, z'
loop_
 _atom_site_type_symbol
 _atom_site_label
 _atom_site_symmetry_multiplicity
 _atom_site_fract_x
 _atom_site_fract_y
 _atom_site_fract_z
 _atom_site_occupancy
  Gd  Gd0  1  0.00000000  0.66061400  0.50000000  1
  Gd  Gd1  1  0.50000000  0.33938600  0.00000000  1
  H  H0  1  0.72187900  0.47719900  0.59630700  1
  H  H1  1  0.72187900  0.47719900  0.40369300  1
  H  H2  1  0.27812100  0.47719900  0.59630700  1
  H  H3  1  0.27812100  0.47719900  0.40369300  1
  H  H4  1  0.77812100  0.52280100  0.90369300  1
  H  H5  1  0.77812100  0.52280100  0.09630700  1
  H  H6  1  0.22187900  0.52280100  0.90369300  1
  H  H7  1  0.22187900  0.52280100  0.09630700  1
  H  H8  1  0.70635700  0.62643500  0.66339500  1
  H  H9  1  0.70635700  0.62643500  0.33660500  1
  H  H10  1  0.29364300  0.62643500  0.66339500  1
  H  H11  1  0.29364300  0.62643500  0.33660500  1
  H  H12  1  0.79364300  0.37356500  0.83660500  1
  H  H13  1  0.79364300  0.37356500  0.16339500  1
  H  H14  1  0.20635700  0.37356500  0.83660500  1
  H  H15  1  0.20635700  0.37356500  0.16339500  1
  H  H16  1  0.00000000  0.32163500  0.43192300  1
  H  H17  1  0.00000000  0.32163500  0.56807700  1
  H  H18  1  0.50000000  0.67836500  0.06807700  1
  H  H19  1  0.50000000  0.67836500  0.93192300  1
  H  H20  1  0.27427900  0.87165300  0.43336800  1
  H  H21  1  0.27427900  0.87165300  0.56663200  1
  H  H22  1  0.72572100  0.87165300  0.43336800  1
  H  H23  1  0.72572100  0.87165300  0.56663200  1
  H  H24  1  0.22572100  0.12834700  0.06663200  1
  H  H25  1  0.22572100  0.12834700  0.93336800  1
  H  H26  1  0.77427900  0.12834700  0.06663200  1
  H  H27  1  0.77427900  0.12834700  0.93336800  1
  H  H28  1  0.00000000  0.89987400  0.70446500  1
  H  H29  1  0.00000000  0.89987400  0.29553500  1
  H  H30  1  0.50000000  0.10012600  0.79553500  1
  H  H31  1  0.50000000  0.10012600  0.20446500  1
  H  H32  1  0.00000000  0.74508900  0.76380600  1
  H  H33  1  0.00000000  0.74508900  0.23619400  1
  H  H34  1  0.50000000  0.25491100  0.73619400  1
  H  H35  1  0.50000000  0.25491100  0.26380600  1
  I  I0  1  0.50000000  0.82431000  0.73557400  1
  I  I1  1  0.50000000  0.82431000  0.26442600  1
  I  I2  1  0.00000000  0.17569000  0.76442600  1
  I  I3  1  0.00000000  0.17569000  0.23557400  1
  I  I4  1  0.00000000  0.69486400  0.00000000  1
  I  I5  1  0.50000000  0.30513600  0.50000000  1
  O  O0  1  0.78653000  0.56113900  0.62547900  1
  O  O1  1  0.78653000  0.56113900  0.37452100  1
  O  O2  1  0.21347000  0.56113900  0.62547900  1
  O  O3  1  0.21347000  0.56113900  0.37452100  1
  O  O4  1  0.71347000  0.43886100  0.87452100  1
  O  O5  1  0.71347000  0.43886100  0.12547900  1
  O  O6  1  0.28653000  0.43886100  0.87452100  1
  O  O7  1  0.28653000  0.43886100  0.12547900  1
  O  O8  1  0.00000000  0.38571700  0.50000000  1
  O  O9  1  0.50000000  0.61428300  0.00000000  1
  O  O10  1  0.20163000  0.86191800  0.50000000  1
  O  O11  1  0.79837000  0.86191800  0.50000000  1
  O  O12  1  0.29837000  0.13808200  0.00000000  1
  O  O13  1  0.70163000  0.13808200  0.00000000  1
  O  O14  1  0.00000000  0.79281500  0.68857200  1
  O  O15  1  0.00000000  0.79281500  0.31142800  1
  O  O16  1  0.50000000  0.20718500  0.81142800  1
  O  O17  1  0.50000000  0.20718500  0.18857200  1
loop_
_geom_bond_atom_site_label_1
_geom_bond_atom_site_label_2
_geom_bond_distance
_geom_bond_site_symmetry_2
Gd0 O2 2.449670 1_555
Gd0 O3 2.449670 1_555
Gd0 O1 2.449670 1_455
Gd0 O0 2.449670 1_455
Gd0 O11 2.455467 1_455
Gd0 O10 2.455467 1_555
Gd0 O8 2.487568 1_555
Gd0 O14 2.508179 1_555
Gd0 O15 2.508179 1_555
Gd1 O6 2.449670 1_554
Gd1 O7 2.449670 1_555
Gd1 O4 2.449670 1_554
Gd1 O5 2.449670 1_555
Gd1 O13 2.455467 1_555
Gd1 O12 2.455467 1_555
Gd1 O9 2.487568 1_555
Gd1 O17 2.508179 1_555
Gd1 O16 2.508179 1_554
H0 O0 0.985896 1_555
H1 O1 0.985896 1_555
H2 O2 0.985896 1_555
H3 O3 0.985896 1_555
H4 O4 0.985896 1_555
H5 O5 0.985896 1_555
H6 O6 0.985896 1_555
H7 O7 0.985896 1_555
H8 O0 0.987031 1_555
H9 O1 0.987031 1_555
H10 O2 0.987031 1_555
H11 O3 0.987031 1_555
H12 O4 0.987031 1_555
H13 O5 0.987031 1_555
H14 O6 0.987031 1_555
H15 O7 0.987031 1_555
H16 O8 0.984708 1_555
H17 O8 0.984708 1_555
H18 O9 0.984708 1_555
H19 O9 0.984708 1_556
H20 O10 0.983104 1_555
H21 O10 0.983104 1_555
H22 O11 0.983104 1_555
H23 O11 0.983104 1_555
H24 O12 0.983104 1_555
H25 O12 0.983104 1_556
H26 O13 0.983104 1_555
H27 O13 0.983104 1_556
H28 O14 0.986442 1_555
H29 O15 0.986442 1_555
H30 O16 0.986442 1_555
H31 O17 0.986442 1_555
H32 O14 0.979836 1_555
H33 O15 0.979836 1_555
H34 O16 0.979836 1_555
H35 O17 0.979836 1_555
