# generated using pymatgen
data_Ca3In2O6
_symmetry_space_group_name_H-M   'P 1'
_cell_length_a   3.26227700
_cell_length_b   11.04978100
_cell_length_c   16.75838900
_cell_angle_alpha   90.00000000
_cell_angle_beta   90.00000000
_cell_angle_gamma   90.00000000
_symmetry_Int_Tables_number   1
_chemical_formula_structural   Ca3In2O6
_chemical_formula_sum   'Ca12 In8 O24'
_cell_volume   604.09712942
_cell_formula_units_Z   4
loop_
 _symmetry_equiv_pos_site_id
 _symmetry_equiv_pos_as_xyz
  1  'x, y, z'
loop_
 _atom_site_type_symbol
 _atom_site_label
 _atom_site_symmetry_multiplicity
 _atom_site_fract_x
 _atom_site_fract_y
 _atom_site_fract_z
 _atom_site_occupancy
  Ca  Ca0  1  0.00000000  0.84231700  0.85706600  1
  Ca  Ca1  1  0.50000000  0.86831900  0.64838600  1
  Ca  Ca2  1  0.50000000  0.88523500  0.04677400  1
  Ca  Ca3  1  0.50000000  0.11476500  0.54677400  1
  Ca  Ca4  1  0.50000000  0.13168100  0.14838600  1
  Ca  Ca5  1  0.00000000  0.15768300  0.35706600  1
  Ca  Ca6  1  0.00000000  0.34494800  0.64226500  1
  Ca  Ca7  1  0.50000000  0.36816300  0.85161900  1
  Ca  Ca8  1  0.00000000  0.38170700  0.04587400  1
  Ca  Ca9  1  0.00000000  0.61829300  0.54587400  1
  Ca  Ca10  1  0.50000000  0.63183700  0.35161900  1
  Ca  Ca11  1  0.00000000  0.65505200  0.14226500  1
  In  In0  1  0.00000000  0.88087300  0.45426300  1
  In  In1  1  0.50000000  0.90432700  0.27290200  1
  In  In2  1  0.50000000  0.09567300  0.77290200  1
  In  In3  1  0.00000000  0.11912700  0.95426300  1
  In  In4  1  0.50000000  0.38751400  0.45782600  1
  In  In5  1  0.50000000  0.40187500  0.23237700  1
  In  In6  1  0.50000000  0.59812500  0.73237700  1
  In  In7  1  0.50000000  0.61248600  0.95782600  1
  O  O0  1  0.00000000  0.74394800  0.99671500  1
  O  O1  1  0.50000000  0.75408200  0.49293400  1
  O  O2  1  0.50000000  0.79454000  0.16910800  1
  O  O3  1  0.00000000  0.79483800  0.33488200  1
  O  O4  1  0.00000000  0.96568100  0.74495900  1
  O  O5  1  0.50000000  0.99192400  0.90715900  1
  O  O6  1  0.00000000  0.96832600  0.56888500  1
  O  O7  1  0.00000000  0.03167400  0.06888500  1
  O  O8  1  0.50000000  0.00807600  0.40715900  1
  O  O9  1  0.00000000  0.03431900  0.24495900  1
  O  O10  1  0.00000000  0.20516200  0.83488200  1
  O  O11  1  0.50000000  0.20546000  0.66910800  1
  O  O12  1  0.50000000  0.24591800  0.99293400  1
  O  O13  1  0.00000000  0.25605200  0.49671500  1
  O  O14  1  0.50000000  0.29835000  0.33987700  1
  O  O15  1  0.00000000  0.29432700  0.17337900  1
  O  O16  1  0.00000000  0.46671300  0.75446100  1
  O  O17  1  0.50000000  0.47480300  0.58211300  1
  O  O18  1  0.00000000  0.48274600  0.92616800  1
  O  O19  1  0.00000000  0.51725400  0.42616800  1
  O  O20  1  0.50000000  0.52519700  0.08211300  1
  O  O21  1  0.00000000  0.53328700  0.25446100  1
  O  O22  1  0.00000000  0.70567300  0.67337900  1
  O  O23  1  0.50000000  0.70165000  0.83987700  1
loop_
_geom_bond_atom_site_label_1
_geom_bond_atom_site_label_2
_geom_bond_distance
_geom_bond_site_symmetry_2
Ca0 O23 2.271467 1_555
Ca0 O23 2.271467 1_455
Ca0 O4 2.321164 1_555
Ca0 O5 2.469445 1_455
Ca0 O5 2.469445 1_555
Ca0 O0 2.580396 1_555
Ca1 O6 2.378404 1_655
Ca1 O6 2.378404 1_555
Ca1 O22 2.462921 1_555
Ca1 O22 2.462921 1_655
Ca1 O4 2.537176 1_655
Ca1 O4 2.537176 1_555
Ca1 O1 2.894834 1_555
Ca2 O2 2.281955 1_555
Ca2 O7 2.327278 1_565
Ca2 O7 2.327278 1_665
Ca2 O0 2.408671 1_654
Ca2 O0 2.408671 1_554
Ca2 O5 2.619940 1_554
Ca3 O11 2.281955 1_555
Ca3 O6 2.327278 1_645
Ca3 O6 2.327278 1_545
Ca3 O13 2.408671 1_655
Ca3 O13 2.408671 1_555
Ca3 O8 2.619940 1_555
Ca4 O7 2.378404 1_655
Ca4 O7 2.378404 1_555
Ca4 O15 2.462921 1_555
Ca4 O15 2.462921 1_655
Ca4 O9 2.537176 1_655
Ca4 O9 2.537176 1_555
Ca4 O12 2.894834 1_554
Ca5 O14 2.271467 1_455
Ca5 O14 2.271467 1_555
Ca5 O9 2.321164 1_555
Ca5 O8 2.469445 1_555
Ca5 O8 2.469445 1_455
Ca5 O13 2.580396 1_555
Ca6 O11 2.288802 1_555
Ca6 O11 2.288802 1_455
Ca6 O16 2.312045 1_555
Ca6 O17 2.394917 1_555
Ca6 O17 2.394917 1_455
Ca6 O13 2.629542 1_555
Ca7 O18 2.413394 1_555
Ca7 O18 2.413394 1_655
Ca7 O10 2.446086 1_555
Ca7 O10 2.446086 1_655
Ca7 O16 2.549022 1_555
Ca7 O16 2.549022 1_655
Ca7 O12 2.726359 1_555
Ca8 O18 2.295830 1_554
Ca8 O15 2.344796 1_555
Ca8 O20 2.354432 1_555
Ca8 O20 2.354432 1_455
Ca8 O12 2.387265 1_554
Ca8 O12 2.387265 1_454
Ca9 O19 2.295830 1_555
Ca9 O22 2.344796 1_555
Ca9 O17 2.354432 1_455
Ca9 O17 2.354432 1_555
Ca9 O1 2.387265 1_455
Ca9 O1 2.387265 1_555
Ca10 O19 2.413394 1_555
Ca10 O19 2.413394 1_655
Ca10 O3 2.446086 1_555
Ca10 O3 2.446086 1_655
Ca10 O21 2.549022 1_555
Ca10 O21 2.549022 1_655
Ca10 O1 2.726359 1_555
Ca11 O2 2.288802 1_555
Ca11 O2 2.288802 1_455
Ca11 O21 2.312045 1_555
Ca11 O20 2.394917 1_455
Ca11 O20 2.394917 1_555
Ca11 O0 2.629542 1_554
In0 O6 2.150253 1_555
In0 O3 2.215018 1_555
In0 O1 2.245760 1_455
In0 O1 2.245760 1_555
In0 O8 2.293329 1_565
In0 O8 2.293329 1_465
In1 O2 2.120672 1_555
In1 O9 2.223307 1_565
In1 O9 2.223307 1_665
In1 O3 2.281045 1_555
In1 O3 2.281045 1_655
In1 O8 2.525160 1_565
In2 O11 2.120672 1_555
In2 O4 2.223307 1_545
In2 O4 2.223307 1_645
In2 O10 2.281045 1_555
In2 O10 2.281045 1_655
In2 O5 2.525160 1_545
In3 O7 2.150253 1_556
In3 O10 2.215018 1_555
In3 O12 2.245760 1_555
In3 O12 2.245760 1_455
In3 O5 2.293329 1_545
In3 O5 2.293329 1_445
In4 O14 2.208572 1_555
In4 O19 2.235461 1_655
In4 O19 2.235461 1_555
In4 O13 2.279358 1_555
In4 O13 2.279358 1_655
In4 O17 2.295337 1_555
In5 O14 2.134027 1_555
In5 O21 2.214972 1_555
In5 O21 2.214972 1_655
In5 O15 2.247313 1_555
In5 O15 2.247313 1_655
In6 O23 2.134027 1_555
In6 O16 2.214972 1_555
In6 O16 2.214972 1_655
In6 O22 2.247313 1_555
In6 O22 2.247313 1_655
In7 O23 2.208572 1_555
In7 O18 2.235461 1_555
In7 O18 2.235461 1_655
In7 O0 2.279358 1_655
In7 O0 2.279358 1_555
In7 O20 2.295337 1_556
