# generated using pymatgen
data_Ta3InO9
_symmetry_space_group_name_H-M   'P 1'
_cell_length_a   7.49053000
_cell_length_b   5.19664400
_cell_length_c   8.37167943
_cell_angle_alpha   87.76378474
_cell_angle_beta   90.00000000
_cell_angle_gamma   90.00000000
_symmetry_Int_Tables_number   1
_chemical_formula_structural   Ta3InO9
_chemical_formula_sum   'Ta6 In2 O18'
_cell_volume   325.62462613
_cell_formula_units_Z   2
loop_
 _symmetry_equiv_pos_site_id
 _symmetry_equiv_pos_as_xyz
  1  'x, y, z'
loop_
 _atom_site_type_symbol
 _atom_site_label
 _atom_site_symmetry_multiplicity
 _atom_site_fract_x
 _atom_site_fract_y
 _atom_site_fract_z
 _atom_site_occupancy
  Ta  Ta0  1  0.00000000  0.00000000  0.00000000  1
  Ta  Ta1  1  0.50000000  0.00000000  0.00000000  1
  Ta  Ta2  1  0.49335700  0.52929400  0.69482200  1
  Ta  Ta3  1  0.00664300  0.52929400  0.69482200  1
  Ta  Ta4  1  0.99335700  0.47070600  0.30517800  1
  Ta  Ta5  1  0.50664300  0.47070600  0.30517800  1
  In  In0  1  0.25000000  0.97144300  0.44030900  1
  In  In1  1  0.75000000  0.02855700  0.55969100  1
  O  O0  1  0.25000000  0.89985500  0.97524500  1
  O  O1  1  0.93188100  0.85083200  0.78578900  1
  O  O2  1  0.56811900  0.85083200  0.78578900  1
  O  O3  1  0.94923000  0.74506700  0.47146600  1
  O  O4  1  0.55077000  0.74506700  0.47146600  1
  O  O5  1  0.25000000  0.67181100  0.65058200  1
  O  O6  1  0.94502200  0.67068800  0.12096000  1
  O  O7  1  0.55497800  0.67068800  0.12096000  1
  O  O8  1  0.25000000  0.59911200  0.31931900  1
  O  O9  1  0.75000000  0.40088800  0.68068100  1
  O  O10  1  0.05497800  0.32931200  0.87904000  1
  O  O11  1  0.44502200  0.32931200  0.87904000  1
  O  O12  1  0.75000000  0.32818900  0.34941800  1
  O  O13  1  0.05077000  0.25493300  0.52853400  1
  O  O14  1  0.44923000  0.25493300  0.52853400  1
  O  O15  1  0.06811900  0.14916800  0.21421100  1
  O  O16  1  0.43188100  0.14916800  0.21421100  1
  O  O17  1  0.75000000  0.10014500  0.02475500  1
loop_
_geom_bond_atom_site_label_1
_geom_bond_atom_site_label_2
_geom_bond_distance
_geom_bond_site_symmetry_2
In0 O8 2.218697 1_555
In0 O13 2.242278 1_565
In0 O14 2.242278 1_565
In0 O5 2.304211 1_555
In0 O15 2.481013 1_565
In0 O16 2.481013 1_565
In0 O3 2.550230 1_455
In0 O4 2.550230 1_555
In1 O9 2.218697 1_555
In1 O3 2.242278 1_545
In1 O4 2.242278 1_545
In1 O12 2.304211 1_555
In1 O1 2.481013 1_545
In1 O2 2.481013 1_545
In1 O14 2.550230 1_555
In1 O13 2.550230 1_655
O0 Ta0 1.956771 1_566
O0 Ta1 1.956771 1_566
O1 Ta3 1.945465 1_655
O1 Ta0 2.045892 1_666
O2 Ta2 1.945465 1_555
O2 Ta1 2.045892 1_566
O3 Ta4 2.057886 1_555
O3 Ta3 2.185182 1_655
O4 Ta5 2.057886 1_555
O4 Ta2 2.185182 1_555
O5 Ta2 1.996780 1_555
O5 Ta3 1.996780 1_555
O6 Ta4 1.861301 1_555
O6 Ta0 1.997097 1_665
O7 Ta5 1.861301 1_555
O7 Ta1 1.997097 1_565
O8 Ta4 2.039861 1_455
O8 Ta5 2.039861 1_555
O9 Ta3 2.039861 1_655
O9 Ta2 2.039861 1_555
O10 Ta3 1.861301 1_555
O10 Ta0 1.997097 1_556
O11 Ta2 1.861301 1_555
O11 Ta1 1.997097 1_556
O12 Ta5 1.996780 1_555
O12 Ta4 1.996780 1_555
O13 Ta3 2.057886 1_555
O13 Ta4 2.185182 1_455
O14 Ta2 2.057886 1_555
O14 Ta5 2.185182 1_555
O15 Ta4 1.945465 1_455
O15 Ta0 2.045892 1_555
O16 Ta5 1.945465 1_555
O16 Ta1 2.045892 1_555
O17 Ta0 1.956771 1_655
O17 Ta1 1.956771 1_555
