# generated using pymatgen
data_Li2Cr3O10
_symmetry_space_group_name_H-M   'P 1'
_cell_length_a   16.91814700
_cell_length_b   6.79695400
_cell_length_c   8.85849544
_cell_angle_alpha   55.21373204
_cell_angle_beta   90.00000000
_cell_angle_gamma   90.00000000
_symmetry_Int_Tables_number   1
_chemical_formula_structural   Li2Cr3O10
_chemical_formula_sum   'Li8 Cr12 O40'
_cell_volume   836.60699896
_cell_formula_units_Z   4
loop_
 _symmetry_equiv_pos_site_id
 _symmetry_equiv_pos_as_xyz
  1  'x, y, z'
loop_
 _atom_site_type_symbol
 _atom_site_label
 _atom_site_symmetry_multiplicity
 _atom_site_fract_x
 _atom_site_fract_y
 _atom_site_fract_z
 _atom_site_occupancy
  Li  Li0  1  0.67233800  0.07645500  0.97347600  1
  Li  Li1  1  0.39468300  0.47773100  0.86627500  1
  Li  Li2  1  0.89468300  0.52226900  0.63372500  1
  Li  Li3  1  0.17233800  0.92354500  0.52652400  1
  Li  Li4  1  0.82766200  0.07645500  0.47347600  1
  Li  Li5  1  0.10531700  0.47773100  0.36627500  1
  Li  Li6  1  0.60531700  0.52226900  0.13372500  1
  Li  Li7  1  0.32766200  0.92354500  0.02652400  1
  Cr  Cr0  1  0.08941000  0.26153600  0.89557600  1
  Cr  Cr1  1  0.77332400  0.57628500  0.94820100  1
  Cr  Cr2  1  0.99803100  0.90186900  0.73378000  1
  Cr  Cr3  1  0.49803100  0.09813100  0.76622000  1
  Cr  Cr4  1  0.58941000  0.73846400  0.60442400  1
  Cr  Cr5  1  0.72667600  0.57628500  0.44820100  1
  Cr  Cr6  1  0.27332400  0.42371500  0.55179900  1
  Cr  Cr7  1  0.41059000  0.26153600  0.39557600  1
  Cr  Cr8  1  0.50196900  0.90186900  0.23378000  1
  Cr  Cr9  1  0.00196900  0.09813100  0.26622000  1
  Cr  Cr10  1  0.22667600  0.42371500  0.05179900  1
  Cr  Cr11  1  0.91059000  0.73846400  0.10442400  1
  O  O0  1  0.99617200  0.80407000  0.97188200  1
  O  O1  1  0.14924000  0.47764600  0.88906600  1
  O  O2  1  0.85749300  0.97598300  0.01408300  1
  O  O3  1  0.29520400  0.62970400  0.94321800  1
  O  O4  1  0.47005000  0.32573500  0.76794700  1
  O  O5  1  0.73762500  0.83890100  0.87086200  1
  O  O6  1  0.43283900  0.88546300  0.87770100  1
  O  O7  1  0.81076000  0.57582400  0.77790400  1
  O  O8  1  0.56501500  0.64272900  0.81094700  1
  O  O9  1  0.06501500  0.35727100  0.68905300  1
  O  O10  1  0.58622000  0.00904900  0.85851300  1
  O  O11  1  0.31076000  0.42417600  0.72209600  1
  O  O12  1  0.97005000  0.67426500  0.73205300  1
  O  O13  1  0.64924000  0.52235400  0.61093400  1
  O  O14  1  0.08622000  0.99095100  0.64148700  1
  O  O15  1  0.93283900  0.11453700  0.62229900  1
  O  O16  1  0.23762500  0.16109900  0.62913800  1
  O  O17  1  0.50382800  0.80407000  0.47188200  1
  O  O18  1  0.79520400  0.37029600  0.55678200  1
  O  O19  1  0.35749300  0.02401700  0.48591700  1
  O  O20  1  0.64250700  0.97598300  0.51408300  1
  O  O21  1  0.20479600  0.62970400  0.44321800  1
  O  O22  1  0.49617200  0.19593000  0.52811800  1
  O  O23  1  0.76237500  0.83890100  0.37086200  1
  O  O24  1  0.06716100  0.88546300  0.37770100  1
  O  O25  1  0.91378000  0.00904900  0.35851300  1
  O  O26  1  0.35076000  0.47764600  0.38906600  1
  O  O27  1  0.02995000  0.32573500  0.26794700  1
  O  O28  1  0.68924000  0.57582400  0.27790400  1
  O  O29  1  0.41378000  0.99095100  0.14148700  1
  O  O30  1  0.93498500  0.64272900  0.31094700  1
  O  O31  1  0.43498500  0.35727100  0.18905300  1
  O  O32  1  0.18924000  0.42417600  0.22209600  1
  O  O33  1  0.56716100  0.11453700  0.12229900  1
  O  O34  1  0.26237500  0.16109900  0.12913800  1
  O  O35  1  0.52995000  0.67426500  0.23205300  1
  O  O36  1  0.70479600  0.37029600  0.05678200  1
  O  O37  1  0.14250700  0.02401700  0.98591700  1
  O  O38  1  0.85076000  0.52235400  0.11093400  1
  O  O39  1  0.00382800  0.19593000  0.02811800  1
loop_
_geom_bond_atom_site_label_1
_geom_bond_atom_site_label_2
_geom_bond_distance
_geom_bond_site_symmetry_2
Li0 O10 1.975388 1_555
Li0 O33 2.315313 1_556
Li0 O5 2.515568 1_545
Li0 O36 2.552800 1_556
Li1 O11 2.076089 1_555
Li1 O4 2.116275 1_555
Li1 O3 2.273195 1_555
Li1 O31 2.576770 1_556
Li2 O7 2.076089 1_555
Li2 O12 2.116275 1_555
Li2 O18 2.273195 1_555
Li2 O30 2.576770 1_555
Li3 O14 1.975388 1_555
Li3 O24 2.315313 1_555
Li3 O16 2.515568 1_565
Li3 O21 2.552800 1_555
Li4 O25 1.975388 1_555
Li4 O15 2.315313 1_555
Li4 O23 2.515568 1_545
Li4 O18 2.552800 1_555
Li5 O32 2.076089 1_555
Li5 O27 2.116275 1_555
Li5 O21 2.273195 1_555
Li5 O9 2.576770 1_555
Li6 O28 2.076089 1_555
Li6 O35 2.116275 1_555
Li6 O36 2.273195 1_555
Li6 O8 2.576770 1_554
Li7 O29 1.975388 1_555
Li7 O6 2.315313 1_554
Li7 O34 2.515568 1_565
Li7 O3 2.552800 1_554
Cr0 O37 1.606086 1_555
Cr0 O9 1.606989 1_555
Cr0 O39 1.753963 1_556
Cr0 O1 1.757521 1_555
Cr1 O5 1.620169 1_555
Cr1 O7 1.637783 1_555
Cr1 O36 1.641022 1_556
Cr1 O38 1.823686 1_556
Cr2 O12 1.626218 1_555
Cr2 O15 1.628600 1_565
Cr2 O14 1.642025 1_655
Cr2 O0 1.814353 1_555
Cr3 O4 1.626218 1_555
Cr3 O6 1.628600 1_545
Cr3 O10 1.642025 1_555
Cr3 O22 1.814353 1_555
Cr4 O20 1.606086 1_555
Cr4 O8 1.606989 1_555
Cr4 O17 1.753963 1_555
Cr4 O13 1.757521 1_555
Cr5 O23 1.620169 1_555
Cr5 O28 1.637783 1_555
Cr5 O18 1.641022 1_555
Cr5 O13 1.823686 1_555
Cr6 O16 1.620169 1_555
Cr6 O11 1.637783 1_555
Cr6 O21 1.641022 1_555
Cr6 O26 1.823686 1_555
Cr7 O19 1.606086 1_555
Cr7 O31 1.606989 1_555
Cr7 O22 1.753963 1_555
Cr7 O26 1.757521 1_555
Cr8 O35 1.626218 1_555
Cr8 O33 1.628600 1_565
Cr8 O29 1.642025 1_555
Cr8 O17 1.814353 1_555
Cr9 O27 1.626218 1_555
Cr9 O24 1.628600 1_545
Cr9 O25 1.642025 1_455
Cr9 O39 1.814353 1_555
Cr10 O34 1.620169 1_555
Cr10 O32 1.637783 1_555
Cr10 O3 1.641022 1_554
Cr10 O1 1.823686 1_554
Cr11 O2 1.606086 1_555
Cr11 O30 1.606989 1_555
Cr11 O0 1.753963 1_554
Cr11 O38 1.757521 1_555
