# generated using pymatgen
data_Li4Mn3CrCo2(PO4)6
_symmetry_space_group_name_H-M   'P 1'
_cell_length_a   8.41512700
_cell_length_b   8.48581784
_cell_length_c   8.60448551
_cell_angle_alpha   63.06702971
_cell_angle_beta   63.77722708
_cell_angle_gamma   64.16671121
_symmetry_Int_Tables_number   1
_chemical_formula_structural   Li4Mn3CrCo2(PO4)6
_chemical_formula_sum   'Li4 Mn3 Cr1 Co2 P6 O24'
_cell_volume   469.60982224
_cell_formula_units_Z   1
loop_
 _symmetry_equiv_pos_site_id
 _symmetry_equiv_pos_as_xyz
  1  'x, y, z'
loop_
 _atom_site_type_symbol
 _atom_site_label
 _atom_site_symmetry_multiplicity
 _atom_site_fract_x
 _atom_site_fract_y
 _atom_site_fract_z
 _atom_site_occupancy
  Li  Li0  1  0.74103800  0.14960300  0.35861300  1
  Li  Li1  1  0.26523200  0.84859200  0.65223300  1
  Li  Li2  1  0.64442700  0.26216300  0.85459100  1
  Li  Li3  1  0.85524000  0.64713100  0.26343200  1
  Mn  Mn0  1  0.35137900  0.35461600  0.35138600  1
  Mn  Mn1  1  0.14529800  0.14630000  0.14791300  1
  Mn  Mn2  1  0.65587400  0.65249300  0.65414100  1
  Cr  Cr0  1  0.85342200  0.85074200  0.85369200  1
  Co  Co0  1  0.01135200  0.00833200  0.98815700  1
  Co  Co1  1  0.49117200  0.50136200  0.50323200  1
  P  P0  1  0.06169200  0.75093100  0.44517300  1
  P  P1  1  0.44295000  0.05205500  0.75150000  1
  P  P2  1  0.75004300  0.44247400  0.05440700  1
  P  P3  1  0.24553600  0.54788100  0.95076600  1
  P  P4  1  0.56104500  0.95016900  0.24806000  1
  P  P5  1  0.93680300  0.24776400  0.55007000  1
  O  O0  1  0.46338500  0.90307200  0.68337700  1
  O  O1  1  0.68070500  0.46100600  0.90821500  1
  O  O2  1  0.90987500  0.68615400  0.45876000  1
  O  O3  1  0.06734200  0.91998800  0.25783100  1
  O  O4  1  0.00960100  0.81298700  0.60986800  1
  O  O5  1  0.25390200  0.60783500  0.42954400  1
  O  O6  1  0.25062100  0.06997400  0.90397200  1
  O  O7  1  0.44820200  0.24089400  0.59563000  1
  O  O8  1  0.17444700  0.38863100  0.99613800  1
  O  O9  1  0.60965400  0.42350700  0.25117200  1
  O  O10  1  0.09138500  0.74659300  0.92397300  1
  O  O11  1  0.39350000  0.01316900  0.18529200  1
  O  O12  1  0.60475300  0.00090500  0.82333800  1
  O  O13  1  0.90311500  0.24566000  0.07704700  1
  O  O14  1  0.39212500  0.56892300  0.75405600  1
  O  O15  1  0.81817800  0.60469600  0.00646200  1
  O  O16  1  0.57414200  0.75177100  0.39434400  1
  O  O17  1  0.75620800  0.92242200  0.08869800  1
  O  O18  1  0.74214800  0.39798800  0.58079800  1
  O  O19  1  0.95280900  0.18495900  0.40121200  1
  O  O20  1  0.92332100  0.09007400  0.74760100  1
  O  O21  1  0.09904400  0.30831100  0.50749100  1
  O  O22  1  0.31094700  0.52227600  0.09930700  1
  O  O23  1  0.55808400  0.09260300  0.31150900  1
loop_
_geom_bond_atom_site_label_1
_geom_bond_atom_site_label_2
_geom_bond_distance
_geom_bond_site_symmetry_2
Li0 O23 2.036315 1_555
Li0 O9 2.048545 1_555
Li0 O19 2.131437 1_555
Li0 O13 2.157321 1_555
Li0 O7 2.481550 1_555
Li0 O3 2.617631 1_645
Li1 O0 2.060339 1_555
Li1 O14 2.067524 1_555
Li1 O10 2.145639 1_555
Li1 O4 2.492164 1_555
Li2 O18 2.051561 1_555
Li2 O1 2.105215 1_555
Li2 O20 2.193104 1_555
Li2 O12 2.522558 1_555
Li2 O14 2.607448 1_555
Li3 O16 2.091317 1_555
Li3 O2 2.113175 1_555
Li3 O17 2.154319 1_555
Li3 O15 2.558212 1_555
Mn0 O21 2.048421 1_555
Mn0 O22 2.068651 1_555
Mn0 O9 2.191688 1_555
Mn0 O23 2.209075 1_555
Mn0 O7 2.236644 1_555
Mn0 O5 2.242277 1_555
Mn1 O8 1.928227 1_554
Mn1 O3 1.979193 1_545
Mn1 O11 1.987530 1_555
Mn1 O13 2.090713 1_455
Mn1 O19 2.132224 1_455
Mn1 O6 2.167491 1_554
Mn2 O0 2.081164 1_555
Mn2 O1 2.086413 1_555
Mn2 O2 2.097159 1_555
Mn2 O18 2.247861 1_555
Mn2 O14 2.302451 1_555
Mn2 O16 2.308160 1_555
Cr0 O15 1.970806 1_556
Cr0 O12 1.982039 1_565
Cr0 O4 2.009154 1_655
Cr0 O20 2.047212 1_565
Cr0 O10 2.049481 1_655
Cr0 O17 2.084903 1_556
Co0 O6 2.034244 1_555
Co0 O13 2.156758 1_456
Co0 O20 2.218293 1_455
Co0 O17 2.245242 1_446
Co0 O10 2.273891 1_545
Co0 O3 2.291458 1_546
Co1 O5 2.057328 1_555
Co1 O7 2.121033 1_555
Co1 O18 2.185443 1_555
Co1 O16 2.189058 1_555
Co1 O14 2.189981 1_555
Co1 O9 2.224284 1_555
O0 P1 1.537608 1_565
O1 P2 1.528718 1_556
O2 P0 1.539414 1_655
O3 P0 1.598621 1_555
O4 P0 1.550340 1_555
O5 P0 1.533880 1_555
O6 P1 1.566384 1_555
O7 P1 1.559161 1_555
O8 P3 1.535154 1_555
O9 P2 1.561828 1_555
O10 P3 1.607813 1_555
O11 P4 1.523097 1_545
O12 P1 1.552445 1_555
O13 P2 1.593316 1_555
O14 P3 1.578434 1_555
O15 P2 1.535678 1_555
O16 P4 1.572282 1_555
O17 P4 1.611910 1_555
O18 P5 1.575091 1_555
O19 P5 1.531704 1_555
O20 P5 1.610543 1_555
O21 P5 1.503652 1_455
O22 P3 1.499901 1_554
O23 P4 1.522847 1_545
