# generated using pymatgen
data_Ti3VCo2(PO4)6
_symmetry_space_group_name_H-M   'P 1'
_cell_length_a   8.63896410
_cell_length_b   8.63896410
_cell_length_c   8.63896445
_cell_angle_alpha   60.25332722
_cell_angle_beta   60.25332722
_cell_angle_gamma   60.25332802
_symmetry_Int_Tables_number   1
_chemical_formula_structural   Ti3VCo2(PO4)6
_chemical_formula_sum   'Ti3 V1 Co2 P6 O24'
_cell_volume   458.51473717
_cell_formula_units_Z   1
loop_
 _symmetry_equiv_pos_site_id
 _symmetry_equiv_pos_as_xyz
  1  'x, y, z'
loop_
 _atom_site_type_symbol
 _atom_site_label
 _atom_site_symmetry_multiplicity
 _atom_site_fract_x
 _atom_site_fract_y
 _atom_site_fract_z
 _atom_site_occupancy
  Ti  Ti0  1  0.35728100  0.35728100  0.35728100  1
  Ti  Ti1  1  0.14288700  0.14288700  0.14288700  1
  Ti  Ti2  1  0.64287900  0.64287900  0.64287900  1
  V  V0  1  0.85846700  0.85846700  0.85846700  1
  Co  Co0  1  0.99997000  0.99997000  0.99997000  1
  Co  Co1  1  0.49922400  0.49922400  0.49922400  1
  P  P0  1  0.75070900  0.04197200  0.45897800  1
  P  P1  1  0.04197200  0.45897800  0.75070900  1
  P  P2  1  0.45897800  0.75070900  0.04197200  1
  P  P3  1  0.54233000  0.25041400  0.95754800  1
  P  P4  1  0.95754800  0.54233000  0.25041400  1
  P  P5  1  0.25041400  0.95754800  0.54233000  1
  O  O0  1  0.87869900  0.50107100  0.68990200  1
  O  O1  1  0.50107100  0.68990200  0.87869900  1
  O  O2  1  0.68990200  0.87869900  0.50107100  1
  O  O3  1  0.91440200  0.05612200  0.26310900  1
  O  O4  1  0.80957800  0.00525400  0.61538900  1
  O  O5  1  0.58677300  0.23561400  0.43733500  1
  O  O6  1  0.05612200  0.26310900  0.91440200  1
  O  O7  1  0.23561400  0.43733500  0.58677300  1
  O  O8  1  0.37998600  0.18756700  0.00257100  1
  O  O9  1  0.43733500  0.58677300  0.23561400  1
  O  O10  1  0.73514600  0.08992500  0.94540500  1
  O  O11  1  0.00257100  0.37998600  0.18756700  1
  O  O12  1  0.00525400  0.61538900  0.80957800  1
  O  O13  1  0.26310900  0.91440200  0.05612200  1
  O  O14  1  0.55495600  0.41469100  0.76503400  1
  O  O15  1  0.61538900  0.80957800  0.00525400  1
  O  O16  1  0.76503400  0.55495600  0.41469100  1
  O  O17  1  0.94540500  0.73514600  0.08992500  1
  O  O18  1  0.41469100  0.76503400  0.55495600  1
  O  O19  1  0.18756700  0.00257100  0.37998600  1
  O  O20  1  0.08992500  0.94540500  0.73514600  1
  O  O21  1  0.31489800  0.11870000  0.49522700  1
  O  O22  1  0.49522700  0.31489800  0.11870000  1
  O  O23  1  0.11870000  0.49522700  0.31489800  1
loop_
_geom_bond_atom_site_label_1
_geom_bond_atom_site_label_2
_geom_bond_distance
_geom_bond_site_symmetry_2
Co0 O17 2.236641 1_556
Co0 O10 2.236641 1_565
Co0 O20 2.236641 1_655
Co0 O6 2.240607 1_665
Co0 O13 2.240607 1_656
Co0 O3 2.240607 1_566
Co1 O16 2.263258 1_555
Co1 O18 2.263258 1_555
Co1 O14 2.263258 1_555
Co1 O7 2.267562 1_555
Co1 O5 2.267562 1_555
Co1 O9 2.267562 1_555
O0 P1 1.560273 1_655
O0 Ti2 1.914926 1_555
O1 P2 1.560273 1_556
O1 Ti2 1.914926 1_555
O2 P0 1.560273 1_565
O2 Ti2 1.914926 1_555
O3 P0 1.571531 1_555
O3 Ti1 2.048910 1_655
O4 P0 1.510492 1_555
O4 V0 1.975432 1_545
O5 P0 1.562224 1_555
O5 Ti0 2.021152 1_555
O6 P1 1.571531 1_555
O6 Ti1 2.048910 1_556
O7 P1 1.562224 1_555
O7 Ti0 2.021152 1_555
O8 P3 1.554917 1_554
O8 Ti1 1.915791 1_555
O9 P2 1.562224 1_555
O9 Ti0 2.021152 1_555
O10 P3 1.545025 1_555
O10 V0 2.068729 1_545
O11 P4 1.554917 1_455
O11 Ti1 1.915791 1_555
O12 P1 1.510492 1_555
O12 V0 1.975432 1_455
O13 P2 1.571531 1_555
O13 Ti1 2.048910 1_565
O14 P3 1.556718 1_555
O14 Ti2 2.050053 1_555
O15 P2 1.510492 1_555
O15 V0 1.975432 1_554
O16 P4 1.556718 1_555
O16 Ti2 2.050053 1_555
O17 P4 1.545025 1_555
O17 V0 2.068729 1_554
O18 P5 1.556718 1_555
O18 Ti2 2.050053 1_555
O19 P5 1.554917 1_545
O19 Ti1 1.915791 1_555
O20 P5 1.545025 1_555
O20 V0 2.068729 1_455
O21 P5 1.548093 1_545
O21 Ti0 1.918548 1_555
O22 P3 1.548093 1_554
O22 Ti0 1.918548 1_555
O23 P4 1.548093 1_455
O23 Ti0 1.918548 1_555
