# generated using pymatgen
data_Er4(B2O5)3
_symmetry_space_group_name_H-M   'P 1'
_cell_length_a   6.22025777
_cell_length_b   6.22025777
_cell_length_c   18.84042227
_cell_angle_alpha   83.95511884
_cell_angle_beta   83.95511884
_cell_angle_gamma   41.23724314
_symmetry_Int_Tables_number   1
_chemical_formula_structural   Er4(B2O5)3
_chemical_formula_sum   'Er8 B12 O30'
_cell_volume   477.46752292
_cell_formula_units_Z   2
loop_
 _symmetry_equiv_pos_site_id
 _symmetry_equiv_pos_as_xyz
  1  'x, y, z'
loop_
 _atom_site_type_symbol
 _atom_site_label
 _atom_site_symmetry_multiplicity
 _atom_site_fract_x
 _atom_site_fract_y
 _atom_site_fract_z
 _atom_site_occupancy
  Er  Er0  1  0.65285800  0.07219000  0.30247400  1
  Er  Er1  1  0.66650500  0.06809200  0.09894300  1
  Er  Er2  1  0.93190800  0.33349500  0.40105700  1
  Er  Er3  1  0.92781000  0.34714200  0.19752600  1
  Er  Er4  1  0.07219000  0.65285800  0.80247400  1
  Er  Er5  1  0.06809200  0.66650500  0.59894300  1
  Er  Er6  1  0.33349500  0.93190800  0.90105700  1
  Er  Er7  1  0.34714200  0.92781000  0.69752600  1
  B  B0  1  0.64021600  0.02144800  0.47441700  1
  B  B1  1  0.19670800  0.60864800  0.41278200  1
  B  B2  1  0.20444700  0.66031200  0.19428500  1
  B  B3  1  0.60864800  0.19670800  0.91278200  1
  B  B4  1  0.66031200  0.20444700  0.69428500  1
  B  B5  1  0.97855200  0.35978400  0.02558300  1
  B  B6  1  0.02144800  0.64021600  0.97441700  1
  B  B7  1  0.33968800  0.79555300  0.30571500  1
  B  B8  1  0.39135200  0.80329200  0.08721800  1
  B  B9  1  0.79555300  0.33968800  0.80571500  1
  B  B10  1  0.80329200  0.39135200  0.58721800  1
  B  B11  1  0.35978400  0.97855200  0.52558300  1
  O  O0  1  0.99382800  0.75136800  0.47946300  1
  O  O1  1  0.54255000  0.28876600  0.42980100  1
  O  O2  1  0.53452300  0.33623300  0.19666300  1
  O  O3  1  0.15992200  0.81216300  0.12149800  1
  O  O4  1  0.81216300  0.15992200  0.62149800  1
  O  O5  1  0.95135400  0.68476900  0.20373000  1
  O  O6  1  0.75136800  0.99382800  0.97946300  1
  O  O7  1  0.28876600  0.54255000  0.92980100  1
  O  O8  1  0.33623300  0.53452300  0.69666300  1
  O  O9  1  0.07661800  0.56016300  0.36166700  1
  O  O10  1  0.50488200  0.91211700  0.45054400  1
  O  O11  1  0.56016300  0.07661800  0.86166700  1
  O  O12  1  0.68476900  0.95135400  0.70373000  1
  O  O13  1  0.91211700  0.50488200  0.95054400  1
  O  O14  1  0.08788300  0.49511800  0.04945600  1
  O  O15  1  0.31523100  0.04864600  0.29627000  1
  O  O16  1  0.43983700  0.92338200  0.13833300  1
  O  O17  1  0.49511800  0.08788300  0.54945600  1
  O  O18  1  0.92338200  0.43983700  0.63833300  1
  O  O19  1  0.66376700  0.46547700  0.30333700  1
  O  O20  1  0.71123400  0.45745000  0.07019900  1
  O  O21  1  0.24863200  0.00617200  0.02053700  1
  O  O22  1  0.04864600  0.31523100  0.79627000  1
  O  O23  1  0.18783700  0.84007800  0.37850200  1
  O  O24  1  0.84007800  0.18783700  0.87850200  1
  O  O25  1  0.46547700  0.66376700  0.80333700  1
  O  O26  1  0.86856700  0.13143300  0.75000000  1
  O  O27  1  0.13143300  0.86856700  0.25000000  1
  O  O28  1  0.45745000  0.71123400  0.57019900  1
  O  O29  1  0.00617200  0.24863200  0.52053700  1
loop_
_geom_bond_atom_site_label_1
_geom_bond_atom_site_label_2
_geom_bond_distance
_geom_bond_site_symmetry_2
Er0 O15 2.227895 1_555
Er0 O2 2.239356 1_555
Er0 O27 2.327350 1_645
Er0 O9 2.362295 1_645
Er0 O5 2.490611 1_545
Er0 O19 2.499550 1_555
Er0 O9 2.610137 1_555
Er0 O1 2.642746 1_555
Er1 O16 2.212819 1_545
Er1 O3 2.217789 1_645
Er1 O2 2.261532 1_555
Er1 O6 2.271846 1_544
Er1 O5 2.472582 1_545
Er1 O14 2.564634 1_645
Er1 O14 2.585681 1_555
Er1 O20 2.634726 1_555
Er2 O9 2.212819 1_655
Er2 O23 2.217789 1_645
Er2 O19 2.261532 1_555
Er2 O29 2.271846 1_655
Er2 O15 2.472582 1_655
Er2 O10 2.564634 1_645
Er2 O10 2.585681 1_555
Er2 O1 2.634726 1_555
Er3 O5 2.227895 1_555
Er3 O19 2.239356 1_555
Er3 O27 2.327350 1_645
Er3 O16 2.362295 1_645
Er3 O15 2.490611 1_655
Er3 O2 2.499550 1_555
Er3 O16 2.610137 1_555
Er3 O20 2.642746 1_555
Er4 O22 2.227895 1_555
Er4 O8 2.239356 1_555
Er4 O26 2.327350 1_465
Er4 O11 2.362295 1_465
Er4 O12 2.490611 1_455
Er4 O25 2.499550 1_555
Er4 O11 2.610137 1_555
Er4 O7 2.642746 1_555
Er5 O18 2.212819 1_455
Er5 O4 2.217789 1_465
Er5 O8 2.261532 1_555
Er5 O0 2.271846 1_455
Er5 O12 2.472582 1_455
Er5 O17 2.564634 1_465
Er5 O17 2.585681 1_555
Er5 O28 2.634726 1_555
Er6 O11 2.212819 1_565
Er6 O24 2.217789 1_465
Er6 O25 2.261532 1_555
Er6 O21 2.271846 1_566
Er6 O22 2.472582 1_565
Er6 O13 2.564634 1_465
Er6 O13 2.585681 1_555
Er6 O7 2.634726 1_555
Er7 O12 2.227895 1_555
Er7 O25 2.239356 1_555
Er7 O26 2.327350 1_465
Er7 O18 2.362295 1_465
Er7 O22 2.490611 1_565
Er7 O8 2.499550 1_555
Er7 O18 2.610137 1_555
Er7 O28 2.642746 1_555
B0 O0 1.456821 1_545
B0 O1 1.460970 1_555
B0 O17 1.509126 1_555
B0 O10 1.542276 1_545
B1 O9 1.458725 1_555
B1 O0 1.474792 1_455
B1 O23 1.478075 1_555
B1 O1 1.504323 1_555
B2 O2 1.434134 1_555
B2 O5 1.455934 1_455
B2 O3 1.504392 1_555
B2 O27 1.512395 1_555
B3 O11 1.458725 1_555
B3 O6 1.474792 1_545
B3 O24 1.478075 1_555
B3 O7 1.504323 1_555
B4 O8 1.434134 1_555
B4 O12 1.455934 1_545
B4 O4 1.504392 1_555
B4 O26 1.512395 1_555
B5 O21 1.456821 1_655
B5 O20 1.460970 1_555
B5 O13 1.509126 1_554
B5 O14 1.542276 1_655
B6 O6 1.456821 1_455
B6 O7 1.460970 1_555
B6 O14 1.509126 1_556
B6 O13 1.542276 1_455
B7 O19 1.434134 1_555
B7 O15 1.455934 1_565
B7 O23 1.504392 1_555
B7 O27 1.512395 1_555
B8 O16 1.458725 1_555
B8 O21 1.474792 1_565
B8 O3 1.478075 1_555
B8 O20 1.504323 1_555
B9 O25 1.434134 1_555
B9 O22 1.455934 1_655
B9 O24 1.504392 1_555
B9 O26 1.512395 1_555
B10 O18 1.458725 1_555
B10 O29 1.474792 1_655
B10 O4 1.478075 1_555
B10 O28 1.504323 1_555
B11 O29 1.456821 1_565
B11 O28 1.460970 1_555
B11 O10 1.509126 1_555
B11 O17 1.542276 1_565
