# generated using pymatgen
data_Li16Fe4SiO16
_symmetry_space_group_name_H-M   'P 1'
_cell_length_a   5.48009400
_cell_length_b   6.40739845
_cell_length_c   10.96354330
_cell_angle_alpha   89.04835122
_cell_angle_beta   89.85841109
_cell_angle_gamma   89.55362232
_symmetry_Int_Tables_number   1
_chemical_formula_structural   Li16Fe4SiO16
_chemical_formula_sum   'Li16 Fe4 Si1 O16'
_cell_volume   384.89865823
_cell_formula_units_Z   1
loop_
 _symmetry_equiv_pos_site_id
 _symmetry_equiv_pos_as_xyz
  1  'x, y, z'
loop_
 _atom_site_type_symbol
 _atom_site_label
 _atom_site_symmetry_multiplicity
 _atom_site_fract_x
 _atom_site_fract_y
 _atom_site_fract_z
 _atom_site_occupancy
  Li  Li0  1  0.10900000  0.01982500  0.65911800  1
  Li  Li1  1  0.39908300  0.01553700  0.15773800  1
  Li  Li2  1  0.12518600  0.24290700  0.41096000  1
  Li  Li3  1  0.35650800  0.23238800  0.93377700  1
  Li  Li4  1  0.97519300  0.22152600  0.82430100  1
  Li  Li5  1  0.50980200  0.29435800  0.30885300  1
  Li  Li6  1  0.40270300  0.48480400  0.13054300  1
  Li  Li7  1  0.83489100  0.52241800  0.35034400  1
  Li  Li8  1  0.65817500  0.51495100  0.84496000  1
  Li  Li9  1  0.05932400  0.54987400  0.17395000  1
  Li  Li10  1  0.83549100  0.76050200  0.57208000  1
  Li  Li11  1  0.67263700  0.75381500  0.07713700  1
  Li  Li12  1  0.45820900  0.84370300  0.69927400  1
  Li  Li13  1  0.05533000  0.93881900  0.17706700  1
  Li  Li14  1  0.80325200  0.98016700  0.34778600  1
  Li  Li15  1  0.64577700  0.99296700  0.85360800  1
  Fe  Fe0  1  0.66344400  0.25156600  0.58682800  1
  Fe  Fe1  1  0.83754600  0.25136800  0.08276000  1
  Fe  Fe2  1  0.33829500  0.74004900  0.40359300  1
  Fe  Fe3  1  0.13895200  0.76721400  0.91459900  1
  Si  Si0  1  0.17062800  0.50270600  0.66463700  1
  O  O0  1  0.75249700  0.00574400  0.67211700  1
  O  O1  1  0.73154500  0.01037900  0.17116400  1
  O  O2  1  0.70336300  0.25373100  0.92423200  1
  O  O3  1  0.30039400  0.29936300  0.59734500  1
  O  O4  1  0.76721700  0.24910200  0.42831100  1
  O  O5  1  0.18763700  0.25444600  0.08709600  1
  O  O6  1  0.87197200  0.45750200  0.67754100  1
  O  O7  1  0.72701000  0.48519700  0.17562900  1
  O  O8  1  0.22279600  0.49844500  0.32576100  1
  O  O9  1  0.28593900  0.53234500  0.80351800  1
  O  O10  1  0.67280100  0.74147000  0.42829100  1
  O  O11  1  0.80176900  0.75026800  0.91381500  1
  O  O12  1  0.20752000  0.72675300  0.58815600  1
  O  O13  1  0.26126100  0.75250500  0.07692200  1
  O  O14  1  0.21703300  0.98772900  0.32934300  1
  O  O15  1  0.25803900  0.00404700  0.82264400  1
loop_
_geom_bond_atom_site_label_1
_geom_bond_atom_site_label_2
_geom_bond_distance
_geom_bond_site_symmetry_2
Li0 O0 1.961178 1_455
Li0 O15 1.972675 1_555
Li0 O12 2.110371 1_545
Li0 O3 2.179981 1_555
Li1 O1 1.828220 1_555
Li1 O5 2.055051 1_555
Li1 O13 2.066070 1_545
Li1 O14 2.132856 1_545
Li2 O14 1.939302 1_545
Li2 O8 1.949328 1_555
Li2 O4 1.970593 1_455
Li2 O3 2.295226 1_555
Li3 O2 1.909261 1_555
Li3 O5 1.923551 1_556
Li3 O15 1.997764 1_555
Li3 O9 2.404760 1_555
Li4 O2 1.859204 1_555
Li4 O15 2.076468 1_655
Li4 O6 2.259506 1_555
Li5 O4 1.944082 1_555
Li5 O8 2.047604 1_555
Li5 O7 2.236110 1_555
Li5 O14 2.552894 1_545
Li6 O7 1.845901 1_555
Li6 O13 1.958720 1_555
Li6 O5 1.961567 1_555
Li6 O8 2.356883 1_555
Li7 O10 1.872417 1_555
Li7 O4 1.973296 1_555
Li7 O7 2.024471 1_555
Li7 O8 2.146748 1_655
Li8 O11 1.876617 1_555
Li8 O2 1.887950 1_555
Li8 O9 2.092691 1_555
Li8 O6 2.209611 1_555
Li9 O7 1.870792 1_455
Li9 O8 1.914642 1_555
Li9 O13 2.003152 1_555
Li9 O5 2.240574 1_555
Li10 O10 1.819319 1_555
Li10 O0 1.980547 1_565
Li10 O12 2.056206 1_655
Li10 O6 2.250901 1_555
Li11 O11 1.924146 1_554
Li11 O1 1.983820 1_565
Li11 O7 2.036908 1_555
Li11 O13 2.254467 1_555
Li12 O0 1.944471 1_565
Li12 O12 1.996899 1_555
Li12 O15 2.027201 1_565
Li12 O9 2.475016 1_555
Li13 O1 1.830225 1_465
Li13 O14 1.923451 1_555
Li13 O13 1.980049 1_555
Li13 O5 2.354067 1_565
Li14 O10 1.896919 1_555
Li14 O4 1.957575 1_565
Li14 O1 1.982844 1_565
Li14 O14 2.276879 1_655
Li15 O11 1.879547 1_555
Li15 O2 1.882324 1_565
Li15 O0 2.073056 1_565
Li15 O15 2.153055 1_565
Fe0 O4 1.827529 1_555
Fe0 O0 1.880093 1_555
Fe0 O3 2.013935 1_555
Fe0 O6 2.027019 1_555
Fe1 O2 1.888640 1_554
Fe1 O1 1.903311 1_555
Fe1 O7 1.918802 1_555
Fe1 O5 1.919501 1_655
Fe2 O10 1.853792 1_555
Fe2 O14 1.888415 1_555
Fe2 O8 1.893951 1_555
Fe2 O12 2.145536 1_555
Fe3 O11 1.851876 1_455
Fe3 O13 1.903833 1_556
Fe3 O15 1.925198 1_565
Fe3 O9 2.105668 1_555
O3 Si0 1.662059 1_555
O6 Si0 1.669567 1_655
O9 Si0 1.664334 1_555
O12 Si0 1.663877 1_555
