# generated using pymatgen
data_Li3VCr3O8
_symmetry_space_group_name_H-M   'P 1'
_cell_length_a   5.91803108
_cell_length_b   10.26933726
_cell_length_c   5.98706850
_cell_angle_alpha   73.20946850
_cell_angle_beta   60.37038606
_cell_angle_gamma   90.01860879
_symmetry_Int_Tables_number   1
_chemical_formula_structural   Li3VCr3O8
_chemical_formula_sum   'Li6 V2 Cr6 O16'
_cell_volume   298.28424789
_cell_formula_units_Z   2
loop_
 _symmetry_equiv_pos_site_id
 _symmetry_equiv_pos_as_xyz
  1  'x, y, z'
loop_
 _atom_site_type_symbol
 _atom_site_label
 _atom_site_symmetry_multiplicity
 _atom_site_fract_x
 _atom_site_fract_y
 _atom_site_fract_z
 _atom_site_occupancy
  Li  Li0  1  0.50041000  0.99993300  0.49958300  1
  Li  Li1  1  0.00019300  0.49991900  0.49994200  1
  Li  Li2  1  0.74982500  0.74976200  0.50036100  1
  Li  Li3  1  0.25023500  0.25078700  0.49951900  1
  Li  Li4  1  0.00000700  0.99992800  0.49959300  1
  Li  Li5  1  0.49986600  0.49992400  0.49992700  1
  V  V0  1  0.50014700  0.50118500  0.99965400  1
  V  V1  1  0.00030000  0.99980000  0.99945900  1
  Cr  Cr0  1  0.74948800  0.75044800  0.99998100  1
  Cr  Cr1  1  0.99972500  0.49852800  0.00052500  1
  Cr  Cr2  1  0.25052400  0.75045600  0.99999300  1
  Cr  Cr3  1  0.25008900  0.25063800  0.00015100  1
  Cr  Cr4  1  0.49944100  0.99854000  0.00113000  1
  Cr  Cr5  1  0.74978900  0.25062300  0.00013000  1
  O  O0  1  0.88972500  0.62933500  0.22037400  1
  O  O1  1  0.38952900  0.12875300  0.22075400  1
  O  O2  1  0.11249800  0.37066800  0.77520800  1
  O  O3  1  0.61254400  0.87100900  0.77506900  1
  O  O4  1  0.12943100  0.88284100  0.21857800  1
  O  O5  1  0.63161700  0.38434600  0.21548600  1
  O  O6  1  0.39053400  0.62587000  0.21882700  1
  O  O7  1  0.89243600  0.12598000  0.21499500  1
  O  O8  1  0.65231900  0.88297700  0.21834900  1
  O  O9  1  0.15308900  0.38448100  0.21537700  1
  O  O10  1  0.86832300  0.11650700  0.78470700  1
  O  O11  1  0.36590400  0.61549300  0.78593500  1
  O  O12  1  0.60886200  0.37528700  0.78246800  1
  O  O13  1  0.10855500  0.87424300  0.78297600  1
  O  O14  1  0.34673900  0.11638700  0.78485700  1
  O  O15  1  0.84785600  0.61535600  0.78609100  1
loop_
_geom_bond_atom_site_label_1
_geom_bond_atom_site_label_2
_geom_bond_distance
_geom_bond_site_symmetry_2
Li0 O3 2.175968 1_555
Li0 O8 2.181325 1_555
Li0 O13 2.182863 1_555
Li0 O1 2.185235 1_565
Li0 O7 2.185482 1_565
Li0 O14 2.195292 1_565
Li1 O12 2.176372 1_455
Li1 O6 2.176694 1_555
Li1 O2 2.177002 1_555
Li1 O9 2.184030 1_555
Li1 O0 2.189201 1_455
Li1 O15 2.190889 1_455
Li2 O4 2.163138 1_655
Li2 O8 2.164406 1_555
Li2 O3 2.185862 1_555
Li2 O11 2.186682 1_555
Li2 O15 2.187649 1_555
Li2 O0 2.202496 1_555
Li3 O5 2.173140 1_555
Li3 O9 2.174324 1_555
Li3 O10 2.178787 1_455
Li3 O2 2.179157 1_555
Li3 O14 2.180028 1_555
Li3 O1 2.210041 1_555
Li4 O3 2.174377 1_455
Li4 O4 2.181347 1_555
Li4 O1 2.183567 1_565
Li4 O13 2.184073 1_555
Li4 O7 2.187008 1_465
Li4 O10 2.195531 1_465
Li5 O2 2.175274 1_555
Li5 O6 2.177963 1_555
Li5 O12 2.178153 1_555
Li5 O5 2.184550 1_555
Li5 O0 2.187527 1_555
Li5 O11 2.191260 1_555
Cr0 O0 2.027835 1_556
Cr0 O3 2.029634 1_555
Cr0 O13 2.033176 1_655
Cr0 O6 2.035620 1_556
Cr0 O8 2.043857 1_556
Cr0 O15 2.047726 1_555
Cr1 O2 2.030508 1_654
Cr1 O5 2.032552 1_555
Cr1 O9 2.033417 1_655
Cr1 O0 2.033618 1_555
Cr1 O11 2.035518 1_654
Cr1 O15 2.036449 1_554
Cr2 O0 2.027711 1_456
Cr2 O3 2.029411 1_555
Cr2 O13 2.033685 1_555
Cr2 O6 2.036089 1_556
Cr2 O4 2.043450 1_556
Cr2 O11 2.047241 1_555
Cr3 O1 2.028627 1_555
Cr3 O2 2.030276 1_554
Cr3 O7 2.031800 1_455
Cr3 O12 2.035552 1_554
Cr3 O9 2.042427 1_555
Cr3 O14 2.046356 1_554
Cr4 O1 2.027534 1_565
Cr4 O3 2.030747 1_554
Cr4 O4 2.046305 1_555
Cr4 O8 2.047115 1_555
Cr4 O10 2.051026 1_564
Cr4 O14 2.051894 1_564
Cr5 O1 2.028597 1_555
Cr5 O2 2.030207 1_654
Cr5 O7 2.032015 1_555
Cr5 O12 2.035737 1_554
Cr5 O5 2.041889 1_555
Cr5 O10 2.045670 1_554
O4 V1 1.956833 1_554
O5 V0 1.952880 1_554
O6 V0 1.977823 1_554
O7 V1 1.975816 1_644
O8 V1 1.954275 1_654
O9 V0 1.950410 1_554
O10 V1 1.950084 1_645
O11 V0 1.945335 1_555
O12 V0 1.980130 1_555
O13 V1 1.974296 1_555
O14 V1 1.947491 1_545
O15 V0 1.942839 1_555
