# generated using pymatgen
data_LiFe2(BO3)2
_symmetry_space_group_name_H-M   'P 1'
_cell_length_a   5.27598900
_cell_length_b   9.04774016
_cell_length_c   10.17428047
_cell_angle_alpha   90.10737008
_cell_angle_beta   91.05752491
_cell_angle_gamma   90.40956482
_symmetry_Int_Tables_number   1
_chemical_formula_structural   LiFe2(BO3)2
_chemical_formula_sum   'Li4 Fe8 B8 O24'
_cell_volume   485.58107970
_cell_formula_units_Z   4
loop_
 _symmetry_equiv_pos_site_id
 _symmetry_equiv_pos_as_xyz
  1  'x, y, z'
loop_
 _atom_site_type_symbol
 _atom_site_label
 _atom_site_symmetry_multiplicity
 _atom_site_fract_x
 _atom_site_fract_y
 _atom_site_fract_z
 _atom_site_occupancy
  Li  Li0  1  0.18626300  0.83566400  0.84347700  1
  Li  Li1  1  0.33462400  0.67230400  0.12166800  1
  Li  Li2  1  0.65443900  0.32164900  0.33850300  1
  Li  Li3  1  0.69193600  0.33281000  0.83007800  1
  Fe  Fe0  1  0.14741800  0.15205800  0.36881700  1
  Fe  Fe1  1  0.18505000  0.50302800  0.86982700  1
  Fe  Fe2  1  0.32419600  0.01122200  0.11974400  1
  Fe  Fe3  1  0.31853000  0.33601400  0.61813100  1
  Fe  Fe4  1  0.67978900  0.66566900  0.36819200  1
  Fe  Fe5  1  0.68769100  0.00562200  0.87577800  1
  Fe  Fe6  1  0.82025000  0.84077200  0.62249800  1
  Fe  Fe7  1  0.82958100  0.49245800  0.11360000  1
  B  B0  1  0.17929000  0.49708400  0.37008500  1
  B  B1  1  0.17551200  0.16996400  0.86983400  1
  B  B2  1  0.33002600  0.00342500  0.62836500  1
  B  B3  1  0.32784400  0.33763100  0.12684300  1
  B  B4  1  0.64708500  0.00195300  0.36958200  1
  B  B5  1  0.67278400  0.66534400  0.87128700  1
  B  B6  1  0.83011700  0.50451000  0.62004100  1
  B  B7  1  0.82875300  0.83503400  0.12178500  1
  O  O0  1  0.08252800  0.49233900  0.65797100  1
  O  O1  1  0.08801400  0.84267100  0.11203900  1
  O  O2  1  0.19103000  0.20740900  0.15383900  1
  O  O3  1  0.24556000  0.13306100  0.57287400  1
  O  O4  1  0.16720000  0.88761000  0.65067600  1
  O  O5  1  0.20293500  0.46271400  0.07948800  1
  O  O6  1  0.32981100  0.61678800  0.34256000  1
  O  O7  1  0.30265100  0.04352400  0.91673800  1
  O  O8  1  0.28957800  0.36707000  0.41830000  1
  O  O9  1  0.32308400  0.28894700  0.82287900  1
  O  O10  1  0.41642500  0.67868200  0.88942000  1
  O  O11  1  0.40538700  0.99413000  0.31292900  1
  O  O12  1  0.58241200  0.99069200  0.66768900  1
  O  O13  1  0.58108600  0.34001700  0.15145200  1
  O  O14  1  0.71320400  0.70592800  0.17151600  1
  O  O15  1  0.74256200  0.63766900  0.56621400  1
  O  O16  1  0.66598600  0.39019200  0.63989600  1
  O  O17  1  0.67210800  0.94651600  0.07763700  1
  O  O18  1  0.79665300  0.53439800  0.90302900  1
  O  O19  1  0.78002100  0.12967500  0.37663600  1
  O  O20  1  0.75087200  0.87043700  0.42279600  1
  O  O21  1  0.81575700  0.78574200  0.82413600  1
  O  O22  1  0.91992300  0.17701500  0.86746400  1
  O  O23  1  0.91686200  0.49729500  0.34480900  1
loop_
_geom_bond_atom_site_label_1
_geom_bond_atom_site_label_2
_geom_bond_distance
_geom_bond_site_symmetry_2
Li0 O10 1.927858 1_555
Li0 O21 2.009172 1_455
Li0 O4 2.018856 1_555
Li0 O7 2.104969 1_565
Li1 O1 2.025598 1_555
Li1 O5 2.056702 1_555
Li1 O14 2.071872 1_555
Li1 O6 2.304340 1_555
Li1 O10 2.410592 1_554
Li2 O19 1.901563 1_555
Li2 O13 1.942714 1_555
Li2 O23 2.100359 1_555
Li2 O8 2.145091 1_555
Li3 O22 1.894165 1_555
Li3 O9 1.983330 1_555
Li3 O16 2.006834 1_555
Li3 O18 2.036710 1_555
Fe0 O19 1.950592 1_455
Fe0 O11 2.066596 1_545
Fe0 O8 2.135889 1_555
Fe0 O3 2.137969 1_555
Fe0 O2 2.260272 1_555
Fe1 O10 2.004446 1_555
Fe1 O18 2.104117 1_455
Fe1 O9 2.130691 1_555
Fe1 O5 2.165237 1_556
Fe1 O0 2.214378 1_555
Fe2 O2 1.946605 1_555
Fe2 O1 1.962986 1_545
Fe2 O17 1.984712 1_545
Fe2 O11 2.010393 1_545
Fe2 O7 2.087690 1_554
Fe3 O16 1.903053 1_555
Fe3 O3 1.926731 1_555
Fe3 O0 1.938257 1_555
Fe3 O8 2.056021 1_555
Fe3 O9 2.126763 1_555
Fe4 O6 1.908720 1_555
Fe4 O20 1.964755 1_555
Fe4 O23 1.994671 1_555
Fe4 O14 2.045176 1_555
Fe4 O15 2.052192 1_555
Fe5 O22 1.972381 1_555
Fe5 O7 2.111587 1_555
Fe5 O17 2.126132 1_546
Fe5 O21 2.172277 1_545
Fe5 O12 2.182560 1_545
Fe6 O4 1.892514 1_655
Fe6 O12 1.915520 1_555
Fe6 O15 1.961992 1_555
Fe6 O20 2.076133 1_555
Fe6 O21 2.112501 1_555
Fe7 O13 1.940176 1_555
Fe7 O5 2.026203 1_655
Fe7 O14 2.116755 1_555
Fe7 O18 2.180444 1_554
Fe7 O23 2.388938 1_555
B0 O6 1.370819 1_555
B0 O8 1.401569 1_555
B0 O23 1.403588 1_455
B1 O22 1.350221 1_455
B1 O7 1.409827 1_555
B1 O9 1.413158 1_555
B2 O4 1.372139 1_545
B2 O3 1.376132 1_555
B2 O12 1.388945 1_545
B3 O13 1.354822 1_555
B3 O5 1.395784 1_555
B3 O2 1.407495 1_555
B4 O19 1.348597 1_555
B4 O11 1.390971 1_545
B4 O20 1.417630 1_545
B5 O10 1.374571 1_555
B5 O18 1.392761 1_555
B5 O21 1.410444 1_555
B6 O16 1.361960 1_555
B6 O0 1.384850 1_655
B6 O15 1.402111 1_555
B7 O1 1.374527 1_655
B7 O17 1.379165 1_555
B7 O14 1.412652 1_555
