# generated using pymatgen
data_SbTe6H12C4N(OF5)6
_symmetry_space_group_name_H-M   'P 1'
_cell_length_a   10.40249323
_cell_length_b   10.40249323
_cell_length_c   20.30942939
_cell_angle_alpha   72.23153287
_cell_angle_beta   72.23153287
_cell_angle_gamma   61.29342386
_symmetry_Int_Tables_number   1
_chemical_formula_structural   SbTe6H12C4N(OF5)6
_chemical_formula_sum   'Sb2 Te12 H24 C8 N2 O12 F60'
_cell_volume   1802.25791485
_cell_formula_units_Z   2
loop_
 _symmetry_equiv_pos_site_id
 _symmetry_equiv_pos_as_xyz
  1  'x, y, z'
loop_
 _atom_site_type_symbol
 _atom_site_label
 _atom_site_symmetry_multiplicity
 _atom_site_fract_x
 _atom_site_fract_y
 _atom_site_fract_z
 _atom_site_occupancy
  Sb  Sb0  1  0.00000000  0.50000000  0.50000000  1
  Sb  Sb1  1  0.50000000  0.00000000  0.00000000  1
  Te  Te0  1  0.86506500  0.22341400  0.60325500  1
  Te  Te1  1  0.77658600  0.13493500  0.89674500  1
  Te  Te2  1  0.13493500  0.77658600  0.39674500  1
  Te  Te3  1  0.22341400  0.86506500  0.10325500  1
  Te  Te4  1  0.87513300  0.68248500  0.65022200  1
  Te  Te5  1  0.31751500  0.12486700  0.84977800  1
  Te  Te6  1  0.12486700  0.31751500  0.34977800  1
  Te  Te7  1  0.68248500  0.87513300  0.15022200  1
  Te  Te8  1  0.35244100  0.25592700  0.56093400  1
  Te  Te9  1  0.74407300  0.64755900  0.93906600  1
  Te  Te10  1  0.64755900  0.74407300  0.43906600  1
  Te  Te11  1  0.25592700  0.35244100  0.06093400  1
  H  H0  1  0.89983300  0.21358000  0.17502300  1
  H  H1  1  0.78642000  0.10016700  0.32497700  1
  H  H2  1  0.10016700  0.78642000  0.82497700  1
  H  H3  1  0.21358000  0.89983300  0.67502300  1
  H  H4  1  0.84542600  0.39930700  0.18616100  1
  H  H5  1  0.60069300  0.15457400  0.31383900  1
  H  H6  1  0.15457400  0.60069300  0.81383900  1
  H  H7  1  0.39930700  0.84542600  0.68616100  1
  H  H8  1  0.92562600  0.24176100  0.25219400  1
  H  H9  1  0.75823900  0.07437400  0.24780600  1
  H  H10  1  0.07437400  0.75823900  0.74780600  1
  H  H11  1  0.24176100  0.92562600  0.75219400  1
  H  H12  1  0.52580400  0.40594000  0.32955900  1
  H  H13  1  0.59406000  0.47419600  0.17044100  1
  H  H14  1  0.47419600  0.59406000  0.67044100  1
  H  H15  1  0.40594000  0.52580400  0.82955900  1
  H  H16  1  0.71090600  0.35215500  0.34108300  1
  H  H17  1  0.64784500  0.28909400  0.15891700  1
  H  H18  1  0.28909400  0.64784500  0.65891700  1
  H  H19  1  0.35215500  0.71090600  0.84108300  1
  H  H20  1  0.62997100  0.50975300  0.27542000  1
  H  H21  1  0.49024700  0.37002900  0.22458000  1
  H  H22  1  0.37002900  0.49024700  0.72458000  1
  H  H23  1  0.50975300  0.62997100  0.77542000  1
  C  C0  1  0.85409900  0.28763100  0.21303900  1
  C  C1  1  0.71236900  0.14590100  0.28696100  1
  C  C2  1  0.14590100  0.71236900  0.78696100  1
  C  C3  1  0.28763100  0.85409900  0.71303900  1
  C  C4  1  0.63723100  0.39868700  0.30297600  1
  C  C5  1  0.60131300  0.36276900  0.19702400  1
  C  C6  1  0.36276900  0.60131300  0.69702400  1
  C  C7  1  0.39868700  0.63723100  0.80297600  1
  N  N0  1  0.70114800  0.29885200  0.25000000  1
  N  N1  1  0.29885200  0.70114800  0.75000000  1
  O  O0  1  0.99706800  0.30107400  0.53887000  1
  O  O1  1  0.69892600  0.00293200  0.96113000  1
  O  O2  1  0.00293200  0.69892600  0.46113000  1
  O  O3  1  0.30107400  0.99706800  0.03887000  1
  O  O4  1  0.92602100  0.53810800  0.59827000  1
  O  O5  1  0.46189200  0.07397900  0.90173000  1
  O  O6  1  0.07397900  0.46189200  0.40173000  1
  O  O7  1  0.53810800  0.92602100  0.09827000  1
  O  O8  1  0.21041500  0.41679900  0.51072400  1
  O  O9  1  0.58320100  0.78958500  0.98927600  1
  O  O10  1  0.78958500  0.58320100  0.48927600  1
  O  O11  1  0.41679900  0.21041500  0.01072400  1
  F  F0  1  0.77308400  0.24645700  0.53161500  1
  F  F1  1  0.75354300  0.22691600  0.96838500  1
  F  F2  1  0.22691600  0.75354300  0.46838500  1
  F  F3  1  0.24645700  0.77308400  0.03161500  1
  F  F4  1  0.71002700  0.40584100  0.62537600  1
  F  F5  1  0.59415900  0.28997300  0.87462400  1
  F  F6  1  0.28997300  0.59415900  0.37462400  1
  F  F7  1  0.40584100  0.71002700  0.12537600  1
  F  F8  1  0.94330600  0.20053300  0.68028000  1
  F  F9  1  0.79946700  0.05669400  0.81972000  1
  F  F10  1  0.05669400  0.79946700  0.31972000  1
  F  F11  1  0.20053300  0.94330600  0.18028000  1
  F  F12  1  0.01263100  0.03378000  0.58704000  1
  F  F13  1  0.96622000  0.98736900  0.91296000  1
  F  F14  1  0.98736900  0.96622000  0.41296000  1
  F  F15  1  0.03378000  0.01263100  0.08704000  1
  F  F16  1  0.74883200  0.12738400  0.66518300  1
  F  F17  1  0.87261600  0.25116800  0.83481700  1
  F  F18  1  0.25116800  0.87261600  0.33481700  1
  F  F19  1  0.12738400  0.74883200  0.16518300  1
  F  F20  1  0.79728600  0.84826400  0.58033100  1
  F  F21  1  0.15173600  0.20271400  0.91966900  1
  F  F22  1  0.20271400  0.15173600  0.41966900  1
  F  F23  1  0.84826400  0.79728600  0.08033100  1
  F  F24  1  0.06183600  0.69014400  0.61953100  1
  F  F25  1  0.30985600  0.93816400  0.88046900  1
  F  F26  1  0.93816400  0.30985600  0.38046900  1
  F  F27  1  0.69014400  0.06183600  0.11953100  1
  F  F28  1  0.94571000  0.52667600  0.72510400  1
  F  F29  1  0.47332400  0.05429000  0.77489600  1
  F  F30  1  0.05429000  0.47332400  0.27489600  1
  F  F31  1  0.52667600  0.94571000  0.22510400  1
  F  F32  1  0.68260600  0.68727400  0.68496300  1
  F  F33  1  0.31272600  0.31739400  0.81503700  1
  F  F34  1  0.31739400  0.31272600  0.31503700  1
  F  F35  1  0.68727400  0.68260600  0.18496300  1
  F  F36  1  0.82319600  0.81406400  0.70948700  1
  F  F37  1  0.18593600  0.17680400  0.79051300  1
  F  F38  1  0.17680400  0.18593600  0.29051300  1
  F  F39  1  0.81406400  0.82319600  0.20948700  1
  F  F40  1  0.49831300  0.26964000  0.48099900  1
  F  F41  1  0.73036000  0.50168700  0.01900100  1
  F  F42  1  0.50168700  0.73036000  0.51900100  1
  F  F43  1  0.26964000  0.49831300  0.98099900  1
  F  F44  1  0.21460200  0.23116000  0.64294500  1
  F  F45  1  0.76884000  0.78539800  0.85705500  1
  F  F46  1  0.78539800  0.76884000  0.35705500  1
  F  F47  1  0.23116000  0.21460200  0.14294500  1
  F  F48  1  0.37062700  0.39296200  0.59603500  1
  F  F49  1  0.60703800  0.62937300  0.90396500  1
  F  F50  1  0.62937300  0.60703800  0.40396500  1
  F  F51  1  0.39296200  0.37062700  0.09603500  1
  F  F52  1  0.34067500  0.10884200  0.53088900  1
  F  F53  1  0.89115800  0.65932500  0.96911100  1
  F  F54  1  0.65932500  0.89115800  0.46911100  1
  F  F55  1  0.10884200  0.34067500  0.03088900  1
  F  F56  1  0.50451800  0.10296100  0.60789700  1
  F  F57  1  0.89703900  0.49548200  0.89210300  1
  F  F58  1  0.49548200  0.89703900  0.39210300  1
  F  F59  1  0.10296100  0.50451800  0.10789700  1
loop_
_geom_bond_atom_site_label_1
_geom_bond_atom_site_label_2
_geom_bond_distance
_geom_bond_site_symmetry_2
C0 H4 1.094538 1_555
C0 H8 1.096426 1_555
C0 H0 1.096627 1_555
C0 N0 1.501574 1_555
C1 H5 1.094538 1_555
C1 H9 1.096426 1_555
C1 H1 1.096627 1_555
C1 N0 1.501574 1_555
C2 H6 1.094538 1_555
C2 H10 1.096426 1_555
C2 H2 1.096627 1_555
C2 N1 1.501574 1_555
C3 H7 1.094538 1_555
C3 H11 1.096426 1_555
C3 H3 1.096627 1_555
C3 N1 1.501574 1_555
C4 H16 1.094369 1_555
C4 H12 1.095275 1_555
C4 H20 1.095948 1_555
C4 N0 1.503409 1_555
C5 H17 1.094369 1_555
C5 H13 1.095275 1_555
C5 H21 1.095948 1_555
C5 N0 1.503409 1_555
C6 H18 1.094369 1_555
C6 H14 1.095275 1_555
C6 H22 1.095948 1_555
C6 N1 1.503409 1_555
C7 H19 1.094369 1_555
C7 H15 1.095275 1_555
C7 H23 1.095948 1_555
C7 N1 1.503409 1_555
O0 Te0 1.890259 1_555
O0 Sb0 1.988750 1_655
O1 Te1 1.890259 1_555
O1 Sb1 1.988750 1_556
O2 Te2 1.890259 1_555
O2 Sb0 1.988750 1_555
O3 Te3 1.890259 1_555
O3 Sb1 1.988750 1_565
O4 Te4 1.873945 1_555
O4 Sb0 1.996252 1_655
O5 Te5 1.873945 1_555
O5 Sb1 1.996252 1_556
O6 Te6 1.873945 1_555
O6 Sb0 1.996252 1_555
O7 Te7 1.873945 1_555
O7 Sb1 1.996252 1_565
O8 Te8 1.877764 1_555
O8 Sb0 1.985843 1_555
O9 Te9 1.877764 1_555
O9 Sb1 1.985843 1_566
O10 Te10 1.877764 1_555
O10 Sb0 1.985843 1_655
O11 Te11 1.877764 1_555
O11 Sb1 1.985843 1_555
F0 Te0 1.872542 1_555
F1 Te1 1.872542 1_555
F2 Te2 1.872542 1_555
F3 Te3 1.872542 1_555
F4 Te0 1.882059 1_555
F5 Te1 1.882059 1_555
F6 Te2 1.882059 1_555
F7 Te3 1.882059 1_555
F8 Te0 1.878821 1_555
F9 Te1 1.878821 1_555
F10 Te2 1.878821 1_555
F11 Te3 1.878821 1_555
F12 Te0 1.880220 1_455
F13 Te1 1.880220 1_565
F14 Te2 1.880220 1_655
F15 Te3 1.880220 1_545
F16 Te0 1.872708 1_555
F17 Te1 1.872708 1_555
F18 Te2 1.872708 1_555
F19 Te3 1.872708 1_555
F20 Te4 1.873643 1_555
F21 Te5 1.873643 1_555
F22 Te6 1.873643 1_555
F23 Te7 1.873643 1_555
F24 Te4 1.883185 1_455
F25 Te5 1.883185 1_565
F26 Te6 1.883185 1_655
F27 Te7 1.883185 1_545
F28 Te4 1.874239 1_555
F29 Te5 1.874239 1_555
F30 Te6 1.874239 1_555
F31 Te7 1.874239 1_555
F32 Te4 1.890635 1_555
F33 Te5 1.890635 1_555
F34 Te6 1.890635 1_555
F35 Te7 1.890635 1_555
F36 Te4 1.874124 1_555
F37 Te5 1.874124 1_555
F38 Te6 1.874124 1_555
F39 Te7 1.874124 1_555
F40 Te8 1.876576 1_555
F41 Te9 1.876576 1_554
F42 Te10 1.876576 1_555
F43 Te11 1.876576 1_556
F44 Te8 1.879333 1_555
F45 Te9 1.879333 1_555
F46 Te10 1.879333 1_555
F47 Te11 1.879333 1_555
F48 Te8 1.880870 1_555
F49 Te9 1.880870 1_555
F50 Te10 1.880870 1_555
F51 Te11 1.880870 1_555
F52 Te8 1.877151 1_555
F53 Te9 1.877151 1_555
F54 Te10 1.877151 1_555
F55 Te11 1.877151 1_555
F56 Te8 1.876372 1_555
F57 Te9 1.876372 1_555
F58 Te10 1.876372 1_555
F59 Te11 1.876372 1_555
