# generated using pymatgen
data_Li6MnV3(PO4)6
_symmetry_space_group_name_H-M   'P 1'
_cell_length_a   8.81058000
_cell_length_b   8.59625000
_cell_length_c   12.24814261
_cell_angle_alpha   89.04604938
_cell_angle_beta   90.00000000
_cell_angle_gamma   90.00000000
_symmetry_Int_Tables_number   1
_chemical_formula_structural   Li6MnV3(PO4)6
_chemical_formula_sum   'Li12 Mn2 V6 P12 O48'
_cell_volume   927.52061857
_cell_formula_units_Z   2
loop_
 _symmetry_equiv_pos_site_id
 _symmetry_equiv_pos_as_xyz
  1  'x, y, z'
loop_
 _atom_site_type_symbol
 _atom_site_label
 _atom_site_symmetry_multiplicity
 _atom_site_fract_x
 _atom_site_fract_y
 _atom_site_fract_z
 _atom_site_occupancy
  Li  Li0  1  0.51291000  0.31273500  0.40434200  1
  Li  Li1  1  0.08575700  0.33123600  0.05882600  1
  Li  Li2  1  0.78063000  0.42756300  0.57254900  1
  Li  Li3  1  0.28063000  0.57243700  0.42745100  1
  Li  Li4  1  0.58575700  0.66876400  0.94117400  1
  Li  Li5  1  0.01291000  0.68726500  0.59565800  1
  Li  Li6  1  0.98583200  0.81366100  0.90352700  1
  Li  Li7  1  0.41319000  0.83041700  0.55746700  1
  Li  Li8  1  0.71749400  0.93211100  0.07336300  1
  Li  Li9  1  0.21749400  0.06788900  0.92663700  1
  Li  Li10  1  0.91319000  0.16958300  0.44253300  1
  Li  Li11  1  0.48583200  0.18633900  0.09647300  1
  Mn  Mn0  1  0.47471100  0.99169600  0.35425300  1
  Mn  Mn1  1  0.97471100  0.00830400  0.64574700  1
  V  V0  1  0.02597900  0.49425300  0.85435300  1
  V  V1  1  0.46392400  0.49536200  0.64107400  1
  V  V2  1  0.52597900  0.50574700  0.14564700  1
  V  V3  1  0.96392400  0.50463800  0.35892600  1
  V  V4  1  0.03548100  0.99516300  0.14350600  1
  V  V5  1  0.53548100  0.00483700  0.85649400  1
  P  P0  1  0.24660500  0.29228000  0.25977100  1
  P  P1  1  0.38274000  0.36513200  0.90024500  1
  P  P2  1  0.11235200  0.36634000  0.60476100  1
  P  P3  1  0.88274000  0.63486800  0.09975500  1
  P  P4  1  0.61235200  0.63366000  0.39523900  1
  P  P5  1  0.74660500  0.70772000  0.74022900  1
  P  P6  1  0.25216500  0.78651000  0.75840600  1
  P  P7  1  0.39028900  0.86602600  0.09993400  1
  P  P8  1  0.11683100  0.86230300  0.39852200  1
  P  P9  1  0.89028900  0.13397400  0.90006600  1
  P  P10  1  0.61683100  0.13769700  0.60147800  1
  P  P11  1  0.75216500  0.21349000  0.24159400  1
  O  O0  1  0.89421900  0.30122000  0.85540000  1
  O  O1  1  0.87389400  0.30515400  0.30429600  1
  O  O2  1  0.66587100  0.30671800  0.15183000  1
  O  O3  1  0.57324000  0.31001600  0.56728500  1
  O  O4  1  0.35622800  0.35366700  0.16875900  1
  O  O5  1  0.20685800  0.37703500  0.91630200  1
  O  O6  1  0.42180800  0.39159800  0.77947100  1
  O  O7  1  0.99834500  0.37866700  0.50476100  1
  O  O8  1  0.27022200  0.42957300  0.56537400  1
  O  O9  1  0.16950900  0.43827800  0.31163700  1
  O  O10  1  0.47124500  0.47766500  0.97392700  1
  O  O11  1  0.04761000  0.48621200  0.68784100  1
  O  O12  1  0.54761000  0.51378800  0.31215900  1
  O  O13  1  0.97124500  0.52233500  0.02607300  1
  O  O14  1  0.66950900  0.56172200  0.68836300  1
  O  O15  1  0.77022200  0.57042700  0.43462600  1
  O  O16  1  0.92180800  0.60840200  0.22052900  1
  O  O17  1  0.49834500  0.62133300  0.49523900  1
  O  O18  1  0.70685800  0.62296500  0.08369800  1
  O  O19  1  0.85622800  0.64633300  0.83124100  1
  O  O20  1  0.16587100  0.69328200  0.84817000  1
  O  O21  1  0.07324000  0.68998400  0.43271500  1
  O  O22  1  0.39421900  0.69878000  0.14460000  1
  O  O23  1  0.37389400  0.69484600  0.69570400  1
  O  O24  1  0.62880900  0.80247200  0.80501700  1
  O  O25  1  0.61894900  0.79857400  0.35144000  1
  O  O26  1  0.91996900  0.80901900  0.06494900  1
  O  O27  1  0.82869000  0.79794200  0.64890700  1
  O  O28  1  0.14416700  0.84492900  0.66732800  1
  O  O29  1  0.29108400  0.86472700  0.41651500  1
  O  O30  1  0.50365700  0.87620900  0.99885100  1
  O  O31  1  0.08168400  0.88854400  0.27428000  1
  O  O32  1  0.22895700  0.91916600  0.06194500  1
  O  O33  1  0.32685600  0.93013700  0.81402400  1
  O  O34  1  0.02774500  0.97842000  0.46636400  1
  O  O35  1  0.45349300  0.98670900  0.18058400  1
  O  O36  1  0.95349300  0.01329100  0.81941600  1
  O  O37  1  0.52774500  0.02158000  0.53363600  1
  O  O38  1  0.82685600  0.06986300  0.18597600  1
  O  O39  1  0.72895700  0.08083400  0.93805500  1
  O  O40  1  0.00365700  0.12379100  0.00114900  1
  O  O41  1  0.58168400  0.11145600  0.72572000  1
  O  O42  1  0.79108400  0.13527300  0.58348500  1
  O  O43  1  0.64416700  0.15507100  0.33267200  1
  O  O44  1  0.41996900  0.19098100  0.93505100  1
  O  O45  1  0.32869000  0.20205800  0.35109300  1
  O  O46  1  0.12880900  0.19752800  0.19498300  1
  O  O47  1  0.11894900  0.20142600  0.64856000  1
loop_
_geom_bond_atom_site_label_1
_geom_bond_atom_site_label_2
_geom_bond_distance
_geom_bond_site_symmetry_2
Li0 O43 1.996111 1_555
Li0 O45 1.996399 1_555
Li0 O3 2.065077 1_555
Li0 O12 2.071309 1_555
Li1 O13 1.963538 1_455
Li1 O46 2.045060 1_555
Li1 O40 2.060148 1_555
Li1 O5 2.077943 1_554
Li2 O15 2.073953 1_555
Li2 O14 2.086905 1_555
Li2 O3 2.089526 1_555
Li2 O7 2.134742 1_555
Li2 O42 2.515625 1_555
Li3 O8 2.073953 1_555
Li3 O9 2.086905 1_555
Li3 O21 2.089526 1_555
Li3 O17 2.134742 1_555
Li3 O29 2.515625 1_555
Li4 O10 1.963538 1_555
Li4 O24 2.045060 1_555
Li4 O30 2.060148 1_555
Li4 O18 2.077943 1_556
Li5 O28 1.996111 1_555
Li5 O27 1.996399 1_455
Li5 O21 2.065077 1_555
Li5 O11 2.071309 1_555
Li6 O36 2.007120 1_565
Li6 O20 2.017445 1_655
Li6 O19 2.049186 1_555
Li6 O26 2.060268 1_556
Li7 O37 1.946353 1_565
Li7 O29 2.051314 1_555
Li7 O23 2.068592 1_555
Li7 O17 2.102344 1_555
Li8 O38 2.070623 1_565
Li8 O26 2.077563 1_555
Li8 O39 2.078620 1_564
Li8 O30 2.151277 1_554
Li9 O33 2.070623 1_545
Li9 O44 2.077563 1_555
Li9 O32 2.078620 1_546
Li9 O40 2.151277 1_556
Li10 O34 1.946353 1_645
Li10 O42 2.051314 1_555
Li10 O1 2.068592 1_555
Li10 O7 2.102344 1_555
Li11 O35 2.007120 1_545
Li11 O2 2.017445 1_555
Li11 O4 2.049186 1_555
Li11 O44 2.060268 1_554
Mn0 O43 2.063722 1_565
Mn0 O29 2.088680 1_555
Mn0 O25 2.091433 1_555
Mn0 O35 2.136463 1_555
Mn0 O45 2.219091 1_565
Mn0 O37 2.265040 1_565
Mn1 O28 2.063722 1_645
Mn1 O42 2.088680 1_555
Mn1 O47 2.091433 1_655
Mn1 O36 2.136463 1_555
Mn1 O27 2.219091 1_545
Mn1 O34 2.265040 1_645
O0 P9 1.530114 1_555
O0 V0 2.024988 1_655
O1 P11 1.543082 1_555
O1 V3 2.013878 1_555
O2 P11 1.549113 1_555
O2 V2 2.108966 1_555
O3 P10 1.580026 1_555
O3 V1 2.081091 1_555
O4 P0 1.560240 1_555
O4 V2 2.003428 1_555
O5 P1 1.565614 1_555
O5 V0 2.026155 1_555
O6 P1 1.532070 1_555
O6 V1 1.938133 1_555
O7 P2 1.586201 1_655
O7 V3 2.095407 1_555
O8 P2 1.566568 1_555
O8 V1 2.027200 1_555
O9 P0 1.570546 1_555
O9 V3 1.988160 1_455
O10 P1 1.545110 1_555
O10 V2 2.175178 1_556
O11 P2 1.567665 1_555
O11 V0 2.050659 1_555
O12 P4 1.567665 1_555
O12 V2 2.050659 1_555
O13 P3 1.545110 1_555
O13 V0 2.175178 1_654
O14 P5 1.570546 1_555
O14 V1 1.988160 1_555
O15 P4 1.566568 1_555
O15 V3 2.027200 1_555
O16 P3 1.532070 1_555
O16 V3 1.938133 1_555
O17 P4 1.586201 1_555
O17 V1 2.095407 1_555
O18 P3 1.565614 1_555
O18 V2 2.026155 1_555
O19 P5 1.560240 1_555
O19 V0 2.003428 1_655
O20 P6 1.549113 1_555
O20 V0 2.108966 1_555
O21 P8 1.580026 1_555
O21 V3 2.081091 1_455
O22 P7 1.530114 1_555
O22 V2 2.024988 1_555
O23 P6 1.543082 1_555
O23 V1 2.013878 1_555
O24 P5 1.546538 1_555
O24 V5 2.033795 1_565
O25 P4 1.508492 1_555
O26 P3 1.584053 1_555
O26 V4 2.138520 1_655
O27 P5 1.531915 1_555
O28 P6 1.543812 1_555
O29 P8 1.551196 1_555
O30 P7 1.592033 1_556
O30 V5 2.068141 1_565
O31 P8 1.565573 1_555
O31 V4 1.876809 1_555
O32 P7 1.561586 1_555
O32 V4 2.086203 1_555
O33 P6 1.565084 1_555
O33 V5 2.018091 1_565
O34 P8 1.526594 1_555
O35 P7 1.547978 1_555
O36 P9 1.547978 1_555
O37 P10 1.526594 1_555
O38 P11 1.565084 1_555
O38 V4 2.018091 1_645
O39 P9 1.561586 1_555
O39 V5 2.086203 1_555
O40 P9 1.592033 1_454
O40 V4 2.068141 1_545
O41 P10 1.565573 1_555
O41 V5 1.876809 1_555
O42 P10 1.551196 1_555
O43 P11 1.543812 1_555
O44 P1 1.584053 1_555
O44 V5 2.138520 1_555
O45 P0 1.531915 1_555
O46 P0 1.546538 1_555
O46 V4 2.033795 1_545
O47 P2 1.508492 1_555
