# generated using pymatgen
data_Li3Fe3TeO8
_symmetry_space_group_name_H-M   'P 1'
_cell_length_a   6.08894305
_cell_length_b   6.08894305
_cell_length_c   6.10394822
_cell_angle_alpha   61.30571091
_cell_angle_beta   61.30571091
_cell_angle_gamma   60.43957337
_symmetry_Int_Tables_number   1
_chemical_formula_structural   Li3Fe3TeO8
_chemical_formula_sum   'Li3 Fe3 Te1 O8'
_cell_volume   163.66326056
_cell_formula_units_Z   1
loop_
 _symmetry_equiv_pos_site_id
 _symmetry_equiv_pos_as_xyz
  1  'x, y, z'
loop_
 _atom_site_type_symbol
 _atom_site_label
 _atom_site_symmetry_multiplicity
 _atom_site_fract_x
 _atom_site_fract_y
 _atom_site_fract_z
 _atom_site_occupancy
  Li  Li0  1  0.00000000  0.50000000  0.50000000  1
  Li  Li1  1  0.50000000  0.00000000  0.50000000  1
  Li  Li2  1  0.00000000  0.00000000  0.00000000  1
  Fe  Fe0  1  0.50000000  0.00000000  0.00000000  1
  Fe  Fe1  1  0.00000000  0.50000000  0.00000000  1
  Fe  Fe2  1  0.50000000  0.50000000  0.50000000  1
  Te  Te0  1  0.00000000  0.00000000  0.50000000  1
  O  O0  1  0.72888400  0.72888400  0.25343500  1
  O  O1  1  0.23483100  0.77191400  0.72035100  1
  O  O2  1  0.77191400  0.23483100  0.72035100  1
  O  O3  1  0.27111600  0.27111600  0.74656500  1
  O  O4  1  0.22184200  0.22184200  0.28021800  1
  O  O5  1  0.76516900  0.22808600  0.27964900  1
  O  O6  1  0.22808600  0.76516900  0.27964900  1
  O  O7  1  0.77815800  0.77815800  0.71978200  1
loop_
_geom_bond_atom_site_label_1
_geom_bond_atom_site_label_2
_geom_bond_distance
_geom_bond_site_symmetry_2
Li0 O7 2.162713 1_455
Li0 O4 2.162713 1_555
Li0 O6 2.162899 1_555
Li0 O2 2.162899 1_455
Li0 O3 2.243693 1_555
Li0 O0 2.243693 1_455
Li1 O7 2.162713 1_545
Li1 O4 2.162713 1_555
Li1 O5 2.162899 1_555
Li1 O1 2.162899 1_545
Li1 O3 2.243693 1_555
Li1 O0 2.243693 1_545
Li2 O6 2.204619 1_545
Li2 O5 2.204619 1_455
Li2 O1 2.204619 1_544
Li2 O2 2.204619 1_454
Li2 O3 2.372288 1_554
Li2 O0 2.372288 1_445
Fe0 O0 2.099645 1_545
Fe0 O3 2.099645 1_554
Fe0 O4 2.190487 1_555
Fe0 O7 2.190487 1_544
Fe0 O2 2.231077 1_554
Fe0 O6 2.231077 1_545
Fe1 O0 2.099645 1_455
Fe1 O3 2.099645 1_554
Fe1 O4 2.190487 1_555
Fe1 O7 2.190487 1_454
Fe1 O1 2.231077 1_554
Fe1 O5 2.231077 1_455
Fe2 O0 2.009422 1_555
Fe2 O3 2.009422 1_555
Fe2 O1 2.138371 1_555
Fe2 O2 2.138371 1_555
Fe2 O5 2.138371 1_555
Fe2 O6 2.138371 1_555
O1 Te0 1.968767 1_565
O2 Te0 1.968767 1_655
O4 Te0 1.941391 1_555
O5 Te0 1.968767 1_655
O6 Te0 1.968767 1_565
O7 Te0 1.941391 1_665
