# generated using pymatgen
data_Li4VCr3O8
_symmetry_space_group_name_H-M   'P 1'
_cell_length_a   5.95769412
_cell_length_b   5.95667641
_cell_length_c   8.40700325
_cell_angle_alpha   90.16155892
_cell_angle_beta   89.99042709
_cell_angle_gamma   89.97812911
_symmetry_Int_Tables_number   1
_chemical_formula_structural   Li4VCr3O8
_chemical_formula_sum   'Li8 V2 Cr6 O16'
_cell_volume   298.34699045
_cell_formula_units_Z   2
loop_
 _symmetry_equiv_pos_site_id
 _symmetry_equiv_pos_as_xyz
  1  'x, y, z'
loop_
 _atom_site_type_symbol
 _atom_site_label
 _atom_site_symmetry_multiplicity
 _atom_site_fract_x
 _atom_site_fract_y
 _atom_site_fract_z
 _atom_site_occupancy
  Li  Li0  1  0.00000000  0.00000000  0.00000000  1
  Li  Li1  1  0.00000000  0.50000000  0.50000000  1
  Li  Li2  1  0.50000000  0.00000000  0.00000000  1
  Li  Li3  1  0.49999900  0.50000000  0.50000000  1
  Li  Li4  1  0.25259200  0.25013500  0.25052100  1
  Li  Li5  1  0.25260000  0.74997800  0.74986700  1
  Li  Li6  1  0.74740800  0.74986500  0.74947900  1
  Li  Li7  1  0.74740000  0.25002200  0.25013200  1
  V  V0  1  0.00000000  0.50000100  0.00000000  1
  V  V1  1  0.00000000  0.00000100  0.50000000  1
  Cr  Cr0  1  0.50000300  0.00000300  0.50000100  1
  Cr  Cr1  1  0.50000100  0.50000000  0.00000100  1
  Cr  Cr2  1  0.25023200  0.25093100  0.75025600  1
  Cr  Cr3  1  0.25017900  0.74912500  0.24962500  1
  Cr  Cr4  1  0.74977000  0.74906400  0.24974200  1
  Cr  Cr5  1  0.74981800  0.25087600  0.75037700  1
  O  O0  1  0.99984000  0.98327200  0.25699800  1
  O  O1  1  0.99992700  0.48402300  0.75537100  1
  O  O2  1  0.00015800  0.01672800  0.74300200  1
  O  O3  1  0.00007400  0.51597700  0.24462800  1
  O  O4  1  0.49993400  0.98228600  0.25868900  1
  O  O5  1  0.49998900  0.48253600  0.75945400  1
  O  O6  1  0.50006800  0.01771500  0.74131000  1
  O  O7  1  0.50000900  0.51746400  0.24054700  1
  O  O8  1  0.25318400  0.76519000  0.49141200  1
  O  O9  1  0.25218900  0.26446000  0.99216300  1
  O  O10  1  0.25353800  0.23527100  0.50867100  1
  O  O11  1  0.25258900  0.73605100  0.00785800  1
  O  O12  1  0.74646300  0.76472800  0.49132800  1
  O  O13  1  0.74741000  0.26395000  0.99214300  1
  O  O14  1  0.74681700  0.23481200  0.50858800  1
  O  O15  1  0.74781100  0.73553900  0.00783600  1
loop_
_geom_bond_atom_site_label_1
_geom_bond_atom_site_label_2
_geom_bond_distance
_geom_bond_site_symmetry_2
Li0 O2 2.163160 1_554
Li0 O0 2.163160 1_445
Li0 O11 2.177095 1_545
Li0 O13 2.177103 1_454
Li0 O9 2.178458 1_554
Li0 O15 2.178462 1_445
Li1 O1 2.149281 1_455
Li1 O3 2.149290 1_555
Li1 O12 2.184580 1_455
Li1 O10 2.184588 1_555
Li1 O14 2.185893 1_455
Li1 O8 2.185906 1_555
Li2 O13 2.156701 1_554
Li2 O11 2.156701 1_545
Li2 O9 2.159737 1_554
Li2 O15 2.159742 1_545
Li2 O4 2.177655 1_545
Li2 O6 2.177663 1_554
Li3 O10 2.156466 1_555
Li3 O12 2.156474 1_555
Li3 O8 2.159082 1_555
Li3 O14 2.159085 1_555
Li3 O7 2.183994 1_555
Li3 O5 2.184003 1_555
Li4 O7 2.172102 1_555
Li4 O10 2.172331 1_555
Li4 O4 2.172699 1_545
Li4 O9 2.173934 1_554
Li4 O3 2.184486 1_555
Li4 O0 2.190805 1_445
Li5 O11 2.170751 1_556
Li5 O5 2.171546 1_555
Li5 O6 2.173641 1_565
Li5 O8 2.174978 1_555
Li5 O1 2.186353 1_455
Li5 O2 2.188316 1_565
Li6 O5 2.172110 1_555
Li6 O12 2.172339 1_555
Li6 O6 2.172696 1_565
Li6 O15 2.173926 1_556
Li6 O1 2.184490 1_555
Li6 O2 2.190796 1_665
Li7 O13 2.170734 1_554
Li7 O7 2.171553 1_555
Li7 O4 2.173629 1_545
Li7 O14 2.174986 1_555
Li7 O3 2.186357 1_655
Li7 O0 2.188308 1_545
Cr0 O10 2.030563 1_555
Cr0 O12 2.030571 1_545
Cr0 O14 2.030950 1_555
Cr0 O8 2.030988 1_545
Cr0 O6 2.031130 1_555
Cr0 O4 2.031157 1_545
Cr1 O7 2.024652 1_555
Cr1 O5 2.024660 1_554
Cr1 O13 2.037623 1_554
Cr1 O11 2.037639 1_555
Cr1 O15 2.038041 1_555
Cr1 O9 2.038054 1_554
Cr2 O5 2.030847 1_555
Cr2 O10 2.032976 1_555
Cr2 O9 2.035117 1_555
Cr2 O6 2.036855 1_555
Cr2 O1 2.037526 1_455
Cr2 O2 2.042248 1_555
Cr3 O7 2.030566 1_555
Cr3 O11 2.033856 1_555
Cr3 O8 2.034768 1_555
Cr3 O4 2.037107 1_555
Cr3 O3 2.037649 1_555
Cr3 O0 2.042408 1_455
Cr4 O7 2.030844 1_555
Cr4 O12 2.032985 1_555
Cr4 O15 2.035108 1_555
Cr4 O4 2.036880 1_555
Cr4 O3 2.037501 1_655
Cr4 O0 2.042251 1_555
Cr5 O5 2.030557 1_555
Cr5 O13 2.033848 1_555
Cr5 O14 2.034784 1_555
Cr5 O6 2.037087 1_555
Cr5 O1 2.037662 1_555
Cr5 O2 2.042417 1_655
O0 V1 2.045067 1_665
O1 V0 2.058530 1_656
O2 V1 2.045067 1_555
O3 V0 2.058521 1_555
O8 V1 2.057811 1_565
O9 V0 2.056235 1_556
O10 V1 2.062039 1_555
O11 V0 2.060849 1_555
O12 V1 2.062047 1_665
O13 V0 2.060857 1_656
O14 V1 2.057807 1_655
O15 V0 2.056223 1_655
