# generated using pymatgen
data_LaAgO2
_symmetry_space_group_name_H-M   'P 1'
_cell_length_a   3.81644699
_cell_length_b   3.81648303
_cell_length_c   12.28119250
_cell_angle_alpha   90.00225298
_cell_angle_beta   89.99875144
_cell_angle_gamma   120.00023712
_symmetry_Int_Tables_number   1
_chemical_formula_structural   LaAgO2
_chemical_formula_sum   'La2 Ag2 O4'
_cell_volume   154.91472580
_cell_formula_units_Z   2
loop_
 _symmetry_equiv_pos_site_id
 _symmetry_equiv_pos_as_xyz
  1  'x, y, z'
loop_
 _atom_site_type_symbol
 _atom_site_label
 _atom_site_symmetry_multiplicity
 _atom_site_fract_x
 _atom_site_fract_y
 _atom_site_fract_z
 _atom_site_occupancy
  La  La0  1  0.00000759  0.00010774  0.99999814  1
  La  La1  1  0.99999648  0.99996376  0.50000254  1
  Ag  Ag0  1  0.33331967  0.66666673  0.24999999  1
  Ag  Ag1  1  0.66667524  0.33335169  0.74999977  1
  O  O0  1  0.33333004  0.66676169  0.08416111  1
  O  O1  1  0.33332477  0.66661578  0.41583910  1
  O  O2  1  0.66666963  0.33331731  0.58416325  1
  O  O3  1  0.66667758  0.33341629  0.91583610  1
loop_
_geom_bond_atom_site_label_1
_geom_bond_atom_site_label_2
_geom_bond_distance
_geom_bond_site_symmetry_2
La0 O0 2.433762 1_556
La0 O3 2.433772 1_455
La0 O3 2.433815 1_555
La0 O0 2.433842 1_446
La0 O0 2.433867 1_546
La0 O3 2.433869 1_445
La1 O2 2.433789 1_555
La1 O1 2.433820 1_665
La1 O2 2.433822 1_665
La1 O2 2.433825 1_565
La1 O1 2.433827 1_655
La1 O1 2.433832 1_555
Ag0 O0 2.036699 1_555
Ag0 O1 2.036702 1_555
Ag1 O3 2.036668 1_555
Ag1 O2 2.036670 1_555
