# generated using pymatgen
data_Li3Mn4(BO3)4
_symmetry_space_group_name_H-M   'P 1'
_cell_length_a   5.26504400
_cell_length_b   5.89123678
_cell_length_c   8.25708769
_cell_angle_alpha   101.90117969
_cell_angle_beta   90.91191783
_cell_angle_gamma   90.15578476
_symmetry_Int_Tables_number   1
_chemical_formula_structural   Li3Mn4(BO3)4
_chemical_formula_sum   'Li3 Mn4 B4 O12'
_cell_volume   250.57349694
_cell_formula_units_Z   1
loop_
 _symmetry_equiv_pos_site_id
 _symmetry_equiv_pos_as_xyz
  1  'x, y, z'
loop_
 _atom_site_type_symbol
 _atom_site_label
 _atom_site_symmetry_multiplicity
 _atom_site_fract_x
 _atom_site_fract_y
 _atom_site_fract_z
 _atom_site_occupancy
  Li  Li0  1  0.83864500  0.56152200  0.22536700  1
  Li  Li1  1  0.15451500  0.46088400  0.77059700  1
  Li  Li2  1  0.33993800  0.04160500  0.72083300  1
  Mn  Mn0  1  0.81082400  0.82882400  0.57462800  1
  Mn  Mn1  1  0.67733800  0.69078400  0.92937700  1
  Mn  Mn2  1  0.32935900  0.32093600  0.07823300  1
  Mn  Mn3  1  0.17844100  0.16172600  0.40887200  1
  B  B0  1  0.17580400  0.83203700  0.08764200  1
  B  B1  1  0.32465600  0.65558600  0.40803700  1
  B  B2  1  0.67411100  0.33730900  0.60168900  1
  B  B3  1  0.83027000  0.17236500  0.90361600  1
  O  O0  1  0.92160200  0.81800100  0.11625500  1
  O  O1  1  0.68108600  0.98604900  0.81675200  1
  O  O2  1  0.20462700  0.83570500  0.51705100  1
  O  O3  1  0.58318500  0.65000500  0.39074500  1
  O  O4  1  0.17308400  0.48003200  0.31180100  1
  O  O5  1  0.70816800  0.35393800  0.00886500  1
  O  O6  1  0.29685000  0.65418400  0.97640500  1
  O  O7  1  0.81116100  0.53718100  0.68332000  1
  O  O8  1  0.41597500  0.31861500  0.61838400  1
  O  O9  1  0.81944800  0.15324400  0.51823600  1
  O  O10  1  0.31634100  0.01857400  0.17501400  1
  O  O11  1  0.08594000  0.17974300  0.87564300  1
loop_
_geom_bond_atom_site_label_1
_geom_bond_atom_site_label_2
_geom_bond_distance
_geom_bond_site_symmetry_2
Li0 O3 1.927216 1_555
Li0 O0 1.963655 1_555
Li0 O4 1.986526 1_655
Li0 O5 2.053754 1_555
Li1 O8 1.950387 1_555
Li1 O6 1.975585 1_555
Li1 O7 2.021380 1_455
Li1 O11 2.055520 1_555
Li2 O11 1.927680 1_555
Li2 O2 1.981295 1_545
Li2 O1 2.006345 1_545
Li2 O8 2.028714 1_555
Mn0 O3 2.031527 1_555
Mn0 O9 2.058871 1_565
Mn0 O7 2.096051 1_555
Mn0 O2 2.136699 1_655
Mn0 O1 2.145840 1_555
Mn1 O0 2.012788 1_556
Mn1 O6 2.065764 1_555
Mn1 O1 2.135081 1_555
Mn1 O7 2.175754 1_555
Mn1 O5 2.220516 1_556
Mn2 O10 2.098684 1_555
Mn2 O5 2.103301 1_555
Mn2 O11 2.117725 1_554
Mn2 O4 2.141049 1_555
Mn2 O6 2.295353 1_554
Mn3 O10 2.084076 1_555
Mn3 O9 2.112561 1_455
Mn3 O8 2.162513 1_555
Mn3 O4 2.186129 1_555
Mn3 O2 2.282757 1_545
B0 O0 1.368010 1_455
B0 O10 1.388244 1_565
B0 O6 1.404622 1_554
B1 O3 1.370670 1_555
B1 O2 1.401215 1_555
B1 O4 1.405094 1_555
B2 O8 1.374660 1_555
B2 O9 1.396186 1_555
B2 O7 1.419166 1_555
B3 O11 1.371488 1_655
B3 O5 1.396737 1_556
B3 O1 1.410267 1_545
