# generated using pymatgen
data_Rb5FeO4
_symmetry_space_group_name_H-M   'P 1'
_cell_length_a   10.97063200
_cell_length_b   7.62264800
_cell_length_c   13.66228064
_cell_angle_alpha   58.45670719
_cell_angle_beta   90.00000000
_cell_angle_gamma   90.00000000
_symmetry_Int_Tables_number   1
_chemical_formula_structural   Rb5FeO4
_chemical_formula_sum   'Rb20 Fe4 O16'
_cell_volume   973.70015156
_cell_formula_units_Z   4
loop_
 _symmetry_equiv_pos_site_id
 _symmetry_equiv_pos_as_xyz
  1  'x, y, z'
loop_
 _atom_site_type_symbol
 _atom_site_label
 _atom_site_symmetry_multiplicity
 _atom_site_fract_x
 _atom_site_fract_y
 _atom_site_fract_z
 _atom_site_occupancy
  Rb  Rb0  1  0.33626900  0.63627400  0.26225800  1
  Rb  Rb1  1  0.35317300  0.90082000  0.88603000  1
  Rb  Rb2  1  0.60115700  0.25271500  0.44460000  1
  Rb  Rb3  1  0.09203100  0.35458300  0.44577300  1
  Rb  Rb4  1  0.33819000  0.15357000  0.60660000  1
  Rb  Rb5  1  0.59203100  0.64541700  0.05422700  1
  Rb  Rb6  1  0.10115700  0.74728500  0.05540000  1
  Rb  Rb7  1  0.83819000  0.84643000  0.89340000  1
  Rb  Rb8  1  0.85317300  0.09918000  0.61397000  1
  Rb  Rb9  1  0.83626900  0.36372600  0.23774200  1
  Rb  Rb10  1  0.16373100  0.63627400  0.76225800  1
  Rb  Rb11  1  0.14682700  0.90082000  0.38603000  1
  Rb  Rb12  1  0.16181000  0.15357000  0.10660000  1
  Rb  Rb13  1  0.89884300  0.25271500  0.94460000  1
  Rb  Rb14  1  0.40796900  0.35458300  0.94577300  1
  Rb  Rb15  1  0.66181000  0.84643000  0.39340000  1
  Rb  Rb16  1  0.90796900  0.64541700  0.55422700  1
  Rb  Rb17  1  0.39884300  0.74728500  0.55540000  1
  Rb  Rb18  1  0.64682700  0.09918000  0.11397000  1
  Rb  Rb19  1  0.66373100  0.36372600  0.73774200  1
  Fe  Fe0  1  0.08910600  0.23852200  0.73985700  1
  Fe  Fe1  1  0.41089400  0.23852200  0.23985700  1
  Fe  Fe2  1  0.58910600  0.76147800  0.76014300  1
  Fe  Fe3  1  0.91089400  0.76147800  0.26014300  1
  O  O0  1  0.08570900  0.73263300  0.25235500  1
  O  O1  1  0.15725700  0.18200500  0.88699400  1
  O  O2  1  0.84407900  0.50312100  0.39223700  1
  O  O3  1  0.11080300  0.02657300  0.70700100  1
  O  O4  1  0.34407900  0.49687900  0.10776300  1
  O  O5  1  0.61080300  0.97342700  0.79299900  1
  O  O6  1  0.58570900  0.26736700  0.24764500  1
  O  O7  1  0.65725700  0.81799500  0.61300600  1
  O  O8  1  0.34274300  0.18200500  0.38699400  1
  O  O9  1  0.41429100  0.73263300  0.75235500  1
  O  O10  1  0.38919700  0.02657300  0.20700100  1
  O  O11  1  0.65592100  0.50312100  0.89223700  1
  O  O12  1  0.88919700  0.97342700  0.29299900  1
  O  O13  1  0.15592100  0.49687900  0.60776300  1
  O  O14  1  0.84274300  0.81799500  0.11300600  1
  O  O15  1  0.91429100  0.26736700  0.74764500  1
loop_
_geom_bond_atom_site_label_1
_geom_bond_atom_site_label_2
_geom_bond_distance
_geom_bond_site_symmetry_2
Fe0 O3 1.904510 1_555
Fe0 O15 1.939644 1_455
Fe0 O1 1.969643 1_555
Fe0 O13 1.988473 1_555
Fe1 O10 1.904510 1_555
Fe1 O6 1.939644 1_555
Fe1 O8 1.969643 1_555
Fe1 O4 1.988473 1_555
Fe2 O5 1.904510 1_555
Fe2 O9 1.939644 1_555
Fe2 O7 1.969643 1_555
Fe2 O11 1.988473 1_555
Fe3 O12 1.904510 1_555
Fe3 O0 1.939644 1_655
Fe3 O14 1.969643 1_555
Fe3 O2 1.988473 1_555
O0 Rb6 2.639593 1_555
O0 Rb3 2.706411 1_555
O0 Rb11 2.806834 1_555
O0 Rb0 2.830149 1_555
O0 Rb12 2.876223 1_565
O1 Rb12 2.893263 1_556
O1 Rb6 2.945523 1_546
O1 Rb10 2.953902 1_555
O1 Rb1 3.040288 1_545
O1 Rb13 3.064441 1_455
O1 Rb14 3.323528 1_555
O2 Rb9 2.817493 1_555
O2 Rb3 2.889623 1_655
O2 Rb8 2.984702 1_555
O2 Rb16 3.012888 1_555
O2 Rb2 3.135074 1_555
O2 Rb15 3.300072 1_555
O3 Rb10 2.721838 1_545
O3 Rb4 2.766276 1_555
O3 Rb8 3.028880 1_455
O3 Rb3 3.113670 1_555
O3 Rb1 3.393876 1_545
O4 Rb0 2.817493 1_555
O4 Rb5 2.889623 1_555
O4 Rb1 2.984702 1_554
O4 Rb14 3.012888 1_554
O4 Rb6 3.135074 1_555
O4 Rb12 3.300072 1_555
O5 Rb19 2.721838 1_565
O5 Rb7 2.766276 1_555
O5 Rb1 3.028880 1_555
O5 Rb5 3.113670 1_556
O5 Rb8 3.393876 1_565
O6 Rb2 2.639593 1_555
O6 Rb5 2.706411 1_555
O6 Rb18 2.806834 1_555
O6 Rb9 2.830149 1_555
O6 Rb15 2.876223 1_545
O7 Rb15 2.893263 1_555
O7 Rb2 2.945523 1_565
O7 Rb19 2.953902 1_555
O7 Rb8 3.040288 1_565
O7 Rb17 3.064441 1_555
O7 Rb16 3.323528 1_555
O8 Rb4 2.893263 1_555
O8 Rb17 2.945523 1_545
O8 Rb0 2.953902 1_555
O8 Rb11 3.040288 1_545
O8 Rb2 3.064441 1_555
O8 Rb3 3.323528 1_555
O9 Rb17 2.639593 1_555
O9 Rb14 2.706411 1_555
O9 Rb1 2.806834 1_555
O9 Rb10 2.830149 1_555
O9 Rb4 2.876223 1_565
O10 Rb0 2.721838 1_545
O10 Rb12 2.766276 1_555
O10 Rb18 3.028880 1_555
O10 Rb14 3.113670 1_554
O10 Rb11 3.393876 1_545
O11 Rb19 2.817493 1_555
O11 Rb14 2.889623 1_555
O11 Rb18 2.984702 1_556
O11 Rb5 3.012888 1_556
O11 Rb13 3.135074 1_555
O11 Rb7 3.300072 1_555
O12 Rb9 2.721838 1_565
O12 Rb15 2.766276 1_555
O12 Rb11 3.028880 1_655
O12 Rb16 3.113670 1_555
O12 Rb18 3.393876 1_565
O13 Rb10 2.817493 1_555
O13 Rb16 2.889623 1_455
O13 Rb11 2.984702 1_555
O13 Rb3 3.012888 1_555
O13 Rb17 3.135074 1_555
O13 Rb4 3.300072 1_555
O14 Rb7 2.893263 1_554
O14 Rb13 2.945523 1_564
O14 Rb9 2.953902 1_555
O14 Rb18 3.040288 1_565
O14 Rb6 3.064441 1_655
O14 Rb5 3.323528 1_555
O15 Rb13 2.639593 1_555
O15 Rb16 2.706411 1_555
O15 Rb8 2.806834 1_555
O15 Rb19 2.830149 1_555
O15 Rb7 2.876223 1_545
