# generated using pymatgen
data_Li2Cr2P2O9
_symmetry_space_group_name_H-M   'P 1'
_cell_length_a   5.59482200
_cell_length_b   8.38666100
_cell_length_c   14.38112000
_cell_angle_alpha   90.00000000
_cell_angle_beta   90.00000000
_cell_angle_gamma   90.00000000
_symmetry_Int_Tables_number   1
_chemical_formula_structural   Li2Cr2P2O9
_chemical_formula_sum   'Li8 Cr8 P8 O36'
_cell_volume   674.78912175
_cell_formula_units_Z   4
loop_
 _symmetry_equiv_pos_site_id
 _symmetry_equiv_pos_as_xyz
  1  'x, y, z'
loop_
 _atom_site_type_symbol
 _atom_site_label
 _atom_site_symmetry_multiplicity
 _atom_site_fract_x
 _atom_site_fract_y
 _atom_site_fract_z
 _atom_site_occupancy
  Li  Li0  1  0.25000000  0.52855200  0.74227300  1
  Li  Li1  1  0.25000000  0.51718300  0.12599100  1
  Li  Li2  1  0.75000000  0.98281700  0.62599100  1
  Li  Li3  1  0.75000000  0.97144800  0.24227300  1
  Li  Li4  1  0.25000000  0.02855200  0.75772700  1
  Li  Li5  1  0.25000000  0.01718300  0.37400900  1
  Li  Li6  1  0.75000000  0.48281700  0.87400900  1
  Li  Li7  1  0.75000000  0.47144800  0.25772700  1
  Cr  Cr0  1  0.00000000  0.50000000  0.50000000  1
  Cr  Cr1  1  0.50000000  0.50000000  0.50000000  1
  Cr  Cr2  1  0.25000000  0.71046500  0.93602900  1
  Cr  Cr3  1  0.75000000  0.78953500  0.43602900  1
  Cr  Cr4  1  0.00000000  0.00000000  0.00000000  1
  Cr  Cr5  1  0.50000000  0.00000000  0.00000000  1
  Cr  Cr6  1  0.25000000  0.21046500  0.56397100  1
  Cr  Cr7  1  0.75000000  0.28953500  0.06397100  1
  P  P0  1  0.75000000  0.67079400  0.06884800  1
  P  P1  1  0.25000000  0.70474500  0.32939600  1
  P  P2  1  0.75000000  0.79525500  0.82939600  1
  P  P3  1  0.25000000  0.82920600  0.56884800  1
  P  P4  1  0.75000000  0.17079400  0.43115200  1
  P  P5  1  0.25000000  0.20474500  0.17060400  1
  P  P6  1  0.75000000  0.29525500  0.67060400  1
  P  P7  1  0.25000000  0.32920600  0.93115200  1
  O  O0  1  0.25000000  0.48826600  0.98556200  1
  O  O1  1  0.25000000  0.56343500  0.40541100  1
  O  O2  1  0.75000000  0.56005200  0.41256000  1
  O  O3  1  0.25000000  0.62977700  0.23587000  1
  O  O4  1  0.75000000  0.65026400  0.17225400  1
  O  O5  1  0.52700900  0.68351400  0.84714900  1
  O  O6  1  0.97299100  0.68351400  0.84714900  1
  O  O7  1  0.01645800  0.73459300  0.53647600  1
  O  O8  1  0.48354200  0.73459300  0.53647600  1
  O  O9  1  0.51645800  0.76540700  0.03647600  1
  O  O10  1  0.98354200  0.76540700  0.03647600  1
  O  O11  1  0.02700900  0.81648600  0.34714900  1
  O  O12  1  0.47299100  0.81648600  0.34714900  1
  O  O13  1  0.25000000  0.84973600  0.67225400  1
  O  O14  1  0.75000000  0.87022300  0.73587000  1
  O  O15  1  0.25000000  0.93994800  0.91256000  1
  O  O16  1  0.75000000  0.93656500  0.90541100  1
  O  O17  1  0.75000000  0.01173400  0.48556200  1
  O  O18  1  0.25000000  0.98826600  0.51443800  1
  O  O19  1  0.25000000  0.06343500  0.09458900  1
  O  O20  1  0.75000000  0.06005200  0.08744000  1
  O  O21  1  0.25000000  0.12977700  0.26413000  1
  O  O22  1  0.75000000  0.15026400  0.32774600  1
  O  O23  1  0.52700900  0.18351400  0.65285100  1
  O  O24  1  0.97299100  0.18351400  0.65285100  1
  O  O25  1  0.01645800  0.23459300  0.96352400  1
  O  O26  1  0.48354200  0.23459300  0.96352400  1
  O  O27  1  0.51645800  0.26540700  0.46352400  1
  O  O28  1  0.98354200  0.26540700  0.46352400  1
  O  O29  1  0.02700900  0.31648600  0.15285100  1
  O  O30  1  0.47299100  0.31648600  0.15285100  1
  O  O31  1  0.25000000  0.34973600  0.82774600  1
  O  O32  1  0.75000000  0.37022300  0.76413000  1
  O  O33  1  0.25000000  0.43994800  0.58744000  1
  O  O34  1  0.75000000  0.43656500  0.59458900  1
  O  O35  1  0.75000000  0.51173400  0.01443800  1
loop_
_geom_bond_atom_site_label_1
_geom_bond_atom_site_label_2
_geom_bond_distance
_geom_bond_site_symmetry_2
Li0 O31 1.939055 1_555
Li0 O33 2.347393 1_555
Li0 O6 2.523033 1_455
Li0 O5 2.523033 1_555
Li1 O3 1.840831 1_555
Li1 O0 2.034036 1_554
Li1 O30 2.130444 1_555
Li1 O29 2.130444 1_555
Li2 O14 1.840831 1_555
Li2 O17 2.034036 1_565
Li2 O23 2.130444 1_565
Li2 O24 2.130444 1_565
Li3 O22 1.939055 1_565
Li3 O20 2.347393 1_565
Li3 O12 2.523033 1_555
Li3 O11 2.523033 1_655
Li4 O13 1.939055 1_545
Li4 O15 2.347393 1_545
Li4 O23 2.523033 1_555
Li4 O24 2.523033 1_455
Li5 O21 1.840831 1_555
Li5 O18 2.034036 1_545
Li5 O12 2.130444 1_545
Li5 O11 2.130444 1_545
Li6 O32 1.840831 1_555
Li6 O35 2.034036 1_556
Li6 O5 2.130444 1_555
Li6 O6 2.130444 1_555
Li7 O4 1.939055 1_555
Li7 O2 2.347393 1_555
Li7 O30 2.523033 1_555
Li7 O29 2.523033 1_655
Cr0 O33 1.947125 1_555
Cr0 O2 1.947125 1_455
Cr0 O1 2.022329 1_555
Cr0 O34 2.022329 1_455
Cr0 O7 2.038263 1_555
Cr0 O28 2.038263 1_455
Cr1 O33 1.947125 1_555
Cr1 O2 1.947125 1_555
Cr1 O1 2.022329 1_555
Cr1 O34 2.022329 1_555
Cr1 O8 2.038263 1_555
Cr1 O27 2.038263 1_555
Cr2 O15 1.953966 1_555
Cr2 O0 1.995016 1_555
Cr2 O5 2.021583 1_555
Cr2 O6 2.021583 1_455
Cr2 O10 2.126371 1_456
Cr2 O9 2.126371 1_556
Cr3 O2 1.953966 1_555
Cr3 O17 1.995016 1_565
Cr3 O11 2.021583 1_655
Cr3 O12 2.021583 1_555
Cr3 O8 2.126371 1_555
Cr3 O7 2.126371 1_655
Cr4 O15 1.947125 1_544
Cr4 O20 1.947125 1_455
Cr4 O19 2.022329 1_555
Cr4 O16 2.022329 1_444
Cr4 O25 2.038263 1_554
Cr4 O10 2.038263 1_445
Cr5 O15 1.947125 1_544
Cr5 O20 1.947125 1_555
Cr5 O19 2.022329 1_555
Cr5 O16 2.022329 1_544
Cr5 O26 2.038263 1_554
Cr5 O9 2.038263 1_545
Cr6 O33 1.953966 1_555
Cr6 O18 1.995016 1_545
Cr6 O24 2.021583 1_455
Cr6 O23 2.021583 1_555
Cr6 O27 2.126371 1_555
Cr6 O28 2.126371 1_455
Cr7 O20 1.953966 1_555
Cr7 O35 1.995016 1_555
Cr7 O30 2.021583 1_555
Cr7 O29 2.021583 1_655
Cr7 O26 2.126371 1_554
Cr7 O25 2.126371 1_654
O0 P7 1.546538 1_555
O1 P1 1.612312 1_555
O3 P1 1.484706 1_555
O4 P0 1.497028 1_555
O5 P2 1.581106 1_555
O6 P2 1.581106 1_555
O7 P3 1.598007 1_555
O8 P3 1.598007 1_555
O9 P0 1.598007 1_555
O10 P0 1.598007 1_555
O11 P1 1.581106 1_555
O12 P1 1.581106 1_555
O13 P3 1.497028 1_555
O14 P2 1.484706 1_555
O16 P2 1.612312 1_555
O17 P4 1.546538 1_555
O18 P3 1.546538 1_555
O19 P5 1.612312 1_555
O21 P5 1.484706 1_555
O22 P4 1.497028 1_555
O23 P6 1.581106 1_555
O24 P6 1.581106 1_555
O25 P7 1.598007 1_555
O26 P7 1.598007 1_555
O27 P4 1.598007 1_555
O28 P4 1.598007 1_555
O29 P5 1.581106 1_555
O30 P5 1.581106 1_555
O31 P7 1.497028 1_555
O32 P6 1.484706 1_555
O34 P6 1.612312 1_555
O35 P0 1.546538 1_555
