# generated using pymatgen
data_LiCoPO4
_symmetry_space_group_name_H-M   'P 1'
_cell_length_a   4.54832761
_cell_length_b   5.16860866
_cell_length_c   14.85956240
_cell_angle_alpha   94.92115909
_cell_angle_beta   93.81129762
_cell_angle_gamma   74.86495942
_symmetry_Int_Tables_number   1
_chemical_formula_structural   LiCoPO4
_chemical_formula_sum   'Li4 Co4 P4 O16'
_cell_volume   335.61336005
_cell_formula_units_Z   4
loop_
 _symmetry_equiv_pos_site_id
 _symmetry_equiv_pos_as_xyz
  1  'x, y, z'
loop_
 _atom_site_type_symbol
 _atom_site_label
 _atom_site_symmetry_multiplicity
 _atom_site_fract_x
 _atom_site_fract_y
 _atom_site_fract_z
 _atom_site_occupancy
  Li  Li0  1  0.74107300  0.28106600  0.00474000  1
  Li  Li1  1  0.24100700  0.28108800  0.50470800  1
  Li  Li2  1  0.75897700  0.71895700  0.49529900  1
  Li  Li3  1  0.25894100  0.71886300  0.99524700  1
  Co  Co0  1  0.63397800  0.23164200  0.69985000  1
  Co  Co1  1  0.36601100  0.76837400  0.30014500  1
  Co  Co2  1  0.13395400  0.23141800  0.19992100  1
  Co  Co3  1  0.86603400  0.76858200  0.80006500  1
  P  P0  1  0.71956800  0.19290200  0.37027600  1
  P  P1  1  0.21963700  0.19295400  0.87026800  1
  P  P2  1  0.78033800  0.80702700  0.12972900  1
  P  P3  1  0.28045100  0.80712900  0.62973000  1
  O  O0  1  0.45926200  0.38343500  0.31498600  1
  O  O1  1  0.95928900  0.38367300  0.81506600  1
  O  O2  1  0.04066500  0.61634100  0.18494900  1
  O  O3  1  0.54074600  0.61658400  0.68502200  1
  O  O4  1  0.50603700  0.91812300  0.19248600  1
  O  O5  1  0.00622500  0.91831000  0.69248800  1
  O  O6  1  0.99384400  0.08179500  0.30752800  1
  O  O7  1  0.49390900  0.08185500  0.80750100  1
  O  O8  1  0.68272300  0.66138000  0.04360700  1
  O  O9  1  0.18295000  0.66122700  0.54363600  1
  O  O10  1  0.81700200  0.33877400  0.45639000  1
  O  O11  1  0.31732000  0.33855400  0.95638900  1
  O  O12  1  0.59960400  0.95315900  0.39644000  1
  O  O13  1  0.09965300  0.95314400  0.89635700  1
  O  O14  1  0.90030800  0.04684300  0.10363900  1
  O  O15  1  0.40049300  0.04680000  0.60354000  1
loop_
_geom_bond_atom_site_label_1
_geom_bond_atom_site_label_2
_geom_bond_distance
_geom_bond_site_symmetry_2
Li0 O8 1.954770 1_555
Li0 O14 1.963598 1_555
Li0 O11 1.967924 1_554
Li0 O13 2.561996 1_644
Li1 O9 1.954257 1_555
Li1 O15 1.963202 1_555
Li1 O10 1.968745 1_455
Li1 O12 2.561002 1_545
Li2 O10 1.954426 1_555
Li2 O12 1.963173 1_555
Li2 O9 1.968683 1_655
Li2 O15 2.560299 1_565
Li3 O11 1.954703 1_555
Li3 O13 1.963708 1_555
Li3 O8 1.968088 1_556
Li3 O14 2.562332 1_466
Co0 O3 1.951706 1_555
Co0 O5 2.015865 1_645
Co0 O7 2.041966 1_555
Co0 O15 2.044947 1_555
Co0 O1 2.403631 1_555
Co1 O0 1.951722 1_555
Co1 O6 2.015914 1_465
Co1 O4 2.041871 1_555
Co1 O12 2.044940 1_555
Co1 O2 2.403548 1_555
Co2 O2 1.951995 1_555
Co2 O4 2.015326 1_545
Co2 O6 2.041058 1_455
Co2 O14 2.044374 1_455
Co2 O0 2.402148 1_555
Co3 O1 1.952014 1_555
Co3 O7 2.015382 1_565
Co3 O5 2.041142 1_655
Co3 O13 2.044357 1_655
Co3 O3 2.401837 1_555
O0 P0 1.564360 1_555
O1 P1 1.564234 1_655
O2 P2 1.564241 1_455
O3 P3 1.564377 1_555
O4 P2 1.563519 1_555
O5 P3 1.563323 1_555
O6 P0 1.563358 1_555
O7 P1 1.563515 1_555
O8 P2 1.528153 1_555
O9 P3 1.528297 1_555
O10 P0 1.528339 1_555
O11 P1 1.528133 1_555
O12 P0 1.564690 1_565
O13 P1 1.564677 1_565
O14 P2 1.564673 1_545
O15 P3 1.564687 1_545
