# generated using pymatgen
data_Li3FePCO7
_symmetry_space_group_name_H-M   'P 1'
_cell_length_a   6.44038000
_cell_length_b   9.47964000
_cell_length_c   9.78306237
_cell_angle_alpha   64.02052567
_cell_angle_beta   90.00000000
_cell_angle_gamma   90.00000000
_symmetry_Int_Tables_number   1
_chemical_formula_structural   Li3FePCO7
_chemical_formula_sum   'Li12 Fe4 P4 C4 O28'
_cell_volume   536.92570302
_cell_formula_units_Z   4
loop_
 _symmetry_equiv_pos_site_id
 _symmetry_equiv_pos_as_xyz
  1  'x, y, z'
loop_
 _atom_site_type_symbol
 _atom_site_label
 _atom_site_symmetry_multiplicity
 _atom_site_fract_x
 _atom_site_fract_y
 _atom_site_fract_z
 _atom_site_occupancy
  Li  Li0  1  0.24867800  0.10109200  0.56424500  1
  Li  Li1  1  0.25132200  0.10109200  0.06424500  1
  Li  Li2  1  0.48659400  0.28434900  0.74015000  1
  Li  Li3  1  0.01340600  0.28434900  0.24015000  1
  Li  Li4  1  0.74579400  0.35138800  0.93353300  1
  Li  Li5  1  0.75420600  0.35138800  0.43353300  1
  Li  Li6  1  0.24579400  0.64861200  0.56646700  1
  Li  Li7  1  0.25420600  0.64861200  0.06646700  1
  Li  Li8  1  0.98659400  0.71565100  0.75985000  1
  Li  Li9  1  0.51340600  0.71565100  0.25985000  1
  Li  Li10  1  0.74867800  0.89890800  0.93575500  1
  Li  Li11  1  0.75132200  0.89890800  0.43575500  1
  Fe  Fe0  1  0.99973800  0.26744300  0.73762600  1
  Fe  Fe1  1  0.50026200  0.26744300  0.23762600  1
  Fe  Fe2  1  0.49973800  0.73255700  0.76237400  1
  Fe  Fe3  1  0.00026200  0.73255700  0.26237400  1
  P  P0  1  0.25085000  0.40856100  0.93568500  1
  P  P1  1  0.24915000  0.40856100  0.43568500  1
  P  P2  1  0.75085000  0.59143900  0.56431500  1
  P  P3  1  0.74915000  0.59143900  0.06431500  1
  C  C0  1  0.75313200  0.04075000  0.62848400  1
  C  C1  1  0.74686800  0.04075000  0.12848400  1
  C  C2  1  0.25313200  0.95925000  0.87151600  1
  C  C3  1  0.24686800  0.95925000  0.37151600  1
  O  O0  1  0.75751200  0.07120800  0.98785400  1
  O  O1  1  0.74248800  0.07120800  0.48785400  1
  O  O2  1  0.24693000  0.10585800  0.76509000  1
  O  O3  1  0.76814000  0.15180100  0.67219300  1
  O  O4  1  0.25307000  0.10585800  0.26509000  1
  O  O5  1  0.73186000  0.15180100  0.17219300  1
  O  O6  1  0.05857200  0.31205600  0.92615300  1
  O  O7  1  0.44040800  0.30890000  0.93472000  1
  O  O8  1  0.05959200  0.30890000  0.43472000  1
  O  O9  1  0.44142800  0.31205600  0.42615300  1
  O  O10  1  0.74723200  0.42368600  0.69701000  1
  O  O11  1  0.25150300  0.42155400  0.58952400  1
  O  O12  1  0.75276800  0.42368600  0.19701000  1
  O  O13  1  0.24849700  0.42155400  0.08952400  1
  O  O14  1  0.75150300  0.57844600  0.91047600  1
  O  O15  1  0.24723200  0.57631400  0.80299000  1
  O  O16  1  0.74849700  0.57844600  0.41047600  1
  O  O17  1  0.25276800  0.57631400  0.30299000  1
  O  O18  1  0.94040800  0.69110000  0.56528000  1
  O  O19  1  0.55857200  0.68794400  0.57384700  1
  O  O20  1  0.94142800  0.68794400  0.07384700  1
  O  O21  1  0.55959200  0.69110000  0.06528000  1
  O  O22  1  0.26814000  0.84819900  0.82780700  1
  O  O23  1  0.74693000  0.89414200  0.73491000  1
  O  O24  1  0.23186000  0.84819900  0.32780700  1
  O  O25  1  0.75307000  0.89414200  0.23491000  1
  O  O26  1  0.25751200  0.92879200  0.51214600  1
  O  O27  1  0.24248800  0.92879200  0.01214600  1
loop_
_geom_bond_atom_site_label_1
_geom_bond_atom_site_label_2
_geom_bond_distance
_geom_bond_site_symmetry_2
Li0 O26 1.913157 1_545
Li0 O2 1.985118 1_555
Li0 O8 2.186876 1_555
Li0 O9 2.235754 1_555
Li1 O27 1.913157 1_545
Li1 O4 1.985118 1_555
Li1 O7 2.186876 1_554
Li1 O6 2.235754 1_554
Li2 O7 2.038146 1_555
Li2 O10 2.062071 1_555
Li2 O11 2.115756 1_555
Li2 O2 2.223351 1_555
Li2 O3 2.457761 1_555
Li3 O8 2.038146 1_555
Li3 O12 2.062071 1_455
Li3 O13 2.115756 1_555
Li3 O4 2.223351 1_555
Li3 O5 2.457761 1_455
Li4 O7 2.006632 1_555
Li4 O6 2.055641 1_655
Li4 O14 2.063932 1_555
Li4 O10 2.105861 1_555
Li4 O5 2.273542 1_556
Li4 O0 2.471010 1_555
Li5 O8 2.006632 1_655
Li5 O9 2.055641 1_555
Li5 O16 2.063932 1_555
Li5 O12 2.105861 1_555
Li5 O3 2.273542 1_555
Li5 O1 2.471010 1_555
Li6 O18 2.006632 1_455
Li6 O19 2.055641 1_555
Li6 O11 2.063932 1_555
Li6 O15 2.105861 1_555
Li6 O24 2.273542 1_555
Li6 O26 2.471010 1_555
Li7 O21 2.006632 1_555
Li7 O20 2.055641 1_455
Li7 O13 2.063932 1_555
Li7 O17 2.105861 1_555
Li7 O22 2.273542 1_554
Li7 O27 2.471010 1_555
Li8 O18 2.038146 1_555
Li8 O15 2.062071 1_655
Li8 O14 2.115756 1_555
Li8 O23 2.223351 1_555
Li8 O22 2.457761 1_655
Li9 O21 2.038146 1_555
Li9 O17 2.062071 1_555
Li9 O16 2.115756 1_555
Li9 O25 2.223351 1_555
Li9 O24 2.457761 1_555
Li10 O0 1.913157 1_565
Li10 O23 1.985118 1_555
Li10 O21 2.186876 1_556
Li10 O20 2.235754 1_556
Li11 O1 1.913157 1_565
Li11 O25 1.985118 1_555
Li11 O18 2.186876 1_555
Li11 O19 2.235754 1_555
Fe0 O6 2.099406 1_655
Fe0 O3 2.109770 1_555
Fe0 O10 2.116757 1_555
Fe0 O2 2.142996 1_655
Fe0 O11 2.237914 1_655
Fe1 O9 2.099406 1_555
Fe1 O5 2.109770 1_555
Fe1 O12 2.116757 1_555
Fe1 O4 2.142996 1_555
Fe1 O13 2.237914 1_555
Fe2 O19 2.099406 1_555
Fe2 O22 2.109770 1_555
Fe2 O15 2.116757 1_555
Fe2 O23 2.142996 1_555
Fe2 O14 2.237914 1_555
Fe3 O20 2.099406 1_455
Fe3 O24 2.109770 1_555
Fe3 O17 2.116757 1_555
Fe3 O25 2.142996 1_455
Fe3 O16 2.237914 1_455
C0 O1 1.277831 1_555
C0 O3 1.301843 1_555
C0 O23 1.322660 1_545
C1 O0 1.277831 1_554
C1 O5 1.301843 1_555
C1 O25 1.322660 1_545
C2 O27 1.277831 1_556
C2 O22 1.301843 1_555
C2 O2 1.322660 1_565
C3 O26 1.277831 1_555
C3 O24 1.301843 1_555
C3 O4 1.322660 1_565
O6 P0 1.566477 1_555
O7 P0 1.546244 1_555
O8 P1 1.546244 1_555
O9 P1 1.566477 1_555
O10 P2 1.551135 1_555
O11 P1 1.562971 1_555
O12 P3 1.551135 1_555
O13 P0 1.562971 1_554
O14 P3 1.562971 1_556
O15 P0 1.551135 1_555
O16 P2 1.562971 1_555
O17 P1 1.551135 1_555
O18 P2 1.546244 1_555
O19 P2 1.566477 1_555
O20 P3 1.566477 1_555
O21 P3 1.546244 1_555
