# generated using pymatgen
data_Li4Mn3O8
_symmetry_space_group_name_H-M   'P 1'
_cell_length_a   8.32473411
_cell_length_b   8.32473411
_cell_length_c   8.32473465
_cell_angle_alpha   90.42736928
_cell_angle_beta   90.42736928
_cell_angle_gamma   90.42737776
_symmetry_Int_Tables_number   1
_chemical_formula_structural   Li4Mn3O8
_chemical_formula_sum   'Li16 Mn12 O32'
_cell_volume   576.86569620
_cell_formula_units_Z   4
loop_
 _symmetry_equiv_pos_site_id
 _symmetry_equiv_pos_as_xyz
  1  'x, y, z'
loop_
 _atom_site_type_symbol
 _atom_site_label
 _atom_site_symmetry_multiplicity
 _atom_site_fract_x
 _atom_site_fract_y
 _atom_site_fract_z
 _atom_site_occupancy
  Li  Li0  1  0.80434400  0.01143000  0.76937400  1
  Li  Li1  1  0.98857000  0.19565600  0.23062600  1
  Li  Li2  1  0.72392600  0.00000000  0.27607400  1
  Li  Li3  1  0.85619800  0.38780100  0.38877800  1
  Li  Li4  1  0.61219900  0.14380200  0.61122200  1
  Li  Li5  1  0.50000000  0.50000000  0.50000000  1
  Li  Li6  1  0.38780100  0.38877800  0.85619800  1
  Li  Li7  1  0.61122200  0.61219900  0.14380200  1
  Li  Li8  1  0.19565600  0.23062600  0.98857000  1
  Li  Li9  1  0.76937400  0.80434400  0.01143000  1
  Li  Li10  1  0.27607400  0.72392600  0.00000000  1
  Li  Li11  1  0.00000000  0.27607400  0.72392600  1
  Li  Li12  1  0.38877800  0.85619800  0.38780100  1
  Li  Li13  1  0.14380200  0.61122200  0.61219900  1
  Li  Li14  1  0.01143000  0.76937400  0.80434400  1
  Li  Li15  1  0.23062600  0.98857000  0.19565600  1
  Mn  Mn0  1  0.99361100  0.50000000  0.00638900  1
  Mn  Mn1  1  0.50000000  0.00638900  0.99361100  1
  Mn  Mn2  1  0.74208100  0.25791800  0.00000000  1
  Mn  Mn3  1  0.25791900  0.00000000  0.74208200  1
  Mn  Mn4  1  0.74998600  0.50640100  0.75472200  1
  Mn  Mn5  1  0.49359900  0.25001400  0.24527800  1
  Mn  Mn6  1  0.25001400  0.24527800  0.49359900  1
  Mn  Mn7  1  0.75472200  0.74998600  0.50640100  1
  Mn  Mn8  1  0.24527800  0.49359900  0.25001400  1
  Mn  Mn9  1  0.50640100  0.75472200  0.74998600  1
  Mn  Mn10  1  0.00000000  0.74208100  0.25791900  1
  Mn  Mn11  1  0.00638900  0.99361100  0.50000000  1
  O  O0  1  0.97021400  0.27019800  0.00769900  1
  O  O1  1  0.72980200  0.02978600  0.99230100  1
  O  O2  1  0.00753300  0.50605000  0.24271900  1
  O  O3  1  0.49395000  0.99246700  0.75728100  1
  O  O4  1  0.98355600  0.51734000  0.77842600  1
  O  O5  1  0.48266000  0.01644400  0.22157400  1
  O  O6  1  0.72436900  0.25112900  0.23285400  1
  O  O7  1  0.74887100  0.27563100  0.76714600  1
  O  O8  1  0.99230100  0.72980200  0.02978600  1
  O  O9  1  0.27019800  0.00769900  0.97021400  1
  O  O10  1  0.75218200  0.52255000  0.53074900  1
  O  O11  1  0.47745000  0.24781800  0.46925100  1
  O  O12  1  0.50605000  0.24271900  0.00753300  1
  O  O13  1  0.75728100  0.49395000  0.99246700  1
  O  O14  1  0.25112900  0.23285400  0.72436900  1
  O  O15  1  0.76714600  0.74887100  0.27563100  1
  O  O16  1  0.74727900  0.74727900  0.74727900  1
  O  O17  1  0.25272100  0.25272100  0.25272100  1
  O  O18  1  0.46925100  0.47745000  0.24781800  1
  O  O19  1  0.52255000  0.53074900  0.75218200  1
  O  O20  1  0.77842600  0.98355600  0.51734000  1
  O  O21  1  0.01644400  0.22157400  0.48266000  1
  O  O22  1  0.53074900  0.75218200  0.52255000  1
  O  O23  1  0.24781800  0.46925100  0.47745000  1
  O  O24  1  0.22157400  0.48266000  0.01644400  1
  O  O25  1  0.51734000  0.77842600  0.98355600  1
  O  O26  1  0.23285400  0.72436900  0.25112900  1
  O  O27  1  0.27563100  0.76714600  0.74887100  1
  O  O28  1  0.99246700  0.75728100  0.49395000  1
  O  O29  1  0.24271900  0.00753300  0.50605000  1
  O  O30  1  0.02978600  0.99230100  0.72980200  1
  O  O31  1  0.00769900  0.97021400  0.27019800  1
loop_
_geom_bond_atom_site_label_1
_geom_bond_atom_site_label_2
_geom_bond_distance
_geom_bond_site_symmetry_2
Li0 O30 1.915450 1_645
Li0 O1 1.966421 1_555
Li0 O20 2.118425 1_545
Li0 O7 2.250913 1_555
Li0 O16 2.252138 1_545
Li1 O31 1.915450 1_645
Li1 O0 1.966421 1_555
Li1 O21 2.118425 1_655
Li1 O6 2.250913 1_555
Li1 O17 2.252138 1_655
Li2 O5 2.061550 1_555
Li2 O20 2.061550 1_545
Li2 O6 2.123941 1_555
Li2 O15 2.123941 1_545
Li2 O31 2.377979 1_645
Li2 O1 2.377979 1_554
Li3 O10 1.847948 1_555
Li3 O2 2.014152 1_655
Li3 O6 2.030230 1_555
Li3 O21 2.081679 1_655
Li4 O11 1.847948 1_555
Li4 O3 2.014152 1_545
Li4 O7 2.030230 1_555
Li4 O20 2.081679 1_545
Li5 O22 2.119767 1_555
Li5 O23 2.119767 1_555
Li5 O10 2.119767 1_555
Li5 O11 2.119767 1_555
Li5 O19 2.119768 1_555
Li5 O18 2.119768 1_555
Li6 O19 1.847948 1_555
Li6 O12 2.014152 1_556
Li6 O14 2.030230 1_555
Li6 O24 2.081679 1_556
Li7 O18 1.847948 1_555
Li7 O13 2.014152 1_554
Li7 O15 2.030230 1_555
Li7 O25 2.081679 1_554
Li8 O0 1.915450 1_456
Li8 O9 1.966421 1_555
Li8 O24 2.118425 1_556
Li8 O14 2.250913 1_555
Li8 O17 2.252139 1_556
Li9 O1 1.915450 1_564
Li9 O8 1.966421 1_555
Li9 O25 2.118425 1_554
Li9 O15 2.250913 1_555
Li9 O16 2.252139 1_554
Li10 O24 2.061550 1_555
Li10 O25 2.061550 1_554
Li10 O26 2.123941 1_555
Li10 O27 2.123941 1_554
Li10 O8 2.377979 1_455
Li10 O9 2.377979 1_564
Li11 O4 2.061550 1_455
Li11 O21 2.061550 1_555
Li11 O7 2.123941 1_455
Li11 O14 2.123941 1_555
Li11 O30 2.377979 1_545
Li11 O0 2.377979 1_456
Li12 O22 1.847948 1_555
Li12 O29 2.014152 1_565
Li12 O26 2.030230 1_555
Li12 O5 2.081679 1_565
Li13 O23 1.847948 1_555
Li13 O28 2.014152 1_455
Li13 O27 2.030230 1_555
Li13 O4 2.081679 1_455
Li14 O8 1.915450 1_456
Li14 O30 1.966421 1_555
Li14 O4 2.118425 1_455
Li14 O27 2.250913 1_555
Li14 O16 2.252138 1_455
Li15 O9 1.915450 1_564
Li15 O31 1.966421 1_555
Li15 O5 2.118425 1_565
Li15 O26 2.250913 1_555
Li15 O17 2.252138 1_565
Mn0 O24 1.905551 1_655
Mn0 O4 1.905551 1_554
Mn0 O0 1.921605 1_555
Mn0 O8 1.921605 1_555
Mn0 O13 1.970179 1_554
Mn0 O2 1.970179 1_655
Mn1 O25 1.905551 1_545
Mn1 O5 1.905551 1_556
Mn1 O1 1.921605 1_555
Mn1 O9 1.921605 1_555
Mn1 O12 1.970179 1_556
Mn1 O3 1.970179 1_545
Mn2 O1 1.901703 1_554
Mn2 O0 1.901711 1_555
Mn2 O6 1.946353 1_555
Mn2 O7 1.946354 1_554
Mn2 O12 1.969518 1_555
Mn2 O13 1.969527 1_554
Mn3 O9 1.901703 1_555
Mn3 O30 1.901711 1_545
Mn3 O27 1.946353 1_545
Mn3 O14 1.946353 1_555
Mn3 O3 1.969519 1_545
Mn3 O29 1.969527 1_555
Mn4 O10 1.870571 1_555
Mn4 O19 1.905643 1_555
Mn4 O7 1.924608 1_555
Mn4 O4 1.954308 1_555
Mn4 O13 1.983150 1_555
Mn4 O16 2.006954 1_555
Mn5 O11 1.870571 1_555
Mn5 O18 1.905643 1_555
Mn5 O6 1.924608 1_555
Mn5 O5 1.954308 1_555
Mn5 O12 1.983150 1_555
Mn5 O17 2.006954 1_555
Mn6 O23 1.870571 1_555
Mn6 O11 1.905643 1_555
Mn6 O14 1.924608 1_555
Mn6 O21 1.954308 1_555
Mn6 O29 1.983150 1_555
Mn6 O17 2.006954 1_555
Mn7 O22 1.870571 1_555
Mn7 O10 1.905643 1_555
Mn7 O15 1.924608 1_555
Mn7 O20 1.954308 1_555
Mn7 O28 1.983150 1_555
Mn7 O16 2.006954 1_555
Mn8 O18 1.870571 1_555
Mn8 O23 1.905643 1_555
Mn8 O26 1.924608 1_555
Mn8 O24 1.954309 1_555
Mn8 O2 1.983150 1_555
Mn8 O17 2.006954 1_555
Mn9 O19 1.870571 1_555
Mn9 O22 1.905643 1_555
Mn9 O27 1.924608 1_555
Mn9 O25 1.954309 1_555
Mn9 O3 1.983150 1_555
Mn9 O16 2.006954 1_555
Mn10 O31 1.901711 1_555
Mn10 O8 1.901711 1_455
Mn10 O15 1.946353 1_455
Mn10 O26 1.946353 1_555
Mn10 O2 1.969519 1_555
Mn10 O28 1.969519 1_455
Mn11 O21 1.905551 1_565
Mn11 O20 1.905551 1_455
Mn11 O30 1.921605 1_555
Mn11 O31 1.921605 1_555
Mn11 O29 1.970179 1_565
Mn11 O28 1.970179 1_455
