# generated using pymatgen
data_Sr3Li4Nb6O20
_symmetry_space_group_name_H-M   'P 1'
_cell_length_a   5.66539100
_cell_length_b   5.66543492
_cell_length_c   13.58513594
_cell_angle_alpha   90.07991250
_cell_angle_beta   101.93497108
_cell_angle_gamma   90.07550531
_symmetry_Int_Tables_number   1
_chemical_formula_structural   Sr3Li4Nb6O20
_chemical_formula_sum   'Sr3 Li4 Nb6 O20'
_cell_volume   426.61389589
_cell_formula_units_Z   1
loop_
 _symmetry_equiv_pos_site_id
 _symmetry_equiv_pos_as_xyz
  1  'x, y, z'
loop_
 _atom_site_type_symbol
 _atom_site_label
 _atom_site_symmetry_multiplicity
 _atom_site_fract_x
 _atom_site_fract_y
 _atom_site_fract_z
 _atom_site_occupancy
  Sr  Sr0  1  0.57704900  0.00077800  0.15564200  1
  Sr  Sr1  1  0.41291500  0.00195500  0.83047600  1
  Sr  Sr2  1  0.07903900  0.49901900  0.15597500  1
  Li  Li0  1  0.50122900  0.75057600  0.50398700  1
  Li  Li1  1  0.00288000  0.75043300  0.50443600  1
  Li  Li2  1  0.50163000  0.24926300  0.50440200  1
  Li  Li3  1  0.00250700  0.24943300  0.50397800  1
  Nb  Nb0  1  0.84128400  0.00044100  0.68428300  1
  Nb  Nb1  1  0.50129900  0.49745900  0.99371700  1
  Nb  Nb2  1  0.65661500  0.50064600  0.31427900  1
  Nb  Nb3  1  0.99931900  0.99551100  0.99366700  1
  Nb  Nb4  1  0.15638400  0.00053200  0.31407400  1
  Nb  Nb5  1  0.34154800  0.50067600  0.68430100  1
  O  O0  1  0.92744700  0.99712800  0.85107600  1
  O  O1  1  0.78188400  0.72281300  0.00880600  1
  O  O2  1  0.89938500  0.74975100  0.29807400  1
  O  O3  1  0.77116000  0.99971400  0.54167700  1
  O  O4  1  0.28445300  0.76688100  0.00599600  1
  O  O5  1  0.90068300  0.24993100  0.29829000  1
  O  O6  1  0.57875600  0.49638200  0.15262100  1
  O  O7  1  0.72881400  0.49987800  0.45700400  1
  O  O8  1  0.59150200  0.75700200  0.69743100  1
  O  O9  1  0.39926600  0.74847500  0.29826900  1
  O  O10  1  0.08027000  0.99795100  0.15262300  1
  O  O11  1  0.22863500  0.99972000  0.45683200  1
  O  O12  1  0.73652400  0.21890400  0.00601600  1
  O  O13  1  0.25420300  0.24969400  0.00728800  1
  O  O14  1  0.40015900  0.24922800  0.29848300  1
  O  O15  1  0.10530000  0.75625900  0.69703600  1
  O  O16  1  0.42835400  0.49806700  0.85109200  1
  O  O17  1  0.59194400  0.24289600  0.69699400  1
  O  O18  1  0.27104100  0.49961500  0.54169000  1
  O  O19  1  0.10569400  0.24288900  0.69762700  1
loop_
_geom_bond_atom_site_label_1
_geom_bond_atom_site_label_2
_geom_bond_distance
_geom_bond_site_symmetry_2
Li0 O18 2.063487 1_555
Li0 O3 2.064344 1_555
Li0 O11 2.094478 1_555
Li0 O7 2.104709 1_555
Li0 O8 2.571550 1_555
Li1 O3 2.061918 1_455
Li1 O18 2.067153 1_555
Li1 O11 2.094894 1_555
Li1 O7 2.102113 1_455
Li1 O15 2.560391 1_555
Li2 O18 2.061926 1_555
Li2 O3 2.067570 1_545
Li2 O11 2.094448 1_545
Li2 O7 2.104204 1_555
Li2 O17 2.560314 1_555
Li3 O18 2.062982 1_555
Li3 O3 2.063125 1_445
Li3 O11 2.096315 1_545
Li3 O7 2.103285 1_455
Li3 O19 2.574529 1_555
Nb0 O3 1.895443 1_545
Nb0 O17 2.004355 1_555
Nb0 O8 2.009153 1_545
Nb0 O19 2.011242 1_655
Nb0 O15 2.019907 1_645
Nb0 O0 2.217121 1_545
Nb1 O16 1.895746 1_555
Nb1 O4 1.988957 1_556
Nb1 O1 2.014474 1_556
Nb1 O13 2.016519 1_556
Nb1 O12 2.051474 1_556
Nb1 O6 2.112100 1_556
Nb2 O7 1.897054 1_555
Nb2 O9 2.004867 1_555
Nb2 O14 2.012627 1_555
Nb2 O2 2.013175 1_555
Nb2 O5 2.026143 1_555
Nb2 O6 2.148806 1_555
Nb3 O0 1.895293 1_555
Nb3 O12 1.988529 1_566
Nb3 O1 2.011790 1_556
Nb3 O13 2.019022 1_666
Nb3 O4 2.051717 1_656
Nb3 O10 2.112814 1_656
Nb4 O11 1.897494 1_545
Nb4 O5 2.004683 1_455
Nb4 O2 2.012113 1_445
Nb4 O14 2.013489 1_555
Nb4 O9 2.026149 1_545
Nb4 O10 2.146062 1_545
Nb5 O18 1.895509 1_555
Nb5 O15 2.004545 1_555
Nb5 O8 2.008827 1_555
Nb5 O19 2.011679 1_555
Nb5 O17 2.019900 1_555
Nb5 O16 2.217093 1_555
O0 Sr1 2.821658 1_665
O0 Sr1 2.870411 1_565
O1 Sr2 2.656979 1_655
O1 Sr0 2.959618 1_565
O1 Sr1 3.265672 1_564
O2 Sr2 2.754844 1_655
O2 Sr0 2.766685 1_565
O4 Sr0 2.688797 1_565
O4 Sr1 2.951793 1_564
O4 Sr2 2.965351 1_555
O5 Sr2 2.749956 1_655
O5 Sr0 2.761459 1_555
O6 Sr0 2.808203 1_555
O6 Sr2 2.825247 1_655
O6 Sr2 2.840923 1_555
O6 Sr0 2.857918 1_565
O8 Sr1 2.639970 1_565
O9 Sr2 2.749660 1_555
O9 Sr0 2.760997 1_565
O10 Sr0 2.806277 1_565
O10 Sr2 2.827120 1_555
O10 Sr2 2.839111 1_565
O10 Sr0 2.859772 1_465
O12 Sr0 2.690524 1_555
O12 Sr1 2.955756 1_554
O12 Sr2 2.963446 1_655
O13 Sr2 2.808024 1_555
O13 Sr0 2.808216 1_555
O13 Sr1 3.071702 1_554
O14 Sr0 2.748018 1_555
O14 Sr2 2.760110 1_555
O15 Sr1 2.634565 1_565
O16 Sr1 2.823667 1_555
O16 Sr1 2.868521 1_565
O17 Sr1 2.635214 1_555
O19 Sr1 2.619876 1_555
