# generated using pymatgen
data_Mn2Sn(PO4)3
_symmetry_space_group_name_H-M   'P 1'
_cell_length_a   8.59937638
_cell_length_b   8.59937638
_cell_length_c   8.59937696
_cell_angle_alpha   61.66962123
_cell_angle_beta   61.66962123
_cell_angle_gamma   61.66961725
_symmetry_Int_Tables_number   1
_chemical_formula_structural   Mn2Sn(PO4)3
_chemical_formula_sum   'Mn4 Sn2 P6 O24'
_cell_volume   466.49429876
_cell_formula_units_Z   2
loop_
 _symmetry_equiv_pos_site_id
 _symmetry_equiv_pos_as_xyz
  1  'x, y, z'
loop_
 _atom_site_type_symbol
 _atom_site_label
 _atom_site_symmetry_multiplicity
 _atom_site_fract_x
 _atom_site_fract_y
 _atom_site_fract_z
 _atom_site_occupancy
  Mn  Mn0  1  0.15124200  0.15124200  0.15124200  1
  Mn  Mn1  1  0.34875800  0.34875800  0.34875800  1
  Mn  Mn2  1  0.65124200  0.65124200  0.65124200  1
  Mn  Mn3  1  0.84875800  0.84875800  0.84875800  1
  Sn  Sn0  1  0.00000000  0.00000000  0.00000000  1
  Sn  Sn1  1  0.50000000  0.50000000  0.50000000  1
  P  P0  1  0.75000000  0.05232700  0.44767300  1
  P  P1  1  0.05232700  0.44767300  0.75000000  1
  P  P2  1  0.44767300  0.75000000  0.05232700  1
  P  P3  1  0.55232700  0.25000000  0.94767300  1
  P  P4  1  0.94767300  0.55232700  0.25000000  1
  P  P5  1  0.25000000  0.94767300  0.55232700  1
  O  O0  1  0.32251800  0.09539500  0.51483600  1
  O  O1  1  0.51483600  0.32251800  0.09539500  1
  O  O2  1  0.90198400  0.07072900  0.24518900  1
  O  O3  1  0.09539500  0.51483600  0.32251800  1
  O  O4  1  0.82251800  0.01483600  0.59539500  1
  O  O5  1  0.59801600  0.25481100  0.42927100  1
  O  O6  1  0.07072900  0.24518900  0.90198400  1
  O  O7  1  0.25481100  0.42927100  0.59801600  1
  O  O8  1  0.40460500  0.17748200  0.98516400  1
  O  O9  1  0.42927100  0.59801600  0.25481100  1
  O  O10  1  0.75481100  0.09801600  0.92927100  1
  O  O11  1  0.98516400  0.40460500  0.17748200  1
  O  O12  1  0.01483600  0.59539500  0.82251800  1
  O  O13  1  0.24518900  0.90198400  0.07072900  1
  O  O14  1  0.57072900  0.40198400  0.74518900  1
  O  O15  1  0.59539500  0.82251800  0.01483600  1
  O  O16  1  0.74518900  0.57072900  0.40198400  1
  O  O17  1  0.92927100  0.75481100  0.09801600  1
  O  O18  1  0.40198400  0.74518900  0.57072900  1
  O  O19  1  0.17748200  0.98516400  0.40460500  1
  O  O20  1  0.90460500  0.48516400  0.67748200  1
  O  O21  1  0.09801600  0.92927100  0.75481100  1
  O  O22  1  0.48516400  0.67748200  0.90460500  1
  O  O23  1  0.67748200  0.90460500  0.48516400  1
loop_
_geom_bond_atom_site_label_1
_geom_bond_atom_site_label_2
_geom_bond_distance
_geom_bond_site_symmetry_2
Mn0 O11 2.011232 1_455
Mn0 O8 2.011232 1_554
Mn0 O19 2.011232 1_545
Mn0 O13 2.227235 1_545
Mn0 O2 2.227235 1_455
Mn0 O6 2.227235 1_554
Mn1 O3 2.011232 1_555
Mn1 O0 2.011232 1_555
Mn1 O1 2.011232 1_555
Mn1 O5 2.227235 1_555
Mn1 O9 2.227235 1_555
Mn1 O7 2.227235 1_555
Mn2 O20 2.011232 1_555
Mn2 O23 2.011232 1_555
Mn2 O22 2.011232 1_555
Mn2 O18 2.227235 1_555
Mn2 O14 2.227235 1_555
Mn2 O16 2.227235 1_555
Mn3 O12 2.011232 1_655
Mn3 O15 2.011232 1_556
Mn3 O4 2.011232 1_565
Mn3 O10 2.227235 1_565
Mn3 O21 2.227235 1_655
Mn3 O17 2.227235 1_556
O0 P5 1.509595 1_545
O1 P3 1.509595 1_554
O2 P0 1.593725 1_555
O2 Sn0 2.137730 1_655
O3 P4 1.509595 1_455
O4 P0 1.509595 1_555
O5 P0 1.593725 1_555
O5 Sn1 2.137730 1_555
O6 P1 1.593725 1_555
O6 Sn0 2.137730 1_556
O7 P1 1.593725 1_555
O7 Sn1 2.137730 1_555
O8 P3 1.509595 1_555
O9 P2 1.593725 1_555
O9 Sn1 2.137730 1_555
O10 P3 1.593725 1_555
O10 Sn0 2.137730 1_656
O11 P4 1.509595 1_555
O12 P1 1.509595 1_555
O13 P2 1.593725 1_555
O13 Sn0 2.137730 1_565
O14 P3 1.593725 1_555
O14 Sn1 2.137730 1_555
O15 P2 1.509595 1_555
O16 P4 1.593725 1_555
O16 Sn1 2.137730 1_555
O17 P4 1.593725 1_555
O17 Sn0 2.137730 1_665
O18 P5 1.593725 1_555
O18 Sn1 2.137730 1_555
O19 P5 1.509595 1_555
O20 P1 1.509595 1_655
O21 P5 1.593725 1_555
O21 Sn0 2.137730 1_566
O22 P2 1.509595 1_556
O23 P0 1.509595 1_565
