# generated using pymatgen
data_FeOF
_symmetry_space_group_name_H-M   'P 1'
_cell_length_a   3.09524200
_cell_length_b   14.28154800
_cell_length_c   14.39864219
_cell_angle_alpha   89.65821234
_cell_angle_beta   90.00000000
_cell_angle_gamma   90.00000000
_symmetry_Int_Tables_number   1
_chemical_formula_structural   FeOF
_chemical_formula_sum   'Fe18 O18 F18'
_cell_volume   636.47845298
_cell_formula_units_Z   18
loop_
 _symmetry_equiv_pos_site_id
 _symmetry_equiv_pos_as_xyz
  1  'x, y, z'
loop_
 _atom_site_type_symbol
 _atom_site_label
 _atom_site_symmetry_multiplicity
 _atom_site_fract_x
 _atom_site_fract_y
 _atom_site_fract_z
 _atom_site_occupancy
  Fe  Fe0  1  0.00000000  0.98599500  0.00065200  1
  Fe  Fe1  1  0.00000000  0.99420700  0.33770900  1
  Fe  Fe2  1  0.00000000  0.98694500  0.66515300  1
  Fe  Fe3  1  0.50000000  0.82651000  0.14527800  1
  Fe  Fe4  1  0.50000000  0.84586900  0.49897700  1
  Fe  Fe5  1  0.50000000  0.84719900  0.83279000  1
  Fe  Fe6  1  0.00000000  0.65904800  0.00449800  1
  Fe  Fe7  1  0.00000000  0.65407000  0.33115600  1
  Fe  Fe8  1  0.00000000  0.65167300  0.66802300  1
  Fe  Fe9  1  0.50000000  0.51456600  0.49951400  1
  Fe  Fe10  1  0.50000000  0.51335300  0.16586500  1
  Fe  Fe11  1  0.50000000  0.51816300  0.83848700  1
  Fe  Fe12  1  0.00000000  0.32152000  0.99771300  1
  Fe  Fe13  1  0.00000000  0.32017300  0.33108100  1
  Fe  Fe14  1  0.00000000  0.32311100  0.66850800  1
  Fe  Fe15  1  0.50000000  0.18089400  0.16420400  1
  Fe  Fe16  1  0.50000000  0.18549600  0.50288500  1
  Fe  Fe17  1  0.50000000  0.18010200  0.83344300  1
  O  O0  1  0.50000000  0.93545700  0.59924000  1
  O  O1  1  0.50000000  0.93552900  0.93639700  1
  O  O2  1  0.00000000  0.89974100  0.10570200  1
  O  O3  1  0.00000000  0.89999000  0.43177500  1
  O  O4  1  0.00000000  0.89938000  0.76764500  1
  O  O5  1  0.50000000  0.72793700  0.06142300  1
  O  O6  1  0.50000000  0.60281700  0.26961000  1
  O  O7  1  0.50000000  0.60256500  0.60236600  1
  O  O8  1  0.50000000  0.60309700  0.93675700  1
  O  O9  1  0.00000000  0.55949400  0.10301300  1
  O  O10  1  0.00000000  0.56476400  0.43559300  1
  O  O11  1  0.00000000  0.56461500  0.77000900  1
  O  O12  1  0.50000000  0.26592200  0.26945600  1
  O  O13  1  0.50000000  0.27137900  0.60474100  1
  O  O14  1  0.50000000  0.26797800  0.93587300  1
  O  O15  1  0.00000000  0.23091500  0.10209200  1
  O  O16  1  0.00000000  0.23056000  0.43549100  1
  O  O17  1  0.00000000  0.23101900  0.76915500  1
  F  F0  1  0.50000000  0.93750500  0.26989700  1
  F  F1  1  0.00000000  0.77025000  0.23515700  1
  F  F2  1  0.00000000  0.77033600  0.56289500  1
  F  F3  1  0.00000000  0.77015700  0.89331000  1
  F  F4  1  0.50000000  0.73199000  0.72917600  1
  F  F5  1  0.50000000  0.73339400  0.39998500  1
  F  F6  1  0.00000000  0.43246700  0.23495200  1
  F  F7  1  0.00000000  0.43511400  0.56566400  1
  F  F8  1  0.00000000  0.43399900  0.90047500  1
  F  F9  1  0.50000000  0.39532200  0.06506800  1
  F  F10  1  0.50000000  0.39642900  0.39814000  1
  F  F11  1  0.50000000  0.39791000  0.73149600  1
  F  F12  1  0.00000000  0.09629100  0.23497400  1
  F  F13  1  0.00000000  0.10192200  0.56476400  1
  F  F14  1  0.00000000  0.10120700  0.89912400  1
  F  F15  1  0.50000000  0.06521800  0.06654600  1
  F  F16  1  0.50000000  0.06427900  0.39654200  1
  F  F17  1  0.50000000  0.06415900  0.72956300  1
loop_
_geom_bond_atom_site_label_1
_geom_bond_atom_site_label_2
_geom_bond_distance
_geom_bond_site_symmetry_2
Fe0 O1 1.943839 1_554
Fe0 O1 1.943839 1_454
Fe0 O2 1.945017 1_555
Fe1 O3 1.903487 1_555
Fe2 O4 1.928657 1_555
Fe2 O0 1.960835 1_555
Fe2 O0 1.960835 1_455
Fe3 O5 1.860086 1_555
Fe3 O2 1.951037 1_555
Fe3 O2 1.951037 1_655
Fe4 O0 1.934728 1_555
Fe4 O3 1.979878 1_555
Fe4 O3 1.979878 1_655
Fe5 O4 1.954992 1_555
Fe5 O4 1.954992 1_655
Fe5 O1 1.959407 1_555
Fe6 O8 1.998575 1_554
Fe6 O8 1.998575 1_454
Fe6 O9 2.002375 1_555
Fe6 O5 2.011097 1_555
Fe6 O5 2.011097 1_455
Fe7 O6 1.929758 1_555
Fe7 O6 1.929758 1_455
Fe7 O10 1.965986 1_555
Fe8 O11 1.918448 1_555
Fe8 O7 1.946444 1_555
Fe8 O7 1.946444 1_455
Fe9 O10 1.936053 1_655
Fe9 O10 1.936053 1_555
Fe9 O7 1.948026 1_555
Fe10 O9 1.908205 1_655
Fe10 O9 1.908205 1_555
Fe10 O6 1.971458 1_555
Fe11 O8 1.869202 1_555
Fe11 O11 1.949259 1_555
Fe11 O11 1.949259 1_655
Fe12 O14 1.944427 1_555
Fe12 O14 1.944427 1_455
Fe12 O15 1.977356 1_556
Fe13 O12 1.947039 1_555
Fe13 O12 1.947039 1_455
Fe13 O16 1.968518 1_555
Fe14 O13 1.947327 1_455
Fe14 O13 1.947327 1_555
Fe14 O17 1.951199 1_555
Fe15 O15 1.922932 1_655
Fe15 O15 1.922932 1_555
Fe15 O12 1.947628 1_555
Fe16 O13 1.917485 1_555
Fe16 O16 1.934818 1_555
Fe16 O16 1.934818 1_655
Fe17 O14 1.942244 1_555
Fe17 O17 1.942351 1_555
Fe17 O17 1.942351 1_655
F0 Fe1 2.003419 1_655
F0 Fe1 2.003419 1_555
F0 Fe3 2.401334 1_555
F1 Fe7 2.153210 1_555
F1 Fe3 2.168661 1_555
F1 Fe3 2.168661 1_455
F2 Fe4 2.096176 1_455
F2 Fe4 2.096176 1_555
F2 Fe8 2.265538 1_555
F3 Fe5 2.086541 1_455
F3 Fe5 2.086541 1_555
F3 Fe6 2.247379 1_556
F4 Fe8 2.120901 1_555
F4 Fe8 2.120901 1_655
F4 Fe5 2.227616 1_555
F5 Fe4 2.153879 1_555
F5 Fe7 2.161964 1_555
F5 Fe7 2.161964 1_655
F6 Fe13 2.112175 1_555
F6 Fe10 2.169194 1_555
F6 Fe10 2.169194 1_455
F7 Fe9 2.139386 1_555
F7 Fe9 2.139386 1_455
F7 Fe14 2.173291 1_555
F8 Fe12 2.124587 1_555
F8 Fe11 2.150291 1_555
F8 Fe11 2.150291 1_455
F9 Fe12 2.111589 1_554
F9 Fe12 2.111589 1_654
F9 Fe10 2.230929 1_555
F10 Fe13 2.127444 1_655
F10 Fe13 2.127444 1_555
F10 Fe9 2.237527 1_555
F11 Fe14 2.090546 1_555
F11 Fe14 2.090546 1_655
F11 Fe11 2.313923 1_555
F12 Fe1 2.070739 1_545
F12 Fe15 2.208774 1_555
F12 Fe15 2.208774 1_455
F13 Fe16 2.144966 1_455
F13 Fe16 2.144966 1_555
F13 Fe2 2.181142 1_545
F14 Fe17 2.132217 1_455
F14 Fe17 2.132217 1_555
F14 Fe0 2.194473 1_546
F15 Fe0 2.142022 1_645
F15 Fe0 2.142022 1_545
F15 Fe15 2.175813 1_555
F16 Fe1 2.030843 1_545
F16 Fe1 2.030843 1_645
F16 Fe16 2.317999 1_555
F17 Fe2 2.117418 1_645
F17 Fe2 2.117418 1_545
F17 Fe17 2.237987 1_555
