# generated using pymatgen
data_TiBi2O5
_symmetry_space_group_name_H-M   'P 1'
_cell_length_a   6.49213734
_cell_length_b   6.49213734
_cell_length_c   10.42153200
_cell_angle_alpha   90.00000000
_cell_angle_beta   90.00000000
_cell_angle_gamma   143.48573408
_symmetry_Int_Tables_number   1
_chemical_formula_structural   TiBi2O5
_chemical_formula_sum   'Ti2 Bi4 O10'
_cell_volume   261.36092413
_cell_formula_units_Z   2
loop_
 _symmetry_equiv_pos_site_id
 _symmetry_equiv_pos_as_xyz
  1  'x, y, z'
loop_
 _atom_site_type_symbol
 _atom_site_label
 _atom_site_symmetry_multiplicity
 _atom_site_fract_x
 _atom_site_fract_y
 _atom_site_fract_z
 _atom_site_occupancy
  Ti  Ti0  1  0.16409900  0.83590100  0.25000000  1
  Ti  Ti1  1  0.83590100  0.16409900  0.75000000  1
  Bi  Bi0  1  0.14300400  0.85699600  0.92641900  1
  Bi  Bi1  1  0.14300400  0.85699600  0.57358100  1
  Bi  Bi2  1  0.85699600  0.14300400  0.07358100  1
  Bi  Bi3  1  0.85699600  0.14300400  0.42641900  1
  O  O0  1  0.06272800  0.93727200  0.37966900  1
  O  O1  1  0.06272800  0.93727200  0.12033100  1
  O  O2  1  0.72286400  0.27713600  0.91603100  1
  O  O3  1  0.72286400  0.27713600  0.58396900  1
  O  O4  1  0.29084600  0.70915400  0.75000000  1
  O  O5  1  0.70915400  0.29084600  0.25000000  1
  O  O6  1  0.27713600  0.72286400  0.08396900  1
  O  O7  1  0.27713600  0.72286400  0.41603100  1
  O  O8  1  0.93727200  0.06272800  0.62033100  1
  O  O9  1  0.93727200  0.06272800  0.87966900  1
loop_
_geom_bond_atom_site_label_1
_geom_bond_atom_site_label_2
_geom_bond_distance
_geom_bond_site_symmetry_2
Bi0 O1 2.250264 1_556
Bi0 O2 2.262307 1_565
Bi0 O2 2.262307 1_455
Bi0 O6 2.330531 1_556
Bi0 O9 2.583170 1_465
Bi0 O4 2.589126 1_555
Bi1 O0 2.250264 1_555
Bi1 O3 2.262307 1_565
Bi1 O3 2.262307 1_455
Bi1 O7 2.330531 1_555
Bi1 O8 2.583170 1_465
Bi1 O4 2.589126 1_555
Bi2 O9 2.250264 1_554
Bi2 O6 2.262307 1_655
Bi2 O6 2.262307 1_545
Bi2 O2 2.330531 1_554
Bi2 O1 2.583170 1_645
Bi2 O5 2.589126 1_555
Bi3 O8 2.250264 1_555
Bi3 O7 2.262307 1_655
Bi3 O7 2.262307 1_545
Bi3 O3 2.330531 1_555
Bi3 O0 2.583170 1_645
Bi3 O5 2.589126 1_555
O0 Ti0 1.840807 1_555
O1 Ti0 1.840807 1_555
O2 Ti1 2.221860 1_555
O3 Ti1 2.221860 1_555
O4 Ti1 2.108381 1_455
O4 Ti1 2.108381 1_565
O5 Ti0 2.108381 1_545
O5 Ti0 2.108381 1_655
O6 Ti0 2.221860 1_555
O7 Ti0 2.221860 1_555
O8 Ti1 1.840807 1_555
O9 Ti1 1.840807 1_555
