# generated using pymatgen
data_Ag2B8O13
_symmetry_space_group_name_H-M   'P 1'
_cell_length_a   7.89822600
_cell_length_b   10.66395313
_cell_length_c   12.03895635
_cell_angle_alpha   80.22461852
_cell_angle_beta   89.99327049
_cell_angle_gamma   89.99107033
_symmetry_Int_Tables_number   1
_chemical_formula_structural   Ag2B8O13
_chemical_formula_sum   'Ag8 B32 O52'
_cell_volume   999.27459656
_cell_formula_units_Z   4
loop_
 _symmetry_equiv_pos_site_id
 _symmetry_equiv_pos_as_xyz
  1  'x, y, z'
loop_
 _atom_site_type_symbol
 _atom_site_label
 _atom_site_symmetry_multiplicity
 _atom_site_fract_x
 _atom_site_fract_y
 _atom_site_fract_z
 _atom_site_occupancy
  Ag  Ag0  1  0.13737600  0.46399200  0.08460000  1
  Ag  Ag1  1  0.36253700  0.96390800  0.08516300  1
  Ag  Ag2  1  0.39082700  0.31164700  0.38271600  1
  Ag  Ag3  1  0.07115500  0.80210700  0.38991600  1
  Ag  Ag4  1  0.92746400  0.19769000  0.61033400  1
  Ag  Ag5  1  0.57154000  0.69768900  0.61021100  1
  Ag  Ag6  1  0.63747600  0.03616500  0.91475900  1
  Ag  Ag7  1  0.86235000  0.53615300  0.91484900  1
  B  B0  1  0.65917700  0.27825400  0.00419900  1
  B  B1  1  0.84094200  0.77827900  0.00428000  1
  B  B2  1  0.41409300  0.23735900  0.13776800  1
  B  B3  1  0.59475800  0.43472700  0.12468600  1
  B  B4  1  0.08599400  0.73771800  0.13791100  1
  B  B5  1  0.91824100  0.11080800  0.23930000  1
  B  B6  1  0.90524500  0.93474600  0.12466400  1
  B  B7  1  0.48965300  0.04179400  0.29693500  1
  B  B8  1  0.58152000  0.61100100  0.23923200  1
  B  B9  1  0.94897000  0.30496700  0.32713900  1
  B  B10  1  0.01024700  0.54176100  0.29672600  1
  B  B11  1  0.10686800  0.10222500  0.39728900  1
  B  B12  1  0.55030900  0.80502400  0.32721300  1
  B  B13  1  0.39309800  0.60358500  0.39718500  1
  B  B14  1  0.81357600  0.45177800  0.44155000  1
  B  B15  1  0.31421100  0.04817500  0.55844300  1
  B  B16  1  0.68601500  0.95206700  0.44146100  1
  B  B17  1  0.18598000  0.54799100  0.55854700  1
  B  B18  1  0.60682900  0.39667500  0.60276400  1
  B  B19  1  0.45034100  0.19559000  0.67256000  1
  B  B20  1  0.89297800  0.89707900  0.60280600  1
  B  B21  1  0.98936900  0.45838100  0.70328200  1
  B  B22  1  0.05010200  0.69537000  0.67279900  1
  B  B23  1  0.41849700  0.38925800  0.76053400  1
  B  B24  1  0.51060200  0.95851100  0.70325500  1
  B  B25  1  0.09477400  0.06526800  0.87529600  1
  B  B26  1  0.08151400  0.88930300  0.76065400  1
  B  B27  1  0.91407100  0.26232800  0.86203900  1
  B  B28  1  0.40528900  0.56521200  0.87530800  1
  B  B29  1  0.58593000  0.76237900  0.86199400  1
  B  B30  1  0.15900000  0.22172300  0.99564200  1
  B  B31  1  0.34095000  0.72178700  0.99570500  1
  O  O0  1  0.53688000  0.19960400  0.05823500  1
  O  O1  1  0.68830100  0.39753500  0.03661900  1
  O  O2  1  0.24418900  0.25575100  0.08414100  1
  O  O3  1  0.85978900  0.05055100  0.15363800  1
  O  O4  1  0.96323700  0.69966300  0.05836200  1
  O  O5  1  0.81184900  0.89759500  0.03653000  1
  O  O6  1  0.25578000  0.75572700  0.08421500  1
  O  O7  1  0.46329700  0.36194200  0.17070300  1
  O  O8  1  0.64028500  0.55040400  0.15372100  1
  O  O9  1  0.40173700  0.14496000  0.24318800  1
  O  O10  1  0.87810200  0.23331200  0.24436300  1
  O  O11  1  0.03630400  0.86186200  0.17119300  1
  O  O12  1  0.01986000  0.03979000  0.32257500  1
  O  O13  1  0.02747800  0.42384400  0.26623600  1
  O  O14  1  0.09780400  0.64514400  0.24357000  1
  O  O15  1  0.62196200  0.73328300  0.24443800  1
  O  O16  1  0.59263200  0.05537000  0.38830300  1
  O  O17  1  0.47918100  0.54050500  0.32231000  1
  O  O18  1  0.47309200  0.92406200  0.26613500  1
  O  O19  1  0.08415900  0.22884100  0.39765900  1
  O  O20  1  0.82048300  0.33616200  0.40787800  1
  O  O21  1  0.90705600  0.55539400  0.38812600  1
  O  O22  1  0.21238400  0.02428300  0.47008100  1
  O  O23  1  0.41626000  0.72949200  0.39811200  1
  O  O24  1  0.68054500  0.83630000  0.40768000  1
  O  O25  1  0.28739400  0.52474300  0.46977100  1
  O  O26  1  0.71216500  0.47523800  0.52990900  1
  O  O27  1  0.31946900  0.16374100  0.59229500  1
  O  O28  1  0.58439500  0.27057200  0.60281200  1
  O  O29  1  0.78771800  0.97541500  0.52995200  1
  O  O30  1  0.09243400  0.44465800  0.61160200  1
  O  O31  1  0.18046500  0.66364300  0.59234000  1
  O  O32  1  0.91639400  0.77087100  0.60205100  1
  O  O33  1  0.52687200  0.07605400  0.73397400  1
  O  O34  1  0.51994600  0.46018800  0.67725300  1
  O  O35  1  0.40768300  0.94473200  0.61161300  1
  O  O36  1  0.37802500  0.26687700  0.75553300  1
  O  O37  1  0.90237600  0.35485400  0.75643700  1
  O  O38  1  0.97307500  0.57614000  0.73391300  1
  O  O39  1  0.97968200  0.96005700  0.67751900  1
  O  O40  1  0.96370900  0.13811500  0.82887700  1
  O  O41  1  0.12188400  0.76676400  0.75557500  1
  O  O42  1  0.59777000  0.85475700  0.75639600  1
  O  O43  1  0.35978300  0.44955700  0.84636500  1
  O  O44  1  0.53637700  0.63811000  0.82889600  1
  O  O45  1  0.74427100  0.24429500  0.91580000  1
  O  O46  1  0.18817200  0.10240400  0.96348400  1
  O  O47  1  0.03674200  0.30033700  0.94170400  1
  O  O48  1  0.14023800  0.94947200  0.84635300  1
  O  O49  1  0.75576900  0.74424600  0.91581700  1
  O  O50  1  0.31185100  0.60244200  0.96347100  1
  O  O51  1  0.46324500  0.80033700  0.94168800  1
loop_
_geom_bond_atom_site_label_1
_geom_bond_atom_site_label_2
_geom_bond_distance
_geom_bond_site_symmetry_2
Ag0 O13 2.323827 1_555
Ag0 O50 2.339750 1_554
Ag0 O2 2.376282 1_555
Ag1 O18 2.318571 1_555
Ag1 O46 2.342852 1_564
Ag1 O6 2.376728 1_555
Ag2 O17 2.523839 1_555
Ag2 O19 2.573999 1_555
Ag2 O7 2.581666 1_555
Ag2 O9 2.646233 1_555
Ag2 O25 2.781684 1_555
Ag2 O27 2.796440 1_555
Ag3 O12 2.558863 1_565
Ag3 O11 2.616464 1_555
Ag3 O14 2.636553 1_555
Ag3 O31 2.764540 1_555
Ag3 O32 2.799626 1_455
Ag3 O23 2.830613 1_555
Ag4 O39 2.559249 1_545
Ag4 O40 2.615417 1_555
Ag4 O37 2.634936 1_555
Ag4 O20 2.759189 1_555
Ag4 O19 2.812147 1_655
Ag4 O28 2.816006 1_555
Ag5 O34 2.556982 1_555
Ag5 O44 2.616103 1_555
Ag5 O42 2.635700 1_555
Ag5 O24 2.765376 1_555
Ag5 O23 2.801038 1_555
Ag5 O32 2.830545 1_555
Ag6 O33 2.316683 1_555
Ag6 O5 2.343877 1_546
Ag6 O45 2.376509 1_555
Ag7 O38 2.318577 1_555
Ag7 O1 2.342704 1_556
Ag7 O49 2.375150 1_555
B0 O45 1.358700 1_554
B0 O0 1.369123 1_555
B0 O1 1.411365 1_555
B1 O49 1.360142 1_554
B1 O4 1.369048 1_555
B1 O5 1.410721 1_555
B2 O0 1.466279 1_555
B2 O9 1.471904 1_555
B2 O2 1.487686 1_555
B2 O7 1.500785 1_555
B3 O7 1.357036 1_555
B3 O8 1.385562 1_555
B3 O1 1.403487 1_555
B4 O4 1.467725 1_455
B4 O14 1.474755 1_555
B4 O6 1.486874 1_555
B4 O11 1.499039 1_555
B5 O10 1.355636 1_555
B5 O3 1.383768 1_555
B5 O12 1.401787 1_655
B6 O11 1.356987 1_655
B6 O3 1.386273 1_565
B6 O5 1.403541 1_555
B7 O9 1.367235 1_555
B7 O18 1.374408 1_545
B7 O16 1.395267 1_555
B8 O15 1.354358 1_555
B8 O8 1.385096 1_555
B8 O17 1.401256 1_555
B9 O10 1.465986 1_555
B9 O20 1.481485 1_555
B9 O13 1.487836 1_655
B9 O19 1.511889 1_655
B10 O14 1.365197 1_555
B10 O13 1.375188 1_555
B10 O21 1.396521 1_455
B11 O19 1.362817 1_555
B11 O22 1.380568 1_555
B11 O12 1.388619 1_555
B12 O15 1.468757 1_555
B12 O18 1.485583 1_555
B12 O24 1.489241 1_555
B12 O23 1.504950 1_555
B13 O23 1.357022 1_555
B13 O25 1.384953 1_555
B13 O17 1.390302 1_555
B14 O20 1.362754 1_555
B14 O26 1.387734 1_555
B14 O21 1.392314 1_555
B15 O27 1.362781 1_555
B15 O35 1.389860 1_545
B15 O22 1.391287 1_555
B16 O24 1.364495 1_555
B16 O16 1.388371 1_565
B16 O29 1.390152 1_555
B17 O31 1.363384 1_555
B17 O30 1.388983 1_555
B17 O25 1.391054 1_555
B18 O28 1.356310 1_555
B18 O26 1.383433 1_555
B18 O34 1.392764 1_555
B19 O36 1.469540 1_555
B19 O33 1.488884 1_555
B19 O27 1.493096 1_555
B19 O28 1.495842 1_555
B20 O32 1.360054 1_555
B20 O29 1.381828 1_555
B20 O39 1.390847 1_555
B21 O37 1.364062 1_555
B21 O38 1.373577 1_555
B21 O30 1.398887 1_655
B22 O41 1.466991 1_555
B22 O38 1.486789 1_455
B22 O31 1.491252 1_555
B22 O32 1.502009 1_455
B23 O36 1.354923 1_555
B23 O43 1.386253 1_555
B23 O34 1.400671 1_555
B24 O42 1.366372 1_555
B24 O33 1.371843 1_565
B24 O35 1.398167 1_555
B25 O40 1.356408 1_455
B25 O48 1.386050 1_545
B25 O46 1.404007 1_555
B26 O41 1.356466 1_555
B26 O48 1.384300 1_555
B26 O39 1.400524 1_455
B27 O47 1.468064 1_655
B27 O37 1.473916 1_555
B27 O45 1.487311 1_555
B27 O40 1.499013 1_555
B28 O44 1.356878 1_555
B28 O43 1.384853 1_555
B28 O50 1.404147 1_555
B29 O51 1.467939 1_555
B29 O42 1.473128 1_555
B29 O49 1.488040 1_555
B29 O44 1.499204 1_555
B30 O2 1.360542 1_556
B30 O47 1.368187 1_555
B30 O46 1.410379 1_555
B31 O6 1.360023 1_556
B31 O51 1.368460 1_555
B31 O50 1.411019 1_555
