# generated using pymatgen
data_Li2ScFe(SiO3)4
_symmetry_space_group_name_H-M   'P 1'
_cell_length_a   6.66562109
_cell_length_b   6.66562109
_cell_length_c   5.39140749
_cell_angle_alpha   74.81428911
_cell_angle_beta   74.81428911
_cell_angle_gamma   84.00467120
_symmetry_Int_Tables_number   1
_chemical_formula_structural   Li2ScFe(SiO3)4
_chemical_formula_sum   'Li2 Sc1 Fe1 Si4 O12'
_cell_volume   222.94107741
_cell_formula_units_Z   1
loop_
 _symmetry_equiv_pos_site_id
 _symmetry_equiv_pos_as_xyz
  1  'x, y, z'
loop_
 _atom_site_type_symbol
 _atom_site_label
 _atom_site_symmetry_multiplicity
 _atom_site_fract_x
 _atom_site_fract_y
 _atom_site_fract_z
 _atom_site_occupancy
  Li  Li0  1  0.25349700  0.74650300  0.50000000  1
  Li  Li1  1  0.75173600  0.24826400  0.00000000  1
  Sc  Sc0  1  0.89712400  0.10287600  0.50000000  1
  Fe  Fe0  1  0.10767000  0.89233000  0.00000000  1
  Si  Si0  1  0.79116600  0.61671000  0.52135200  1
  Si  Si1  1  0.61382100  0.79239700  0.02541100  1
  Si  Si2  1  0.38329000  0.20883400  0.47864800  1
  Si  Si3  1  0.20760300  0.38617900  0.97458900  1
  O  O0  1  0.97066600  0.79436500  0.39582400  1
  O  O1  1  0.79691500  0.96584000  0.91182900  1
  O  O2  1  0.88062200  0.37936700  0.58806500  1
  O  O3  1  0.64451100  0.64551300  0.31080900  1
  O  O4  1  0.37466700  0.88208900  0.08813300  1
  O  O5  1  0.64737600  0.65349200  0.80561000  1
  O  O6  1  0.35448700  0.35548900  0.68919100  1
  O  O7  1  0.62063300  0.11937800  0.41193500  1
  O  O8  1  0.34650800  0.35262400  0.19439000  1
  O  O9  1  0.11791100  0.62533300  0.91186700  1
  O  O10  1  0.20563500  0.02933400  0.60417600  1
  O  O11  1  0.03416000  0.20308600  0.08817100  1
loop_
_geom_bond_atom_site_label_1
_geom_bond_atom_site_label_2
_geom_bond_distance
_geom_bond_site_symmetry_2
Li0 O0 2.075235 1_455
Li0 O10 2.075235 1_565
Li0 O9 2.135753 1_555
Li0 O4 2.135753 1_555
Li1 O1 2.033714 1_544
Li1 O11 2.033714 1_655
Li1 O7 2.138836 1_555
Li1 O2 2.138836 1_554
Fe0 O9 1.948957 1_554
Fe0 O4 1.948957 1_555
Fe0 O0 2.046471 1_455
Fe0 O10 2.046471 1_564
Fe0 O1 2.222267 1_454
Fe0 O11 2.222274 1_565
O0 Si0 1.656428 1_555
O0 Sc0 2.243855 1_565
O1 Si1 1.653282 1_556
O1 Sc0 2.120934 1_565
O2 Si0 1.613987 1_555
O2 Sc0 2.005702 1_555
O3 Si1 1.643727 1_555
O3 Si0 1.645879 1_555
O4 Si1 1.624002 1_555
O5 Si1 1.644480 1_556
O5 Si0 1.644893 1_555
O6 Si3 1.643727 1_555
O6 Si2 1.645879 1_555
O7 Si2 1.613987 1_555
O7 Sc0 2.005702 1_555
O8 Si3 1.644480 1_554
O8 Si2 1.644893 1_555
O9 Si3 1.624002 1_555
O10 Si2 1.656428 1_555
O10 Sc0 2.243855 1_455
O11 Si3 1.653277 1_554
O11 Sc0 2.120934 1_455
