# generated using pymatgen
data_Li3V3P8O29
_symmetry_space_group_name_H-M   'P 1'
_cell_length_a   9.74877300
_cell_length_b   9.75745581
_cell_length_c   14.29410122
_cell_angle_alpha   90.22714604
_cell_angle_beta   90.06544437
_cell_angle_gamma   119.78935325
_symmetry_Int_Tables_number   1
_chemical_formula_structural   Li3V3P8O29
_chemical_formula_sum   'Li6 V6 P16 O58'
_cell_volume   1180.01020628
_cell_formula_units_Z   2
loop_
 _symmetry_equiv_pos_site_id
 _symmetry_equiv_pos_as_xyz
  1  'x, y, z'
loop_
 _atom_site_type_symbol
 _atom_site_label
 _atom_site_symmetry_multiplicity
 _atom_site_fract_x
 _atom_site_fract_y
 _atom_site_fract_z
 _atom_site_occupancy
  Li  Li0  1  0.67530700  0.90913900  0.55690700  1
  Li  Li1  1  0.09542200  0.32457300  0.05580000  1
  Li  Li2  1  0.09365400  0.76889200  0.55798100  1
  Li  Li3  1  0.66426000  0.33595200  0.10076400  1
  Li  Li4  1  0.98039100  0.94137700  0.00075800  1
  Li  Li5  1  0.04080200  0.06142800  0.50567600  1
  V  V0  1  0.99955400  0.43209600  0.25480800  1
  V  V1  1  0.99939500  0.56229800  0.75058100  1
  V  V2  1  0.56077300  0.99881100  0.75704600  1
  V  V3  1  0.43102800  0.99857600  0.24588100  1
  V  V4  1  0.56579300  0.56785800  0.25251900  1
  V  V5  1  0.43678400  0.43886900  0.74661200  1
  P  P0  1  0.69465400  0.77616300  0.84398900  1
  P  P1  1  0.68937200  0.91790300  0.34089100  1
  P  P2  1  0.22542700  0.30428900  0.34270900  1
  P  P3  1  0.32906700  0.66090800  0.13128800  1
  P  P4  1  0.33485000  0.67151100  0.63218500  1
  P  P5  1  0.09066000  0.31376800  0.84095400  1
  P  P6  1  0.91072200  0.21723200  0.66175800  1
  P  P7  1  0.21757700  0.91487600  0.84473200  1
  P  P8  1  0.78231800  0.08849500  0.15861500  1
  P  P9  1  0.08730000  0.77635800  0.34119300  1
  P  P10  1  0.90858900  0.68926400  0.16145200  1
  P  P11  1  0.66349100  0.33111600  0.36668200  1
  P  P12  1  0.66607700  0.33563900  0.86606900  1
  P  P13  1  0.77864200  0.69538200  0.65951000  1
  P  P14  1  0.30646200  0.08461600  0.66206700  1
  P  P15  1  0.30863600  0.22201800  0.15877900  1
  O  O0  1  0.78775700  0.79518200  0.57872500  1
  O  O1  1  0.65680800  0.74485300  0.32822800  1
  O  O2  1  0.80290000  0.00682100  0.07769200  1
  O  O3  1  0.65083200  0.90969100  0.82990700  1
  O  O4  1  0.53952100  0.61644400  0.82890100  1
  O  O5  1  0.46763100  0.65015200  0.18139600  1
  O  O6  1  0.38492100  0.45800100  0.33071300  1
  O  O7  1  0.20913300  0.21413000  0.07825200  1
  O  O8  1  0.26135500  0.34582600  0.82722800  1
  O  O9  1  0.48366400  0.81735700  0.67688500  1
  O  O10  1  0.53291200  0.91758200  0.32194100  1
  O  O11  1  0.33600300  0.52520400  0.67839900  1
  O  O12  1  0.33062500  0.65443100  0.02803200  1
  O  O13  1  0.34235600  0.67682600  0.52834700  1
  O  O14  1  0.17663600  0.51635100  0.17241000  1
  O  O15  1  0.38003500  0.91965700  0.83198000  1
  O  O16  1  0.34051900  0.81488500  0.17455800  1
  O  O17  1  0.09007100  0.34612700  0.32891500  1
  O  O18  1  0.98882000  0.19691600  0.75763200  1
  O  O19  1  0.98985400  0.19605400  0.57927500  1
  O  O20  1  0.02168900  0.24533000  0.93285100  1
  O  O21  1  0.09203200  0.47300500  0.82191000  1
  O  O22  1  0.18331000  0.67180800  0.66980700  1
  O  O23  1  0.92004500  0.26600500  0.16251300  1
  O  O24  1  0.08830600  0.61898300  0.32338400  1
  O  O25  1  0.25839700  0.91556000  0.32631800  1
  O  O26  1  0.80444400  0.01642100  0.25687100  1
  O  O27  1  0.76405300  0.98281700  0.43312300  1
  O  O28  1  0.20586200  0.99923600  0.57949400  1
  O  O29  1  0.73448100  0.08375300  0.66672600  1
  O  O30  1  0.92075700  0.38110100  0.67199100  1
  O  O31  1  0.08686600  0.73914200  0.82688600  1
  O  O32  1  0.81534600  0.33559200  0.32079900  1
  O  O33  1  0.90371700  0.52795900  0.17041400  1
  O  O34  1  0.99016400  0.78744200  0.07991200  1
  O  O35  1  0.02310300  0.78353200  0.43387300  1
  O  O36  1  0.98620600  0.78945100  0.25738500  1
  O  O37  1  0.91481200  0.65544400  0.66002200  1
  O  O38  1  0.66479300  0.18516300  0.82467700  1
  O  O39  1  0.62592100  0.09573900  0.16732200  1
  O  O40  1  0.81698600  0.47932600  0.82156100  1
  O  O41  1  0.67116200  0.33793200  0.97001200  1
  O  O42  1  0.66703100  0.32913400  0.46978600  1
  O  O43  1  0.66459400  0.47809700  0.32165100  1
  O  O44  1  0.45983500  0.07602000  0.67437900  1
  O  O45  1  0.52095100  0.18444000  0.31810600  1
  O  O46  1  0.73194100  0.64872900  0.16784200  1
  O  O47  1  0.80357400  0.79445200  0.75458000  1
  O  O48  1  0.78649800  0.79822400  0.92983000  1
  O  O49  1  0.61842500  0.53894600  0.67073400  1
  O  O50  1  0.52186100  0.33729800  0.82210100  1
  O  O51  1  0.47230300  0.37436500  0.16919300  1
  O  O52  1  0.34555900  0.08302800  0.16158000  1
  O  O53  1  0.19320400  0.98140800  0.93145400  1
  O  O54  1  0.20312700  0.00634300  0.75499400  1
  O  O55  1  0.35045300  0.26096600  0.66664000  1
  O  O56  1  0.20175600  0.21181100  0.42853400  1
  O  O57  1  0.20795400  0.19742600  0.25296900  1
loop_
_geom_bond_atom_site_label_1
_geom_bond_atom_site_label_2
_geom_bond_distance
_geom_bond_site_symmetry_2
Li0 O0 1.936121 1_555
Li0 O27 1.947209 1_555
Li0 O29 2.167938 1_565
Li0 O9 2.364459 1_555
Li1 O20 1.907156 1_554
Li1 O7 1.918881 1_555
Li1 O23 2.149064 1_455
Li1 O14 2.325289 1_555
Li2 O35 1.933241 1_555
Li2 O28 1.973211 1_555
Li2 O37 2.119794 1_455
Li2 O22 2.246743 1_555
Li3 O41 1.870101 1_554
Li3 O51 2.301601 1_555
Li3 O33 2.363245 1_555
Li3 O39 2.384656 1_555
Li4 O34 1.923718 1_555
Li4 O48 1.978092 1_554
Li4 O53 2.154236 1_654
Li4 O2 2.389096 1_565
Li5 O56 1.886833 1_555
Li5 O19 1.928094 1_455
Li5 O28 2.245524 1_545
O0 P13 1.487544 1_555
O1 P1 1.565086 1_555
O1 V4 1.844292 1_555
O2 P8 1.471553 1_555
O3 P0 1.573373 1_555
O3 V2 1.837219 1_555
O4 P0 1.554730 1_555
O4 V5 1.909369 1_555
O5 P3 1.577346 1_555
O5 V4 1.833541 1_555
O6 P2 1.543373 1_555
O6 V4 1.908771 1_555
O7 P15 1.481347 1_555
O8 P5 1.545795 1_555
O8 V5 1.883343 1_555
O9 P4 1.573976 1_555
O9 V2 1.916317 1_555
O10 P1 1.547321 1_555
O10 V3 1.891408 1_555
O11 P4 1.580476 1_555
O11 V5 1.858053 1_555
O12 P3 1.477472 1_555
O13 P4 1.485999 1_555
O14 P3 1.571363 1_555
O14 V0 1.909305 1_455
O15 P7 1.571951 1_555
O15 V2 1.872712 1_555
O16 P3 1.574198 1_555
O16 V3 1.855401 1_555
O17 P2 1.575453 1_555
O17 V0 1.828891 1_455
O18 P5 1.601862 1_655
O18 P6 1.626894 1_555
O19 P6 1.478666 1_555
O20 P5 1.478637 1_555
O21 P5 1.571982 1_555
O21 V1 1.844185 1_455
O22 P4 1.574092 1_555
O22 V1 1.949462 1_455
O23 P8 1.579295 1_555
O23 V0 1.923607 1_555
O24 P9 1.560376 1_555
O24 V0 1.857673 1_455
O25 P9 1.556996 1_555
O25 V3 1.862171 1_555
O26 P1 1.601759 1_545
O26 P8 1.634483 1_555
O27 P1 1.484027 1_555
O28 P14 1.492221 1_565
O29 P6 1.559123 1_555
O29 V2 1.959679 1_545
O30 P6 1.558934 1_555
O30 V1 1.900289 1_555
O31 P7 1.566460 1_555
O31 V1 1.848031 1_455
O32 P11 1.600575 1_555
O32 V0 1.825394 1_555
O33 P10 1.556677 1_555
O33 V0 2.019357 1_555
O34 P10 1.470584 1_555
O35 P9 1.481992 1_555
O36 P9 1.595727 1_655
O36 P10 1.631137 1_555
O37 P13 1.558256 1_555
O37 V1 1.983216 1_555
O38 P12 1.575071 1_555
O38 V2 1.849556 1_545
O39 P8 1.566071 1_555
O39 V3 1.998295 1_545
O40 P12 1.579403 1_555
O40 V1 1.851272 1_555
O41 P12 1.486251 1_555
O42 P11 1.474572 1_555
O43 P11 1.569479 1_555
O43 V4 1.874629 1_555
O44 P14 1.548468 1_555
O44 V2 1.916548 1_545
O45 P11 1.573279 1_555
O45 V3 1.877954 1_545
O46 P10 1.566613 1_555
O46 V4 1.858311 1_555
O47 P13 1.611093 1_555
O47 P0 1.615335 1_555
O48 P0 1.468838 1_555
O49 P13 1.558478 1_555
O49 V5 1.886855 1_555
O50 P12 1.546792 1_555
O50 V5 1.912501 1_555
O51 P15 1.555213 1_555
O51 V4 2.020835 1_555
O52 P15 1.567121 1_555
O52 V3 1.874336 1_545
O53 P7 1.470407 1_555
O54 P7 1.611007 1_545
O54 P14 1.615289 1_555
O55 P14 1.553993 1_555
O55 V5 1.886472 1_555
O56 P2 1.474797 1_555
O57 P2 1.604409 1_555
O57 P15 1.614069 1_555
