# generated using pymatgen
data_Li8ZrO6
_symmetry_space_group_name_H-M   'P 1'
_cell_length_a   6.01823540
_cell_length_b   6.01823592
_cell_length_c   6.01823596
_cell_angle_alpha   53.87617785
_cell_angle_beta   53.87617253
_cell_angle_gamma   53.87617537
_symmetry_Int_Tables_number   1
_chemical_formula_structural   Li8ZrO6
_chemical_formula_sum   'Li8 Zr1 O6'
_cell_volume   132.07531175
_cell_formula_units_Z   1
loop_
 _symmetry_equiv_pos_site_id
 _symmetry_equiv_pos_as_xyz
  1  'x, y, z'
loop_
 _atom_site_type_symbol
 _atom_site_label
 _atom_site_symmetry_multiplicity
 _atom_site_fract_x
 _atom_site_fract_y
 _atom_site_fract_z
 _atom_site_occupancy
  Li  Li0  1  0.10388576  0.76750387  0.49457089  1
  Li  Li1  1  0.50542911  0.89611424  0.23249613  1
  Li  Li2  1  0.23249613  0.50542911  0.89611424  1
  Li  Li3  1  0.34477175  0.34477175  0.34477175  1
  Li  Li4  1  0.65522825  0.65522825  0.65522825  1
  Li  Li5  1  0.76750387  0.49457089  0.10388576  1
  Li  Li6  1  0.49457089  0.10388576  0.76750387  1
  Li  Li7  1  0.89611424  0.23249613  0.50542911  1
  Zr  Zr0  1  -0.00000000  -0.00000000  0.00000000  1
  O  O0  1  0.23625372  0.90707846  0.61159870  1
  O  O1  1  0.38840130  0.76374628  0.09292154  1
  O  O2  1  0.09292154  0.38840130  0.76374628  1
  O  O3  1  0.90707846  0.61159870  0.23625372  1
  O  O4  1  0.61159870  0.23625372  0.90707846  1
  O  O5  1  0.76374628  0.09292154  0.38840130  1
loop_
_geom_bond_atom_site_label_1
_geom_bond_atom_site_label_2
_geom_bond_distance
_geom_bond_site_symmetry_2
Li0 O2 1.878208 1_555
Li0 O5 1.942677 1_465
Li0 O1 1.978400 1_555
Li0 O0 1.996067 1_555
Li1 O0 1.878207 1_555
Li1 O4 1.942677 1_564
Li1 O3 1.978400 1_555
Li1 O1 1.996067 1_555
Li2 O4 1.878207 1_555
Li2 O3 1.942677 1_456
Li2 O0 1.978400 1_555
Li2 O2 1.996067 1_555
Li3 O5 2.128239 1_555
Li3 O2 2.128239 1_555
Li3 O1 2.128240 1_555
Li3 O3 2.397566 1_455
Li3 O4 2.397566 1_554
Li3 O0 2.397566 1_545
Li4 O0 2.128239 1_555
Li4 O3 2.128239 1_555
Li4 O4 2.128240 1_555
Li4 O2 2.397566 1_655
Li4 O1 2.397566 1_556
Li4 O5 2.397566 1_565
Li5 O1 1.878207 1_555
Li5 O2 1.942677 1_654
Li5 O5 1.978400 1_555
Li5 O3 1.996067 1_555
Li6 O5 1.878207 1_555
Li6 O1 1.942677 1_546
Li6 O2 1.978400 1_555
Li6 O4 1.996067 1_555
Li7 O3 1.878208 1_555
Li7 O0 1.942677 1_645
Li7 O4 1.978400 1_555
Li7 O5 1.996067 1_555
O0 Zr0 2.117382 1_566
O1 Zr0 2.117382 1_565
O2 Zr0 2.117382 1_556
O3 Zr0 2.117382 1_665
O4 Zr0 2.117382 1_656
O5 Zr0 2.117382 1_655
