# generated using pymatgen
data_K3PS4O
_symmetry_space_group_name_H-M   'P 1'
_cell_length_a   7.12970400
_cell_length_b   11.80875300
_cell_length_c   12.03177500
_cell_angle_alpha   90.00000000
_cell_angle_beta   90.00000000
_cell_angle_gamma   90.00000000
_symmetry_Int_Tables_number   1
_chemical_formula_structural   K3PS4O
_chemical_formula_sum   'K12 P4 S16 O4'
_cell_volume   1012.99019182
_cell_formula_units_Z   4
loop_
 _symmetry_equiv_pos_site_id
 _symmetry_equiv_pos_as_xyz
  1  'x, y, z'
loop_
 _atom_site_type_symbol
 _atom_site_label
 _atom_site_symmetry_multiplicity
 _atom_site_fract_x
 _atom_site_fract_y
 _atom_site_fract_z
 _atom_site_occupancy
  K  K0  1  0.83903900  0.64456000  0.60712800  1
  K  K1  1  0.83903900  0.35544000  0.39287200  1
  K  K2  1  0.16096100  0.85544000  0.10712800  1
  K  K3  1  0.16096100  0.14456000  0.89287200  1
  K  K4  1  0.26253700  0.51312000  0.17374500  1
  K  K5  1  0.26253700  0.48688000  0.82625500  1
  K  K6  1  0.73746300  0.98688000  0.67374500  1
  K  K7  1  0.73746300  0.01312000  0.32625500  1
  K  K8  1  0.63351800  0.69179700  0.94816700  1
  K  K9  1  0.63351800  0.30820300  0.05183300  1
  K  K10  1  0.36648200  0.80820300  0.44816700  1
  K  K11  1  0.36648200  0.19179700  0.55183300  1
  P  P0  1  0.70153500  0.66158900  0.26936400  1
  P  P1  1  0.70153500  0.33841100  0.73063600  1
  P  P2  1  0.29846500  0.83841100  0.76936400  1
  P  P3  1  0.29846500  0.16158900  0.23063600  1
  S  S0  1  0.83436700  0.56076100  0.15728300  1
  S  S1  1  0.83436700  0.43923900  0.84271700  1
  S  S2  1  0.16563300  0.93923900  0.65728300  1
  S  S3  1  0.16563300  0.06076100  0.34271700  1
  S  S4  1  0.54243700  0.57433300  0.37852700  1
  S  S5  1  0.54243700  0.42566700  0.62147300  1
  S  S6  1  0.45756300  0.92566700  0.87852700  1
  S  S7  1  0.45756300  0.07433300  0.12147300  1
  S  S8  1  0.56033100  0.79170000  0.19569300  1
  S  S9  1  0.56033100  0.20830000  0.80430700  1
  S  S10  1  0.43966900  0.70830000  0.69569300  1
  S  S11  1  0.43966900  0.29170000  0.30430700  1
  S  S12  1  0.91698300  0.74692400  0.36573900  1
  S  S13  1  0.91698300  0.25307600  0.63426100  1
  S  S14  1  0.08301700  0.75307600  0.86573900  1
  S  S15  1  0.08301700  0.24692400  0.13426100  1
  O  O0  1  0.19985900  0.67646800  0.95158900  1
  O  O1  1  0.19985900  0.32353200  0.04841100  1
  O  O2  1  0.80014100  0.82353200  0.45158900  1
  O  O3  1  0.80014100  0.17646800  0.54841100  1
loop_
_geom_bond_atom_site_label_1
_geom_bond_atom_site_label_2
_geom_bond_distance
_geom_bond_site_symmetry_2
K0 O2 2.836495 1_555
K0 S10 3.132038 1_555
K0 S12 3.194554 1_555
K0 S5 3.344121 1_555
K0 S4 3.567175 1_555
K0 S1 3.730203 1_555
K0 S14 3.788094 1_655
K1 O3 2.836495 1_555
K1 S11 3.132038 1_555
K1 S13 3.194554 1_555
K1 S4 3.344121 1_555
K1 S5 3.567175 1_555
K1 S0 3.730203 1_555
K1 S15 3.788094 1_655
K2 O0 2.836495 1_554
K2 S8 3.132038 1_555
K2 S14 3.194554 1_554
K2 S7 3.344121 1_565
K2 S6 3.567175 1_554
K2 S3 3.730203 1_565
K2 S12 3.788094 1_455
K3 O1 2.836495 1_556
K3 S9 3.132038 1_555
K3 S15 3.194554 1_556
K3 S6 3.344121 1_545
K3 S7 3.567175 1_556
K3 S2 3.730203 1_545
K3 S13 3.788094 1_455
K4 O1 2.736046 1_555
K4 S0 3.110444 1_455
K4 S4 3.252031 1_555
K4 S11 3.301400 1_555
K4 O0 3.326417 1_554
K5 O0 2.736046 1_555
K5 S1 3.110444 1_455
K5 S5 3.252031 1_555
K5 S10 3.301400 1_555
K5 O1 3.326417 1_556
K6 O3 2.736046 1_565
K6 S2 3.110444 1_655
K6 S6 3.252031 1_555
K6 S9 3.301400 1_565
K6 O2 3.326417 1_555
K7 O2 2.736046 1_545
K7 S3 3.110444 1_655
K7 S7 3.252031 1_555
K7 S8 3.301400 1_545
K7 O3 3.326417 1_555
K8 O0 3.097428 1_555
K8 S6 3.146889 1_555
K8 S8 3.245547 1_556
K8 S0 3.282591 1_556
K8 S10 3.343026 1_555
K8 S14 3.431898 1_655
K8 S1 3.543306 1_555
K9 O1 3.097428 1_555
K9 S7 3.146889 1_555
K9 S9 3.245547 1_554
K9 S1 3.282591 1_554
K9 S11 3.343026 1_555
K9 S15 3.431898 1_655
K9 S0 3.543306 1_555
K10 O2 3.097428 1_555
K10 S4 3.146889 1_555
K10 S10 3.245547 1_555
K10 S2 3.282591 1_555
K10 S8 3.343026 1_555
K10 S12 3.431898 1_455
K10 S3 3.543306 1_565
K11 O3 3.097428 1_555
K11 S5 3.146889 1_555
K11 S11 3.245547 1_555
K11 S3 3.282591 1_555
K11 S9 3.343026 1_555
K11 S13 3.431898 1_455
K11 S2 3.543306 1_545
P0 S4 2.018282 1_555
P0 S0 2.033004 1_555
P0 S8 2.039583 1_555
P0 S12 2.172461 1_555
P1 S5 2.018282 1_555
P1 S1 2.033004 1_555
P1 S9 2.039583 1_555
P1 S13 2.172461 1_555
P2 S6 2.018282 1_555
P2 S2 2.033004 1_555
P2 S10 2.039583 1_555
P2 S14 2.172461 1_555
P3 S7 2.018282 1_555
P3 S3 2.033004 1_555
P3 S11 2.039583 1_555
P3 S15 2.172461 1_555
O0 S14 1.606018 1_555
O1 S15 1.606018 1_555
O2 S12 1.606018 1_555
O3 S13 1.606018 1_555
