# generated using pymatgen
data_Li6MnV3(PO4)6
_symmetry_space_group_name_H-M   'P 1'
_cell_length_a   10.24209006
_cell_length_b   10.20855176
_cell_length_c   16.67956523
_cell_angle_alpha   89.50790260
_cell_angle_beta   90.01221298
_cell_angle_gamma   108.51801282
_symmetry_Int_Tables_number   1
_chemical_formula_structural   Li6MnV3(PO4)6
_chemical_formula_sum   'Li24 Mn4 V12 P24 O96'
_cell_volume   1653.60121126
_cell_formula_units_Z   4
loop_
 _symmetry_equiv_pos_site_id
 _symmetry_equiv_pos_as_xyz
  1  'x, y, z'
loop_
 _atom_site_type_symbol
 _atom_site_label
 _atom_site_symmetry_multiplicity
 _atom_site_fract_x
 _atom_site_fract_y
 _atom_site_fract_z
 _atom_site_occupancy
  Li  Li0  1  0.06002949  0.93875525  0.81336175  1
  Li  Li1  1  0.06272568  0.43773630  0.68772686  1
  Li  Li2  1  0.18938647  0.81269906  0.43843515  1
  Li  Li3  1  0.24941448  0.50004278  0.87594467  1
  Li  Li4  1  0.24936516  0.49963335  0.37607796  1
  Li  Li5  1  0.31100549  0.68894478  0.06101605  1
  Li  Li6  1  0.18430610  0.31069940  0.06222173  1
  Li  Li7  1  0.43964721  0.56136235  0.68647529  1
  Li  Li8  1  0.25033244  0.00195476  0.62428392  1
  Li  Li9  1  0.56207726  0.93910164  0.18731922  1
  Li  Li10  1  0.31325244  0.18815401  0.43774169  1
  Li  Li11  1  0.25046920  0.99974731  0.12380866  1
  Li  Li12  1  0.68832730  0.81169272  0.56214156  1
  Li  Li13  1  0.43776676  0.06324788  0.81260712  1
  Li  Li14  1  0.56221057  0.43660422  0.31351320  1
  Li  Li15  1  0.81411619  0.68943367  0.93787020  1
  Li  Li16  1  0.68788043  0.30982803  0.93872054  1
  Li  Li17  1  0.74916649  0.49964592  0.62524910  1
  Li  Li18  1  0.74956002  0.49888293  0.12448867  1
  Li  Li19  1  0.75104409  0.00097325  0.87480292  1
  Li  Li20  1  0.81169941  0.18854579  0.56192247  1
  Li  Li21  1  0.93741090  0.55998567  0.31234680  1
  Li  Li22  1  0.75059011  0.99895222  0.37535229  1
  Li  Li23  1  0.93795998  0.06303335  0.18652459  1
  Mn  Mn0  1  0.00001308  0.50009143  0.49998744  1
  Mn  Mn1  1  0.00061663  0.00031605  0.50021672  1
  Mn  Mn2  1  0.74950942  0.75049577  0.75036185  1
  Mn  Mn3  1  0.50017325  0.99991428  0.00002966  1
  V  V0  1  0.99942384  0.50031044  0.00002839  1
  V  V1  1  0.24976522  0.75076945  0.74981143  1
  V  V2  1  0.25007813  0.74999910  0.24994356  1
  V  V3  1  0.00003377  0.00010601  0.00010813  1
  V  V4  1  0.24997993  0.25068796  0.74976903  1
  V  V5  1  0.25048835  0.24937909  0.24965257  1
  V  V6  1  0.49991018  0.49988765  0.49985796  1
  V  V7  1  0.49936356  0.49948356  0.99970496  1
  V  V8  1  0.50054039  0.99968034  0.50001464  1
  V  V9  1  0.74997665  0.74922871  0.25022729  1
  V  V10  1  0.74995318  0.25002596  0.75005191  1
  V  V11  1  0.75027495  0.24929411  0.25024887  1
  P  P0  1  0.99897719  0.75193813  0.62393142  1
  P  P1  1  0.06188916  0.93796251  0.31289900  1
  P  P2  1  0.99959833  0.74976090  0.12556211  1
  P  P3  1  0.18321659  0.80886811  0.93728137  1
  P  P4  1  0.00031701  0.25117762  0.87497762  1
  P  P5  1  0.00139965  0.24836002  0.37639555  1
  P  P6  1  0.06230309  0.43724237  0.18856165  1
  P  P7  1  0.31580391  0.69147584  0.56270090  1
  P  P8  1  0.19100649  0.31807582  0.56189810  1
  P  P9  1  0.49960864  0.75133170  0.87646900  1
  P  P10  1  0.56556668  0.93771381  0.68903706  1
  P  P11  1  0.31083959  0.18480725  0.93858432  1
  P  P12  1  0.50037437  0.75038402  0.37437026  1
  P  P13  1  0.43796696  0.56135806  0.18730472  1
  P  P14  1  0.55971192  0.43453800  0.81207092  1
  P  P15  1  0.49970558  0.24872218  0.62511162  1
  P  P16  1  0.43792768  0.06256893  0.31147163  1
  P  P17  1  0.68832576  0.81384559  0.06175444  1
  P  P18  1  0.50007727  0.24843077  0.12317601  1
  P  P19  1  0.80984087  0.68321261  0.43782280  1
  P  P20  1  0.68478717  0.30903593  0.43756091  1
  P  P21  1  0.93419391  0.56247568  0.81098042  1
  P  P22  1  0.81616830  0.19062163  0.06254068  1
  P  P23  1  0.94042546  0.06610019  0.68762611  1
  O  O0  1  0.01194521  0.90229400  0.10405523  1
  O  O1  1  0.04794434  0.84771920  0.93877335  1
  O  O2  1  0.06083032  0.85681587  0.55323557  1
  O  O3  1  0.10494995  0.98758566  0.40034914  1
  O  O4  1  0.10260022  0.81343224  0.69276632  1
  O  O5  1  0.10279451  0.80329761  0.30906193  1
  O  O6  1  0.01047925  0.39964650  0.39719688  1
  O  O7  1  0.08989603  0.59026277  0.79516524  1
  O  O8  1  0.15089295  0.76197579  0.14714501  1
  O  O9  1  0.05437341  0.35775940  0.55633068  1
  O  O10  1  0.15873448  0.65105068  0.95378351  1
  O  O11  1  0.06057086  0.35272762  0.94450361  1
  O  O12  1  0.10674224  0.48938495  0.10177134  1
  O  O13  1  0.23711154  0.85304806  0.85002192  1
  O  O14  1  0.13483152  0.54341658  0.25374681  1
  O  O15  1  0.21192765  0.62106756  0.49699959  1
  O  O16  1  0.10250740  0.31158911  0.80483620  1
  O  O17  1  0.10109009  0.30117750  0.19266910  1
  O  O18  1  0.28631167  0.87901007  0.00326010  1
  O  O19  1  0.26243932  0.64790901  0.65014015  1
  O  O20  1  0.36538511  0.95663904  0.24611187  1
  O  O21  1  0.33986239  0.84905829  0.54599105  1
  O  O22  1  0.09689235  0.09210310  0.70476360  1
  O  O23  1  0.15244531  0.26044235  0.35577699  1
  O  O24  1  0.40993369  0.91061633  0.70464763  1
  O  O25  1  0.34901077  0.73790140  0.35266960  1
  O  O26  1  0.16813520  0.16386394  0.54684596  1
  O  O27  1  0.23876232  0.36292056  0.64889268  1
  O  O28  1  0.13651894  0.04671083  0.24793455  1
  O  O29  1  0.39812284  0.69105683  0.80665642  1
  O  O30  1  0.39741498  0.69626916  0.19095183  1
  O  O31  1  0.20326748  0.11158498  0.00404014  1
  O  O32  1  0.29747156  0.39253519  0.49574276  1
  O  O33  1  0.50986800  0.90366809  0.89763065  1
  O  O34  1  0.26117689  0.14173670  0.85193010  1
  O  O35  1  0.36350596  0.45238037  0.25210901  1
  O  O36  1  0.43685493  0.64760871  0.94634810  1
  O  O37  1  0.33717651  0.34066252  0.95462776  1
  O  O38  1  0.39517729  0.51140805  0.10014528  1
  O  O39  1  0.45104346  0.65260515  0.56096036  1
  O  O40  1  0.40309630  0.40883658  0.79508113  1
  O  O41  1  0.55341724  0.85544199  0.05732047  1
  O  O42  1  0.34889456  0.23662339  0.14387162  1
  O  O43  1  0.60890610  0.98700589  0.60178940  1
  O  O44  1  0.56015986  0.85241434  0.44371630  1
  O  O45  1  0.48919796  0.59844285  0.39566727  1
  O  O46  1  0.39697013  0.18831765  0.69511777  1
  O  O47  1  0.39907520  0.19861664  0.30742961  1
  O  O48  1  0.60726326  0.80169909  0.69389704  1
  O  O49  1  0.60410387  0.81082909  0.30450657  1
  O  O50  1  0.51081280  0.40058658  0.60350495  1
  O  O51  1  0.44019753  0.14652775  0.55567277  1
  O  O52  1  0.39321329  0.01036750  0.39812566  1
  O  O53  1  0.65109395  0.76315918  0.85643029  1
  O  O54  1  0.44627651  0.14400048  0.94332607  1
  O  O55  1  0.59280409  0.58632824  0.20509364  1
  O  O56  1  0.54956267  0.34783422  0.43958749  1
  O  O57  1  0.60190729  0.48668846  0.89886455  1
  O  O58  1  0.66180663  0.65830943  0.04517044  1
  O  O59  1  0.56218672  0.35205243  0.05319178  1
  O  O60  1  0.63121597  0.54044854  0.74629538  1
  O  O61  1  0.73742903  0.85610400  0.14899867  1
  O  O62  1  0.48894009  0.09570915  0.10205386  1
  O  O63  1  0.70253815  0.60811772  0.50321062  1
  O  O64  1  0.79662250  0.88783267  0.99701975  1
  O  O65  1  0.60050175  0.29923717  0.81012934  1
  O  O66  1  0.60118432  0.30800214  0.19285878  1
  O  O67  1  0.86898624  0.96053266  0.75369832  1
  O  O68  1  0.76258333  0.63933960  0.35021394  1
  O  O69  1  0.83273184  0.83723589  0.45322287  1
  O  O70  1  0.65102811  0.26113966  0.64688794  1
  O  O71  1  0.59398531  0.08762525  0.29478150  1
  O  O72  1  0.84770177  0.74006653  0.64384169  1
  O  O73  1  0.90728318  0.91282438  0.29491381  1
  O  O74  1  0.66055012  0.15129328  0.45389655  1
  O  O75  1  0.63747294  0.04364054  0.75412695  1
  O  O76  1  0.73789843  0.35308095  0.35022641  1
  O  O77  1  0.89268915  0.69859833  0.80603059  1
  O  O78  1  0.71318434  0.12075517  0.99643800  1
  O  O79  1  0.89650620  0.68918644  0.19559044  1
  O  O80  1  0.78862832  0.37919166  0.50333411  1
  O  O81  1  0.86235998  0.45637800  0.74600120  1
  O  O82  1  0.76246032  0.14601925  0.14964720  1
  O  O83  1  0.89103027  0.51315918  0.89833285  1
  O  O84  1  0.93903405  0.64834073  0.05614413  1
  O  O85  1  0.84081512  0.34859710  0.04637286  1
  O  O86  1  0.94587888  0.64272949  0.44309528  1
  O  O87  1  0.84907590  0.23900815  0.85328700  1
  O  O88  1  0.90618519  0.41156630  0.20549024  1
  O  O89  1  0.99072461  0.60100246  0.60315367  1
  O  O90  1  0.89926848  0.20121351  0.68984061  1
  O  O91  1  0.89811489  0.18763071  0.30772303  1
  O  O92  1  0.89793097  0.01421719  0.60060222  1
  O  O93  1  0.94025085  0.14334395  0.44704091  1
  O  O94  1  0.95141269  0.15180405  0.06072868  1
  O  O95  1  0.98797205  0.09867040  0.89676331  1
loop_
_geom_bond_atom_site_label_1
_geom_bond_atom_site_label_2
_geom_bond_distance
_geom_bond_site_symmetry_2
Li0 O67 2.267170 1_455
Li0 O1 2.268993 1_555
Li0 O13 2.329644 1_555
Li0 O22 2.334613 1_565
Li0 O95 2.439191 1_465
Li0 O34 2.502516 1_565
Li0 O4 2.504365 1_555
Li0 O77 2.509789 1_455
Li1 O27 2.266571 1_555
Li1 O81 2.333336 1_455
Li1 O9 2.337401 1_555
Li1 O7 2.342169 1_555
Li1 O16 2.435087 1_555
Li1 O89 2.459993 1_455
Li1 O90 2.462710 1_455
Li1 O19 2.523922 1_555
Li2 O15 2.255769 1_555
Li2 O3 2.302152 1_555
Li2 O21 2.319117 1_555
Li2 O5 2.323990 1_555
Li2 O2 2.448589 1_555
Li2 O25 2.472862 1_555
Li2 O52 2.486674 1_565
Li2 O86 2.546733 1_455
Li3 O11 2.331099 1_555
Li3 O36 2.350804 1_555
Li3 O29 2.352302 1_555
Li3 O16 2.360411 1_555
Li3 O10 2.422601 1_555
Li3 O37 2.463619 1_555
Li3 O40 2.473265 1_555
Li3 O7 2.503308 1_555
Li4 O25 2.348928 1_555
Li4 O23 2.353039 1_555
Li4 O6 2.357984 1_555
Li4 O45 2.364216 1_555
Li4 O32 2.392953 1_555
Li4 O14 2.460808 1_555
Li4 O15 2.469207 1_555
Li4 O35 2.500261 1_555
Li5 O18 2.244155 1_555
Li5 O10 2.325607 1_554
Li5 O38 2.329348 1_555
Li5 O30 2.333633 1_555
Li5 O36 2.420328 1_554
Li5 O8 2.470803 1_555
Li5 O12 2.501743 1_555
Li5 O41 2.524830 1_555
Li6 O12 2.309774 1_555
Li6 O31 2.322915 1_555
Li6 O17 2.326915 1_555
Li6 O37 2.335217 1_554
Li6 O94 2.421665 1_455
Li6 O11 2.444439 1_554
Li6 O42 2.461572 1_555
Li6 O38 2.544329 1_555
Li7 O60 2.269895 1_555
Li7 O39 2.271931 1_555
Li7 O40 2.329744 1_555
Li7 O19 2.334733 1_555
Li7 O50 2.437140 1_555
Li7 O27 2.470578 1_555
Li7 O48 2.512323 1_555
Li7 O29 2.521063 1_555
Li8 O4 2.326220 1_545
Li8 O51 2.327724 1_555
Li8 O46 2.343903 1_555
Li8 O2 2.359924 1_545
Li8 O21 2.434567 1_545
Li8 O26 2.440441 1_555
Li8 O22 2.461591 1_555
Li8 O24 2.506801 1_545
Li9 O20 2.298917 1_555
Li9 O61 2.308315 1_555
Li9 O71 2.313043 1_565
Li9 O41 2.328624 1_555
Li9 O62 2.420928 1_565
Li9 O49 2.456484 1_555
Li9 O82 2.508558 1_565
Li9 O30 2.516946 1_555
Li10 O26 2.311189 1_555
Li10 O52 2.316535 1_555
Li10 O47 2.333573 1_555
Li10 O32 2.358858 1_555
Li10 O23 2.424873 1_555
Li10 O56 2.451695 1_555
Li10 O51 2.464914 1_555
Li10 O3 2.525775 1_545
Li11 O42 2.332602 1_565
Li11 O8 2.344122 1_555
Li11 O0 2.351157 1_555
Li11 O62 2.351868 1_565
Li11 O31 2.416395 1_565
Li11 O18 2.455026 1_555
Li11 O20 2.460277 1_555
Li11 O28 2.500373 1_565
Li12 O43 2.290701 1_555
Li12 O69 2.303028 1_555
Li12 O48 2.339321 1_555
Li12 O63 2.352358 1_555
Li12 O72 2.407540 1_555
Li12 O39 2.457161 1_555
Li12 O44 2.475715 1_555
Li12 O92 2.549030 1_565
Li13 O34 2.296407 1_555
Li13 O54 2.329419 1_555
Li13 O75 2.332269 1_555
Li13 O24 2.348936 1_545
Li13 O33 2.436069 1_545
Li13 O46 2.437340 1_555
Li13 O65 2.455868 1_555
Li13 O13 2.528622 1_545
Li14 O56 2.269990 1_555
Li14 O76 2.303263 1_555
Li14 O55 2.313701 1_555
Li14 O35 2.328353 1_555
Li14 O45 2.447565 1_555
Li14 O47 2.475921 1_555
Li14 O68 2.488586 1_555
Li14 O66 2.512271 1_555
Li15 O83 2.283583 1_555
Li15 O64 2.317860 1_555
Li15 O58 2.326830 1_556
Li15 O77 2.332701 1_555
Li15 O1 2.426729 1_655
Li15 O53 2.445245 1_555
Li15 O84 2.455667 1_556
Li15 O57 2.568283 1_555
Li16 O78 2.237231 1_555
Li16 O65 2.314016 1_555
Li16 O85 2.334853 1_556
Li16 O57 2.337964 1_555
Li16 O59 2.419986 1_556
Li16 O87 2.460875 1_555
Li16 O83 2.514919 1_555
Li16 O54 2.516331 1_555
Li17 O70 2.345070 1_555
Li17 O50 2.356185 1_555
Li17 O72 2.361791 1_555
Li17 O89 2.386456 1_555
Li17 O63 2.427863 1_555
Li17 O81 2.429966 1_555
Li17 O60 2.458534 1_555
Li17 O80 2.483848 1_555
Li18 O84 2.341725 1_555
Li18 O66 2.342766 1_555
Li18 O59 2.355064 1_555
Li18 O79 2.372200 1_555
Li18 O85 2.422947 1_555
Li18 O88 2.465762 1_555
Li18 O58 2.469531 1_555
Li18 O55 2.472659 1_555
Li19 O53 2.338753 1_545
Li19 O87 2.340330 1_555
Li19 O95 2.342223 1_555
Li19 O33 2.380889 1_545
Li19 O75 2.428992 1_555
Li19 O64 2.451360 1_545
Li19 O67 2.458062 1_545
Li19 O78 2.471001 1_555
Li20 O80 2.248984 1_555
Li20 O90 2.302980 1_555
Li20 O92 2.311237 1_555
Li20 O74 2.329030 1_555
Li20 O93 2.453645 1_555
Li20 O70 2.461571 1_555
Li20 O43 2.500376 1_545
Li20 O9 2.537801 1_655
Li21 O68 2.278614 1_555
Li21 O14 2.300735 1_655
Li21 O88 2.304987 1_555
Li21 O86 2.337107 1_555
Li21 O6 2.445425 1_655
Li21 O79 2.452392 1_555
Li21 O76 2.504428 1_555
Li21 O5 2.523282 1_655
Li22 O91 2.319526 1_565
Li22 O44 2.336765 1_555
Li22 O49 2.354466 1_555
Li22 O93 2.363561 1_565
Li22 O74 2.435544 1_565
Li22 O69 2.442370 1_555
Li22 O73 2.462976 1_555
Li22 O71 2.469537 1_565
Li23 O94 2.265149 1_555
Li23 O82 2.298876 1_555
Li23 O73 2.316272 1_545
Li23 O28 2.328978 1_655
Li23 O0 2.447040 1_645
Li23 O17 2.477179 1_655
Li23 O91 2.499056 1_555
Li23 O61 2.517688 1_545
Mn0 O9 1.947969 1_555
Mn0 O86 1.953733 1_455
Mn0 O6 2.025474 1_555
Mn0 O89 2.030784 1_455
Mn0 O80 2.124912 1_455
Mn0 O15 2.129522 1_555
Mn1 O93 1.962601 1_455
Mn1 O2 1.964633 1_545
Mn1 O3 2.006535 1_545
Mn1 O92 2.007349 1_455
Mn1 O26 2.130336 1_555
Mn1 O69 2.132166 1_445
Mn2 O48 1.938421 1_555
Mn2 O77 1.943666 1_555
Mn2 O53 2.061596 1_555
Mn2 O72 2.061912 1_555
Mn2 O60 2.103014 1_555
Mn2 O67 2.105554 1_555
Mn3 O54 1.963280 1_564
Mn3 O41 1.967784 1_555
Mn3 O62 1.991372 1_565
Mn3 O33 1.995812 1_554
Mn3 O78 2.138770 1_564
Mn3 O18 2.146096 1_555
O0 P2 1.560356 1_455
O0 V3 2.016311 1_565
O1 P3 1.557780 1_555
O1 V3 2.054235 1_566
O2 P0 1.576665 1_455
O3 P1 1.565004 1_555
O4 P0 1.557995 1_455
O4 V1 2.046417 1_555
O5 P1 1.561052 1_555
O5 V2 2.018696 1_555
O6 P5 1.559554 1_555
O7 P21 1.550715 1_455
O7 V1 2.052599 1_555
O8 P2 1.556957 1_455
O8 V2 2.015305 1_555
O9 P8 1.578129 1_555
O10 P3 1.571637 1_555
O10 V0 2.002643 1_456
O11 P4 1.553812 1_555
O11 V0 2.035524 1_456
O12 P6 1.555401 1_555
O12 V0 2.043118 1_455
O13 P3 1.567602 1_555
O13 V1 2.004196 1_555
O14 P6 1.554740 1_555
O14 V2 2.064294 1_555
O15 P7 1.541671 1_555
O16 P4 1.556485 1_555
O16 V4 2.029395 1_555
O17 P6 1.562294 1_555
O17 V5 2.007251 1_555
O18 P3 1.539979 1_554
O19 P7 1.567928 1_555
O19 V1 1.999987 1_555
O20 P16 1.555460 1_565
O20 V2 2.064950 1_555
O21 P7 1.570609 1_555
O21 V8 2.008379 1_555
O22 P23 1.565639 1_455
O22 V4 2.012667 1_555
O23 P5 1.550825 1_555
O23 V5 2.056847 1_555
O24 P10 1.550492 1_555
O24 V1 2.049488 1_555
O25 P12 1.557461 1_555
O25 V2 2.013188 1_555
O26 P8 1.539084 1_555
O27 P8 1.556658 1_555
O27 V4 2.051189 1_555
O28 P1 1.559337 1_545
O28 V5 2.027529 1_555
O29 P9 1.555790 1_555
O29 V1 2.038933 1_555
O30 P13 1.561351 1_555
O30 V2 2.020370 1_555
O31 P11 1.558193 1_554
O31 V3 2.031930 1_555
O32 P8 1.563333 1_555
O32 V6 2.015585 1_555
O33 P9 1.568338 1_555
O34 P11 1.552302 1_555
O34 V4 2.049933 1_555
O35 P13 1.558334 1_555
O35 V5 2.028274 1_555
O36 P9 1.561930 1_555
O36 V7 2.019923 1_555
O37 P11 1.552578 1_555
O37 V7 2.064711 1_555
O38 P13 1.560793 1_555
O38 V7 2.011691 1_554
O39 P7 1.557644 1_555
O39 V6 2.059830 1_555
O40 P14 1.567143 1_555
O40 V4 2.012281 1_555
O41 P17 1.570709 1_555
O42 P18 1.553149 1_555
O42 V5 2.057644 1_555
O43 P10 1.553648 1_555
O43 V8 2.053521 1_555
O44 P12 1.553374 1_555
O44 V8 2.030367 1_555
O45 P12 1.556588 1_555
O45 V6 2.020997 1_555
O46 P15 1.557848 1_555
O46 V4 2.030337 1_555
O47 P16 1.562445 1_555
O47 V5 2.001247 1_555
O48 P10 1.578492 1_555
O49 P12 1.561775 1_555
O49 V9 2.013562 1_555
O50 P15 1.557142 1_555
O50 V6 2.017553 1_555
O51 P15 1.554949 1_555
O51 V8 2.025778 1_545
O52 P16 1.553959 1_555
O52 V8 2.044661 1_545
O53 P9 1.553724 1_555
O54 P11 1.571765 1_555
O55 P13 1.553149 1_555
O55 V9 2.060127 1_555
O56 P20 1.557205 1_555
O56 V6 2.051128 1_555
O57 P14 1.559744 1_555
O57 V7 2.010178 1_555
O58 P17 1.550795 1_555
O58 V7 2.068602 1_554
O59 P18 1.561387 1_555
O59 V7 2.016670 1_554
O60 P14 1.544657 1_555
O61 P17 1.558616 1_555
O61 V9 2.028566 1_555
O62 P18 1.569801 1_555
O63 P19 1.560763 1_555
O63 V6 2.018757 1_555
O64 P17 1.555947 1_556
O64 V3 2.034917 1_666
O65 P14 1.565465 1_555
O65 V10 2.024180 1_555
O66 P18 1.550705 1_555
O66 V11 2.044033 1_555
O67 P23 1.546083 1_565
O68 P19 1.563151 1_555
O68 V9 2.028852 1_555
O69 P19 1.538180 1_555
O70 P15 1.557503 1_555
O70 V10 2.017245 1_555
O71 P16 1.561069 1_555
O71 V11 2.034512 1_555
O72 P0 1.551063 1_555
O73 P1 1.551219 1_655
O73 V9 2.062085 1_555
O74 P20 1.570853 1_555
O74 V8 2.010448 1_545
O75 P10 1.550600 1_545
O75 V10 2.055871 1_555
O76 P20 1.566454 1_555
O76 V11 2.008785 1_555
O77 P21 1.578542 1_555
O78 P22 1.540143 1_556
O79 P2 1.560438 1_555
O79 V9 2.013208 1_555
O80 P20 1.541683 1_555
O81 P21 1.550076 1_555
O81 V10 2.055396 1_555
O82 P22 1.565473 1_555
O82 V11 2.014153 1_555
O83 P21 1.555008 1_555
O83 V0 2.052996 1_556
O84 P2 1.552325 1_555
O84 V0 2.039742 1_555
O85 P22 1.572010 1_555
O85 V0 2.004247 1_555
O86 P19 1.576369 1_555
O87 P4 1.556952 1_655
O87 V10 2.019106 1_555
O88 P6 1.561360 1_655
O88 V11 2.037262 1_555
O89 P0 1.558158 1_555
O90 P23 1.565810 1_555
O90 V10 2.022127 1_555
O91 P5 1.552579 1_655
O91 V11 2.050002 1_555
O92 P23 1.563131 1_555
O93 P5 1.575485 1_655
O94 P22 1.557426 1_555
O94 V3 2.045860 1_655
O95 P4 1.561141 1_655
O95 V3 2.011983 1_656
