# generated using pymatgen
data_Li4V2Fe3Sb3O16
_symmetry_space_group_name_H-M   'P 1'
_cell_length_a   6.13542500
_cell_length_b   6.14400535
_cell_length_c   9.77365277
_cell_angle_alpha   90.18595863
_cell_angle_beta   91.11186078
_cell_angle_gamma   119.19892789
_symmetry_Int_Tables_number   1
_chemical_formula_structural   Li4V2Fe3Sb3O16
_chemical_formula_sum   'Li4 V2 Fe3 Sb3 O16'
_cell_volume   321.51801576
_cell_formula_units_Z   1
loop_
 _symmetry_equiv_pos_site_id
 _symmetry_equiv_pos_as_xyz
  1  'x, y, z'
loop_
 _atom_site_type_symbol
 _atom_site_label
 _atom_site_symmetry_multiplicity
 _atom_site_fract_x
 _atom_site_fract_y
 _atom_site_fract_z
 _atom_site_occupancy
  Li  Li0  1  0.32619000  0.65978500  0.88287200  1
  Li  Li1  1  0.97320500  0.98767600  0.98773400  1
  Li  Li2  1  0.98425100  0.99053500  0.50326100  1
  Li  Li3  1  0.64909800  0.32397700  0.40126900  1
  V  V0  1  0.34904400  0.67950800  0.49903100  1
  V  V1  1  0.69427500  0.34480300  0.97585100  1
  Fe  Fe0  1  0.66460600  0.83212000  0.21484400  1
  Fe  Fe1  1  0.83435500  0.66420400  0.71212900  1
  Fe  Fe2  1  0.83302800  0.17135500  0.71294600  1
  Sb  Sb0  1  0.16999900  0.83283100  0.21390200  1
  Sb  Sb1  1  0.17060600  0.33902600  0.21488400  1
  Sb  Sb2  1  0.34294400  0.17073800  0.71413200  1
  O  O0  1  0.18016200  0.85250500  0.59736300  1
  O  O1  1  0.03542700  0.52186900  0.33742700  1
  O  O2  1  0.31479900  0.65570300  0.10064300  1
  O  O3  1  0.01830500  0.01187100  0.31767000  1
  O  O4  1  0.01603000  0.01679000  0.80740500  1
  O  O5  1  0.17145600  0.33051800  0.60049500  1
  O  O6  1  0.46808100  0.96018000  0.33752400  1
  O  O7  1  0.46587900  0.50490000  0.33947400  1
  O  O8  1  0.31747700  0.15716600  0.10270500  1
  O  O9  1  0.66970600  0.84258800  0.59547900  1
  O  O10  1  0.50555700  0.46095500  0.85006000  1
  O  O11  1  0.52003600  0.03506300  0.83983000  1
  O  O12  1  0.65358800  0.31879300  0.60281500  1
  O  O13  1  0.85806900  0.68705700  0.10070900  1
  O  O14  1  0.95767000  0.46889500  0.84419200  1
  O  O15  1  0.85615700  0.17889000  0.10119300  1
loop_
_geom_bond_atom_site_label_1
_geom_bond_atom_site_label_2
_geom_bond_distance
_geom_bond_site_symmetry_2
Li0 O14 2.001828 1_455
Li0 O10 2.032021 1_555
Li0 O11 2.063470 1_565
Li0 O2 2.130748 1_556
Li1 O4 1.783678 1_665
Li1 O13 1.974878 1_556
Li1 O15 1.992793 1_566
Li1 O8 2.136089 1_666
Li2 O3 1.827733 1_665
Li2 O9 1.929831 1_555
Li2 O0 1.991638 1_655
Li2 O5 2.046841 1_665
Li3 O12 1.970077 1_555
Li3 O7 2.015258 1_555
Li3 O6 2.039524 1_545
Li3 O1 2.176324 1_655
Fe0 O6 2.118069 1_555
Fe0 O3 2.123388 1_665
Fe0 O13 2.127152 1_555
Fe0 O2 2.157858 1_555
Fe0 O7 2.166588 1_555
Fe0 O15 2.185702 1_565
Fe1 O4 2.095962 1_665
Fe1 O12 2.125587 1_555
Fe1 O14 2.129873 1_555
Fe1 O9 2.136624 1_555
Fe1 O0 2.191801 1_655
Fe1 O10 2.259399 1_555
Fe2 O4 2.005147 1_655
Fe2 O12 2.030921 1_555
Fe2 O14 2.038351 1_555
Fe2 O9 2.089929 1_545
Fe2 O11 2.111163 1_555
Fe2 O5 2.142440 1_655
O0 Sb2 2.039328 1_565
O0 V0 2.057569 1_555
O1 Sb0 2.074613 1_555
O1 Sb1 2.079236 1_555
O1 V0 2.277939 1_555
O2 Sb0 2.042703 1_555
O2 Sb1 2.046449 1_555
O3 Sb0 2.033015 1_545
O3 Sb1 2.034601 1_555
O4 Sb2 1.993559 1_555
O5 Sb2 2.067312 1_555
O5 V0 2.131770 1_555
O6 Sb0 1.982097 1_555
O6 V0 2.198278 1_555
O7 Sb1 1.976953 1_555
O7 V0 2.208952 1_555
O8 Sb0 2.064887 1_545
O8 Sb1 2.067689 1_555
O8 V1 2.393922 1_554
O9 V0 1.939519 1_555
O10 V1 2.029312 1_555
O10 Sb2 2.034016 1_555
O11 Sb2 2.055056 1_555
O11 V1 2.115476 1_555
O12 Sb2 2.009739 1_555
O13 Sb0 1.981865 1_655
O13 V1 2.189709 1_554
O14 V1 1.932259 1_555
O15 Sb1 1.995627 1_655
O15 V1 2.115434 1_554
