# generated using pymatgen
data_V3(O2F)2
_symmetry_space_group_name_H-M   'P 1'
_cell_length_a   5.57891952
_cell_length_b   5.57891952
_cell_length_c   7.45347017
_cell_angle_alpha   71.03423249
_cell_angle_beta   71.03423249
_cell_angle_gamma   70.22405230
_symmetry_Int_Tables_number   1
_chemical_formula_structural   V3(O2F)2
_chemical_formula_sum   'V6 O8 F4'
_cell_volume   200.33381318
_cell_formula_units_Z   2
loop_
 _symmetry_equiv_pos_site_id
 _symmetry_equiv_pos_as_xyz
  1  'x, y, z'
loop_
 _atom_site_type_symbol
 _atom_site_label
 _atom_site_symmetry_multiplicity
 _atom_site_fract_x
 _atom_site_fract_y
 _atom_site_fract_z
 _atom_site_occupancy
  V  V0  1  0.33264400  0.33264400  0.17059400  1
  V  V1  1  0.00000000  0.00000000  0.00000000  1
  V  V2  1  0.31794800  0.31794800  0.66099400  1
  V  V3  1  0.00000000  0.00000000  0.50000000  1
  V  V4  1  0.66735600  0.66735600  0.82940600  1
  V  V5  1  0.68205200  0.68205200  0.33900600  1
  O  O0  1  0.29530200  0.70469800  0.00000000  1
  O  O1  1  0.63678300  0.02871800  0.66480700  1
  O  O2  1  0.90561600  0.90561600  0.29508600  1
  O  O3  1  0.09438400  0.09438400  0.70491400  1
  O  O4  1  0.36321700  0.97128200  0.33519300  1
  O  O5  1  0.70469800  0.29530200  0.00000000  1
  O  O6  1  0.02871800  0.63678300  0.66480700  1
  O  O7  1  0.97128200  0.36321700  0.33519300  1
  F  F0  1  0.23051800  0.23051800  0.96526600  1
  F  F1  1  0.55863800  0.55863800  0.63562800  1
  F  F2  1  0.76948200  0.76948200  0.03473400  1
  F  F3  1  0.44136200  0.44136200  0.36437200  1
loop_
_geom_bond_atom_site_label_1
_geom_bond_atom_site_label_2
_geom_bond_distance
_geom_bond_site_symmetry_2
O0 V1 1.895169 1_565
O0 V0 2.032872 1_555
O0 V4 2.032872 1_554
O1 V2 1.956857 1_555
O1 V4 1.973366 1_545
O1 V3 1.982675 1_655
O2 V5 1.933982 1_555
O2 V1 2.018416 1_665
O2 V3 2.029869 1_665
O3 V2 1.933982 1_555
O3 V1 2.018416 1_556
O3 V3 2.029869 1_555
O4 V5 1.956857 1_555
O4 V0 1.973366 1_565
O4 V3 1.982675 1_565
O5 V1 1.895169 1_655
O5 V0 2.032872 1_555
O5 V4 2.032872 1_554
O6 V2 1.956857 1_555
O6 V4 1.973366 1_455
O6 V3 1.982675 1_565
O7 V5 1.956857 1_555
O7 V0 1.973366 1_655
O7 V3 1.982675 1_655
F0 V1 2.015235 1_556
F0 V2 2.083758 1_555
F0 V0 2.084369 1_556
F1 V5 2.043994 1_555
F1 V4 2.051728 1_555
F1 V2 2.128849 1_555
F2 V1 2.015235 1_665
F2 V5 2.083758 1_555
F2 V4 2.084369 1_554
F3 V2 2.043994 1_555
F3 V0 2.051728 1_555
F3 V5 2.128849 1_555
