# generated using pymatgen
data_Zr2N2O
_symmetry_space_group_name_H-M   'P 1'
_cell_length_a   8.78810602
_cell_length_b   8.79205674
_cell_length_c   8.79387858
_cell_angle_alpha   109.43133311
_cell_angle_beta   109.61087537
_cell_angle_gamma   109.35774054
_symmetry_Int_Tables_number   1
_chemical_formula_structural   Zr2N2O
_chemical_formula_sum   'Zr16 N16 O8'
_cell_volume   523.13784287
_cell_formula_units_Z   8
loop_
 _symmetry_equiv_pos_site_id
 _symmetry_equiv_pos_as_xyz
  1  'x, y, z'
loop_
 _atom_site_type_symbol
 _atom_site_label
 _atom_site_symmetry_multiplicity
 _atom_site_fract_x
 _atom_site_fract_y
 _atom_site_fract_z
 _atom_site_occupancy
  Zr  Zr0  1  0.75375267  0.22374848  0.96776063  1
  Zr  Zr1  1  0.00994644  0.01069758  0.00356830  1
  Zr  Zr2  1  0.71531807  0.46557552  0.75521254  1
  Zr  Zr3  1  0.00608739  0.50864915  0.49718854  1
  Zr  Zr4  1  0.51380900  0.50834274  0.01035677  1
  Zr  Zr5  1  0.78721123  0.03688747  0.24956188  1
  Zr  Zr6  1  0.53696974  0.24796310  0.27850038  1
  Zr  Zr7  1  0.02355816  0.24276242  0.78775570  1
  Zr  Zr8  1  0.24857879  0.28494693  0.53108636  1
  Zr  Zr9  1  0.74512240  0.71639651  0.46023536  1
  Zr  Zr10  1  0.45897783  0.73718970  0.71131398  1
  Zr  Zr11  1  0.96842075  0.75320897  0.22192191  1
  Zr  Zr12  1  0.49972888  0.98775633  0.49102034  1
  Zr  Zr13  1  0.28571315  0.53533965  0.25384079  1
  Zr  Zr14  1  0.20969013  0.96002940  0.75015393  1
  Zr  Zr15  1  0.25867208  0.79281307  0.04006026  1
  N  N0  1  0.77067381  0.23869872  0.72326760  1
  N  N1  1  0.51201478  0.54310701  0.77139821  1
  N  N2  1  0.95697848  0.96889444  0.72972721  1
  N  N3  1  0.76080028  0.27154750  0.22903909  1
  N  N4  1  0.04623123  0.03461343  0.27264073  1
  N  N5  1  0.54440356  0.77520184  0.51668226  1
  N  N6  1  0.74022906  0.46864235  0.01121542  1
  N  N7  1  0.23802923  0.72567836  0.77196337  1
  N  N8  1  0.48923239  0.45485016  0.22666688  1
  N  N9  1  0.27000165  0.04189065  0.03528793  1
  N  N10  1  0.22318399  0.48344095  0.45324895  1
  N  N11  1  0.72268933  0.77261688  0.23683277  1
  N  N12  1  0.53443380  0.98822885  0.26370583  1
  N  N13  1  0.03020009  0.27043460  0.04358670  1
  N  N14  1  0.00939657  0.73686473  0.46698550  1
  N  N15  1  0.22720219  0.75958337  0.26737120  1
  O  O0  1  0.99229665  0.26062499  0.53535511  1
  O  O1  1  0.96112811  0.72567910  0.94766697  1
  O  O2  1  0.46645421  0.01749140  0.74292397  1
  O  O3  1  0.77275631  0.50950911  0.54783714  1
  O  O4  1  0.27035135  0.22600127  0.75688492  1
  O  O5  1  0.72466340  0.95501427  0.96640203  1
  O  O6  1  0.45730767  0.23146189  0.49103824  1
  O  O7  1  0.25778718  0.52761512  0.98273330  1
loop_
_geom_bond_atom_site_label_1
_geom_bond_atom_site_label_2
_geom_bond_distance
_geom_bond_site_symmetry_2
N0 Zr7 2.085596 1_655
N0 Zr2 2.157926 1_555
N0 Zr12 2.227880 1_545
N0 Zr0 2.247613 1_555
N1 Zr10 2.090456 1_555
N1 Zr2 2.142561 1_555
N1 Zr4 2.217597 1_556
N1 Zr8 2.240169 1_555
N2 Zr7 2.109175 1_665
N2 Zr1 2.167043 1_666
N2 Zr9 2.192874 1_555
N2 Zr14 2.197004 1_655
N3 Zr6 2.113146 1_555
N3 Zr0 2.168965 1_554
N3 Zr5 2.209091 1_555
N3 Zr3 2.211579 1_655
N4 Zr8 2.129781 1_555
N4 Zr11 2.174237 1_445
N4 Zr1 2.205172 1_555
N4 Zr5 2.223931 1_455
N5 Zr12 2.098800 1_555
N5 Zr9 2.155637 1_555
N5 Zr10 2.163686 1_555
N5 Zr13 2.238177 1_555
N6 Zr0 2.109209 1_554
N6 Zr4 2.129157 1_555
N6 Zr2 2.177541 1_554
N6 Zr11 2.193078 1_555
N7 Zr15 2.157698 1_556
N7 Zr10 2.160040 1_555
N7 Zr3 2.163825 1_555
N7 Zr14 2.217028 1_555
N8 Zr6 2.149782 1_555
N8 Zr4 2.165619 1_555
N8 Zr13 2.184091 1_555
N8 Zr9 2.211894 1_555
N9 Zr1 2.117007 1_555
N9 Zr6 2.144029 1_555
N9 Zr15 2.174112 1_545
N9 Zr14 2.177250 1_544
N10 Zr8 2.124715 1_555
N10 Zr3 2.134613 1_555
N10 Zr13 2.144335 1_555
N10 Zr10 2.198018 1_555
N11 Zr4 2.091489 1_555
N11 Zr9 2.143239 1_555
N11 Zr5 2.154894 1_565
N11 Zr11 2.264792 1_555
N12 Zr15 2.117780 1_555
N12 Zr12 2.121998 1_555
N12 Zr5 2.173505 1_565
N12 Zr6 2.235818 1_565
N13 Zr1 2.127027 1_555
N13 Zr0 2.141197 1_454
N13 Zr7 2.159216 1_554
N13 Zr13 2.183146 1_555
N14 Zr3 2.102012 1_555
N14 Zr11 2.124625 1_455
N14 Zr14 2.160160 1_555
N14 Zr9 2.247900 1_455
N15 Zr11 2.150657 1_455
N15 Zr12 2.157869 1_555
N15 Zr13 2.173171 1_555
N15 Zr15 2.205385 1_555
O0 Zr5 2.180350 1_555
O0 Zr8 2.205110 1_655
O0 Zr7 2.208594 1_655
O0 Zr3 2.285085 1_655
O1 Zr2 2.110992 1_555
O1 Zr1 2.243065 1_666
O1 Zr15 2.253350 1_656
O1 Zr11 2.318806 1_556
O2 Zr14 2.170916 1_545
O2 Zr0 2.191031 1_555
O2 Zr12 2.271826 1_545
O2 Zr10 2.362116 1_545
O3 Zr2 2.164942 1_555
O3 Zr3 2.241483 1_655
O3 Zr9 2.249590 1_555
O3 Zr6 2.261482 1_555
O4 Zr8 2.177931 1_555
O4 Zr14 2.194607 1_545
O4 Zr4 2.303149 1_556
O4 Zr7 2.319438 1_555
O5 Zr5 2.155709 1_566
O5 Zr10 2.193812 1_555
O5 Zr1 2.271972 1_666
O5 Zr0 2.286203 1_565
O6 Zr8 2.145977 1_555
O6 Zr2 2.227877 1_555
O6 Zr6 2.235139 1_555
O6 Zr12 2.293336 1_545
O7 Zr7 2.192127 1_555
O7 Zr15 2.212237 1_556
O7 Zr4 2.250161 1_556
O7 Zr13 2.288488 1_556
