# generated using pymatgen
data_Li3Nb3P8O29
_symmetry_space_group_name_H-M   'P 1'
_cell_length_a   10.03788608
_cell_length_b   10.03788608
_cell_length_c   14.08451811
_cell_angle_alpha   89.79939054
_cell_angle_beta   89.79939054
_cell_angle_gamma   60.00398047
_symmetry_Int_Tables_number   1
_chemical_formula_structural   Li3Nb3P8O29
_chemical_formula_sum   'Li6 Nb6 P16 O58'
_cell_volume   1229.05415100
_cell_formula_units_Z   2
loop_
 _symmetry_equiv_pos_site_id
 _symmetry_equiv_pos_as_xyz
  1  'x, y, z'
loop_
 _atom_site_type_symbol
 _atom_site_label
 _atom_site_symmetry_multiplicity
 _atom_site_fract_x
 _atom_site_fract_y
 _atom_site_fract_z
 _atom_site_occupancy
  Li  Li0  1  0.00000000  0.00000000  0.50000000  1
  Li  Li1  1  0.00000000  0.00000000  0.00000000  1
  Li  Li2  1  0.67410100  0.09494400  0.05557200  1
  Li  Li3  1  0.09494400  0.67410100  0.55557200  1
  Li  Li4  1  0.90505600  0.32589900  0.44442800  1
  Li  Li5  1  0.32589900  0.90505600  0.94442800  1
  Nb  Nb0  1  0.43279600  0.00181200  0.74122800  1
  Nb  Nb1  1  0.56720400  0.99818800  0.25877200  1
  Nb  Nb2  1  0.00181200  0.43279600  0.24122800  1
  Nb  Nb3  1  0.99818800  0.56720400  0.75877200  1
  Nb  Nb4  1  0.56706900  0.43293100  0.75000000  1
  Nb  Nb5  1  0.43293100  0.56706900  0.25000000  1
  P  P0  1  0.21793400  0.08319400  0.34400200  1
  P  P1  1  0.08319400  0.21793400  0.84400200  1
  P  P2  1  0.68974700  0.08047500  0.84368800  1
  P  P3  1  0.34099300  0.32840300  0.12391700  1
  P  P4  1  0.32840300  0.34099300  0.62391700  1
  P  P5  1  0.69652800  0.22640700  0.34552600  1
  P  P6  1  0.77359300  0.30347200  0.15447400  1
  P  P7  1  0.08047500  0.68974700  0.34368800  1
  P  P8  1  0.91952500  0.31025300  0.65631200  1
  P  P9  1  0.22640700  0.69652800  0.84552600  1
  P  P10  1  0.30347200  0.77359300  0.65447400  1
  P  P11  1  0.65900700  0.67159700  0.87608300  1
  P  P12  1  0.67159700  0.65900700  0.37608300  1
  P  P13  1  0.31025300  0.91952500  0.15631200  1
  P  P14  1  0.91680600  0.78206600  0.15599800  1
  P  P15  1  0.78206600  0.91680600  0.65599800  1
  O  O0  1  0.20082000  0.01162800  0.24428700  1
  O  O1  1  0.23181600  0.98961200  0.06521700  1
  O  O2  1  0.25496900  0.08505500  0.83729000  1
  O  O3  1  0.01162800  0.20082000  0.74428700  1
  O  O4  1  0.98961200  0.23181600  0.56521700  1
  O  O5  1  0.08505500  0.25496900  0.33729000  1
  O  O6  1  0.37360800  0.08368600  0.33295700  1
  O  O7  1  0.33192300  0.19355800  0.66970400  1
  O  O8  1  0.53622700  0.08244800  0.82710000  1
  O  O9  1  0.79737000  0.99920600  0.57373800  1
  O  O10  1  0.79918000  0.98837200  0.75571300  1
  O  O11  1  0.65885700  0.09353400  0.33928000  1
  O  O12  1  0.19355800  0.33192300  0.16970400  1
  O  O13  1  0.08368600  0.37360800  0.83295700  1
  O  O14  1  0.48412700  0.18287500  0.16944800  1
  O  O15  1  0.34510700  0.32496200  0.01915300  1
  O  O16  1  0.32496200  0.34510700  0.51915300  1
  O  O17  1  0.46963500  0.34066800  0.67229600  1
  O  O18  1  0.08244800  0.53622700  0.32710000  1
  O  O19  1  0.18287500  0.48412700  0.66944800  1
  O  O20  1  0.65634200  0.24867500  0.83186600  1
  O  O21  1  0.79403500  0.20596500  0.25000000  1
  O  O22  1  0.78469600  0.20489400  0.07304900  1
  O  O23  1  0.79510600  0.21530400  0.42695100  1
  O  O24  1  0.54257800  0.37906200  0.33403200  1
  O  O25  1  0.34066800  0.46963500  0.17229600  1
  O  O26  1  0.75132500  0.34365800  0.66813400  1
  O  O27  1  0.37906200  0.54257800  0.83403200  1
  O  O28  1  0.09353400  0.65885700  0.83928000  1
  O  O29  1  0.00079400  0.20263000  0.92626200  1
  O  O30  1  0.99920600  0.79737000  0.07373800  1
  O  O31  1  0.98837200  0.79918000  0.25571300  1
  O  O32  1  0.90646600  0.34114300  0.16072000  1
  O  O33  1  0.62093800  0.45742200  0.16596800  1
  O  O34  1  0.24867500  0.65634200  0.33186600  1
  O  O35  1  0.65933200  0.53036500  0.82770400  1
  O  O36  1  0.45742200  0.62093800  0.66596800  1
  O  O37  1  0.20489400  0.78469600  0.57304900  1
  O  O38  1  0.21530400  0.79510600  0.92695100  1
  O  O39  1  0.20596500  0.79403500  0.75000000  1
  O  O40  1  0.34365800  0.75132500  0.16813400  1
  O  O41  1  0.81712500  0.51587300  0.33055200  1
  O  O42  1  0.91755200  0.46377300  0.67290000  1
  O  O43  1  0.53036500  0.65933200  0.32770400  1
  O  O44  1  0.65489300  0.67503800  0.98084700  1
  O  O45  1  0.67503800  0.65489300  0.48084700  1
  O  O46  1  0.51587300  0.81712500  0.83055200  1
  O  O47  1  0.91631400  0.62639200  0.16704300  1
  O  O48  1  0.80644200  0.66807700  0.83029600  1
  O  O49  1  0.34114300  0.90646600  0.66072000  1
  O  O50  1  0.20263000  0.00079400  0.42626200  1
  O  O51  1  0.46377300  0.91755200  0.17290000  1
  O  O52  1  0.66807700  0.80644200  0.33029600  1
  O  O53  1  0.62639200  0.91631400  0.66704300  1
  O  O54  1  0.91494500  0.74503100  0.66271000  1
  O  O55  1  0.01038800  0.76818400  0.43478300  1
  O  O56  1  0.74503100  0.91494500  0.16271000  1
  O  O57  1  0.76818400  0.01038800  0.93478300  1
loop_
_geom_bond_atom_site_label_1
_geom_bond_atom_site_label_2
_geom_bond_distance
_geom_bond_site_symmetry_2
Li0 O50 2.284097 1_555
Li0 O9 2.284097 1_445
Li0 O37 2.348232 1_545
Li0 O23 2.348232 1_455
Li0 O4 2.457836 1_455
Li0 O55 2.457836 1_545
Li1 O30 2.284097 1_445
Li1 O29 2.284097 1_554
Li1 O38 2.348232 1_544
Li1 O22 2.348232 1_455
Li1 O1 2.457836 1_545
Li1 O57 2.457836 1_454
Li2 O57 1.924562 1_554
Li2 O22 1.933901 1_555
Li2 O56 2.179608 1_545
Li2 O14 2.300757 1_555
Li3 O55 1.924562 1_555
Li3 O37 1.933901 1_555
Li3 O54 2.179608 1_455
Li3 O19 2.300757 1_555
Li4 O4 1.924562 1_555
Li4 O23 1.933901 1_555
Li4 O5 2.179608 1_655
Li4 O41 2.300757 1_555
Li5 O1 1.924562 1_556
Li5 O38 1.933901 1_555
Li5 O2 2.179608 1_565
Li5 O46 2.300757 1_555
Nb0 O7 1.946679 1_555
Nb0 O53 1.982210 1_545
Nb0 O49 1.985816 1_545
Nb0 O8 2.012904 1_555
Nb0 O46 2.039669 1_545
Nb0 O2 2.052970 1_555
Nb1 O52 1.946679 1_555
Nb1 O6 1.982210 1_565
Nb1 O11 1.985816 1_565
Nb1 O51 2.012904 1_555
Nb1 O14 2.039669 1_565
Nb1 O56 2.052970 1_555
Nb2 O12 1.946679 1_555
Nb2 O47 1.982210 1_455
Nb2 O32 1.985816 1_455
Nb2 O18 2.012904 1_555
Nb2 O41 2.039669 1_455
Nb2 O5 2.052970 1_555
Nb3 O48 1.946679 1_555
Nb3 O13 1.982210 1_655
Nb3 O28 1.985816 1_655
Nb3 O42 2.012904 1_555
Nb3 O19 2.039669 1_655
Nb3 O54 2.052970 1_555
Nb4 O20 1.971911 1_555
Nb4 O26 1.971911 1_555
Nb4 O17 1.982998 1_555
Nb4 O35 1.982998 1_555
Nb4 O27 2.022450 1_555
Nb4 O36 2.022450 1_555
Nb5 O34 1.971911 1_555
Nb5 O40 1.971911 1_555
Nb5 O25 1.982998 1_555
Nb5 O43 1.982998 1_555
Nb5 O24 2.022450 1_555
Nb5 O33 2.022450 1_555
O0 P13 1.606166 1_545
O0 P0 1.627932 1_555
O1 P13 1.485908 1_555
O2 P1 1.568837 1_555
O3 P8 1.606166 1_455
O3 P1 1.627932 1_555
O4 P8 1.485908 1_555
O5 P0 1.568837 1_555
O6 P0 1.572282 1_555
O7 P4 1.596412 1_555
O8 P2 1.549736 1_555
O9 P15 1.472806 1_555
O10 P2 1.606166 1_565
O10 P15 1.627932 1_555
O11 P5 1.560446 1_555
O12 P3 1.596412 1_555
O13 P1 1.572282 1_555
O14 P3 1.584544 1_555
O15 P3 1.476026 1_555
O16 P4 1.476026 1_555
O17 P4 1.573602 1_555
O18 P7 1.549736 1_555
O19 P4 1.584544 1_555
O20 P2 1.556636 1_555
O21 P5 1.613129 1_555
O21 P6 1.613129 1_555
O22 P6 1.484442 1_555
O23 P5 1.484442 1_555
O24 P5 1.547463 1_555
O25 P3 1.573602 1_555
O26 P8 1.556636 1_555
O27 P9 1.547463 1_555
O28 P9 1.560446 1_555
O29 P1 1.472806 1_555
O30 P14 1.472806 1_555
O31 P7 1.606166 1_655
O31 P14 1.627932 1_555
O32 P6 1.560446 1_555
O33 P6 1.547463 1_555
O34 P7 1.556636 1_555
O35 P11 1.573602 1_555
O36 P10 1.547463 1_555
O37 P10 1.484442 1_555
O38 P9 1.484442 1_555
O39 P9 1.613129 1_555
O39 P10 1.613129 1_555
O40 P13 1.556636 1_555
O41 P12 1.584544 1_555
O42 P8 1.549736 1_555
O43 P12 1.573602 1_555
O44 P11 1.476026 1_555
O45 P12 1.476026 1_555
O46 P11 1.584544 1_555
O47 P14 1.572282 1_555
O48 P11 1.596412 1_555
O49 P10 1.560446 1_555
O50 P0 1.472806 1_555
O51 P13 1.549736 1_555
O52 P12 1.596412 1_555
O53 P15 1.572282 1_555
O54 P15 1.568837 1_555
O55 P7 1.485908 1_555
O56 P14 1.568837 1_555
O57 P2 1.485908 1_555
