# generated using pymatgen
data_H2Os5(CO)16
_symmetry_space_group_name_H-M   'P 1'
_cell_length_a   10.65953200
_cell_length_b   14.62982800
_cell_length_c   16.15844700
_cell_angle_alpha   90.00000000
_cell_angle_beta   90.00000000
_cell_angle_gamma   90.00000000
_symmetry_Int_Tables_number   1
_chemical_formula_structural   H2Os5(CO)16
_chemical_formula_sum   'H8 Os20 C64 O64'
_cell_volume   2519.86326881
_cell_formula_units_Z   4
loop_
 _symmetry_equiv_pos_site_id
 _symmetry_equiv_pos_as_xyz
  1  'x, y, z'
loop_
 _atom_site_type_symbol
 _atom_site_label
 _atom_site_symmetry_multiplicity
 _atom_site_fract_x
 _atom_site_fract_y
 _atom_site_fract_z
 _atom_site_occupancy
  H  H0  1  0.86685500  0.59316500  0.79458400  1
  H  H1  1  0.63314500  0.90683500  0.29458400  1
  H  H2  1  0.36685500  0.40683500  0.20541600  1
  H  H3  1  0.13314500  0.09316500  0.70541600  1
  H  H4  1  0.13314500  0.40683500  0.20541600  1
  H  H5  1  0.36685500  0.09316500  0.70541600  1
  H  H6  1  0.63314500  0.59316500  0.79458400  1
  H  H7  1  0.86685500  0.90683500  0.29458400  1
  Os  Os0  1  0.75000000  0.41446100  0.90031500  1
  Os  Os1  1  0.75000000  0.08553900  0.40031500  1
  Os  Os2  1  0.25000000  0.58553900  0.09968500  1
  Os  Os3  1  0.25000000  0.91446100  0.59968500  1
  Os  Os4  1  0.88425200  0.47742400  0.74895100  1
  Os  Os5  1  0.61574800  0.02257600  0.24895100  1
  Os  Os6  1  0.38425200  0.52257600  0.25104900  1
  Os  Os7  1  0.11574800  0.97742400  0.75104900  1
  Os  Os8  1  0.11574800  0.52257600  0.25104900  1
  Os  Os9  1  0.38425200  0.97742400  0.75104900  1
  Os  Os10  1  0.61574800  0.47742400  0.74895100  1
  Os  Os11  1  0.88425200  0.02257600  0.24895100  1
  Os  Os12  1  0.75000000  0.65667600  0.73369800  1
  Os  Os13  1  0.75000000  0.84332400  0.23369800  1
  Os  Os14  1  0.25000000  0.34332400  0.26630200  1
  Os  Os15  1  0.25000000  0.15667600  0.76630200  1
  Os  Os16  1  0.75000000  0.52990800  0.60013800  1
  Os  Os17  1  0.75000000  0.97009200  0.10013800  1
  Os  Os18  1  0.25000000  0.47009200  0.39986200  1
  Os  Os19  1  0.25000000  0.02990800  0.89986200  1
  C  C0  1  0.75000000  0.29293700  0.84900200  1
  C  C1  1  0.75000000  0.20706300  0.34900200  1
  C  C2  1  0.25000000  0.70706300  0.15099800  1
  C  C3  1  0.25000000  0.79293700  0.65099800  1
  C  C4  1  0.87864200  0.37916600  0.97661900  1
  C  C5  1  0.62135800  0.12083400  0.47661900  1
  C  C6  1  0.37864200  0.62083400  0.02338100  1
  C  C7  1  0.12135800  0.87916600  0.52338100  1
  C  C8  1  0.12135800  0.62083400  0.02338100  1
  C  C9  1  0.37864200  0.87916600  0.52338100  1
  C  C10  1  0.62135800  0.37916600  0.97661900  1
  C  C11  1  0.87864200  0.12083400  0.47661900  1
  C  C12  1  0.75000000  0.54129300  0.94107300  1
  C  C13  1  0.75000000  0.95870700  0.44107300  1
  C  C14  1  0.25000000  0.45870700  0.05892700  1
  C  C15  1  0.25000000  0.04129300  0.55892700  1
  C  C16  1  0.90218400  0.35643700  0.70707900  1
  C  C17  1  0.59781600  0.14356300  0.20707900  1
  C  C18  1  0.40218400  0.64356300  0.29292100  1
  C  C19  1  0.09781600  0.85643700  0.79292100  1
  C  C20  1  0.09781600  0.64356300  0.29292100  1
  C  C21  1  0.40218400  0.85643700  0.79292100  1
  C  C22  1  0.59781600  0.35643700  0.70707900  1
  C  C23  1  0.90218400  0.14356300  0.20707900  1
  C  C24  1  0.00983200  0.52134000  0.67384100  1
  C  C25  1  0.49016800  0.97866000  0.17384100  1
  C  C26  1  0.50983200  0.47866000  0.32615900  1
  C  C27  1  0.99016800  0.02134000  0.82615900  1
  C  C28  1  0.99016800  0.47866000  0.32615900  1
  C  C29  1  0.50983200  0.02134000  0.82615900  1
  C  C30  1  0.49016800  0.52134000  0.67384100  1
  C  C31  1  0.00983200  0.97866000  0.17384100  1
  C  C32  1  0.00896400  0.46827400  0.83378600  1
  C  C33  1  0.49103600  0.03172600  0.33378600  1
  C  C34  1  0.50896400  0.53172600  0.16621400  1
  C  C35  1  0.99103600  0.96827400  0.66621400  1
  C  C36  1  0.99103600  0.53172600  0.16621400  1
  C  C37  1  0.50896400  0.96827400  0.66621400  1
  C  C38  1  0.49103600  0.46827400  0.83378600  1
  C  C39  1  0.00896400  0.03172600  0.33378600  1
  C  C40  1  0.75000000  0.73963800  0.82640000  1
  C  C41  1  0.75000000  0.76036200  0.32640000  1
  C  C42  1  0.25000000  0.26036200  0.17360000  1
  C  C43  1  0.25000000  0.23963800  0.67360000  1
  C  C44  1  0.62205800  0.71689100  0.67320300  1
  C  C45  1  0.87794200  0.78310900  0.17320300  1
  C  C46  1  0.12205800  0.28310900  0.32679700  1
  C  C47  1  0.37794200  0.21689100  0.82679700  1
  C  C48  1  0.37794200  0.28310900  0.32679700  1
  C  C49  1  0.12205800  0.21689100  0.82679700  1
  C  C50  1  0.87794200  0.71689100  0.67320300  1
  C  C51  1  0.62205800  0.78310900  0.17320300  1
  C  C52  1  0.75000000  0.41244900  0.54812800  1
  C  C53  1  0.75000000  0.08755100  0.04812800  1
  C  C54  1  0.25000000  0.58755100  0.45187200  1
  C  C55  1  0.25000000  0.91244900  0.95187200  1
  C  C56  1  0.62736200  0.58150900  0.53075600  1
  C  C57  1  0.87263800  0.91849100  0.03075600  1
  C  C58  1  0.12736200  0.41849100  0.46924400  1
  C  C59  1  0.37263800  0.08150900  0.96924400  1
  C  C60  1  0.37263800  0.41849100  0.46924400  1
  C  C61  1  0.12736200  0.08150900  0.96924400  1
  C  C62  1  0.87263800  0.58150900  0.53075600  1
  C  C63  1  0.62736200  0.91849100  0.03075600  1
  O  O0  1  0.75000000  0.21960500  0.82238200  1
  O  O1  1  0.75000000  0.28039500  0.32238200  1
  O  O2  1  0.25000000  0.78039500  0.17761800  1
  O  O3  1  0.25000000  0.71960500  0.67761800  1
  O  O4  1  0.95571900  0.35854600  0.02371300  1
  O  O5  1  0.54428100  0.14145400  0.52371300  1
  O  O6  1  0.45571900  0.64145400  0.97628700  1
  O  O7  1  0.04428100  0.85854600  0.47628700  1
  O  O8  1  0.04428100  0.64145400  0.97628700  1
  O  O9  1  0.45571900  0.85854600  0.47628700  1
  O  O10  1  0.54428100  0.35854600  0.02371300  1
  O  O11  1  0.95571900  0.14145400  0.52371300  1
  O  O12  1  0.75000000  0.61321800  0.97036500  1
  O  O13  1  0.75000000  0.88678200  0.47036500  1
  O  O14  1  0.25000000  0.38678200  0.02963500  1
  O  O15  1  0.25000000  0.11321800  0.52963500  1
  O  O16  1  0.91865800  0.28373200  0.67986500  1
  O  O17  1  0.58134200  0.21626800  0.17986500  1
  O  O18  1  0.41865800  0.71626800  0.32013500  1
  O  O19  1  0.08134200  0.78373200  0.82013500  1
  O  O20  1  0.08134200  0.71626800  0.32013500  1
  O  O21  1  0.41865800  0.78373200  0.82013500  1
  O  O22  1  0.58134200  0.28373200  0.67986500  1
  O  O23  1  0.91865800  0.21626800  0.17986500  1
  O  O24  1  0.09816100  0.54426000  0.63678600  1
  O  O25  1  0.40183900  0.95574000  0.13678600  1
  O  O26  1  0.59816100  0.45574000  0.36321400  1
  O  O27  1  0.90183900  0.04426000  0.86321400  1
  O  O28  1  0.90183900  0.45574000  0.36321400  1
  O  O29  1  0.59816100  0.04426000  0.86321400  1
  O  O30  1  0.40183900  0.54426000  0.63678600  1
  O  O31  1  0.09816100  0.95574000  0.13678600  1
  O  O32  1  0.09624800  0.46557800  0.87740000  1
  O  O33  1  0.40375200  0.03442200  0.37740000  1
  O  O34  1  0.59624800  0.53442200  0.12260000  1
  O  O35  1  0.90375200  0.96557800  0.62260000  1
  O  O36  1  0.90375200  0.53442200  0.12260000  1
  O  O37  1  0.59624800  0.96557800  0.62260000  1
  O  O38  1  0.40375200  0.46557800  0.87740000  1
  O  O39  1  0.09624800  0.03442200  0.37740000  1
  O  O40  1  0.75000000  0.79813000  0.87534100  1
  O  O41  1  0.75000000  0.70187000  0.37534100  1
  O  O42  1  0.25000000  0.20187000  0.12465900  1
  O  O43  1  0.25000000  0.29813000  0.62465900  1
  O  O44  1  0.54264800  0.75383800  0.63658400  1
  O  O45  1  0.95735200  0.74616200  0.13658400  1
  O  O46  1  0.04264800  0.24616200  0.36341600  1
  O  O47  1  0.45735200  0.25383800  0.86341600  1
  O  O48  1  0.45735200  0.24616200  0.36341600  1
  O  O49  1  0.04264800  0.25383800  0.86341600  1
  O  O50  1  0.95735200  0.75383800  0.63658400  1
  O  O51  1  0.54264800  0.74616200  0.13658400  1
  O  O52  1  0.75000000  0.34178600  0.51508100  1
  O  O53  1  0.75000000  0.15821400  0.01508100  1
  O  O54  1  0.25000000  0.65821400  0.48491900  1
  O  O55  1  0.25000000  0.84178600  0.98491900  1
  O  O56  1  0.55050100  0.61274600  0.48781500  1
  O  O57  1  0.94949900  0.88725400  0.98781500  1
  O  O58  1  0.05050100  0.38725400  0.51218500  1
  O  O59  1  0.44949900  0.11274600  0.01218500  1
  O  O60  1  0.44949900  0.38725400  0.51218500  1
  O  O61  1  0.05050100  0.11274600  0.01218500  1
  O  O62  1  0.94949900  0.61274600  0.48781500  1
  O  O63  1  0.55050100  0.88725400  0.98781500  1
loop_
_geom_bond_atom_site_label_1
_geom_bond_atom_site_label_2
_geom_bond_distance
_geom_bond_site_symmetry_2
H0 Os12 1.839240 1_555
H0 Os4 1.856139 1_555
H1 Os13 1.839240 1_555
H1 Os5 1.856139 1_565
H2 Os14 1.839240 1_555
H2 Os6 1.856139 1_555
H3 Os15 1.839240 1_555
H3 Os7 1.856139 1_545
H4 Os14 1.839240 1_555
H4 Os8 1.856139 1_555
H5 Os15 1.839240 1_555
H5 Os9 1.856139 1_545
H6 Os12 1.839240 1_555
H6 Os10 1.856139 1_555
H7 Os13 1.839240 1_555
H7 Os11 1.856139 1_565
C0 O0 1.155851 1_555
C0 Os0 1.961711 1_555
C1 O1 1.155851 1_555
C1 Os1 1.961711 1_555
C2 O2 1.155851 1_555
C2 Os2 1.961711 1_555
C3 O3 1.155851 1_555
C3 Os3 1.961711 1_555
C4 O4 1.159787 1_556
C4 Os0 1.914985 1_555
C5 O5 1.159787 1_555
C5 Os1 1.914985 1_555
C6 O6 1.159787 1_554
C6 Os2 1.914985 1_555
C7 O7 1.159787 1_555
C7 Os3 1.914985 1_555
C8 O8 1.159787 1_554
C8 Os2 1.914985 1_555
C9 O9 1.159787 1_555
C9 Os3 1.914985 1_555
C10 O10 1.159787 1_556
C10 Os0 1.914985 1_555
C11 O11 1.159787 1_555
C11 Os1 1.914985 1_555
C12 O12 1.153801 1_555
C12 Os0 1.968941 1_555
C13 O13 1.153801 1_555
C13 Os1 1.968941 1_565
C14 O14 1.153801 1_555
C14 Os2 1.968941 1_555
C15 O15 1.153801 1_555
C15 Os3 1.968941 1_545
C16 O16 1.164294 1_555
C16 Os4 1.904540 1_555
C17 O17 1.164294 1_555
C17 Os5 1.904540 1_555
C18 O18 1.164294 1_555
C18 Os6 1.904540 1_555
C19 O19 1.164294 1_555
C19 Os7 1.904540 1_555
C20 O20 1.164294 1_555
C20 Os8 1.904540 1_555
C21 O21 1.164294 1_555
C21 Os9 1.904540 1_555
C22 O22 1.164294 1_555
C22 Os10 1.904540 1_555
C23 O23 1.164294 1_555
C23 Os11 1.904540 1_555
C24 O24 1.165096 1_555
C24 Os4 1.917726 1_455
C25 O25 1.165096 1_555
C25 Os5 1.917726 1_565
C26 O26 1.165096 1_555
C26 Os6 1.917726 1_555
C27 O27 1.165096 1_555
C27 Os7 1.917726 1_645
C28 O28 1.165096 1_555
C28 Os8 1.917726 1_655
C29 O29 1.165096 1_555
C29 Os9 1.917726 1_545
C30 O30 1.165096 1_555
C30 Os10 1.917726 1_555
C31 O31 1.165096 1_555
C31 Os11 1.917726 1_465
C32 O32 1.167845 1_555
C32 Os4 1.914222 1_455
C33 O33 1.167845 1_555
C33 Os5 1.914222 1_555
C34 O34 1.167845 1_555
C34 Os6 1.914222 1_555
C35 O35 1.167845 1_555
C35 Os7 1.914222 1_655
C36 O36 1.167845 1_555
C36 Os8 1.914222 1_655
C37 O37 1.167845 1_555
C37 Os9 1.914222 1_555
C38 O38 1.167845 1_555
C38 Os10 1.914222 1_555
C39 O39 1.167845 1_555
C39 Os11 1.914222 1_455
C40 O40 1.165183 1_555
C40 Os12 1.927921 1_555
C41 O41 1.165183 1_555
C41 Os13 1.927921 1_555
C42 O42 1.165183 1_555
C42 Os14 1.927921 1_555
C43 O43 1.165183 1_555
C43 Os15 1.927921 1_555
C44 O44 1.165678 1_555
C44 Os12 1.895130 1_555
C45 O45 1.165678 1_555
C45 Os13 1.895130 1_555
C46 O46 1.165678 1_555
C46 Os14 1.895130 1_555
C47 O47 1.165678 1_555
C47 Os15 1.895130 1_555
C48 O48 1.165678 1_555
C48 Os14 1.895130 1_555
C49 O49 1.165678 1_555
C49 Os15 1.895130 1_555
C50 O50 1.165678 1_555
C50 Os12 1.895130 1_555
C51 O51 1.165678 1_555
C51 Os13 1.895130 1_555
C52 O52 1.163555 1_555
C52 Os16 1.912901 1_555
C53 O53 1.163555 1_555
C53 Os17 1.912901 1_545
C54 O54 1.163555 1_555
C54 Os18 1.912901 1_555
C55 O55 1.163555 1_555
C55 Os19 1.912901 1_565
C56 O56 1.166850 1_555
C56 Os16 1.880348 1_555
C57 O57 1.166850 1_554
C57 Os17 1.880348 1_555
C58 O58 1.166850 1_555
C58 Os18 1.880348 1_555
C59 O59 1.166850 1_556
C59 Os19 1.880348 1_555
C60 O60 1.166850 1_555
C60 Os18 1.880348 1_555
C61 O61 1.166850 1_556
C61 Os19 1.880348 1_555
C62 O62 1.166850 1_555
C62 Os16 1.880348 1_555
C63 O63 1.166850 1_554
C63 Os17 1.880348 1_555
