# generated using pymatgen
data_Li2Mn3O7
_symmetry_space_group_name_H-M   'P 1'
_cell_length_a   5.90320406
_cell_length_b   6.36849865
_cell_length_c   7.48809344
_cell_angle_alpha   103.98253548
_cell_angle_beta   111.78447099
_cell_angle_gamma   104.86515344
_symmetry_Int_Tables_number   1
_chemical_formula_structural   Li2Mn3O7
_chemical_formula_sum   'Li4 Mn6 O14'
_cell_volume   234.19061450
_cell_formula_units_Z   2
loop_
 _symmetry_equiv_pos_site_id
 _symmetry_equiv_pos_as_xyz
  1  'x, y, z'
loop_
 _atom_site_type_symbol
 _atom_site_label
 _atom_site_symmetry_multiplicity
 _atom_site_fract_x
 _atom_site_fract_y
 _atom_site_fract_z
 _atom_site_occupancy
  Li  Li0  1  0.22070154  0.84569940  0.53282375  1
  Li  Li1  1  0.77857406  0.27820427  0.93284269  1
  Li  Li2  1  0.22142594  0.72179573  0.06715731  1
  Li  Li3  1  0.77929846  0.15430060  0.46717625  1
  Mn  Mn0  1  0.58072401  0.57904267  0.35894505  1
  Mn  Mn1  1  0.85814226  0.85725526  0.77801960  1
  Mn  Mn2  1  0.71791623  0.72381221  0.07856669  1
  Mn  Mn3  1  0.28208377  0.27618779  0.92143331  1
  Mn  Mn4  1  0.14185774  0.14274474  0.22198040  1
  Mn  Mn5  1  0.41927599  0.42095733  0.64105495  1
  O  O0  1  0.49666426  0.70444967  0.57471056  1
  O  O1  1  0.65166589  0.44574350  0.13830357  1
  O  O2  1  0.91760570  0.71021765  0.56903952  1
  O  O3  1  0.21512139  0.00662777  0.99098775  1
  O  O4  1  0.21012960  0.41354211  0.14309504  1
  O  O5  1  0.07654580  0.86003989  0.25752033  1
  O  O6  1  0.39577110  0.17327706  0.72965094  1
  O  O7  1  0.60422890  0.82672294  0.27034906  1
  O  O8  1  0.92345420  0.13996011  0.74247967  1
  O  O9  1  0.78987040  0.58645789  0.85690496  1
  O  O10  1  0.78487861  0.99337223  0.00901225  1
  O  O11  1  0.08239430  0.28978235  0.43096048  1
  O  O12  1  0.34833411  0.55425650  0.86169643  1
  O  O13  1  0.50333574  0.29555033  0.42528944  1
loop_
_geom_bond_atom_site_label_1
_geom_bond_atom_site_label_2
_geom_bond_distance
_geom_bond_site_symmetry_2
Li0 O2 1.923663 1_455
Li0 O5 1.952190 1_555
Li0 O6 1.967182 1_565
Li0 O0 2.017525 1_555
Li1 O6 2.012453 1_555
Li1 O10 2.033713 1_546
Li1 O8 2.055056 1_555
Li1 O1 2.130502 1_556
Li1 O9 2.163797 1_555
Li1 O4 2.225373 1_656
Li2 O7 2.012453 1_555
Li2 O3 2.033713 1_564
Li2 O5 2.055056 1_555
Li2 O12 2.130502 1_554
Li2 O4 2.163797 1_555
Li2 O9 2.225373 1_454
Li3 O11 1.923663 1_655
Li3 O8 1.952190 1_555
Li3 O7 1.967182 1_545
Li3 O13 2.017525 1_555
Mn0 O2 1.821548 1_555
Mn0 O7 1.846383 1_555
Mn0 O1 1.908907 1_555
Mn0 O0 1.915548 1_555
Mn0 O4 1.969386 1_555
Mn0 O13 1.973259 1_555
Mn1 O2 1.821293 1_555
Mn1 O8 1.847288 1_565
Mn1 O0 1.904076 1_555
Mn1 O3 1.906007 1_665
Mn1 O9 1.948815 1_555
Mn1 O10 1.988305 1_556
Mn2 O5 1.849444 1_655
Mn2 O7 1.851613 1_555
Mn2 O10 1.900332 1_555
Mn2 O1 1.909544 1_555
Mn2 O9 1.926889 1_554
Mn2 O12 1.969059 1_554
Mn3 O8 1.849444 1_455
Mn3 O6 1.851613 1_555
Mn3 O3 1.900332 1_555
Mn3 O12 1.909544 1_555
Mn3 O4 1.926889 1_556
Mn3 O1 1.969059 1_556
Mn4 O11 1.821293 1_555
Mn4 O5 1.847288 1_545
Mn4 O13 1.904076 1_555
Mn4 O10 1.906007 1_445
Mn4 O4 1.948815 1_555
Mn4 O3 1.988305 1_554
Mn5 O11 1.821548 1_555
Mn5 O6 1.846383 1_555
Mn5 O12 1.908907 1_555
Mn5 O13 1.915548 1_555
Mn5 O9 1.969386 1_555
Mn5 O0 1.973259 1_555
