# generated using pymatgen
data_Mn2PO5
_symmetry_space_group_name_H-M   'P 1'
_cell_length_a   6.33192645
_cell_length_b   7.60202023
_cell_length_c   7.78849457
_cell_angle_alpha   90.00000000
_cell_angle_beta   90.00000000
_cell_angle_gamma   90.00000000
_symmetry_Int_Tables_number   1
_chemical_formula_structural   Mn2PO5
_chemical_formula_sum   'Mn8 P4 O20'
_cell_volume   374.90255829
_cell_formula_units_Z   4
loop_
 _symmetry_equiv_pos_site_id
 _symmetry_equiv_pos_as_xyz
  1  'x, y, z'
loop_
 _atom_site_type_symbol
 _atom_site_label
 _atom_site_symmetry_multiplicity
 _atom_site_fract_x
 _atom_site_fract_y
 _atom_site_fract_z
 _atom_site_occupancy
  Mn  Mn0  1  0.00000000  0.00000000  -0.00000000  1
  Mn  Mn1  1  0.50000000  0.00000000  -0.00000000  1
  Mn  Mn2  1  0.25000000  0.14469138  0.67960832  1
  Mn  Mn3  1  0.75000000  0.35530862  0.17960832  1
  Mn  Mn4  1  0.00000000  0.50000000  0.50000000  1
  Mn  Mn5  1  0.50000000  0.50000000  0.50000000  1
  Mn  Mn6  1  0.25000000  0.64469138  0.82039168  1
  Mn  Mn7  1  0.75000000  0.85530862  0.32039168  1
  P  P0  1  0.75000000  0.13404450  0.66380382  1
  P  P1  1  0.25000000  0.36595550  0.16380382  1
  P  P2  1  0.75000000  0.63404450  0.83619618  1
  P  P3  1  0.25000000  0.86595550  0.33619618  1
  O  O0  1  0.25000000  0.02089394  0.45520770  1
  O  O1  1  0.75000000  0.09414143  0.10956062  1
  O  O2  1  0.94772225  0.13043836  0.78231713  1
  O  O3  1  0.55227775  0.13043836  0.78231713  1
  O  O4  1  0.25000000  0.19076664  0.06708784  1
  O  O5  1  0.75000000  0.30923336  0.56708784  1
  O  O6  1  0.05227775  0.36956164  0.28231713  1
  O  O7  1  0.44772225  0.36956164  0.28231713  1
  O  O8  1  0.25000000  0.40585857  0.60956062  1
  O  O9  1  0.75000000  0.47910606  0.95520770  1
  O  O10  1  0.25000000  0.52089394  0.04479230  1
  O  O11  1  0.75000000  0.59414143  0.39043938  1
  O  O12  1  0.55227775  0.63043836  0.71768287  1
  O  O13  1  0.94772225  0.63043836  0.71768287  1
  O  O14  1  0.25000000  0.69076664  0.43291216  1
  O  O15  1  0.75000000  0.80923336  0.93291216  1
  O  O16  1  0.05227775  0.86956164  0.21768287  1
  O  O17  1  0.44772225  0.86956164  0.21768287  1
  O  O18  1  0.25000000  0.90585857  0.89043938  1
  O  O19  1  0.75000000  0.97910606  0.54479230  1
loop_
_geom_bond_atom_site_label_1
_geom_bond_atom_site_label_2
_geom_bond_distance
_geom_bond_site_symmetry_2
Mn0 O18 1.935497 1_544
Mn0 O1 1.935497 1_455
Mn0 O2 1.991806 1_454
Mn0 O16 1.991806 1_545
Mn0 O4 2.209517 1_555
Mn0 O15 2.209517 1_444
Mn1 O18 1.935497 1_544
Mn1 O1 1.935497 1_555
Mn1 O3 1.991806 1_554
Mn1 O17 1.991806 1_545
Mn1 O4 2.209517 1_555
Mn1 O15 2.209517 1_544
Mn2 O0 1.985018 1_555
Mn2 O8 2.058992 1_555
Mn2 O3 2.077271 1_555
Mn2 O2 2.077271 1_455
Mn2 O18 2.448019 1_545
Mn3 O9 1.985018 1_554
Mn3 O1 2.058992 1_555
Mn3 O6 2.077271 1_655
Mn3 O7 2.077271 1_555
Mn3 O11 2.448019 1_555
Mn4 O11 1.935497 1_455
Mn4 O8 1.935497 1_555
Mn4 O13 1.991806 1_455
Mn4 O6 1.991806 1_555
Mn4 O5 2.209517 1_455
Mn4 O14 2.209517 1_555
Mn5 O11 1.935497 1_555
Mn5 O8 1.935497 1_555
Mn5 O7 1.991806 1_555
Mn5 O12 1.991806 1_555
Mn5 O14 2.209517 1_555
Mn5 O5 2.209517 1_555
Mn6 O10 1.985018 1_556
Mn6 O18 2.058992 1_555
Mn6 O13 2.077271 1_455
Mn6 O12 2.077271 1_555
Mn6 O8 2.448019 1_555
Mn7 O19 1.985018 1_555
Mn7 O11 2.058992 1_555
Mn7 O16 2.077271 1_655
Mn7 O17 2.077271 1_555
Mn7 O1 2.448019 1_565
O0 P3 1.498833 1_545
O2 P0 1.555688 1_555
O3 P0 1.555688 1_555
O4 P1 1.530059 1_555
O5 P0 1.530059 1_555
O6 P1 1.555688 1_555
O7 P1 1.555688 1_555
O9 P2 1.498833 1_555
O10 P1 1.498833 1_555
O12 P2 1.555688 1_555
O13 P2 1.555688 1_555
O14 P3 1.530059 1_555
O15 P2 1.530059 1_555
O16 P3 1.555688 1_555
O17 P3 1.555688 1_555
O19 P0 1.498833 1_565
