# generated using pymatgen
data_LiMn3(NiO4)2
_symmetry_space_group_name_H-M   'P 1'
_cell_length_a   5.95560691
_cell_length_b   5.95560691
_cell_length_c   5.95560691
_cell_angle_alpha   121.21523352
_cell_angle_beta   120.47303682
_cell_angle_gamma   88.54526209
_symmetry_Int_Tables_number   1
_chemical_formula_structural   LiMn3(NiO4)2
_chemical_formula_sum   'Li1 Mn3 Ni2 O8'
_cell_volume   147.40453560
_cell_formula_units_Z   1
loop_
 _symmetry_equiv_pos_site_id
 _symmetry_equiv_pos_as_xyz
  1  'x, y, z'
loop_
 _atom_site_type_symbol
 _atom_site_label
 _atom_site_symmetry_multiplicity
 _atom_site_fract_x
 _atom_site_fract_y
 _atom_site_fract_z
 _atom_site_occupancy
  Li  Li0  1  0.38517900  0.38517900  0.00000000  1
  Mn  Mn0  1  0.11527100  0.61527100  0.50000000  1
  Mn  Mn1  1  0.74636700  0.00017900  0.25381200  1
  Mn  Mn2  1  0.74636700  0.49255500  0.74618800  1
  Ni  Ni0  1  0.25344700  0.00114200  0.25230500  1
  Ni  Ni1  1  0.74883700  0.00114200  0.74769500  1
  O  O0  1  0.97652100  0.20479700  0.22827600  1
  O  O1  1  0.97652100  0.74824500  0.77172400  1
  O  O2  1  0.97226500  0.75311100  0.21915400  1
  O  O3  1  0.53395700  0.75311100  0.78084600  1
  O  O4  1  0.96660300  0.24857500  0.71802900  1
  O  O5  1  0.53054600  0.24857500  0.28197100  1
  O  O6  1  0.52405900  0.79334900  0.26929000  1
  O  O7  1  0.52405900  0.25476900  0.73071000  1
loop_
_geom_bond_atom_site_label_1
_geom_bond_atom_site_label_2
_geom_bond_distance
_geom_bond_site_symmetry_2
Li0 O7 1.970075 1_554
Li0 O6 1.970075 1_555
Li0 O5 2.034014 1_555
Li0 O4 2.034019 1_454
Mn0 O1 1.980801 1_455
Mn0 O0 1.980801 1_455
Mn0 O2 2.034637 1_455
Mn0 O3 2.034637 1_555
Mn1 O6 1.898165 1_545
Mn1 O5 1.932264 1_555
Mn1 O4 1.932265 1_555
Mn1 O0 1.968592 1_555
Mn1 O2 1.970804 1_545
Mn1 O3 1.970804 1_544
Mn2 O7 1.898165 1_555
Mn2 O4 1.932260 1_555
Mn2 O5 1.932264 1_555
Mn2 O1 1.968592 1_555
Mn2 O2 1.970804 1_556
Mn2 O3 1.970804 1_555
Ni0 O6 2.000574 1_545
Ni0 O7 2.000574 1_555
Ni0 O0 2.012610 1_455
Ni0 O1 2.012610 1_444
Ni0 O5 2.117570 1_555
Ni0 O2 2.124455 1_445
Ni1 O7 2.000574 1_555
Ni1 O6 2.000574 1_545
Ni1 O0 2.012610 1_556
Ni1 O1 2.012610 1_545
Ni1 O4 2.117566 1_555
Ni1 O3 2.124455 1_545
