# generated using pymatgen
data_Li3FeBPO7
_symmetry_space_group_name_H-M   'P 1'
_cell_length_a   6.44885600
_cell_length_b   5.02020800
_cell_length_c   8.42058511
_cell_angle_alpha   86.39198858
_cell_angle_beta   90.00000000
_cell_angle_gamma   90.00000000
_symmetry_Int_Tables_number   1
_chemical_formula_structural   Li3FeBPO7
_chemical_formula_sum   'Li6 Fe2 B2 P2 O14'
_cell_volume   272.07272631
_cell_formula_units_Z   2
loop_
 _symmetry_equiv_pos_site_id
 _symmetry_equiv_pos_as_xyz
  1  'x, y, z'
loop_
 _atom_site_type_symbol
 _atom_site_label
 _atom_site_symmetry_multiplicity
 _atom_site_fract_x
 _atom_site_fract_y
 _atom_site_fract_z
 _atom_site_occupancy
  Li  Li0  1  0.75000000  0.26293800  0.91651000  1
  Li  Li1  1  0.00999500  0.75376200  0.76885600  1
  Li  Li2  1  0.49000500  0.75376200  0.76885600  1
  Li  Li3  1  0.50999500  0.24623800  0.23114400  1
  Li  Li4  1  0.99000500  0.24623800  0.23114400  1
  Li  Li5  1  0.25000000  0.73706200  0.08349000  1
  Fe  Fe0  1  0.25000000  0.21695300  0.66738800  1
  Fe  Fe1  1  0.75000000  0.78304700  0.33261200  1
  B  B0  1  0.25000000  0.27123800  0.95685200  1
  B  B1  1  0.75000000  0.72876200  0.04314800  1
  P  P0  1  0.75000000  0.28079500  0.58062400  1
  P  P1  1  0.25000000  0.71920500  0.41937600  1
  O  O0  1  0.75000000  0.66675800  0.88876200  1
  O  O1  1  0.25000000  0.01426100  0.90097900  1
  O  O2  1  0.25000000  0.47656100  0.83361300  1
  O  O3  1  0.93795800  0.19159900  0.68613200  1
  O  O4  1  0.56204200  0.19159900  0.68613200  1
  O  O5  1  0.75000000  0.58967600  0.54745000  1
  O  O6  1  0.25000000  0.84513600  0.58254800  1
  O  O7  1  0.75000000  0.15486400  0.41745200  1
  O  O8  1  0.25000000  0.41032400  0.45255000  1
  O  O9  1  0.43795800  0.80840100  0.31386800  1
  O  O10  1  0.06204200  0.80840100  0.31386800  1
  O  O11  1  0.75000000  0.52343900  0.16638700  1
  O  O12  1  0.75000000  0.98573900  0.09902100  1
  O  O13  1  0.25000000  0.33324200  0.11123800  1
loop_
_geom_bond_atom_site_label_1
_geom_bond_atom_site_label_2
_geom_bond_distance
_geom_bond_site_symmetry_2
Li0 O12 2.007305 1_546
Li0 O0 2.026021 1_555
Li0 O4 2.334139 1_555
Li0 O3 2.334139 1_555
Li0 O11 2.546344 1_556
Li1 O0 1.991468 1_455
Li1 O2 2.129310 1_555
Li1 O6 2.230830 1_555
Li1 O3 2.310776 1_465
Li1 O1 2.350890 1_565
Li2 O0 1.991468 1_555
Li2 O2 2.129310 1_555
Li2 O6 2.230830 1_555
Li2 O4 2.310776 1_565
Li2 O1 2.350890 1_565
Li3 O13 1.991468 1_555
Li3 O11 2.129310 1_555
Li3 O7 2.230830 1_555
Li3 O9 2.310776 1_545
Li3 O12 2.350890 1_545
Li4 O13 1.991468 1_655
Li4 O11 2.129310 1_555
Li4 O7 2.230830 1_555
Li4 O10 2.310776 1_645
Li4 O12 2.350890 1_545
Li5 O1 2.007305 1_564
Li5 O13 2.026021 1_555
Li5 O10 2.334139 1_555
Li5 O9 2.334139 1_555
Li5 O2 2.546344 1_554
Fe0 O2 1.971635 1_555
Fe0 O8 1.998513 1_555
Fe0 O4 2.021878 1_555
Fe0 O3 2.021878 1_455
Fe0 O6 2.040195 1_545
Fe0 O1 2.156964 1_555
Fe1 O11 1.971635 1_555
Fe1 O5 1.998513 1_555
Fe1 O10 2.021878 1_655
Fe1 O9 2.021878 1_555
Fe1 O7 2.040195 1_565
Fe1 O12 2.156964 1_555
B0 O13 1.355682 1_556
B0 O1 1.400731 1_555
B0 O2 1.415895 1_555
B1 O0 1.355682 1_554
B1 O12 1.400731 1_555
B1 O11 1.415895 1_555
O3 P0 1.552090 1_555
O4 P0 1.552090 1_555
O5 P0 1.558211 1_555
O6 P1 1.548189 1_555
O7 P0 1.548189 1_555
O8 P1 1.558211 1_555
O9 P1 1.552090 1_555
O10 P1 1.552090 1_555
