# generated using pymatgen
data_LiMnPO4
_symmetry_space_group_name_H-M   'P 1'
_cell_length_a   5.78497709
_cell_length_b   7.82114189
_cell_length_c   8.75931703
_cell_angle_alpha   105.79974529
_cell_angle_beta   98.40801401
_cell_angle_gamma   97.88569069
_symmetry_Int_Tables_number   1
_chemical_formula_structural   LiMnPO4
_chemical_formula_sum   'Li4 Mn4 P4 O16'
_cell_volume   370.66448267
_cell_formula_units_Z   4
loop_
 _symmetry_equiv_pos_site_id
 _symmetry_equiv_pos_as_xyz
  1  'x, y, z'
loop_
 _atom_site_type_symbol
 _atom_site_label
 _atom_site_symmetry_multiplicity
 _atom_site_fract_x
 _atom_site_fract_y
 _atom_site_fract_z
 _atom_site_occupancy
  Li  Li0  1  0.02432100  0.83283400  0.75651200  1
  Li  Li1  1  0.97561700  0.16710900  0.24348800  1
  Li  Li2  1  0.79294200  0.39845500  0.95753500  1
  Li  Li3  1  0.20703700  0.60152400  0.04246700  1
  Mn  Mn0  1  0.49811000  0.01287900  0.73599800  1
  Mn  Mn1  1  0.50205300  0.98734700  0.26410200  1
  Mn  Mn2  1  0.61353000  0.45676700  0.33056200  1
  Mn  Mn3  1  0.38653000  0.54332100  0.66949400  1
  P  P0  1  0.17979200  0.67292400  0.40233900  1
  P  P1  1  0.82027500  0.32708200  0.59764600  1
  P  P2  1  0.28434400  0.21887800  0.03669100  1
  P  P3  1  0.71560100  0.78110900  0.96331100  1
  O  O0  1  0.54196300  0.33327300  0.07422500  1
  O  O1  1  0.45800200  0.66666000  0.92581600  1
  O  O2  1  0.28379100  0.49861400  0.40448100  1
  O  O3  1  0.71624600  0.50136000  0.59550200  1
  O  O4  1  0.91361500  0.63302300  0.33648300  1
  O  O5  1  0.08647100  0.36697000  0.66346500  1
  O  O6  1  0.72800700  0.86507400  0.81949100  1
  O  O7  1  0.27181500  0.13485500  0.18047100  1
  O  O8  1  0.09640000  0.33913600  0.03576800  1
  O  O9  1  0.90356900  0.66085100  0.96417900  1
  O  O10  1  0.23657900  0.78944300  0.58728300  1
  O  O11  1  0.76341500  0.21053300  0.41270700  1
  O  O12  1  0.24861900  0.06260200  0.87694700  1
  O  O13  1  0.75129600  0.93737900  0.12304300  1
  O  O14  1  0.68142500  0.23269700  0.70032000  1
  O  O15  1  0.31863300  0.76729900  0.29967500  1
loop_
_geom_bond_atom_site_label_1
_geom_bond_atom_site_label_2
_geom_bond_distance
_geom_bond_site_symmetry_2
Li0 O6 1.904121 1_455
Li0 O12 1.988327 1_565
Li0 O10 2.047664 1_555
Li1 O7 1.903624 1_655
Li1 O13 1.988205 1_545
Li1 O11 2.047374 1_555
Li2 O8 1.952283 1_656
Li2 O0 1.981746 1_556
Li2 O9 2.046537 1_555
Li2 O14 2.219888 1_555
Li3 O9 1.952499 1_454
Li3 O1 1.981339 1_554
Li3 O8 2.046348 1_555
Li3 O15 2.219902 1_555
Mn0 O14 2.016739 1_555
Mn0 O12 2.042620 1_555
Mn0 O6 2.058584 1_545
Mn0 O10 2.120917 1_545
Mn1 O15 2.018055 1_555
Mn1 O13 2.042310 1_555
Mn1 O7 2.058675 1_565
Mn1 O11 2.119050 1_565
Mn2 O4 2.048108 1_555
Mn2 O2 2.140592 1_555
Mn2 O0 2.140863 1_555
Mn2 O3 2.226983 1_555
Mn2 O11 2.451268 1_555
Mn3 O5 2.048137 1_555
Mn3 O1 2.140589 1_555
Mn3 O3 2.140887 1_555
Mn3 O2 2.227464 1_555
Mn3 O10 2.450891 1_555
O0 P2 1.568530 1_555
O1 P3 1.568624 1_555
O2 P0 1.567353 1_555
O3 P1 1.567212 1_555
O4 P0 1.520384 1_655
O5 P1 1.520433 1_455
O6 P3 1.577158 1_555
O7 P2 1.577196 1_555
O8 P2 1.532644 1_555
O9 P3 1.532721 1_555
O10 P0 1.587780 1_555
O11 P1 1.587798 1_555
O12 P2 1.552199 1_556
O13 P3 1.552123 1_554
O14 P1 1.552116 1_555
O15 P0 1.551975 1_555
