# generated using pymatgen
data_LiFeB2O5
_symmetry_space_group_name_H-M   'P 1'
_cell_length_a   10.83602400
_cell_length_b   5.48391800
_cell_length_c   12.02367401
_cell_angle_alpha   79.41100991
_cell_angle_beta   90.00000000
_cell_angle_gamma   90.00000000
_symmetry_Int_Tables_number   1
_chemical_formula_structural   LiFeB2O5
_chemical_formula_sum   'Li8 Fe8 B16 O40'
_cell_volume   702.32587147
_cell_formula_units_Z   8
loop_
 _symmetry_equiv_pos_site_id
 _symmetry_equiv_pos_as_xyz
  1  'x, y, z'
loop_
 _atom_site_type_symbol
 _atom_site_label
 _atom_site_symmetry_multiplicity
 _atom_site_fract_x
 _atom_site_fract_y
 _atom_site_fract_z
 _atom_site_occupancy
  Li  Li0  1  0.62512100  0.36753200  0.06135900  1
  Li  Li1  1  0.87487900  0.86753200  0.06135900  1
  Li  Li2  1  0.11221300  0.11874300  0.43914600  1
  Li  Li3  1  0.38778700  0.61874300  0.43914600  1
  Li  Li4  1  0.61221300  0.38125700  0.56085400  1
  Li  Li5  1  0.88778700  0.88125700  0.56085400  1
  Li  Li6  1  0.12512100  0.13246800  0.93864100  1
  Li  Li7  1  0.37487900  0.63246800  0.93864100  1
  Fe  Fe0  1  0.37677400  0.27065100  0.23819900  1
  Fe  Fe1  1  0.87468800  0.24940500  0.25880100  1
  Fe  Fe2  1  0.12322600  0.77065100  0.23819900  1
  Fe  Fe3  1  0.62531200  0.74940500  0.25880100  1
  Fe  Fe4  1  0.37468800  0.25059500  0.74119900  1
  Fe  Fe5  1  0.87677400  0.22934900  0.76180100  1
  Fe  Fe6  1  0.12531200  0.75059500  0.74119900  1
  Fe  Fe7  1  0.62322600  0.72934900  0.76180100  1
  B  B0  1  0.36993700  0.14368100  0.00333100  1
  B  B1  1  0.13006300  0.64368100  0.00333100  1
  B  B2  1  0.11917300  0.30895700  0.16547100  1
  B  B3  1  0.38082700  0.80895700  0.16547100  1
  B  B4  1  0.62767200  0.20469000  0.33624300  1
  B  B5  1  0.87232800  0.70469000  0.33624300  1
  B  B6  1  0.38806100  0.15722200  0.50791900  1
  B  B7  1  0.88806100  0.34277800  0.49208100  1
  B  B8  1  0.11193900  0.65722200  0.50791900  1
  B  B9  1  0.61193900  0.84277800  0.49208100  1
  B  B10  1  0.12767200  0.29531000  0.66375700  1
  B  B11  1  0.37232800  0.79531000  0.66375700  1
  B  B12  1  0.61917300  0.19104300  0.83452900  1
  B  B13  1  0.88082700  0.69104300  0.83452900  1
  B  B14  1  0.86993700  0.35631900  0.99666900  1
  B  B15  1  0.63006300  0.85631900  0.99666900  1
  O  O0  1  0.39620400  0.31890600  0.06718200  1
  O  O1  1  0.11114500  0.38596300  0.04866100  1
  O  O2  1  0.82119100  0.29869900  0.10255600  1
  O  O3  1  0.10379600  0.81890600  0.06718200  1
  O  O4  1  0.38885500  0.88596300  0.04866100  1
  O  O5  1  0.67880900  0.79869900  0.10255600  1
  O  O6  1  0.04498800  0.12009500  0.21965800  1
  O  O7  1  0.55437800  0.11512800  0.25778800  1
  O  O8  1  0.19891000  0.43094500  0.22653000  1
  O  O9  1  0.45501200  0.62009500  0.21965800  1
  O  O10  1  0.70500300  0.40286400  0.29879700  1
  O  O11  1  0.94562200  0.61512800  0.25778800  1
  O  O12  1  0.30109000  0.93094500  0.22653000  1
  O  O13  1  0.79499700  0.90286400  0.29879700  1
  O  O14  1  0.35619400  0.25541900  0.39958900  1
  O  O15  1  0.62773300  0.10231400  0.45229700  1
  O  O16  1  0.92794000  0.19006000  0.42120100  1
  O  O17  1  0.14380600  0.75541900  0.39958900  1
  O  O18  1  0.87226700  0.60231400  0.45229700  1
  O  O19  1  0.57206000  0.69006000  0.42120100  1
  O  O20  1  0.42794000  0.30994000  0.57879900  1
  O  O21  1  0.12773300  0.39768600  0.54770300  1
  O  O22  1  0.85619400  0.24458100  0.60041100  1
  O  O23  1  0.07206000  0.80994000  0.57879900  1
  O  O24  1  0.37226700  0.89768600  0.54770300  1
  O  O25  1  0.64380600  0.74458100  0.60041100  1
  O  O26  1  0.20500300  0.09713600  0.70120300  1
  O  O27  1  0.69891000  0.06905500  0.77347000  1
  O  O28  1  0.05437800  0.38487200  0.74221200  1
  O  O29  1  0.29499700  0.59713600  0.70120300  1
  O  O30  1  0.54498800  0.37990500  0.78034200  1
  O  O31  1  0.80109000  0.56905500  0.77347000  1
  O  O32  1  0.44562200  0.88487200  0.74221200  1
  O  O33  1  0.95501200  0.87990500  0.78034200  1
  O  O34  1  0.32119100  0.20130100  0.89744400  1
  O  O35  1  0.61114500  0.11403700  0.95133900  1
  O  O36  1  0.89620400  0.18109400  0.93281800  1
  O  O37  1  0.17880900  0.70130100  0.89744400  1
  O  O38  1  0.88885500  0.61403700  0.95133900  1
  O  O39  1  0.60379600  0.68109400  0.93281800  1
loop_
_geom_bond_atom_site_label_1
_geom_bond_atom_site_label_2
_geom_bond_distance
_geom_bond_site_symmetry_2
Li0 O35 2.093136 1_554
Li0 O39 2.102898 1_554
Li0 O2 2.198439 1_555
Li0 O0 2.494449 1_555
Li0 O5 2.570029 1_555
Li0 O7 2.623004 1_555
Li1 O38 2.093136 1_554
Li1 O36 2.102898 1_564
Li1 O5 2.198439 1_555
Li1 O3 2.494449 1_655
Li1 O2 2.570029 1_565
Li1 O11 2.623004 1_555
Li2 O16 2.038542 1_455
Li2 O17 2.159053 1_545
Li2 O21 2.192207 1_555
Li2 O23 2.198074 1_545
Li3 O19 2.038542 1_555
Li3 O14 2.159053 1_555
Li3 O24 2.192207 1_555
Li3 O20 2.198074 1_555
Li4 O20 2.038542 1_555
Li4 O25 2.159053 1_555
Li4 O15 2.192207 1_555
Li4 O19 2.198074 1_555
Li5 O23 2.038542 1_655
Li5 O22 2.159053 1_565
Li5 O18 2.192207 1_555
Li5 O16 2.198074 1_565
Li6 O1 2.093136 1_556
Li6 O3 2.102898 1_546
Li6 O34 2.198439 1_555
Li6 O36 2.494449 1_455
Li6 O37 2.570029 1_545
Li6 O28 2.623004 1_555
Li7 O4 2.093136 1_556
Li7 O0 2.102898 1_556
Li7 O37 2.198439 1_555
Li7 O39 2.494449 1_555
Li7 O34 2.570029 1_555
Li7 O32 2.623004 1_555
Fe0 O14 1.939763 1_555
Fe0 O0 2.035325 1_555
Fe0 O12 2.063687 1_545
Fe0 O9 2.069716 1_555
Fe0 O7 2.100673 1_555
Fe0 O8 2.112274 1_555
Fe1 O2 1.936946 1_555
Fe1 O16 2.004534 1_555
Fe1 O6 2.062142 1_655
Fe1 O13 2.062184 1_545
Fe1 O10 2.114019 1_555
Fe1 O11 2.145785 1_555
Fe2 O17 1.939763 1_555
Fe2 O3 2.035325 1_555
Fe2 O8 2.063687 1_555
Fe2 O6 2.069716 1_565
Fe2 O11 2.100673 1_455
Fe2 O12 2.112274 1_555
Fe3 O5 1.936946 1_555
Fe3 O19 2.004534 1_555
Fe3 O9 2.062142 1_555
Fe3 O10 2.062184 1_555
Fe3 O13 2.114019 1_555
Fe3 O7 2.145785 1_565
Fe4 O34 1.936946 1_555
Fe4 O20 2.004534 1_555
Fe4 O30 2.062142 1_555
Fe4 O29 2.062184 1_555
Fe4 O26 2.114019 1_555
Fe4 O32 2.145785 1_545
Fe5 O22 1.939763 1_555
Fe5 O36 2.035325 1_555
Fe5 O31 2.063687 1_555
Fe5 O33 2.069716 1_545
Fe5 O28 2.100673 1_655
Fe5 O27 2.112274 1_555
Fe6 O37 1.936946 1_555
Fe6 O23 2.004534 1_555
Fe6 O33 2.062142 1_455
Fe6 O26 2.062184 1_565
Fe6 O29 2.114019 1_555
Fe6 O28 2.145785 1_555
Fe7 O25 1.939763 1_555
Fe7 O39 2.035325 1_555
Fe7 O27 2.063687 1_565
Fe7 O30 2.069716 1_555
Fe7 O32 2.100673 1_555
Fe7 O31 2.112274 1_555
B0 O34 1.360850 1_554
B0 O0 1.365617 1_555
B0 O4 1.432972 1_545
B1 O37 1.360850 1_554
B1 O3 1.365617 1_555
B1 O1 1.432972 1_555
B2 O6 1.376726 1_555
B2 O8 1.383314 1_555
B2 O1 1.393018 1_555
B3 O9 1.376726 1_555
B3 O12 1.383314 1_555
B3 O4 1.393018 1_555
B4 O10 1.380627 1_555
B4 O7 1.390012 1_555
B4 O15 1.405134 1_555
B5 O13 1.380627 1_555
B5 O11 1.390012 1_555
B5 O18 1.405134 1_555
B6 O14 1.359415 1_555
B6 O20 1.369948 1_555
B6 O24 1.426043 1_545
B7 O22 1.359415 1_555
B7 O16 1.369948 1_555
B7 O18 1.426043 1_555
B8 O17 1.359415 1_555
B8 O23 1.369948 1_555
B8 O21 1.426043 1_555
B9 O25 1.359415 1_555
B9 O19 1.369948 1_555
B9 O15 1.426043 1_565
B10 O26 1.380627 1_555
B10 O28 1.390012 1_555
B10 O21 1.405134 1_555
B11 O29 1.380627 1_555
B11 O32 1.390012 1_555
B11 O24 1.405134 1_555
B12 O30 1.376726 1_555
B12 O27 1.383314 1_555
B12 O35 1.393018 1_555
B13 O33 1.376726 1_555
B13 O31 1.383314 1_555
B13 O38 1.393018 1_555
B14 O2 1.360850 1_556
B14 O36 1.365617 1_555
B14 O38 1.432972 1_555
B15 O5 1.360850 1_556
B15 O39 1.365617 1_555
B15 O35 1.432972 1_565
