# generated using pymatgen
data_Na5Ti3O8
_symmetry_space_group_name_H-M   'P 1'
_cell_length_a   6.47711579
_cell_length_b   6.47711579
_cell_length_c   6.47711583
_cell_angle_alpha   56.87106973
_cell_angle_beta   56.87106973
_cell_angle_gamma   56.87106717
_symmetry_Int_Tables_number   1
_chemical_formula_structural   Na5Ti3O8
_chemical_formula_sum   'Na5 Ti3 O8'
_cell_volume   178.27408576
_cell_formula_units_Z   1
loop_
 _symmetry_equiv_pos_site_id
 _symmetry_equiv_pos_as_xyz
  1  'x, y, z'
loop_
 _atom_site_type_symbol
 _atom_site_label
 _atom_site_symmetry_multiplicity
 _atom_site_fract_x
 _atom_site_fract_y
 _atom_site_fract_z
 _atom_site_occupancy
  Na  Na0  1  0.00000000  0.50000000  0.00000000  1
  Na  Na1  1  0.00000000  0.00000000  0.00000000  1
  Na  Na2  1  0.50000000  0.00000000  0.00000000  1
  Na  Na3  1  0.00000000  0.00000000  0.50000000  1
  Na  Na4  1  0.50000000  0.50000000  0.50000000  1
  Ti  Ti0  1  0.50000000  0.50000000  0.00000000  1
  Ti  Ti1  1  0.50000000  0.00000000  0.50000000  1
  Ti  Ti2  1  0.00000000  0.50000000  0.50000000  1
  O  O0  1  0.73566300  0.73566300  0.73566300  1
  O  O1  1  0.24907000  0.24907000  0.70190600  1
  O  O2  1  0.70190600  0.24907000  0.24907000  1
  O  O3  1  0.29809400  0.75093000  0.75093000  1
  O  O4  1  0.75093000  0.29809400  0.75093000  1
  O  O5  1  0.26433700  0.26433700  0.26433700  1
  O  O6  1  0.24907000  0.70190600  0.24907000  1
  O  O7  1  0.75093000  0.75093000  0.29809400  1
loop_
_geom_bond_atom_site_label_1
_geom_bond_atom_site_label_2
_geom_bond_distance
_geom_bond_site_symmetry_2
Na0 O5 2.384063 1_555
Na0 O0 2.384063 1_454
Na0 O1 2.476200 1_554
Na0 O7 2.476200 1_455
Na0 O2 2.476200 1_455
Na0 O3 2.476200 1_554
Na1 O3 2.229015 1_544
Na1 O2 2.229015 1_455
Na1 O6 2.229015 1_545
Na1 O4 2.229015 1_454
Na1 O1 2.229016 1_554
Na1 O7 2.229016 1_445
Na2 O5 2.384063 1_555
Na2 O0 2.384063 1_544
Na2 O1 2.476200 1_554
Na2 O7 2.476200 1_545
Na2 O4 2.476200 1_554
Na2 O6 2.476200 1_545
Na3 O5 2.384063 1_555
Na3 O0 2.384063 1_445
Na3 O2 2.476200 1_455
Na3 O6 2.476200 1_545
Na3 O4 2.476200 1_455
Na3 O3 2.476200 1_545
Na4 O2 2.287857 1_555
Na4 O3 2.287857 1_555
Na4 O6 2.287857 1_555
Na4 O4 2.287857 1_555
Na4 O1 2.287857 1_555
Na4 O7 2.287857 1_555
O0 Ti1 2.103528 1_565
O0 Ti2 2.103528 1_655
O0 Ti0 2.103528 1_556
O1 Ti2 2.017729 1_555
O1 Ti1 2.017729 1_555
O2 Ti0 2.017729 1_555
O2 Ti1 2.017729 1_555
O3 Ti0 2.017729 1_556
O3 Ti1 2.017729 1_565
O4 Ti0 2.017729 1_556
O4 Ti2 2.017729 1_655
O5 Ti2 2.103528 1_555
O5 Ti1 2.103528 1_555
O5 Ti0 2.103528 1_555
O6 Ti0 2.017729 1_555
O6 Ti2 2.017729 1_555
O7 Ti1 2.017729 1_565
O7 Ti2 2.017729 1_655
