# generated using pymatgen
data_AlCuH28S2ClO22
_symmetry_space_group_name_H-M   'P 1'
_cell_length_a   6.26227700
_cell_length_b   6.30992089
_cell_length_c   13.42177896
_cell_angle_alpha   82.52479449
_cell_angle_beta   88.77079239
_cell_angle_gamma   85.33614665
_symmetry_Int_Tables_number   1
_chemical_formula_structural   AlCuH28S2ClO22
_chemical_formula_sum   'Al1 Cu1 H28 S2 Cl1 O22'
_cell_volume   524.07429478
_cell_formula_units_Z   1
loop_
 _symmetry_equiv_pos_site_id
 _symmetry_equiv_pos_as_xyz
  1  'x, y, z'
loop_
 _atom_site_type_symbol
 _atom_site_label
 _atom_site_symmetry_multiplicity
 _atom_site_fract_x
 _atom_site_fract_y
 _atom_site_fract_z
 _atom_site_occupancy
  Al  Al0  1  0.50000000  0.50000000  0.00000000  1
  Cu  Cu0  1  0.00000000  0.50000000  0.50000000  1
  H  H0  1  0.64978900  0.72114900  0.13069900  1
  H  H1  1  0.35021100  0.27885100  0.86930100  1
  H  H2  1  0.57772300  0.49575300  0.19111300  1
  H  H3  1  0.42227700  0.50424700  0.80888700  1
  H  H4  1  0.53023500  0.12329300  0.10257800  1
  H  H5  1  0.46976500  0.87670700  0.89742200  1
  H  H6  1  0.27264900  0.20251400  0.09292400  1
  H  H7  1  0.72735100  0.79748600  0.90707600  1
  H  H8  1  0.17603300  0.69224400  0.08685900  1
  H  H9  1  0.82396700  0.30775600  0.91314100  1
  H  H10  1  0.87279900  0.29773000  0.03194600  1
  H  H11  1  0.12720100  0.70227000  0.96805400  1
  H  H12  1  0.65008100  0.50771900  0.38867500  1
  H  H13  1  0.34991900  0.49228100  0.61132500  1
  H  H14  1  0.63494600  0.71032900  0.45642100  1
  H  H15  1  0.36505400  0.28967100  0.54357900  1
  H  H16  1  0.78527000  0.14998100  0.52982500  1
  H  H17  1  0.21473000  0.85001900  0.47017500  1
  H  H18  1  0.00546000  0.88512900  0.40032100  1
  H  H19  1  0.99454000  0.11487100  0.59967900  1
  H  H20  1  0.04363900  0.27856200  0.31586300  1
  H  H21  1  0.95636100  0.72143800  0.68413700  1
  H  H22  1  0.08081300  0.52565600  0.28321400  1
  H  H23  1  0.91918700  0.47434400  0.71678600  1
  H  H24  1  0.39130200  0.36246400  0.31771700  1
  H  H25  1  0.60869800  0.63753600  0.68228300  1
  H  H26  1  0.62333300  0.23032000  0.31192200  1
  H  H27  1  0.37666700  0.76968000  0.68807800  1
  S  S0  1  0.93285700  0.98464500  0.18932700  1
  S  S1  1  0.06714300  0.01535500  0.81067300  1
  Cl  Cl0  1  0.50000000  0.00000000  0.50000000  1
  O  O0  1  0.90759100  0.05388300  0.29182100  1
  O  O1  1  0.09240900  0.94611700  0.70817900  1
  O  O2  1  0.71624100  0.94881600  0.15225200  1
  O  O3  1  0.28375900  0.05118400  0.84774800  1
  O  O4  1  0.02310400  0.15904500  0.11856000  1
  O  O5  1  0.97689600  0.84095500  0.88144000  1
  O  O6  1  0.07623400  0.78451500  0.19370000  1
  O  O7  1  0.92376600  0.21548500  0.80630000  1
  O  O8  1  0.59799200  0.57787000  0.12211800  1
  O  O9  1  0.40200800  0.42213000  0.87788200  1
  O  O10  1  0.42175800  0.23628400  0.07093300  1
  O  O11  1  0.57824200  0.76371600  0.92906700  1
  O  O12  1  0.22073400  0.62936500  0.02429200  1
  O  O13  1  0.77926600  0.37063500  0.97570800  1
  O  O14  1  0.71480800  0.57392400  0.44367200  1
  O  O15  1  0.28519200  0.42607600  0.55632800  1
  O  O16  1  0.07167100  0.79867900  0.46049300  1
  O  O17  1  0.92832900  0.20132100  0.53950700  1
  O  O18  1  0.12443300  0.39900600  0.33172100  1
  O  O19  1  0.87556700  0.60099400  0.66827900  1
  O  O20  1  0.54886400  0.37483800  0.30207300  1
  O  O21  1  0.45113600  0.62516200  0.69792700  1
loop_
_geom_bond_atom_site_label_1
_geom_bond_atom_site_label_2
_geom_bond_distance
_geom_bond_site_symmetry_2
Al0 O9 1.898996 1_554
Al0 O8 1.898996 1_555
Al0 O10 1.901531 1_555
Al0 O11 1.901531 1_554
Al0 O12 1.908849 1_555
Al0 O13 1.908849 1_554
Cu0 O14 1.951787 1_455
Cu0 O15 1.951787 1_555
Cu0 O17 1.975299 1_455
Cu0 O16 1.975299 1_555
Cu0 O19 2.516514 1_455
Cu0 O18 2.516514 1_555
H0 O8 1.006092 1_555
H0 O2 1.590934 1_555
H1 O9 1.006092 1_555
H1 O3 1.590934 1_555
H2 O8 1.011404 1_555
H2 O20 1.596232 1_555
H3 O9 1.011404 1_555
H3 O21 1.596232 1_555
H4 O10 1.002501 1_555
H4 O2 1.627012 1_545
H5 O11 1.002501 1_555
H5 O3 1.627012 1_565
H6 O10 1.004292 1_555
H6 O4 1.630275 1_555
H7 O11 1.004292 1_555
H7 O5 1.630275 1_555
H8 O12 0.999762 1_555
H8 O6 1.704561 1_555
H9 O13 0.999762 1_555
H9 O7 1.704561 1_555
H10 O13 1.004614 1_554
H10 O4 1.628337 1_655
H11 O12 1.004614 1_556
H11 O5 1.628337 1_455
H12 O14 1.002146 1_555
H13 O15 1.002146 1_555
H14 O14 0.992401 1_555
H15 O15 0.992401 1_555
H16 O17 0.993764 1_555
H17 O16 0.993764 1_555
H18 O16 0.992311 1_555
H19 O17 0.992311 1_555
H20 O18 0.994042 1_555
H21 O19 0.994042 1_555
H22 O18 0.986854 1_555
H23 O19 0.986854 1_555
H24 O20 1.011498 1_555
H25 O21 1.011498 1_555
H26 O20 0.984192 1_555
H27 O21 0.984192 1_555
O0 S0 1.498039 1_545
O1 S1 1.498039 1_565
O2 S0 1.498984 1_555
O3 S1 1.498984 1_555
O4 S0 1.496224 1_445
O5 S1 1.496224 1_665
O6 S0 1.484209 1_455
O7 S1 1.484209 1_655
