# generated using pymatgen
data_Li5Fe2Cu5O12
_symmetry_space_group_name_H-M   'P 1'
_cell_length_a   5.06209788
_cell_length_b   5.06209791
_cell_length_c   9.71302780
_cell_angle_alpha   88.85247018
_cell_angle_beta   91.14752767
_cell_angle_gamma   65.85101243
_symmetry_Int_Tables_number   1
_chemical_formula_structural   Li5Fe2Cu5O12
_chemical_formula_sum   'Li5 Fe2 Cu5 O12'
_cell_volume   226.95843650
_cell_formula_units_Z   1
loop_
 _symmetry_equiv_pos_site_id
 _symmetry_equiv_pos_as_xyz
  1  'x, y, z'
loop_
 _atom_site_type_symbol
 _atom_site_label
 _atom_site_symmetry_multiplicity
 _atom_site_fract_x
 _atom_site_fract_y
 _atom_site_fract_z
 _atom_site_occupancy
  Li  Li0  1  0.16765400  0.66465000  0.50637100  1
  Li  Li1  1  0.32349400  0.84637800  0.99502400  1
  Li  Li2  1  0.66465000  0.16765400  0.99362900  1
  Li  Li3  1  0.84637800  0.32349400  0.50497600  1
  Li  Li4  1  0.91371900  0.91371900  0.75000000  1
  Fe  Fe0  1  0.24478400  0.24478400  0.75000000  1
  Fe  Fe1  1  0.74932700  0.74932700  0.25000000  1
  Cu  Cu0  1  0.07787100  0.07787100  0.25000000  1
  Cu  Cu1  1  0.99344600  0.51497500  0.99908700  1
  Cu  Cu2  1  0.51497500  0.99344600  0.50091300  1
  Cu  Cu3  1  0.42023000  0.42023000  0.25000000  1
  Cu  Cu4  1  0.58388400  0.58388400  0.75000000  1
  O  O0  1  0.98394500  0.21293900  0.88606200  1
  O  O1  1  0.21293900  0.98394500  0.61393800  1
  O  O2  1  0.10002300  0.40172900  0.34888600  1
  O  O3  1  0.40172900  0.10002300  0.15111400  1
  O  O4  1  0.30464300  0.52524500  0.87006300  1
  O  O5  1  0.52524500  0.30464300  0.62993700  1
  O  O6  1  0.48209000  0.68244200  0.37800100  1
  O  O7  1  0.68244200  0.48209000  0.12199900  1
  O  O8  1  0.57464800  0.90647000  0.85203000  1
  O  O9  1  0.90647000  0.57464800  0.64797000  1
  O  O10  1  0.81754600  0.00786700  0.38409300  1
  O  O11  1  0.00786700  0.81754600  0.11590700  1
loop_
_geom_bond_atom_site_label_1
_geom_bond_atom_site_label_2
_geom_bond_distance
_geom_bond_site_symmetry_2
Li0 O1 2.029237 1_555
Li0 O6 2.070892 1_555
Li0 O9 2.094714 1_455
Li0 O2 2.159126 1_555
Li0 O10 2.209920 1_465
Li0 O5 2.272549 1_555
Li1 O8 2.002050 1_555
Li1 O11 2.052252 1_556
Li1 O4 2.079954 1_555
Li1 O3 2.138691 1_566
Li1 O0 2.180929 1_465
Li1 O7 2.302333 1_556
Li2 O0 2.029237 1_555
Li2 O7 2.070892 1_556
Li2 O8 2.094714 1_545
Li2 O3 2.159126 1_556
Li2 O11 2.209920 1_646
Li2 O4 2.272549 1_555
Li3 O9 2.002050 1_555
Li3 O10 2.052252 1_555
Li3 O5 2.079954 1_555
Li3 O2 2.138691 1_655
Li3 O1 2.180929 1_645
Li3 O6 2.302333 1_555
Li4 O8 2.011900 1_555
Li4 O9 2.011900 1_555
Li4 O1 2.160816 1_655
Li4 O0 2.160816 1_565
Li4 O5 2.403061 1_565
Li4 O4 2.403061 1_655
Fe0 O0 1.936879 1_455
Fe0 O1 1.936879 1_545
Fe0 O5 1.967624 1_555
Fe0 O4 1.967624 1_555
Fe0 O8 2.056499 1_545
Fe0 O9 2.056499 1_455
Fe1 O6 1.978802 1_555
Fe1 O7 1.978802 1_555
Fe1 O11 1.987089 1_655
Fe1 O10 1.987089 1_565
Fe1 O3 2.116201 1_565
Fe1 O2 2.116201 1_655
Cu0 O3 1.957526 1_555
Cu0 O2 1.957526 1_555
Cu0 O10 1.997718 1_455
Cu0 O11 1.997718 1_545
Cu0 O7 2.487279 1_455
Cu0 O6 2.487279 1_545
Cu1 O0 1.915839 1_555
Cu1 O11 1.948469 1_656
Cu1 O4 2.048981 1_655
Cu1 O7 2.052623 1_556
Cu2 O1 1.915839 1_555
Cu2 O10 1.948469 1_565
Cu2 O5 2.048981 1_565
Cu2 O6 2.052624 1_555
Cu3 O2 1.934332 1_555
Cu3 O3 1.934333 1_555
Cu3 O7 1.948392 1_555
Cu3 O6 1.948392 1_555
Cu3 O10 2.539657 1_555
Cu3 O11 2.539657 1_555
Cu4 O9 1.911826 1_555
Cu4 O8 1.911826 1_555
Cu4 O4 1.960017 1_555
Cu4 O5 1.960017 1_555
Cu4 O1 2.460830 1_555
Cu4 O0 2.460830 1_555
