# generated using pymatgen
data_Na3Li6Mn5O9
_symmetry_space_group_name_H-M   'P 1'
_cell_length_a   5.88180000
_cell_length_b   5.89436530
_cell_length_c   9.27598841
_cell_angle_alpha   96.03838640
_cell_angle_beta   96.14509267
_cell_angle_gamma   119.79230397
_symmetry_Int_Tables_number   1
_chemical_formula_structural   Na3Li6Mn5O9
_chemical_formula_sum   'Na3 Li6 Mn5 O9'
_cell_volume   272.77094245
_cell_formula_units_Z   1
loop_
 _symmetry_equiv_pos_site_id
 _symmetry_equiv_pos_as_xyz
  1  'x, y, z'
loop_
 _atom_site_type_symbol
 _atom_site_label
 _atom_site_symmetry_multiplicity
 _atom_site_fract_x
 _atom_site_fract_y
 _atom_site_fract_z
 _atom_site_occupancy
  Na  Na0  1  0.16271600  0.84047900  0.49531600  1
  Na  Na1  1  0.83712300  0.16164500  0.49579500  1
  Na  Na2  1  0.48142400  0.48416000  0.48702700  1
  Li  Li0  1  0.01433600  0.33879700  0.06486500  1
  Li  Li1  1  0.33468900  0.01776500  0.06482400  1
  Li  Li2  1  0.06822400  0.07125200  0.24705300  1
  Li  Li3  1  0.64822700  0.93004600  0.97375700  1
  Li  Li4  1  0.36081500  0.36425700  0.96395300  1
  Li  Li5  1  0.92000500  0.65470600  0.98120500  1
  Mn  Mn0  1  0.26363000  0.58353200  0.75535700  1
  Mn  Mn1  1  0.58466700  0.27167400  0.75571700  1
  Mn  Mn2  1  0.42496000  0.74748000  0.24135700  1
  Mn  Mn3  1  0.74504800  0.42538700  0.24374700  1
  Mn  Mn4  1  0.89006400  0.88890700  0.75753900  1
  O  O0  1  0.28572500  0.66120300  0.00264600  1
  O  O1  1  0.65723300  0.29025300  0.00431800  1
  O  O2  1  0.09761600  0.42598500  0.29509000  1
  O  O3  1  0.77835700  0.77982500  0.32428100  1
  O  O4  1  0.42248600  0.09712800  0.29513000  1
  O  O5  1  0.54882900  0.90201000  0.67122300  1
  O  O6  1  0.89616800  0.54865100  0.66344500  1
  O  O7  1  0.20434000  0.20676800  0.67446700  1
  O  O8  1  0.02558400  0.03008700  0.99564400  1
loop_
_geom_bond_atom_site_label_1
_geom_bond_atom_site_label_2
_geom_bond_distance
_geom_bond_site_symmetry_2
Na0 O3 2.462792 1_455
Na0 O7 2.473007 1_565
Na0 O5 2.493046 1_555
Na0 O6 2.501415 1_455
Na0 O4 2.640599 1_565
Na0 O2 2.743850 1_555
Na1 O7 2.460231 1_655
Na1 O3 2.464081 1_545
Na1 O6 2.468492 1_555
Na1 O5 2.530096 1_545
Na1 O2 2.662712 1_655
Na1 O4 2.741292 1_555
Na2 O3 2.541622 1_555
Na2 O2 2.574001 1_555
Na2 O4 2.592437 1_555
Na2 O6 2.620366 1_555
Na2 O7 2.628558 1_555
Na2 O5 2.672442 1_555
Li0 O8 1.900182 1_554
Li0 O0 1.976394 1_555
Li0 O1 1.981269 1_455
Li0 O2 2.087983 1_555
Li1 O8 1.900994 1_554
Li1 O1 1.970668 1_555
Li1 O0 1.985118 1_545
Li1 O4 2.088745 1_555
Li2 O3 1.995204 1_445
Li2 O2 2.007161 1_555
Li2 O4 2.008699 1_555
Li2 O8 2.292503 1_554
Li3 O8 1.973079 1_665
Li3 O0 1.995803 1_556
Li3 O1 2.085546 1_566
Li4 O1 2.005118 1_556
Li4 O0 2.014305 1_556
Li4 O8 2.059263 1_555
Li5 O8 1.963101 1_665
Li5 O1 1.979416 1_556
Li5 O0 2.119708 1_656
Mn0 O5 2.099114 1_555
Mn0 O7 2.107204 1_555
Mn0 O6 2.137187 1_455
Mn0 O0 2.268115 1_556
Mn1 O6 2.100521 1_555
Mn1 O7 2.108677 1_555
Mn1 O5 2.134337 1_545
Mn1 O1 2.280701 1_556
Mn2 O3 2.044915 1_555
Mn2 O4 2.076443 1_565
Mn2 O2 2.079676 1_555
Mn2 O0 2.189369 1_555
Mn3 O3 2.048102 1_555
Mn3 O2 2.075607 1_655
Mn3 O4 2.076109 1_555
Mn3 O1 2.192534 1_555
Mn4 O6 2.120253 1_555
Mn4 O5 2.120940 1_555
Mn4 O7 2.165233 1_665
Mn4 O8 2.187073 1_665
