# generated using pymatgen
data_Ba6Li2Ti7(Sb3O14)3
_symmetry_space_group_name_H-M   'P 1'
_cell_length_a   9.26628173
_cell_length_b   9.26628173
_cell_length_c   11.99199568
_cell_angle_alpha   89.93722500
_cell_angle_beta   89.93722500
_cell_angle_gamma   119.86982521
_symmetry_Int_Tables_number   1
_chemical_formula_structural   Ba6Li2Ti7(Sb3O14)3
_chemical_formula_sum   'Ba6 Li2 Ti7 Sb9 O42'
_cell_volume   892.89468864
_cell_formula_units_Z   1
loop_
 _symmetry_equiv_pos_site_id
 _symmetry_equiv_pos_as_xyz
  1  'x, y, z'
loop_
 _atom_site_type_symbol
 _atom_site_label
 _atom_site_symmetry_multiplicity
 _atom_site_fract_x
 _atom_site_fract_y
 _atom_site_fract_z
 _atom_site_occupancy
  Ba  Ba0  1  0.40380900  0.40380900  0.24525800  1
  Ba  Ba1  1  0.58962600  0.58962600  0.75202500  1
  Ba  Ba2  1  0.00134900  0.59537800  0.24539400  1
  Ba  Ba3  1  0.00295700  0.40324100  0.75046800  1
  Ba  Ba4  1  0.40324100  0.00295700  0.75046800  1
  Ba  Ba5  1  0.59537800  0.00134900  0.24539400  1
  Li  Li0  1  0.99907100  0.99907100  0.22825600  1
  Li  Li1  1  0.00526600  0.00526600  0.73643100  1
  Ti  Ti0  1  0.25302400  0.25302400  0.91523800  1
  Ti  Ti1  1  0.25584500  0.25584500  0.60099000  1
  Ti  Ti2  1  0.74209300  0.74209300  0.09748400  1
  Ti  Ti3  1  0.99923900  0.74209600  0.59792000  1
  Ti  Ti4  1  0.25985500  0.00721000  0.09181600  1
  Ti  Ti5  1  0.00721000  0.25985500  0.09181600  1
  Ti  Ti6  1  0.74209600  0.99923900  0.59792000  1
  Sb  Sb0  1  0.75325500  0.75325500  0.41555800  1
  Sb  Sb1  1  0.66650300  0.33342800  0.99953700  1
  Sb  Sb2  1  0.66645600  0.33315900  0.49962700  1
  Sb  Sb3  1  0.00175200  0.75585300  0.91587000  1
  Sb  Sb4  1  0.24550900  0.00063800  0.41361900  1
  Sb  Sb5  1  0.00063800  0.24550900  0.41361900  1
  Sb  Sb6  1  0.33342800  0.66650300  0.99953700  1
  Sb  Sb7  1  0.33315900  0.66645600  0.49962700  1
  Sb  Sb8  1  0.75585300  0.00175200  0.91587000  1
  O  O0  1  0.20488200  0.20488200  0.07249500  1
  O  O1  1  0.20445400  0.20445400  0.42609900  1
  O  O2  1  0.20862400  0.20862400  0.75168300  1
  O  O3  1  0.48238500  0.31259100  0.60213300  1
  O  O4  1  0.47838900  0.31078700  0.89934300  1
  O  O5  1  0.79652400  0.79652400  0.24977400  1
  O  O6  1  0.48675400  0.17090000  0.10488800  1
  O  O7  1  0.48801200  0.17134600  0.39383600  1
  O  O8  1  0.79836600  0.79836600  0.58040800  1
  O  O9  1  0.79409100  0.79409100  0.92740200  1
  O  O10  1  0.68601500  0.51659500  0.10198400  1
  O  O11  1  0.68225000  0.51149900  0.39358100  1
  O  O12  1  0.82696500  0.51264500  0.89273800  1
  O  O13  1  0.83039500  0.51710000  0.60129300  1
  O  O14  1  0.99734700  0.79884400  0.08054900  1
  O  O15  1  0.99990600  0.79526900  0.42719600  1
  O  O16  1  0.68686200  0.16922600  0.60130100  1
  O  O17  1  0.67961500  0.16964700  0.89261100  1
  O  O18  1  0.00157200  0.79909000  0.74928200  1
  O  O19  1  0.82950800  0.31753200  0.39338200  1
  O  O20  1  0.83490600  0.31471800  0.09729000  1
  O  O21  1  0.19865700  0.00039200  0.57934100  1
  O  O22  1  0.20220000  0.99629400  0.92821400  1
  O  O23  1  0.20188900  0.99904600  0.24740200  1
  O  O24  1  0.16922600  0.68686200  0.60130100  1
  O  O25  1  0.16964700  0.67961500  0.89261100  1
  O  O26  1  0.99904600  0.20188900  0.24740200  1
  O  O27  1  0.31471800  0.83490600  0.09729000  1
  O  O28  1  0.31753200  0.82950800  0.39338200  1
  O  O29  1  0.00039200  0.19865700  0.57934100  1
  O  O30  1  0.99629400  0.20220000  0.92821400  1
  O  O31  1  0.17090000  0.48675400  0.10488800  1
  O  O32  1  0.17134600  0.48801200  0.39383600  1
  O  O33  1  0.31259100  0.48238500  0.60213300  1
  O  O34  1  0.31078700  0.47838900  0.89934300  1
  O  O35  1  0.51710000  0.83039500  0.60129300  1
  O  O36  1  0.51264500  0.82696500  0.89273800  1
  O  O37  1  0.51149900  0.68225000  0.39358100  1
  O  O38  1  0.51659500  0.68601500  0.10198400  1
  O  O39  1  0.79909000  0.00157200  0.74928200  1
  O  O40  1  0.79526900  0.99990600  0.42719600  1
  O  O41  1  0.79884400  0.99734700  0.08054900  1
loop_
_geom_bond_atom_site_label_1
_geom_bond_atom_site_label_2
_geom_bond_distance
_geom_bond_site_symmetry_2
Ba0 O0 2.778519 1_555
Ba0 O1 2.848042 1_555
Ba0 O38 2.854209 1_555
Ba0 O10 2.854209 1_555
Ba0 O11 2.875051 1_555
Ba0 O37 2.875051 1_555
Ba0 O6 3.120815 1_555
Ba0 O31 3.120815 1_555
Ba0 O7 3.176813 1_555
Ba0 O32 3.176813 1_555
Ba0 O23 3.252463 1_545
Ba0 O26 3.252463 1_455
Ba1 O8 2.823840 1_555
Ba1 O9 2.836254 1_555
Ba1 O34 2.862292 1_555
Ba1 O4 2.862292 1_555
Ba1 O3 2.877764 1_555
Ba1 O33 2.877764 1_555
Ba1 O12 3.124269 1_555
Ba1 O36 3.124269 1_555
Ba1 O35 3.191202 1_555
Ba1 O13 3.191202 1_555
Ba1 O18 3.310467 1_655
Ba1 O39 3.310467 1_565
Ba2 O14 2.743258 1_455
Ba2 O31 2.809559 1_555
Ba2 O32 2.864133 1_555
Ba2 O19 2.865983 1_455
Ba2 O15 2.866633 1_455
Ba2 O20 2.884007 1_455
Ba2 O10 3.149211 1_455
Ba2 O27 3.173802 1_555
Ba2 O28 3.182569 1_555
Ba2 O11 3.193959 1_455
Ba2 O23 3.243748 1_555
Ba2 O5 3.256179 1_455
Ba3 O29 2.787375 1_555
Ba3 O30 2.809641 1_455
Ba3 O25 2.815163 1_555
Ba3 O12 2.870961 1_455
Ba3 O24 2.903625 1_555
Ba3 O13 2.924494 1_455
Ba3 O33 3.134362 1_555
Ba3 O34 3.137524 1_555
Ba3 O17 3.176292 1_455
Ba3 O16 3.189789 1_455
Ba3 O2 3.210548 1_555
Ba3 O39 3.227800 1_455
Ba4 O21 2.787375 1_555
Ba4 O22 2.809641 1_545
Ba4 O17 2.815163 1_555
Ba4 O36 2.870961 1_545
Ba4 O16 2.903625 1_555
Ba4 O35 2.924494 1_545
Ba4 O3 3.134362 1_555
Ba4 O4 3.137524 1_555
Ba4 O25 3.176292 1_545
Ba4 O24 3.189789 1_545
Ba4 O2 3.210548 1_555
Ba4 O18 3.227800 1_545
Ba5 O41 2.743258 1_545
Ba5 O6 2.809559 1_555
Ba5 O7 2.864133 1_555
Ba5 O28 2.865983 1_545
Ba5 O40 2.866633 1_545
Ba5 O27 2.884007 1_545
Ba5 O38 3.149211 1_545
Ba5 O20 3.173802 1_555
Ba5 O19 3.182569 1_555
Ba5 O37 3.193959 1_545
Ba5 O26 3.243748 1_555
Ba5 O5 3.256179 1_545
Li0 O26 1.893706 1_565
Li0 O23 1.893706 1_655
Li0 O5 1.897612 1_555
Li0 O14 2.560833 1_555
Li0 O41 2.560833 1_555
Li1 O2 1.897315 1_555
Li1 O18 1.899758 1_545
Li1 O39 1.899758 1_455
Li1 O29 2.614489 1_555
Li1 O21 2.614489 1_555
O0 Ti0 1.937121 1_554
O0 Ti5 2.144048 1_555
O0 Ti4 2.144048 1_555
O1 Sb5 2.109536 1_555
O1 Sb4 2.109536 1_555
O1 Ti1 2.151900 1_555
O2 Ti1 1.858601 1_555
O2 Ti0 2.005086 1_555
O3 Ti1 1.893112 1_555
O3 Sb2 2.031682 1_555
O4 Ti0 1.889273 1_555
O4 Sb1 2.041327 1_555
O5 Ti2 1.895959 1_555
O5 Sb0 2.027402 1_555
O6 Ti4 1.889581 1_555
O6 Sb1 2.032514 1_554
O7 Sb4 2.016285 1_555
O7 Sb2 2.032492 1_555
O8 Sb0 2.021658 1_555
O8 Ti3 2.178970 1_555
O8 Ti6 2.178970 1_555
O9 Ti2 2.094953 1_556
O9 Sb3 2.127448 1_655
O9 Sb8 2.127448 1_565
O10 Ti2 1.886064 1_555
O10 Sb1 2.030308 1_554
O11 Sb0 2.013531 1_555
O11 Sb2 2.030678 1_555
O12 Sb1 2.034848 1_555
O12 Sb3 2.036096 1_655
O13 Ti3 1.883294 1_555
O13 Sb2 2.031943 1_555
O14 Sb3 2.019420 1_654
O14 Ti2 2.161483 1_555
O14 Ti4 2.233004 1_665
O15 Ti3 2.104533 1_555
O15 Sb0 2.123501 1_555
O15 Sb4 2.124142 1_665
O16 Ti6 1.883557 1_545
O16 Sb2 2.027916 1_555
O17 Sb8 2.022737 1_555
O17 Sb1 2.037097 1_555
O18 Ti3 1.888095 1_455
O18 Sb3 2.037237 1_555
O19 Sb5 2.018288 1_655
O19 Sb2 2.034983 1_555
O20 Ti5 1.902701 1_655
O20 Sb1 2.027891 1_554
O21 Sb4 2.033497 1_555
O21 Ti1 2.168776 1_555
O21 Ti3 2.187555 1_445
O22 Ti4 2.023281 1_566
O22 Sb3 2.077297 1_555
O22 Ti0 2.188244 1_565
O23 Ti4 1.931945 1_565
O23 Sb4 2.032885 1_565
O24 Ti3 1.883557 1_455
O24 Sb7 2.027916 1_555
O25 Sb3 2.022737 1_555
O25 Sb6 2.037097 1_555
O26 Ti5 1.931945 1_655
O26 Sb5 2.032885 1_655
O27 Ti4 1.902701 1_565
O27 Sb6 2.027891 1_554
O28 Sb4 2.018288 1_565
O28 Sb7 2.034983 1_555
O29 Sb5 2.033497 1_555
O29 Ti1 2.168776 1_555
O29 Ti6 2.187555 1_445
O30 Ti5 2.023281 1_656
O30 Sb8 2.077297 1_555
O30 Ti0 2.188244 1_655
O31 Ti5 1.889581 1_555
O31 Sb6 2.032514 1_554
O32 Sb5 2.016285 1_555
O32 Sb7 2.032492 1_555
O33 Ti1 1.893112 1_555
O33 Sb7 2.031682 1_555
O34 Ti0 1.889273 1_555
O34 Sb6 2.041327 1_555
O35 Ti6 1.883294 1_555
O35 Sb7 2.031943 1_555
O36 Sb6 2.034848 1_555
O36 Sb8 2.036096 1_565
O37 Sb0 2.013531 1_555
O37 Sb7 2.030678 1_555
O38 Ti2 1.886064 1_555
O38 Sb6 2.030308 1_554
O39 Ti6 1.888095 1_545
O39 Sb8 2.037237 1_555
O40 Ti6 2.104533 1_555
O40 Sb0 2.123501 1_555
O40 Sb5 2.124142 1_665
O41 Sb8 2.019420 1_564
O41 Ti2 2.161483 1_555
O41 Ti5 2.233004 1_665
