# generated using pymatgen
data_Li2Mn3CoO8
_symmetry_space_group_name_H-M   'P 1'
_cell_length_a   5.83729186
_cell_length_b   5.83729186
_cell_length_c   9.64964800
_cell_angle_alpha   90.00000000
_cell_angle_beta   90.00000000
_cell_angle_gamma   119.99999842
_symmetry_Int_Tables_number   1
_chemical_formula_structural   Li2Mn3CoO8
_chemical_formula_sum   'Li4 Mn6 Co2 O16'
_cell_volume   284.75078274
_cell_formula_units_Z   2
loop_
 _symmetry_equiv_pos_site_id
 _symmetry_equiv_pos_as_xyz
  1  'x, y, z'
loop_
 _atom_site_type_symbol
 _atom_site_label
 _atom_site_symmetry_multiplicity
 _atom_site_fract_x
 _atom_site_fract_y
 _atom_site_fract_z
 _atom_site_occupancy
  Li  Li0  1  0.33333300  0.66666700  0.88619600  1
  Li  Li1  1  0.00000000  0.00000000  0.99813600  1
  Li  Li2  1  0.00000000  0.00000000  0.49813600  1
  Li  Li3  1  0.66666700  0.33333300  0.38619600  1
  Mn  Mn0  1  0.16881700  0.83118300  0.21523100  1
  Mn  Mn1  1  0.16881700  0.33763400  0.21523100  1
  Mn  Mn2  1  0.66236600  0.83118300  0.21523100  1
  Mn  Mn3  1  0.33763400  0.16881700  0.71523100  1
  Mn  Mn4  1  0.83118300  0.66236600  0.71523100  1
  Mn  Mn5  1  0.83118300  0.16881700  0.71523100  1
  Co  Co0  1  0.33333300  0.66666700  0.49351400  1
  Co  Co1  1  0.66666700  0.33333300  0.99351400  1
  O  O0  1  0.15889000  0.84111000  0.60641300  1
  O  O1  1  0.03519600  0.51759800  0.33021700  1
  O  O2  1  0.33333300  0.66666700  0.10896000  1
  O  O3  1  0.00000000  0.00000000  0.31151100  1
  O  O4  1  0.00000000  0.00000000  0.81151100  1
  O  O5  1  0.15889000  0.31778100  0.60641300  1
  O  O6  1  0.48240200  0.96480400  0.33021700  1
  O  O7  1  0.48240200  0.51759800  0.33021700  1
  O  O8  1  0.31778100  0.15889000  0.10641300  1
  O  O9  1  0.68221900  0.84111000  0.60641300  1
  O  O10  1  0.51759800  0.48240200  0.83021700  1
  O  O11  1  0.51759800  0.03519600  0.83021700  1
  O  O12  1  0.66666700  0.33333300  0.60896000  1
  O  O13  1  0.84111000  0.68221900  0.10641300  1
  O  O14  1  0.96480400  0.48240200  0.83021700  1
  O  O15  1  0.84111000  0.15889000  0.10641300  1
loop_
_geom_bond_atom_site_label_1
_geom_bond_atom_site_label_2
_geom_bond_distance
_geom_bond_site_symmetry_2
Li0 O11 1.939736 1_565
Li0 O14 1.939736 1_455
Li0 O10 1.939741 1_555
Li0 O2 2.149594 1_556
Li1 O4 1.800866 1_555
Li1 O15 1.916345 1_456
Li1 O13 1.916349 1_446
Li1 O8 1.916349 1_556
Li2 O3 1.800866 1_555
Li2 O0 1.916345 1_545
Li2 O9 1.916349 1_445
Li2 O5 1.916349 1_555
Li3 O6 1.939736 1_545
Li3 O1 1.939736 1_655
Li3 O7 1.939741 1_555
Li3 O12 2.149594 1_555
Mn0 O1 1.939707 1_555
Mn0 O6 1.939707 1_555
Mn0 O3 1.943298 1_565
Mn0 O2 1.954045 1_555
Mn0 O8 1.963319 1_565
Mn0 O13 1.963319 1_455
Mn1 O1 1.939707 1_555
Mn1 O7 1.939707 1_555
Mn1 O3 1.943298 1_555
Mn1 O2 1.954050 1_555
Mn1 O15 1.963319 1_455
Mn1 O8 1.963323 1_555
Mn2 O6 1.939707 1_555
Mn2 O7 1.939707 1_555
Mn2 O3 1.943298 1_665
Mn2 O2 1.954050 1_555
Mn2 O15 1.963319 1_565
Mn2 O13 1.963323 1_555
Mn3 O11 1.939707 1_555
Mn3 O10 1.939707 1_555
Mn3 O4 1.943298 1_555
Mn3 O12 1.954050 1_555
Mn3 O0 1.963319 1_545
Mn3 O5 1.963323 1_555
Mn4 O14 1.939707 1_555
Mn4 O10 1.939707 1_555
Mn4 O4 1.943298 1_665
Mn4 O12 1.954050 1_555
Mn4 O0 1.963319 1_655
Mn4 O9 1.963323 1_555
Mn5 O11 1.939707 1_555
Mn5 O14 1.939707 1_555
Mn5 O4 1.943298 1_655
Mn5 O12 1.954045 1_555
Mn5 O9 1.963319 1_545
Mn5 O5 1.963319 1_655
Co0 O0 2.073046 1_555
Co0 O5 2.073046 1_555
Co0 O9 2.073046 1_555
Co0 O6 2.180489 1_555
Co0 O1 2.180489 1_555
Co0 O7 2.180492 1_555
Co1 O15 2.073046 1_556
Co1 O8 2.073046 1_556
Co1 O13 2.073046 1_556
Co1 O11 2.180489 1_555
Co1 O14 2.180489 1_555
Co1 O10 2.180492 1_555
