# generated using pymatgen
data_LiNiPO4
_symmetry_space_group_name_H-M   'P 1'
_cell_length_a   10.55372000
_cell_length_b   5.61976000
_cell_length_c   9.95603409
_cell_angle_alpha   88.22576325
_cell_angle_beta   90.00000000
_cell_angle_gamma   90.00000000
_symmetry_Int_Tables_number   1
_chemical_formula_structural   LiNiPO4
_chemical_formula_sum   'Li8 Ni8 P8 O32'
_cell_volume   590.20305552
_cell_formula_units_Z   8
loop_
 _symmetry_equiv_pos_site_id
 _symmetry_equiv_pos_as_xyz
  1  'x, y, z'
loop_
 _atom_site_type_symbol
 _atom_site_label
 _atom_site_symmetry_multiplicity
 _atom_site_fract_x
 _atom_site_fract_y
 _atom_site_fract_z
 _atom_site_occupancy
  Li  Li0  1  0.85839700  0.87188100  0.88706500  1
  Li  Li1  1  0.64160300  0.87188100  0.38706500  1
  Li  Li2  1  0.33669300  0.61127300  0.64162100  1
  Li  Li3  1  0.16330700  0.61127300  0.14162100  1
  Li  Li4  1  0.83669300  0.38872700  0.85837900  1
  Li  Li5  1  0.66330700  0.38872700  0.35837900  1
  Li  Li6  1  0.35839700  0.12811900  0.61293500  1
  Li  Li7  1  0.14160300  0.12811900  0.11293500  1
  Ni  Ni0  1  0.09272500  0.88005100  0.73152100  1
  Ni  Ni1  1  0.40727500  0.88005100  0.23152100  1
  Ni  Ni2  1  0.62332700  0.65382400  0.98573600  1
  Ni  Ni3  1  0.87667300  0.65382400  0.48573600  1
  Ni  Ni4  1  0.12332700  0.34617600  0.51426400  1
  Ni  Ni5  1  0.37667300  0.34617600  0.01426400  1
  Ni  Ni6  1  0.59272500  0.11994900  0.76847900  1
  Ni  Ni7  1  0.90727500  0.11994900  0.26847900  1
  P  P0  1  0.35426600  0.87508000  0.90931300  1
  P  P1  1  0.14573400  0.87508000  0.40931300  1
  P  P2  1  0.60847500  0.62326000  0.66130100  1
  P  P3  1  0.89152500  0.62326000  0.16130100  1
  P  P4  1  0.10847500  0.37674000  0.83869900  1
  P  P5  1  0.39152500  0.37674000  0.33869900  1
  P  P6  1  0.85426600  0.12492000  0.59068700  1
  P  P7  1  0.64573400  0.12492000  0.09068700  1
  O  O0  1  0.21395100  0.91749700  0.54479700  1
  O  O1  1  0.93383300  0.89538600  0.62414300  1
  O  O2  1  0.28604900  0.91749700  0.04479700  1
  O  O3  1  0.56616700  0.89538600  0.12414300  1
  O  O4  1  0.26668600  0.83500500  0.79005000  1
  O  O5  1  0.52685100  0.85582400  0.65026300  1
  O  O6  1  0.23331400  0.83500500  0.29005000  1
  O  O7  1  0.97314900  0.85582400  0.15026300  1
  O  O8  1  0.44128100  0.65275300  0.92409800  1
  O  O9  1  0.69266500  0.62656600  0.79182400  1
  O  O10  1  0.05871900  0.65275300  0.42409800  1
  O  O11  1  0.69245900  0.61053500  0.53248500  1
  O  O12  1  0.01670900  0.59430000  0.83323700  1
  O  O13  1  0.80733500  0.62656600  0.29182400  1
  O  O14  1  0.80754100  0.61053500  0.03248500  1
  O  O15  1  0.48329100  0.59430000  0.33323700  1
  O  O16  1  0.51670900  0.40570000  0.66676300  1
  O  O17  1  0.19245900  0.38946500  0.96751500  1
  O  O18  1  0.19266500  0.37343400  0.70817600  1
  O  O19  1  0.98329100  0.40570000  0.16676300  1
  O  O20  1  0.30754100  0.38946500  0.46751500  1
  O  O21  1  0.94128100  0.34724700  0.57590200  1
  O  O22  1  0.30733500  0.37343400  0.20817600  1
  O  O23  1  0.55871900  0.34724700  0.07590200  1
  O  O24  1  0.02685100  0.14417600  0.84973700  1
  O  O25  1  0.76668600  0.16499500  0.70995000  1
  O  O26  1  0.47314900  0.14417600  0.34973700  1
  O  O27  1  0.73331400  0.16499500  0.20995000  1
  O  O28  1  0.43383300  0.10461400  0.87585700  1
  O  O29  1  0.71395100  0.08250300  0.95520300  1
  O  O30  1  0.06616700  0.10461400  0.37585700  1
  O  O31  1  0.78604900  0.08250300  0.45520300  1
loop_
_geom_bond_atom_site_label_1
_geom_bond_atom_site_label_2
_geom_bond_distance
_geom_bond_site_symmetry_2
Li0 O29 2.057880 1_565
Li0 O14 2.099911 1_556
Li0 O12 2.358789 1_655
Li0 O24 2.367518 1_665
Li0 O9 2.437202 1_555
Li0 O25 2.565106 1_565
Li1 O31 2.057880 1_565
Li1 O11 2.099911 1_555
Li1 O15 2.358789 1_555
Li1 O26 2.367518 1_565
Li1 O13 2.437202 1_555
Li1 O27 2.565106 1_565
Li2 O4 2.103704 1_555
Li2 O18 2.116889 1_555
Li2 O20 2.187905 1_555
Li2 O16 2.233559 1_555
Li2 O0 2.337964 1_555
Li2 O5 2.435368 1_555
Li3 O6 2.103704 1_555
Li3 O22 2.116889 1_555
Li3 O17 2.187905 1_554
Li3 O19 2.233559 1_455
Li3 O2 2.337964 1_555
Li3 O7 2.435368 1_455
Li4 O25 2.103704 1_555
Li4 O9 2.116889 1_555
Li4 O14 2.187905 1_556
Li4 O12 2.233559 1_655
Li4 O29 2.337964 1_555
Li4 O24 2.435368 1_655
Li5 O27 2.103704 1_555
Li5 O13 2.116889 1_555
Li5 O11 2.187905 1_555
Li5 O15 2.233559 1_555
Li5 O31 2.337964 1_555
Li5 O26 2.435368 1_555
Li6 O0 2.057880 1_545
Li6 O20 2.099911 1_555
Li6 O16 2.358789 1_555
Li6 O5 2.367518 1_545
Li6 O18 2.437202 1_555
Li6 O4 2.565106 1_545
Li7 O2 2.057880 1_545
Li7 O17 2.099911 1_554
Li7 O19 2.358789 1_455
Li7 O7 2.367518 1_445
Li7 O22 2.437202 1_555
Li7 O6 2.565106 1_545
Ni0 O4 1.940404 1_555
Ni0 O1 1.989122 1_455
Ni0 O12 2.036469 1_555
Ni0 O24 2.044492 1_565
Ni0 O0 2.261168 1_555
Ni1 O6 1.940404 1_555
Ni1 O3 1.989122 1_555
Ni1 O15 2.036469 1_555
Ni1 O26 2.044492 1_565
Ni1 O2 2.261168 1_555
Ni2 O14 2.012086 1_556
Ni2 O8 2.016955 1_555
Ni2 O23 2.035524 1_556
Ni2 O3 2.054617 1_556
Ni2 O9 2.074721 1_555
Ni3 O11 2.012086 1_555
Ni3 O10 2.016955 1_655
Ni3 O21 2.035524 1_555
Ni3 O1 2.054617 1_555
Ni3 O13 2.074721 1_555
Ni4 O20 2.012086 1_555
Ni4 O21 2.016955 1_455
Ni4 O10 2.035524 1_555
Ni4 O30 2.054617 1_555
Ni4 O18 2.074721 1_555
Ni5 O17 2.012086 1_554
Ni5 O23 2.016955 1_555
Ni5 O8 2.035524 1_554
Ni5 O28 2.054617 1_554
Ni5 O22 2.074721 1_555
Ni6 O25 1.940404 1_555
Ni6 O28 1.989122 1_555
Ni6 O16 2.036469 1_555
Ni6 O5 2.044492 1_545
Ni6 O29 2.261168 1_555
Ni7 O27 1.940404 1_555
Ni7 O30 1.989122 1_655
Ni7 O19 2.036469 1_555
Ni7 O7 2.044492 1_545
Ni7 O31 2.261168 1_555
O0 P1 1.553878 1_555
O1 P6 1.566332 1_565
O2 P0 1.553878 1_554
O3 P7 1.566332 1_565
O4 P0 1.526921 1_555
O5 P2 1.566328 1_555
O6 P1 1.526921 1_555
O7 P3 1.566328 1_555
O8 P0 1.553922 1_555
O9 P2 1.574796 1_555
O10 P1 1.553922 1_555
O11 P2 1.562432 1_555
O12 P4 1.559364 1_555
O13 P3 1.574796 1_555
O14 P3 1.562432 1_555
O15 P5 1.559364 1_555
O16 P2 1.559364 1_555
O17 P4 1.562432 1_555
O18 P4 1.574796 1_555
O19 P3 1.559364 1_555
O20 P5 1.562432 1_555
O21 P6 1.553922 1_555
O22 P5 1.574796 1_555
O23 P7 1.553922 1_555
O24 P4 1.566328 1_555
O25 P6 1.526921 1_555
O26 P5 1.566328 1_555
O27 P7 1.526921 1_555
O28 P0 1.566332 1_545
O29 P7 1.553878 1_556
O30 P1 1.566332 1_545
O31 P6 1.553878 1_555
