# generated using pymatgen
data_LiMn3(BO3)3
_symmetry_space_group_name_H-M   'P 1'
_cell_length_a   5.26075500
_cell_length_b   6.17102565
_cell_length_c   11.80267644
_cell_angle_alpha   81.74502810
_cell_angle_beta   77.63820278
_cell_angle_gamma   87.91981980
_symmetry_Int_Tables_number   1
_chemical_formula_structural   LiMn3(BO3)3
_chemical_formula_sum   'Li2 Mn6 B6 O18'
_cell_volume   370.39741192
_cell_formula_units_Z   2
loop_
 _symmetry_equiv_pos_site_id
 _symmetry_equiv_pos_as_xyz
  1  'x, y, z'
loop_
 _atom_site_type_symbol
 _atom_site_label
 _atom_site_symmetry_multiplicity
 _atom_site_fract_x
 _atom_site_fract_y
 _atom_site_fract_z
 _atom_site_occupancy
  Li  Li0  1  0.30426000  0.03490400  0.70414500  1
  Li  Li1  1  0.69574000  0.96509600  0.29585500  1
  Mn  Mn0  1  0.84329800  0.87485500  0.61945500  1
  Mn  Mn1  1  0.48571000  0.45701600  0.71338400  1
  Mn  Mn2  1  0.15670200  0.12514500  0.38054500  1
  Mn  Mn3  1  0.51429000  0.54298400  0.28661600  1
  Mn  Mn4  1  0.16797600  0.21154100  0.96147600  1
  Mn  Mn5  1  0.83202400  0.78845900  0.03852400  1
  B  B0  1  0.57689600  0.22538400  0.49669900  1
  B  B1  1  0.91123500  0.57604800  0.83054000  1
  B  B2  1  0.25095100  0.92724700  0.16587800  1
  B  B3  1  0.42310400  0.77461600  0.50330100  1
  B  B4  1  0.74904900  0.07275300  0.83412200  1
  B  B5  1  0.08876500  0.42395200  0.16946000  1
  O  O0  1  0.49961600  0.13772500  0.82463400  1
  O  O1  1  0.93554700  0.02014100  0.74181500  1
  O  O2  1  0.82248800  0.14271300  0.50935700  1
  O  O3  1  0.40440300  0.29119600  0.58648300  1
  O  O4  1  0.51893500  0.21680600  0.38580100  1
  O  O5  1  0.85717200  0.59321600  0.71769800  1
  O  O6  1  0.50038400  0.86227500  0.17536600  1
  O  O7  1  0.48106500  0.78319400  0.61419900  1
  O  O8  1  0.06445300  0.97985900  0.25818500  1
  O  O9  1  0.59559700  0.70880400  0.41351700  1
  O  O10  1  0.16852900  0.92345700  0.05957200  1
  O  O11  1  0.17751200  0.85728700  0.49064300  1
  O  O12  1  0.83147100  0.07654300  0.94042800  1
  O  O13  1  0.14282800  0.40678400  0.28230200  1
  O  O14  1  0.26385300  0.34736400  0.08224700  1
  O  O15  1  0.85832900  0.53080600  0.15345300  1
  O  O16  1  0.73614700  0.65263600  0.91775300  1
  O  O17  1  0.14167100  0.46919400  0.84654700  1
loop_
_geom_bond_atom_site_label_1
_geom_bond_atom_site_label_2
_geom_bond_distance
_geom_bond_site_symmetry_2
Li0 O1 1.897469 1_455
Li0 O3 1.955516 1_555
Li0 O7 2.085848 1_545
Li0 O0 2.100806 1_555
Li1 O8 1.897469 1_655
Li1 O9 1.955516 1_555
Li1 O4 2.085848 1_565
Li1 O6 2.100806 1_555
Mn0 O5 1.954179 1_555
Mn0 O1 1.956647 1_565
Mn0 O2 1.965657 1_565
Mn0 O7 2.023395 1_555
Mn0 O11 2.074475 1_655
Mn1 O3 2.054159 1_555
Mn1 O17 2.134868 1_555
Mn1 O5 2.168394 1_555
Mn1 O7 2.180511 1_555
Mn1 O0 2.213476 1_555
Mn2 O13 1.954179 1_555
Mn2 O8 1.956647 1_545
Mn2 O11 1.965657 1_545
Mn2 O4 2.023395 1_555
Mn2 O2 2.074475 1_455
Mn3 O9 2.054159 1_555
Mn3 O15 2.134868 1_555
Mn3 O13 2.168394 1_555
Mn3 O4 2.180511 1_555
Mn3 O6 2.213476 1_555
Mn4 O14 1.915818 1_556
Mn4 O17 1.957620 1_555
Mn4 O10 1.977622 1_546
Mn4 O12 2.060188 1_455
Mn4 O0 2.192491 1_555
Mn5 O16 1.915818 1_554
Mn5 O15 1.957620 1_555
Mn5 O12 1.977622 1_564
Mn5 O10 2.060188 1_655
Mn5 O6 2.192491 1_555
B0 O3 1.340313 1_555
B0 O2 1.401699 1_555
B0 O4 1.414543 1_555
B1 O16 1.354063 1_555
B1 O17 1.394400 1_655
B1 O5 1.409037 1_555
B2 O8 1.369573 1_555
B2 O6 1.380946 1_555
B2 O10 1.415952 1_555
B3 O9 1.340313 1_555
B3 O11 1.401699 1_555
B3 O7 1.414543 1_555
B4 O1 1.369573 1_555
B4 O0 1.380946 1_555
B4 O12 1.415952 1_555
B5 O14 1.354063 1_555
B5 O15 1.394400 1_455
B5 O13 1.409037 1_555
