# generated using pymatgen
data_LiMn2P2H5O11
_symmetry_space_group_name_H-M   'P 1'
_cell_length_a   9.80316600
_cell_length_b   9.13933300
_cell_length_c   11.83845412
_cell_angle_alpha   53.97755556
_cell_angle_beta   90.00000000
_cell_angle_gamma   90.00000000
_symmetry_Int_Tables_number   1
_chemical_formula_structural   LiMn2P2H5O11
_chemical_formula_sum   'Li4 Mn8 P8 H20 O44'
_cell_volume   857.84701352
_cell_formula_units_Z   4
loop_
 _symmetry_equiv_pos_site_id
 _symmetry_equiv_pos_as_xyz
  1  'x, y, z'
loop_
 _atom_site_type_symbol
 _atom_site_label
 _atom_site_symmetry_multiplicity
 _atom_site_fract_x
 _atom_site_fract_y
 _atom_site_fract_z
 _atom_site_occupancy
  Li  Li0  1  0.69657100  0.44248400  0.01356600  1
  Li  Li1  1  0.80342900  0.44248400  0.51356600  1
  Li  Li2  1  0.19657100  0.55751600  0.48643400  1
  Li  Li3  1  0.30342900  0.55751600  0.98643400  1
  Mn  Mn0  1  0.72058200  0.70917100  0.08764600  1
  Mn  Mn1  1  0.92092400  0.03899900  0.09404800  1
  Mn  Mn2  1  0.22058200  0.29082900  0.41235400  1
  Mn  Mn3  1  0.42092400  0.96100100  0.40595200  1
  Mn  Mn4  1  0.57907600  0.03899900  0.59404800  1
  Mn  Mn5  1  0.77941800  0.70917100  0.58764600  1
  Mn  Mn6  1  0.07907600  0.96100100  0.90595200  1
  Mn  Mn7  1  0.27941800  0.29082900  0.91235400  1
  P  P0  1  0.02487100  0.64542800  0.21909200  1
  P  P1  1  0.15783600  0.17860700  0.20409400  1
  P  P2  1  0.52487100  0.35457200  0.28090800  1
  P  P3  1  0.65783600  0.82139300  0.29590600  1
  P  P4  1  0.34216400  0.17860700  0.70409400  1
  P  P5  1  0.47512900  0.64542800  0.71909200  1
  P  P6  1  0.84216400  0.82139300  0.79590600  1
  P  P7  1  0.97512900  0.35457200  0.78090800  1
  H  H0  1  0.45403500  0.84220200  0.03744800  1
  H  H1  1  0.34607100  0.66964600  0.20870500  1
  H  H2  1  0.22362500  0.95421100  0.07617900  1
  H  H3  1  0.49781800  0.08315700  0.11810400  1
  H  H4  1  0.84607100  0.33035400  0.29129500  1
  H  H5  1  0.89469000  0.18121900  0.27146200  1
  H  H6  1  0.39469000  0.81878100  0.22853800  1
  H  H7  1  0.99781800  0.91684300  0.38189600  1
  H  H8  1  0.72362500  0.04578900  0.42382100  1
  H  H9  1  0.95403500  0.15779800  0.46255200  1
  H  H10  1  0.04596500  0.84220200  0.53744800  1
  H  H11  1  0.27637500  0.95421100  0.57617900  1
  H  H12  1  0.00218200  0.08315700  0.61810400  1
  H  H13  1  0.60531000  0.18121900  0.77146200  1
  H  H14  1  0.10531000  0.81878100  0.72853800  1
  H  H15  1  0.15392900  0.66964600  0.70870500  1
  H  H16  1  0.50218200  0.91684300  0.88189600  1
  H  H17  1  0.77637500  0.04578900  0.92382100  1
  H  H18  1  0.65392900  0.33035400  0.79129500  1
  H  H19  1  0.54596500  0.15779800  0.96255200  1
  O  O0  1  0.09836100  0.71664000  0.07809800  1
  O  O1  1  0.47997700  0.17397400  0.01847800  1
  O  O2  1  0.34147600  0.80096900  0.16640000  1
  O  O3  1  0.22003000  0.31988100  0.05611100  1
  O  O4  1  0.16636400  0.06002700  0.99995700  1
  O  O5  1  0.64127300  0.71726600  0.23075600  1
  O  O6  1  0.62516100  0.47545100  0.15697800  1
  O  O7  1  0.89116600  0.54733900  0.23395000  1
  O  O8  1  0.39116600  0.45266100  0.26605000  1
  O  O9  1  0.12516100  0.52454900  0.34302200  1
  O  O10  1  0.00806300  0.13243600  0.18903800  1
  O  O11  1  0.14127300  0.28273400  0.26924400  1
  O  O12  1  0.74090000  0.99513500  0.20788500  1
  O  O13  1  0.49365300  0.19776000  0.26789900  1
  O  O14  1  0.84147600  0.19903100  0.33360000  1
  O  O15  1  0.99365300  0.80224000  0.23210100  1
  O  O16  1  0.24090000  0.00486500  0.29211500  1
  O  O17  1  0.50806300  0.86756400  0.31096200  1
  O  O18  1  0.59836100  0.28336000  0.42190200  1
  O  O19  1  0.02002300  0.17397400  0.51847800  1
  O  O20  1  0.27997000  0.31988100  0.55611100  1
  O  O21  1  0.33363600  0.06002700  0.49995700  1
  O  O22  1  0.66636400  0.93997300  0.50004300  1
  O  O23  1  0.72003000  0.68011900  0.44388900  1
  O  O24  1  0.97997700  0.82602600  0.48152200  1
  O  O25  1  0.40163900  0.71664000  0.57809800  1
  O  O26  1  0.49193700  0.13243600  0.68903800  1
  O  O27  1  0.75910000  0.99513500  0.70788500  1
  O  O28  1  0.00634700  0.19776000  0.76789900  1
  O  O29  1  0.15852400  0.80096900  0.66640000  1
  O  O30  1  0.50634700  0.80224000  0.73210100  1
  O  O31  1  0.25910000  0.00486500  0.79211500  1
  O  O32  1  0.85872700  0.71726600  0.73075600  1
  O  O33  1  0.99193700  0.86756400  0.81096200  1
  O  O34  1  0.87483900  0.47545100  0.65697800  1
  O  O35  1  0.60883400  0.54733900  0.73395000  1
  O  O36  1  0.10883400  0.45266100  0.76605000  1
  O  O37  1  0.37483900  0.52454900  0.84302200  1
  O  O38  1  0.35872700  0.28273400  0.76924400  1
  O  O39  1  0.83363600  0.93997300  0.00004300  1
  O  O40  1  0.77997000  0.68011900  0.94388900  1
  O  O41  1  0.65852400  0.19903100  0.83360000  1
  O  O42  1  0.52002300  0.82602600  0.98152200  1
  O  O43  1  0.90163900  0.28336000  0.92190200  1
loop_
_geom_bond_atom_site_label_1
_geom_bond_atom_site_label_2
_geom_bond_distance
_geom_bond_site_symmetry_2
Li0 O40 1.989605 1_554
Li0 O6 2.016173 1_555
Li1 O23 1.989605 1_555
Li1 O34 2.016173 1_555
Li2 O20 1.989605 1_555
Li2 O9 2.016173 1_555
Li3 O3 1.989605 1_556
Li3 O37 2.016173 1_555
Mn0 O5 1.904650 1_555
Mn0 O40 1.958894 1_554
Mn0 O6 2.012273 1_555
Mn0 O39 2.044565 1_555
Mn0 O7 2.229526 1_555
Mn0 O42 2.237500 1_554
Mn1 O15 1.924048 1_545
Mn1 O43 1.955319 1_554
Mn1 O10 1.962917 1_655
Mn1 O39 1.993602 1_545
Mn1 O12 2.110916 1_545
Mn1 O4 2.610587 1_654
Mn2 O11 1.904650 1_555
Mn2 O20 1.958894 1_555
Mn2 O9 2.012273 1_555
Mn2 O21 2.044565 1_555
Mn2 O8 2.229526 1_555
Mn2 O19 2.237500 1_555
Mn3 O13 1.924048 1_565
Mn3 O25 1.955319 1_555
Mn3 O17 1.962917 1_555
Mn3 O21 1.993602 1_565
Mn3 O16 2.110916 1_565
Mn3 O22 2.610587 1_555
Mn4 O30 1.924048 1_545
Mn4 O18 1.955319 1_555
Mn4 O26 1.962917 1_555
Mn4 O22 1.993602 1_545
Mn4 O27 2.110916 1_545
Mn4 O21 2.610587 1_555
Mn5 O32 1.904650 1_555
Mn5 O23 1.958894 1_555
Mn5 O34 2.012273 1_555
Mn5 O22 2.044565 1_555
Mn5 O35 2.229526 1_555
Mn5 O24 2.237500 1_555
Mn6 O28 1.924048 1_565
Mn6 O0 1.955319 1_556
Mn6 O33 1.962917 1_455
Mn6 O4 1.993602 1_565
Mn6 O31 2.110916 1_565
Mn6 O39 2.610587 1_456
Mn7 O38 1.904650 1_555
Mn7 O3 1.958894 1_556
Mn7 O37 2.012273 1_555
Mn7 O4 2.044565 1_555
Mn7 O36 2.229526 1_555
Mn7 O1 2.237500 1_556
H0 O42 0.996894 1_554
H1 O2 0.993146 1_555
H1 O8 1.733633 1_555
H2 O4 1.018911 1_564
H2 O2 1.636327 1_555
H3 O1 0.979342 1_555
H4 O14 0.993146 1_555
H4 O7 1.733633 1_555
H5 O14 0.990263 1_555
H5 O10 1.702307 1_655
H6 O2 0.990263 1_555
H6 O17 1.702307 1_555
H7 O24 0.979342 1_555
H8 O22 1.018911 1_545
H8 O14 1.636327 1_555
H9 O19 0.996894 1_655
H10 O24 0.996894 1_455
H11 O21 1.018911 1_565
H11 O29 1.636327 1_555
H12 O19 0.979342 1_555
H13 O41 0.990263 1_555
H13 O26 1.702307 1_555
H14 O29 0.990263 1_555
H14 O33 1.702307 1_455
H15 O29 0.993146 1_555
H15 O36 1.733633 1_555
H16 O42 0.979342 1_555
H17 O39 1.018911 1_546
H17 O41 1.636327 1_555
H18 O41 0.993146 1_555
H18 O35 1.733633 1_555
H19 O1 0.996894 1_556
O0 P0 1.565542 1_555
O3 P1 1.564417 1_555
O5 P3 1.546023 1_555
O6 P2 1.559858 1_555
O7 P0 1.538552 1_655
O8 P2 1.538552 1_555
O9 P0 1.559858 1_555
O10 P1 1.566541 1_555
O11 P1 1.546023 1_555
O12 P3 1.524500 1_555
O13 P2 1.559141 1_555
O15 P0 1.559141 1_655
O16 P1 1.524500 1_555
O17 P3 1.566541 1_555
O18 P2 1.565542 1_555
O20 P4 1.564417 1_555
O23 P3 1.564417 1_555
O25 P5 1.565542 1_555
O26 P4 1.566541 1_555
O27 P6 1.524500 1_555
O28 P7 1.559141 1_455
O30 P5 1.559141 1_555
O31 P4 1.524500 1_555
O32 P6 1.546023 1_555
O33 P6 1.566541 1_555
O34 P7 1.559858 1_555
O35 P5 1.538552 1_555
O36 P7 1.538552 1_455
O37 P5 1.559858 1_555
O38 P4 1.546023 1_555
O40 P6 1.564417 1_555
O43 P7 1.565542 1_555
