# generated using pymatgen
data_Na2CaZr2Si10O27
_symmetry_space_group_name_H-M   'P 1'
_cell_length_a   9.30524518
_cell_length_b   9.30524518
_cell_length_c   19.07286783
_cell_angle_alpha   82.04547477
_cell_angle_beta   82.04547477
_cell_angle_gamma   112.89059409
_symmetry_Int_Tables_number   1
_chemical_formula_structural   Na2CaZr2Si10O27
_chemical_formula_sum   'Na4 Ca2 Zr4 Si20 O54'
_cell_volume   1472.96247952
_cell_formula_units_Z   2
loop_
 _symmetry_equiv_pos_site_id
 _symmetry_equiv_pos_as_xyz
  1  'x, y, z'
loop_
 _atom_site_type_symbol
 _atom_site_label
 _atom_site_symmetry_multiplicity
 _atom_site_fract_x
 _atom_site_fract_y
 _atom_site_fract_z
 _atom_site_occupancy
  Na  Na0  1  0.96933100  0.94178200  0.39645300  1
  Na  Na1  1  0.94178200  0.96933100  0.89645300  1
  Na  Na2  1  0.06718300  0.04677000  0.09256400  1
  Na  Na3  1  0.04677000  0.06718300  0.59256400  1
  Ca  Ca0  1  0.37097900  0.62305700  0.50347000  1
  Ca  Ca1  1  0.62305700  0.37097900  0.00347000  1
  Zr  Zr0  1  0.97188100  0.49815400  0.49802800  1
  Zr  Zr1  1  0.49815400  0.97188100  0.99802800  1
  Zr  Zr2  1  0.49574900  0.02417100  0.50627900  1
  Zr  Zr3  1  0.02417100  0.49574900  0.00627900  1
  Si  Si0  1  0.15390000  0.76017800  0.11466400  1
  Si  Si1  1  0.76017800  0.15390000  0.61466400  1
  Si  Si2  1  0.75130200  0.14153400  0.11344600  1
  Si  Si3  1  0.14153400  0.75130200  0.61344600  1
  Si  Si4  1  0.84406000  0.23441800  0.38821200  1
  Si  Si5  1  0.23441800  0.84406000  0.88821200  1
  Si  Si6  1  0.24745100  0.85149300  0.39062600  1
  Si  Si7  1  0.85149300  0.24745100  0.89062600  1
  Si  Si8  1  0.28461200  0.70050000  0.25403900  1
  Si  Si9  1  0.70050000  0.28461200  0.75403900  1
  Si  Si10  1  0.71031600  0.29386200  0.24980600  1
  Si  Si11  1  0.29386200  0.71031600  0.74980600  1
  Si  Si12  1  0.18664300  0.39578200  0.37051100  1
  Si  Si13  1  0.39578200  0.18664300  0.87051100  1
  Si  Si14  1  0.39909900  0.20762100  0.36680400  1
  Si  Si15  1  0.20762100  0.39909900  0.86680400  1
  Si  Si16  1  0.80813500  0.59907200  0.13306200  1
  Si  Si17  1  0.59907200  0.80813500  0.63306200  1
  Si  Si18  1  0.59558300  0.78793100  0.13795900  1
  Si  Si19  1  0.78793100  0.59558300  0.63795900  1
  O  O0  1  0.33715200  0.34832100  0.35958500  1
  O  O1  1  0.34832100  0.33715200  0.85958500  1
  O  O2  1  0.65863900  0.64815000  0.14092300  1
  O  O3  1  0.64815000  0.65863900  0.64092300  1
  O  O4  1  0.18635000  0.47921900  0.44033600  1
  O  O5  1  0.47921900  0.18635000  0.94033600  1
  O  O6  1  0.02374100  0.22706700  0.38051000  1
  O  O7  1  0.22706700  0.02374100  0.88051000  1
  O  O8  1  0.19951300  0.51327100  0.29583500  1
  O  O9  1  0.51327100  0.19951300  0.79583500  1
  O  O10  1  0.46629500  0.19709000  0.44017000  1
  O  O11  1  0.19709000  0.46629500  0.94017000  1
  O  O12  1  0.24706500  0.03333800  0.37187000  1
  O  O13  1  0.03333800  0.24706500  0.87187000  1
  O  O14  1  0.52926800  0.24537400  0.29309600  1
  O  O15  1  0.24537400  0.52926800  0.79309600  1
  O  O16  1  0.78996200  0.48091100  0.20852100  1
  O  O17  1  0.48091100  0.78996200  0.70852100  1
  O  O18  1  0.81120800  0.51455800  0.06381300  1
  O  O19  1  0.51455800  0.81120800  0.56381300  1
  O  O20  1  0.97311200  0.76415800  0.12339000  1
  O  O21  1  0.76415800  0.97311200  0.62339000  1
  O  O22  1  0.46608600  0.74512800  0.21275800  1
  O  O23  1  0.74512800  0.46608600  0.71275800  1
  O  O24  1  0.52054600  0.79914600  0.06686000  1
  O  O25  1  0.79914600  0.52054600  0.56686000  1
  O  O26  1  0.74951000  0.95986000  0.13269500  1
  O  O27  1  0.95986000  0.74951000  0.63269500  1
  O  O28  1  0.81834700  0.26520800  0.30545400  1
  O  O29  1  0.26520800  0.81834700  0.80545400  1
  O  O30  1  0.29560500  0.81425100  0.31191800  1
  O  O31  1  0.81425100  0.29560500  0.81191800  1
  O  O32  1  0.17971800  0.73163400  0.19755200  1
  O  O33  1  0.73163400  0.17971800  0.69755200  1
  O  O34  1  0.70183300  0.18178800  0.19137800  1
  O  O35  1  0.18178800  0.70183300  0.69137800  1
  O  O36  1  0.14576200  0.61291000  0.07635100  1
  O  O37  1  0.61291000  0.14576200  0.57635100  1
  O  O38  1  0.61564200  0.13808400  0.06627600  1
  O  O39  1  0.13808400  0.61564200  0.56627600  1
  O  O40  1  0.93497800  0.25973300  0.07224800  1
  O  O41  1  0.25973300  0.93497800  0.57224800  1
  O  O42  1  0.27735400  0.93669000  0.06783100  1
  O  O43  1  0.93669000  0.27735400  0.56783100  1
  O  O44  1  0.06309000  0.73344000  0.43096600  1
  O  O45  1  0.73344000  0.06309000  0.93096600  1
  O  O46  1  0.71394500  0.06280900  0.43582900  1
  O  O47  1  0.06280900  0.71394500  0.93582900  1
  O  O48  1  0.85781100  0.38443500  0.42557600  1
  O  O49  1  0.38443500  0.85781100  0.92557600  1
  O  O50  1  0.38009800  0.85469300  0.43879100  1
  O  O51  1  0.85469300  0.38009800  0.93879100  1
  O  O52  1  0.54986100  0.49969300  0.48454600  1
  O  O53  1  0.49969300  0.54986100  0.98454600  1
loop_
_geom_bond_atom_site_label_1
_geom_bond_atom_site_label_2
_geom_bond_distance
_geom_bond_site_symmetry_2
Na0 O12 2.337927 1_665
Na0 O44 2.464649 1_655
Na0 O6 2.466644 1_665
Na1 O13 2.337927 1_665
Na1 O45 2.464649 1_565
Na1 O7 2.466644 1_665
Na2 O20 2.380427 1_445
Na2 O42 2.556036 1_545
Na2 O26 2.705673 1_445
Na2 O40 2.721486 1_455
Na3 O21 2.380427 1_445
Na3 O43 2.556036 1_455
Na3 O27 2.705673 1_445
Na3 O41 2.721486 1_545
Ca0 O50 2.295145 1_555
Ca0 O39 2.297501 1_555
Ca0 O19 2.310508 1_555
Ca0 O4 2.328686 1_555
Ca0 O52 2.377729 1_555
Ca1 O51 2.295145 1_554
Ca1 O38 2.297501 1_555
Ca1 O18 2.310508 1_555
Ca1 O5 2.328686 1_554
Ca1 O53 2.377729 1_554
O0 Si14 1.620045 1_555
O0 Si12 1.620433 1_555
O1 Si15 1.620045 1_555
O1 Si13 1.620433 1_555
O2 Si16 1.619146 1_555
O2 Si18 1.619207 1_555
O3 Si17 1.619146 1_555
O3 Si19 1.619207 1_555
O4 Si12 1.631938 1_555
O4 Zr0 2.223513 1_455
O5 Si13 1.631938 1_555
O5 Zr1 2.223513 1_545
O6 Si12 1.668722 1_555
O6 Si4 1.686871 1_455
O7 Si13 1.668722 1_555
O7 Si5 1.686871 1_545
O8 Si12 1.630375 1_555
O8 Si8 1.632627 1_555
O9 Si13 1.630375 1_555
O9 Si9 1.632627 1_555
O10 Si14 1.615701 1_555
O10 Zr2 2.032537 1_555
O11 Si15 1.615701 1_555
O11 Zr3 2.032537 1_556
O12 Si14 1.665762 1_555
O12 Si6 1.681896 1_545
O13 Si15 1.665762 1_555
O13 Si7 1.681896 1_455
O14 Si14 1.621073 1_555
O14 Si10 1.626058 1_555
O15 Si15 1.621073 1_555
O15 Si11 1.626058 1_555
O16 Si10 1.629235 1_555
O16 Si16 1.630613 1_555
O17 Si11 1.629235 1_555
O17 Si17 1.630613 1_555
O18 Si16 1.630416 1_555
O18 Zr3 2.209734 1_655
O19 Si17 1.630416 1_555
O19 Zr2 2.209734 1_565
O20 Si16 1.661061 1_555
O20 Si0 1.682798 1_655
O21 Si17 1.661061 1_555
O21 Si1 1.682798 1_565
O22 Si18 1.624655 1_555
O22 Si8 1.624782 1_555
O23 Si19 1.624655 1_555
O23 Si9 1.624782 1_555
O24 Si18 1.617688 1_555
O24 Zr1 2.025508 1_554
O25 Si19 1.617688 1_555
O25 Zr0 2.025508 1_555
O26 Si18 1.659584 1_555
O26 Si2 1.672580 1_565
O27 Si19 1.659584 1_555
O27 Si3 1.672580 1_655
O28 Si10 1.622844 1_555
O28 Si4 1.632016 1_555
O29 Si11 1.622844 1_555
O29 Si5 1.632016 1_555
O30 Si8 1.618613 1_555
O30 Si6 1.628819 1_555
O31 Si9 1.618613 1_555
O31 Si7 1.628819 1_555
O32 Si8 1.619260 1_555
O32 Si0 1.632816 1_555
O33 Si9 1.619260 1_555
O33 Si1 1.632816 1_555
O34 Si10 1.617915 1_555
O34 Si2 1.631075 1_555
O35 Si11 1.617915 1_555
O35 Si3 1.631075 1_555
O36 Si0 1.621529 1_555
O36 Zr3 2.029054 1_555
O37 Si1 1.621529 1_555
O37 Zr2 2.029054 1_555
O38 Si2 1.641571 1_555
O38 Zr1 2.217465 1_544
O39 Si3 1.641571 1_555
O39 Zr0 2.217465 1_455
O40 Si2 1.635547 1_555
O40 Zr3 2.150198 1_655
O41 Si3 1.635547 1_555
O41 Zr2 2.150198 1_565
O42 Si0 1.630149 1_555
O42 Zr1 2.167933 1_554
O43 Si1 1.630149 1_555
O43 Zr0 2.167933 1_555
O44 Si6 1.635977 1_555
O44 Zr0 2.151438 1_455
O45 Si7 1.635977 1_555
O45 Zr1 2.151438 1_545
O46 Si4 1.622002 1_555
O46 Zr2 2.144867 1_555
O47 Si5 1.622002 1_555
O47 Zr3 2.144867 1_556
O48 Si4 1.623116 1_555
O48 Zr0 2.023086 1_555
O49 Si5 1.623116 1_555
O49 Zr1 2.023086 1_555
O50 Si6 1.631298 1_555
O50 Zr2 2.219676 1_565
O51 Si7 1.631298 1_555
O51 Zr3 2.219676 1_656
