# generated using pymatgen
data_Li4Fe2O5
_symmetry_space_group_name_H-M   'P 1'
_cell_length_a   5.59099900
_cell_length_b   7.76355100
_cell_length_c   12.09723762
_cell_angle_alpha   64.89144951
_cell_angle_beta   90.00000000
_cell_angle_gamma   90.00000000
_symmetry_Int_Tables_number   1
_chemical_formula_structural   Li4Fe2O5
_chemical_formula_sum   'Li16 Fe8 O20'
_cell_volume   475.47438007
_cell_formula_units_Z   4
loop_
 _symmetry_equiv_pos_site_id
 _symmetry_equiv_pos_as_xyz
  1  'x, y, z'
loop_
 _atom_site_type_symbol
 _atom_site_label
 _atom_site_symmetry_multiplicity
 _atom_site_fract_x
 _atom_site_fract_y
 _atom_site_fract_z
 _atom_site_occupancy
  Li  Li0  1  0.93683100  0.16990300  0.98710900  1
  Li  Li1  1  0.54918900  0.69943400  0.97993200  1
  Li  Li2  1  0.10681400  0.57640900  0.89727700  1
  Li  Li3  1  0.43272000  0.14266500  0.88495400  1
  Li  Li4  1  0.60681400  0.42359100  0.60272300  1
  Li  Li5  1  0.93272000  0.85733500  0.61504600  1
  Li  Li6  1  0.43683100  0.83009700  0.51289100  1
  Li  Li7  1  0.95081100  0.69943400  0.47993200  1
  Li  Li8  1  0.04918900  0.30056600  0.52006800  1
  Li  Li9  1  0.56316900  0.16990300  0.48710900  1
  Li  Li10  1  0.06728000  0.14266500  0.38495400  1
  Li  Li11  1  0.39318600  0.57640900  0.39727700  1
  Li  Li12  1  0.56728000  0.85733500  0.11504600  1
  Li  Li13  1  0.89318600  0.42359100  0.10272300  1
  Li  Li14  1  0.45081100  0.30056600  0.02006800  1
  Li  Li15  1  0.06316900  0.83009700  0.01289100  1
  Fe  Fe0  1  0.62863500  0.55959700  0.80112400  1
  Fe  Fe1  1  0.12863500  0.44040300  0.69887600  1
  Fe  Fe2  1  0.78304000  0.00428300  0.79457100  1
  Fe  Fe3  1  0.28304000  0.99571700  0.70542900  1
  Fe  Fe4  1  0.71696000  0.00428300  0.29457100  1
  Fe  Fe5  1  0.21696000  0.99571700  0.20542900  1
  Fe  Fe6  1  0.87136500  0.55959700  0.30112400  1
  Fe  Fe7  1  0.37136500  0.44040300  0.19887600  1
  O  O0  1  0.77995800  0.41867900  0.95010800  1
  O  O1  1  0.32111200  0.41974300  0.83761800  1
  O  O2  1  0.74793800  0.97313300  0.95860800  1
  O  O3  1  0.01962000  0.82615600  0.78545700  1
  O  O4  1  0.53314100  0.79844800  0.79925100  1
  O  O5  1  0.82111200  0.58025700  0.66238200  1
  O  O6  1  0.03314100  0.20155200  0.70074900  1
  O  O7  1  0.51962000  0.17384400  0.71454300  1
  O  O8  1  0.27995800  0.58132100  0.54989200  1
  O  O9  1  0.24793800  0.02686700  0.54139200  1
  O  O10  1  0.75206200  0.97313300  0.45860800  1
  O  O11  1  0.72004200  0.41867900  0.45010800  1
  O  O12  1  0.48038000  0.82615600  0.28545700  1
  O  O13  1  0.96685900  0.79844800  0.29925100  1
  O  O14  1  0.17888800  0.41974300  0.33761800  1
  O  O15  1  0.46685900  0.20155200  0.20074900  1
  O  O16  1  0.98038000  0.17384400  0.21454300  1
  O  O17  1  0.25206200  0.02686700  0.04139200  1
  O  O18  1  0.67888800  0.58025700  0.16238200  1
  O  O19  1  0.22004200  0.58132100  0.04989200  1
loop_
_geom_bond_atom_site_label_1
_geom_bond_atom_site_label_2
_geom_bond_distance
_geom_bond_site_symmetry_2
Li0 O0 1.991529 1_555
Li0 O2 2.003718 1_545
Li0 O17 2.037584 1_656
Li1 O4 1.987586 1_555
Li1 O19 2.070036 1_556
Li1 O18 2.126095 1_556
Li1 O2 2.313273 1_555
Li2 O3 1.897635 1_555
Li2 O19 1.967357 1_556
Li2 O1 2.044680 1_555
Li2 O0 2.140880 1_455
Li3 O17 1.991479 1_556
Li3 O7 2.030013 1_555
Li3 O1 2.073443 1_555
Li3 O2 2.153357 1_545
Li4 O7 1.897635 1_555
Li4 O11 1.967357 1_555
Li4 O5 2.044680 1_555
Li4 O8 2.140880 1_555
Li5 O10 1.991479 1_555
Li5 O3 2.030013 1_655
Li5 O5 2.073443 1_555
Li5 O9 2.153357 1_665
Li6 O8 1.991529 1_555
Li6 O9 2.003718 1_565
Li6 O10 2.037584 1_555
Li7 O13 1.987586 1_555
Li7 O8 2.070036 1_655
Li7 O5 2.126095 1_555
Li7 O10 2.313273 1_555
Li8 O6 1.987586 1_555
Li8 O11 2.070036 1_455
Li8 O14 2.126095 1_555
Li8 O9 2.313273 1_555
Li9 O11 1.991529 1_555
Li9 O10 2.003718 1_545
Li9 O9 2.037584 1_555
Li10 O9 1.991479 1_555
Li10 O16 2.030013 1_455
Li10 O14 2.073443 1_555
Li10 O10 2.153357 1_445
Li11 O12 1.897635 1_555
Li11 O8 1.967357 1_555
Li11 O14 2.044680 1_555
Li11 O11 2.140880 1_555
Li12 O2 1.991479 1_554
Li12 O12 2.030013 1_555
Li12 O18 2.073443 1_555
Li12 O17 2.153357 1_565
Li13 O16 1.897635 1_555
Li13 O0 1.967357 1_554
Li13 O18 2.044680 1_555
Li13 O19 2.140880 1_655
Li14 O15 1.987586 1_555
Li14 O0 2.070036 1_554
Li14 O1 2.126095 1_554
Li14 O17 2.313273 1_555
Li15 O19 1.991529 1_555
Li15 O17 2.003718 1_565
Li15 O2 2.037584 1_454
Fe0 O0 1.867507 1_555
Fe0 O4 1.920536 1_555
Fe0 O5 1.942252 1_555
Fe0 O1 1.980703 1_555
Fe1 O8 1.867507 1_555
Fe1 O6 1.920536 1_555
Fe1 O1 1.942252 1_555
Fe1 O5 1.980703 1_455
Fe2 O2 1.904613 1_545
Fe2 O7 1.938470 1_555
Fe2 O3 1.950268 1_645
Fe2 O6 2.028251 1_655
Fe2 O4 2.105276 1_545
Fe3 O9 1.904613 1_565
Fe3 O3 1.938470 1_555
Fe3 O7 1.950268 1_565
Fe3 O4 2.028251 1_555
Fe3 O6 2.105276 1_565
Fe4 O10 1.904613 1_545
Fe4 O16 1.938470 1_555
Fe4 O12 1.950268 1_545
Fe4 O15 2.028251 1_555
Fe4 O13 2.105276 1_545
Fe5 O17 1.904613 1_565
Fe5 O12 1.938470 1_555
Fe5 O16 1.950268 1_465
Fe5 O13 2.028251 1_455
Fe5 O15 2.105276 1_565
Fe6 O11 1.867507 1_555
Fe6 O13 1.920536 1_555
Fe6 O18 1.942252 1_555
Fe6 O14 1.980703 1_655
Fe7 O19 1.867507 1_555
Fe7 O15 1.920536 1_555
Fe7 O14 1.942252 1_555
Fe7 O18 1.980703 1_555
