# generated using pymatgen
data_Li2V3O8
_symmetry_space_group_name_H-M   'P 1'
_cell_length_a   8.95256500
_cell_length_b   8.95256500
_cell_length_c   5.27918600
_cell_angle_alpha   90.00000000
_cell_angle_beta   90.00000000
_cell_angle_gamma   90.00000000
_symmetry_Int_Tables_number   1
_chemical_formula_structural   Li2V3O8
_chemical_formula_sum   'Li4 V6 O16'
_cell_volume   423.11841720
_cell_formula_units_Z   2
loop_
 _symmetry_equiv_pos_site_id
 _symmetry_equiv_pos_as_xyz
  1  'x, y, z'
loop_
 _atom_site_type_symbol
 _atom_site_label
 _atom_site_symmetry_multiplicity
 _atom_site_fract_x
 _atom_site_fract_y
 _atom_site_fract_z
 _atom_site_occupancy
  Li  Li0  1  0.25789500  0.24210500  0.89736700  1
  Li  Li1  1  0.75789500  0.25789500  0.89736700  1
  Li  Li2  1  0.24210500  0.74210500  0.89736700  1
  Li  Li3  1  0.74210500  0.75789500  0.89736700  1
  V  V0  1  0.00000000  0.00000000  0.52902900  1
  V  V1  1  0.63953400  0.13953400  0.48317800  1
  V  V2  1  0.13953400  0.36046600  0.48317800  1
  V  V3  1  0.50000000  0.50000000  0.52902900  1
  V  V4  1  0.86046600  0.63953400  0.48317800  1
  V  V5  1  0.36046600  0.86046600  0.48317800  1
  O  O0  1  0.00000000  0.00000000  0.21931800  1
  O  O1  1  0.50000000  0.00000000  0.56159000  1
  O  O2  1  0.80806600  0.09559100  0.63402100  1
  O  O3  1  0.65996900  0.15996900  0.17197100  1
  O  O4  1  0.09559100  0.19193400  0.63402100  1
  O  O5  1  0.59559100  0.30806600  0.63402100  1
  O  O6  1  0.15996900  0.34003100  0.17197100  1
  O  O7  1  0.30806600  0.40440900  0.63402100  1
  O  O8  1  0.50000000  0.50000000  0.21931800  1
  O  O9  1  0.00000000  0.50000000  0.56159000  1
  O  O10  1  0.69193400  0.59559100  0.63402100  1
  O  O11  1  0.84003100  0.65996900  0.17197100  1
  O  O12  1  0.40440900  0.69193400  0.63402100  1
  O  O13  1  0.90440900  0.80806600  0.63402100  1
  O  O14  1  0.34003100  0.84003100  0.17197100  1
  O  O15  1  0.19193400  0.90440900  0.63402100  1
loop_
_geom_bond_atom_site_label_1
_geom_bond_atom_site_label_2
_geom_bond_distance
_geom_bond_site_symmetry_2
Li0 O6 1.907552 1_556
Li0 O7 2.060549 1_555
Li0 O4 2.060549 1_555
Li1 O3 1.907552 1_556
Li1 O2 2.060549 1_555
Li1 O5 2.060549 1_555
Li2 O14 1.907552 1_556
Li2 O12 2.060549 1_555
Li2 O15 2.060549 1_555
Li3 O11 1.907552 1_556
Li3 O13 2.060549 1_555
Li3 O10 2.060549 1_555
O0 V0 1.635022 1_555
O1 V5 1.814468 1_545
O1 V1 1.814468 1_555
O2 V1 1.750818 1_555
O2 V0 1.998035 1_655
O3 V1 1.663167 1_555
O4 V2 1.750818 1_555
O4 V0 1.998035 1_555
O5 V1 1.750818 1_555
O5 V3 1.998035 1_555
O6 V2 1.663167 1_555
O7 V2 1.750818 1_555
O7 V3 1.998035 1_555
O8 V3 1.635022 1_555
O9 V2 1.814468 1_555
O9 V4 1.814468 1_455
O10 V4 1.750818 1_555
O10 V3 1.998035 1_555
O11 V4 1.663167 1_555
O12 V5 1.750818 1_555
O12 V3 1.998035 1_555
O13 V4 1.750818 1_555
O13 V0 1.998035 1_665
O14 V5 1.663167 1_555
O15 V5 1.750818 1_555
O15 V0 1.998035 1_565
