# generated using pymatgen
data_SrTiO3
_symmetry_space_group_name_H-M   'P 1'
_cell_length_a   5.62885438
_cell_length_b   5.62885438
_cell_length_c   13.88603800
_cell_angle_alpha   90.00000000
_cell_angle_beta   90.00000000
_cell_angle_gamma   120.00000450
_symmetry_Int_Tables_number   1
_chemical_formula_structural   SrTiO3
_chemical_formula_sum   'Sr6 Ti6 O18'
_cell_volume   381.02106693
_cell_formula_units_Z   6
loop_
 _symmetry_equiv_pos_site_id
 _symmetry_equiv_pos_as_xyz
  1  'x, y, z'
loop_
 _atom_site_type_symbol
 _atom_site_label
 _atom_site_symmetry_multiplicity
 _atom_site_fract_x
 _atom_site_fract_y
 _atom_site_fract_z
 _atom_site_occupancy
  Sr  Sr0  1  0.33333300  0.66666700  0.10071900  1
  Sr  Sr1  1  0.00000000  0.00000000  0.25000000  1
  Sr  Sr2  1  0.00000000  0.00000000  0.75000000  1
  Sr  Sr3  1  0.33333300  0.66666700  0.39928100  1
  Sr  Sr4  1  0.66666700  0.33333300  0.60071900  1
  Sr  Sr5  1  0.66666700  0.33333300  0.89928100  1
  Ti  Ti0  1  0.33333300  0.66666700  0.84606000  1
  Ti  Ti1  1  0.00000000  0.00000000  0.00000000  1
  Ti  Ti2  1  0.00000000  0.00000000  0.50000000  1
  Ti  Ti3  1  0.33333300  0.66666700  0.65394000  1
  Ti  Ti4  1  0.66666700  0.33333300  0.15394000  1
  Ti  Ti5  1  0.66666700  0.33333300  0.34606000  1
  O  O0  1  0.16467500  0.83532500  0.91843500  1
  O  O1  1  0.16467500  0.83532500  0.58156500  1
  O  O2  1  0.02187100  0.51093500  0.75000000  1
  O  O3  1  0.48906500  0.97812900  0.75000000  1
  O  O4  1  0.16467500  0.32935000  0.91843500  1
  O  O5  1  0.16467500  0.32935000  0.58156500  1
  O  O6  1  0.48906500  0.51093500  0.75000000  1
  O  O7  1  0.32935000  0.16467500  0.08156500  1
  O  O8  1  0.32935000  0.16467500  0.41843500  1
  O  O9  1  0.67065000  0.83532500  0.58156500  1
  O  O10  1  0.67065000  0.83532500  0.91843500  1
  O  O11  1  0.51093500  0.48906500  0.25000000  1
  O  O12  1  0.51093500  0.02187100  0.25000000  1
  O  O13  1  0.83532500  0.67065000  0.41843500  1
  O  O14  1  0.83532500  0.67065000  0.08156500  1
  O  O15  1  0.97812900  0.48906500  0.25000000  1
  O  O16  1  0.83532500  0.16467500  0.41843500  1
  O  O17  1  0.83532500  0.16467500  0.08156500  1
loop_
_geom_bond_atom_site_label_1
_geom_bond_atom_site_label_2
_geom_bond_distance
_geom_bond_site_symmetry_2
O0 Ti0 1.927131 1_555
O0 Ti1 1.964796 1_566
O0 Sr5 2.827033 1_455
O0 Sr5 2.827033 1_565
O0 Sr2 2.836906 1_565
O0 Sr0 3.018409 1_556
O1 Ti3 1.927131 1_555
O1 Ti2 1.964796 1_565
O1 Sr4 2.827033 1_455
O1 Sr4 2.827033 1_565
O1 Sr2 2.836906 1_565
O1 Sr3 3.018409 1_555
O2 Ti0 2.021011 1_555
O2 Ti3 2.021011 1_555
O2 Sr5 2.700959 1_455
O2 Sr4 2.700959 1_455
O2 Sr2 2.816443 1_555
O2 Sr2 2.816449 1_565
O3 Ti0 2.021011 1_555
O3 Ti3 2.021011 1_555
O3 Sr5 2.700959 1_565
O3 Sr4 2.700959 1_565
O3 Sr2 2.816443 1_665
O3 Sr2 2.816449 1_565
O4 Ti0 1.927135 1_555
O4 Ti1 1.964796 1_556
O4 Sr5 2.827031 1_455
O4 Sr5 2.827036 1_555
O4 Sr2 2.836906 1_555
O4 Sr0 3.018411 1_556
O5 Ti3 1.927135 1_555
O5 Ti2 1.964796 1_555
O5 Sr4 2.827031 1_455
O5 Sr4 2.827036 1_555
O5 Sr2 2.836906 1_555
O5 Sr3 3.018411 1_555
O6 Ti3 2.021018 1_555
O6 Ti0 2.021018 1_555
O6 Sr5 2.700959 1_555
O6 Sr4 2.700959 1_555
O6 Sr2 2.816445 1_665
O6 Sr2 2.816445 1_555
O7 Ti4 1.927135 1_555
O7 Ti1 1.964796 1_555
O7 Sr0 2.827031 1_545
O7 Sr0 2.827036 1_555
O7 Sr1 2.836906 1_555
O7 Sr5 3.018411 1_554
O8 Ti5 1.927135 1_555
O8 Ti2 1.964796 1_555
O8 Sr3 2.827031 1_545
O8 Sr3 2.827036 1_555
O8 Sr1 2.836906 1_555
O8 Sr4 3.018411 1_555
O9 Ti3 1.927135 1_555
O9 Ti2 1.964796 1_665
O9 Sr4 2.827031 1_565
O9 Sr4 2.827036 1_555
O9 Sr2 2.836906 1_665
O9 Sr3 3.018411 1_555
O10 Ti0 1.927135 1_555
O10 Ti1 1.964796 1_666
O10 Sr5 2.827031 1_565
O10 Sr5 2.827036 1_555
O10 Sr2 2.836906 1_665
O10 Sr0 3.018411 1_556
O11 Ti5 2.021018 1_555
O11 Ti4 2.021018 1_555
O11 Sr3 2.700959 1_555
O11 Sr0 2.700959 1_555
O11 Sr1 2.816445 1_555
O11 Sr1 2.816445 1_665
O12 Ti5 2.021011 1_555
O12 Ti4 2.021011 1_555
O12 Sr3 2.700959 1_545
O12 Sr0 2.700959 1_545
O12 Sr1 2.816443 1_555
O12 Sr1 2.816449 1_655
O13 Ti5 1.927135 1_555
O13 Ti2 1.964796 1_665
O13 Sr3 2.827031 1_655
O13 Sr3 2.827036 1_555
O13 Sr1 2.836906 1_665
O13 Sr4 3.018411 1_555
O14 Ti4 1.927135 1_555
O14 Ti1 1.964796 1_665
O14 Sr0 2.827031 1_655
O14 Sr0 2.827036 1_555
O14 Sr1 2.836906 1_665
O14 Sr5 3.018411 1_554
O15 Ti5 2.021011 1_555
O15 Ti4 2.021011 1_555
O15 Sr3 2.700959 1_655
O15 Sr0 2.700959 1_655
O15 Sr1 2.816443 1_665
O15 Sr1 2.816449 1_655
O16 Ti5 1.927131 1_555
O16 Ti2 1.964796 1_655
O16 Sr3 2.827033 1_545
O16 Sr3 2.827033 1_655
O16 Sr1 2.836906 1_655
O16 Sr4 3.018409 1_555
O17 Ti4 1.927131 1_555
O17 Ti1 1.964796 1_655
O17 Sr0 2.827033 1_545
O17 Sr0 2.827033 1_655
O17 Sr1 2.836906 1_655
O17 Sr5 3.018409 1_554
