# generated using pymatgen
data_FeH4(SO5)2
_symmetry_space_group_name_H-M   'P 1'
_cell_length_a   6.54559800
_cell_length_b   7.47145672
_cell_length_c   10.47912225
_cell_angle_alpha   94.96724758
_cell_angle_beta   107.94356050
_cell_angle_gamma   113.15278584
_symmetry_Int_Tables_number   1
_chemical_formula_structural   FeH4(SO5)2
_chemical_formula_sum   'Fe2 H8 S4 O20'
_cell_volume   435.46552309
_cell_formula_units_Z   2
loop_
 _symmetry_equiv_pos_site_id
 _symmetry_equiv_pos_as_xyz
  1  'x, y, z'
loop_
 _atom_site_type_symbol
 _atom_site_label
 _atom_site_symmetry_multiplicity
 _atom_site_fract_x
 _atom_site_fract_y
 _atom_site_fract_z
 _atom_site_occupancy
  Fe  Fe0  1  0.50236300  0.48026400  0.75099900  1
  Fe  Fe1  1  0.49763700  0.51973600  0.24900100  1
  H  H0  1  0.66054100  0.19877200  0.79119400  1
  H  H1  1  0.37173100  0.08286300  0.71186800  1
  H  H2  1  0.43949300  0.17846500  0.29950000  1
  H  H3  1  0.40380000  0.15942900  0.13659800  1
  H  H4  1  0.59620000  0.84057100  0.86340200  1
  H  H5  1  0.56050700  0.82153500  0.70050000  1
  H  H6  1  0.62826900  0.91713700  0.28813200  1
  H  H7  1  0.33945900  0.80122800  0.20880600  1
  S  S0  1  0.17413100  0.27572200  0.92629400  1
  S  S1  1  0.18762000  0.26969700  0.41848200  1
  S  S2  1  0.81238000  0.73030300  0.58151800  1
  S  S3  1  0.82586900  0.72427800  0.07370600  1
  O  O0  1  0.29534600  0.14793300  0.95475200  1
  O  O1  1  0.51588800  0.21061600  0.73486900  1
  O  O2  1  0.33089200  0.15850800  0.42860300  1
  O  O3  1  0.91281000  0.16536900  0.87618400  1
  O  O4  1  0.92980100  0.14069600  0.36615500  1
  O  O5  1  0.74409700  0.56636800  0.94431300  1
  O  O6  1  0.23236400  0.38385200  0.81780300  1
  O  O7  1  0.25453300  0.39576300  0.55882600  1
  O  O8  1  0.23535000  0.41041200  0.32419900  1
  O  O9  1  0.50317400  0.24427800  0.23183700  1
  O  O10  1  0.49682600  0.75572200  0.76816300  1
  O  O11  1  0.76465000  0.58958800  0.67580100  1
  O  O12  1  0.74546700  0.60423700  0.44117400  1
  O  O13  1  0.76763600  0.61614800  0.18219700  1
  O  O14  1  0.25590300  0.43363200  0.05568700  1
  O  O15  1  0.07019900  0.85930400  0.63384500  1
  O  O16  1  0.08719000  0.83463100  0.12381600  1
  O  O17  1  0.66910800  0.84149200  0.57139700  1
  O  O18  1  0.48411200  0.78938400  0.26513100  1
  O  O19  1  0.70465400  0.85206700  0.04524800  1
loop_
_geom_bond_atom_site_label_1
_geom_bond_atom_site_label_2
_geom_bond_distance
_geom_bond_site_symmetry_2
Fe0 O6 1.995210 1_555
Fe0 O5 2.005011 1_555
Fe0 O7 2.011745 1_555
Fe0 O11 2.019390 1_555
Fe0 O1 2.045918 1_555
Fe0 O10 2.065889 1_555
Fe1 O13 1.995210 1_555
Fe1 O14 2.005011 1_555
Fe1 O12 2.011745 1_555
Fe1 O8 2.019390 1_555
Fe1 O18 2.045918 1_555
Fe1 O9 2.065889 1_555
H0 O1 0.991616 1_555
H1 O1 0.985550 1_555
H2 O9 0.999797 1_555
H2 O2 1.703527 1_555
H3 O9 0.993584 1_555
H4 O10 0.993584 1_555
H5 O10 0.999797 1_555
H5 O17 1.703527 1_555
H6 O18 0.985550 1_555
H7 O18 0.991616 1_555
O0 S0 1.459199 1_555
O2 S1 1.465423 1_555
O3 S0 1.464214 1_655
O4 S1 1.461783 1_655
O5 S3 1.515319 1_556
O6 S0 1.508113 1_555
O7 S1 1.510207 1_555
O8 S1 1.513560 1_555
O11 S2 1.513560 1_555
O12 S2 1.510207 1_555
O13 S3 1.508113 1_555
O14 S0 1.515319 1_554
O15 S2 1.461783 1_455
O16 S3 1.464214 1_455
O17 S2 1.465423 1_555
O19 S3 1.459199 1_555
