# generated using pymatgen
data_Li4MnSi2O7
_symmetry_space_group_name_H-M   'P 1'
_cell_length_a   6.92124018
_cell_length_b   9.53942987
_cell_length_c   9.18980800
_cell_angle_alpha   89.99935770
_cell_angle_beta   90.00032886
_cell_angle_gamma   78.32509690
_symmetry_Int_Tables_number   1
_chemical_formula_structural   Li4MnSi2O7
_chemical_formula_sum   'Li16 Mn4 Si8 O28'
_cell_volume   594.20137263
_cell_formula_units_Z   4
loop_
 _symmetry_equiv_pos_site_id
 _symmetry_equiv_pos_as_xyz
  1  'x, y, z'
loop_
 _atom_site_type_symbol
 _atom_site_label
 _atom_site_symmetry_multiplicity
 _atom_site_fract_x
 _atom_site_fract_y
 _atom_site_fract_z
 _atom_site_occupancy
  Li  Li0  1  0.44004600  0.85042900  0.49055000  1
  Li  Li1  1  0.44014700  0.35038200  0.24050800  1
  Li  Li2  1  0.44007200  0.85041800  0.99056300  1
  Li  Li3  1  0.44015700  0.35037700  0.74050900  1
  Li  Li4  1  0.55985500  0.64962200  0.24049700  1
  Li  Li5  1  0.55993700  0.14958100  0.99056200  1
  Li  Li6  1  0.55985500  0.64962600  0.74050300  1
  Li  Li7  1  0.55994800  0.14957600  0.49055000  1
  Li  Li8  1  0.14887600  0.78807000  0.24761000  1
  Li  Li9  1  0.14890300  0.28808100  0.99749900  1
  Li  Li10  1  0.14885700  0.78805200  0.74760300  1
  Li  Li11  1  0.14889000  0.28807600  0.49749000  1
  Li  Li12  1  0.85112200  0.71193300  0.49749500  1
  Li  Li13  1  0.85112600  0.21193200  0.24760400  1
  Li  Li14  1  0.85110900  0.71191900  0.99747800  1
  Li  Li15  1  0.85113700  0.21192900  0.74760700  1
  Mn  Mn0  1  0.00004600  0.99999100  0.00099700  1
  Mn  Mn1  1  0.99999800  0.49997500  0.75124100  1
  Mn  Mn2  1  0.99997200  0.50002700  0.25122200  1
  Mn  Mn3  1  0.99996200  0.00000800  0.50101800  1
  Si  Si0  1  0.70887000  0.92372200  0.25488300  1
  Si  Si1  1  0.70894300  0.42388600  0.00506000  1
  Si  Si2  1  0.70885300  0.92373400  0.75489200  1
  Si  Si3  1  0.70894900  0.42389500  0.50505000  1
  Si  Si4  1  0.29105800  0.57610200  0.50506600  1
  Si  Si5  1  0.29112900  0.07628300  0.25488200  1
  Si  Si6  1  0.29105900  0.57610500  0.00506800  1
  Si  Si7  1  0.29115000  0.07626700  0.75489200  1
  O  O0  1  0.50000000  0.50000100  0.40872400  1
  O  O1  1  0.49997600  0.00000800  0.15873200  1
  O  O2  1  0.50000400  0.49999200  0.90872200  1
  O  O3  1  0.49999900  0.00000100  0.65868200  1
  O  O4  1  0.23237300  0.94766600  0.35485200  1
  O  O5  1  0.23163600  0.44746900  0.10478600  1
  O  O6  1  0.23256300  0.94757300  0.85492600  1
  O  O7  1  0.23166800  0.44747800  0.60476300  1
  O  O8  1  0.76836200  0.55251700  0.60467700  1
  O  O9  1  0.76756200  0.05235400  0.35486300  1
  O  O10  1  0.76833700  0.55253000  0.10469700  1
  O  O11  1  0.76744500  0.05242500  0.85493100  1
  O  O12  1  0.88656700  0.86320100  0.13809900  1
  O  O13  1  0.88616500  0.36347400  0.88813000  1
  O  O14  1  0.88656000  0.86321600  0.63811300  1
  O  O15  1  0.88613200  0.36350400  0.38812100  1
  O  O16  1  0.11387400  0.63648900  0.38813100  1
  O  O17  1  0.11341900  0.13680800  0.13808400  1
  O  O18  1  0.11386600  0.63650000  0.88812500  1
  O  O19  1  0.11344200  0.13678900  0.63811400  1
  O  O20  1  0.65739300  0.79403200  0.35231800  1
  O  O21  1  0.65836000  0.29387500  0.10239400  1
  O  O22  1  0.65740500  0.79402600  0.85231200  1
  O  O23  1  0.65837200  0.29387800  0.60238900  1
  O  O24  1  0.34164000  0.70612500  0.60238500  1
  O  O25  1  0.34261000  0.20596600  0.35232100  1
  O  O26  1  0.34164400  0.70613200  0.10239000  1
  O  O27  1  0.34259800  0.20597400  0.85231600  1
loop_
_geom_bond_atom_site_label_1
_geom_bond_atom_site_label_2
_geom_bond_distance
_geom_bond_site_symmetry_2
Li0 O24 1.947957 1_555
Li0 O20 1.959238 1_555
Li0 O4 1.985413 1_555
Li0 O3 2.198870 1_565
Li1 O25 1.945725 1_555
Li1 O21 1.962934 1_555
Li1 O5 1.988751 1_555
Li1 O0 2.199499 1_555
Li2 O26 1.947859 1_556
Li2 O22 1.959276 1_555
Li2 O6 1.984096 1_555
Li2 O1 2.199118 1_566
Li3 O27 1.945674 1_555
Li3 O23 1.962971 1_555
Li3 O7 1.988835 1_555
Li3 O2 2.199440 1_555
Li4 O20 1.945735 1_555
Li4 O26 1.962867 1_555
Li4 O10 1.989112 1_555
Li4 O0 2.199568 1_555
Li5 O21 1.947938 1_556
Li5 O27 1.959258 1_555
Li5 O11 1.984083 1_555
Li5 O1 2.199120 1_556
Li6 O22 1.945643 1_555
Li6 O24 1.962940 1_555
Li6 O8 1.989423 1_555
Li6 O2 2.199593 1_555
Li7 O23 1.948035 1_555
Li7 O25 1.959148 1_555
Li7 O9 1.985070 1_555
Li7 O3 2.198861 1_555
Li8 O26 1.936498 1_555
Li8 O16 1.989709 1_555
Li8 O4 1.994800 1_555
Li8 O12 2.072652 1_455
Li9 O27 1.940592 1_555
Li9 O17 1.988784 1_556
Li9 O5 1.991030 1_556
Li9 O13 2.074835 1_455
Li10 O24 1.936521 1_555
Li10 O18 1.989487 1_555
Li10 O6 1.995223 1_555
Li10 O14 2.072544 1_455
Li11 O25 1.940616 1_555
Li11 O19 1.989050 1_555
Li11 O7 1.991214 1_555
Li11 O15 2.075003 1_455
Li12 O20 1.940655 1_555
Li12 O14 1.988986 1_555
Li12 O8 1.990841 1_555
Li12 O16 2.074991 1_655
Li13 O21 1.936416 1_555
Li13 O15 1.989647 1_555
Li13 O9 1.994928 1_555
Li13 O17 2.072609 1_655
Li14 O22 1.940500 1_555
Li14 O12 1.989034 1_556
Li14 O10 1.990835 1_556
Li14 O18 2.074929 1_655
Li15 O23 1.936478 1_555
Li15 O13 1.989531 1_555
Li15 O11 1.995037 1_555
Li15 O19 2.072581 1_655
Mn0 O6 2.077548 1_554
Mn0 O11 2.077934 1_464
Mn0 O17 2.078646 1_565
Mn0 O12 2.078907 1_455
Mn1 O7 2.075784 1_655
Mn1 O8 2.076143 1_555
Mn1 O13 2.077019 1_555
Mn1 O18 2.077287 1_655
Mn2 O5 2.075553 1_655
Mn2 O10 2.075874 1_555
Mn2 O16 2.077122 1_655
Mn2 O15 2.077247 1_555
Mn3 O9 2.077382 1_555
Mn3 O4 2.077519 1_645
Mn3 O14 2.078612 1_545
Mn3 O19 2.078829 1_655
O0 Si3 1.725455 1_555
O0 Si4 1.725498 1_555
O1 Si5 1.724516 1_555
O1 Si0 1.724776 1_545
O2 Si1 1.725459 1_556
O2 Si6 1.725562 1_556
O3 Si7 1.724788 1_555
O3 Si2 1.724799 1_545
O4 Si5 1.648233 1_565
O5 Si6 1.648929 1_555
O6 Si7 1.648680 1_565
O7 Si4 1.648639 1_555
O8 Si3 1.648343 1_555
O9 Si0 1.648235 1_545
O10 Si1 1.648508 1_555
O11 Si2 1.648709 1_545
O12 Si0 1.646328 1_555
O13 Si1 1.644775 1_556
O14 Si2 1.646339 1_555
O15 Si3 1.644547 1_555
O16 Si4 1.644562 1_555
O17 Si5 1.646462 1_555
O18 Si6 1.644668 1_556
O19 Si7 1.646327 1_555
O20 Si0 1.624086 1_555
O21 Si1 1.623744 1_555
O22 Si2 1.624073 1_555
O23 Si3 1.623800 1_555
O24 Si4 1.623771 1_555
O25 Si5 1.624075 1_555
O26 Si6 1.623824 1_555
O27 Si7 1.624099 1_555
