# generated using pymatgen
data_LiP2WO7
_symmetry_space_group_name_H-M   'P 1'
_cell_length_a   6.57584000
_cell_length_b   6.62684512
_cell_length_c   6.86391606
_cell_angle_alpha   66.25367646
_cell_angle_beta   82.99871278
_cell_angle_gamma   81.18078181
_symmetry_Int_Tables_number   1
_chemical_formula_structural   LiP2WO7
_chemical_formula_sum   'Li2 P4 W2 O14'
_cell_volume   269.95007568
_cell_formula_units_Z   2
loop_
 _symmetry_equiv_pos_site_id
 _symmetry_equiv_pos_as_xyz
  1  'x, y, z'
loop_
 _atom_site_type_symbol
 _atom_site_label
 _atom_site_symmetry_multiplicity
 _atom_site_fract_x
 _atom_site_fract_y
 _atom_site_fract_z
 _atom_site_occupancy
  Li  Li0  1  0.90022200  0.31798400  0.16033100  1
  Li  Li1  1  0.09977800  0.68201600  0.83966900  1
  P  P0  1  0.86118100  0.77564000  0.23766800  1
  P  P1  1  0.60809800  0.64631100  0.66236800  1
  P  P2  1  0.39190200  0.35368900  0.33763200  1
  P  P3  1  0.13881900  0.22436000  0.76233200  1
  W  W0  1  0.65692400  0.10051800  0.77193400  1
  W  W1  1  0.34307600  0.89948200  0.22806600  1
  O  O0  1  0.99103500  0.07882900  0.73684700  1
  O  O1  1  0.95139200  0.62115000  0.13103300  1
  O  O2  1  0.76813700  0.62468700  0.46841600  1
  O  O3  1  0.70284900  0.78447700  0.75015600  1
  O  O4  1  0.67035100  0.93884000  0.12417600  1
  O  O5  1  0.60402500  0.40707200  0.82069600  1
  O  O6  1  0.60363900  0.24907600  0.43145800  1
  O  O7  1  0.39636100  0.75092400  0.56854200  1
  O  O8  1  0.39597500  0.59292800  0.17930400  1
  O  O9  1  0.32964900  0.06116000  0.87582400  1
  O  O10  1  0.29715100  0.21552300  0.24984400  1
  O  O11  1  0.23186300  0.37531300  0.53158400  1
  O  O12  1  0.04860800  0.37885000  0.86896700  1
  O  O13  1  0.00896500  0.92117100  0.26315300  1
loop_
_geom_bond_atom_site_label_1
_geom_bond_atom_site_label_2
_geom_bond_distance
_geom_bond_site_symmetry_2
Li0 O1 2.013775 1_555
Li0 O12 2.027237 1_654
Li0 O13 2.444603 1_645
Li0 O6 2.485817 1_555
Li1 O12 2.013775 1_555
Li1 O1 2.027237 1_456
Li1 O0 2.444603 1_465
Li1 O7 2.485817 1_555
O0 P3 1.539411 1_655
O0 W0 2.169744 1_555
O1 P0 1.499061 1_555
O2 P0 1.599683 1_555
O2 P1 1.632849 1_555
O3 P1 1.516717 1_555
O3 W0 2.132383 1_565
O4 P0 1.579500 1_555
O4 W1 2.203702 1_555
O4 W0 2.222174 1_564
O5 P1 1.521036 1_555
O5 W0 2.159281 1_555
O6 P2 1.548237 1_555
O6 W0 2.189621 1_555
O7 P1 1.548237 1_555
O7 W1 2.189621 1_555
O8 P2 1.521036 1_555
O8 W1 2.159281 1_555
O9 P3 1.579500 1_555
O9 W0 2.203702 1_555
O9 W1 2.222174 1_546
O10 P2 1.516717 1_555
O10 W1 2.132383 1_545
O11 P3 1.599683 1_555
O11 P2 1.632849 1_555
O12 P3 1.499061 1_555
O13 P0 1.539411 1_455
O13 W1 2.169744 1_555
