# generated using pymatgen
data_Mg2Mn3O8
_symmetry_space_group_name_H-M   'P 1'
_cell_length_a   6.44330555
_cell_length_b   6.44330555
_cell_length_c   8.41461100
_cell_angle_alpha   90.00000000
_cell_angle_beta   90.00000000
_cell_angle_gamma   125.84682390
_symmetry_Int_Tables_number   1
_chemical_formula_structural   Mg2Mn3O8
_chemical_formula_sum   'Mg4 Mn6 O16'
_cell_volume   283.17201356
_cell_formula_units_Z   2
loop_
 _symmetry_equiv_pos_site_id
 _symmetry_equiv_pos_as_xyz
  1  'x, y, z'
loop_
 _atom_site_type_symbol
 _atom_site_label
 _atom_site_symmetry_multiplicity
 _atom_site_fract_x
 _atom_site_fract_y
 _atom_site_fract_z
 _atom_site_occupancy
  Mg  Mg0  1  0.85881600  0.14118400  0.60615700  1
  Mg  Mg1  1  0.64118400  0.35881600  0.10615700  1
  Mg  Mg2  1  0.35881600  0.64118400  0.89384300  1
  Mg  Mg3  1  0.14118400  0.85881600  0.39384300  1
  Mn  Mn0  1  0.12720000  0.37280000  0.25000000  1
  Mn  Mn1  1  0.37280000  0.12720000  0.75000000  1
  Mn  Mn2  1  0.00000000  0.00000000  0.00000000  1
  Mn  Mn3  1  0.50000000  0.50000000  0.50000000  1
  Mn  Mn4  1  0.87280000  0.62720000  0.75000000  1
  Mn  Mn5  1  0.62720000  0.87280000  0.25000000  1
  O  O0  1  0.38359700  0.15399700  0.52556200  1
  O  O1  1  0.15399700  0.38359700  0.47443800  1
  O  O2  1  0.34600300  0.11640300  0.97443800  1
  O  O3  1  0.11640300  0.34600300  0.02556200  1
  O  O4  1  0.00253800  0.99746200  0.76435400  1
  O  O5  1  0.72909500  0.27090500  0.76220400  1
  O  O6  1  0.77090500  0.22909500  0.26220400  1
  O  O7  1  0.22909500  0.77090500  0.73779600  1
  O  O8  1  0.99746200  0.00253800  0.23564600  1
  O  O9  1  0.49746200  0.50253800  0.26435400  1
  O  O10  1  0.27090500  0.72909500  0.23779600  1
  O  O11  1  0.50253800  0.49746200  0.73564600  1
  O  O12  1  0.88359700  0.65399700  0.97443800  1
  O  O13  1  0.65399700  0.88359700  0.02556200  1
  O  O14  1  0.84600300  0.61640300  0.52556200  1
  O  O15  1  0.61640300  0.84600300  0.47443800  1
loop_
_geom_bond_atom_site_label_1
_geom_bond_atom_site_label_2
_geom_bond_distance
_geom_bond_site_symmetry_2
Mg0 O15 1.950919 1_545
Mg0 O1 1.950919 1_655
Mg0 O5 1.984853 1_555
Mg0 O4 2.119323 1_645
Mg1 O2 1.950919 1_554
Mg1 O12 1.950919 1_554
Mg1 O6 1.984853 1_555
Mg1 O9 2.119323 1_555
Mg2 O3 1.950919 1_556
Mg2 O13 1.950919 1_556
Mg2 O7 1.984853 1_555
Mg2 O11 2.119323 1_555
Mg3 O14 1.950919 1_455
Mg3 O0 1.950919 1_565
Mg3 O10 1.984853 1_555
Mg3 O8 2.119323 1_465
Mn0 O1 1.894000 1_555
Mn0 O3 1.894000 1_555
Mn0 O10 1.910113 1_555
Mn0 O6 1.910113 1_455
Mn0 O9 2.017221 1_555
Mn0 O8 2.017221 1_455
Mn1 O2 1.894000 1_555
Mn1 O0 1.894000 1_555
Mn1 O5 1.910113 1_555
Mn1 O7 1.910113 1_545
Mn1 O11 2.017221 1_555
Mn1 O4 2.017221 1_545
Mn2 O3 1.902789 1_555
Mn2 O2 1.902789 1_554
Mn2 O13 1.902789 1_445
Mn2 O12 1.902789 1_444
Mn2 O8 1.983083 1_455
Mn2 O4 1.983083 1_544
Mn3 O0 1.902789 1_555
Mn3 O1 1.902789 1_555
Mn3 O14 1.902789 1_555
Mn3 O15 1.902789 1_555
Mn3 O11 1.983083 1_555
Mn3 O9 1.983083 1_555
Mn4 O12 1.894000 1_555
Mn4 O14 1.894000 1_555
Mn4 O5 1.910113 1_555
Mn4 O7 1.910113 1_655
Mn4 O4 2.017221 1_655
Mn4 O11 2.017221 1_555
Mn5 O15 1.894000 1_555
Mn5 O13 1.894000 1_555
Mn5 O10 1.910113 1_555
Mn5 O6 1.910113 1_565
Mn5 O8 2.017221 1_565
Mn5 O9 2.017221 1_555
