# generated using pymatgen
data_BaYF5
_symmetry_space_group_name_H-M   'P 1'
_cell_length_a   7.54742000
_cell_length_b   8.76350828
_cell_length_c   11.01930688
_cell_angle_alpha   77.93553151
_cell_angle_beta   75.49964072
_cell_angle_gamma   68.94619561
_symmetry_Int_Tables_number   1
_chemical_formula_structural   BaYF5
_chemical_formula_sum   'Ba6 Y6 F30'
_cell_volume   652.77384495
_cell_formula_units_Z   6
loop_
 _symmetry_equiv_pos_site_id
 _symmetry_equiv_pos_as_xyz
  1  'x, y, z'
loop_
 _atom_site_type_symbol
 _atom_site_label
 _atom_site_symmetry_multiplicity
 _atom_site_fract_x
 _atom_site_fract_y
 _atom_site_fract_z
 _atom_site_occupancy
  Ba  Ba0  1  0.22488300  0.20216300  0.56008100  1
  Ba  Ba1  1  0.29118300  0.49526500  0.22281900  1
  Ba  Ba2  1  0.74030100  0.13846700  0.07009900  1
  Ba  Ba3  1  0.25969900  0.86153300  0.92990100  1
  Ba  Ba4  1  0.70881700  0.50473500  0.77718100  1
  Ba  Ba5  1  0.77511700  0.79783700  0.43991900  1
  Y  Y0  1  0.22839200  0.34550900  0.91610400  1
  Y  Y1  1  0.25727900  0.66449100  0.57297200  1
  Y  Y2  1  0.28355400  0.97869200  0.25886800  1
  Y  Y3  1  0.71644600  0.02130800  0.74113200  1
  Y  Y4  1  0.74272100  0.33550900  0.42702800  1
  Y  Y5  1  0.77160800  0.65449100  0.08389600  1
  F  F0  1  0.01117600  0.11553900  0.38647500  1
  F  F1  1  0.03508200  0.41634300  0.10955300  1
  F  F2  1  0.35852400  0.14171200  0.06865500  1
  F  F3  1  0.35189000  0.18001100  0.31078600  1
  F  F4  1  0.00212700  0.26102400  0.88442100  1
  F  F5  1  0.01075800  0.56134900  0.59993900  1
  F  F6  1  0.06886800  0.01453500  0.14224600  1
  F  F7  1  0.16427700  0.75739100  0.37092900  1
  F  F8  1  0.37486400  0.10896700  0.78563800  1
  F  F9  1  0.39553100  0.43785000  0.45644600  1
  F  F10  1  0.41814000  0.75898100  0.13890100  1
  F  F11  1  0.31997600  0.43490500  0.71407300  1
  F  F12  1  0.65865200  0.47462100  0.03914000  1
  F  F13  1  0.67665600  0.25695700  0.27492200  1
  F  F14  1  0.62557500  0.11670900  0.54022000  1
  F  F15  1  0.37442500  0.88329100  0.45978000  1
  F  F16  1  0.32334400  0.74304300  0.72507800  1
  F  F17  1  0.34134800  0.52537900  0.96086000  1
  F  F18  1  0.68002400  0.56509500  0.28592700  1
  F  F19  1  0.58186000  0.24101900  0.86109900  1
  F  F20  1  0.60446900  0.56215000  0.54355400  1
  F  F21  1  0.62513600  0.89103300  0.21436200  1
  F  F22  1  0.83572300  0.24260900  0.62907100  1
  F  F23  1  0.93113200  0.98546500  0.85775400  1
  F  F24  1  0.98924200  0.43865100  0.40006100  1
  F  F25  1  0.99787300  0.73897600  0.11557900  1
  F  F26  1  0.64811000  0.81998900  0.68921400  1
  F  F27  1  0.64147600  0.85828800  0.93134500  1
  F  F28  1  0.96491800  0.58365700  0.89044700  1
  F  F29  1  0.98882400  0.88446100  0.61352500  1
loop_
_geom_bond_atom_site_label_1
_geom_bond_atom_site_label_2
_geom_bond_distance
_geom_bond_site_symmetry_2
Ba0 F3 2.696932 1_555
Ba0 F9 2.723562 1_555
Ba0 F22 2.752620 1_455
Ba0 F14 2.804340 1_555
Ba0 F24 2.821690 1_455
Ba0 F8 2.832333 1_555
Ba0 F15 2.950362 1_545
Ba0 F5 3.046369 1_555
Ba0 F0 3.141569 1_555
Ba0 F11 3.265436 1_555
Ba1 F3 2.641150 1_555
Ba1 F10 2.714466 1_555
Ba1 F24 2.726242 1_455
Ba1 F9 2.773105 1_555
Ba1 F25 2.777859 1_455
Ba1 F17 2.784158 1_554
Ba1 F7 2.839274 1_555
Ba1 F1 2.881272 1_555
Ba1 F12 2.966958 1_555
Ba1 F13 3.020775 1_555
Ba2 F13 2.545875 1_555
Ba2 F6 2.579226 1_655
Ba2 F21 2.684360 1_545
Ba2 F19 2.698778 1_554
Ba2 F12 2.748679 1_555
Ba2 F23 2.753849 1_544
Ba2 F4 2.797575 1_654
Ba2 F2 2.875344 1_555
Ba3 F16 2.545875 1_555
Ba3 F23 2.579226 1_455
Ba3 F8 2.684360 1_565
Ba3 F10 2.698778 1_556
Ba3 F17 2.748679 1_555
Ba3 F6 2.753849 1_566
Ba3 F25 2.797575 1_456
Ba3 F27 2.875344 1_555
Ba4 F26 2.641150 1_555
Ba4 F19 2.714466 1_555
Ba4 F5 2.726242 1_655
Ba4 F20 2.773105 1_555
Ba4 F4 2.777859 1_655
Ba4 F12 2.784158 1_556
Ba4 F22 2.839274 1_555
Ba4 F28 2.881272 1_555
Ba4 F17 2.966958 1_555
Ba4 F16 3.020775 1_555
Ba5 F26 2.696932 1_555
Ba5 F20 2.723562 1_555
Ba5 F7 2.752620 1_655
Ba5 F15 2.804340 1_555
Ba5 F5 2.821690 1_655
Ba5 F21 2.832333 1_555
Ba5 F14 2.950362 1_565
Ba5 F24 3.046369 1_555
Ba5 F29 3.141569 1_555
Ba5 F18 3.265436 1_555
F0 Y4 2.263054 1_455
F0 Y2 2.264415 1_545
F1 Y0 2.324437 1_554
F1 Y5 2.333012 1_455
F2 Y0 2.300347 1_554
F2 Y2 2.342982 1_545
F3 Y2 2.220223 1_545
F4 Y0 2.213912 1_555
F5 Y1 2.277348 1_555
F6 Y2 2.209956 1_545
F7 Y1 2.393021 1_555
F7 Y2 2.406874 1_555
F8 Y3 2.361874 1_555
F8 Y0 2.527726 1_555
F9 Y1 2.364002 1_555
F9 Y4 2.404891 1_555
F10 Y2 2.339448 1_555
F10 Y5 2.447444 1_555
F11 Y0 2.221957 1_555
F11 Y1 2.250817 1_555
F12 Y5 2.226156 1_555
F13 Y4 2.163164 1_555
F14 Y3 2.376007 1_555
F14 Y4 2.383309 1_555
F15 Y2 2.376007 1_555
F15 Y1 2.383309 1_555
F16 Y1 2.163164 1_555
F17 Y0 2.226156 1_555
F18 Y5 2.221957 1_555
F18 Y4 2.250817 1_555
F19 Y3 2.339448 1_555
F19 Y0 2.447444 1_555
F20 Y4 2.364002 1_555
F20 Y1 2.404891 1_555
F21 Y2 2.361874 1_555
F21 Y5 2.527726 1_555
F22 Y4 2.393021 1_555
F22 Y3 2.406874 1_555
F23 Y3 2.209956 1_565
F24 Y4 2.277348 1_555
F25 Y5 2.213912 1_555
F26 Y3 2.220223 1_565
F27 Y5 2.300347 1_556
F27 Y3 2.342982 1_565
F28 Y5 2.324437 1_556
F28 Y0 2.333012 1_655
F29 Y1 2.263054 1_655
F29 Y3 2.264415 1_565
