# generated using pymatgen
data_LiZn4Fe13O24
_symmetry_space_group_name_H-M   'P 1'
_cell_length_a   6.05944437
_cell_length_b   6.05944437
_cell_length_c   14.81432128
_cell_angle_alpha   89.74260970
_cell_angle_beta   89.74260970
_cell_angle_gamma   59.98285486
_symmetry_Int_Tables_number   1
_chemical_formula_structural   LiZn4Fe13O24
_chemical_formula_sum   'Li1 Zn4 Fe13 O24'
_cell_volume   470.97417726
_cell_formula_units_Z   1
loop_
 _symmetry_equiv_pos_site_id
 _symmetry_equiv_pos_as_xyz
  1  'x, y, z'
loop_
 _atom_site_type_symbol
 _atom_site_label
 _atom_site_symmetry_multiplicity
 _atom_site_fract_x
 _atom_site_fract_y
 _atom_site_fract_z
 _atom_site_occupancy
  Li  Li0  1  0.00073300  0.00073300  0.24997400  1
  Zn  Zn0  1  0.66817300  0.66817300  0.95878900  1
  Zn  Zn1  1  0.83393200  0.83393200  0.79214100  1
  Zn  Zn2  1  0.16374900  0.16374900  0.45640100  1
  Zn  Zn3  1  0.99962500  0.99962500  0.62422400  1
  Fe  Fe0  1  0.00132200  0.00132200  0.00429600  1
  Fe  Fe1  1  0.33321900  0.83436100  0.79183100  1
  Fe  Fe2  1  0.33065700  0.33065700  0.91248800  1
  Fe  Fe3  1  0.33821600  0.33821600  0.66662600  1
  Fe  Fe4  1  0.16190400  0.67149900  0.45772600  1
  Fe  Fe5  1  0.83436100  0.33321900  0.79183100  1
  Fe  Fe6  1  0.00491500  0.49823900  0.12695900  1
  Fe  Fe7  1  0.67149900  0.16190400  0.45772600  1
  Fe  Fe8  1  0.66084900  0.66084900  0.58295200  1
  Fe  Fe9  1  0.49792400  0.49792400  0.12651400  1
  Fe  Fe10  1  0.33373900  0.33373900  0.28764600  1
  Fe  Fe11  1  0.66943700  0.66943700  0.33391500  1
  Fe  Fe12  1  0.49823900  0.00491500  0.12695900  1
  O  O0  1  0.68164600  0.16899900  0.71294800  1
  O  O1  1  0.49886600  0.98489000  0.87210900  1
  O  O2  1  0.66175200  0.66175200  0.71580300  1
  O  O3  1  0.50687000  0.50687000  0.87010700  1
  O  O4  1  0.33602500  0.33602500  0.53451600  1
  O  O5  1  0.16225500  0.16225500  0.71470500  1
  O  O6  1  0.00572600  0.00572600  0.87182100  1
  O  O7  1  0.01922000  0.49771200  0.37356900  1
  O  O8  1  0.16899900  0.68164600  0.71294800  1
  O  O9  1  0.18264700  0.63547800  0.20214700  1
  O  O10  1  0.82794100  0.32056000  0.53841600  1
  O  O11  1  0.98489000  0.49886600  0.87210900  1
  O  O12  1  0.32056000  0.82794100  0.53841600  1
  O  O13  1  0.18354800  0.18354800  0.20338300  1
  O  O14  1  0.83487100  0.83487100  0.53653700  1
  O  O15  1  0.99320100  0.99320100  0.38858200  1
  O  O16  1  0.66725500  0.66725500  0.20097100  1
  O  O17  1  0.49075200  0.49075200  0.37601400  1
  O  O18  1  0.82693900  0.82693900  0.04793700  1
  O  O19  1  0.34859600  0.82823600  0.04845200  1
  O  O20  1  0.49771200  0.01922000  0.37356900  1
  O  O21  1  0.82823600  0.34859600  0.04845200  1
  O  O22  1  0.63547800  0.18264700  0.20214700  1
  O  O23  1  0.33352200  0.33352200  0.04533900  1
loop_
_geom_bond_atom_site_label_1
_geom_bond_atom_site_label_2
_geom_bond_distance
_geom_bond_site_symmetry_2
Li0 O13 2.035847 1_555
Li0 O22 2.044912 1_455
Li0 O9 2.044912 1_545
Li0 O15 2.054495 1_445
Fe0 O19 1.937522 1_545
Fe0 O21 1.937522 1_455
Fe0 O18 1.938014 1_445
Fe0 O6 1.962832 1_554
Fe1 O8 2.038032 1_555
Fe1 O1 2.047011 1_555
Fe1 O2 2.057358 1_555
Fe1 O5 2.063284 1_565
Fe1 O3 2.071453 1_555
Fe1 O6 2.085346 1_565
Fe2 O1 1.911953 1_545
Fe2 O11 1.911953 1_455
Fe2 O3 1.950134 1_555
Fe2 O23 1.968483 1_556
Fe3 O0 1.929883 1_555
Fe3 O8 1.929883 1_555
Fe3 O4 1.957374 1_555
Fe3 O5 1.976048 1_555
Fe4 O15 1.972781 1_455
Fe4 O12 2.045495 1_555
Fe4 O14 2.072891 1_455
Fe4 O7 2.084027 1_555
Fe4 O4 2.093722 1_555
Fe4 O17 2.107646 1_555
Fe5 O0 2.038032 1_555
Fe5 O11 2.047011 1_555
Fe5 O2 2.057358 1_555
Fe5 O5 2.063284 1_655
Fe5 O3 2.071453 1_555
Fe5 O6 2.085346 1_655
Fe6 O9 2.001804 1_555
Fe6 O13 2.004010 1_555
Fe6 O21 2.076748 1_455
Fe6 O16 2.081036 1_455
Fe6 O18 2.083700 1_455
Fe6 O23 2.103284 1_555
Fe7 O15 1.972781 1_545
Fe7 O10 2.045495 1_555
Fe7 O14 2.072891 1_545
Fe7 O20 2.084027 1_555
Fe7 O4 2.093722 1_555
Fe7 O17 2.107646 1_555
Fe8 O12 1.905136 1_555
Fe8 O10 1.905136 1_555
Fe8 O14 1.948362 1_555
Fe8 O2 1.968169 1_555
Fe9 O22 1.998947 1_555
Fe9 O9 1.998947 1_555
Fe9 O21 2.082962 1_555
Fe9 O19 2.082962 1_555
Fe9 O16 2.096641 1_555
Fe9 O23 2.108394 1_555
Fe10 O13 2.015886 1_555
Fe10 O9 2.024908 1_555
Fe10 O22 2.024908 1_555
Fe10 O20 2.081965 1_555
Fe10 O7 2.081965 1_555
Fe10 O17 2.110018 1_555
Fe11 O20 1.928521 1_565
Fe11 O7 1.928521 1_655
Fe11 O16 1.969727 1_555
Fe11 O17 1.973413 1_555
Fe12 O22 2.001804 1_555
Fe12 O13 2.004010 1_555
Fe12 O19 2.076748 1_545
Fe12 O16 2.081036 1_545
Fe12 O18 2.083700 1_545
Fe12 O23 2.103284 1_555
O0 Zn1 2.112798 1_545
O0 Zn3 2.122324 1_545
O1 Zn0 2.098641 1_555
O1 Zn1 2.119511 1_555
O2 Zn1 2.136869 1_555
O3 Zn0 2.148375 1_555
O4 Zn2 2.151881 1_555
O5 Zn3 2.175838 1_445
O6 Zn1 2.160299 1_445
O7 Zn2 2.140565 1_555
O8 Zn1 2.112798 1_455
O8 Zn3 2.122324 1_455
O10 Zn3 2.108439 1_545
O10 Zn2 2.138511 1_655
O11 Zn0 2.098641 1_555
O11 Zn1 2.119511 1_555
O12 Zn3 2.108439 1_455
O12 Zn2 2.138511 1_565
O14 Zn3 2.168224 1_555
O15 Zn2 2.057310 1_665
O18 Zn0 2.131666 1_554
O19 Zn0 2.136415 1_554
O20 Zn2 2.140565 1_555
O21 Zn0 2.136415 1_554
