# generated using pymatgen
data_Tl2Ge2O7
_symmetry_space_group_name_H-M   'P 1'
_cell_length_a   7.02017063
_cell_length_b   7.02017063
_cell_length_c   7.02017063
_cell_angle_alpha   60.00000000
_cell_angle_beta   60.00000000
_cell_angle_gamma   60.00000000
_symmetry_Int_Tables_number   1
_chemical_formula_structural   Tl2Ge2O7
_chemical_formula_sum   'Tl4 Ge4 O14'
_cell_volume   244.64030361
_cell_formula_units_Z   2
loop_
 _symmetry_equiv_pos_site_id
 _symmetry_equiv_pos_as_xyz
  1  'x, y, z'
loop_
 _atom_site_type_symbol
 _atom_site_label
 _atom_site_symmetry_multiplicity
 _atom_site_fract_x
 _atom_site_fract_y
 _atom_site_fract_z
 _atom_site_occupancy
  Tl  Tl0  1  0.12500000  0.12500000  0.12500000  1
  Tl  Tl1  1  0.62500000  0.12500000  0.12500000  1
  Tl  Tl2  1  0.12500000  0.62500000  0.12500000  1
  Tl  Tl3  1  0.12500000  0.12500000  0.62500000  1
  Ge  Ge0  1  0.62500000  0.12500000  0.62500000  1
  Ge  Ge1  1  0.62500000  0.62500000  0.12500000  1
  Ge  Ge2  1  0.12500000  0.62500000  0.62500000  1
  Ge  Ge3  1  0.62500000  0.62500000  0.62500000  1
  O  O0  1  0.25000000  0.25000000  0.25000000  1
  O  O1  1  0.69922758  0.30077242  0.30077242  1
  O  O2  1  0.69922758  0.30077242  0.69922758  1
  O  O3  1  0.30077242  0.30077242  0.69922758  1
  O  O4  1  0.30077242  0.69922758  0.30077242  1
  O  O5  1  0.69922758  0.69922758  0.30077242  1
  O  O6  1  0.94922758  0.55077242  0.55077242  1
  O  O7  1  0.30077242  0.69922758  0.69922758  1
  O  O8  1  0.55077242  0.94922758  0.55077242  1
  O  O9  1  0.55077242  0.55077242  0.94922758  1
  O  O10  1  0.94922758  0.94922758  0.55077242  1
  O  O11  1  0.94922758  0.55077242  0.94922758  1
  O  O12  1  0.55077242  0.94922758  0.94922758  1
  O  O13  1  0.00000000  0.00000000  0.00000000  1
loop_
_geom_bond_atom_site_label_1
_geom_bond_atom_site_label_2
_geom_bond_distance
_geom_bond_site_symmetry_2
Ge0 O8 1.903482 1_545
Ge0 O2 1.903482 1_555
Ge0 O3 1.903482 1_555
Ge0 O1 1.903482 1_555
Ge0 O12 1.903482 1_545
Ge0 O10 1.903482 1_545
Ge1 O9 1.903482 1_554
Ge1 O5 1.903482 1_555
Ge1 O4 1.903482 1_555
Ge1 O1 1.903482 1_555
Ge1 O12 1.903482 1_554
Ge1 O11 1.903482 1_554
Ge2 O6 1.903482 1_455
Ge2 O7 1.903482 1_555
Ge2 O3 1.903482 1_555
Ge2 O4 1.903482 1_555
Ge2 O11 1.903482 1_455
Ge2 O10 1.903482 1_455
Ge3 O7 1.903482 1_555
Ge3 O5 1.903482 1_555
Ge3 O2 1.903482 1_555
Ge3 O9 1.903482 1_555
Ge3 O8 1.903482 1_555
Ge3 O6 1.903482 1_555
O0 Tl0 2.149479 1_555
O0 Tl1 2.149479 1_555
O0 Tl2 2.149479 1_555
O0 Tl3 2.149479 1_555
O1 Tl1 2.474965 1_555
O1 Tl0 2.474965 1_655
O2 Tl1 2.474965 1_556
O2 Tl3 2.474965 1_655
O3 Tl3 2.474965 1_555
O3 Tl0 2.474965 1_556
O4 Tl2 2.474965 1_555
O4 Tl0 2.474965 1_565
O5 Tl2 2.474965 1_655
O5 Tl1 2.474965 1_565
O6 Tl2 2.474965 1_655
O6 Tl3 2.474965 1_655
O7 Tl3 2.474965 1_565
O7 Tl2 2.474965 1_556
O8 Tl3 2.474965 1_565
O8 Tl1 2.474965 1_565
O9 Tl1 2.474965 1_556
O9 Tl2 2.474965 1_556
O10 Tl3 2.474965 1_665
O10 Tl0 2.474965 1_665
O11 Tl2 2.474965 1_656
O11 Tl0 2.474965 1_656
O12 Tl1 2.474965 1_566
O12 Tl0 2.474965 1_566
O13 Tl0 2.149479 1_555
O13 Tl1 2.149479 1_455
O13 Tl3 2.149479 1_554
O13 Tl2 2.149479 1_545
