# generated using pymatgen
data_Li2Cu2F5
_symmetry_space_group_name_H-M   'P 1'
_cell_length_a   3.03509200
_cell_length_b   10.79824000
_cell_length_c   12.20815100
_cell_angle_alpha   90.00000000
_cell_angle_beta   90.00000000
_cell_angle_gamma   90.00000000
_symmetry_Int_Tables_number   1
_chemical_formula_structural   Li2Cu2F5
_chemical_formula_sum   'Li8 Cu8 F20'
_cell_volume   400.10569046
_cell_formula_units_Z   4
loop_
 _symmetry_equiv_pos_site_id
 _symmetry_equiv_pos_as_xyz
  1  'x, y, z'
loop_
 _atom_site_type_symbol
 _atom_site_label
 _atom_site_symmetry_multiplicity
 _atom_site_fract_x
 _atom_site_fract_y
 _atom_site_fract_z
 _atom_site_occupancy
  Li  Li0  1  0.22134700  0.53506600  0.65791600  1
  Li  Li1  1  0.21890500  0.71604900  0.00967300  1
  Li  Li2  1  0.71890500  0.78395100  0.50967300  1
  Li  Li3  1  0.72134700  0.96493400  0.15791600  1
  Li  Li4  1  0.27865300  0.03506600  0.65791600  1
  Li  Li5  1  0.28109500  0.21604900  0.00967300  1
  Li  Li6  1  0.78109500  0.28395100  0.50967300  1
  Li  Li7  1  0.77865300  0.46493400  0.15791600  1
  Cu  Cu0  1  0.29637900  0.50373500  0.39498400  1
  Cu  Cu1  1  0.18571400  0.74423700  0.27298500  1
  Cu  Cu2  1  0.68571400  0.75576300  0.77298500  1
  Cu  Cu3  1  0.79637900  0.99626500  0.89498400  1
  Cu  Cu4  1  0.20362100  0.00373500  0.39498400  1
  Cu  Cu5  1  0.31428600  0.24423700  0.27298500  1
  Cu  Cu6  1  0.81428600  0.25576300  0.77298500  1
  Cu  Cu7  1  0.70362100  0.49626500  0.89498400  1
  F  F0  1  0.28469000  0.56235400  0.23857500  1
  F  F1  1  0.73916400  0.58262200  0.03423900  1
  F  F2  1  0.23493700  0.62560200  0.83404500  1
  F  F3  1  0.71339800  0.66804300  0.63419400  1
  F  F4  1  0.20591100  0.68641800  0.42979900  1
  F  F5  1  0.70591100  0.81358200  0.92979900  1
  F  F6  1  0.21339800  0.83195700  0.13419400  1
  F  F7  1  0.73493700  0.87439800  0.33404500  1
  F  F8  1  0.23916400  0.91737800  0.53423900  1
  F  F9  1  0.78469000  0.93764600  0.73857500  1
  F  F10  1  0.21531000  0.06235400  0.23857500  1
  F  F11  1  0.76083600  0.08262200  0.03423900  1
  F  F12  1  0.26506300  0.12560200  0.83404500  1
  F  F13  1  0.78660200  0.16804300  0.63419400  1
  F  F14  1  0.29408900  0.18641800  0.42979900  1
  F  F15  1  0.79408900  0.31358200  0.92979900  1
  F  F16  1  0.28660200  0.33195700  0.13419400  1
  F  F17  1  0.76506300  0.37439800  0.33404500  1
  F  F18  1  0.26083600  0.41737800  0.53423900  1
  F  F19  1  0.71531000  0.43764600  0.73857500  1
loop_
_geom_bond_atom_site_label_1
_geom_bond_atom_site_label_2
_geom_bond_distance
_geom_bond_site_symmetry_2
Cu0 F18 1.941998 1_555
Cu0 F0 2.011959 1_555
Cu0 F4 2.036519 1_555
Cu0 F17 2.127791 1_555
Cu0 F17 2.259302 1_455
Cu1 F6 1.942992 1_555
Cu1 F4 2.014578 1_555
Cu1 F0 2.030781 1_555
Cu1 F7 2.098322 1_455
Cu1 F7 2.304305 1_555
Cu2 F3 1.942992 1_555
Cu2 F5 2.014578 1_555
Cu2 F9 2.030781 1_555
Cu2 F2 2.098322 1_555
Cu2 F2 2.304305 1_655
Cu3 F11 1.941998 1_566
Cu3 F9 2.011959 1_555
Cu3 F5 2.036519 1_555
Cu3 F12 2.127791 1_665
Cu3 F12 2.259302 1_565
Cu4 F8 1.941998 1_545
Cu4 F10 2.011959 1_555
Cu4 F14 2.036519 1_555
Cu4 F7 2.127791 1_445
Cu4 F7 2.259302 1_545
Cu5 F16 1.942992 1_555
Cu5 F14 2.014578 1_555
Cu5 F10 2.030781 1_555
Cu5 F17 2.098322 1_555
Cu5 F17 2.304305 1_455
Cu6 F13 1.942992 1_555
Cu6 F15 2.014578 1_555
Cu6 F19 2.030781 1_555
Cu6 F12 2.098322 1_655
Cu6 F12 2.304305 1_555
Cu7 F1 1.941998 1_556
Cu7 F19 2.011959 1_555
Cu7 F15 2.036519 1_555
Cu7 F2 2.127791 1_555
Cu7 F2 2.259302 1_655
F0 Li7 2.079406 1_555
F0 Li7 2.105980 1_455
F1 Li7 1.977133 1_555
F1 Li1 2.070238 1_655
F1 Li1 2.158502 1_555
F2 Li1 2.356562 1_556
F2 Li0 2.362385 1_555
F3 Li2 1.969190 1_555
F3 Li0 2.091897 1_555
F3 Li0 2.126613 1_655
F4 Li2 2.060303 1_455
F4 Li2 2.117603 1_555
F5 Li1 2.060303 1_556
F5 Li1 2.117603 1_656
F6 Li1 1.969190 1_555
F6 Li3 2.091897 1_455
F6 Li3 2.126613 1_555
F7 Li2 2.356562 1_555
F7 Li3 2.362385 1_555
F8 Li4 1.977133 1_565
F8 Li2 2.070238 1_555
F8 Li2 2.158502 1_455
F9 Li4 2.079406 1_665
F9 Li4 2.105980 1_565
F10 Li3 2.079406 1_445
F10 Li3 2.105980 1_545
F11 Li3 1.977133 1_545
F11 Li5 2.070238 1_555
F11 Li5 2.158502 1_655
F12 Li5 2.356562 1_556
F12 Li4 2.362385 1_555
F13 Li6 1.969190 1_555
F13 Li4 2.091897 1_655
F13 Li4 2.126613 1_555
F14 Li6 2.060303 1_555
F14 Li6 2.117603 1_455
F15 Li5 2.060303 1_656
F15 Li5 2.117603 1_556
F16 Li5 1.969190 1_555
F16 Li7 2.091897 1_555
F16 Li7 2.126613 1_455
F17 Li6 2.356562 1_555
F17 Li7 2.362385 1_555
F18 Li0 1.977133 1_555
F18 Li6 2.070238 1_455
F18 Li6 2.158502 1_555
F19 Li0 2.079406 1_555
F19 Li0 2.105980 1_655
