# generated using pymatgen
data_Sr(AsO4)2
_symmetry_space_group_name_H-M   'P 1'
_cell_length_a   6.51321600
_cell_length_b   7.62865374
_cell_length_c   8.05706256
_cell_angle_alpha   111.96562096
_cell_angle_beta   110.74092004
_cell_angle_gamma   98.80452228
_symmetry_Int_Tables_number   1
_chemical_formula_structural   Sr(AsO4)2
_chemical_formula_sum   'Sr2 As4 O16'
_cell_volume   327.85414402
_cell_formula_units_Z   2
loop_
 _symmetry_equiv_pos_site_id
 _symmetry_equiv_pos_as_xyz
  1  'x, y, z'
loop_
 _atom_site_type_symbol
 _atom_site_label
 _atom_site_symmetry_multiplicity
 _atom_site_fract_x
 _atom_site_fract_y
 _atom_site_fract_z
 _atom_site_occupancy
  Sr  Sr0  1  0.72788700  0.11189200  0.90712600  1
  Sr  Sr1  1  0.27211300  0.88810800  0.09287400  1
  As  As0  1  0.08305500  0.82671500  0.57236800  1
  As  As1  1  0.91694500  0.17328500  0.42763200  1
  As  As2  1  0.64681300  0.55024800  0.80498500  1
  As  As3  1  0.35318700  0.44975200  0.19501500  1
  O  O0  1  0.30321300  0.88003400  0.79262900  1
  O  O1  1  0.69678700  0.11996600  0.20737100  1
  O  O2  1  0.25019600  0.01245500  0.53193500  1
  O  O3  1  0.74980400  0.98754500  0.46806500  1
  O  O4  1  0.91882900  0.61113900  0.37364300  1
  O  O5  1  0.08117100  0.38886100  0.62635700  1
  O  O6  1  0.90360500  0.98131600  0.64973600  1
  O  O7  1  0.09639500  0.01868400  0.35026400  1
  O  O8  1  0.51944300  0.59059300  0.98486700  1
  O  O9  1  0.48055700  0.40940700  0.01513300  1
  O  O10  1  0.82321000  0.78335800  0.89317700  1
  O  O11  1  0.17679000  0.21664200  0.10682300  1
  O  O12  1  0.75290000  0.36478100  0.79784100  1
  O  O13  1  0.24710000  0.63521900  0.20215900  1
  O  O14  1  0.42354500  0.48155700  0.55071800  1
  O  O15  1  0.57645500  0.51844300  0.44928200  1
loop_
_geom_bond_atom_site_label_1
_geom_bond_atom_site_label_2
_geom_bond_distance
_geom_bond_site_symmetry_2
As0 O4 1.640404 1_455
As0 O0 1.688211 1_555
As0 O2 1.850208 1_565
As0 O6 1.879808 1_455
As1 O5 1.640404 1_655
As1 O1 1.688211 1_555
As1 O3 1.850208 1_545
As1 O7 1.879808 1_655
As2 O12 1.658044 1_555
As2 O10 1.684729 1_555
As2 O14 1.854660 1_555
As2 O8 1.865351 1_555
As3 O13 1.658044 1_555
As3 O11 1.684729 1_555
As3 O15 1.854660 1_555
As3 O9 1.865351 1_555
O0 Sr1 2.477147 1_556
O0 Sr0 2.665445 1_565
O1 Sr0 2.477147 1_554
O1 Sr1 2.665445 1_545
O2 O7 1.475235 1_555
O2 Sr0 3.208456 1_555
O3 O6 1.475235 1_555
O3 Sr1 3.208456 1_555
O6 Sr0 2.662231 1_565
O7 Sr1 2.662231 1_545
O8 O9 1.490917 1_556
O8 Sr1 3.022945 1_556
O9 Sr0 3.022945 1_554
O10 Sr1 2.601322 1_656
O10 Sr0 2.644720 1_565
O11 Sr0 2.601322 1_454
O11 Sr1 2.644720 1_545
O12 Sr0 2.408289 1_555
O13 Sr1 2.408289 1_555
