# generated using pymatgen
data_LiFeP2HO8
_symmetry_space_group_name_H-M   'P 1'
_cell_length_a   4.94773826
_cell_length_b   8.06809500
_cell_length_c   7.54395609
_cell_angle_alpha   90.00000000
_cell_angle_beta   104.69514971
_cell_angle_gamma   90.00000000
_symmetry_Int_Tables_number   1
_chemical_formula_structural   LiFeP2HO8
_chemical_formula_sum   'Li2 Fe2 P4 H2 O16'
_cell_volume   291.29513060
_cell_formula_units_Z   2
loop_
 _symmetry_equiv_pos_site_id
 _symmetry_equiv_pos_as_xyz
  1  'x, y, z'
loop_
 _atom_site_type_symbol
 _atom_site_label
 _atom_site_symmetry_multiplicity
 _atom_site_fract_x
 _atom_site_fract_y
 _atom_site_fract_z
 _atom_site_occupancy
  Li  Li0  1  0.09962800  0.37022700  0.65205600  1
  Li  Li1  1  0.40037200  0.87022700  0.84794400  1
  Fe  Fe0  1  0.50284500  0.49611900  0.00542300  1
  Fe  Fe1  1  0.99715500  0.99611900  0.49457700  1
  P  P0  1  0.12998100  0.34778500  0.26206400  1
  P  P1  1  0.37001900  0.84778500  0.23793600  1
  P  P2  1  0.62707900  0.15557500  0.75769200  1
  P  P3  1  0.87292100  0.65557500  0.74230800  1
  H  H0  1  0.54861100  0.51832800  0.51930600  1
  H  H1  1  0.95138900  0.01832800  0.98069400  1
  O  O0  1  0.12178100  0.54775000  0.84322200  1
  O  O1  1  0.04001400  0.17610000  0.31627600  1
  O  O2  1  0.16017200  0.83015500  0.35669500  1
  O  O3  1  0.25581000  0.43770200  0.44567500  1
  O  O4  1  0.37821900  0.04775000  0.65677800  1
  O  O5  1  0.52069400  0.32400100  0.80897900  1
  O  O6  1  0.24419000  0.93770200  0.05432500  1
  O  O7  1  0.33982800  0.33015500  0.14330500  1
  O  O8  1  0.65192600  0.67589200  0.85211200  1
  O  O9  1  0.74799800  0.05493700  0.94043200  1
  O  O10  1  0.45998600  0.67610000  0.18372400  1
  O  O11  1  0.62156600  0.95068400  0.34207700  1
  O  O12  1  0.75200200  0.55493700  0.55956800  1
  O  O13  1  0.84807400  0.17589200  0.64788800  1
  O  O14  1  0.97930600  0.82400100  0.69102100  1
  O  O15  1  0.87843400  0.45068400  0.15792300  1
loop_
_geom_bond_atom_site_label_1
_geom_bond_atom_site_label_2
_geom_bond_distance
_geom_bond_site_symmetry_2
Li0 O3 1.981902 1_555
Li0 O13 1.997141 1_455
Li0 O0 2.015691 1_555
Li0 O5 2.151626 1_555
Li0 O12 2.248801 1_455
Li1 O6 1.981902 1_556
Li1 O8 1.997141 1_555
Li1 O4 2.015691 1_565
Li1 O14 2.151626 1_455
Li1 O9 2.248801 1_565
Fe0 O15 1.956166 1_555
Fe0 O7 1.987743 1_555
Fe0 O0 2.013722 1_554
Fe0 O10 2.026713 1_555
Fe0 O5 2.049099 1_554
Fe0 O8 2.101973 1_554
Fe1 O11 1.956166 1_555
Fe1 O2 1.987743 1_655
Fe1 O4 2.013722 1_665
Fe1 O1 2.026713 1_665
Fe1 O14 2.049099 1_555
Fe1 O13 2.101973 1_565
H0 O12 1.018386 1_555
H0 O3 1.556330 1_555
H1 O9 1.018386 1_555
H1 O6 1.556330 1_646
O0 P3 1.541710 1_455
O1 P0 1.541578 1_555
O2 P1 1.540399 1_555
O3 P0 1.547584 1_555
O4 P2 1.541710 1_555
O5 P2 1.541632 1_555
O6 P1 1.547584 1_555
O7 P0 1.540399 1_555
O8 P3 1.538881 1_555
O9 P2 1.580901 1_555
O10 P1 1.541578 1_555
O11 P1 1.536024 1_555
O12 P3 1.580901 1_555
O13 P2 1.538881 1_555
O14 P3 1.541632 1_555
O15 P0 1.536024 1_655
