# generated using pymatgen
data_Ta2MnO6
_symmetry_space_group_name_H-M   'P 1'
_cell_length_a   4.77394927
_cell_length_b   10.46205420
_cell_length_c   9.54713439
_cell_angle_alpha   62.84592362
_cell_angle_beta   90.00001441
_cell_angle_gamma   90.00014513
_symmetry_Int_Tables_number   1
_chemical_formula_structural   Ta2MnO6
_chemical_formula_sum   'Ta8 Mn4 O24'
_cell_volume   424.27910250
_cell_formula_units_Z   4
loop_
 _symmetry_equiv_pos_site_id
 _symmetry_equiv_pos_as_xyz
  1  'x, y, z'
loop_
 _atom_site_type_symbol
 _atom_site_label
 _atom_site_symmetry_multiplicity
 _atom_site_fract_x
 _atom_site_fract_y
 _atom_site_fract_z
 _atom_site_occupancy
  Ta  Ta0  1  0.99994949  0.00084157  0.49960395  1
  Ta  Ta1  1  0.99995025  0.00084056  0.99960318  1
  Ta  Ta2  1  0.00005195  0.66582402  0.16706394  1
  Ta  Ta3  1  0.00005101  0.66582671  0.66706292  1
  Ta  Ta4  1  0.49994947  0.16583812  0.16705786  1
  Ta  Ta5  1  0.49994851  0.16583787  0.66705861  1
  Ta  Ta6  1  0.50004887  0.50082873  0.99960915  1
  Ta  Ta7  1  0.50004398  0.50082810  0.49960837  1
  Mn  Mn0  1  -0.00000009  0.33333394  0.33333321  1
  Mn  Mn1  1  0.50000246  0.83333327  0.83333122  1
  Mn  Mn2  1  -0.00000080  0.33333337  0.83333288  1
  Mn  Mn3  1  0.50000013  0.83333360  0.33333292  1
  O  O0  1  0.18665443  0.83333964  0.67659245  1
  O  O1  1  0.18665502  0.83334067  0.17659261  1
  O  O2  1  0.31334971  0.33334015  0.17659231  1
  O  O3  1  0.31334604  0.33334026  0.67659227  1
  O  O4  1  0.68665588  0.33332663  0.99007469  1
  O  O5  1  0.68665386  0.33332668  0.49007574  1
  O  O6  1  0.81334219  0.83332682  0.99007325  1
  O  O7  1  0.81334341  0.83332586  0.49007434  1
  O  O8  1  0.20624294  0.15294297  0.02658717  1
  O  O9  1  0.20624352  0.15294335  0.52658681  1
  O  O10  1  0.20634864  0.51374160  0.84621578  1
  O  O11  1  0.20634914  0.51374265  0.34621615  1
  O  O12  1  0.29364818  0.01373803  0.34621976  1
  O  O13  1  0.29364640  0.01373776  0.84622103  1
  O  O14  1  0.29375124  0.65294727  0.02658699  1
  O  O15  1  0.29375418  0.65294741  0.52658700  1
  O  O16  1  0.70635432  0.65292868  0.82044616  1
  O  O17  1  0.70635307  0.65292926  0.32044741  1
  O  O18  1  0.70624742  0.01371826  0.14008093  1
  O  O19  1  0.70624810  0.01371951  0.64008032  1
  O  O20  1  0.79375709  0.51372372  0.14008074  1
  O  O21  1  0.79375693  0.51372308  0.64007991  1
  O  O22  1  0.79365136  0.15292548  0.32045031  1
  O  O23  1  0.79365170  0.15292542  0.82045167  1
loop_
_geom_bond_atom_site_label_1
_geom_bond_atom_site_label_2
_geom_bond_distance
_geom_bond_site_symmetry_2
Mn0 O5 2.115880 1_455
Mn0 O2 2.115885 1_555
Mn0 O20 2.181040 1_455
Mn0 O9 2.181051 1_555
Mn0 O22 2.181713 1_455
Mn0 O11 2.181717 1_555
Mn1 O6 2.115857 1_555
Mn1 O0 2.115864 1_555
Mn1 O19 2.181018 1_565
Mn1 O14 2.181050 1_556
Mn1 O16 2.181698 1_555
Mn1 O13 2.181726 1_565
Mn2 O4 2.115867 1_455
Mn2 O3 2.115871 1_555
Mn2 O21 2.181041 1_455
Mn2 O8 2.181053 1_556
Mn2 O23 2.181699 1_455
Mn2 O10 2.181713 1_555
Mn3 O7 2.115861 1_555
Mn3 O1 2.115862 1_555
Mn3 O18 2.181018 1_565
Mn3 O15 2.181032 1_555
Mn3 O17 2.181700 1_555
Mn3 O12 2.181704 1_565
O0 Ta0 2.004445 1_465
O0 Ta3 2.004683 1_555
O1 Ta1 2.004438 1_464
O1 Ta2 2.004713 1_555
O2 Ta6 2.004338 1_554
O2 Ta4 2.004598 1_555
O3 Ta7 2.004334 1_555
O3 Ta5 2.004603 1_555
O4 Ta4 2.004353 1_556
O4 Ta6 2.004614 1_555
O5 Ta5 2.004351 1_555
O5 Ta7 2.004606 1_555
O6 Ta2 2.004469 1_656
O6 Ta1 2.004702 1_565
O7 Ta3 2.004436 1_655
O7 Ta0 2.004715 1_565
O8 Ta1 1.985621 1_454
O8 Ta4 1.986925 1_555
O9 Ta0 1.985613 1_455
O9 Ta5 1.986924 1_555
O10 Ta3 1.985703 1_555
O10 Ta6 1.987018 1_555
O11 Ta2 1.985682 1_555
O11 Ta7 1.986988 1_555
O12 Ta4 1.985814 1_555
O12 Ta0 1.986998 1_455
O13 Ta5 1.985819 1_555
O13 Ta1 1.986973 1_455
O14 Ta6 1.985753 1_554
O14 Ta2 1.986871 1_555
O15 Ta7 1.985745 1_555
O15 Ta3 1.986887 1_555
O16 Ta6 1.985829 1_555
O16 Ta3 1.986980 1_655
O17 Ta7 1.985833 1_555
O17 Ta2 1.986998 1_655
O18 Ta4 1.985761 1_555
O18 Ta1 1.986892 1_554
O19 Ta5 1.985758 1_555
O19 Ta0 1.986879 1_555
O20 Ta2 1.985603 1_655
O20 Ta6 1.986936 1_554
O21 Ta3 1.985630 1_655
O21 Ta7 1.986951 1_555
O22 Ta0 1.985702 1_555
O22 Ta4 1.987019 1_555
O23 Ta1 1.985697 1_555
O23 Ta5 1.987028 1_555
