# generated using pymatgen
data_Li2Fe(CO3)2
_symmetry_space_group_name_H-M   'P 1'
_cell_length_a   9.85872600
_cell_length_b   7.01680600
_cell_length_c   9.11028234
_cell_angle_alpha   64.12900793
_cell_angle_beta   90.00000000
_cell_angle_gamma   90.00000000
_symmetry_Int_Tables_number   1
_chemical_formula_structural   Li2Fe(CO3)2
_chemical_formula_sum   'Li8 Fe4 C8 O24'
_cell_volume   567.05849849
_cell_formula_units_Z   4
loop_
 _symmetry_equiv_pos_site_id
 _symmetry_equiv_pos_as_xyz
  1  'x, y, z'
loop_
 _atom_site_type_symbol
 _atom_site_label
 _atom_site_symmetry_multiplicity
 _atom_site_fract_x
 _atom_site_fract_y
 _atom_site_fract_z
 _atom_site_occupancy
  Li  Li0  1  0.39102400  0.63982900  0.84867100  1
  Li  Li1  1  0.68326400  0.84548800  0.56803300  1
  Li  Li2  1  0.10897600  0.63982900  0.34867100  1
  Li  Li3  1  0.81673600  0.84548800  0.06803300  1
  Li  Li4  1  0.18326400  0.15451200  0.93196700  1
  Li  Li5  1  0.89102400  0.36017100  0.65132900  1
  Li  Li6  1  0.31673600  0.15451200  0.43196700  1
  Li  Li7  1  0.60897600  0.36017100  0.15132900  1
  Fe  Fe0  1  0.87082000  0.51924800  0.92878800  1
  Fe  Fe1  1  0.62918000  0.51924800  0.42878800  1
  Fe  Fe2  1  0.37082000  0.48075200  0.57121200  1
  Fe  Fe3  1  0.12918000  0.48075200  0.07121200  1
  C  C0  1  0.02004600  0.92107800  0.86722900  1
  C  C1  1  0.47995400  0.92107800  0.36722900  1
  C  C2  1  0.61373700  0.47493100  0.78718400  1
  C  C3  1  0.11373700  0.52506900  0.71281600  1
  C  C4  1  0.88626300  0.47493100  0.28718400  1
  C  C5  1  0.38626300  0.52506900  0.21281600  1
  C  C6  1  0.52004600  0.07892200  0.63277100  1
  C  C7  1  0.97995400  0.07892200  0.13277100  1
  O  O0  1  0.53233600  0.87718200  0.70575200  1
  O  O1  1  0.90090400  0.83385900  0.87038900  1
  O  O2  1  0.96766400  0.87718200  0.20575200  1
  O  O3  1  0.59909600  0.83385900  0.37038900  1
  O  O4  1  0.37682600  0.80633500  0.44467900  1
  O  O5  1  0.66047400  0.46830500  0.92195600  1
  O  O6  1  0.98572200  0.55446600  0.72435700  1
  O  O7  1  0.19665300  0.48166000  0.83528400  1
  O  O8  1  0.69665300  0.51834000  0.66471600  1
  O  O9  1  0.48572200  0.44553400  0.77564300  1
  O  O10  1  0.12317400  0.80633500  0.94467900  1
  O  O11  1  0.16047400  0.53169500  0.57804400  1
  O  O12  1  0.83952600  0.46830500  0.42195600  1
  O  O13  1  0.87682600  0.19366500  0.05532100  1
  O  O14  1  0.51427800  0.55446600  0.22435700  1
  O  O15  1  0.30334700  0.48166000  0.33528400  1
  O  O16  1  0.80334700  0.51834000  0.16471600  1
  O  O17  1  0.01427800  0.44553400  0.27564300  1
  O  O18  1  0.33952600  0.53169500  0.07804400  1
  O  O19  1  0.62317400  0.19366500  0.55532100  1
  O  O20  1  0.40090400  0.16614100  0.62961100  1
  O  O21  1  0.03233600  0.12281800  0.79424800  1
  O  O22  1  0.09909600  0.16614100  0.12961100  1
  O  O23  1  0.46766400  0.12281800  0.29424800  1
loop_
_geom_bond_atom_site_label_1
_geom_bond_atom_site_label_2
_geom_bond_distance
_geom_bond_site_symmetry_2
Li0 O18 1.953570 1_556
Li0 O9 1.991098 1_555
Li0 O0 2.125444 1_555
Li0 O7 2.244273 1_555
Li1 O3 2.016324 1_555
Li1 O0 2.020185 1_555
Li1 O8 2.073211 1_555
Li1 O19 2.467010 1_565
Li2 O11 1.953570 1_555
Li2 O17 1.991098 1_555
Li2 O2 2.125444 1_455
Li2 O15 2.244273 1_555
Li3 O1 2.016324 1_554
Li3 O2 2.020185 1_555
Li3 O16 2.073211 1_555
Li3 O13 2.467010 1_565
Li4 O22 2.016324 1_556
Li4 O21 2.020185 1_555
Li4 O7 2.073211 1_555
Li4 O10 2.467010 1_545
Li5 O12 1.953570 1_555
Li5 O6 1.991098 1_555
Li5 O21 2.125444 1_655
Li5 O8 2.244273 1_555
Li6 O20 2.016324 1_555
Li6 O23 2.020185 1_555
Li6 O15 2.073211 1_555
Li6 O4 2.467010 1_545
Li7 O5 1.953570 1_554
Li7 O14 1.991098 1_555
Li7 O23 2.125444 1_555
Li7 O16 2.244273 1_555
Fe0 O1 2.054116 1_555
Fe0 O13 2.062345 1_556
Fe0 O6 2.100298 1_555
Fe0 O5 2.109853 1_555
Fe0 O16 2.247303 1_556
Fe1 O3 2.054116 1_555
Fe1 O19 2.062345 1_555
Fe1 O14 2.100298 1_555
Fe1 O12 2.109853 1_555
Fe1 O8 2.247303 1_555
Fe2 O20 2.054116 1_555
Fe2 O4 2.062345 1_555
Fe2 O9 2.100298 1_555
Fe2 O11 2.109853 1_555
Fe2 O15 2.247303 1_555
Fe3 O22 2.054116 1_555
Fe3 O10 2.062345 1_554
Fe3 O17 2.100298 1_555
Fe3 O18 2.109853 1_555
Fe3 O7 2.247303 1_554
C0 O21 1.280321 1_565
C0 O10 1.297699 1_555
C0 O1 1.318959 1_455
C1 O23 1.280321 1_565
C1 O4 1.297699 1_555
C1 O3 1.318959 1_555
C2 O9 1.290480 1_555
C2 O5 1.293124 1_555
C2 O8 1.307381 1_555
C3 O6 1.290480 1_455
C3 O11 1.293124 1_555
C3 O7 1.307381 1_555
C4 O17 1.290480 1_655
C4 O12 1.293124 1_555
C4 O16 1.307381 1_555
C5 O14 1.290480 1_555
C5 O18 1.293124 1_555
C5 O15 1.307381 1_555
C6 O0 1.280321 1_545
C6 O19 1.297699 1_555
C6 O20 1.318959 1_555
C7 O2 1.280321 1_545
C7 O13 1.297699 1_555
C7 O22 1.318959 1_655
