# generated using pymatgen
data_K2GaPCO7
_symmetry_space_group_name_H-M   'P 1'
_cell_length_a   6.75370500
_cell_length_b   5.48791200
_cell_length_c   9.68115129
_cell_angle_alpha   89.36141603
_cell_angle_beta   90.00000000
_cell_angle_gamma   90.00000000
_symmetry_Int_Tables_number   1
_chemical_formula_structural   K2GaPCO7
_chemical_formula_sum   'K4 Ga2 P2 C2 O14'
_cell_volume   358.79737581
_cell_formula_units_Z   2
loop_
 _symmetry_equiv_pos_site_id
 _symmetry_equiv_pos_as_xyz
  1  'x, y, z'
loop_
 _atom_site_type_symbol
 _atom_site_label
 _atom_site_symmetry_multiplicity
 _atom_site_fract_x
 _atom_site_fract_y
 _atom_site_fract_z
 _atom_site_occupancy
  K  K0  1  0.47429500  0.24343700  0.75907100  1
  K  K1  1  0.02570500  0.24343700  0.75907100  1
  K  K2  1  0.52570500  0.75656300  0.24092900  1
  K  K3  1  0.97429500  0.75656300  0.24092900  1
  Ga  Ga0  1  0.75000000  0.76684700  0.64185100  1
  Ga  Ga1  1  0.25000000  0.23315300  0.35814900  1
  P  P0  1  0.25000000  0.72266600  0.56535800  1
  P  P1  1  0.75000000  0.27733400  0.43464200  1
  C  C0  1  0.75000000  0.72938900  0.89664700  1
  C  C1  1  0.25000000  0.27061100  0.10335300  1
  O  O0  1  0.25000000  0.29309700  0.97516900  1
  O  O1  1  0.75000000  0.93942100  0.82878100  1
  O  O2  1  0.75000000  0.54286800  0.80994300  1
  O  O3  1  0.06223200  0.76060800  0.65465000  1
  O  O4  1  0.43776800  0.76060800  0.65465000  1
  O  O5  1  0.75000000  0.09905300  0.56136200  1
  O  O6  1  0.25000000  0.45084800  0.51390500  1
  O  O7  1  0.75000000  0.54915200  0.48609500  1
  O  O8  1  0.25000000  0.90094700  0.43863800  1
  O  O9  1  0.56223200  0.23939200  0.34535000  1
  O  O10  1  0.93776800  0.23939200  0.34535000  1
  O  O11  1  0.25000000  0.45713200  0.19005700  1
  O  O12  1  0.25000000  0.06057900  0.17121900  1
  O  O13  1  0.75000000  0.70690300  0.02483100  1
loop_
_geom_bond_atom_site_label_1
_geom_bond_atom_site_label_2
_geom_bond_distance
_geom_bond_site_symmetry_2
K0 O2 2.535355 1_555
K0 O1 2.584785 1_545
K0 O0 2.599703 1_555
K0 O5 2.791487 1_555
K0 O4 2.857192 1_545
K0 O4 3.012336 1_555
K0 O6 3.027134 1_555
K1 O2 2.535355 1_455
K1 O1 2.584785 1_445
K1 O0 2.599703 1_555
K1 O5 2.791487 1_455
K1 O3 2.857192 1_545
K1 O3 3.012336 1_555
K1 O6 3.027134 1_555
K2 O11 2.535355 1_555
K2 O12 2.584785 1_565
K2 O13 2.599703 1_555
K2 O8 2.791487 1_555
K2 O9 2.857192 1_565
K2 O9 3.012336 1_555
K2 O7 3.027134 1_555
K3 O11 2.535355 1_655
K3 O12 2.584785 1_665
K3 O13 2.599703 1_555
K3 O8 2.791487 1_655
K3 O10 2.857192 1_565
K3 O10 3.012336 1_555
K3 O7 3.027134 1_555
Ga0 O7 1.934217 1_555
Ga0 O5 1.974660 1_565
Ga0 O2 2.028416 1_555
Ga0 O1 2.051866 1_555
Ga0 O4 2.112615 1_555
Ga0 O3 2.112615 1_655
Ga1 O6 1.934217 1_555
Ga1 O8 1.974660 1_545
Ga1 O11 2.028416 1_555
Ga1 O12 2.051866 1_555
Ga1 O10 2.112615 1_455
Ga1 O9 2.112615 1_555
C0 O13 1.245720 1_556
C0 O1 1.320367 1_555
C0 O2 1.330983 1_555
C1 O0 1.245720 1_554
C1 O12 1.320367 1_555
C1 O11 1.330983 1_555
O3 P0 1.550095 1_555
O4 P0 1.550095 1_555
O5 P1 1.560615 1_555
O6 P0 1.577941 1_555
O7 P1 1.577941 1_555
O8 P0 1.560615 1_555
O9 P1 1.550095 1_555
O10 P1 1.550095 1_555
