# generated using pymatgen
data_LiMn2OF5
_symmetry_space_group_name_H-M   'P 1'
_cell_length_a   4.64627693
_cell_length_b   4.64627693
_cell_length_c   18.92967835
_cell_angle_alpha   88.30652535
_cell_angle_beta   88.30652535
_cell_angle_gamma   89.84719558
_symmetry_Int_Tables_number   1
_chemical_formula_structural   LiMn2OF5
_chemical_formula_sum   'Li4 Mn8 O4 F20'
_cell_volume   408.29424822
_cell_formula_units_Z   4
loop_
 _symmetry_equiv_pos_site_id
 _symmetry_equiv_pos_as_xyz
  1  'x, y, z'
loop_
 _atom_site_type_symbol
 _atom_site_label
 _atom_site_symmetry_multiplicity
 _atom_site_fract_x
 _atom_site_fract_y
 _atom_site_fract_z
 _atom_site_occupancy
  Li  Li0  1  0.99351900  0.00806100  0.99728800  1
  Li  Li1  1  0.00806100  0.99351900  0.49728800  1
  Li  Li2  1  0.49785400  0.48778900  0.24746700  1
  Li  Li3  1  0.48778900  0.49785400  0.74746700  1
  Mn  Mn0  1  0.01675800  0.97504900  0.16485800  1
  Mn  Mn1  1  0.98666500  0.98002200  0.33584600  1
  Mn  Mn2  1  0.97504900  0.01675800  0.66485800  1
  Mn  Mn3  1  0.98002200  0.98666500  0.83584600  1
  Mn  Mn4  1  0.48375700  0.52009900  0.08611600  1
  Mn  Mn5  1  0.52251500  0.51339800  0.41556400  1
  Mn  Mn6  1  0.51339800  0.52251500  0.91556400  1
  Mn  Mn7  1  0.52009900  0.48375700  0.58611600  1
  O  O0  1  0.80270300  0.79656700  0.41221900  1
  O  O1  1  0.79656700  0.80270300  0.91221900  1
  O  O2  1  0.69041900  0.29748300  0.66189500  1
  O  O3  1  0.29748300  0.69041900  0.16189500  1
  F  F0  1  0.79557600  0.80017900  0.08221400  1
  F  F1  1  0.80017900  0.79557600  0.58221400  1
  F  F2  1  0.81130900  0.78497300  0.24717400  1
  F  F3  1  0.78497300  0.81130900  0.74717400  1
  F  F4  1  0.68620600  0.32475500  0.00825800  1
  F  F5  1  0.71098000  0.30208300  0.49684600  1
  F  F6  1  0.71857100  0.27252400  0.16577800  1
  F  F7  1  0.70029900  0.30564600  0.83597300  1
  F  F8  1  0.70725300  0.29290500  0.33263900  1
  F  F9  1  0.29290500  0.70725300  0.83263900  1
  F  F10  1  0.30564600  0.70029900  0.33597300  1
  F  F11  1  0.27252400  0.71857100  0.66577800  1
  F  F12  1  0.30208300  0.71098000  0.99684600  1
  F  F13  1  0.32475500  0.68620600  0.50825800  1
  F  F14  1  0.19211400  0.17684500  0.25718800  1
  F  F15  1  0.17684500  0.19211400  0.75718800  1
  F  F16  1  0.22589300  0.21630400  0.41679300  1
  F  F17  1  0.21630400  0.22589300  0.91679300  1
  F  F18  1  0.19981000  0.20312200  0.58588300  1
  F  F19  1  0.20312200  0.19981000  0.08588300  1
loop_
_geom_bond_atom_site_label_1
_geom_bond_atom_site_label_2
_geom_bond_distance
_geom_bond_site_symmetry_2
Li0 O1 2.126858 1_545
Li1 O0 2.126858 1_455
Li2 O3 2.090773 1_555
Li3 O2 2.090773 1_555
Mn0 O3 1.855855 1_555
Mn1 O0 1.845330 1_555
Mn2 O2 1.855855 1_555
Mn3 O1 1.845330 1_555
Mn4 O3 1.850154 1_555
Mn5 O0 1.851791 1_555
Mn6 O1 1.851791 1_555
Mn7 O2 1.850154 1_555
F0 Mn4 1.948327 1_555
F0 Li0 2.046652 1_564
F0 Mn0 2.082855 1_655
F1 Mn7 1.948327 1_555
F1 Li1 2.046652 1_655
F1 Mn2 2.082855 1_565
F2 Mn0 1.988577 1_655
F2 Li2 2.009361 1_555
F2 Mn1 2.115954 1_555
F3 Mn2 1.988577 1_565
F3 Li3 2.009361 1_555
F3 Mn3 2.115954 1_555
F4 Mn4 1.968072 1_555
F4 Li0 2.058251 1_554
F4 Mn6 2.133507 1_554
F5 Li1 1.987509 1_645
F5 Mn5 2.020878 1_555
F5 Mn7 2.084807 1_555
F6 Mn0 1.954463 1_645
F6 Li2 2.106048 1_555
F6 Mn4 2.185295 1_555
F7 Mn3 1.968615 1_545
F7 Mn6 2.011742 1_555
F7 Li3 2.141035 1_555
F8 Mn1 1.947258 1_545
F8 Mn5 2.064247 1_555
F8 Li2 2.089894 1_555
F9 Mn3 1.947258 1_455
F9 Mn6 2.064247 1_555
F9 Li3 2.089894 1_555
F10 Mn1 1.968615 1_455
F10 Mn5 2.011742 1_555
F10 Li2 2.141035 1_555
F11 Mn2 1.954463 1_465
F11 Li3 2.106048 1_555
F11 Mn7 2.185295 1_555
F12 Li0 1.987509 1_465
F12 Mn6 2.020878 1_555
F12 Mn4 2.084807 1_556
F13 Mn7 1.968072 1_555
F13 Li1 2.058251 1_555
F13 Mn5 2.133507 1_555
F14 Mn1 1.950567 1_445
F14 Li2 2.029499 1_555
F14 Mn0 2.186947 1_545
F15 Mn3 1.950567 1_445
F15 Li3 2.029499 1_555
F15 Mn2 2.186947 1_455
F16 Mn5 1.952370 1_555
F16 Li1 2.058846 1_545
F16 Mn1 2.235007 1_445
F17 Mn6 1.952370 1_555
F17 Li0 2.058846 1_455
F17 Mn3 2.235007 1_445
F18 Mn2 1.977707 1_455
F18 Mn7 1.981380 1_555
F18 Li1 2.178123 1_545
F19 Mn0 1.977707 1_545
F19 Mn4 1.981380 1_555
F19 Li0 2.178123 1_454
