# generated using pymatgen
data_Li4V3P8O29
_symmetry_space_group_name_H-M   'P 1'
_cell_length_a   9.74887885
_cell_length_b   9.72309730
_cell_length_c   14.17678674
_cell_angle_alpha   90.76331413
_cell_angle_beta   90.46710591
_cell_angle_gamma   60.27108874
_symmetry_Int_Tables_number   1
_chemical_formula_structural   Li4V3P8O29
_chemical_formula_sum   'Li8 V6 P16 O58'
_cell_volume   1166.83216618
_cell_formula_units_Z   2
loop_
 _symmetry_equiv_pos_site_id
 _symmetry_equiv_pos_as_xyz
  1  'x, y, z'
loop_
 _atom_site_type_symbol
 _atom_site_label
 _atom_site_symmetry_multiplicity
 _atom_site_fract_x
 _atom_site_fract_y
 _atom_site_fract_z
 _atom_site_occupancy
  Li  Li0  1  0.91533400  0.31128900  0.56433700  1
  Li  Li1  1  0.76971700  0.32922500  0.05489700  1
  Li  Li2  1  0.32721500  0.90765600  0.05881300  1
  Li  Li3  1  0.68649900  0.22560500  0.44835100  1
  Li  Li4  1  0.31764000  0.77328900  0.55813200  1
  Li  Li5  1  0.23123600  0.67006100  0.93943300  1
  Li  Li6  1  0.08361700  0.69020900  0.43705400  1
  Li  Li7  1  0.94637100  0.01500900  0.99067700  1
  V  V0  1  0.56909800  0.43340400  0.24841900  1
  V  V1  1  0.43271000  0.56767800  0.74936900  1
  V  V2  1  0.56768200  0.99896200  0.75118200  1
  V  V3  1  0.43548500  0.00184500  0.24958300  1
  V  V4  1  0.99433600  0.56915000  0.24653500  1
  V  V5  1  0.00833100  0.43191700  0.75486100  1
  P  P0  1  0.91626900  0.78170600  0.83557900  1
  P  P1  1  0.77093500  0.91803400  0.33986600  1
  P  P2  1  0.91252900  0.31948900  0.34595200  1
  P  P3  1  0.66235100  0.66712100  0.12982900  1
  P  P4  1  0.66992900  0.66418300  0.63195700  1
  P  P5  1  0.77510200  0.31579100  0.84206300  1
  P  P6  1  0.68042700  0.22700400  0.66274000  1
  P  P7  1  0.31307600  0.91568600  0.84553800  1
  P  P8  1  0.69399500  0.08220200  0.15512900  1
  P  P9  1  0.32034800  0.77352900  0.33935000  1
  P  P10  1  0.22739600  0.68311900  0.15966600  1
  P  P11  1  0.33575600  0.33682100  0.36693300  1
  P  P12  1  0.33576900  0.33237500  0.87058800  1
  P  P13  1  0.08773500  0.68101700  0.65285200  1
  P  P14  1  0.22690700  0.08446600  0.66275500  1
  P  P15  1  0.08318400  0.21999800  0.16339400  1
  O  O0  1  0.01089400  0.74528800  0.56099000  1
  O  O1  1  0.91640700  0.74920000  0.33786700  1
  O  O2  1  0.79133400  0.00605600  0.07033300  1
  O  O3  1  0.74281600  0.91726300  0.83417800  1
  O  O4  1  0.92204000  0.61896300  0.82870800  1
  O  O5  1  0.80601200  0.67533800  0.17249400  1
  O  O6  1  0.90580400  0.47839600  0.32246800  1
  O  O7  1  0.99024000  0.20404300  0.08467800  1
  O  O8  1  0.91653400  0.34592600  0.82967400  1
  O  O9  1  0.66280500  0.81534000  0.67998500  1
  O  O10  1  0.61907200  0.90648000  0.31902200  1
  O  O11  1  0.81939600  0.51740200  0.67389800  1
  O  O12  1  0.65196800  0.65529300  0.02545500  1
  O  O13  1  0.66886700  0.66462000  0.52712700  1
  O  O14  1  0.67279500  0.51095400  0.17336300  1
  O  O15  1  0.47092300  0.91309400  0.82833100  1
  O  O16  1  0.50768300  0.81385000  0.17010200  1
  O  O17  1  0.74353600  0.33901700  0.33582400  1
  O  O18  1  0.79240200  0.20508500  0.75174000  1
  O  O19  1  0.75652000  0.24120800  0.57476400  1
  O  O20  1  0.79397700  0.22744300  0.93070000  1
  O  O21  1  0.61781700  0.47027200  0.83061200  1
  O  O22  1  0.51570300  0.66639500  0.67071800  1
  O  O23  1  0.65760700  0.25861500  0.16272100  1
  O  O24  1  0.48003200  0.62034600  0.32022400  1
  O  O25  1  0.34311300  0.91861300  0.33397300  1
  O  O26  1  0.79503300  0.00134000  0.24882400  1
  O  O27  1  0.75804600  0.01177400  0.42554500  1
  O  O28  1  0.22807900  0.99068500  0.57932400  1
  O  O29  1  0.65838800  0.08138100  0.66557100  1
  O  O30  1  0.51954800  0.37988100  0.68094200  1
  O  O31  1  0.33924900  0.74365400  0.83499700  1
  O  O32  1  0.48599000  0.33622300  0.32320800  1
  O  O33  1  0.38367900  0.52542800  0.17462800  1
  O  O34  1  0.23023200  0.76450000  0.07101900  1
  O  O35  1  0.24478500  0.76097700  0.42821600  1
  O  O36  1  0.20737300  0.79350400  0.25038000  1
  O  O37  1  0.25516900  0.66362500  0.66050600  1
  O  O38  1  0.48252000  0.18701200  0.82400600  1
  O  O39  1  0.53841400  0.07693500  0.16751700  1
  O  O40  1  0.32451300  0.48918500  0.83382500  1
  O  O41  1  0.32907400  0.32912300  0.97505300  1
  O  O42  1  0.35236300  0.32518100  0.47115800  1
  O  O43  1  0.18453300  0.48686100  0.33084300  1
  O  O44  1  0.38182200  0.08956100  0.67867900  1
  O  O45  1  0.34029800  0.18739400  0.31709100  1
  O  O46  1  0.08589200  0.65480100  0.16587900  1
  O  O47  1  0.98928400  0.80048000  0.73796200  1
  O  O48  1  0.00703500  0.79820400  0.91629500  1
  O  O49  1  0.09802100  0.52139400  0.67870900  1
  O  O50  1  0.18799600  0.32841100  0.82295400  1
  O  O51  1  0.08425600  0.37780200  0.17178300  1
  O  O52  1  0.25648800  0.07848600  0.16291300  1
  O  O53  1  0.23487800  0.98558800  0.93710200  1
  O  O54  1  0.20027800  0.01069900  0.75878700  1
  O  O55  1  0.08317900  0.25573300  0.66254400  1
  O  O56  1  0.98073400  0.25341200  0.43920600  1
  O  O57  1  0.01316200  0.19928000  0.26264200  1
loop_
_geom_bond_atom_site_label_1
_geom_bond_atom_site_label_2
_geom_bond_distance
_geom_bond_site_symmetry_2
Li0 O56 1.872458 1_555
Li0 O19 1.983939 1_555
Li0 O55 2.003475 1_655
Li0 O11 2.320619 1_555
Li1 O7 1.919699 1_555
Li1 O20 1.965619 1_554
Li1 O23 2.191323 1_555
Li1 O14 2.264182 1_555
Li2 O53 1.922174 1_554
Li2 O34 2.043433 1_555
Li2 O52 2.056145 1_565
Li2 O16 2.194998 1_555
Li3 O27 1.860427 1_555
Li3 O19 1.943256 1_555
Li3 O17 2.177045 1_555
Li3 O32 2.456514 1_555
Li4 O28 1.864812 1_555
Li4 O35 1.992012 1_555
Li4 O37 2.076997 1_555
Li4 O22 2.315102 1_555
Li5 O48 1.932763 1_555
Li5 O34 2.066149 1_556
Li5 O40 2.127751 1_555
Li5 O31 2.147989 1_555
Li6 O0 1.869549 1_555
Li6 O1 2.005071 1_455
Li6 O35 2.008882 1_555
Li6 O43 2.271552 1_555
Li7 O2 1.930855 1_556
Li7 O20 2.044323 1_555
Li7 O48 2.149404 1_645
Li7 O7 2.458068 1_556
O0 P13 1.479588 1_555
O1 P1 1.548327 1_555
O1 V4 1.988713 1_555
O2 P8 1.480492 1_555
O3 P0 1.544887 1_555
O3 V2 1.891436 1_555
O4 P0 1.556992 1_555
O4 V5 1.886136 1_655
O5 P3 1.558718 1_555
O5 V4 1.912052 1_555
O6 P2 1.554110 1_555
O6 V4 1.864992 1_555
O7 P15 1.486175 1_655
O8 P5 1.556856 1_555
O8 V5 1.845544 1_655
O9 P4 1.581568 1_555
O9 V2 1.841598 1_555
O10 P1 1.564845 1_555
O10 V3 1.838966 1_565
O11 P4 1.568297 1_555
O11 V5 1.968112 1_655
O12 P3 1.489133 1_555
O13 P4 1.486152 1_555
O14 P3 1.602342 1_555
O14 V0 1.875545 1_555
O15 P7 1.547784 1_555
O15 V2 1.898774 1_555
O16 P3 1.579154 1_555
O16 V3 1.946354 1_565
O17 P2 1.567648 1_555
O17 V0 1.928130 1_555
O18 P6 1.607177 1_555
O18 P5 1.616630 1_555
O19 P6 1.498735 1_555
O20 P5 1.489631 1_555
O21 P5 1.533564 1_555
O21 V1 1.944265 1_555
O22 P4 1.595026 1_555
O22 V1 1.905943 1_555
O23 P8 1.572205 1_555
O23 V0 1.901716 1_555
O24 P9 1.553007 1_555
O24 V0 1.869187 1_555
O25 P9 1.535802 1_555
O25 V3 1.913985 1_565
O26 P8 1.609710 1_555
O26 P1 1.612039 1_545
O27 P1 1.476924 1_545
O28 P14 1.480444 1_565
O29 P6 1.534907 1_555
O29 V2 1.908774 1_545
O30 P6 1.555676 1_555
O30 V1 1.850664 1_555
O31 P7 1.567155 1_555
O31 V1 1.909955 1_555
O32 P11 1.592368 1_555
O32 V0 1.863714 1_555
O33 P10 1.550380 1_555
O33 V0 1.884798 1_555
O34 P10 1.501669 1_555
O35 P9 1.501044 1_555
O36 P10 1.613522 1_555
O36 P9 1.616595 1_555
O37 P13 1.558394 1_555
O37 V1 1.961494 1_555
O38 P12 1.570221 1_555
O38 V2 1.885848 1_545
O39 P8 1.554216 1_555
O39 V3 1.913584 1_555
O40 P12 1.569274 1_555
O40 V1 1.992983 1_555
O41 P12 1.484394 1_555
O42 P11 1.484800 1_555
O43 P11 1.561401 1_555
O43 V4 2.006179 1_455
O44 P14 1.550036 1_555
O44 V2 1.877841 1_545
O45 P11 1.587921 1_555
O45 V3 1.827549 1_555
O46 P10 1.538163 1_555
O46 V4 1.891275 1_455
O47 P13 1.613099 1_655
O47 P0 1.614568 1_555
O48 P0 1.495830 1_455
O49 P13 1.553521 1_555
O49 V5 1.865962 1_555
O50 P12 1.603563 1_555
O50 V5 1.806274 1_555
O51 P15 1.542558 1_555
O51 V4 1.923022 1_455
O52 P15 1.562711 1_555
O52 V3 1.951883 1_555
O53 P7 1.485555 1_555
O54 P7 1.604958 1_545
O54 P14 1.628423 1_555
O55 P14 1.556364 1_555
O55 V5 1.973815 1_555
O56 P2 1.478951 1_555
O57 P2 1.602610 1_455
O57 P15 1.626612 1_555
