# generated using pymatgen
data_Li3Mn4VO8
_symmetry_space_group_name_H-M   'P 1'
_cell_length_a   6.10991913
_cell_length_b   6.10991913
_cell_length_c   6.01652707
_cell_angle_alpha   60.96382908
_cell_angle_beta   60.96382908
_cell_angle_gamma   59.16413526
_symmetry_Int_Tables_number   1
_chemical_formula_structural   Li3Mn4VO8
_chemical_formula_sum   'Li3 Mn4 V1 O8'
_cell_volume   160.02322308
_cell_formula_units_Z   1
loop_
 _symmetry_equiv_pos_site_id
 _symmetry_equiv_pos_as_xyz
  1  'x, y, z'
loop_
 _atom_site_type_symbol
 _atom_site_label
 _atom_site_symmetry_multiplicity
 _atom_site_fract_x
 _atom_site_fract_y
 _atom_site_fract_z
 _atom_site_occupancy
  Li  Li0  1  0.00000000  0.50000000  0.00000000  1
  Li  Li1  1  0.00000000  0.00000000  0.50000000  1
  Li  Li2  1  0.50000000  0.00000000  0.00000000  1
  Mn  Mn0  1  0.50000000  0.50000000  0.50000000  1
  Mn  Mn1  1  0.00000000  0.00000000  0.00000000  1
  Mn  Mn2  1  0.00000000  0.50000000  0.50000000  1
  Mn  Mn3  1  0.50000000  0.00000000  0.50000000  1
  V  V0  1  0.50000000  0.50000000  0.00000000  1
  O  O0  1  0.27358100  0.27358100  0.24274200  1
  O  O1  1  0.25020300  0.73754400  0.76166500  1
  O  O2  1  0.73754400  0.25020300  0.76166500  1
  O  O3  1  0.75089100  0.75089100  0.26557100  1
  O  O4  1  0.24910900  0.24910900  0.73442900  1
  O  O5  1  0.26245600  0.74979700  0.23833500  1
  O  O6  1  0.74979700  0.26245600  0.23833500  1
  O  O7  1  0.72641900  0.72641900  0.75725800  1
loop_
_geom_bond_atom_site_label_1
_geom_bond_atom_site_label_2
_geom_bond_distance
_geom_bond_site_symmetry_2
Li0 O1 2.150827 1_554
Li0 O6 2.150827 1_455
Li0 O4 2.201018 1_554
Li0 O3 2.201018 1_455
Li0 O7 2.208792 1_454
Li0 O0 2.208792 1_555
Li1 O5 2.181608 1_545
Li1 O2 2.181608 1_455
Li1 O6 2.181608 1_455
Li1 O1 2.181608 1_545
Li1 O7 2.413570 1_445
Li1 O0 2.413570 1_555
Li2 O5 2.150827 1_545
Li2 O2 2.150827 1_554
Li2 O4 2.201018 1_554
Li2 O3 2.201018 1_545
Li2 O7 2.208792 1_544
Li2 O0 2.208792 1_555
Mn0 O2 2.128161 1_555
Mn0 O5 2.128161 1_555
Mn0 O6 2.128161 1_555
Mn0 O1 2.128161 1_555
Mn0 O4 2.213692 1_555
Mn0 O3 2.213692 1_555
Mn1 O2 2.134426 1_454
Mn1 O1 2.134426 1_544
Mn1 O5 2.134426 1_545
Mn1 O6 2.134426 1_455
Mn1 O3 2.199912 1_445
Mn1 O4 2.199912 1_554
Mn2 O3 2.061319 1_455
Mn2 O4 2.061319 1_555
Mn2 O0 2.073649 1_555
Mn2 O7 2.073649 1_455
Mn2 O2 2.259496 1_455
Mn2 O5 2.259496 1_555
Mn3 O4 2.061319 1_555
Mn3 O3 2.061319 1_545
Mn3 O7 2.073649 1_545
Mn3 O0 2.073649 1_555
Mn3 O1 2.259496 1_545
Mn3 O6 2.259496 1_555
O0 V0 1.999999 1_555
O1 V0 2.079768 1_556
O2 V0 2.079768 1_556
O5 V0 2.079768 1_555
O6 V0 2.079768 1_555
O7 V0 1.999999 1_556
