# generated using pymatgen
data_Li8FeNi9O20
_symmetry_space_group_name_H-M   'P 1'
_cell_length_a   6.41224400
_cell_length_b   7.59004174
_cell_length_c   7.59746130
_cell_angle_alpha   67.05147245
_cell_angle_beta   88.93085623
_cell_angle_gamma   89.24455364
_symmetry_Int_Tables_number   1
_chemical_formula_structural   Li8FeNi9O20
_chemical_formula_sum   'Li8 Fe1 Ni9 O20'
_cell_volume   340.43141214
_cell_formula_units_Z   1
loop_
 _symmetry_equiv_pos_site_id
 _symmetry_equiv_pos_as_xyz
  1  'x, y, z'
loop_
 _atom_site_type_symbol
 _atom_site_label
 _atom_site_symmetry_multiplicity
 _atom_site_fract_x
 _atom_site_fract_y
 _atom_site_fract_z
 _atom_site_occupancy
  Li  Li0  1  0.50000000  0.50000000  0.50000000  1
  Li  Li1  1  0.00000000  0.50000000  0.00000000  1
  Li  Li2  1  0.68742200  0.28584000  0.31141100  1
  Li  Li3  1  0.20844900  0.29128100  0.79322900  1
  Li  Li4  1  0.89425900  0.09743700  0.10330400  1
  Li  Li5  1  0.10574100  0.90256300  0.89669600  1
  Li  Li6  1  0.79155100  0.70871900  0.20677100  1
  Li  Li7  1  0.31257800  0.71416000  0.68858900  1
  Fe  Fe0  1  0.00000000  0.00000000  0.50000000  1
  Ni  Ni0  1  0.09963000  0.40188800  0.39969400  1
  Ni  Ni1  1  0.90037000  0.59811200  0.60030600  1
  Ni  Ni2  1  0.60244000  0.39889200  0.90203700  1
  Ni  Ni3  1  0.30355100  0.20042900  0.20147900  1
  Ni  Ni4  1  0.79836700  0.20043700  0.70434400  1
  Ni  Ni5  1  0.50000000  0.00000000  0.00000000  1
  Ni  Ni6  1  0.20163300  0.79956300  0.29565600  1
  Ni  Ni7  1  0.69644900  0.79957100  0.79852100  1
  Ni  Ni8  1  0.39756000  0.60110800  0.09796300  1
  O  O0  1  0.18230900  0.54555600  0.54111900  1
  O  O1  1  0.81769100  0.45444400  0.45888100  1
  O  O2  1  0.67699300  0.54386800  0.04758300  1
  O  O3  1  0.38514400  0.37620900  0.32418500  1
  O  O4  1  0.32300700  0.45613200  0.95241700  1
  O  O5  1  0.00993300  0.25467700  0.26271600  1
  O  O6  1  0.88110300  0.34738400  0.85068900  1
  O  O7  1  0.72697000  0.05337400  0.55878300  1
  O  O8  1  0.59249100  0.17124200  0.12052200  1
  O  O9  1  0.52178700  0.25709200  0.76190700  1
  O  O10  1  0.27303000  0.94662600  0.44121700  1
  O  O11  1  0.22230100  0.05137000  0.05006000  1
  O  O12  1  0.92497500  0.85307200  0.35015200  1
  O  O13  1  0.07502500  0.14692800  0.64984800  1
  O  O14  1  0.77769900  0.94863000  0.94994000  1
  O  O15  1  0.47821300  0.74290800  0.23809300  1
  O  O16  1  0.40750900  0.82875800  0.87947800  1
  O  O17  1  0.11889700  0.65261600  0.14931100  1
  O  O18  1  0.99006700  0.74532300  0.73728400  1
  O  O19  1  0.61485600  0.62379100  0.67581500  1
loop_
_geom_bond_atom_site_label_1
_geom_bond_atom_site_label_2
_geom_bond_distance
_geom_bond_site_symmetry_2
Li0 O3 2.059876 1_555
Li0 O19 2.059876 1_555
Li0 O1 2.099736 1_555
Li0 O0 2.099736 1_555
Li0 O15 2.126233 1_555
Li0 O9 2.126233 1_555
Li1 O6 2.071263 1_454
Li1 O17 2.071263 1_555
Li1 O18 2.135064 1_454
Li1 O5 2.135064 1_555
Li1 O4 2.139897 1_554
Li1 O2 2.139897 1_455
Li2 O7 2.032178 1_555
Li2 O3 2.060739 1_555
Li2 O8 2.064215 1_555
Li2 O5 2.120450 1_655
Li2 O1 2.184467 1_555
Li2 O2 2.190447 1_555
Li3 O13 2.027130 1_555
Li3 O9 2.043872 1_555
Li3 O11 2.088677 1_556
Li3 O0 2.131281 1_555
Li3 O4 2.192104 1_555
Li3 O6 2.205673 1_455
Li4 O8 2.023437 1_555
Li4 O14 2.067103 1_544
Li4 O12 2.070677 1_545
Li4 O6 2.110009 1_554
Li4 O5 2.150664 1_655
Li4 O11 2.183962 1_655
Li5 O16 2.023437 1_555
Li5 O11 2.067103 1_566
Li5 O13 2.070677 1_565
Li5 O17 2.110009 1_556
Li5 O18 2.150664 1_455
Li5 O14 2.183962 1_455
Li6 O12 2.027130 1_555
Li6 O15 2.043872 1_555
Li6 O14 2.088677 1_554
Li6 O1 2.131281 1_555
Li6 O2 2.192104 1_555
Li6 O17 2.205673 1_655
Li7 O10 2.032178 1_555
Li7 O19 2.060739 1_555
Li7 O16 2.064215 1_555
Li7 O18 2.120450 1_455
Li7 O0 2.184467 1_555
Li7 O4 2.190447 1_555
Fe0 O7 1.876658 1_455
Fe0 O10 1.876658 1_545
Fe0 O12 1.948286 1_445
Fe0 O13 1.948286 1_555
Fe0 O5 2.066891 1_555
Fe0 O18 2.066891 1_445
Ni0 O0 1.890713 1_555
Ni0 O5 1.899557 1_555
Ni0 O1 1.928786 1_455
Ni0 O3 1.938416 1_555
Ni0 O17 2.104735 1_555
Ni0 O13 2.123821 1_555
Ni1 O1 1.890713 1_555
Ni1 O18 1.899557 1_555
Ni1 O0 1.928786 1_655
Ni1 O19 1.938416 1_555
Ni1 O6 2.104735 1_555
Ni1 O12 2.123821 1_555
Ni2 O9 1.867621 1_555
Ni2 O8 1.872788 1_556
Ni2 O6 1.890074 1_555
Ni2 O19 1.893354 1_555
Ni2 O4 1.905080 1_555
Ni2 O2 1.909071 1_556
Ni3 O8 1.978127 1_555
Ni3 O11 1.981839 1_555
Ni3 O3 1.982268 1_555
Ni3 O5 2.006736 1_555
Ni3 O10 2.080204 1_545
Ni3 O4 2.120517 1_554
Ni4 O13 1.888957 1_655
Ni4 O9 1.902384 1_555
Ni4 O7 1.916639 1_555
Ni4 O6 1.940690 1_555
Ni4 O14 2.090090 1_545
Ni4 O1 2.098583 1_555
Ni5 O11 1.881363 1_555
Ni5 O14 1.881363 1_544
Ni5 O8 1.961667 1_555
Ni5 O16 1.961667 1_544
Ni5 O15 2.084364 1_545
Ni5 O9 2.084364 1_554
Ni6 O12 1.888957 1_455
Ni6 O15 1.902384 1_555
Ni6 O10 1.916639 1_555
Ni6 O17 1.940690 1_555
Ni6 O11 2.090090 1_565
Ni6 O0 2.098583 1_555
Ni7 O16 1.978127 1_555
Ni7 O14 1.981839 1_555
Ni7 O19 1.982268 1_555
Ni7 O18 2.006736 1_555
Ni7 O7 2.080204 1_565
Ni7 O2 2.120517 1_556
Ni8 O15 1.867621 1_555
Ni8 O16 1.872788 1_554
Ni8 O17 1.890074 1_555
Ni8 O3 1.893354 1_555
Ni8 O2 1.905080 1_555
Ni8 O4 1.909071 1_554
