# generated using pymatgen
data_Li7(SbS)2
_symmetry_space_group_name_H-M   'P 1'
_cell_length_a   5.73488600
_cell_length_b   8.94165572
_cell_length_c   9.75480267
_cell_angle_alpha   67.27840621
_cell_angle_beta   77.79166909
_cell_angle_gamma   76.46698982
_symmetry_Int_Tables_number   1
_chemical_formula_structural   Li7(SbS)2
_chemical_formula_sum   'Li14 Sb4 S4'
_cell_volume   444.48112977
_cell_formula_units_Z   2
loop_
 _symmetry_equiv_pos_site_id
 _symmetry_equiv_pos_as_xyz
  1  'x, y, z'
loop_
 _atom_site_type_symbol
 _atom_site_label
 _atom_site_symmetry_multiplicity
 _atom_site_fract_x
 _atom_site_fract_y
 _atom_site_fract_z
 _atom_site_occupancy
  Li  Li0  1  0.55949400  0.42869100  0.87613200  1
  Li  Li1  1  0.09237500  0.26062600  0.79199600  1
  Li  Li2  1  0.55157000  0.94333200  0.87523500  1
  Li  Li3  1  0.06696200  0.92627400  0.87011300  1
  Li  Li4  1  0.35965800  0.87618700  0.56336000  1
  Li  Li5  1  0.79662500  0.64480500  0.52723900  1
  Li  Li6  1  0.59640200  0.25615300  0.66918400  1
  Li  Li7  1  0.40359800  0.74384700  0.33081600  1
  Li  Li8  1  0.20337500  0.35519500  0.47276100  1
  Li  Li9  1  0.64034200  0.12381300  0.43664000  1
  Li  Li10  1  0.93303800  0.07372600  0.12988700  1
  Li  Li11  1  0.44843000  0.05666800  0.12476500  1
  Li  Li12  1  0.90762500  0.73937400  0.20800400  1
  Li  Li13  1  0.44050600  0.57130900  0.12386800  1
  Sb  Sb0  1  0.89251700  0.63009800  0.87456000  1
  Sb  Sb1  1  0.25728200  0.56308900  0.63675600  1
  Sb  Sb2  1  0.74271800  0.43691100  0.36324400  1
  Sb  Sb3  1  0.10748300  0.36990200  0.12544000  1
  S  S0  1  0.73514100  0.14791500  0.90631100  1
  S  S1  1  0.33871700  0.08279000  0.65791100  1
  S  S2  1  0.66128300  0.91721000  0.34208900  1
  S  S3  1  0.26485900  0.85208500  0.09368900  1
loop_
_geom_bond_atom_site_label_1
_geom_bond_atom_site_label_2
_geom_bond_distance
_geom_bond_site_symmetry_2
Li0 S0 2.403196 1_555
Li0 Sb0 2.909817 1_555
Li0 Sb1 2.910259 1_555
Li0 Sb3 3.145519 1_556
Li1 S0 2.363955 1_455
Li1 S1 2.451334 1_555
Li1 Sb1 2.815942 1_555
Li2 S3 2.390219 1_556
Li2 S1 2.424698 1_565
Li2 S0 2.451782 1_565
Li2 Sb0 3.018879 1_555
Li3 S3 2.461999 1_556
Li3 S1 2.467957 1_565
Li3 S0 2.482938 1_465
Li3 Sb0 3.024747 1_455
Li4 S1 2.333126 1_565
Li4 S2 2.427317 1_555
Li4 Sb1 2.781763 1_555
Li5 S2 2.471232 1_555
Li5 Sb1 2.888183 1_655
Li5 Sb2 2.980890 1_555
Li5 Sb1 3.209275 1_555
Li6 S0 2.368308 1_555
Li6 S1 2.423113 1_555
Li6 Sb2 2.841188 1_555
Li6 Sb1 2.916541 1_555
Li7 S3 2.368308 1_555
Li7 S2 2.423113 1_555
Li7 Sb1 2.841188 1_555
Li7 Sb2 2.916541 1_555
Li8 S1 2.471232 1_555
Li8 Sb2 2.888183 1_455
Li8 Sb1 2.980890 1_555
Li8 Sb2 3.209275 1_555
Li9 S2 2.333126 1_545
Li9 S1 2.427317 1_555
Li9 Sb2 2.781763 1_555
Li10 S0 2.461999 1_554
Li10 S2 2.467957 1_545
Li10 S3 2.482938 1_645
Li10 Sb3 3.024747 1_655
Li11 S0 2.390219 1_554
Li11 S2 2.424698 1_545
Li11 S3 2.451782 1_545
Li11 Sb3 3.018879 1_555
Li12 S3 2.363955 1_655
Li12 S2 2.451334 1_555
Li12 Sb2 2.815942 1_555
Li13 S3 2.403196 1_555
Li13 Sb3 2.909817 1_555
Li13 Sb2 2.910259 1_555
Li13 Sb0 3.145519 1_554
Sb0 Sb1 2.924197 1_655
Sb2 Sb3 2.924197 1_655
