# generated using pymatgen
data_Li3Co11O14
_symmetry_space_group_name_H-M   'P 1'
_cell_length_a   10.77228581
_cell_length_b   10.77228581
_cell_length_c   5.13299769
_cell_angle_alpha   85.60996679
_cell_angle_beta   85.60996679
_cell_angle_gamma   152.47461779
_symmetry_Int_Tables_number   1
_chemical_formula_structural   Li3Co11O14
_chemical_formula_sum   'Li3 Co11 O14'
_cell_volume   260.63380393
_cell_formula_units_Z   1
loop_
 _symmetry_equiv_pos_site_id
 _symmetry_equiv_pos_as_xyz
  1  'x, y, z'
loop_
 _atom_site_type_symbol
 _atom_site_label
 _atom_site_symmetry_multiplicity
 _atom_site_fract_x
 _atom_site_fract_y
 _atom_site_fract_z
 _atom_site_occupancy
  Li  Li0  1  0.50000000  0.50000000  0.00000000  1
  Li  Li1  1  0.85849600  0.14150400  0.50000000  1
  Li  Li2  1  0.14150400  0.85849600  0.50000000  1
  Co  Co0  1  0.42859300  0.57140700  0.50000000  1
  Co  Co1  1  0.71465100  0.28534900  0.50000000  1
  Co  Co2  1  0.57140700  0.42859300  0.50000000  1
  Co  Co3  1  0.28534900  0.71465100  0.50000000  1
  Co  Co4  1  0.78610600  0.21389400  0.00000000  1
  Co  Co5  1  0.36070200  0.63929800  0.00000000  1
  Co  Co6  1  0.00000000  0.00000000  0.50000000  1
  Co  Co7  1  0.63929800  0.36070200  0.00000000  1
  Co  Co8  1  0.21389400  0.78610600  0.00000000  1
  Co  Co9  1  0.07082500  0.92917500  0.00000000  1
  Co  Co10  1  0.92917500  0.07082500  0.00000000  1
  O  O0  1  0.60293500  0.88642000  0.24883000  1
  O  O1  1  0.76758000  0.76758000  0.26919700  1
  O  O2  1  0.47085100  0.04119400  0.25194800  1
  O  O3  1  0.69550200  0.83028800  0.74166000  1
  O  O4  1  0.83028800  0.69550200  0.74166000  1
  O  O5  1  0.16971200  0.30449800  0.25834000  1
  O  O6  1  0.30449800  0.16971200  0.25834000  1
  O  O7  1  0.11358000  0.39706500  0.75117000  1
  O  O8  1  0.39706500  0.11358000  0.75117000  1
  O  O9  1  0.04119400  0.47085100  0.25194800  1
  O  O10  1  0.23242000  0.23242000  0.73080300  1
  O  O11  1  0.88642000  0.60293500  0.24883000  1
  O  O12  1  0.52914900  0.95880600  0.74805200  1
  O  O13  1  0.95880600  0.52914900  0.74805200  1
loop_
_geom_bond_atom_site_label_1
_geom_bond_atom_site_label_2
_geom_bond_distance
_geom_bond_site_symmetry_2
Li0 O4 2.100740 1_554
Li0 O5 2.100740 1_555
Li0 O3 2.100740 1_554
Li0 O6 2.100740 1_555
Li0 O1 2.238255 1_555
Li0 O10 2.238255 1_554
Li1 O3 2.109655 1_545
Li1 O5 2.109655 1_655
Li1 O7 2.111985 1_655
Li1 O0 2.111985 1_545
Li1 O9 2.149955 1_655
Li1 O12 2.149955 1_545
Li2 O4 2.109655 1_455
Li2 O6 2.109655 1_565
Li2 O11 2.111985 1_455
Li2 O8 2.111985 1_565
Li2 O13 2.149955 1_455
Li2 O2 2.149955 1_565
Co0 O0 2.088249 1_555
Co0 O7 2.088249 1_555
Co0 O3 2.106416 1_555
Co0 O5 2.106416 1_555
Co0 O1 2.114648 1_555
Co0 O10 2.114648 1_555
Co1 O2 2.051713 1_555
Co1 O13 2.051713 1_555
Co1 O12 2.108479 1_545
Co1 O9 2.108479 1_655
Co1 O11 2.126542 1_555
Co1 O8 2.126542 1_555
Co2 O8 2.088249 1_555
Co2 O11 2.088249 1_555
Co2 O4 2.106416 1_555
Co2 O6 2.106416 1_555
Co2 O1 2.114648 1_555
Co2 O10 2.114648 1_555
Co3 O12 2.051713 1_555
Co3 O9 2.051713 1_555
Co3 O13 2.108479 1_455
Co3 O2 2.108479 1_565
Co3 O0 2.126542 1_555
Co3 O7 2.126542 1_555
Co4 O13 2.102449 1_554
Co4 O2 2.102449 1_555
Co4 O12 2.118231 1_544
Co4 O9 2.118231 1_655
Co4 O7 2.132590 1_654
Co4 O0 2.132590 1_545
Co5 O0 2.058510 1_555
Co5 O7 2.058510 1_554
Co5 O3 2.165256 1_554
Co5 O5 2.165256 1_555
Co5 O12 2.166496 1_554
Co5 O9 2.166496 1_555
Co6 O1 1.931536 1_445
Co6 O10 1.931536 1_555
Co6 O6 2.008573 1_555
Co6 O5 2.008573 1_555
Co6 O3 2.008573 1_445
Co6 O4 2.008573 1_445
Co7 O11 2.058510 1_555
Co7 O8 2.058510 1_554
Co7 O4 2.165256 1_554
Co7 O6 2.165256 1_555
Co7 O13 2.166496 1_554
Co7 O2 2.166496 1_555
Co8 O12 2.102449 1_554
Co8 O9 2.102449 1_555
Co8 O2 2.118231 1_565
Co8 O13 2.118231 1_454
Co8 O8 2.132590 1_564
Co8 O11 2.132590 1_455
Co9 O4 2.068215 1_454
Co9 O6 2.068215 1_565
Co9 O1 2.113234 1_455
Co9 O10 2.113234 1_564
Co9 O11 2.114387 1_455
Co9 O8 2.114387 1_564
Co10 O5 2.068215 1_655
Co10 O3 2.068215 1_544
Co10 O1 2.113234 1_545
Co10 O10 2.113234 1_654
Co10 O0 2.114387 1_545
Co10 O7 2.114387 1_654
