# generated using pymatgen
data_Na3TlPCO7
_symmetry_space_group_name_H-M   'P 1'
_cell_length_a   7.04699100
_cell_length_b   5.40466000
_cell_length_c   9.38857629
_cell_angle_alpha   89.86967647
_cell_angle_beta   90.00000000
_cell_angle_gamma   90.00000000
_symmetry_Int_Tables_number   1
_chemical_formula_structural   Na3TlPCO7
_chemical_formula_sum   'Na6 Tl2 P2 C2 O14'
_cell_volume   357.57793427
_cell_formula_units_Z   2
loop_
 _symmetry_equiv_pos_site_id
 _symmetry_equiv_pos_as_xyz
  1  'x, y, z'
loop_
 _atom_site_type_symbol
 _atom_site_label
 _atom_site_symmetry_multiplicity
 _atom_site_fract_x
 _atom_site_fract_y
 _atom_site_fract_z
 _atom_site_occupancy
  Na  Na0  1  0.48341200  0.99101800  0.01425100  1
  Na  Na1  1  0.20064100  0.50452000  0.17152600  1
  Na  Na2  1  0.47554700  0.52683300  0.48494300  1
  Na  Na3  1  0.97554700  0.47316700  0.51505700  1
  Na  Na4  1  0.70064100  0.49548000  0.82847400  1
  Na  Na5  1  0.98341200  0.00898200  0.98574900  1
  Tl  Tl0  1  0.75873600  0.98289100  0.31168700  1
  Tl  Tl1  1  0.25873600  0.01710900  0.68831300  1
  P  P0  1  0.23507900  0.99420400  0.33202800  1
  P  P1  1  0.73507900  0.00579600  0.66797200  1
  C  C0  1  0.74482400  0.48788600  0.14050400  1
  C  C1  1  0.24482400  0.51211400  0.85949600  1
  O  O0  1  0.72509100  0.29291900  0.06134400  1
  O  O1  1  0.76632000  0.70286800  0.07971000  1
  O  O2  1  0.09136500  0.07852700  0.21376300  1
  O  O3  1  0.42533000  0.93331300  0.25264600  1
  O  O4  1  0.74451700  0.47217800  0.28013700  1
  O  O5  1  0.16759800  0.75576500  0.40632200  1
  O  O6  1  0.25613800  0.21360300  0.43768700  1
  O  O7  1  0.75613800  0.78639700  0.56231300  1
  O  O8  1  0.66759800  0.24423500  0.59367800  1
  O  O9  1  0.24451700  0.52782200  0.71986300  1
  O  O10  1  0.92533000  0.06668700  0.74735400  1
  O  O11  1  0.59136500  0.92147300  0.78623700  1
  O  O12  1  0.26632000  0.29713200  0.92029000  1
  O  O13  1  0.22509100  0.70708100  0.93865500  1
loop_
_geom_bond_atom_site_label_1
_geom_bond_atom_site_label_2
_geom_bond_distance
_geom_bond_site_symmetry_2
Na0 O3 2.295891 1_555
Na0 O11 2.303558 1_554
Na0 O0 2.400355 1_565
Na0 O12 2.418506 1_564
Na0 O13 2.485444 1_554
Na0 O1 2.602562 1_555
Na1 O13 2.448949 1_554
Na1 O2 2.459045 1_555
Na1 O5 2.602133 1_555
Na1 O12 2.654481 1_554
Na1 O3 2.909618 1_555
Na1 O6 2.975162 1_555
Na2 O8 2.280242 1_555
Na2 O6 2.335985 1_555
Na2 O7 2.531816 1_555
Na2 O5 2.604035 1_555
Na2 O4 2.716577 1_555
Na2 O9 2.741386 1_555
Na3 O5 2.280242 1_655
Na3 O7 2.335985 1_555
Na3 O6 2.531816 1_655
Na3 O8 2.604035 1_555
Na3 O9 2.716577 1_655
Na3 O4 2.741386 1_555
Na4 O0 2.448941 1_556
Na4 O11 2.459045 1_555
Na4 O8 2.602133 1_555
Na4 O1 2.654481 1_556
Na4 O10 2.909618 1_555
Na4 O7 2.975162 1_555
Na5 O10 2.295891 1_555
Na5 O2 2.303558 1_656
Na5 O13 2.400357 1_645
Na5 O1 2.418506 1_546
Na5 O0 2.485442 1_556
Na5 O12 2.602562 1_655
C0 O0 1.298304 1_555
C0 O1 1.302202 1_555
C0 O4 1.313510 1_555
C1 O13 1.298299 1_555
C1 O12 1.302202 1_555
C1 O9 1.313510 1_555
O1 Tl0 2.655506 1_555
O2 P0 1.569686 1_545
O2 Tl0 2.569967 1_445
O3 P0 1.569183 1_555
O3 Tl0 2.428977 1_555
O4 Tl0 2.662185 1_545
O4 Tl0 2.778555 1_555
O5 P0 1.539245 1_555
O6 P0 1.554825 1_545
O6 Tl1 2.579435 1_555
O7 P1 1.554825 1_565
O7 Tl0 2.579435 1_555
O8 P1 1.539245 1_555
O9 Tl1 2.662185 1_565
O9 Tl1 2.778555 1_555
O10 P1 1.569183 1_555
O10 Tl1 2.428977 1_655
O11 P1 1.569686 1_565
O11 Tl1 2.569967 1_565
O12 Tl1 2.655506 1_555
