# generated using pymatgen
data_BaSr2I6
_symmetry_space_group_name_H-M   'P 1'
_cell_length_a   8.39309500
_cell_length_b   7.71392700
_cell_length_c   15.28962691
_cell_angle_alpha   64.30768768
_cell_angle_beta   90.00000000
_cell_angle_gamma   90.00000000
_symmetry_Int_Tables_number   1
_chemical_formula_structural   BaSr2I6
_chemical_formula_sum   'Ba2 Sr4 I12'
_cell_volume   892.04036318
_cell_formula_units_Z   2
loop_
 _symmetry_equiv_pos_site_id
 _symmetry_equiv_pos_as_xyz
  1  'x, y, z'
loop_
 _atom_site_type_symbol
 _atom_site_label
 _atom_site_symmetry_multiplicity
 _atom_site_fract_x
 _atom_site_fract_y
 _atom_site_fract_z
 _atom_site_occupancy
  Ba  Ba0  1  0.00000000  0.00000000  0.00000000  1
  Ba  Ba1  1  0.50000000  0.00000000  0.50000000  1
  Sr  Sr0  1  0.60132700  0.66982700  0.25607800  1
  Sr  Sr1  1  0.10132700  0.33017300  0.24392200  1
  Sr  Sr2  1  0.89867300  0.66982700  0.75607800  1
  Sr  Sr3  1  0.39867300  0.33017300  0.74392200  1
  I  I0  1  0.32487600  0.69790300  0.09477800  1
  I  I1  1  0.80725300  0.56822100  0.09373800  1
  I  I2  1  0.42581500  0.05835500  0.26417400  1
  I  I3  1  0.92581500  0.94164500  0.23582600  1
  I  I4  1  0.30725300  0.43177900  0.40626200  1
  I  I5  1  0.82487600  0.30209700  0.40522200  1
  I  I6  1  0.17512400  0.69790300  0.59477800  1
  I  I7  1  0.69274700  0.56822100  0.59373800  1
  I  I8  1  0.07418500  0.05835500  0.76417400  1
  I  I9  1  0.57418500  0.94164500  0.73582600  1
  I  I10  1  0.19274700  0.43177900  0.90626200  1
  I  I11  1  0.67512400  0.30209700  0.90522200  1
loop_
_geom_bond_atom_site_label_1
_geom_bond_atom_site_label_2
_geom_bond_distance
_geom_bond_site_symmetry_2
Ba0 I1 3.409654 1_445
Ba0 I10 3.409654 1_554
Ba0 I0 3.469494 1_545
Ba0 I11 3.469494 1_454
Ba0 I8 3.490556 1_554
Ba0 I3 3.490556 1_445
Ba1 I7 3.409654 1_545
Ba1 I4 3.409654 1_555
Ba1 I6 3.469494 1_545
Ba1 I5 3.469494 1_555
Ba1 I9 3.490556 1_545
Ba1 I2 3.490556 1_555
I0 Sr0 3.324109 1_555
I0 Sr1 3.340391 1_555
I1 Sr1 3.328755 1_655
I1 Sr0 3.383679 1_555
I2 Sr1 3.368479 1_555
I2 Sr0 3.389611 1_545
I3 Sr0 3.368479 1_555
I3 Sr1 3.389611 1_665
I4 Sr0 3.328755 1_555
I4 Sr1 3.383679 1_555
I5 Sr1 3.324109 1_655
I5 Sr0 3.340391 1_555
I6 Sr2 3.324109 1_455
I6 Sr3 3.340391 1_555
I7 Sr3 3.328755 1_555
I7 Sr2 3.383679 1_555
I8 Sr3 3.368479 1_555
I8 Sr2 3.389611 1_445
I9 Sr2 3.368479 1_555
I9 Sr3 3.389611 1_565
I10 Sr2 3.328755 1_455
I10 Sr3 3.383679 1_555
I11 Sr3 3.324109 1_555
I11 Sr2 3.340391 1_555
