# generated using pymatgen
data_ScSbPt
_symmetry_space_group_name_H-M   'P 1'
_cell_length_a   4.49595042
_cell_length_b   4.49595107
_cell_length_c   4.49595094
_cell_angle_alpha   60.00000097
_cell_angle_beta   59.99999619
_cell_angle_gamma   60.00000649
_symmetry_Int_Tables_number   1
_chemical_formula_structural   ScSbPt
_chemical_formula_sum   'Sc1 Sb1 Pt1'
_cell_volume   64.26132373
_cell_formula_units_Z   1
loop_
 _symmetry_equiv_pos_site_id
 _symmetry_equiv_pos_as_xyz
  1  'x, y, z'
loop_
 _atom_site_type_symbol
 _atom_site_label
 _atom_site_symmetry_multiplicity
 _atom_site_fract_x
 _atom_site_fract_y
 _atom_site_fract_z
 _atom_site_occupancy
  Sc  Sc0  1  0.50000000  0.50000000  0.50000000  1
  Sb  Sb0  1  -0.00000000  0.00000000  0.00000000  1
  Pt  Pt0  1  0.25000000  0.25000000  0.25000000  1
loop_
_geom_bond_atom_site_label_1
_geom_bond_atom_site_label_2
_geom_bond_distance
_geom_bond_site_symmetry_2
Sb0 Sc0 3.179117 1_554
Sb0 Sc0 3.179117 1_445
Sb0 Sc0 3.179117 1_454
Sb0 Sc0 3.179117 1_455
Sb0 Sc0 3.179117 1_544
Sb0 Sc0 3.179117 1_545
Pt0 Sc0 2.753196 1_455
Pt0 Sb0 2.753196 1_655
Pt0 Sc0 2.753196 1_555
Pt0 Sc0 2.753196 1_554
Pt0 Sb0 2.753196 1_555
Pt0 Sb0 2.753196 1_556
Pt0 Sc0 2.753197 1_545
Pt0 Sb0 2.753197 1_565
