# generated using pymatgen
data_Ca2Al11Si13Ag7O48
_symmetry_space_group_name_H-M   'P 1'
_cell_length_a   12.17338000
_cell_length_b   12.22018237
_cell_length_c   12.94690883
_cell_angle_alpha   90.13200379
_cell_angle_beta   90.57463543
_cell_angle_gamma   90.06293066
_symmetry_Int_Tables_number   1
_chemical_formula_structural   Ca2Al11Si13Ag7O48
_chemical_formula_sum   'Ca2 Al11 Si13 Ag7 O48'
_cell_volume   1925.89092987
_cell_formula_units_Z   1
loop_
 _symmetry_equiv_pos_site_id
 _symmetry_equiv_pos_as_xyz
  1  'x, y, z'
loop_
 _atom_site_type_symbol
 _atom_site_label
 _atom_site_symmetry_multiplicity
 _atom_site_fract_x
 _atom_site_fract_y
 _atom_site_fract_z
 _atom_site_occupancy
  Ca  Ca0  1  0.18628300  0.81963300  0.22664900  1
  Ca  Ca1  1  0.81548300  0.82119000  0.22281400  1
  Al  Al0  1  0.00000300  0.19505300  0.62657700  1
  Al  Al1  1  0.99933500  0.80426000  0.62555500  1
  Al  Al2  1  0.80358200  0.00149300  0.62517100  1
  Al  Al3  1  0.00327900  0.18963200  0.38050900  1
  Al  Al4  1  0.19920800  0.99845300  0.39030600  1
  Al  Al5  1  0.00227000  0.80436100  0.39189800  1
  Al  Al6  1  0.80491500  0.99932100  0.38586800  1
  Al  Al7  1  0.63739800  0.99825400  0.16720100  1
  Al  Al8  1  0.00020700  0.37000300  0.17479400  1
  Al  Al9  1  0.00094700  0.64111600  0.16805400  1
  Al  Al10  1  0.36238000  0.99825300  0.17013800  1
  Si  Si0  1  0.81121600  0.63132900  0.99486000  1
  Si  Si1  1  0.62961700  0.81394200  0.99294300  1
  Si  Si2  1  0.62506300  0.00117300  0.82103000  1
  Si  Si3  1  0.99959900  0.62971000  0.82679000  1
  Si  Si4  1  0.99944300  0.37235800  0.82427800  1
  Si  Si5  1  0.36667400  0.00153100  0.82224100  1
  Si  Si6  1  0.19222800  0.00156600  0.62825700  1
  Si  Si7  1  0.62962900  0.18534600  0.99693900  1
  Si  Si8  1  0.36716700  0.18443900  0.99815400  1
  Si  Si9  1  0.18636800  0.37039600  0.00203400  1
  Si  Si10  1  0.81395900  0.36926400  0.99570300  1
  Si  Si11  1  0.18971000  0.62957100  0.00076700  1
  Si  Si12  1  0.36671400  0.81509500  0.99450600  1
  Ag  Ag0  1  0.80378900  0.80991500  0.78806800  1
  Ag  Ag1  1  0.80385400  0.19098000  0.79138500  1
  Ag  Ag2  1  0.19138100  0.79937200  0.78845600  1
  Ag  Ag3  1  0.19172200  0.20176800  0.79180800  1
  Ag  Ag4  1  0.00151000  0.42342900  0.43044400  1
  Ag  Ag5  1  0.81502900  0.18566000  0.21264100  1
  Ag  Ag6  1  0.18655700  0.18623300  0.21596100  1
  O  O0  1  0.22094400  0.50007500  0.00475400  1
  O  O1  1  0.69944600  0.29944500  0.98245700  1
  O  O2  1  0.30297300  0.69802300  0.97811600  1
  O  O3  1  0.49776900  0.78901900  0.99724000  1
  O  O4  1  0.69521000  0.69752800  0.97737500  1
  O  O5  1  0.65331000  0.11068300  0.89278200  1
  O  O6  1  0.10877600  0.65275300  0.90107900  1
  O  O7  1  0.33774200  0.11155700  0.89168100  1
  O  O8  1  0.10947000  0.34760200  0.89763400  1
  O  O9  1  0.88759300  0.65949700  0.89320800  1
  O  O10  1  0.65148300  0.88799100  0.88868800  1
  O  O11  1  0.88680100  0.34227800  0.89006400  1
  O  O12  1  0.33887200  0.88884600  0.88902500  1
  O  O13  1  0.99543900  0.50126900  0.79612000  1
  O  O14  1  0.49441300  0.00236700  0.79283800  1
  O  O15  1  0.01076300  0.30058500  0.72251700  1
  O  O16  1  0.69868900  0.00307500  0.72227400  1
  O  O17  1  0.01154200  0.70722800  0.72974500  1
  O  O18  1  0.29073500  0.00285100  0.72086500  1
  O  O19  1  0.12106600  0.11355200  0.65248000  1
  O  O20  1  0.88344200  0.11942900  0.65755300  1
  O  O21  1  0.11988100  0.89034600  0.65132300  1
  O  O22  1  0.88421700  0.88399000  0.65696900  1
  O  O23  1  0.00273200  0.25333500  0.50412500  1
  O  O24  1  0.74520500  0.00478200  0.50473200  1
  O  O25  1  0.00173400  0.73647500  0.50875800  1
  O  O26  1  0.25029200  0.00364800  0.51831600  1
  O  O27  1  0.12531900  0.11697900  0.36156900  1
  O  O28  1  0.88496000  0.11426500  0.35340700  1
  O  O29  1  0.12594800  0.87545100  0.37664800  1
  O  O30  1  0.88173500  0.87755400  0.37105100  1
  O  O31  1  0.72663500  0.97747200  0.26896000  1
  O  O32  1  0.00353900  0.29879000  0.28975400  1
  O  O33  1  0.00317400  0.74060500  0.26351700  1
  O  O34  1  0.27944200  0.97785600  0.27618200  1
  O  O35  1  0.99884700  0.50736900  0.19876100  1
  O  O36  1  0.49988600  0.99544500  0.17878500  1
  O  O37  1  0.67399900  0.12018400  0.09728900  1
  O  O38  1  0.32346400  0.11827400  0.09745000  1
  O  O39  1  0.12169600  0.33251700  0.10337000  1
  O  O40  1  0.88168800  0.33210900  0.09722000  1
  O  O41  1  0.12959100  0.67582600  0.10352700  1
  O  O42  1  0.87498200  0.67695800  0.09767300  1
  O  O43  1  0.31882600  0.87514400  0.09600000  1
  O  O44  1  0.67824100  0.87470800  0.09432900  1
  O  O45  1  0.49803300  0.21379400  0.99856500  1
  O  O46  1  0.29859900  0.29896200  0.98504700  1
  O  O47  1  0.78433500  0.50041200  0.99558100  1
loop_
_geom_bond_atom_site_label_1
_geom_bond_atom_site_label_2
_geom_bond_distance
_geom_bond_site_symmetry_2
Ca0 O29 2.190843 1_555
Ca0 O34 2.326094 1_555
Ca0 O43 2.445881 1_555
Ca0 O41 2.463313 1_555
Ca0 O33 2.479499 1_555
Ca1 O30 2.184007 1_555
Ca1 O31 2.277349 1_555
Ca1 O44 2.436759 1_555
Ca1 O42 2.503870 1_555
Ca1 O33 2.539904 1_655
Al0 O23 1.740108 1_555
Al0 O20 1.743131 1_455
Al0 O15 1.792244 1_555
Al0 O19 1.808639 1_555
Al1 O25 1.723022 1_655
Al1 O22 1.758171 1_555
Al1 O17 1.803179 1_655
Al1 O21 1.832093 1_655
Al2 O24 1.707692 1_555
Al2 O20 1.784347 1_555
Al2 O22 1.786777 1_545
Al2 O16 1.800974 1_555
Al3 O28 1.741093 1_455
Al3 O27 1.750629 1_555
Al3 O23 1.778189 1_555
Al3 O32 1.779687 1_555
Al4 O27 1.744709 1_565
Al4 O29 1.754597 1_555
Al4 O26 1.765292 1_565
Al4 O34 1.796738 1_555
Al5 O25 1.727226 1_555
Al5 O30 1.738370 1_455
Al5 O29 1.750522 1_555
Al5 O33 1.834190 1_555
Al6 O24 1.709721 1_565
Al6 O28 1.762682 1_565
Al6 O30 1.769421 1_555
Al6 O31 1.799720 1_555
Al7 O36 1.682508 1_555
Al7 O31 1.718642 1_555
Al7 O37 1.802990 1_565
Al7 O44 1.849646 1_555
Al8 O35 1.706502 1_455
Al8 O32 1.725994 1_555
Al8 O40 1.808886 1_455
Al8 O39 1.810844 1_555
Al9 O35 1.683187 1_455
Al9 O33 1.731689 1_555
Al9 O42 1.829978 1_455
Al9 O41 1.832136 1_555
Al10 O36 1.676926 1_555
Al10 O34 1.730691 1_555
Al10 O38 1.805591 1_565
Al10 O43 1.856633 1_555
Ag0 O22 2.167346 1_555
Ag0 O10 2.468117 1_555
Ag0 O9 2.502053 1_555
Ag1 O20 2.175784 1_555
Ag1 O11 2.455473 1_555
Ag1 O5 2.468805 1_555
Ag2 O21 2.264056 1_555
Ag2 O12 2.461052 1_555
Ag2 O6 2.526861 1_555
Ag2 O17 2.568224 1_555
Ag3 O19 2.261359 1_555
Ag3 O7 2.451881 1_555
Ag3 O8 2.464940 1_555
Ag3 O15 2.662121 1_555
Ag4 O23 2.289026 1_555
Ag4 O32 2.372034 1_555
Ag5 O28 2.187506 1_555
Ag5 O37 2.399603 1_555
Ag5 O40 2.475437 1_555
Ag6 O27 2.204537 1_555
Ag6 O38 2.422809 1_555
Ag6 O39 2.436377 1_555
O0 Si11 1.628721 1_555
O0 Si9 1.639409 1_555
O1 Si10 1.640898 1_555
O1 Si7 1.644202 1_555
O2 Si12 1.639119 1_555
O2 Si11 1.641190 1_556
O3 Si12 1.627290 1_555
O3 Si1 1.634867 1_555
O4 Si0 1.642217 1_555
O4 Si1 1.645115 1_555
O5 Si7 1.654315 1_555
O5 Si2 1.661005 1_555
O6 Si11 1.641196 1_556
O6 Si3 1.656215 1_455
O7 Si5 1.655871 1_555
O7 Si8 1.674969 1_555
O8 Si9 1.659270 1_556
O8 Si4 1.662590 1_455
O9 Si0 1.655580 1_555
O9 Si3 1.659583 1_555
O10 Si1 1.650423 1_555
O10 Si2 1.668723 1_565
O11 Si4 1.662708 1_555
O11 Si10 1.669891 1_555
O12 Si5 1.663943 1_565
O12 Si12 1.670088 1_555
O13 Si4 1.618443 1_555
O13 Si3 1.618748 1_555
O14 Si5 1.604665 1_555
O14 Si2 1.628314 1_555
O15 Si4 1.588276 1_455
O16 Si2 1.568984 1_555
O17 Si3 1.583020 1_455
O18 Si5 1.597906 1_555
O18 Si6 1.687259 1_555
O19 Si6 1.651556 1_555
O21 Si6 1.648203 1_565
O26 Si6 1.595816 1_555
O37 Si7 1.614137 1_554
O38 Si8 1.614639 1_554
O39 Si9 1.605646 1_555
O40 Si10 1.610975 1_554
O41 Si11 1.625457 1_555
O42 Si0 1.631022 1_554
O43 Si12 1.617672 1_554
O44 Si1 1.613614 1_554
O45 Si8 1.632540 1_555
O45 Si7 1.639959 1_555
O46 Si9 1.638516 1_556
O46 Si8 1.638574 1_555
O47 Si0 1.632668 1_555
O47 Si10 1.643112 1_555
