# generated using pymatgen
data_Li5La3Nb14O42
_symmetry_space_group_name_H-M   'P 1'
_cell_length_a   8.94935407
_cell_length_b   8.94935407
_cell_length_c   18.69117349
_cell_angle_alpha   84.26949562
_cell_angle_beta   84.26949562
_cell_angle_gamma   36.67381069
_symmetry_Int_Tables_number   1
_chemical_formula_structural   Li5La3Nb14O42
_chemical_formula_sum   'Li5 La3 Nb14 O42'
_cell_volume   889.13194611
_cell_formula_units_Z   1
loop_
 _symmetry_equiv_pos_site_id
 _symmetry_equiv_pos_as_xyz
  1  'x, y, z'
loop_
 _atom_site_type_symbol
 _atom_site_label
 _atom_site_symmetry_multiplicity
 _atom_site_fract_x
 _atom_site_fract_y
 _atom_site_fract_z
 _atom_site_occupancy
  Li  Li0  1  0.57171000  0.57171000  0.85731800  1
  Li  Li1  1  0.42829000  0.42829000  0.14268200  1
  Li  Li2  1  0.50000000  0.50000000  0.50000000  1
  Li  Li3  1  0.28666300  0.28666300  0.42777800  1
  Li  Li4  1  0.71333700  0.71333700  0.57222200  1
  La  La0  1  0.14308900  0.14308900  0.71358100  1
  La  La1  1  0.00000000  0.00000000  0.00000000  1
  La  La2  1  0.85691100  0.85691100  0.28641900  1
  Nb  Nb0  1  0.61056600  0.61056600  0.03631500  1
  Nb  Nb1  1  0.75399400  0.75399400  0.75107100  1
  Nb  Nb2  1  0.38943400  0.38943400  0.96368500  1
  Nb  Nb3  1  0.18202900  0.18202900  0.89353600  1
  Nb  Nb4  1  0.96139600  0.96139600  0.82096600  1
  Nb  Nb5  1  0.24600600  0.24600600  0.24892900  1
  Nb  Nb6  1  0.03860400  0.03860400  0.17903400  1
  Nb  Nb7  1  0.46721000  0.46721000  0.32167100  1
  Nb  Nb8  1  0.81797100  0.81797100  0.10646400  1
  Nb  Nb9  1  0.89228800  0.89228800  0.46700200  1
  Nb  Nb10  1  0.10771200  0.10771200  0.53299800  1
  Nb  Nb11  1  0.67679800  0.67679800  0.39272000  1
  Nb  Nb12  1  0.53279000  0.53279000  0.67832900  1
  Nb  Nb13  1  0.32320200  0.32320200  0.60728000  1
  O  O0  1  0.64263800  0.64263800  0.71406100  1
  O  O1  1  0.25406500  0.76684100  0.75178200  1
  O  O2  1  0.37607400  0.88843000  0.96275100  1
  O  O3  1  0.18201400  0.69316200  0.89795200  1
  O  O4  1  0.76684100  0.25406500  0.75178200  1
  O  O5  1  0.14296300  0.14296300  0.21410300  1
  O  O6  1  0.07131000  0.07131000  0.85745500  1
  O  O7  1  0.85703700  0.85703700  0.78589700  1
  O  O8  1  0.50000000  0.50000000  0.00000000  1
  O  O9  1  0.28575600  0.28575600  0.92849900  1
  O  O10  1  0.69316200  0.18201400  0.89795200  1
  O  O11  1  0.44936600  0.96073300  0.81645400  1
  O  O12  1  0.30683800  0.81798600  0.10204800  1
  O  O13  1  0.88843000  0.37607400  0.96275100  1
  O  O14  1  0.62392600  0.11157000  0.03724900  1
  O  O15  1  0.23315900  0.74593500  0.24821800  1
  O  O16  1  0.96073300  0.44936600  0.81645400  1
  O  O17  1  0.81798600  0.30683800  0.10204800  1
  O  O18  1  0.74593500  0.23315900  0.24821800  1
  O  O19  1  0.56926900  0.56926900  0.36277800  1
  O  O20  1  0.35736200  0.35736200  0.28593900  1
  O  O21  1  0.55063400  0.03926700  0.18354600  1
  O  O22  1  0.16928400  0.67359500  0.38919900  1
  O  O23  1  0.92869000  0.92869000  0.14254500  1
  O  O24  1  0.71424400  0.71424400  0.07150100  1
  O  O25  1  0.11157000  0.62392600  0.03724900  1
  O  O26  1  0.32640500  0.83071600  0.61080100  1
  O  O27  1  0.67359500  0.16928400  0.38919900  1
  O  O28  1  0.03926700  0.55063400  0.18354600  1
  O  O29  1  0.48040700  0.96937700  0.32248300  1
  O  O30  1  0.96937700  0.48040700  0.32248300  1
  O  O31  1  0.21193300  0.21193300  0.57601900  1
  O  O32  1  0.59625500  0.10587300  0.53232800  1
  O  O33  1  0.40374500  0.89412700  0.46767200  1
  O  O34  1  0.00000000  0.00000000  0.50000000  1
  O  O35  1  0.78806700  0.78806700  0.42398100  1
  O  O36  1  0.43073100  0.43073100  0.63722200  1
  O  O37  1  0.83071600  0.32640500  0.61080100  1
  O  O38  1  0.10587300  0.59625500  0.53232800  1
  O  O39  1  0.89412700  0.40374500  0.46767200  1
  O  O40  1  0.51959300  0.03062300  0.67751700  1
  O  O41  1  0.03062300  0.51959300  0.67751700  1
loop_
_geom_bond_atom_site_label_1
_geom_bond_atom_site_label_2
_geom_bond_distance
_geom_bond_site_symmetry_2
La0 O40 2.657550 1_555
La0 O41 2.657550 1_555
La0 O11 2.669069 1_545
La0 O16 2.669069 1_455
La0 O1 2.670434 1_545
La0 O4 2.670434 1_455
La0 O26 2.698762 1_545
La0 O37 2.698762 1_455
La0 O31 2.710429 1_555
La0 O0 2.815524 1_455
La0 O0 2.815524 1_545
La0 O6 2.833537 1_555
La1 O17 2.661284 1_455
La1 O12 2.661284 1_545
La1 O3 2.661284 1_544
La1 O10 2.661284 1_454
La1 O2 2.662592 1_544
La1 O13 2.662592 1_454
La1 O25 2.662592 1_545
La1 O14 2.662592 1_455
La1 O23 2.808454 1_445
La1 O6 2.808454 1_554
La1 O8 2.815502 1_455
La1 O8 2.815502 1_545
La2 O29 2.657550 1_555
La2 O30 2.657550 1_555
La2 O28 2.669069 1_655
La2 O21 2.669069 1_565
La2 O18 2.670434 1_565
La2 O15 2.670434 1_655
La2 O27 2.698762 1_565
La2 O22 2.698762 1_655
La2 O35 2.710429 1_555
La2 O20 2.815524 1_655
La2 O20 2.815524 1_565
La2 O23 2.833537 1_555
Nb0 O24 1.943976 1_555
Nb0 O2 2.000177 1_554
Nb0 O13 2.000177 1_554
Nb0 O17 2.009604 1_555
Nb0 O12 2.009604 1_555
Nb0 O8 2.063431 1_555
Nb1 O7 1.930900 1_555
Nb1 O41 1.996295 1_655
Nb1 O40 1.996295 1_565
Nb1 O11 2.010990 1_555
Nb1 O16 2.010990 1_555
Nb1 O0 2.081645 1_555
Nb2 O9 1.943976 1_555
Nb2 O14 2.000177 1_556
Nb2 O25 2.000177 1_556
Nb2 O10 2.009604 1_555
Nb2 O3 2.009604 1_555
Nb2 O8 2.063431 1_556
Nb3 O9 1.942957 1_555
Nb3 O16 2.000718 1_455
Nb3 O11 2.000718 1_545
Nb3 O2 2.010908 1_545
Nb3 O13 2.010908 1_455
Nb3 O6 2.064036 1_555
Nb4 O7 1.953932 1_555
Nb4 O3 2.001535 1_655
Nb4 O10 2.001535 1_565
Nb4 O4 2.005466 1_565
Nb4 O1 2.005466 1_655
Nb4 O6 2.054355 1_665
Nb5 O5 1.930900 1_555
Nb5 O30 1.996295 1_455
Nb5 O29 1.996295 1_545
Nb5 O21 2.010990 1_555
Nb5 O28 2.010990 1_555
Nb5 O20 2.081645 1_555
Nb6 O5 1.953932 1_555
Nb6 O17 2.001535 1_455
Nb6 O12 2.001535 1_545
Nb6 O15 2.005466 1_545
Nb6 O18 2.005466 1_455
Nb6 O23 2.054355 1_445
Nb7 O19 1.969080 1_555
Nb7 O15 2.000914 1_555
Nb7 O18 2.000914 1_555
Nb7 O22 2.001849 1_555
Nb7 O27 2.001849 1_555
Nb7 O20 2.047284 1_555
Nb8 O24 1.942957 1_555
Nb8 O21 2.000718 1_565
Nb8 O28 2.000718 1_655
Nb8 O14 2.010908 1_565
Nb8 O25 2.010908 1_655
Nb8 O23 2.064036 1_555
Nb9 O38 1.964754 1_655
Nb9 O32 1.964754 1_565
Nb9 O34 1.991685 1_665
Nb9 O35 2.020280 1_555
Nb9 O27 2.038699 1_565
Nb9 O22 2.038699 1_655
Nb10 O39 1.964754 1_455
Nb10 O33 1.964754 1_545
Nb10 O34 1.991685 1_555
Nb10 O31 2.020280 1_555
Nb10 O37 2.038699 1_455
Nb10 O26 2.038699 1_545
Nb11 O19 1.966185 1_555
Nb11 O33 1.988329 1_555
Nb11 O39 1.988329 1_555
Nb11 O30 2.015132 1_555
Nb11 O29 2.015132 1_555
Nb11 O35 2.036561 1_555
Nb12 O36 1.969080 1_555
Nb12 O1 2.000914 1_555
Nb12 O4 2.000914 1_555
Nb12 O26 2.001849 1_555
Nb12 O37 2.001849 1_555
Nb12 O0 2.047284 1_555
Nb13 O36 1.966185 1_555
Nb13 O38 1.988329 1_555
Nb13 O32 1.988329 1_555
Nb13 O40 2.015132 1_555
Nb13 O41 2.015132 1_555
Nb13 O31 2.036561 1_555
