# generated using pymatgen
data_CoOF
_symmetry_space_group_name_H-M   'P 1'
_cell_length_a   2.89006241
_cell_length_b   4.53211338
_cell_length_c   18.03159219
_cell_angle_alpha   82.97359298
_cell_angle_beta   90.00000000
_cell_angle_gamma   90.00000000
_symmetry_Int_Tables_number   1
_chemical_formula_structural   CoOF
_chemical_formula_sum   'Co8 O8 F8'
_cell_volume   234.40569054
_cell_formula_units_Z   8
loop_
 _symmetry_equiv_pos_site_id
 _symmetry_equiv_pos_as_xyz
  1  'x, y, z'
loop_
 _atom_site_type_symbol
 _atom_site_label
 _atom_site_symmetry_multiplicity
 _atom_site_fract_x
 _atom_site_fract_y
 _atom_site_fract_z
 _atom_site_occupancy
  Co  Co0  1  0.00000000  0.93603538  0.99688547  1
  Co  Co1  1  -0.00000000  0.97283910  0.24902954  1
  Co  Co2  1  0.00000000  0.01050073  0.50094875  1
  Co  Co3  1  -0.00000000  0.04576352  0.75248727  1
  Co  Co4  1  0.50000000  0.45508890  0.12297332  1
  Co  Co5  1  0.50000000  0.49269073  0.37498112  1
  Co  Co6  1  0.50000000  0.52778333  0.62690582  1
  Co  Co7  1  0.50000000  0.55512941  0.87495195  1
  O  O0  1  0.50000000  0.80045316  0.94827649  1
  O  O1  1  -0.00000000  0.62685155  0.07024003  1
  O  O2  1  0.00000000  0.71758596  0.57741341  1
  O  O3  1  -0.00000000  0.75668847  0.82992594  1
  O  O4  1  -0.00000000  0.68078896  0.32490565  1
  O  O5  1  0.00000000  0.26498473  0.17241122  1
  O  O6  1  0.00000000  0.30296727  0.42429903  1
  O  O7  1  0.00000000  0.34069825  0.67695529  1
  F  F0  1  0.50000000  0.77107714  0.19896112  1
  F  F1  1  0.50000000  0.80887418  0.45211399  1
  F  F2  1  0.50000000  0.84714745  0.70447743  1
  F  F3  1  0.00000000  0.31354402  0.92490475  1
  F  F4  1  0.50000000  0.12350024  0.04610451  1
  F  F5  1  0.50000000  0.17434577  0.29721560  1
  F  F6  1  0.50000000  0.21204023  0.54997675  1
  F  F7  1  0.50000000  0.26261951  0.80265554  1
loop_
_geom_bond_atom_site_label_1
_geom_bond_atom_site_label_2
_geom_bond_distance
_geom_bond_site_symmetry_2
Co0 O1 1.805437 1_556
Co0 O0 1.834587 1_455
Co0 O0 1.834587 1_555
Co0 F4 1.944758 1_466
Co0 F4 1.944758 1_566
Co0 F3 2.017064 1_565
Co1 O4 1.783470 1_555
Co1 O5 1.792827 1_565
Co1 F5 1.967540 1_565
Co1 F5 1.967540 1_465
Co1 F0 1.985271 1_455
Co1 F0 1.985271 1_555
Co2 O2 1.793194 1_545
Co2 O6 1.794149 1_555
Co2 F1 1.973676 1_445
Co2 F1 1.973676 1_545
Co2 F6 1.975227 1_455
Co2 F6 1.975227 1_555
Co3 O7 1.787807 1_555
Co3 O3 1.794053 1_545
Co3 F2 1.959199 1_545
Co3 F2 1.959199 1_445
Co3 F7 2.022346 1_555
Co3 F7 2.022346 1_455
Co4 O1 1.848553 1_555
Co4 O1 1.848553 1_655
Co4 O5 1.853967 1_655
Co4 O5 1.853967 1_555
Co4 F0 2.099609 1_555
Co4 F4 2.165454 1_555
Co5 O6 1.852350 1_555
Co5 O6 1.852350 1_655
Co5 O4 1.855215 1_555
Co5 O4 1.855215 1_655
Co5 F1 2.115522 1_555
Co5 F5 2.131391 1_555
Co6 O7 1.853181 1_655
Co6 O7 1.853181 1_555
Co6 O2 1.853829 1_555
Co6 O2 1.853829 1_655
Co6 F6 2.111290 1_555
Co6 F2 2.132307 1_555
Co7 O0 1.828640 1_555
Co7 O3 1.843989 1_555
Co7 O3 1.843989 1_655
Co7 F3 1.963909 1_555
Co7 F3 1.963909 1_655
Co7 F7 1.969691 1_555
