# generated using pymatgen
data_Mn2OF3
_symmetry_space_group_name_H-M   'P 1'
_cell_length_a   4.80875700
_cell_length_b   10.63198400
_cell_length_c   6.03189900
_cell_angle_alpha   90.00011088
_cell_angle_beta   89.99983111
_cell_angle_gamma   89.99980229
_symmetry_Int_Tables_number   1
_chemical_formula_structural   Mn2OF3
_chemical_formula_sum   'Mn8 O4 F12'
_cell_volume   308.39065319
_cell_formula_units_Z   4
loop_
 _symmetry_equiv_pos_site_id
 _symmetry_equiv_pos_as_xyz
  1  'x, y, z'
loop_
 _atom_site_type_symbol
 _atom_site_label
 _atom_site_symmetry_multiplicity
 _atom_site_fract_x
 _atom_site_fract_y
 _atom_site_fract_z
 _atom_site_occupancy
  Mn  Mn0  1  0.49992700  0.49999100  0.50006100  1
  Mn  Mn1  1  0.50004900  0.49995200  0.99988200  1
  Mn  Mn2  1  0.04445400  0.28221700  0.25001800  1
  Mn  Mn3  1  0.95549700  0.71784300  0.75001300  1
  Mn  Mn4  1  0.00008700  0.00000800  0.99994100  1
  Mn  Mn5  1  0.00004000  0.00001100  0.50003500  1
  Mn  Mn6  1  0.45554600  0.78219200  0.25000600  1
  Mn  Mn7  1  0.54463800  0.21773300  0.74999600  1
  O  O0  1  0.19430100  0.93294600  0.25000300  1
  O  O1  1  0.30591100  0.43285400  0.24999100  1
  O  O2  1  0.69413300  0.56717300  0.74998800  1
  O  O3  1  0.80565100  0.06705700  0.75000300  1
  F  F0  1  0.20291800  0.89807300  0.75000400  1
  F  F1  1  0.29730300  0.39796700  0.75000100  1
  F  F2  1  0.70260700  0.60201600  0.25000200  1
  F  F3  1  0.79707800  0.10193100  0.25000600  1
  F  F4  1  0.25269100  0.66140600  0.99881300  1
  F  F5  1  0.25268100  0.66141000  0.50119700  1
  F  F6  1  0.24749900  0.16131900  0.99895400  1
  F  F7  1  0.24749800  0.16131800  0.50106000  1
  F  F8  1  0.75247000  0.83869600  0.49898500  1
  F  F9  1  0.75247400  0.83869700  0.00102900  1
  F  F10  1  0.74726800  0.33859800  0.49885400  1
  F  F11  1  0.74728000  0.33859200  0.00115900  1
loop_
_geom_bond_atom_site_label_1
_geom_bond_atom_site_label_2
_geom_bond_distance
_geom_bond_site_symmetry_2
Mn0 O2 1.911808 1_555
Mn0 O1 1.911864 1_555
Mn1 O2 1.911518 1_555
Mn1 O1 1.912179 1_556
Mn2 O1 2.036124 1_555
Mn3 O2 2.036124 1_555
Mn4 O3 1.911873 1_455
Mn4 O0 1.911993 1_546
Mn5 O3 1.911887 1_455
Mn5 O0 1.911966 1_545
Mn6 O0 2.036467 1_555
Mn7 O3 2.035126 1_555
F0 Mn4 2.097312 1_565
F0 Mn5 2.097579 1_565
F0 Mn3 2.255536 1_455
F1 Mn1 2.097161 1_555
F1 Mn0 2.097358 1_555
F1 Mn7 2.255347 1_555
F2 Mn0 2.098004 1_555
F2 Mn1 2.098212 1_554
F2 Mn6 2.254128 1_555
F3 Mn5 2.097928 1_655
F3 Mn4 2.098199 1_654
F3 Mn2 2.255928 1_655
F4 Mn1 2.088429 1_555
F4 Mn3 2.157473 1_455
F4 Mn6 2.212797 1_556
F5 Mn0 2.087818 1_555
F5 Mn3 2.157489 1_455
F5 Mn6 2.212785 1_555
F6 Mn4 2.087333 1_555
F6 Mn7 2.157889 1_555
F6 Mn2 2.213351 1_556
F7 Mn5 2.087425 1_555
F7 Mn7 2.157807 1_555
F7 Mn2 2.213271 1_555
F8 Mn5 2.087802 1_665
F8 Mn6 2.157564 1_555
F8 Mn3 2.212894 1_555
F9 Mn4 2.087886 1_664
F9 Mn6 2.157567 1_555
F9 Mn3 2.212834 1_554
F10 Mn0 2.087852 1_555
F10 Mn2 2.157425 1_655
F10 Mn7 2.212597 1_555
F11 Mn1 2.087264 1_554
F11 Mn2 2.157473 1_655
F11 Mn7 2.212672 1_554
