# generated using pymatgen
data_SmInO3
_symmetry_space_group_name_H-M   'P 1'
_cell_length_a   5.62297300
_cell_length_b   5.95257100
_cell_length_c   8.23891700
_cell_angle_alpha   90.00000000
_cell_angle_beta   90.00000000
_cell_angle_gamma   90.00000000
_symmetry_Int_Tables_number   1
_chemical_formula_structural   SmInO3
_chemical_formula_sum   'Sm4 In4 O12'
_cell_volume   275.76599390
_cell_formula_units_Z   4
loop_
 _symmetry_equiv_pos_site_id
 _symmetry_equiv_pos_as_xyz
  1  'x, y, z'
loop_
 _atom_site_type_symbol
 _atom_site_label
 _atom_site_symmetry_multiplicity
 _atom_site_fract_x
 _atom_site_fract_y
 _atom_site_fract_z
 _atom_site_occupancy
  Sm  Sm0  1  0.97958300  0.06453700  0.25000000  1
  Sm  Sm1  1  0.47958300  0.43546300  0.75000000  1
  Sm  Sm2  1  0.52041700  0.56453700  0.25000000  1
  Sm  Sm3  1  0.02041700  0.93546300  0.75000000  1
  In  In0  1  0.50000000  0.00000000  0.00000000  1
  In  In1  1  0.50000000  0.00000000  0.50000000  1
  In  In2  1  0.00000000  0.50000000  0.00000000  1
  In  In3  1  0.00000000  0.50000000  0.50000000  1
  O  O0  1  0.63467800  0.06224800  0.75000000  1
  O  O1  1  0.18738100  0.19049100  0.56838000  1
  O  O2  1  0.18738100  0.19049100  0.93162000  1
  O  O3  1  0.68738100  0.30950900  0.43162000  1
  O  O4  1  0.68738100  0.30950900  0.06838000  1
  O  O5  1  0.13467800  0.43775200  0.25000000  1
  O  O6  1  0.86532200  0.56224800  0.75000000  1
  O  O7  1  0.31261900  0.69049100  0.93162000  1
  O  O8  1  0.31261900  0.69049100  0.56838000  1
  O  O9  1  0.81261900  0.80950900  0.06838000  1
  O  O10  1  0.81261900  0.80950900  0.43162000  1
  O  O11  1  0.36532200  0.93775200  0.25000000  1
loop_
_geom_bond_atom_site_label_1
_geom_bond_atom_site_label_2
_geom_bond_distance
_geom_bond_site_symmetry_2
In0 O2 2.166375 1_554
In0 O9 2.166375 1_545
In0 O4 2.195880 1_555
In0 O7 2.195880 1_544
In0 O0 2.225594 1_554
In0 O11 2.225594 1_545
In1 O1 2.166375 1_555
In1 O10 2.166375 1_545
In1 O3 2.195880 1_555
In1 O8 2.195880 1_545
In1 O0 2.225594 1_555
In1 O11 2.225594 1_545
In2 O7 2.166375 1_554
In2 O4 2.166375 1_455
In2 O9 2.195880 1_455
In2 O2 2.195880 1_554
In2 O5 2.225594 1_555
In2 O6 2.225594 1_454
In3 O8 2.166375 1_555
In3 O3 2.166375 1_455
In3 O10 2.195880 1_455
In3 O1 2.195880 1_555
In3 O5 2.225594 1_555
In3 O6 2.225594 1_455
O0 Sm3 2.296547 1_645
O0 Sm1 2.386631 1_555
O1 Sm3 2.329168 1_545
O1 Sm1 2.658016 1_555
O1 Sm0 2.967839 1_455
O2 Sm3 2.329168 1_545
O2 Sm1 2.658016 1_555
O2 Sm0 2.967839 1_456
O3 Sm2 2.329168 1_555
O3 Sm0 2.658016 1_555
O3 Sm1 2.967839 1_555
O4 Sm2 2.329168 1_555
O4 Sm0 2.658016 1_555
O4 Sm1 2.967839 1_554
O5 Sm2 2.296547 1_555
O5 Sm0 2.386631 1_455
O6 Sm1 2.296547 1_555
O6 Sm3 2.386631 1_655
O7 Sm1 2.329168 1_555
O7 Sm3 2.658016 1_555
O7 Sm2 2.967839 1_556
O8 Sm1 2.329168 1_555
O8 Sm3 2.658016 1_555
O8 Sm2 2.967839 1_555
O9 Sm0 2.329168 1_565
O9 Sm2 2.658016 1_555
O9 Sm3 2.967839 1_654
O10 Sm0 2.329168 1_565
O10 Sm2 2.658016 1_555
O10 Sm3 2.967839 1_655
O11 Sm0 2.296547 1_465
O11 Sm2 2.386631 1_555
