# generated using pymatgen
data_Li2Mn(BO3)2
_symmetry_space_group_name_H-M   'P 1'
_cell_length_a   8.49218700
_cell_length_b   5.22209500
_cell_length_c   10.83249509
_cell_angle_alpha   65.43920581
_cell_angle_beta   90.00000000
_cell_angle_gamma   90.00000000
_symmetry_Int_Tables_number   1
_chemical_formula_structural   Li2Mn(BO3)2
_chemical_formula_sum   'Li8 Mn4 B8 O24'
_cell_volume   436.92352316
_cell_formula_units_Z   4
loop_
 _symmetry_equiv_pos_site_id
 _symmetry_equiv_pos_as_xyz
  1  'x, y, z'
loop_
 _atom_site_type_symbol
 _atom_site_label
 _atom_site_symmetry_multiplicity
 _atom_site_fract_x
 _atom_site_fract_y
 _atom_site_fract_z
 _atom_site_occupancy
  Li  Li0  1  0.67010900  0.43638300  0.37618500  1
  Li  Li1  1  0.96240200  0.94495500  0.87648000  1
  Li  Li2  1  0.17010900  0.56361700  0.12381500  1
  Li  Li3  1  0.46240200  0.05504500  0.62352000  1
  Li  Li4  1  0.53759800  0.94495500  0.37648000  1
  Li  Li5  1  0.82989100  0.43638300  0.87618500  1
  Li  Li6  1  0.03759800  0.05504500  0.12352000  1
  Li  Li7  1  0.32989100  0.56361700  0.62381500  1
  Mn  Mn0  1  0.28623300  0.03677500  0.87137200  1
  Mn  Mn1  1  0.78623300  0.96322500  0.62862800  1
  Mn  Mn2  1  0.21376700  0.03677500  0.37137200  1
  Mn  Mn3  1  0.71376700  0.96322500  0.12862800  1
  B  B0  1  0.30629200  0.46289700  0.38011200  1
  B  B1  1  0.63357700  0.95440700  0.86945400  1
  B  B2  1  0.80629200  0.53710300  0.11988800  1
  B  B3  1  0.13357700  0.04559300  0.63054600  1
  B  B4  1  0.86642300  0.95440700  0.36945400  1
  B  B5  1  0.19370800  0.46289700  0.88011200  1
  B  B6  1  0.36642300  0.04559300  0.13054600  1
  B  B7  1  0.69370800  0.53710300  0.61988800  1
  O  O0  1  0.32001700  0.88546500  0.06213900  1
  O  O1  1  0.65740700  0.30825200  0.59455300  1
  O  O2  1  0.90928400  0.76051200  0.09671900  1
  O  O3  1  0.65978600  0.58525000  0.16357600  1
  O  O4  1  0.25414600  0.16808200  0.67607200  1
  O  O5  1  0.98396800  0.07957300  0.66519000  1
  O  O6  1  0.15978600  0.41475000  0.33642400  1
  O  O7  1  0.40928400  0.23948800  0.40328100  1
  O  O8  1  0.48396800  0.92042700  0.83481000  1
  O  O9  1  0.75414600  0.83191800  0.82392800  1
  O  O10  1  0.82001700  0.11453500  0.43786100  1
  O  O11  1  0.15740700  0.69174800  0.90544700  1
  O  O12  1  0.84259300  0.30825200  0.09455300  1
  O  O13  1  0.17998300  0.88546500  0.56213900  1
  O  O14  1  0.24585400  0.16808200  0.17607200  1
  O  O15  1  0.51603200  0.07957300  0.16519000  1
  O  O16  1  0.59071600  0.76051200  0.59671900  1
  O  O17  1  0.84021400  0.58525000  0.66357600  1
  O  O18  1  0.01603200  0.92042700  0.33481000  1
  O  O19  1  0.74585400  0.83191800  0.32392800  1
  O  O20  1  0.34021400  0.41475000  0.83642400  1
  O  O21  1  0.09071600  0.23948800  0.90328100  1
  O  O22  1  0.34259300  0.69174800  0.40544700  1
  O  O23  1  0.67998300  0.11453500  0.93786100  1
loop_
_geom_bond_atom_site_label_1
_geom_bond_atom_site_label_2
_geom_bond_distance
_geom_bond_site_symmetry_2
Li0 O10 1.989560 1_555
Li0 O19 2.007130 1_555
Li0 O3 2.104242 1_555
Li0 O1 2.176928 1_555
Li0 O7 2.408024 1_555
Li1 O21 2.002139 1_665
Li1 O9 2.019808 1_555
Li1 O11 2.060180 1_655
Li1 O5 2.104458 1_565
Li1 O2 2.216453 1_556
Li2 O0 1.989560 1_555
Li2 O14 2.007130 1_555
Li2 O6 2.104242 1_555
Li2 O11 2.176928 1_554
Li2 O2 2.408024 1_455
Li3 O16 2.002139 1_545
Li3 O4 2.019808 1_555
Li3 O1 2.060180 1_555
Li3 O8 2.104458 1_545
Li3 O7 2.216453 1_555
Li4 O7 2.002139 1_565
Li4 O19 2.019808 1_555
Li4 O22 2.060180 1_555
Li4 O15 2.104458 1_565
Li4 O16 2.216453 1_555
Li5 O23 1.989560 1_555
Li5 O9 2.007130 1_555
Li5 O17 2.104242 1_555
Li5 O12 2.176928 1_556
Li5 O21 2.408024 1_655
Li6 O2 2.002139 1_445
Li6 O14 2.019808 1_555
Li6 O12 2.060180 1_455
Li6 O18 2.104458 1_545
Li6 O21 2.216453 1_554
Li7 O13 1.989560 1_555
Li7 O4 2.007130 1_555
Li7 O20 2.104242 1_555
Li7 O22 2.176928 1_555
Li7 O16 2.408024 1_555
Mn0 O8 1.883025 1_545
Mn0 O0 1.902524 1_546
Mn0 O20 1.904795 1_555
Mn0 O4 1.952994 1_555
Mn0 O11 2.006637 1_545
Mn0 O21 2.073905 1_555
Mn1 O5 1.883025 1_565
Mn1 O10 1.902524 1_565
Mn1 O17 1.904795 1_555
Mn1 O9 1.952994 1_555
Mn1 O1 2.006637 1_565
Mn1 O16 2.073905 1_555
Mn2 O18 1.883025 1_545
Mn2 O13 1.902524 1_545
Mn2 O6 1.904795 1_555
Mn2 O14 1.952994 1_555
Mn2 O22 2.006637 1_545
Mn2 O7 2.073905 1_555
Mn3 O15 1.883025 1_565
Mn3 O23 1.902524 1_564
Mn3 O3 1.904795 1_555
Mn3 O19 1.952994 1_555
Mn3 O12 2.006637 1_565
Mn3 O2 2.073905 1_555
B0 O22 1.367928 1_555
B0 O6 1.390692 1_555
B0 O7 1.394866 1_555
B1 O8 1.357156 1_555
B1 O23 1.385197 1_565
B1 O9 1.401056 1_555
B2 O12 1.367928 1_555
B2 O3 1.390692 1_555
B2 O2 1.394866 1_555
B3 O5 1.357156 1_455
B3 O13 1.385197 1_545
B3 O4 1.401056 1_555
B4 O18 1.357156 1_655
B4 O10 1.385197 1_565
B4 O19 1.401056 1_555
B5 O11 1.367928 1_555
B5 O20 1.390692 1_555
B5 O21 1.394866 1_555
B6 O15 1.357156 1_555
B6 O0 1.385197 1_545
B6 O14 1.401056 1_555
B7 O1 1.367928 1_555
B7 O17 1.390692 1_555
B7 O16 1.394866 1_555
