# generated using pymatgen
data_Li4CoCu3(PO4)4
_symmetry_space_group_name_H-M   'P 1'
_cell_length_a   6.08171900
_cell_length_b   4.74087000
_cell_length_c   10.02485838
_cell_angle_alpha   89.23936473
_cell_angle_beta   90.00000000
_cell_angle_gamma   90.00000000
_symmetry_Int_Tables_number   1
_chemical_formula_structural   Li4CoCu3(PO4)4
_chemical_formula_sum   'Li4 Co1 Cu3 P4 O16'
_cell_volume   289.01765408
_cell_formula_units_Z   1
loop_
 _symmetry_equiv_pos_site_id
 _symmetry_equiv_pos_as_xyz
  1  'x, y, z'
loop_
 _atom_site_type_symbol
 _atom_site_label
 _atom_site_symmetry_multiplicity
 _atom_site_fract_x
 _atom_site_fract_y
 _atom_site_fract_z
 _atom_site_occupancy
  Li  Li0  1  0.25047100  0.00238800  0.00326200  1
  Li  Li1  1  0.74952900  0.00238800  0.00326200  1
  Li  Li2  1  0.75087400  0.49687500  0.49866100  1
  Li  Li3  1  0.24912600  0.49687500  0.49866100  1
  Co  Co0  1  0.00000000  0.02021800  0.72113100  1
  Cu  Cu0  1  0.50000000  0.96030300  0.28547700  1
  Cu  Cu1  1  0.50000000  0.55228200  0.78357600  1
  Cu  Cu2  1  0.00000000  0.45866800  0.21655800  1
  P  P0  1  0.00000000  0.91692800  0.40347400  1
  P  P1  1  0.00000000  0.58255200  0.90552700  1
  P  P2  1  0.50000000  0.42333900  0.09495300  1
  P  P3  1  0.50000000  0.07921700  0.59679400  1
  O  O0  1  0.00000000  0.79696700  0.54875900  1
  O  O1  1  0.20399500  0.78042900  0.33352300  1
  O  O2  1  0.79600500  0.78042900  0.33352300  1
  O  O3  1  0.50000000  0.75137800  0.60236600  1
  O  O4  1  0.50000000  0.74873000  0.10083400  1
  O  O5  1  0.20161600  0.72711900  0.83464400  1
  O  O6  1  0.79838400  0.72711900  0.83464400  1
  O  O7  1  0.00000000  0.69709900  0.05116100  1
  O  O8  1  0.50000000  0.31470800  0.94812100  1
  O  O9  1  0.70329700  0.28116000  0.16420100  1
  O  O10  1  0.29670300  0.28116000  0.16420100  1
  O  O11  1  0.00000000  0.25961500  0.90097400  1
  O  O12  1  0.00000000  0.24300200  0.39741900  1
  O  O13  1  0.70605800  0.21332800  0.66276200  1
  O  O14  1  0.29394200  0.21332800  0.66276200  1
  O  O15  1  0.50000000  0.19239500  0.44877300  1
loop_
_geom_bond_atom_site_label_1
_geom_bond_atom_site_label_2
_geom_bond_distance
_geom_bond_site_symmetry_2
Li0 O10 2.117872 1_555
Li0 O7 2.151122 1_545
Li0 O4 2.162104 1_545
Li0 O5 2.169624 1_544
Li0 O8 2.186142 1_554
Li0 O11 2.196781 1_554
Li1 O9 2.117872 1_555
Li1 O7 2.151122 1_645
Li1 O4 2.162104 1_545
Li1 O6 2.169624 1_544
Li1 O8 2.186142 1_554
Li1 O11 2.196781 1_654
Li2 O13 2.128127 1_555
Li2 O2 2.136353 1_555
Li2 O0 2.142624 1_655
Li2 O15 2.163534 1_555
Li2 O12 2.192419 1_655
Li2 O3 2.213104 1_555
Li3 O14 2.128127 1_555
Li3 O1 2.136353 1_555
Li3 O0 2.142624 1_555
Li3 O15 2.163534 1_555
Li3 O12 2.192419 1_555
Li3 O3 2.213104 1_555
Co0 O0 2.038327 1_545
Co0 O14 2.088564 1_555
Co0 O13 2.088564 1_455
Co0 O11 2.143103 1_555
Co0 O5 2.165013 1_545
Co0 O6 2.165013 1_445
Cu0 O15 1.984529 1_565
Cu0 O1 2.046723 1_555
Cu0 O2 2.046723 1_555
Cu0 O4 2.116993 1_555
Cu0 O10 2.295986 1_565
Cu0 O9 2.295986 1_565
Cu1 O8 1.985000 1_555
Cu1 O3 2.036038 1_555
Cu1 O5 2.062399 1_555
Cu1 O6 2.062399 1_555
Cu1 O14 2.381442 1_555
Cu1 O13 2.381442 1_555
Cu2 O7 1.994294 1_555
Cu2 O9 2.061917 1_455
Cu2 O10 2.061917 1_555
Cu2 O12 2.069668 1_555
Cu2 O2 2.299673 1_455
Cu2 O1 2.299673 1_555
O0 P0 1.556512 1_555
O1 P0 1.568998 1_555
O2 P0 1.568998 1_655
O3 P3 1.554504 1_565
O4 P2 1.544544 1_555
O5 P1 1.570110 1_555
O6 P1 1.570110 1_655
O7 P1 1.564430 1_554
O8 P2 1.565903 1_556
O9 P2 1.566050 1_555
O10 P2 1.566050 1_555
O11 P1 1.532288 1_555
O12 P0 1.546260 1_545
O13 P3 1.556673 1_555
O14 P3 1.556673 1_555
O15 P3 1.571206 1_555
