# generated using pymatgen
data_TiGa2O5
_symmetry_space_group_name_H-M   'P 1'
_cell_length_a   5.29399399
_cell_length_b   5.29399399
_cell_length_c   10.08881200
_cell_angle_alpha   90.00000000
_cell_angle_beta   90.00000000
_cell_angle_gamma   139.54227861
_symmetry_Int_Tables_number   1
_chemical_formula_structural   TiGa2O5
_chemical_formula_sum   'Ti2 Ga4 O10'
_cell_volume   183.47455159
_cell_formula_units_Z   2
loop_
 _symmetry_equiv_pos_site_id
 _symmetry_equiv_pos_as_xyz
  1  'x, y, z'
loop_
 _atom_site_type_symbol
 _atom_site_label
 _atom_site_symmetry_multiplicity
 _atom_site_fract_x
 _atom_site_fract_y
 _atom_site_fract_z
 _atom_site_occupancy
  Ti  Ti0  1  0.82078100  0.17921900  0.75000000  1
  Ti  Ti1  1  0.17921900  0.82078100  0.25000000  1
  Ga  Ga0  1  0.86323100  0.13676900  0.44091900  1
  Ga  Ga1  1  0.86323100  0.13676900  0.05908100  1
  Ga  Ga2  1  0.13676900  0.86323100  0.94091900  1
  Ga  Ga3  1  0.13676900  0.86323100  0.55908100  1
  O  O0  1  0.95296900  0.04703100  0.88074200  1
  O  O1  1  0.95296900  0.04703100  0.61925800  1
  O  O2  1  0.30759400  0.69240600  0.07542700  1
  O  O3  1  0.30759400  0.69240600  0.42457300  1
  O  O4  1  0.75130100  0.24869900  0.25000000  1
  O  O5  1  0.24869900  0.75130100  0.75000000  1
  O  O6  1  0.69240600  0.30759400  0.92457300  1
  O  O7  1  0.69240600  0.30759400  0.57542700  1
  O  O8  1  0.04703100  0.95296900  0.38074200  1
  O  O9  1  0.04703100  0.95296900  0.11925800  1
loop_
_geom_bond_atom_site_label_1
_geom_bond_atom_site_label_2
_geom_bond_distance
_geom_bond_site_symmetry_2
Ga0 O3 1.919242 1_545
Ga0 O3 1.919242 1_655
Ga0 O8 1.924317 1_645
Ga0 O1 2.008000 1_555
Ga0 O7 2.172964 1_555
Ga0 O4 2.224099 1_555
Ga1 O2 1.919242 1_655
Ga1 O2 1.919242 1_545
Ga1 O9 1.924317 1_645
Ga1 O0 2.008000 1_554
Ga1 O6 2.172964 1_554
Ga1 O4 2.224099 1_555
Ga2 O6 1.919242 1_455
Ga2 O6 1.919242 1_565
Ga2 O0 1.924317 1_465
Ga2 O9 2.008000 1_556
Ga2 O2 2.172964 1_556
Ga2 O5 2.224099 1_555
Ga3 O7 1.919242 1_565
Ga3 O7 1.919242 1_455
Ga3 O1 1.924317 1_465
Ga3 O8 2.008000 1_555
Ga3 O3 2.172964 1_555
Ga3 O5 2.224099 1_555
O0 Ti0 1.861327 1_555
O1 Ti0 1.861327 1_555
O2 Ti1 2.174529 1_555
O3 Ti1 2.174529 1_555
O4 Ti1 1.965605 1_545
O4 Ti1 1.965605 1_655
O5 Ti0 1.965605 1_455
O5 Ti0 1.965605 1_565
O6 Ti0 2.174529 1_555
O7 Ti0 2.174529 1_555
O8 Ti1 1.861327 1_555
O9 Ti1 1.861327 1_555
