# generated using pymatgen
data_LiFeSiO4
_symmetry_space_group_name_H-M   'P 1'
_cell_length_a   4.53948100
_cell_length_b   8.59994200
_cell_length_c   4.53948200
_cell_angle_alpha   90.00000666
_cell_angle_beta   90.00000000
_cell_angle_gamma   90.00000666
_symmetry_Int_Tables_number   1
_chemical_formula_structural   LiFeSiO4
_chemical_formula_sum   'Li2 Fe2 Si2 O8'
_cell_volume   177.21807848
_cell_formula_units_Z   2
loop_
 _symmetry_equiv_pos_site_id
 _symmetry_equiv_pos_as_xyz
  1  'x, y, z'
loop_
 _atom_site_type_symbol
 _atom_site_label
 _atom_site_symmetry_multiplicity
 _atom_site_fract_x
 _atom_site_fract_y
 _atom_site_fract_z
 _atom_site_occupancy
  Li  Li0  1  0.50000000  0.00000000  0.50000000  1
  Li  Li1  1  0.00000000  0.50000000  0.00000000  1
  Fe  Fe0  1  0.00000000  0.75000000  0.50000000  1
  Fe  Fe1  1  0.50000000  0.25000000  0.00000000  1
  Si  Si0  1  0.00000000  0.99999900  0.00000000  1
  Si  Si1  1  0.50000000  0.50000100  0.50000000  1
  O  O0  1  0.23817600  0.10829700  0.18315800  1
  O  O1  1  0.73817500  0.60829400  0.68315900  1
  O  O2  1  0.31684100  0.39170300  0.73817600  1
  O  O3  1  0.81684100  0.89170600  0.23817500  1
  O  O4  1  0.76182400  0.10829700  0.81684100  1
  O  O5  1  0.26182500  0.60829400  0.31684000  1
  O  O6  1  0.68315800  0.39170300  0.26182400  1
  O  O7  1  0.18315900  0.89170600  0.76182500  1
loop_
_geom_bond_atom_site_label_1
_geom_bond_atom_site_label_2
_geom_bond_distance
_geom_bond_site_symmetry_2
Li0 O7 2.085354 1_545
Li0 O3 2.085354 1_545
Li0 O4 2.085363 1_555
Li0 O0 2.085366 1_555
Li1 O5 2.085351 1_555
Li1 O1 2.085354 1_454
Li1 O2 2.085363 1_554
Li1 O6 2.085366 1_455
Fe0 O7 1.894491 1_555
Fe0 O1 1.894491 1_455
Fe0 O3 1.894491 1_455
Fe0 O5 1.894493 1_555
Fe1 O6 1.894469 1_555
Fe1 O0 1.894469 1_555
Fe1 O4 1.894471 1_554
Fe1 O2 1.894471 1_554
O0 Si0 1.651576 1_545
O1 Si1 1.651551 1_555
O2 Si1 1.651579 1_555
O3 Si0 1.651552 1_655
O4 Si0 1.651579 1_646
O5 Si1 1.651554 1_555
O6 Si1 1.651577 1_555
O7 Si0 1.651552 1_556
