# generated using pymatgen
data_Zr2N2O
_symmetry_space_group_name_H-M   'P 1'
_cell_length_a   8.77053104
_cell_length_b   8.78655031
_cell_length_c   8.79039245
_cell_angle_alpha   109.48624830
_cell_angle_beta   109.36439022
_cell_angle_gamma   109.31893889
_symmetry_Int_Tables_number   1
_chemical_formula_structural   Zr2N2O
_chemical_formula_sum   'Zr16 N16 O8'
_cell_volume   523.03565458
_cell_formula_units_Z   8
loop_
 _symmetry_equiv_pos_site_id
 _symmetry_equiv_pos_as_xyz
  1  'x, y, z'
loop_
 _atom_site_type_symbol
 _atom_site_label
 _atom_site_symmetry_multiplicity
 _atom_site_fract_x
 _atom_site_fract_y
 _atom_site_fract_z
 _atom_site_occupancy
  Zr  Zr0  1  0.98826084  0.48133577  0.99004027  1
  Zr  Zr1  1  0.75952406  0.72281570  0.97498966  1
  Zr  Zr2  1  0.53409089  0.25085631  0.78528635  1
  Zr  Zr3  1  0.96431671  0.74793126  0.71386961  1
  Zr  Zr4  1  0.21876603  0.96985467  0.26005113  1
  Zr  Zr5  1  0.70566843  0.46259014  0.24385782  1
  Zr  Zr6  1  0.25223312  0.78458188  0.54189309  1
  Zr  Zr7  1  0.51171696  0.51241062  0.50216929  1
  Zr  Zr8  1  0.99915173  0.01000310  0.50173642  1
  Zr  Zr9  1  0.48914254  0.00212147  0.00285113  1
  Zr  Zr10  1  0.74630372  0.21222697  0.46934744  1
  Zr  Zr11  1  0.79279672  0.03001755  0.74841887  1
  Zr  Zr12  1  0.27393603  0.53011781  0.74133972  1
  Zr  Zr13  1  0.03747681  0.25271613  0.28542753  1
  Zr  Zr14  1  0.46330284  0.74899811  0.21292418  1
  Zr  Zr15  1  0.24739150  0.28887212  0.02937806  1
  N  N0  1  0.95687350  0.96818263  0.22449530  1
  N  N1  1  0.77602806  0.51872411  0.04884564  1
  N  N2  1  0.27671736  0.04403178  0.53233264  1
  N  N3  1  0.74127037  0.46842342  0.50902148  1
  N  N4  1  0.45928293  0.22534396  0.99051119  1
  N  N5  1  0.75794601  0.27008793  0.72832864  1
  N  N6  1  0.26271778  0.53604662  0.48530796  1
  N  N7  1  0.23070090  0.76395369  0.77443328  1
  N  N8  1  0.72683565  0.95015689  0.46280836  1
  N  N9  1  0.99020049  0.26234587  0.03578360  1
  N  N10  1  0.46242539  0.00877205  0.23350962  1
  N  N11  1  0.03128006  0.27298907  0.54345680  1
  N  N12  1  0.72591239  0.77037494  0.74275061  1
  N  N13  1  0.22853218  0.49146004  0.95623786  1
  N  N14  1  0.51001238  0.54359654  0.27277970  1
  N  N15  1  0.04602416  0.03087323  0.76982382  1
  O  O0  1  0.48468896  0.45444836  0.72954032  1
  O  O1  1  0.27497918  0.22853766  0.26729186  1
  O  O2  1  0.97150009  0.72557978  0.45572655  1
  O  O3  1  0.53307281  0.98677597  0.76231446  1
  O  O4  1  0.01436314  0.73896670  0.96688684  1
  O  O5  1  0.77080586  0.23243254  0.22296740  1
  O  O6  1  0.23708564  0.72909058  0.27055082  1
  O  O7  1  0.54666379  0.77135604  0.01071468  1
loop_
_geom_bond_atom_site_label_1
_geom_bond_atom_site_label_2
_geom_bond_distance
_geom_bond_site_symmetry_2
N0 Zr1 2.076801 1_554
N0 Zr13 2.173271 1_665
N0 Zr4 2.207340 1_655
N0 Zr8 2.219211 1_565
N1 Zr1 2.131756 1_554
N1 Zr5 2.151017 1_555
N1 Zr0 2.183873 1_554
N1 Zr2 2.281927 1_554
N2 Zr4 2.084496 1_545
N2 Zr2 2.145587 1_555
N2 Zr6 2.250767 1_545
N2 Zr8 2.262430 1_455
N3 Zr3 2.153052 1_555
N3 Zr7 2.157863 1_555
N3 Zr10 2.177876 1_555
N3 Zr5 2.227160 1_555
N4 Zr9 2.095287 1_556
N4 Zr2 2.166233 1_555
N4 Zr5 2.169241 1_556
N4 Zr15 2.205027 1_556
N5 Zr0 2.099227 1_555
N5 Zr10 2.119172 1_555
N5 Zr2 2.150047 1_555
N5 Zr11 2.283305 1_555
N6 Zr6 2.112635 1_555
N6 Zr13 2.171008 1_555
N6 Zr7 2.222677 1_555
N6 Zr12 2.238850 1_555
N7 Zr9 2.142136 1_566
N7 Zr12 2.154002 1_555
N7 Zr3 2.160839 1_455
N7 Zr6 2.174275 1_555
N8 Zr8 2.145893 1_565
N8 Zr14 2.152014 1_555
N8 Zr11 2.173292 1_565
N8 Zr10 2.231566 1_565
N9 Zr0 2.097070 1_554
N9 Zr13 2.130366 1_655
N9 Zr11 2.206043 1_554
N9 Zr15 2.211517 1_655
N10 Zr9 2.101066 1_555
N10 Zr4 2.153738 1_545
N10 Zr10 2.202754 1_555
N10 Zr14 2.231518 1_545
N11 Zr12 2.097892 1_555
N11 Zr8 2.118653 1_455
N11 Zr10 2.182128 1_455
N11 Zr13 2.235603 1_555
N12 Zr7 2.118754 1_555
N12 Zr11 2.137877 1_565
N12 Zr1 2.163494 1_555
N12 Zr3 2.250952 1_555
N13 Zr15 2.120640 1_556
N13 Zr12 2.163297 1_555
N13 Zr0 2.201314 1_455
N13 Zr14 2.209343 1_556
N14 Zr7 2.119581 1_555
N14 Zr5 2.119588 1_555
N14 Zr14 2.163712 1_555
N14 Zr15 2.240215 1_555
N15 Zr11 2.163080 1_455
N15 Zr15 2.166063 1_556
N15 Zr3 2.169734 1_445
N15 Zr8 2.185297 1_455
O0 Zr2 2.141213 1_555
O0 Zr12 2.182597 1_555
O0 Zr7 2.285544 1_555
O0 Zr1 2.328479 1_555
O1 Zr4 2.134142 1_545
O1 Zr13 2.213583 1_555
O1 Zr7 2.256114 1_555
O1 Zr15 2.280862 1_555
O2 Zr6 2.135769 1_655
O2 Zr5 2.220061 1_555
O2 Zr3 2.235483 1_555
O2 Zr8 2.308138 1_565
O3 Zr6 2.149568 1_555
O3 Zr11 2.234057 1_565
O3 Zr9 2.240933 1_566
O3 Zr2 2.257742 1_565
O4 Zr3 2.153588 1_455
O4 Zr1 2.218833 1_455
O4 Zr4 2.238881 1_556
O4 Zr0 2.283309 1_455
O5 Zr13 2.147267 1_655
O5 Zr9 2.202685 1_555
O5 Zr5 2.244100 1_555
O5 Zr10 2.303957 1_555
O6 Zr14 2.172468 1_555
O6 Zr4 2.203393 1_555
O6 Zr6 2.217137 1_555
O6 Zr0 2.299692 1_454
O7 Zr1 2.142917 1_554
O7 Zr14 2.175403 1_555
O7 Zr9 2.262252 1_565
O7 Zr12 2.315627 1_554
