# generated using pymatgen
data_LiTiP2O7
_symmetry_space_group_name_H-M   'P 1'
_cell_length_a   8.20203000
_cell_length_b   5.27045300
_cell_length_c   14.39290166
_cell_angle_alpha   68.57011756
_cell_angle_beta   90.00000000
_cell_angle_gamma   90.00000000
_symmetry_Int_Tables_number   1
_chemical_formula_structural   LiTiP2O7
_chemical_formula_sum   'Li4 Ti4 P8 O28'
_cell_volume   579.16797433
_cell_formula_units_Z   4
loop_
 _symmetry_equiv_pos_site_id
 _symmetry_equiv_pos_as_xyz
  1  'x, y, z'
loop_
 _atom_site_type_symbol
 _atom_site_label
 _atom_site_symmetry_multiplicity
 _atom_site_fract_x
 _atom_site_fract_y
 _atom_site_fract_z
 _atom_site_occupancy
  Li  Li0  1  0.76352500  0.05724700  0.74408800  1
  Li  Li1  1  0.26352500  0.94275300  0.75591200  1
  Li  Li2  1  0.73647500  0.05724700  0.24408800  1
  Li  Li3  1  0.23647500  0.94275300  0.25591200  1
  Ti  Ti0  1  0.65070500  0.67373500  0.12423200  1
  Ti  Ti1  1  0.15070500  0.32626500  0.37576800  1
  Ti  Ti2  1  0.84929500  0.67373500  0.62423200  1
  Ti  Ti3  1  0.34929500  0.32626500  0.87576800  1
  P  P0  1  0.79605600  0.32798600  0.47790100  1
  P  P1  1  0.54217400  0.45729600  0.32200600  1
  P  P2  1  0.04217400  0.54270400  0.17799400  1
  P  P3  1  0.29605600  0.67201400  0.02209900  1
  P  P4  1  0.70394400  0.32798600  0.97790100  1
  P  P5  1  0.95782600  0.45729600  0.82200600  1
  P  P6  1  0.45782600  0.54270400  0.67799400  1
  P  P7  1  0.20394400  0.67201400  0.52209900  1
  O  O0  1  0.93649800  0.26268200  0.76689000  1
  O  O1  1  0.63572700  0.72061200  0.26244600  1
  O  O2  1  0.18097200  0.40547100  0.50637700  1
  O  O3  1  0.41421700  0.70802400  0.09977900  1
  O  O4  1  0.36345800  0.52234400  0.33659600  1
  O  O5  1  0.29497500  0.92516900  0.92425200  1
  O  O6  1  0.61372000  0.32974000  0.43359800  1
  O  O7  1  0.11372000  0.67026000  0.06640200  1
  O  O8  1  0.79497500  0.07483100  0.57574800  1
  O  O9  1  0.86345800  0.47765600  0.16340400  1
  O  O10  1  0.91421700  0.29197600  0.40022100  1
  O  O11  1  0.68097200  0.59452900  0.99362300  1
  O  O12  1  0.13572700  0.27938800  0.23755400  1
  O  O13  1  0.43649800  0.73731800  0.73311000  1
  O  O14  1  0.56350200  0.26268200  0.26689000  1
  O  O15  1  0.86427300  0.72061200  0.76244600  1
  O  O16  1  0.31902800  0.40547100  0.00637700  1
  O  O17  1  0.08578300  0.70802400  0.59977900  1
  O  O18  1  0.13654200  0.52234400  0.83659600  1
  O  O19  1  0.20502500  0.92516900  0.42425200  1
  O  O20  1  0.88628000  0.32974000  0.93359800  1
  O  O21  1  0.38628000  0.67026000  0.56640200  1
  O  O22  1  0.70502500  0.07483100  0.07574800  1
  O  O23  1  0.63654200  0.47765600  0.66340400  1
  O  O24  1  0.58578300  0.29197600  0.90022100  1
  O  O25  1  0.81902800  0.59452900  0.49362300  1
  O  O26  1  0.36427300  0.27938800  0.73755400  1
  O  O27  1  0.06350200  0.73731800  0.23311000  1
loop_
_geom_bond_atom_site_label_1
_geom_bond_atom_site_label_2
_geom_bond_distance
_geom_bond_site_symmetry_2
Li0 O0 1.884800 1_555
Li0 O15 1.886251 1_545
Li0 O23 2.337227 1_555
Li0 O8 2.404475 1_555
Li1 O13 1.884800 1_555
Li1 O26 1.886251 1_565
Li1 O18 2.337227 1_555
Li1 O5 2.404475 1_555
Li2 O14 1.884800 1_555
Li2 O1 1.886251 1_545
Li2 O9 2.337227 1_555
Li2 O22 2.404475 1_555
Li3 O27 1.884800 1_555
Li3 O12 1.886251 1_565
Li3 O4 2.337227 1_555
Li3 O19 2.404475 1_555
O0 P5 1.518727 1_555
O0 Ti2 2.484038 1_555
O1 P1 1.542822 1_555
O1 Ti0 2.095850 1_555
O2 P7 1.514088 1_555
O2 Ti1 2.084019 1_555
O3 P3 1.542841 1_555
O3 Ti0 1.967845 1_555
O4 P1 1.537175 1_555
O4 Ti1 2.001283 1_555
O5 P3 1.546141 1_556
O5 Ti3 2.018993 1_565
O6 P1 1.608405 1_555
O6 P0 1.624491 1_555
O7 P2 1.608405 1_555
O7 P3 1.624491 1_555
O8 P0 1.546141 1_555
O8 Ti2 2.018993 1_545
O9 P2 1.537175 1_655
O9 Ti0 2.001283 1_555
O10 P0 1.542841 1_555
O10 Ti1 1.967845 1_655
O11 P4 1.514088 1_555
O11 Ti0 2.084019 1_556
O12 P2 1.542822 1_555
O12 Ti1 2.095850 1_555
O13 P6 1.518727 1_555
O13 Ti3 2.484038 1_555
O14 P1 1.518727 1_555
O14 Ti0 2.484038 1_555
O15 P5 1.542822 1_555
O15 Ti2 2.095850 1_555
O16 P3 1.514088 1_555
O16 Ti3 2.084019 1_554
O17 P7 1.542841 1_555
O17 Ti2 1.967845 1_455
O18 P5 1.537175 1_455
O18 Ti3 2.001283 1_555
O19 P7 1.546141 1_555
O19 Ti1 2.018993 1_565
O20 P5 1.608405 1_555
O20 P4 1.624491 1_555
O21 P6 1.608405 1_555
O21 P7 1.624491 1_555
O22 P4 1.546141 1_554
O22 Ti0 2.018993 1_545
O23 P6 1.537175 1_555
O23 Ti2 2.001283 1_555
O24 P4 1.542841 1_555
O24 Ti3 1.967845 1_555
O25 P0 1.514088 1_555
O25 Ti2 2.084019 1_555
O26 P6 1.542822 1_555
O26 Ti3 2.095850 1_555
O27 P2 1.518727 1_555
O27 Ti1 2.484038 1_555
