# generated using pymatgen
data_Li2OsO6
_symmetry_space_group_name_H-M   'P 1'
_cell_length_a   6.84426495
_cell_length_b   6.84426495
_cell_length_c   5.16111421
_cell_angle_alpha   77.10079152
_cell_angle_beta   77.10079152
_cell_angle_gamma   87.13061731
_symmetry_Int_Tables_number   1
_chemical_formula_structural   Li2OsO6
_chemical_formula_sum   'Li4 Os2 O12'
_cell_volume   229.71867093
_cell_formula_units_Z   2
loop_
 _symmetry_equiv_pos_site_id
 _symmetry_equiv_pos_as_xyz
  1  'x, y, z'
loop_
 _atom_site_type_symbol
 _atom_site_label
 _atom_site_symmetry_multiplicity
 _atom_site_fract_x
 _atom_site_fract_y
 _atom_site_fract_z
 _atom_site_occupancy
  Li  Li0  1  0.00000000  0.50000000  0.50000000  1
  Li  Li1  1  0.50000000  0.00000000  0.00000000  1
  Li  Li2  1  0.45416200  0.54583800  0.25000000  1
  Li  Li3  1  0.54583800  0.45416200  0.75000000  1
  Os  Os0  1  0.78733400  0.21266600  0.25000000  1
  Os  Os1  1  0.21266600  0.78733400  0.75000000  1
  O  O0  1  0.16841200  0.63711300  0.09675100  1
  O  O1  1  0.36288700  0.83158800  0.40324900  1
  O  O2  1  0.83158800  0.36288700  0.90324900  1
  O  O3  1  0.63711300  0.16841200  0.59675100  1
  O  O4  1  0.97023900  0.77493000  0.69877300  1
  O  O5  1  0.22507000  0.02976100  0.80122700  1
  O  O6  1  0.02976100  0.22507000  0.30122700  1
  O  O7  1  0.77493000  0.97023900  0.19877300  1
  O  O8  1  0.27529800  0.51858700  0.62748700  1
  O  O9  1  0.48141300  0.72470200  0.87251300  1
  O  O10  1  0.72470200  0.48141300  0.37251300  1
  O  O11  1  0.51858700  0.27529800  0.12748700  1
loop_
_geom_bond_atom_site_label_1
_geom_bond_atom_site_label_2
_geom_bond_distance
_geom_bond_site_symmetry_2
Li0 O8 2.148084 1_555
Li0 O10 2.148084 1_455
Li0 O2 2.169326 1_455
Li0 O0 2.169326 1_555
Li0 O4 2.316229 1_455
Li0 O6 2.316229 1_555
Li1 O11 2.148084 1_555
Li1 O9 2.148084 1_544
Li1 O1 2.169326 1_545
Li1 O3 2.169326 1_554
Li1 O7 2.316229 1_545
Li1 O5 2.316229 1_554
Li2 O8 2.030983 1_555
Li2 O9 2.030983 1_554
Li2 O11 2.083109 1_555
Li2 O10 2.083109 1_555
Li2 O0 2.277829 1_555
Li2 O1 2.277829 1_555
Li3 O11 2.030983 1_556
Li3 O10 2.030983 1_555
Li3 O8 2.083109 1_555
Li3 O9 2.083109 1_555
Li3 O3 2.277829 1_555
Li3 O2 2.277829 1_555
O0 Os1 1.821877 1_554
O1 Os1 1.821877 1_555
O2 Os0 1.821877 1_556
O3 Os0 1.821877 1_555
O4 Os1 1.746469 1_655
O5 Os1 1.746469 1_545
O6 Os0 1.746469 1_455
O7 Os0 1.746469 1_565
O8 Os1 2.070309 1_555
O9 Os1 2.070309 1_555
O10 Os0 2.070309 1_555
O11 Os0 2.070309 1_555
