# generated using pymatgen
data_Nb3Ni(PO4)6
_symmetry_space_group_name_H-M   'P 1'
_cell_length_a   9.00886071
_cell_length_b   9.00886071
_cell_length_c   9.00886046
_cell_angle_alpha   58.49838760
_cell_angle_beta   58.49838760
_cell_angle_gamma   58.49838604
_symmetry_Int_Tables_number   1
_chemical_formula_structural   Nb3Ni(PO4)6
_chemical_formula_sum   'Nb3 Ni1 P6 O24'
_cell_volume   499.24520643
_cell_formula_units_Z   1
loop_
 _symmetry_equiv_pos_site_id
 _symmetry_equiv_pos_as_xyz
  1  'x, y, z'
loop_
 _atom_site_type_symbol
 _atom_site_label
 _atom_site_symmetry_multiplicity
 _atom_site_fract_x
 _atom_site_fract_y
 _atom_site_fract_z
 _atom_site_occupancy
  Nb  Nb0  1  0.14035000  0.14035000  0.14035000  1
  Nb  Nb1  1  0.35848200  0.35848200  0.35848200  1
  Nb  Nb2  1  0.64011200  0.64011200  0.64011200  1
  Ni  Ni0  1  0.85686700  0.85686700  0.85686700  1
  P  P0  1  0.75068500  0.03210700  0.47250900  1
  P  P1  1  0.03210700  0.47250900  0.75068500  1
  P  P2  1  0.47250900  0.75068500  0.03210700  1
  P  P3  1  0.54036300  0.24148500  0.96564400  1
  P  P4  1  0.96564400  0.54036300  0.24148500  1
  P  P5  1  0.24148500  0.96564400  0.54036300  1
  O  O0  1  0.28418600  0.13274600  0.49904400  1
  O  O1  1  0.49904400  0.28418600  0.13274600  1
  O  O2  1  0.92011300  0.06200200  0.28949100  1
  O  O3  1  0.13274600  0.49904400  0.28418600  1
  O  O4  1  0.58061300  0.20953900  0.43241200  1
  O  O5  1  0.77600500  0.01206200  0.63430600  1
  O  O6  1  0.06200200  0.28949100  0.92011300  1
  O  O7  1  0.20953900  0.43241200  0.58061200  1
  O  O8  1  0.43241200  0.58061200  0.20953900  1
  O  O9  1  0.36459000  0.21962500  0.99705200  1
  O  O10  1  0.71544600  0.07826100  0.94002300  1
  O  O11  1  0.99705200  0.36459000  0.21962500  1
  O  O12  1  0.01206200  0.63430600  0.77600500  1
  O  O13  1  0.28949100  0.92011300  0.06200200  1
  O  O14  1  0.63430600  0.77600500  0.01206200  1
  O  O15  1  0.56098300  0.42053100  0.79069300  1
  O  O16  1  0.79069300  0.56098300  0.42053100  1
  O  O17  1  0.94002300  0.71544600  0.07826100  1
  O  O18  1  0.21962500  0.99705200  0.36459000  1
  O  O19  1  0.42053100  0.79069300  0.56098300  1
  O  O20  1  0.86469400  0.49773500  0.71924100  1
  O  O21  1  0.07826100  0.94002300  0.71544600  1
  O  O22  1  0.49773500  0.71924100  0.86469400  1
  O  O23  1  0.71924100  0.86469400  0.49773500  1
loop_
_geom_bond_atom_site_label_1
_geom_bond_atom_site_label_2
_geom_bond_distance
_geom_bond_site_symmetry_2
Nb0 O6 1.981560 1_554
Nb0 O13 1.981560 1_545
Nb0 O2 1.981560 1_455
Nb0 O18 2.019021 1_545
Nb0 O11 2.019021 1_455
Nb0 O9 2.019021 1_554
Nb1 O7 1.975198 1_555
Nb1 O8 1.975198 1_555
Nb1 O4 1.975206 1_555
Nb1 O1 2.008153 1_555
Nb1 O3 2.008153 1_555
Nb1 O0 2.008153 1_555
Nb2 O16 1.979974 1_555
Nb2 O19 1.979974 1_555
Nb2 O15 1.979974 1_555
Nb2 O22 2.021518 1_555
Nb2 O20 2.021518 1_555
Nb2 O23 2.021518 1_555
Ni0 O5 2.009482 1_565
Ni0 O12 2.009482 1_655
Ni0 O14 2.009482 1_556
Ni0 O17 2.017659 1_556
Ni0 O10 2.017659 1_565
Ni0 O21 2.017659 1_655
O0 P5 1.556506 1_545
O1 P3 1.556506 1_554
O2 P0 1.567268 1_555
O3 P4 1.556506 1_455
O4 P0 1.564807 1_555
O5 P0 1.496195 1_555
O6 P1 1.567268 1_555
O7 P1 1.564812 1_555
O8 P2 1.564812 1_555
O9 P3 1.557493 1_555
O10 P3 1.501267 1_555
O11 P4 1.557493 1_555
O12 P1 1.496195 1_555
O13 P2 1.567268 1_555
O14 P2 1.496195 1_555
O15 P3 1.571871 1_555
O16 P4 1.571871 1_555
O17 P4 1.501267 1_555
O18 P5 1.557493 1_555
O19 P5 1.571871 1_555
O20 P1 1.558067 1_655
O21 P5 1.501267 1_555
O22 P2 1.558067 1_556
O23 P0 1.558067 1_565
