# generated using pymatgen
data_Ni3OF5
_symmetry_space_group_name_H-M   'P 1'
_cell_length_a   3.09224300
_cell_length_b   4.69517900
_cell_length_c   14.08967327
_cell_angle_alpha   88.96556224
_cell_angle_beta   90.00000000
_cell_angle_gamma   90.00000000
_symmetry_Int_Tables_number   1
_chemical_formula_structural   Ni3OF5
_chemical_formula_sum   'Ni6 O2 F10'
_cell_volume   204.52947627
_cell_formula_units_Z   2
loop_
 _symmetry_equiv_pos_site_id
 _symmetry_equiv_pos_as_xyz
  1  'x, y, z'
loop_
 _atom_site_type_symbol
 _atom_site_label
 _atom_site_symmetry_multiplicity
 _atom_site_fract_x
 _atom_site_fract_y
 _atom_site_fract_z
 _atom_site_occupancy
  Ni  Ni0  1  0.00000000  0.00000000  0.00000000  1
  Ni  Ni1  1  0.00000000  0.00971300  0.33101500  1
  Ni  Ni2  1  0.00000000  0.99028700  0.66898500  1
  Ni  Ni3  1  0.50000000  0.48693200  0.17066900  1
  Ni  Ni4  1  0.50000000  0.50000000  0.50000000  1
  Ni  Ni5  1  0.50000000  0.51306800  0.82933100  1
  O  O0  1  0.00000000  0.69874000  0.76710200  1
  O  O1  1  0.00000000  0.30126000  0.23289800  1
  F  F0  1  0.50000000  0.80220500  0.26869400  1
  F  F1  1  0.50000000  0.80424700  0.59941100  1
  F  F2  1  0.50000000  0.80264200  0.93527200  1
  F  F3  1  0.00000000  0.69509600  0.10311700  1
  F  F4  1  0.00000000  0.69875000  0.43261000  1
  F  F5  1  0.00000000  0.30125000  0.56739000  1
  F  F6  1  0.00000000  0.30490400  0.89688300  1
  F  F7  1  0.50000000  0.19735800  0.06472800  1
  F  F8  1  0.50000000  0.19575300  0.40058900  1
  F  F9  1  0.50000000  0.19779500  0.73130600  1
loop_
_geom_bond_atom_site_label_1
_geom_bond_atom_site_label_2
_geom_bond_distance
_geom_bond_site_symmetry_2
Ni1 O1 1.927847 1_555
Ni2 O0 1.927847 1_555
Ni3 O1 1.972719 1_555
Ni3 O1 1.972719 1_655
Ni5 O0 1.972719 1_655
Ni5 O0 1.972719 1_555
F0 Ni1 2.035103 1_665
F0 Ni1 2.035103 1_565
F0 Ni3 2.042681 1_555
F1 Ni4 2.018592 1_555
F1 Ni2 2.036009 1_555
F1 Ni2 2.036009 1_655
F2 Ni0 2.027656 1_566
F2 Ni0 2.027656 1_666
F2 Ni5 2.037123 1_555
F3 Ni0 2.021186 1_565
F3 Ni3 2.053788 1_455
F3 Ni3 2.053788 1_555
F4 Ni1 2.026139 1_565
F4 Ni4 2.032451 1_455
F4 Ni4 2.032451 1_555
F5 Ni2 2.026139 1_545
F5 Ni4 2.032451 1_455
F5 Ni4 2.032451 1_555
F6 Ni0 2.021186 1_556
F6 Ni5 2.053788 1_455
F6 Ni5 2.053788 1_555
F7 Ni0 2.027656 1_555
F7 Ni0 2.027656 1_655
F7 Ni3 2.037123 1_555
F8 Ni4 2.018592 1_555
F8 Ni1 2.036009 1_655
F8 Ni1 2.036009 1_555
F9 Ni2 2.035103 1_645
F9 Ni2 2.035103 1_545
F9 Ni5 2.042681 1_555
