# generated using pymatgen
data_Ca5Al11TlSi13O48
_symmetry_space_group_name_H-M   'P 1'
_cell_length_a   12.32089400
_cell_length_b   12.39592088
_cell_length_c   12.54557697
_cell_angle_alpha   89.49723168
_cell_angle_beta   89.72696025
_cell_angle_gamma   89.61567014
_symmetry_Int_Tables_number   1
_chemical_formula_structural   Ca5Al11TlSi13O48
_chemical_formula_sum   'Ca5 Al11 Tl1 Si13 O48'
_cell_volume   1915.93315926
_cell_formula_units_Z   1
loop_
 _symmetry_equiv_pos_site_id
 _symmetry_equiv_pos_as_xyz
  1  'x, y, z'
loop_
 _atom_site_type_symbol
 _atom_site_label
 _atom_site_symmetry_multiplicity
 _atom_site_fract_x
 _atom_site_fract_y
 _atom_site_fract_z
 _atom_site_occupancy
  Ca  Ca0  1  0.19940900  0.80765000  0.77919200  1
  Ca  Ca1  1  0.80500400  0.81292300  0.77805300  1
  Ca  Ca2  1  0.19147400  0.20190100  0.78780100  1
  Ca  Ca3  1  0.81814800  0.19422200  0.81650200  1
  Ca  Ca4  1  0.00321600  0.00342700  0.19297000  1
  Al  Al0  1  0.00390200  0.81253200  0.61204700  1
  Al  Al1  1  0.18508800  0.99929300  0.61635700  1
  Al  Al2  1  0.99365000  0.18636600  0.61972600  1
  Al  Al3  1  0.81131000  0.00330800  0.61589700  1
  Al  Al4  1  0.36356000  0.99675600  0.82939500  1
  Al  Al5  1  0.00088500  0.64241300  0.83385300  1
  Al  Al6  1  0.00397600  0.37398600  0.82191100  1
  Al  Al7  1  0.63178200  0.99357200  0.82342800  1
  Al  Al8  1  0.18562500  0.37116800  0.00572900  1
  Al  Al9  1  0.81261600  0.37538100  0.00417000  1
  Al  Al10  1  0.63091200  0.18075500  0.99972300  1
  Tl  Tl0  1  0.62015700  0.38442100  0.59189300  1
  Si  Si0  1  0.37307000  0.99907300  0.17969200  1
  Si  Si1  1  0.00011600  0.62786700  0.17917500  1
  Si  Si2  1  0.99654900  0.37491500  0.18252300  1
  Si  Si3  1  0.62614900  0.99975900  0.18076300  1
  Si  Si4  1  0.00142100  0.81585300  0.35397700  1
  Si  Si5  1  0.99795400  0.18371000  0.35467900  1
  Si  Si6  1  0.18421500  0.00251700  0.35604200  1
  Si  Si7  1  0.81643500  0.00053200  0.35266400  1
  Si  Si8  1  0.37053700  0.81188400  0.00880400  1
  Si  Si9  1  0.62838200  0.81337100  0.00913600  1
  Si  Si10  1  0.18711200  0.63359000  0.00655100  1
  Si  Si11  1  0.81550300  0.63857800  0.00746600  1
  Si  Si12  1  0.36347900  0.17898200  0.00286000  1
  O  O0  1  0.49949100  0.78178500  0.99860800  1
  O  O1  1  0.21453800  0.50915900  0.99313500  1
  O  O2  1  0.70061600  0.70455800  0.02394800  1
  O  O3  1  0.30347000  0.29267700  0.01015700  1
  O  O4  1  0.49142100  0.18854600  0.98843300  1
  O  O5  1  0.69552600  0.30214300  0.98917600  1
  O  O6  1  0.35127100  0.88872900  0.11301700  1
  O  O7  1  0.64471400  0.88741100  0.11496300  1
  O  O8  1  0.10910400  0.65747100  0.11103700  1
  O  O9  1  0.10636100  0.34642900  0.11928600  1
  O  O10  1  0.89197800  0.66225800  0.11281600  1
  O  O11  1  0.88599300  0.34913300  0.12161900  1
  O  O12  1  0.66231800  0.10392100  0.11519200  1
  O  O13  1  0.33547800  0.10352000  0.11056500  1
  O  O14  1  0.99806900  0.50347600  0.22205900  1
  O  O15  1  0.49828100  0.00265800  0.22178800  1
  O  O16  1  0.00294400  0.71103700  0.28031900  1
  O  O17  1  0.70560500  0.99055500  0.28633700  1
  O  O18  1  0.99637300  0.29720800  0.29289400  1
  O  O19  1  0.29169100  0.99481900  0.28340700  1
  O  O20  1  0.10461000  0.89886600  0.31581400  1
  O  O21  1  0.89914400  0.89814600  0.31050400  1
  O  O22  1  0.10385800  0.10516700  0.30978700  1
  O  O23  1  0.89692300  0.10261200  0.30493900  1
  O  O24  1  0.21048700  0.01056100  0.47844100  1
  O  O25  1  0.99809300  0.78338300  0.47540100  1
  O  O26  1  0.79384800  0.00906600  0.47616700  1
  O  O27  1  0.99356000  0.19411000  0.47928500  1
  O  O28  1  0.12809300  0.87257400  0.63326400  1
  O  O29  1  0.89109200  0.89007600  0.64159000  1
  O  O30  1  0.11072800  0.11262500  0.65580400  1
  O  O31  1  0.86731200  0.12713700  0.65608100  1
  O  O32  1  0.71093000  0.96933400  0.70956300  1
  O  O33  1  0.00004500  0.72451800  0.72108300  1
  O  O34  1  0.00419300  0.29459500  0.70552300  1
  O  O35  1  0.27942200  0.98627200  0.71937900  1
  O  O36  1  0.00126500  0.51028700  0.80686700  1
  O  O37  1  0.49677600  0.99956400  0.80092500  1
  O  O38  1  0.67174000  0.87308000  0.89988000  1
  O  O39  1  0.12193700  0.32534900  0.88835100  1
  O  O40  1  0.89052200  0.32868300  0.89424400  1
  O  O41  1  0.68458600  0.10567400  0.88923900  1
  O  O42  1  0.32567000  0.87355000  0.90080000  1
  O  O43  1  0.12405500  0.68758700  0.90133900  1
  O  O44  1  0.87969400  0.69287100  0.90280000  1
  O  O45  1  0.31069400  0.11211800  0.89909500  1
  O  O46  1  0.29986500  0.70253600  0.02282800  1
  O  O47  1  0.79078100  0.51465900  0.99207100  1
loop_
_geom_bond_atom_site_label_1
_geom_bond_atom_site_label_2
_geom_bond_distance
_geom_bond_site_symmetry_2
Ca0 O28 2.179771 1_555
Ca0 O43 2.321682 1_555
Ca0 O42 2.340188 1_555
Ca0 O35 2.535869 1_555
Ca0 O33 2.773303 1_555
Ca1 O29 2.222217 1_555
Ca1 O44 2.337785 1_555
Ca1 O38 2.359586 1_555
Ca1 O32 2.406458 1_555
Ca1 O33 2.729208 1_655
Ca2 O39 2.161705 1_555
Ca2 O30 2.240389 1_555
Ca2 O45 2.305678 1_555
Ca3 O40 2.140390 1_555
Ca3 O41 2.176662 1_555
Ca3 O31 2.262720 1_555
Ca4 O23 2.278412 1_455
Ca4 O22 2.312285 1_555
Ca4 O21 2.343557 1_445
Ca4 O20 2.361636 1_545
Al0 O29 1.725291 1_455
Al0 O28 1.728808 1_555
Al0 O33 1.742888 1_555
Al0 O25 1.756958 1_455
Al1 O28 1.735816 1_555
Al1 O30 1.746004 1_565
Al1 O35 1.748017 1_555
Al1 O24 1.761346 1_565
Al2 O34 1.733306 1_655
Al2 O30 1.761396 1_655
Al2 O27 1.763690 1_555
Al2 O31 1.781222 1_555
Al3 O29 1.736912 1_545
Al3 O32 1.752786 1_545
Al3 O31 1.765642 1_555
Al3 O26 1.767926 1_555
Al4 O37 1.678613 1_555
Al4 O35 1.736412 1_555
Al4 O45 1.799405 1_565
Al4 O42 1.826059 1_555
Al5 O36 1.675327 1_555
Al5 O33 1.735582 1_555
Al5 O44 1.831298 1_455
Al5 O43 1.834491 1_555
Al6 O36 1.698562 1_555
Al6 O40 1.755660 1_455
Al6 O34 1.767967 1_555
Al6 O39 1.778077 1_555
Al7 O37 1.689541 1_555
Al7 O32 1.752763 1_555
Al7 O41 1.753094 1_565
Al7 O38 1.833761 1_555
Al8 O3 1.743214 1_555
Al8 O9 1.749423 1_555
Al8 O1 1.755181 1_554
Al8 O39 1.771575 1_554
Al9 O5 1.721622 1_554
Al9 O47 1.750915 1_554
Al9 O11 1.759160 1_555
Al9 O40 1.775459 1_554
Al10 O5 1.710856 1_555
Al10 O4 1.727140 1_555
Al10 O12 1.769618 1_556
Al10 O41 1.797335 1_555
O0 Si8 1.634287 1_556
O0 Si9 1.644356 1_556
O1 Si10 1.587025 1_556
O2 Si9 1.620816 1_555
O2 Si11 1.643169 1_555
O3 Si12 1.590270 1_555
O4 Si12 1.590954 1_556
O6 Si0 1.633982 1_555
O6 Si8 1.639792 1_555
O7 Si9 1.634604 1_555
O7 Si3 1.639319 1_555
O8 Si1 1.630570 1_555
O8 Si10 1.649448 1_555
O9 Si2 1.604032 1_455
O10 Si1 1.626872 1_655
O10 Si11 1.656260 1_555
O11 Si2 1.600452 1_555
O12 Si3 1.589982 1_545
O13 Si0 1.618331 1_545
O13 Si12 1.672585 1_555
O14 Si1 1.628957 1_655
O14 Si2 1.673437 1_555
O15 Si0 1.633995 1_545
O15 Si3 1.655314 1_545
O16 Si4 1.600942 1_555
O16 Si1 1.642591 1_555
O17 Si7 1.608497 1_565
O17 Si3 1.653442 1_555
O18 Si5 1.600388 1_555
O18 Si2 1.679807 1_555
O19 Si6 1.606647 1_565
O19 Si0 1.639577 1_555
O20 Si6 1.703093 1_565
O20 Si4 1.705177 1_555
O21 Si4 1.704570 1_655
O21 Si7 1.708303 1_565
O22 Si6 1.706372 1_555
O22 Si5 1.718509 1_455
O23 Si7 1.714928 1_555
O23 Si5 1.727629 1_555
O24 Si6 1.574973 1_555
O25 Si4 1.572608 1_655
O26 Si7 1.577245 1_555
O27 Si5 1.570335 1_555
O38 Si9 1.640879 1_556
O42 Si8 1.645950 1_556
O43 Si10 1.667684 1_556
O44 Si11 1.668654 1_556
O45 Si12 1.684886 1_556
O46 Si8 1.623771 1_555
O46 Si10 1.650377 1_555
O47 Si11 1.581676 1_556
