# generated using pymatgen
data_Li6Mn5Fe(BO3)6
_symmetry_space_group_name_H-M   'P 1'
_cell_length_a   3.18374000
_cell_length_b   8.27155300
_cell_length_c   14.33027345
_cell_angle_alpha   89.90086775
_cell_angle_beta   90.00000000
_cell_angle_gamma   90.00000000
_symmetry_Int_Tables_number   1
_chemical_formula_structural   Li6Mn5Fe(BO3)6
_chemical_formula_sum   'Li6 Mn5 Fe1 B6 O18'
_cell_volume   377.37965083
_cell_formula_units_Z   1
loop_
 _symmetry_equiv_pos_site_id
 _symmetry_equiv_pos_as_xyz
  1  'x, y, z'
loop_
 _atom_site_type_symbol
 _atom_site_label
 _atom_site_symmetry_multiplicity
 _atom_site_fract_x
 _atom_site_fract_y
 _atom_site_fract_z
 _atom_site_occupancy
  Li  Li0  1  0.50000000  0.70737000  0.99036700  1
  Li  Li1  1  0.50000000  0.65939300  0.35820800  1
  Li  Li2  1  0.50000000  0.63354500  0.65102500  1
  Li  Li3  1  0.50000000  0.20707200  0.49177200  1
  Li  Li4  1  0.50000000  0.15853200  0.85731300  1
  Li  Li5  1  0.50000000  0.13286400  0.15043200  1
  Mn  Mn0  1  0.00000000  0.86501600  0.50627400  1
  Mn  Mn1  1  0.00000000  0.80800500  0.17997000  1
  Mn  Mn2  1  0.00000000  0.36592400  0.00558200  1
  Mn  Mn3  1  0.00000000  0.32640300  0.31469500  1
  Mn  Mn4  1  0.00000000  0.30841000  0.67979300  1
  Fe  Fe0  1  0.00000000  0.82473400  0.81672800  1
  B  B0  1  0.50000000  0.99829300  0.66776300  1
  B  B1  1  0.00000000  0.00043700  0.99900300  1
  B  B2  1  0.50000000  0.99998000  0.33337000  1
  B  B3  1  0.50000000  0.50007000  0.16647500  1
  B  B4  1  0.00000000  0.50003900  0.50010900  1
  B  B5  1  0.50000000  0.50217300  0.83325600  1
  O  O0  1  0.50000000  0.98945400  0.43001900  1
  O  O1  1  0.50000000  0.98184500  0.76430400  1
  O  O2  1  0.50000000  0.86136400  0.61113100  1
  O  O3  1  0.50000000  0.86012700  0.27971000  1
  O  O4  1  0.00000000  0.84659700  0.95840000  1
  O  O5  1  0.50000000  0.65258000  0.12490800  1
  O  O6  1  0.50000000  0.65362100  0.79087500  1
  O  O7  1  0.00000000  0.63577900  0.44219500  1
  O  O8  1  0.00000000  0.51881700  0.59678600  1
  O  O9  1  0.50000000  0.49007800  0.92997500  1
  O  O10  1  0.50000000  0.48620100  0.26332400  1
  O  O11  1  0.50000000  0.36183100  0.11117100  1
  O  O12  1  0.50000000  0.36259200  0.77944600  1
  O  O13  1  0.00000000  0.34542200  0.46119200  1
  O  O14  1  0.50000000  0.15141600  0.62658700  1
  O  O15  1  0.50000000  0.15036900  0.29003900  1
  O  O16  1  0.00000000  0.13673800  0.94204400  1
  O  O17  1  0.00000000  0.01690800  0.09576300  1
loop_
_geom_bond_atom_site_label_1
_geom_bond_atom_site_label_2
_geom_bond_distance
_geom_bond_site_symmetry_2
Li0 O5 1.979794 1_556
Li0 O9 1.996196 1_555
Li0 O4 2.017006 1_655
Li0 O4 2.017006 1_555
Li1 O10 1.976818 1_555
Li1 O3 2.003946 1_555
Li1 O7 2.004978 1_655
Li1 O7 2.004978 1_555
Li2 O2 1.968281 1_555
Li2 O8 2.010297 1_655
Li2 O8 2.010297 1_555
Li2 O6 2.011243 1_555
Li3 O14 1.985253 1_555
Li3 O0 2.007179 1_545
Li3 O13 2.008465 1_655
Li3 O13 2.008465 1_555
Li4 O1 1.979678 1_545
Li4 O16 2.010004 1_555
Li4 O16 2.010004 1_655
Li4 O12 2.021781 1_555
Li5 O11 1.974781 1_555
Li5 O15 2.006089 1_555
Li5 O17 2.017509 1_655
Li5 O17 2.017509 1_555
Mn0 O7 2.108225 1_555
Mn0 O0 2.187172 1_455
Mn0 O0 2.187172 1_555
Mn0 O2 2.189224 1_455
Mn0 O2 2.189224 1_555
Mn1 O17 2.105885 1_565
Mn1 O3 2.182878 1_455
Mn1 O3 2.182878 1_555
Mn1 O5 2.193843 1_455
Mn1 O5 2.193843 1_555
Mn2 O16 2.104468 1_554
Mn2 O9 2.181450 1_454
Mn2 O9 2.181450 1_554
Mn2 O11 2.196486 1_455
Mn2 O11 2.196486 1_555
Mn3 O13 2.105500 1_555
Mn3 O15 2.186509 1_455
Mn3 O15 2.186509 1_555
Mn3 O10 2.195384 1_455
Mn3 O10 2.195384 1_555
Mn4 O8 2.106358 1_555
Mn4 O12 2.185512 1_455
Mn4 O12 2.185512 1_555
Mn4 O14 2.192062 1_555
Mn4 O14 2.192062 1_455
Fe0 O4 2.038548 1_555
Fe0 O6 2.162497 1_455
Fe0 O6 2.162497 1_555
Fe0 O1 2.187209 1_455
Fe0 O1 2.187209 1_555
B0 O1 1.389898 1_555
B0 O2 1.394495 1_555
B0 O14 1.396344 1_565
B1 O16 1.390733 1_555
B1 O17 1.393509 1_556
B1 O4 1.400128 1_545
B2 O0 1.387590 1_555
B2 O15 1.389357 1_565
B2 O3 1.390169 1_555
B3 O11 1.392374 1_555
B3 O10 1.392408 1_555
B3 O5 1.394126 1_555
B4 O8 1.394355 1_555
B4 O7 1.395057 1_555
B4 O13 1.396113 1_555
B5 O9 1.389443 1_555
B5 O12 1.389491 1_555
B5 O6 1.391223 1_555
