# generated using pymatgen
data_Mn2OF3
_symmetry_space_group_name_H-M   'P 1'
_cell_length_a   5.10505606
_cell_length_b   10.47384514
_cell_length_c   6.15454300
_cell_angle_alpha   89.99997977
_cell_angle_beta   90.00026501
_cell_angle_gamma   89.98173264
_symmetry_Int_Tables_number   1
_chemical_formula_structural   Mn2OF3
_chemical_formula_sum   'Mn8 O4 F12'
_cell_volume   329.08073022
_cell_formula_units_Z   4
loop_
 _symmetry_equiv_pos_site_id
 _symmetry_equiv_pos_as_xyz
  1  'x, y, z'
loop_
 _atom_site_type_symbol
 _atom_site_label
 _atom_site_symmetry_multiplicity
 _atom_site_fract_x
 _atom_site_fract_y
 _atom_site_fract_z
 _atom_site_occupancy
  Mn  Mn0  1  0.49993700  0.49996600  0.99994000  1
  Mn  Mn1  1  0.49997800  0.50001200  0.49998000  1
  Mn  Mn2  1  0.48255100  0.23475500  0.74999300  1
  Mn  Mn3  1  0.51747900  0.76522900  0.24999600  1
  Mn  Mn4  1  0.99999500  0.00001700  0.00004100  1
  Mn  Mn5  1  0.00006100  0.99999500  0.50004200  1
  Mn  Mn6  1  0.98277100  0.26517300  0.25001300  1
  Mn  Mn7  1  0.01719000  0.73484600  0.75001000  1
  O  O0  1  0.84357200  0.07471400  0.24995900  1
  O  O1  1  0.34352000  0.42531400  0.74999200  1
  O  O2  1  0.65639500  0.57465700  0.24999600  1
  O  O3  1  0.15646700  0.92529800  0.74996200  1
  F  F0  1  0.75720900  0.08773000  0.75000000  1
  F  F1  1  0.25756100  0.41207900  0.24999900  1
  F  F2  1  0.74244700  0.58791600  0.74999400  1
  F  F3  1  0.24282200  0.91226900  0.24999800  1
  F  F4  1  0.22017600  0.16134100  0.99045200  1
  F  F5  1  0.22018700  0.16135800  0.50957100  1
  F  F6  1  0.71991700  0.33846300  0.49033100  1
  F  F7  1  0.71989900  0.33848800  0.00969000  1
  F  F8  1  0.28009500  0.66153500  0.99029800  1
  F  F9  1  0.28011600  0.66152000  0.50972000  1
  F  F10  1  0.77983800  0.83867300  0.49044100  1
  F  F11  1  0.77981700  0.83865300  0.00958200  1
loop_
_geom_bond_atom_site_label_1
_geom_bond_atom_site_label_2
_geom_bond_distance
_geom_bond_site_symmetry_2
Mn0 O1 1.901523 1_555
Mn0 O2 1.902317 1_556
Mn1 O2 1.901678 1_555
Mn1 O1 1.902134 1_555
Mn2 O1 2.118116 1_555
Mn3 O2 2.118048 1_555
Mn4 O0 1.901377 1_555
Mn4 O3 1.902379 1_644
Mn5 O3 1.901344 1_555
Mn5 O0 1.902428 1_465
Mn6 O0 2.117844 1_555
Mn7 O3 2.117908 1_555
F0 Mn2 2.082301 1_555
F0 Mn5 2.178842 1_645
F0 Mn4 2.178906 1_556
F1 Mn6 2.082494 1_455
F1 Mn1 2.178881 1_555
F1 Mn0 2.178905 1_554
F2 Mn7 2.082519 1_655
F2 Mn1 2.179046 1_555
F2 Mn0 2.179081 1_555
F3 Mn3 2.082414 1_555
F3 Mn4 2.178814 1_465
F3 Mn5 2.178912 1_555
F4 Mn4 2.030561 1_456
F4 Mn2 2.139198 1_555
F4 Mn6 2.280939 1_456
F5 Mn5 2.030735 1_545
F5 Mn2 2.138933 1_555
F5 Mn6 2.280862 1_455
F6 Mn1 2.031254 1_555
F6 Mn6 2.139357 1_555
F6 Mn2 2.281017 1_555
F7 Mn0 2.030718 1_554
F7 Mn6 2.139521 1_555
F7 Mn2 2.281237 1_554
F8 Mn0 2.031154 1_555
F8 Mn7 2.139463 1_555
F8 Mn3 2.281144 1_556
F9 Mn1 2.030696 1_555
F9 Mn7 2.139604 1_555
F9 Mn3 2.281281 1_555
F10 Mn5 2.030665 1_655
F10 Mn3 2.139192 1_555
F10 Mn7 2.280796 1_655
F11 Mn4 2.030893 1_565
F11 Mn3 2.138926 1_555
F11 Mn7 2.280774 1_654
