# generated using pymatgen
data_Na6Ti11O24
_symmetry_space_group_name_H-M   'P 1'
_cell_length_a   6.21517919
_cell_length_b   6.21517919
_cell_length_c   15.08421205
_cell_angle_alpha   88.95224322
_cell_angle_beta   88.95224322
_cell_angle_gamma   58.74314773
_symmetry_Int_Tables_number   1
_chemical_formula_structural   Na6Ti11O24
_chemical_formula_sum   'Na6 Ti11 O24'
_cell_volume   497.99402849
_cell_formula_units_Z   1
loop_
 _symmetry_equiv_pos_site_id
 _symmetry_equiv_pos_as_xyz
  1  'x, y, z'
loop_
 _atom_site_type_symbol
 _atom_site_label
 _atom_site_symmetry_multiplicity
 _atom_site_fract_x
 _atom_site_fract_y
 _atom_site_fract_z
 _atom_site_occupancy
  Na  Na0  1  0.66309800  0.66309800  0.91611600  1
  Na  Na1  1  0.66988900  0.66988900  0.66362900  1
  Na  Na2  1  0.83326400  0.83326400  0.45801400  1
  Na  Na3  1  0.33478900  0.33478900  0.58505500  1
  Na  Na4  1  0.33158700  0.33158700  0.33216800  1
  Na  Na5  1  0.99737000  0.99737000  0.25035700  1
  Ti  Ti0  1  0.16629400  0.66979200  0.79514900  1
  Ti  Ti1  1  0.33461300  0.33461300  0.96177400  1
  Ti  Ti2  1  0.66979200  0.16629400  0.79514900  1
  Ti  Ti3  1  0.33432000  0.83235800  0.45714300  1
  Ti  Ti4  1  0.16393600  0.16393600  0.79565000  1
  Ti  Ti5  1  0.00166700  0.00166700  0.61965700  1
  Ti  Ti6  1  0.83235800  0.33432000  0.45714300  1
  Ti  Ti7  1  0.66674700  0.66674700  0.29410000  1
  Ti  Ti8  1  0.00058100  0.49788400  0.12138400  1
  Ti  Ti9  1  0.50042300  0.50042300  0.12209000  1
  Ti  Ti10  1  0.49788400  0.00058100  0.12138400  1
  O  O0  1  0.86282500  0.86282500  0.71563100  1
  O  O1  1  0.28926900  0.86142500  0.72162100  1
  O  O2  1  0.47443000  0.47443000  0.86876500  1
  O  O3  1  0.05083500  0.47746700  0.86972600  1
  O  O4  1  0.47746700  0.05083500  0.86972600  1
  O  O5  1  0.33424500  0.33424500  0.72982700  1
  O  O6  1  0.16986400  0.72616800  0.54820800  1
  O  O7  1  0.49574700  0.94035700  0.36854300  1
  O  O8  1  0.86142500  0.28926900  0.72162100  1
  O  O9  1  0.64794200  0.64794200  0.52067300  1
  O  O10  1  0.99800200  0.99800200  0.85953200  1
  O  O11  1  0.94035700  0.49574700  0.36854300  1
  O  O12  1  0.51725200  0.51725200  0.38113100  1
  O  O13  1  0.38026400  0.80415200  0.19630300  1
  O  O14  1  0.72616800  0.16986400  0.54820800  1
  O  O15  1  0.80370400  0.80370400  0.20213100  1
  O  O16  1  0.14864500  0.14864500  0.53597600  1
  O  O17  1  0.80415200  0.38026400  0.19630300  1
  O  O18  1  0.66904200  0.66904200  0.05848100  1
  O  O19  1  0.01829400  0.01829400  0.39511900  1
  O  O20  1  0.18936300  0.61676600  0.04630100  1
  O  O21  1  0.33295900  0.33295900  0.18743900  1
  O  O22  1  0.61676600  0.18936300  0.04630100  1
  O  O23  1  0.19237100  0.19237100  0.04792600  1
loop_
_geom_bond_atom_site_label_1
_geom_bond_atom_site_label_2
_geom_bond_distance
_geom_bond_site_symmetry_2
Na0 O18 2.149779 1_556
Na0 O3 2.170421 1_655
Na0 O4 2.170421 1_565
Na0 O2 2.179067 1_555
Na1 O9 2.174397 1_555
Na1 O1 2.195105 1_555
Na1 O8 2.195105 1_555
Na1 O0 2.247695 1_555
Na2 O19 2.199468 1_665
Na2 O9 2.200859 1_555
Na2 O7 2.299268 1_555
Na2 O11 2.299268 1_555
Na2 O14 2.301417 1_565
Na2 O6 2.301417 1_655
Na3 O14 2.158820 1_555
Na3 O6 2.158820 1_555
Na3 O16 2.162551 1_555
Na3 O5 2.183656 1_555
Na4 O7 2.156776 1_545
Na4 O11 2.156776 1_455
Na4 O12 2.157042 1_555
Na4 O21 2.182862 1_555
Na5 O13 2.183878 1_655
Na5 O17 2.183878 1_565
Na5 O19 2.200078 1_665
Na5 O15 2.234811 1_555
O0 Ti0 2.029127 1_655
O0 Ti2 2.029127 1_565
O0 Ti5 2.065547 1_665
O1 Ti4 1.978343 1_565
O1 Ti0 2.024410 1_555
O1 Ti5 2.180628 1_565
O2 Ti0 1.997596 1_555
O2 Ti2 1.997596 1_555
O2 Ti1 2.042809 1_555
O3 Ti0 2.005169 1_555
O3 Ti4 2.041888 1_555
O3 Ti1 2.060657 1_555
O4 Ti2 2.005169 1_555
O4 Ti4 2.041888 1_555
O4 Ti1 2.060657 1_555
O5 Ti0 2.046501 1_555
O5 Ti2 2.046501 1_555
O5 Ti4 2.076662 1_555
O6 Ti5 1.831663 1_565
O6 Ti3 1.995689 1_555
O7 Ti7 1.852817 1_555
O7 Ti3 1.964768 1_555
O8 Ti4 1.978343 1_655
O8 Ti2 2.024410 1_555
O8 Ti5 2.180628 1_655
O9 Ti6 1.934208 1_555
O9 Ti3 1.934208 1_555
O10 Ti0 2.004854 1_655
O10 Ti2 2.004854 1_565
O10 Ti4 2.021585 1_665
O11 Ti7 1.852817 1_555
O11 Ti6 1.964768 1_555
O12 Ti3 2.041209 1_555
O12 Ti6 2.041209 1_555
O12 Ti7 2.063176 1_555
O13 Ti9 1.989502 1_555
O13 Ti10 2.036532 1_565
O13 Ti7 2.132566 1_555
O14 Ti5 1.831663 1_655
O14 Ti6 1.995689 1_555
O15 Ti7 2.009779 1_555
O15 Ti8 2.051862 1_655
O15 Ti10 2.051862 1_565
O16 Ti5 2.010941 1_555
O16 Ti3 2.071522 1_545
O16 Ti6 2.071522 1_455
O17 Ti9 1.989502 1_555
O17 Ti8 2.036532 1_655
O17 Ti7 2.132566 1_555
O18 Ti10 2.009412 1_565
O18 Ti8 2.009412 1_655
O18 Ti9 2.045344 1_555
O19 Ti6 1.934127 1_455
O19 Ti3 1.934127 1_545
O20 Ti1 1.978051 1_554
O20 Ti8 2.006431 1_555
O20 Ti9 2.041398 1_555
O21 Ti8 2.037510 1_555
O21 Ti10 2.037510 1_555
O21 Ti9 2.046324 1_555
O22 Ti1 1.978051 1_554
O22 Ti10 2.006431 1_555
O22 Ti9 2.041398 1_555
O23 Ti8 1.983424 1_555
O23 Ti10 1.983424 1_555
O23 Ti1 1.994730 1_554
