# generated using pymatgen
data_Li2VCr(P2O7)2
_symmetry_space_group_name_H-M   'P 1'
_cell_length_a   8.22518900
_cell_length_b   7.14760300
_cell_length_c   9.73450856
_cell_angle_alpha   68.61791570
_cell_angle_beta   90.00000000
_cell_angle_gamma   90.00000000
_symmetry_Int_Tables_number   1
_chemical_formula_structural   Li2VCr(P2O7)2
_chemical_formula_sum   'Li4 V2 Cr2 P8 O28'
_cell_volume   532.90433300
_cell_formula_units_Z   2
loop_
 _symmetry_equiv_pos_site_id
 _symmetry_equiv_pos_as_xyz
  1  'x, y, z'
loop_
 _atom_site_type_symbol
 _atom_site_label
 _atom_site_symmetry_multiplicity
 _atom_site_fract_x
 _atom_site_fract_y
 _atom_site_fract_z
 _atom_site_occupancy
  Li  Li0  1  0.63733500  0.67666900  0.49965100  1
  Li  Li1  1  0.13733500  0.32333100  0.50034900  1
  Li  Li2  1  0.63732800  0.67577100  0.00116700  1
  Li  Li3  1  0.13732800  0.32422900  0.99883300  1
  V  V0  1  0.00068400  0.72918300  0.49332500  1
  V  V1  1  0.50068400  0.27081700  0.50667500  1
  Cr  Cr0  1  0.99992900  0.72761000  0.99355000  1
  Cr  Cr1  1  0.49992900  0.27239000  0.00645000  1
  P  P0  1  0.21540300  0.91343400  0.68790400  1
  P  P1  1  0.32022100  0.52140200  0.68971400  1
  P  P2  1  0.82022100  0.47859800  0.31028600  1
  P  P3  1  0.21686900  0.91493000  0.18522000  1
  P  P4  1  0.71540300  0.08656600  0.31209600  1
  P  P5  1  0.31939800  0.52310900  0.18798600  1
  P  P6  1  0.81939800  0.47689100  0.81201400  1
  P  P7  1  0.71686900  0.08507000  0.81478000  1
  O  O0  1  0.34765500  0.75315200  0.67086300  1
  O  O1  1  0.06503000  0.91679700  0.59295500  1
  O  O2  1  0.82033400  0.60546900  0.64687100  1
  O  O3  1  0.15601200  0.50503600  0.62134500  1
  O  O4  1  0.46284800  0.48179500  0.60226000  1
  O  O5  1  0.67756800  0.14651900  0.65153600  1
  O  O6  1  0.30321600  0.11463100  0.62732500  1
  O  O7  1  0.80321600  0.88536900  0.37267500  1
  O  O8  1  0.17756800  0.85348100  0.34846400  1
  O  O9  1  0.96284800  0.51820500  0.39774000  1
  O  O10  1  0.65601200  0.49496400  0.37865500  1
  O  O11  1  0.32033400  0.39453100  0.35312900  1
  O  O12  1  0.56503000  0.08320300  0.40704500  1
  O  O13  1  0.84765500  0.24684800  0.32913700  1
  O  O14  1  0.34877500  0.75367300  0.17011500  1
  O  O15  1  0.06653100  0.91728800  0.09161600  1
  O  O16  1  0.82187100  0.60676100  0.14537800  1
  O  O17  1  0.15379500  0.50958100  0.11910700  1
  O  O18  1  0.46174400  0.48160900  0.10179800  1
  O  O19  1  0.67542000  0.14741200  0.14944300  1
  O  O20  1  0.30645400  0.11650000  0.12568200  1
  O  O21  1  0.80645400  0.88350000  0.87431800  1
  O  O22  1  0.17542000  0.85258800  0.85055700  1
  O  O23  1  0.96174400  0.51839100  0.89820200  1
  O  O24  1  0.65379500  0.49041900  0.88089300  1
  O  O25  1  0.32187100  0.39323900  0.85462200  1
  O  O26  1  0.56653100  0.08271200  0.90838400  1
  O  O27  1  0.84877500  0.24632700  0.82988500  1
loop_
_geom_bond_atom_site_label_1
_geom_bond_atom_site_label_2
_geom_bond_distance
_geom_bond_site_symmetry_2
Li0 O4 1.995772 1_555
Li0 O2 2.011625 1_555
Li0 O10 2.052582 1_555
Li0 O7 2.066430 1_555
Li1 O9 1.995772 1_455
Li1 O11 2.011625 1_555
Li1 O3 2.052582 1_555
Li1 O6 2.066430 1_555
Li2 O18 1.995001 1_555
Li2 O16 2.003281 1_555
Li2 O24 2.067684 1_554
Li2 O21 2.080279 1_554
Li3 O23 1.995001 1_455
Li3 O25 2.003281 1_555
Li3 O17 2.067684 1_556
Li3 O20 2.080279 1_556
Cr0 O22 1.977980 1_655
Cr0 O15 1.998289 1_656
Cr0 O17 2.033530 1_656
Cr0 O16 2.035820 1_556
Cr0 O21 2.044045 1_555
Cr0 O23 2.051459 1_555
Cr1 O19 1.977980 1_555
Cr1 O26 1.998289 1_554
Cr1 O24 2.033530 1_554
Cr1 O25 2.035820 1_554
Cr1 O20 2.044045 1_555
Cr1 O18 2.051459 1_555
O0 P1 1.614558 1_555
O0 P0 1.631524 1_555
O1 P0 1.538981 1_555
O1 V0 1.991810 1_555
O2 P6 1.533529 1_555
O2 V0 2.062231 1_655
O3 P1 1.528937 1_555
O3 V0 2.072736 1_555
O4 P1 1.535210 1_555
O4 V1 2.063925 1_555
O5 P7 1.521090 1_555
O5 V1 1.995260 1_555
O6 P0 1.522871 1_545
O6 V1 2.075489 1_555
O7 P4 1.522871 1_565
O7 V0 2.075489 1_655
O8 P3 1.521090 1_555
O8 V0 1.995260 1_555
O9 P2 1.535210 1_555
O9 V0 2.063925 1_655
O10 P2 1.528937 1_555
O10 V1 2.072736 1_555
O11 P5 1.533529 1_555
O11 V1 2.062231 1_555
O12 P4 1.538981 1_555
O12 V1 1.991810 1_555
O13 P2 1.614558 1_555
O13 P4 1.631524 1_555
O14 P5 1.611037 1_555
O14 P3 1.628130 1_555
O15 P3 1.532458 1_555
O16 P2 1.531029 1_555
O17 P5 1.536736 1_555
O18 P5 1.531077 1_555
O19 P4 1.517291 1_555
O20 P3 1.531577 1_545
O21 P7 1.531577 1_565
O22 P0 1.517291 1_555
O23 P6 1.531077 1_555
O24 P6 1.536736 1_555
O25 P1 1.531029 1_555
O26 P7 1.532458 1_555
O27 P6 1.611037 1_555
O27 P7 1.628130 1_555
