# generated using pymatgen
data_Ca2MgB2H16(CO9)2
_symmetry_space_group_name_H-M   'P 1'
_cell_length_a   6.80007100
_cell_length_b   10.69058100
_cell_length_c   11.49749405
_cell_angle_alpha   60.28234626
_cell_angle_beta   90.00000000
_cell_angle_gamma   90.00000000
_symmetry_Int_Tables_number   1
_chemical_formula_structural   Ca2MgB2H16(CO9)2
_chemical_formula_sum   'Ca4 Mg2 B4 H32 C4 O36'
_cell_volume   725.90063758
_cell_formula_units_Z   2
loop_
 _symmetry_equiv_pos_site_id
 _symmetry_equiv_pos_as_xyz
  1  'x, y, z'
loop_
 _atom_site_type_symbol
 _atom_site_label
 _atom_site_symmetry_multiplicity
 _atom_site_fract_x
 _atom_site_fract_y
 _atom_site_fract_z
 _atom_site_occupancy
  Ca  Ca0  1  0.49920500  0.94175600  0.79528100  1
  Ca  Ca1  1  0.00079500  0.94175600  0.29528100  1
  Ca  Ca2  1  0.50079500  0.05824400  0.20471900  1
  Ca  Ca3  1  0.99920500  0.05824400  0.70471900  1
  Mg  Mg0  1  0.50000000  0.50000000  0.00000000  1
  Mg  Mg1  1  0.00000000  0.50000000  0.50000000  1
  B  B0  1  0.79649400  0.74366400  0.00455900  1
  B  B1  1  0.70350600  0.74366400  0.50455900  1
  B  B2  1  0.20350600  0.25633600  0.99544100  1
  B  B3  1  0.29649400  0.25633600  0.49544100  1
  H  H0  1  0.32946600  0.52284800  0.62316400  1
  H  H1  1  0.17053400  0.52284800  0.12316400  1
  H  H2  1  0.67053400  0.47715200  0.37683600  1
  H  H3  1  0.82946600  0.47715200  0.87683600  1
  H  H4  1  0.38653200  0.23890600  0.67156600  1
  H  H5  1  0.11346800  0.23890600  0.17156600  1
  H  H6  1  0.61346800  0.76109400  0.32843400  1
  H  H7  1  0.88653200  0.76109400  0.82843400  1
  H  H8  1  0.03631000  0.29400700  0.83304300  1
  H  H9  1  0.46369000  0.29400700  0.33304300  1
  H  H10  1  0.96369000  0.70599300  0.16695700  1
  H  H11  1  0.53631000  0.70599300  0.66695700  1
  H  H12  1  0.18257200  0.47986600  0.89751400  1
  H  H13  1  0.31742800  0.47986600  0.39751400  1
  H  H14  1  0.81742800  0.52013400  0.10248600  1
  H  H15  1  0.68257200  0.52013400  0.60248600  1
  H  H16  1  0.43532100  0.22873700  0.89149400  1
  H  H17  1  0.06467900  0.22873700  0.39149400  1
  H  H18  1  0.56467900  0.77126300  0.10850600  1
  H  H19  1  0.93532100  0.77126300  0.60850600  1
  H  H20  1  0.24677000  0.02831900  0.95359500  1
  H  H21  1  0.25323000  0.02831900  0.45359500  1
  H  H22  1  0.75323000  0.97168100  0.04640500  1
  H  H23  1  0.74677000  0.97168100  0.54640500  1
  H  H24  1  0.15556800  0.56829600  0.68075900  1
  H  H25  1  0.34443200  0.56829600  0.18075900  1
  H  H26  1  0.84443200  0.43170400  0.31924100  1
  H  H27  1  0.65556800  0.43170400  0.81924100  1
  H  H28  1  0.13038700  0.88159700  0.98375500  1
  H  H29  1  0.36961300  0.88159700  0.48375500  1
  H  H30  1  0.86961300  0.11840300  0.01624500  1
  H  H31  1  0.63038700  0.11840300  0.51624500  1
  C  C0  1  0.23059900  0.74659000  0.77702700  1
  C  C1  1  0.26940100  0.74659000  0.27702700  1
  C  C2  1  0.76940100  0.25341000  0.22297300  1
  C  C3  1  0.73059900  0.25341000  0.72297300  1
  O  O0  1  0.21080500  0.88482700  0.70689600  1
  O  O1  1  0.28919500  0.88482700  0.20689600  1
  O  O2  1  0.78919500  0.11517300  0.29310400  1
  O  O3  1  0.71080500  0.11517300  0.79310400  1
  O  O4  1  0.39435400  0.69782700  0.84400700  1
  O  O5  1  0.10564600  0.69782700  0.34400700  1
  O  O6  1  0.60564600  0.30217300  0.15599300  1
  O  O7  1  0.89435400  0.30217300  0.65599300  1
  O  O8  1  0.20329100  0.96863200  0.91378200  1
  O  O9  1  0.29670900  0.96863200  0.41378200  1
  O  O10  1  0.79670900  0.03136800  0.08621800  1
  O  O11  1  0.70329100  0.03136800  0.58621800  1
  O  O12  1  0.09245700  0.66145500  0.77901900  1
  O  O13  1  0.40754300  0.66145500  0.27901900  1
  O  O14  1  0.90754300  0.33854500  0.22098100  1
  O  O15  1  0.59245700  0.33854500  0.72098100  1
  O  O16  1  0.72489400  0.59764800  0.04429200  1
  O  O17  1  0.77510600  0.59764800  0.54429200  1
  O  O18  1  0.27510600  0.40235200  0.95570800  1
  O  O19  1  0.22489400  0.40235200  0.45570800  1
  O  O20  1  0.98399500  0.73816700  0.07181000  1
  O  O21  1  0.51600500  0.73816700  0.57181000  1
  O  O22  1  0.01600500  0.26183300  0.92819000  1
  O  O23  1  0.48399500  0.26183300  0.42819000  1
  O  O24  1  0.64135200  0.82812300  0.02595500  1
  O  O25  1  0.85864800  0.82812300  0.52595500  1
  O  O26  1  0.35864800  0.17187700  0.97404500  1
  O  O27  1  0.14135200  0.17187700  0.47404500  1
  O  O28  1  0.31110500  0.50611500  0.14281100  1
  O  O29  1  0.18889500  0.50611500  0.64281100  1
  O  O30  1  0.68889500  0.49388500  0.85718900  1
  O  O31  1  0.81110500  0.49388500  0.35718900  1
  O  O32  1  0.82976600  0.82634500  0.85675100  1
  O  O33  1  0.67023400  0.82634500  0.35675100  1
  O  O34  1  0.17023400  0.17365500  0.14324900  1
  O  O35  1  0.32976600  0.17365500  0.64324900  1
loop_
_geom_bond_atom_site_label_1
_geom_bond_atom_site_label_2
_geom_bond_distance
_geom_bond_site_symmetry_2
Ca0 O3 2.337111 1_565
Ca0 O0 2.421224 1_555
Ca0 O4 2.484773 1_555
Ca0 O32 2.491991 1_555
Ca0 O35 2.496532 1_565
Ca0 O24 2.499955 1_556
Ca0 O11 2.517630 1_565
Ca0 O8 2.525089 1_555
Ca1 O2 2.337111 1_465
Ca1 O1 2.421224 1_555
Ca1 O5 2.484773 1_555
Ca1 O33 2.491991 1_455
Ca1 O34 2.496532 1_565
Ca1 O25 2.499955 1_455
Ca1 O10 2.517630 1_465
Ca1 O9 2.525089 1_555
Ca2 O1 2.337111 1_545
Ca2 O2 2.421224 1_555
Ca2 O6 2.484773 1_555
Ca2 O34 2.491991 1_555
Ca2 O33 2.496532 1_545
Ca2 O26 2.499955 1_554
Ca2 O9 2.517630 1_545
Ca2 O10 2.525089 1_555
Ca3 O0 2.337111 1_645
Ca3 O3 2.421224 1_555
Ca3 O7 2.484773 1_555
Ca3 O35 2.491991 1_655
Ca3 O32 2.496532 1_545
Ca3 O27 2.499955 1_655
Ca3 O8 2.517630 1_645
Ca3 O11 2.525089 1_555
Mg0 O16 2.053022 1_555
Mg0 O18 2.053022 1_554
Mg0 O4 2.108293 1_554
Mg0 O6 2.108293 1_555
Mg0 O30 2.111089 1_554
Mg0 O28 2.111089 1_555
Mg1 O19 2.053022 1_555
Mg1 O17 2.053022 1_455
Mg1 O5 2.108293 1_555
Mg1 O7 2.108293 1_455
Mg1 O29 2.111089 1_555
Mg1 O31 2.111089 1_455
B0 O16 1.474939 1_555
B0 O20 1.477141 1_555
B0 O24 1.486260 1_555
B0 O32 1.493728 1_554
B1 O17 1.474939 1_555
B1 O21 1.477141 1_555
B1 O25 1.486260 1_555
B1 O33 1.493728 1_555
B2 O18 1.474939 1_555
B2 O22 1.477141 1_555
B2 O26 1.486260 1_555
B2 O34 1.493728 1_556
B3 O19 1.474939 1_555
B3 O23 1.477141 1_555
B3 O27 1.486260 1_555
B3 O35 1.493728 1_555
H0 O29 0.978108 1_555
H1 O28 0.978108 1_555
H2 O31 0.978108 1_555
H3 O30 0.978108 1_555
H4 O35 0.983250 1_555
H5 O34 0.983250 1_555
H6 O33 0.983250 1_555
H7 O32 0.983250 1_555
H8 O22 0.980329 1_555
H9 O23 0.980329 1_555
H10 O20 0.980329 1_555
H11 O21 0.980329 1_555
H12 O18 0.990251 1_555
H13 O19 0.990251 1_555
H14 O16 0.990251 1_555
H15 O17 0.990251 1_555
H16 O26 0.984975 1_555
H17 O27 0.984975 1_555
H18 O24 0.984975 1_555
H19 O25 0.984975 1_555
H20 O8 0.996843 1_545
H21 O9 0.996843 1_545
H22 O10 0.996843 1_565
H23 O11 0.996843 1_565
H24 O29 0.985481 1_555
H25 O28 0.985481 1_555
H26 O31 0.985481 1_555
H27 O30 0.985481 1_555
H28 O8 1.008263 1_555
H29 O9 1.008263 1_555
H30 O10 1.008263 1_555
H31 O11 1.008263 1_555
C0 O0 1.292611 1_555
C0 O12 1.300247 1_555
C0 O4 1.306435 1_555
C1 O1 1.292611 1_555
C1 O13 1.300247 1_555
C1 O5 1.306435 1_555
C2 O2 1.292611 1_555
C2 O14 1.300247 1_555
C2 O6 1.306435 1_555
C3 O3 1.292611 1_555
C3 O15 1.300247 1_555
C3 O7 1.306435 1_555
