# generated using pymatgen
data_Ba6YCl15
_symmetry_space_group_name_H-M   'P 1'
_cell_length_a   10.84400259
_cell_length_b   10.84400259
_cell_length_c   31.05594640
_cell_angle_alpha   89.94072469
_cell_angle_beta   89.94072469
_cell_angle_gamma   91.93684700
_symmetry_Int_Tables_number   1
_chemical_formula_structural   Ba6YCl15
_chemical_formula_sum   'Ba24 Y4 Cl60'
_cell_volume   3649.85258294
_cell_formula_units_Z   4
loop_
 _symmetry_equiv_pos_site_id
 _symmetry_equiv_pos_as_xyz
  1  'x, y, z'
loop_
 _atom_site_type_symbol
 _atom_site_label
 _atom_site_symmetry_multiplicity
 _atom_site_fract_x
 _atom_site_fract_y
 _atom_site_fract_z
 _atom_site_occupancy
  Ba  Ba0  1  0.97569200  0.99653200  0.61343700  1
  Ba  Ba1  1  0.99653200  0.97569200  0.11343700  1
  Ba  Ba2  1  0.54709600  0.06031500  0.63772200  1
  Ba  Ba3  1  0.76121200  0.81586200  0.74312600  1
  Ba  Ba4  1  0.06031500  0.54709600  0.13772200  1
  Ba  Ba5  1  0.81586200  0.76121200  0.24312600  1
  Ba  Ba6  1  0.91758500  0.55735300  0.62795800  1
  Ba  Ba7  1  0.67126000  0.77759900  0.52273400  1
  Ba  Ba8  1  0.55735300  0.91758500  0.12795800  1
  Ba  Ba9  1  0.77759900  0.67126000  0.02273400  1
  Ba  Ba10  1  0.45918400  0.60847300  0.64650200  1
  Ba  Ba11  1  0.60847300  0.45918400  0.14650200  1
  Ba  Ba12  1  0.39152700  0.54081600  0.85349800  1
  Ba  Ba13  1  0.54081600  0.39152700  0.35349800  1
  Ba  Ba14  1  0.22240100  0.32874000  0.97726600  1
  Ba  Ba15  1  0.44264700  0.08241500  0.87204200  1
  Ba  Ba16  1  0.32874000  0.22240100  0.47726600  1
  Ba  Ba17  1  0.08241500  0.44264700  0.37204200  1
  Ba  Ba18  1  0.18413800  0.23878800  0.75687400  1
  Ba  Ba19  1  0.93968500  0.45290400  0.86227800  1
  Ba  Ba20  1  0.23878800  0.18413800  0.25687400  1
  Ba  Ba21  1  0.45290400  0.93968500  0.36227800  1
  Ba  Ba22  1  0.00346800  0.02430800  0.88656300  1
  Ba  Ba23  1  0.02430800  0.00346800  0.38656300  1
  Y  Y0  1  0.70356000  0.75210000  0.88657700  1
  Y  Y1  1  0.75210000  0.70356000  0.38657700  1
  Y  Y2  1  0.24790000  0.29644000  0.61342300  1
  Y  Y3  1  0.29644000  0.24790000  0.11342300  1
  Cl  Cl0  1  0.87665600  0.82979400  0.94561800  1
  Cl  Cl1  1  0.82979400  0.87665600  0.44561800  1
  Cl  Cl2  1  0.90278200  0.78405500  0.83137500  1
  Cl  Cl3  1  0.93880400  0.75713100  0.55958700  1
  Cl  Cl4  1  0.78405500  0.90278200  0.33137500  1
  Cl  Cl5  1  0.75713100  0.93880400  0.05958700  1
  Cl  Cl6  1  0.76548500  0.54488300  0.93327500  1
  Cl  Cl7  1  0.50596000  0.84534000  0.70277600  1
  Cl  Cl8  1  0.54488300  0.76548500  0.43327500  1
  Cl  Cl9  1  0.99316800  0.29057500  0.61764200  1
  Cl  Cl10  1  0.84534000  0.50596000  0.20277600  1
  Cl  Cl11  1  0.68052800  0.55207700  0.83086300  1
  Cl  Cl12  1  0.29057500  0.99316800  0.11764200  1
  Cl  Cl13  1  0.45356000  0.83156100  0.58488400  1
  Cl  Cl14  1  0.71112300  0.57352500  0.69701100  1
  Cl  Cl15  1  0.51063700  0.73336000  0.93549100  1
  Cl  Cl16  1  0.96971100  0.26546000  0.93510100  1
  Cl  Cl17  1  0.21364000  0.01307900  0.81819400  1
  Cl  Cl18  1  0.55207700  0.68052800  0.33086300  1
  Cl  Cl19  1  0.83156100  0.45356000  0.08488400  1
  Cl  Cl20  1  0.57352500  0.71112300  0.19701100  1
  Cl  Cl21  1  0.73336000  0.51063700  0.43549100  1
  Cl  Cl22  1  0.26546000  0.96971100  0.43510100  1
  Cl  Cl23  1  0.01307900  0.21364000  0.31819400  1
  Cl  Cl24  1  0.52482200  0.80928500  0.82573800  1
  Cl  Cl25  1  0.66209200  0.55023800  0.58101600  1
  Cl  Cl26  1  0.94371000  0.20825300  0.81102100  1
  Cl  Cl27  1  0.80928500  0.52482200  0.32573800  1
  Cl  Cl28  1  0.55023800  0.66209200  0.08101600  1
  Cl  Cl29  1  0.20825300  0.94371000  0.31102100  1
  Cl  Cl30  1  0.79174700  0.05629000  0.68897900  1
  Cl  Cl31  1  0.44976200  0.33790800  0.91898400  1
  Cl  Cl32  1  0.19071500  0.47517800  0.67426200  1
  Cl  Cl33  1  0.05629000  0.79174700  0.18897900  1
  Cl  Cl34  1  0.33790800  0.44976200  0.41898400  1
  Cl  Cl35  1  0.47517800  0.19071500  0.17426200  1
  Cl  Cl36  1  0.98692100  0.78636000  0.68180600  1
  Cl  Cl37  1  0.73454000  0.03028900  0.56489900  1
  Cl  Cl38  1  0.26664000  0.48936300  0.56450900  1
  Cl  Cl39  1  0.42647500  0.28887700  0.80298900  1
  Cl  Cl40  1  0.16843900  0.54644000  0.91511600  1
  Cl  Cl41  1  0.44792300  0.31947200  0.66913700  1
  Cl  Cl42  1  0.78636000  0.98692100  0.18180600  1
  Cl  Cl43  1  0.03028900  0.73454000  0.06489900  1
  Cl  Cl44  1  0.48936300  0.26664000  0.06450900  1
  Cl  Cl45  1  0.28887700  0.42647500  0.30298900  1
  Cl  Cl46  1  0.54644000  0.16843900  0.41511600  1
  Cl  Cl47  1  0.70942500  0.00683200  0.88235800  1
  Cl  Cl48  1  0.31947200  0.44792300  0.16913700  1
  Cl  Cl49  1  0.15466000  0.49404000  0.79722400  1
  Cl  Cl50  1  0.00683200  0.70942500  0.38235800  1
  Cl  Cl51  1  0.45511700  0.23451500  0.56672500  1
  Cl  Cl52  1  0.49404000  0.15466000  0.29722400  1
  Cl  Cl53  1  0.23451500  0.45511700  0.06672500  1
  Cl  Cl54  1  0.24286900  0.06119600  0.94041300  1
  Cl  Cl55  1  0.21594500  0.09721800  0.66862500  1
  Cl  Cl56  1  0.06119600  0.24286900  0.44041300  1
  Cl  Cl57  1  0.09721800  0.21594500  0.16862500  1
  Cl  Cl58  1  0.17020600  0.12334400  0.55438200  1
  Cl  Cl59  1  0.12334400  0.17020600  0.05438200  1
loop_
_geom_bond_atom_site_label_1
_geom_bond_atom_site_label_2
_geom_bond_distance
_geom_bond_site_symmetry_2
Ba0 Cl37 3.052288 1_565
Ba0 Cl58 3.081318 1_665
Ba0 Cl3 3.104277 1_555
Ba0 Cl36 3.118763 1_555
Ba0 Cl30 3.159658 1_565
Ba0 Cl9 3.190646 1_565
Ba0 Cl55 3.276898 1_665
Ba1 Cl43 3.052288 1_655
Ba1 Cl59 3.081318 1_665
Ba1 Cl5 3.104277 1_555
Ba1 Cl42 3.118763 1_555
Ba1 Cl33 3.159658 1_655
Ba1 Cl12 3.190646 1_655
Ba1 Cl57 3.276898 1_665
Ba2 Cl37 3.064177 1_555
Ba2 Cl51 3.089992 1_555
Ba2 Cl30 3.096878 1_555
Ba2 Cl7 3.103739 1_545
Ba2 Cl13 3.117160 1_545
Ba2 Cl41 3.195930 1_555
Ba2 Cl55 3.750641 1_555
Ba3 Cl14 3.027351 1_555
Ba3 Cl7 3.065972 1_555
Ba3 Cl30 3.109067 1_565
Ba3 Cl36 3.124762 1_555
Ba3 Cl2 3.166939 1_555
Ba3 Cl24 3.623824 1_555
Ba4 Cl43 3.064177 1_555
Ba4 Cl53 3.089992 1_555
Ba4 Cl33 3.096878 1_555
Ba4 Cl10 3.103739 1_455
Ba4 Cl19 3.117160 1_455
Ba4 Cl48 3.195930 1_555
Ba4 Cl57 3.750641 1_555
Ba5 Cl20 3.027351 1_555
Ba5 Cl10 3.065972 1_555
Ba5 Cl33 3.109067 1_655
Ba5 Cl42 3.124762 1_555
Ba5 Cl4 3.166939 1_555
Ba5 Cl27 3.623824 1_555
Ba6 Cl3 3.034880 1_555
Ba6 Cl9 3.050440 1_555
Ba6 Cl36 3.068213 1_555
Ba6 Cl14 3.107990 1_555
Ba6 Cl25 3.130718 1_555
Ba6 Cl32 3.437865 1_655
Ba7 Cl25 3.055900 1_555
Ba7 Cl37 3.094563 1_565
Ba7 Cl8 3.100063 1_555
Ba7 Cl1 3.115482 1_555
Ba7 Cl13 3.118844 1_555
Ba7 Cl3 3.134688 1_555
Ba8 Cl5 3.034880 1_555
Ba8 Cl12 3.050440 1_555
Ba8 Cl42 3.068213 1_555
Ba8 Cl20 3.107990 1_555
Ba8 Cl28 3.130718 1_555
Ba8 Cl35 3.437865 1_565
Ba9 Cl28 3.055900 1_555
Ba9 Cl43 3.094563 1_655
Ba9 Cl6 3.100063 1_554
Ba9 Cl0 3.115482 1_554
Ba9 Cl19 3.118844 1_555
Ba9 Cl5 3.134688 1_555
Ba10 Cl25 3.076304 1_555
Ba10 Cl13 3.085224 1_555
Ba10 Cl7 3.135639 1_555
Ba10 Cl14 3.185238 1_555
Ba10 Cl41 3.209354 1_555
Ba10 Cl32 3.319019 1_555
Ba10 Cl38 3.513879 1_555
Ba11 Cl28 3.076304 1_555
Ba11 Cl19 3.085224 1_555
Ba11 Cl10 3.135639 1_555
Ba11 Cl20 3.185238 1_555
Ba11 Cl48 3.209354 1_555
Ba11 Cl35 3.319019 1_555
Ba11 Cl44 3.513879 1_555
Ba12 Cl31 3.076304 1_555
Ba12 Cl40 3.085224 1_555
Ba12 Cl49 3.135639 1_555
Ba12 Cl39 3.185238 1_555
Ba12 Cl11 3.209354 1_555
Ba12 Cl24 3.319019 1_555
Ba12 Cl15 3.513879 1_555
Ba13 Cl34 3.076304 1_555
Ba13 Cl46 3.085224 1_555
Ba13 Cl52 3.135639 1_555
Ba13 Cl45 3.185238 1_555
Ba13 Cl18 3.209354 1_555
Ba13 Cl27 3.319019 1_555
Ba13 Cl21 3.513879 1_555
Ba14 Cl31 3.055900 1_555
Ba14 Cl16 3.094563 1_455
Ba14 Cl53 3.100063 1_556
Ba14 Cl59 3.115482 1_556
Ba14 Cl40 3.118844 1_555
Ba14 Cl54 3.134688 1_555
Ba15 Cl54 3.034880 1_555
Ba15 Cl47 3.050440 1_555
Ba15 Cl17 3.068213 1_555
Ba15 Cl39 3.107990 1_555
Ba15 Cl31 3.130718 1_555
Ba15 Cl24 3.437865 1_545
Ba16 Cl34 3.055900 1_555
Ba16 Cl22 3.094563 1_545
Ba16 Cl51 3.100063 1_555
Ba16 Cl58 3.115482 1_555
Ba16 Cl46 3.118844 1_555
Ba16 Cl56 3.134688 1_555
Ba17 Cl56 3.034880 1_555
Ba17 Cl50 3.050440 1_555
Ba17 Cl23 3.068213 1_555
Ba17 Cl45 3.107990 1_555
Ba17 Cl34 3.130718 1_555
Ba17 Cl27 3.437865 1_455
Ba18 Cl39 3.027351 1_555
Ba18 Cl49 3.065972 1_555
Ba18 Cl26 3.109067 1_455
Ba18 Cl17 3.124762 1_555
Ba18 Cl55 3.166939 1_555
Ba18 Cl32 3.623824 1_555
Ba19 Cl16 3.064177 1_555
Ba19 Cl6 3.089992 1_555
Ba19 Cl26 3.096878 1_555
Ba19 Cl49 3.103739 1_655
Ba19 Cl40 3.117160 1_655
Ba19 Cl11 3.195930 1_555
Ba19 Cl2 3.750641 1_555
Ba20 Cl45 3.027351 1_555
Ba20 Cl52 3.065972 1_555
Ba20 Cl29 3.109067 1_545
Ba20 Cl23 3.124762 1_555
Ba20 Cl57 3.166939 1_555
Ba20 Cl35 3.623824 1_555
Ba21 Cl22 3.064177 1_555
Ba21 Cl8 3.089992 1_555
Ba21 Cl29 3.096878 1_555
Ba21 Cl52 3.103739 1_565
Ba21 Cl46 3.117160 1_565
Ba21 Cl18 3.195930 1_555
Ba21 Cl4 3.750641 1_555
Ba22 Cl16 3.052288 1_455
Ba22 Cl0 3.081318 1_445
Ba22 Cl54 3.104277 1_555
Ba22 Cl17 3.118763 1_555
Ba22 Cl26 3.159658 1_455
Ba22 Cl47 3.190646 1_455
Ba22 Cl2 3.276898 1_445
Ba23 Cl22 3.052288 1_545
Ba23 Cl1 3.081318 1_445
Ba23 Cl56 3.104277 1_555
Ba23 Cl23 3.118763 1_555
Ba23 Cl29 3.159658 1_545
Ba23 Cl50 3.190646 1_545
Ba23 Cl4 3.276898 1_445
Cl0 Y0 2.738352 1_555
Cl1 Y1 2.738352 1_555
Cl2 Y0 2.768890 1_555
Cl4 Y1 2.768890 1_555
Cl6 Y0 2.775016 1_555
Cl8 Y1 2.775016 1_555
Cl9 Y2 2.763865 1_655
Cl11 Y0 2.780821 1_555
Cl12 Y3 2.763865 1_565
Cl15 Y0 2.586431 1_555
Cl18 Y1 2.780821 1_555
Cl21 Y1 2.586431 1_555
Cl24 Y0 2.792414 1_555
Cl27 Y1 2.792414 1_555
Cl32 Y2 2.792414 1_555
Cl35 Y3 2.792414 1_555
Cl38 Y2 2.586431 1_555
Cl41 Y2 2.780821 1_555
Cl44 Y3 2.586431 1_555
Cl47 Y0 2.763865 1_545
Cl48 Y3 2.780821 1_555
Cl50 Y1 2.763865 1_455
Cl51 Y2 2.775016 1_555
Cl53 Y3 2.775016 1_555
Cl55 Y2 2.768890 1_555
Cl57 Y3 2.768890 1_555
Cl58 Y2 2.738352 1_555
Cl59 Y3 2.738352 1_555
