# generated using pymatgen
data_LiMn2(PO3)5
_symmetry_space_group_name_H-M   'P 1'
_cell_length_a   7.29628020
_cell_length_b   7.29628020
_cell_length_c   12.92298911
_cell_angle_alpha   86.31920290
_cell_angle_beta   86.31920290
_cell_angle_gamma   114.46855648
_symmetry_Int_Tables_number   1
_chemical_formula_structural   LiMn2(PO3)5
_chemical_formula_sum   'Li2 Mn4 P10 O30'
_cell_volume   621.75646624
_cell_formula_units_Z   2
loop_
 _symmetry_equiv_pos_site_id
 _symmetry_equiv_pos_as_xyz
  1  'x, y, z'
loop_
 _atom_site_type_symbol
 _atom_site_label
 _atom_site_symmetry_multiplicity
 _atom_site_fract_x
 _atom_site_fract_y
 _atom_site_fract_z
 _atom_site_occupancy
  Li  Li0  1  0.12295400  0.95572300  0.78780500  1
  Li  Li1  1  0.95572300  0.12295400  0.28780500  1
  Mn  Mn0  1  0.77959600  0.31124400  0.76332900  1
  Mn  Mn1  1  0.31124400  0.77959600  0.26332900  1
  Mn  Mn2  1  0.21233000  0.27849800  0.59051100  1
  Mn  Mn3  1  0.27849800  0.21233000  0.09051100  1
  P  P0  1  0.35669900  0.97946100  0.50329800  1
  P  P1  1  0.68605200  0.60013100  0.56156600  1
  P  P2  1  0.61927400  0.84036000  0.83986400  1
  P  P3  1  0.97946100  0.35669900  0.00329800  1
  P  P4  1  0.60013100  0.68605200  0.06156600  1
  P  P5  1  0.84036000  0.61927400  0.33986400  1
  P  P6  1  0.80535000  0.06646400  0.53416600  1
  P  P7  1  0.06646400  0.80535000  0.03416600  1
  P  P8  1  0.23875400  0.45416300  0.80631100  1
  P  P9  1  0.45416300  0.23875400  0.30631100  1
  O  O0  1  0.82458900  0.85015800  0.81556700  1
  O  O1  1  0.85015900  0.82458900  0.31556700  1
  O  O2  1  0.73442200  0.51154700  0.65767400  1
  O  O3  1  0.51154700  0.73442200  0.15767400  1
  O  O4  1  0.78119300  0.84086400  0.56142100  1
  O  O5  1  0.84086400  0.78119300  0.06142100  1
  O  O6  1  0.55721700  0.80864300  0.96494400  1
  O  O7  1  0.80864300  0.55721700  0.46494400  1
  O  O8  1  0.56625200  0.00770600  0.79715000  1
  O  O9  1  0.00770600  0.56625200  0.29715000  1
  O  O10  1  0.80061600  0.29652000  0.94214100  1
  O  O11  1  0.29652000  0.80061600  0.44214100  1
  O  O12  1  0.16183600  0.93321200  0.93427100  1
  O  O13  1  0.46747200  0.53234000  0.54213400  1
  O  O14  1  0.93321200  0.16183600  0.43427100  1
  O  O15  1  0.45790600  0.63037100  0.80128800  1
  O  O16  1  0.53234000  0.46747200  0.04213400  1
  O  O17  1  0.63037100  0.45790600  0.30128800  1
  O  O18  1  0.89685900  0.18220400  0.62647700  1
  O  O19  1  0.18220400  0.89685900  0.12647700  1
  O  O20  1  0.58265500  0.05289300  0.53702500  1
  O  O21  1  0.05289300  0.58265500  0.03702500  1
  O  O22  1  0.08908300  0.52838700  0.76702500  1
  O  O23  1  0.52838700  0.08908300  0.26702500  1
  O  O24  1  0.18007600  0.37793500  0.92929700  1
  O  O25  1  0.37793500  0.18007600  0.42929700  1
  O  O26  1  0.25476600  0.28026400  0.75407200  1
  O  O27  1  0.28026400  0.25476600  0.25407200  1
  O  O28  1  0.23074400  0.98900000  0.59846300  1
  O  O29  1  0.98900000  0.23074400  0.09846300  1
loop_
_geom_bond_atom_site_label_1
_geom_bond_atom_site_label_2
_geom_bond_distance
_geom_bond_site_symmetry_2
Li0 O12 1.938478 1_555
Li0 O0 1.984020 1_455
Li0 O26 2.156209 1_565
Li0 O28 2.486581 1_555
Li1 O14 1.938478 1_555
Li1 O1 1.984021 1_545
Li1 O27 2.156209 1_655
Li1 O29 2.486581 1_555
Mn0 O2 2.075907 1_555
Mn0 O8 2.109863 1_555
Mn0 O22 2.161334 1_655
Mn0 O10 2.324236 1_555
Mn0 O18 2.330881 1_555
Mn1 O3 2.075907 1_555
Mn1 O9 2.109863 1_555
Mn1 O23 2.161334 1_565
Mn1 O11 2.324236 1_555
Mn1 O19 2.330881 1_555
Mn2 O13 2.032826 1_555
Mn2 O18 2.118685 1_455
Mn2 O26 2.155915 1_555
Mn2 O28 2.167773 1_545
Mn3 O16 2.032826 1_555
Mn3 O19 2.118685 1_545
Mn3 O27 2.155915 1_555
Mn3 O29 2.167773 1_455
O0 P2 1.481831 1_555
O1 P5 1.481828 1_555
O2 P1 1.492327 1_555
O3 P4 1.492327 1_555
O4 P6 1.594311 1_565
O4 P1 1.598870 1_555
O5 P7 1.594311 1_655
O5 P4 1.598870 1_555
O6 P4 1.611214 1_556
O6 P2 1.625590 1_555
O7 P1 1.611214 1_555
O7 P5 1.625590 1_555
O8 P2 1.509102 1_545
O9 P5 1.509102 1_455
O10 P3 1.490814 1_556
O11 P0 1.490814 1_555
O12 P7 1.487731 1_556
O13 P1 1.505017 1_555
O14 P6 1.487731 1_555
O15 P8 1.576994 1_555
O15 P2 1.631347 1_555
O16 P4 1.505017 1_555
O17 P9 1.576994 1_555
O17 P5 1.631347 1_555
O18 P6 1.531847 1_555
O19 P7 1.531847 1_555
O20 P6 1.584246 1_555
O20 P0 1.607968 1_545
O21 P7 1.584246 1_555
O21 P3 1.607968 1_455
O22 P8 1.506449 1_555
O23 P9 1.506449 1_555
O24 P8 1.618808 1_555
O24 P3 1.641481 1_456
O25 P9 1.618808 1_555
O25 P0 1.641481 1_545
O26 P8 1.517210 1_555
O27 P9 1.517210 1_555
O28 P0 1.510205 1_555
O29 P3 1.510205 1_555
