# generated using pymatgen
data_Mn6O7F5
_symmetry_space_group_name_H-M   'P 1'
_cell_length_a   4.56826600
_cell_length_b   5.64294317
_cell_length_c   15.31514735
_cell_angle_alpha   89.73849733
_cell_angle_beta   89.85914675
_cell_angle_gamma   89.17274305
_symmetry_Int_Tables_number   1
_chemical_formula_structural   Mn6O7F5
_chemical_formula_sum   'Mn12 O14 F10'
_cell_volume   394.75460438
_cell_formula_units_Z   2
loop_
 _symmetry_equiv_pos_site_id
 _symmetry_equiv_pos_as_xyz
  1  'x, y, z'
loop_
 _atom_site_type_symbol
 _atom_site_label
 _atom_site_symmetry_multiplicity
 _atom_site_fract_x
 _atom_site_fract_y
 _atom_site_fract_z
 _atom_site_occupancy
  Mn  Mn0  1  0.00446600  0.84458200  0.59239200  1
  Mn  Mn1  1  0.02082400  0.16434600  0.75034800  1
  Mn  Mn2  1  0.01721100  0.82271400  0.92378300  1
  Mn  Mn3  1  0.02734500  0.84224700  0.25660900  1
  Mn  Mn4  1  0.00215000  0.15344400  0.42468100  1
  Mn  Mn5  1  0.01214900  0.15348100  0.09059500  1
  Mn  Mn6  1  0.51223400  0.64936400  0.40872200  1
  Mn  Mn7  1  0.49699300  0.65403200  0.08300200  1
  Mn  Mn8  1  0.49632300  0.63497200  0.74308300  1
  Mn  Mn9  1  0.52452000  0.37773700  0.90944500  1
  Mn  Mn10  1  0.49434000  0.35174700  0.57941600  1
  Mn  Mn11  1  0.50356000  0.36121200  0.24052100  1
  O  O0  1  0.22756500  0.88543300  0.69796200  1
  O  O1  1  0.22031000  0.88229500  0.36515600  1
  O  O2  1  0.21934700  0.88862600  0.03380600  1
  O  O3  1  0.21261600  0.11367300  0.53353800  1
  O  O4  1  0.23662800  0.11361200  0.19807100  1
  O  O5  1  0.28808700  0.60223000  0.85280200  1
  O  O6  1  0.27278200  0.39878800  0.68790800  1
  O  O7  1  0.27726900  0.60256500  0.18898700  1
  O  O8  1  0.72271000  0.62379100  0.97466700  1
  O  O9  1  0.74006200  0.39188300  0.80203700  1
  O  O10  1  0.71888400  0.61554400  0.63761800  1
  O  O11  1  0.71452800  0.38119000  0.46986700  1
  O  O12  1  0.71999500  0.37937600  0.13620900  1
  O  O13  1  0.73123700  0.60890900  0.30249000  1
  F  F0  1  0.24687400  0.10724300  0.86704900  1
  F  F1  1  0.25194700  0.61786300  0.51323200  1
  F  F2  1  0.26221200  0.37810300  0.34743300  1
  F  F3  1  0.25804300  0.38277600  0.01323100  1
  F  F4  1  0.76606200  0.88345100  0.80745800  1
  F  F5  1  0.75542300  0.87913600  0.48529600  1
  F  F6  1  0.74946000  0.11310800  0.64651200  1
  F  F7  1  0.76463200  0.13445900  0.97280800  1
  F  F8  1  0.77579600  0.88064100  0.15211600  1
  F  F9  1  0.75541800  0.12542700  0.31115300  1
loop_
_geom_bond_atom_site_label_1
_geom_bond_atom_site_label_2
_geom_bond_distance
_geom_bond_site_symmetry_2
Mn0 O0 1.929833 1_555
Mn0 O10 1.971870 1_455
Mn0 O3 2.011803 1_565
Mn1 O9 1.969024 1_455
Mn1 O0 1.994411 1_545
Mn1 O6 2.004116 1_555
Mn2 O8 1.925563 1_455
Mn2 O2 1.963059 1_556
Mn2 O5 2.054812 1_555
Mn3 O1 1.899512 1_555
Mn3 O4 2.021929 1_565
Mn3 O13 2.023757 1_455
Mn3 O7 2.041506 1_555
Mn4 O3 1.937122 1_555
Mn4 O11 1.952395 1_455
Mn4 O1 2.032163 1_545
Mn5 O4 1.951879 1_555
Mn5 O12 1.961782 1_455
Mn5 O2 1.962918 1_545
Mn6 O13 1.920633 1_555
Mn6 O1 1.974102 1_555
Mn6 O11 1.992972 1_555
Mn7 O7 1.929425 1_555
Mn7 O8 1.958133 1_554
Mn7 O2 1.968750 1_555
Mn7 O12 2.012681 1_555
Mn8 O6 1.893936 1_555
Mn8 O10 1.909180 1_555
Mn8 O5 1.938315 1_555
Mn8 O9 1.971347 1_555
Mn8 O0 1.981815 1_555
Mn9 O5 1.865206 1_555
Mn9 O9 1.917015 1_555
Mn9 O8 1.949036 1_555
Mn10 O6 1.960536 1_555
Mn10 O11 1.961696 1_555
Mn10 O3 2.004456 1_555
Mn10 O10 2.030607 1_555
Mn11 O7 1.870829 1_555
Mn11 O12 1.879878 1_555
Mn11 O4 1.980701 1_555
Mn11 O13 1.998781 1_555
F0 Mn1 2.087783 1_555
F0 Mn9 2.104560 1_555
F0 Mn2 2.113060 1_545
F1 Mn6 2.000372 1_555
F1 Mn0 2.085754 1_555
F1 Mn10 2.110027 1_555
F2 Mn11 1.973623 1_555
F2 Mn4 2.107394 1_555
F2 Mn6 2.144191 1_555
F3 Mn9 1.999781 1_554
F3 Mn5 2.088367 1_555
F3 Mn7 2.178364 1_555
F4 Mn8 2.127194 1_555
F4 Mn2 2.144945 1_655
F4 Mn1 2.160453 1_665
F5 Mn0 2.005603 1_655
F5 Mn6 2.086280 1_555
F5 Mn4 2.135487 1_665
F6 Mn1 2.042924 1_655
F6 Mn10 2.043419 1_555
F6 Mn0 2.072652 1_645
F7 Mn9 1.994759 1_555
F7 Mn5 2.135300 1_656
F7 Mn2 2.222370 1_645
F8 Mn3 1.981716 1_655
F8 Mn7 2.108025 1_555
F8 Mn5 2.110388 1_665
F9 Mn11 2.052559 1_555
F9 Mn4 2.082257 1_655
F9 Mn3 2.178124 1_645
