# generated using pymatgen
data_Mg2PHO5
_symmetry_space_group_name_H-M   'P 1'
_cell_length_a   11.69062368
_cell_length_b   11.69062368
_cell_length_c   4.87253300
_cell_angle_alpha   90.00000000
_cell_angle_beta   90.00000000
_cell_angle_gamma   119.99999819
_symmetry_Int_Tables_number   1
_chemical_formula_structural   Mg2PHO5
_chemical_formula_sum   'Mg12 P6 H6 O30'
_cell_volume   576.71439329
_cell_formula_units_Z   6
loop_
 _symmetry_equiv_pos_site_id
 _symmetry_equiv_pos_as_xyz
  1  'x, y, z'
loop_
 _atom_site_type_symbol
 _atom_site_label
 _atom_site_symmetry_multiplicity
 _atom_site_fract_x
 _atom_site_fract_y
 _atom_site_fract_z
 _atom_site_occupancy
  Mg  Mg0  1  0.50592400  0.85957600  0.92924100  1
  Mg  Mg1  1  0.35365200  0.49407600  0.92924100  1
  Mg  Mg2  1  0.14042400  0.64634800  0.92924100  1
  Mg  Mg3  1  0.49407600  0.35365200  0.92924100  1
  Mg  Mg4  1  0.85957600  0.50592400  0.92924100  1
  Mg  Mg5  1  0.64634800  0.14042400  0.92924100  1
  Mg  Mg6  1  0.66138700  0.82877900  0.48181200  1
  Mg  Mg7  1  0.16739100  0.33861300  0.48181200  1
  Mg  Mg8  1  0.17122100  0.83260900  0.48181200  1
  Mg  Mg9  1  0.33861300  0.16739100  0.48181200  1
  Mg  Mg10  1  0.82877900  0.66138700  0.48181200  1
  Mg  Mg11  1  0.83260900  0.17122100  0.48181200  1
  P  P0  1  0.33333300  0.66666700  0.42637200  1
  P  P1  1  0.66666700  0.33333300  0.42637200  1
  P  P2  1  0.00000000  0.34900800  0.00920300  1
  P  P3  1  0.34900800  0.00000000  0.00920300  1
  P  P4  1  0.65099200  0.65099200  0.00920300  1
  P  P5  1  0.00000000  0.00000000  0.96874900  1
  H  H0  1  0.00000000  0.50371100  0.46358900  1
  H  H1  1  0.50371100  0.00000000  0.46358900  1
  H  H2  1  0.49628900  0.49628900  0.46358900  1
  H  H3  1  0.00000000  0.10857700  0.84454500  1
  H  H4  1  0.10857700  0.00000000  0.84454500  1
  H  H5  1  0.89142300  0.89142300  0.84454500  1
  O  O0  1  0.00000000  0.76257700  0.67802100  1
  O  O1  1  0.76257700  0.00000000  0.67802100  1
  O  O2  1  0.23742300  0.23742300  0.67802100  1
  O  O3  1  0.47554300  0.76015600  0.31722900  1
  O  O4  1  0.28461300  0.52445700  0.31722900  1
  O  O5  1  0.23984400  0.71538700  0.31722900  1
  O  O6  1  0.52445700  0.28461300  0.31722900  1
  O  O7  1  0.76015600  0.47554300  0.31722900  1
  O  O8  1  0.71538700  0.23984400  0.31722900  1
  O  O9  1  0.00000000  0.26615400  0.26657000  1
  O  O10  1  0.26615400  0.00000000  0.26657000  1
  O  O11  1  0.73384600  0.73384600  0.26657000  1
  O  O12  1  0.60742000  0.73537500  0.84345800  1
  O  O13  1  0.12795500  0.39258000  0.84345800  1
  O  O14  1  0.26462500  0.87204500  0.84345800  1
  O  O15  1  0.39258000  0.12795500  0.84345800  1
  O  O16  1  0.73537500  0.60742000  0.84345800  1
  O  O17  1  0.87204500  0.26462500  0.84345800  1
  O  O18  1  0.00000000  0.47166000  0.13239500  1
  O  O19  1  0.47166000  0.00000000  0.13239500  1
  O  O20  1  0.52834000  0.52834000  0.13239500  1
  O  O21  1  0.33333300  0.66666700  0.74949000  1
  O  O22  1  0.66666700  0.33333300  0.74949000  1
  O  O23  1  0.00000000  0.70922300  0.96366100  1
  O  O24  1  0.70922300  0.00000000  0.96366100  1
  O  O25  1  0.29077700  0.29077700  0.96366100  1
  O  O26  1  0.00000000  0.53530600  0.64921600  1
  O  O27  1  0.53530600  0.00000000  0.64921600  1
  O  O28  1  0.46469400  0.46469400  0.64921600  1
  O  O29  1  0.00000000  0.00000000  0.27977200  1
loop_
_geom_bond_atom_site_label_1
_geom_bond_atom_site_label_2
_geom_bond_distance
_geom_bond_site_symmetry_2
Mg0 O27 2.027501 1_565
Mg0 O24 2.114262 1_565
Mg0 O19 2.119644 1_566
Mg0 O3 2.153640 1_556
Mg0 O21 2.318164 1_555
Mg0 O12 2.326744 1_555
Mg1 O28 2.027501 1_555
Mg1 O25 2.114262 1_555
Mg1 O20 2.119644 1_556
Mg1 O4 2.153640 1_556
Mg1 O21 2.318170 1_555
Mg1 O13 2.326744 1_555
Mg2 O26 2.027501 1_555
Mg2 O23 2.114262 1_555
Mg2 O18 2.119644 1_556
Mg2 O5 2.153640 1_556
Mg2 O21 2.318159 1_555
Mg2 O14 2.326744 1_555
Mg3 O28 2.027501 1_555
Mg3 O25 2.114262 1_555
Mg3 O20 2.119644 1_556
Mg3 O6 2.153640 1_556
Mg3 O22 2.318170 1_555
Mg3 O15 2.326744 1_555
Mg4 O26 2.027501 1_655
Mg4 O23 2.114262 1_655
Mg4 O18 2.119644 1_656
Mg4 O7 2.153640 1_556
Mg4 O22 2.318164 1_555
Mg4 O16 2.326744 1_555
Mg5 O27 2.027501 1_555
Mg5 O24 2.114262 1_555
Mg5 O19 2.119644 1_556
Mg5 O8 2.153640 1_556
Mg5 O22 2.318159 1_555
Mg5 O17 2.326744 1_555
Mg6 O1 1.988019 1_565
Mg6 O11 1.997330 1_555
Mg6 O12 2.001647 1_555
Mg6 O3 2.064957 1_555
Mg7 O2 1.988027 1_555
Mg7 O9 1.997321 1_555
Mg7 O13 2.001642 1_555
Mg7 O4 2.064958 1_555
Mg8 O0 1.988018 1_555
Mg8 O10 1.997322 1_565
Mg8 O14 2.001648 1_555
Mg8 O5 2.064967 1_555
Mg9 O2 1.988027 1_555
Mg9 O10 1.997321 1_555
Mg9 O15 2.001642 1_555
Mg9 O6 2.064958 1_555
Mg10 O0 1.988019 1_655
Mg10 O11 1.997330 1_555
Mg10 O16 2.001647 1_555
Mg10 O7 2.064957 1_555
Mg11 O1 1.988018 1_555
Mg11 O9 1.997322 1_655
Mg11 O17 2.001648 1_555
Mg11 O8 2.064967 1_555
H0 O26 0.976987 1_555
H0 O18 1.656683 1_555
H1 O27 0.976987 1_555
H1 O19 1.656683 1_555
H2 O28 0.976987 1_555
H2 O20 1.656683 1_555
H3 P5 1.406221 1_555
H4 P5 1.406221 1_555
H5 P5 1.406221 1_665
O0 O23 1.525167 1_555
O1 O24 1.525167 1_555
O2 O25 1.525167 1_555
O3 P0 1.557010 1_555
O4 P0 1.557012 1_555
O5 P0 1.557002 1_555
O6 P1 1.557012 1_555
O7 P1 1.557010 1_555
O8 P1 1.557002 1_555
O9 P2 1.584552 1_555
O10 P3 1.584552 1_555
O11 P4 1.584552 1_555
O12 P4 1.545105 1_556
O13 P2 1.545105 1_556
O14 P3 1.545105 1_566
O15 P3 1.545105 1_556
O16 P4 1.545105 1_556
O17 P2 1.545105 1_656
O18 P2 1.554450 1_555
O19 P3 1.554450 1_555
O20 P4 1.554450 1_555
O21 P0 1.574403 1_555
O22 P1 1.574403 1_555
O29 P5 1.515470 1_554
