# generated using pymatgen
data_Tm2P4O13
_symmetry_space_group_name_H-M   'P 1'
_cell_length_a   9.23609799
_cell_length_b   9.23609799
_cell_length_c   8.49770129
_cell_angle_alpha   90.00000000
_cell_angle_beta   90.00000000
_cell_angle_gamma   135.93186486
_symmetry_Int_Tables_number   1
_chemical_formula_structural   Tm2P4O13
_chemical_formula_sum   'Tm4 P8 O26'
_cell_volume   504.17808788
_cell_formula_units_Z   2
loop_
 _symmetry_equiv_pos_site_id
 _symmetry_equiv_pos_as_xyz
  1  'x, y, z'
loop_
 _atom_site_type_symbol
 _atom_site_label
 _atom_site_symmetry_multiplicity
 _atom_site_fract_x
 _atom_site_fract_y
 _atom_site_fract_z
 _atom_site_occupancy
  Tm  Tm0  1  0.89583087  0.60247087  0.35181874  1
  Tm  Tm1  1  0.39752913  0.10416913  0.14818126  1
  Tm  Tm2  1  0.60247087  0.89583087  0.64818126  1
  Tm  Tm3  1  0.10416913  0.39752913  0.85181874  1
  P  P0  1  0.84651944  0.71914905  0.72334427  1
  P  P1  1  0.28085095  0.15348056  0.77665573  1
  P  P2  1  0.41913142  0.09999681  0.50103502  1
  P  P3  1  0.90000319  0.58086858  -0.00103502  1
  P  P4  1  0.09999681  0.41913142  0.49896498  1
  P  P5  1  0.58086858  0.90000319  0.00103502  1
  P  P6  1  0.15348056  0.28085095  0.22334427  1
  P  P7  1  0.71914905  0.84651944  0.27665573  1
  O  O0  1  0.26377365  0.22134812  0.19697447  1
  O  O1  1  0.77865188  0.73622635  0.30302553  1
  O  O2  1  0.08601967  0.91398033  0.75000000  1
  O  O3  1  0.38377144  0.21614207  0.60810708  1
  O  O4  1  0.78385793  0.61622856  0.89189292  1
  O  O5  1  0.40711112  0.17134789  0.89970829  1
  O  O6  1  0.82865211  0.59288888  0.60029171  1
  O  O7  1  0.22412682  0.92977748  0.40258499  1
  O  O8  1  0.07022252  0.77587318  0.09741501  1
  O  O9  1  0.73522127  0.41926686  0.11850444  1
  O  O10  1  0.58073314  0.26477873  0.38149556  1
  O  O11  1  0.97390236  0.51621983  0.89258924  1
  O  O12  1  0.48378017  0.02609764  0.60741076  1
  O  O13  1  0.02609764  0.48378017  0.39258924  1
  O  O14  1  0.51621983  0.97390236  0.10741076  1
  O  O15  1  0.26477873  0.58073314  0.61850444  1
  O  O16  1  0.41926686  0.73522127  0.88149556  1
  O  O17  1  0.77587318  0.07022252  0.90258499  1
  O  O18  1  0.92977748  0.22412682  0.59741501  1
  O  O19  1  0.59288888  0.82865211  0.39970829  1
  O  O20  1  0.17134789  0.40711112  0.10029171  1
  O  O21  1  0.21614207  0.38377144  0.39189292  1
  O  O22  1  0.61622856  0.78385793  0.10810708  1
  O  O23  1  0.91398033  0.08601967  0.25000000  1
  O  O24  1  0.22134812  0.26377365  0.80302553  1
  O  O25  1  0.73622635  0.77865188  0.69697447  1
loop_
_geom_bond_atom_site_label_1
_geom_bond_atom_site_label_2
_geom_bond_distance
_geom_bond_site_symmetry_2
O0 P6 1.481368 1_555
O0 Tm1 2.188775 1_555
O1 P7 1.481368 1_555
O1 Tm0 2.188775 1_555
O2 P1 1.569222 1_565
O2 P0 1.569222 1_455
O3 P1 1.580948 1_555
O3 P2 1.608948 1_555
O4 P0 1.580948 1_555
O4 P3 1.608948 1_556
O5 P1 1.484590 1_555
O5 Tm1 2.184519 1_556
O6 P0 1.484590 1_555
O6 Tm0 2.184519 1_555
O7 P2 1.531801 1_565
O7 Tm0 2.312274 1_455
O7 Tm1 2.475062 1_565
O8 P3 1.531801 1_455
O8 Tm1 2.312274 1_565
O8 Tm0 2.475062 1_455
O9 P3 1.520390 1_555
O9 Tm1 2.284134 1_555
O9 Tm0 2.321096 1_555
O10 P2 1.520390 1_555
O10 Tm0 2.284134 1_555
O10 Tm1 2.321096 1_555
O11 P3 1.491701 1_556
O11 Tm3 2.159796 1_655
O12 P2 1.491701 1_555
O12 Tm2 2.159796 1_545
O13 P4 1.491701 1_555
O13 Tm0 2.159796 1_455
O14 P5 1.491701 1_555
O14 Tm1 2.159796 1_565
O15 P4 1.520390 1_555
O15 Tm2 2.284134 1_555
O15 Tm3 2.321096 1_555
O16 P5 1.520390 1_556
O16 Tm3 2.284134 1_555
O16 Tm2 2.321096 1_555
O17 P5 1.531801 1_546
O17 Tm3 2.312274 1_655
O17 Tm2 2.475062 1_545
O18 P4 1.531801 1_655
O18 Tm2 2.312274 1_545
O18 Tm3 2.475062 1_655
O19 P7 1.484590 1_555
O19 Tm2 2.184519 1_555
O20 P6 1.484590 1_555
O20 Tm3 2.184519 1_554
O21 P6 1.580948 1_555
O21 P4 1.608948 1_555
O22 P7 1.580948 1_555
O22 P5 1.608948 1_555
O23 P7 1.569222 1_545
O23 P6 1.569222 1_655
O24 P1 1.481368 1_555
O24 Tm3 2.188775 1_555
O25 P0 1.481368 1_555
O25 Tm2 2.188775 1_555
