# generated using pymatgen
data_Li2VF5
_symmetry_space_group_name_H-M   'P 1'
_cell_length_a   6.95050700
_cell_length_b   7.48201600
_cell_length_c   7.81795248
_cell_angle_alpha   89.40223473
_cell_angle_beta   90.00000000
_cell_angle_gamma   90.00000000
_symmetry_Int_Tables_number   1
_chemical_formula_structural   Li2VF5
_chemical_formula_sum   'Li8 V4 F20'
_cell_volume   406.54114642
_cell_formula_units_Z   4
loop_
 _symmetry_equiv_pos_site_id
 _symmetry_equiv_pos_as_xyz
  1  'x, y, z'
loop_
 _atom_site_type_symbol
 _atom_site_label
 _atom_site_symmetry_multiplicity
 _atom_site_fract_x
 _atom_site_fract_y
 _atom_site_fract_z
 _atom_site_occupancy
  Li  Li0  1  0.51822200  0.75096700  0.98076300  1
  Li  Li1  1  0.48177800  0.75096700  0.48076300  1
  Li  Li2  1  0.26210900  0.52940800  0.81437900  1
  Li  Li3  1  0.73789100  0.52940800  0.31437900  1
  Li  Li4  1  0.00253800  0.26210400  0.54090200  1
  Li  Li5  1  0.99746200  0.26210400  0.04090200  1
  Li  Li6  1  0.80905800  0.00188900  0.79918500  1
  Li  Li7  1  0.19094200  0.00188900  0.29918500  1
  V  V0  1  0.01236300  0.74300300  0.59640200  1
  V  V1  1  0.98763700  0.74300300  0.09640200  1
  V  V2  1  0.51882500  0.25360100  0.89911300  1
  V  V3  1  0.48117500  0.25360100  0.39911300  1
  F  F0  1  0.54563600  0.99135600  0.88204000  1
  F  F1  1  0.45436400  0.99135600  0.38204000  1
  F  F2  1  0.90409100  0.76407600  0.84392100  1
  F  F3  1  0.09590900  0.76407600  0.34392100  1
  F  F4  1  0.28305200  0.75472400  0.65756200  1
  F  F5  1  0.71694800  0.75472400  0.15756200  1
  F  F6  1  0.75490400  0.70038800  0.51716400  1
  F  F7  1  0.24509600  0.70038800  0.01716400  1
  F  F8  1  0.53267400  0.51306700  0.87660300  1
  F  F9  1  0.46732600  0.51306700  0.37660300  1
  F  F10  1  0.05611700  0.48993500  0.63934300  1
  F  F11  1  0.94388300  0.48993500  0.13934300  1
  F  F12  1  0.24359100  0.29196200  0.93798000  1
  F  F13  1  0.75640900  0.29196200  0.43798000  1
  F  F14  1  0.80266800  0.23918700  0.86179200  1
  F  F15  1  0.19733200  0.23918700  0.36179200  1
  F  F16  1  0.43675900  0.25222000  0.64987200  1
  F  F17  1  0.56324100  0.25222000  0.14987200  1
  F  F18  1  0.97801500  0.00146000  0.59686100  1
  F  F19  1  0.02198500  0.00146000  0.09686100  1
loop_
_geom_bond_atom_site_label_1
_geom_bond_atom_site_label_2
_geom_bond_distance
_geom_bond_site_symmetry_2
F0 Li6 1.943448 1_565
F0 Li0 1.959075 1_555
F0 V2 1.976848 1_565
F1 Li7 1.943448 1_565
F1 Li1 1.959075 1_555
F1 V3 1.976848 1_565
F2 Li6 1.926555 1_565
F2 V1 2.061985 1_556
F2 V0 2.083778 1_655
F3 Li7 1.926555 1_565
F3 V0 2.061985 1_555
F3 V1 2.083778 1_455
F4 V0 1.943438 1_555
F4 Li1 1.954466 1_555
F4 Li2 2.079205 1_555
F5 V1 1.943438 1_555
F5 Li0 1.954466 1_554
F5 Li3 2.079205 1_555
F6 V0 1.921391 1_655
F6 Li1 1.955949 1_555
F6 Li3 2.050908 1_555
F7 V1 1.921391 1_455
F7 Li0 1.955949 1_554
F7 Li2 2.050908 1_554
F8 Li2 1.945990 1_555
F8 V2 1.949837 1_555
F8 Li0 1.967675 1_555
F9 Li3 1.945990 1_555
F9 V3 1.949837 1_555
F9 Li1 1.967675 1_555
F10 Li4 1.914192 1_555
F10 V0 1.943479 1_555
F10 Li2 2.004531 1_555
F11 Li5 1.914192 1_555
F11 V1 1.943479 1_555
F11 Li3 2.004531 1_555
F12 Li5 1.902674 1_456
F12 V2 1.958612 1_555
F12 Li2 2.017601 1_555
F13 Li4 1.902674 1_655
F13 V3 1.958612 1_555
F13 Li3 2.017601 1_555
F14 Li6 1.847149 1_555
F14 Li5 1.956596 1_556
F14 V2 1.997390 1_555
F15 Li7 1.847149 1_555
F15 Li4 1.956596 1_555
F15 V3 1.997390 1_555
F16 V3 1.984501 1_555
F16 V2 2.030455 1_555
F17 V2 1.984501 1_554
F17 V3 2.030455 1_555
F18 V0 1.948501 1_645
F18 Li6 1.970062 1_555
F18 Li4 2.001424 1_655
F19 V1 1.948501 1_445
F19 Li7 1.970062 1_555
F19 Li5 2.001424 1_455
