# generated using pymatgen
data_Li5V3CrO8
_symmetry_space_group_name_H-M   'P 1'
_cell_length_a   6.02248273
_cell_length_b   6.02248273
_cell_length_c   9.92334729
_cell_angle_alpha   89.84166118
_cell_angle_beta   89.84166118
_cell_angle_gamma   120.58386139
_symmetry_Int_Tables_number   1
_chemical_formula_structural   Li5V3CrO8
_chemical_formula_sum   'Li10 V6 Cr2 O16'
_cell_volume   309.84742723
_cell_formula_units_Z   2
loop_
 _symmetry_equiv_pos_site_id
 _symmetry_equiv_pos_as_xyz
  1  'x, y, z'
loop_
 _atom_site_type_symbol
 _atom_site_label
 _atom_site_symmetry_multiplicity
 _atom_site_fract_x
 _atom_site_fract_y
 _atom_site_fract_z
 _atom_site_occupancy
  Li  Li0  1  0.01489100  0.01483900  0.48683200  1
  Li  Li1  1  0.34676300  0.68348100  0.27438300  1
  Li  Li2  1  0.20905300  0.40567000  0.05539700  1
  Li  Li3  1  0.62360500  0.81932000  0.05833200  1
  Li  Li4  1  0.20896400  0.81837500  0.05839300  1
  Li  Li5  1  0.81837500  0.20896400  0.55839300  1
  Li  Li6  1  0.68348100  0.34676300  0.77438300  1
  Li  Li7  1  0.40567000  0.20905300  0.55539700  1
  Li  Li8  1  0.81932000  0.62360500  0.55833200  1
  Li  Li9  1  0.01483900  0.01489100  0.98683200  1
  V  V0  1  0.18834100  0.35437400  0.78662100  1
  V  V1  1  0.35437400  0.18834100  0.28662100  1
  V  V2  1  0.67195000  0.84127900  0.78891900  1
  V  V3  1  0.18648900  0.84622400  0.78696600  1
  V  V4  1  0.84622400  0.18648900  0.28696600  1
  V  V5  1  0.84127900  0.67195000  0.28891900  1
  Cr  Cr0  1  0.34626100  0.68193800  0.52713800  1
  Cr  Cr1  1  0.68193800  0.34626100  0.02713800  1
  O  O0  1  0.18142900  0.34991800  0.41083500  1
  O  O1  1  0.49691700  0.51905500  0.65754000  1
  O  O2  1  0.01771900  0.02311700  0.17689800  1
  O  O3  1  0.68174500  0.85582300  0.41106100  1
  O  O4  1  0.03533100  0.52408800  0.65944300  1
  O  O5  1  0.33243000  0.67428500  0.90664800  1
  O  O6  1  0.49627600  0.99153600  0.65975600  1
  O  O7  1  0.85606000  0.18552900  0.91087600  1
  O  O8  1  0.18552900  0.85606000  0.41087600  1
  O  O9  1  0.52408800  0.03533100  0.15944300  1
  O  O10  1  0.34991800  0.18142900  0.91083500  1
  O  O11  1  0.99153600  0.49627600  0.15975600  1
  O  O12  1  0.67428500  0.33243000  0.40664800  1
  O  O13  1  0.51905500  0.49691700  0.15754000  1
  O  O14  1  0.85582300  0.68174500  0.91106100  1
  O  O15  1  0.02311700  0.01771900  0.67689800  1
loop_
_geom_bond_atom_site_label_1
_geom_bond_atom_site_label_2
_geom_bond_distance
_geom_bond_site_symmetry_2
Li0 O8 1.881040 1_545
Li0 O15 1.886774 1_555
Li0 O3 1.888137 1_445
Li0 O0 1.890721 1_555
Li1 O9 2.146801 1_565
Li1 O11 2.169771 1_455
Li1 O0 2.191474 1_555
Li1 O13 2.206897 1_555
Li1 O3 2.208838 1_555
Li1 O8 2.210260 1_555
Li2 O13 1.945381 1_555
Li2 O11 1.951748 1_455
Li2 O5 2.026214 1_554
Li2 O2 2.316244 1_555
Li2 O7 2.343748 1_454
Li2 O10 2.402346 1_554
Li3 O9 1.963579 1_565
Li3 O13 1.969173 1_555
Li3 O5 2.137031 1_554
Li3 O2 2.362923 1_665
Li3 O7 2.407092 1_564
Li3 O14 2.439805 1_554
Li4 O9 1.951641 1_565
Li4 O11 1.971420 1_455
Li4 O5 2.056958 1_554
Li4 O14 2.362379 1_454
Li4 O2 2.382354 1_565
Li4 O10 2.394181 1_564
Li5 O4 1.951641 1_655
Li5 O6 1.971420 1_545
Li5 O12 2.056958 1_555
Li5 O3 2.362379 1_545
Li5 O15 2.382354 1_655
Li5 O0 2.394181 1_655
Li6 O4 2.146801 1_655
Li6 O6 2.169771 1_545
Li6 O10 2.191474 1_555
Li6 O1 2.206897 1_555
Li6 O14 2.208838 1_555
Li6 O7 2.210260 1_555
Li7 O1 1.945381 1_555
Li7 O6 1.951748 1_545
Li7 O12 2.026214 1_555
Li7 O15 2.316244 1_555
Li7 O8 2.343748 1_545
Li7 O0 2.402346 1_555
Li8 O4 1.963579 1_655
Li8 O1 1.969173 1_555
Li8 O12 2.137031 1_555
Li8 O15 2.362923 1_665
Li8 O8 2.407092 1_655
Li8 O3 2.439805 1_555
Li9 O7 1.881040 1_455
Li9 O2 1.886774 1_556
Li9 O14 1.888137 1_445
Li9 O10 1.890721 1_555
Cr0 O4 2.074129 1_555
Cr0 O0 2.077244 1_555
Cr0 O6 2.081014 1_555
Cr0 O3 2.081602 1_555
Cr0 O1 2.089306 1_555
Cr0 O8 2.097661 1_555
Cr1 O9 2.074129 1_555
Cr1 O10 2.077244 1_554
Cr1 O11 2.081014 1_555
Cr1 O14 2.081602 1_554
Cr1 O13 2.089306 1_555
Cr1 O7 2.097661 1_554
O0 V4 2.133905 1_455
O0 V1 2.140563 1_555
O1 V0 2.045060 1_555
O1 V2 2.125254 1_555
O2 V1 2.061947 1_555
O2 V4 2.064360 1_455
O2 V5 2.128674 1_445
O3 V4 2.106134 1_565
O3 V5 2.168440 1_555
O4 V3 2.101586 1_555
O4 V0 2.108154 1_555
O5 V3 2.044601 1_555
O5 V0 2.049576 1_555
O5 V2 2.108316 1_555
O6 V3 2.039507 1_555
O6 V2 2.134571 1_555
O7 V0 2.113696 1_655
O7 V2 2.162040 1_545
O8 V1 2.113696 1_565
O8 V5 2.162040 1_455
O9 V4 2.101586 1_555
O9 V1 2.108154 1_555
O10 V3 2.133905 1_545
O10 V0 2.140563 1_555
O11 V4 2.039507 1_555
O11 V5 2.134571 1_555
O12 V4 2.044601 1_555
O12 V1 2.049576 1_555
O12 V5 2.108316 1_555
O13 V1 2.045060 1_555
O13 V5 2.125254 1_555
O14 V3 2.106134 1_655
O14 V2 2.168440 1_555
O15 V0 2.061947 1_555
O15 V3 2.064360 1_545
O15 V2 2.128674 1_445
