# generated using pymatgen
data_ZnC4(NO3)2
_symmetry_space_group_name_H-M   'P 1'
_cell_length_a   8.50541400
_cell_length_b   9.01791200
_cell_length_c   13.29111600
_cell_angle_alpha   90.00000000
_cell_angle_beta   90.00000000
_cell_angle_gamma   90.00000000
_symmetry_Int_Tables_number   1
_chemical_formula_structural   ZnC4(NO3)2
_chemical_formula_sum   'Zn4 C16 N8 O24'
_cell_volume   1019.44288482
_cell_formula_units_Z   4
loop_
 _symmetry_equiv_pos_site_id
 _symmetry_equiv_pos_as_xyz
  1  'x, y, z'
loop_
 _atom_site_type_symbol
 _atom_site_label
 _atom_site_symmetry_multiplicity
 _atom_site_fract_x
 _atom_site_fract_y
 _atom_site_fract_z
 _atom_site_occupancy
  Zn  Zn0  1  0.47568200  0.48619300  0.25898700  1
  Zn  Zn1  1  0.47568200  0.51380700  0.74101300  1
  Zn  Zn2  1  0.97568200  0.98619300  0.24101300  1
  Zn  Zn3  1  0.97568200  0.01380700  0.75898700  1
  C  C0  1  0.24960300  0.23126200  0.30461300  1
  C  C1  1  0.24960300  0.76873800  0.69538700  1
  C  C2  1  0.74960300  0.73126200  0.19538700  1
  C  C3  1  0.74960300  0.26873800  0.80461300  1
  C  C4  1  0.24351900  0.74276900  0.30441500  1
  C  C5  1  0.24351900  0.25723100  0.69558500  1
  C  C6  1  0.74351900  0.24276900  0.19558500  1
  C  C7  1  0.74351900  0.75723100  0.80441500  1
  C  C8  1  0.88545700  0.00000000  0.50000000  1
  C  C9  1  0.38545700  0.50000000  0.00000000  1
  C  C10  1  0.62240900  0.50000000  0.50000000  1
  C  C11  1  0.12240900  0.00000000  0.00000000  1
  C  C12  1  0.99649500  0.50000000  0.00000000  1
  C  C13  1  0.49649500  0.00000000  0.50000000  1
  C  C14  1  0.49737400  0.00000000  0.00000000  1
  C  C15  1  0.99737400  0.50000000  0.50000000  1
  N  N0  1  0.35672000  0.31620200  0.30732500  1
  N  N1  1  0.35672000  0.68379800  0.69267500  1
  N  N2  1  0.85672000  0.81620200  0.19267500  1
  N  N3  1  0.85672000  0.18379800  0.80732500  1
  N  N4  1  0.34416000  0.65179400  0.29884600  1
  N  N5  1  0.34416000  0.34820600  0.70115400  1
  N  N6  1  0.84416000  0.15179400  0.20115400  1
  N  N7  1  0.84416000  0.84820600  0.79884600  1
  O  O0  1  0.14250300  0.14211700  0.30732200  1
  O  O1  1  0.14250300  0.85788300  0.69267800  1
  O  O2  1  0.64250300  0.64211700  0.19267800  1
  O  O3  1  0.64250300  0.35788300  0.80732200  1
  O  O4  1  0.14221500  0.83706800  0.31513700  1
  O  O5  1  0.14221500  0.16293200  0.68486300  1
  O  O6  1  0.64221500  0.33706800  0.18486300  1
  O  O7  1  0.64221500  0.66293200  0.81513700  1
  O  O8  1  0.38176100  0.48183100  0.08724700  1
  O  O9  1  0.38176100  0.51816900  0.91275300  1
  O  O10  1  0.88176100  0.98183100  0.41275300  1
  O  O11  1  0.88176100  0.01816900  0.58724700  1
  O  O12  1  0.12643600  0.99056300  0.08794300  1
  O  O13  1  0.12643600  0.00943700  0.91205700  1
  O  O14  1  0.62643600  0.49056300  0.41205700  1
  O  O15  1  0.62643600  0.50943700  0.58794300  1
  O  O16  1  0.49792600  0.90513900  0.43927500  1
  O  O17  1  0.49792600  0.09486100  0.56072500  1
  O  O18  1  0.99792600  0.40513900  0.06072500  1
  O  O19  1  0.99792600  0.59486100  0.93927500  1
  O  O20  1  0.49535800  0.90233700  0.05865300  1
  O  O21  1  0.49535800  0.09766300  0.94134700  1
  O  O22  1  0.99535800  0.40233700  0.44134700  1
  O  O23  1  0.99535800  0.59766300  0.55865300  1
loop_
_geom_bond_atom_site_label_1
_geom_bond_atom_site_label_2
_geom_bond_distance
_geom_bond_site_symmetry_2
C0 N0 1.190833 1_555
C0 O0 1.215462 1_555
C1 N1 1.190833 1_555
C1 O1 1.215462 1_555
C2 N2 1.190833 1_555
C2 O2 1.215462 1_555
C3 N3 1.190833 1_555
C3 O3 1.215462 1_555
C4 N4 1.187968 1_555
C4 O4 1.218961 1_555
C5 N5 1.187968 1_555
C5 O5 1.218961 1_555
C6 N6 1.187968 1_555
C6 O6 1.218961 1_555
C7 N7 1.187968 1_555
C7 O7 1.218961 1_555
C8 O11 1.171550 1_555
C8 O10 1.171550 1_545
C9 O8 1.171550 1_555
C9 O9 1.171550 1_554
C10 O15 1.172455 1_555
C10 O14 1.172455 1_555
C11 O13 1.172455 1_554
C11 O12 1.172455 1_545
C12 O18 1.176161 1_555
C12 O19 1.176161 1_554
C13 O17 1.176161 1_555
C13 O16 1.176161 1_545
C14 O20 1.176297 1_545
C14 O21 1.176297 1_554
C15 O23 1.176297 1_555
C15 O22 1.176297 1_555
N0 Zn0 1.945899 1_555
N1 Zn1 1.945899 1_555
N2 Zn2 1.945899 1_555
N3 Zn3 1.945899 1_555
N4 Zn0 1.939640 1_555
N5 Zn1 1.939640 1_555
N6 Zn2 1.939640 1_545
N7 Zn3 1.939640 1_565
O0 Zn2 2.183367 1_445
O1 Zn3 2.183367 1_465
O2 Zn0 2.183367 1_555
O3 Zn1 2.183367 1_555
O4 Zn2 2.187546 1_455
O5 Zn3 2.187546 1_455
O6 Zn0 2.187546 1_555
O7 Zn1 2.187546 1_555
O8 Zn0 2.418682 1_555
O9 Zn1 2.418682 1_555
O10 Zn2 2.418682 1_555
O11 Zn3 2.418682 1_555
O12 Zn2 2.405146 1_455
O13 Zn3 2.405146 1_455
O14 Zn0 2.405146 1_555
O15 Zn1 2.405146 1_555
