# generated using pymatgen
data_Zr2N2O
_symmetry_space_group_name_H-M   'P 1'
_cell_length_a   8.77946306
_cell_length_b   8.78593793
_cell_length_c   8.79294210
_cell_angle_alpha   109.37437941
_cell_angle_beta   109.43845277
_cell_angle_gamma   109.51022592
_symmetry_Int_Tables_number   1
_chemical_formula_structural   Zr2N2O
_chemical_formula_sum   'Zr16 N16 O8'
_cell_volume   522.70014202
_cell_formula_units_Z   8
loop_
 _symmetry_equiv_pos_site_id
 _symmetry_equiv_pos_as_xyz
  1  'x, y, z'
loop_
 _atom_site_type_symbol
 _atom_site_label
 _atom_site_symmetry_multiplicity
 _atom_site_fract_x
 _atom_site_fract_y
 _atom_site_fract_z
 _atom_site_occupancy
  Zr  Zr0  1  0.51297233  0.50012914  0.50120057  1
  Zr  Zr1  1  0.20768922  0.74956070  0.46597711  1
  Zr  Zr2  1  0.96462436  0.21606625  0.24960089  1
  Zr  Zr3  1  0.47616517  0.71995018  0.25091959  1
  Zr  Zr4  1  0.29318812  0.24647070  0.03404721  1
  Zr  Zr5  1  0.00061699  0.99871683  0.48937185  1
  Zr  Zr6  1  0.50158316  -0.00011379  0.00108025  1
  Zr  Zr7  1  0.98378226  0.49368351  0.99542834  1
  Zr  Zr8  1  0.24098449  0.53000954  0.78400884  1
  Zr  Zr9  1  0.74814602  0.96573093  0.71547947  1
  Zr  Zr10  1  0.75256708  0.47163076  0.21364804  1
  Zr  Zr11  1  0.25252832  0.03486547  0.28515053  1
  Zr  Zr12  1  0.71874129  0.75863654  0.96992724  1
  Zr  Zr13  1  0.02686177  0.78006757  0.75151529  1
  Zr  Zr14  1  0.53462100  0.28138123  0.74799715  1
  Zr  Zr15  1  0.78692525  0.24965173  0.54124024  1
  N  N0  1  0.76892166  0.72878830  0.73523853  1
  N  N1  1  0.53917816  0.51203900  0.27190996  1
  N  N2  1  0.50506139  0.76650757  0.03976418  1
  N  N3  1  0.95708765  0.72859006  0.47372605  1
  N  N4  1  0.01381181  0.46720781  0.23904565  1
  N  N5  1  0.73727199  0.01526449  0.96774229  1
  N  N6  1  0.99665807  0.53771903  0.76647580  1
  N  N7  1  0.76175812  0.23019992  0.77339818  1
  N  N8  1  0.96958980  0.95641069  0.22732115  1
  N  N9  1  0.25851031  0.98732422  0.03194778  1
  N  N10  1  0.48653885  0.22593069  0.95565016  1
  N  N11  1  0.72600692  0.96431665  0.45751013  1
  N  N12  1  0.77189807  0.54556939  0.01101258  1
  N  N13  1  0.04735111  0.27372971  0.53318117  1
  N  N14  1  0.27273476  0.02899585  0.54209806  1
  N  N15  1  0.53508912  0.26571835  0.48543434  1
  O  O0  1  0.27897285  0.76053676  0.72631708  1
  O  O1  1  0.22888538  0.27308394  0.26470397  1
  O  O2  1  0.46279477  0.73922504  0.51566213  1
  O  O3  1  0.24525195  0.77157206  0.23066873  1
  O  O4  1  0.22294550  0.44830626  0.98379298  1
  O  O5  1  0.45289089  0.48882615  0.72271601  1
  O  O6  1  0.72529980  0.23400862  0.26990117  1
  O  O7  1  0.03350229  0.05369714  0.77818931  1
loop_
_geom_bond_atom_site_label_1
_geom_bond_atom_site_label_2
_geom_bond_distance
_geom_bond_site_symmetry_2
N0 Zr13 2.100422 1_655
N0 Zr0 2.117574 1_555
N0 Zr12 2.201034 1_555
N0 Zr9 2.206740 1_555
N1 Zr3 2.123127 1_555
N1 Zr0 2.135727 1_555
N1 Zr10 2.204690 1_555
N1 Zr4 2.207397 1_555
N2 Zr3 2.104049 1_555
N2 Zr12 2.174042 1_554
N2 Zr6 2.195138 1_565
N2 Zr8 2.227479 1_554
N3 Zr13 2.152232 1_655
N3 Zr10 2.164365 1_555
N3 Zr1 2.171768 1_655
N3 Zr5 2.222647 1_655
N4 Zr2 2.142403 1_455
N4 Zr1 2.160460 1_555
N4 Zr7 2.169778 1_454
N4 Zr10 2.244171 1_455
N5 Zr6 2.151539 1_556
N5 Zr9 2.155654 1_545
N5 Zr2 2.166378 1_556
N5 Zr12 2.212779 1_545
N6 Zr13 2.110280 1_655
N6 Zr8 2.124497 1_655
N6 Zr15 2.202894 1_555
N6 Zr7 2.203255 1_555
N7 Zr7 2.103447 1_555
N7 Zr14 2.144259 1_555
N7 Zr9 2.159091 1_545
N7 Zr15 2.179816 1_555
N8 Zr5 2.113773 1_655
N8 Zr12 2.123423 1_554
N8 Zr11 2.165001 1_665
N8 Zr2 2.240598 1_565
N9 Zr11 2.146985 1_565
N9 Zr13 2.177540 1_554
N9 Zr4 2.186872 1_565
N9 Zr6 2.210901 1_565
N10 Zr4 2.071291 1_556
N10 Zr14 2.171457 1_555
N10 Zr6 2.188087 1_556
N10 Zr10 2.262281 1_556
N11 Zr3 2.082163 1_555
N11 Zr15 2.174989 1_565
N11 Zr9 2.206671 1_555
N11 Zr5 2.233820 1_655
N12 Zr7 2.093250 1_554
N12 Zr10 2.126280 1_555
N12 Zr12 2.184651 1_554
N12 Zr14 2.253401 1_554
N13 Zr8 2.115903 1_555
N13 Zr2 2.170809 1_455
N13 Zr5 2.184042 1_545
N13 Zr15 2.252133 1_455
N14 Zr1 2.126140 1_545
N14 Zr14 2.154427 1_555
N14 Zr5 2.179381 1_545
N14 Zr11 2.226055 1_555
N15 Zr0 2.096220 1_555
N15 Zr15 2.163673 1_555
N15 Zr11 2.175026 1_555
N15 Zr14 2.268248 1_555
O0 Zr1 2.121527 1_555
O0 Zr8 2.194059 1_555
O0 Zr6 2.195451 1_566
O0 Zr13 2.352140 1_555
O1 Zr2 2.150763 1_455
O1 Zr11 2.229563 1_555
O1 Zr0 2.235321 1_555
O1 Zr4 2.241071 1_555
O2 Zr1 2.173990 1_555
O2 Zr9 2.178043 1_555
O2 Zr0 2.258604 1_555
O2 Zr3 2.322717 1_555
O3 Zr11 2.174971 1_565
O3 Zr3 2.185133 1_555
O3 Zr1 2.259241 1_555
O3 Zr7 2.292250 1_454
O4 Zr8 2.138279 1_555
O4 Zr4 2.188424 1_556
O4 Zr7 2.292015 1_455
O4 Zr3 2.327334 1_556
O5 Zr0 2.204337 1_555
O5 Zr8 2.206849 1_555
O5 Zr14 2.218635 1_555
O5 Zr12 2.302340 1_555
O6 Zr6 2.159051 1_555
O6 Zr15 2.208524 1_555
O6 Zr2 2.218943 1_555
O6 Zr10 2.256263 1_555
O7 Zr4 2.146300 1_556
O7 Zr9 2.163851 1_445
O7 Zr13 2.315435 1_545
O7 Zr5 2.317531 1_545
