# generated using pymatgen
data_Li4Ti5Mn3O16
_symmetry_space_group_name_H-M   'P 1'
_cell_length_a   6.06256181
_cell_length_b   6.06256181
_cell_length_c   9.65841064
_cell_angle_alpha   88.25377989
_cell_angle_beta   88.25377989
_cell_angle_gamma   58.17096526
_symmetry_Int_Tables_number   1
_chemical_formula_structural   Li4Ti5Mn3O16
_chemical_formula_sum   'Li4 Ti5 Mn3 O16'
_cell_volume   301.42647615
_cell_formula_units_Z   1
loop_
 _symmetry_equiv_pos_site_id
 _symmetry_equiv_pos_as_xyz
  1  'x, y, z'
loop_
 _atom_site_type_symbol
 _atom_site_label
 _atom_site_symmetry_multiplicity
 _atom_site_fract_x
 _atom_site_fract_y
 _atom_site_fract_z
 _atom_site_occupancy
  Li  Li0  1  0.65538000  0.65538000  0.10037300  1
  Li  Li1  1  0.99814000  0.99814000  0.00857100  1
  Li  Li2  1  0.00729400  0.00729400  0.50630700  1
  Li  Li3  1  0.33516200  0.33516200  0.59945100  1
  Ti  Ti0  1  0.17362400  0.17362400  0.26710100  1
  Ti  Ti1  1  0.34984900  0.84339700  0.77813200  1
  Ti  Ti2  1  0.66472800  0.66472800  0.50012500  1
  Ti  Ti3  1  0.84339700  0.34984900  0.77813200  1
  Ti  Ti4  1  0.33980400  0.33980400  0.00249500  1
  Mn  Mn0  1  0.83378900  0.83378900  0.79251700  1
  Mn  Mn1  1  0.16651300  0.65942600  0.29069800  1
  Mn  Mn2  1  0.65942600  0.16651300  0.29069800  1
  O  O0  1  0.34991900  0.83909200  0.40883800  1
  O  O1  1  0.52277700  0.52277700  0.66282300  1
  O  O2  1  0.65101600  0.65101600  0.89502800  1
  O  O3  1  0.01008300  0.01008300  0.69551000  1
  O  O4  1  0.99922600  0.99922600  0.19960600  1
  O  O5  1  0.83909200  0.34991900  0.40883800  1
  O  O6  1  0.50154200  0.96381500  0.65626100  1
  O  O7  1  0.96381500  0.50154200  0.65626100  1
  O  O8  1  0.16676600  0.16676600  0.89813100  1
  O  O9  1  0.83886100  0.83886100  0.41109800  1
  O  O10  1  0.02532300  0.46388900  0.15439100  1
  O  O11  1  0.46388900  0.02532300  0.15439100  1
  O  O12  1  0.32816800  0.32816800  0.38877700  1
  O  O13  1  0.18249000  0.65985700  0.91357500  1
  O  O14  1  0.46974900  0.46974900  0.16045500  1
  O  O15  1  0.65985700  0.18249000  0.91357500  1
loop_
_geom_bond_atom_site_label_1
_geom_bond_atom_site_label_2
_geom_bond_distance
_geom_bond_site_symmetry_2
Li0 O10 1.984482 1_655
Li0 O11 1.984482 1_565
Li0 O2 1.985457 1_554
Li0 O14 2.031277 1_555
Li1 O4 1.845532 1_555
Li1 O15 1.982799 1_564
Li1 O13 1.982799 1_654
Li1 O8 2.048767 1_664
Li2 O3 1.828669 1_555
Li2 O5 1.986433 1_455
Li2 O0 1.986433 1_545
Li2 O9 2.036007 1_445
Li3 O7 1.987492 1_455
Li3 O6 1.987492 1_545
Li3 O12 2.038706 1_555
Li3 O1 2.100376 1_555
Mn0 O3 2.060415 1_665
Mn0 O2 2.144128 1_555
Mn0 O15 2.161555 1_565
Mn0 O13 2.161555 1_655
Mn0 O6 2.198660 1_555
Mn0 O7 2.198660 1_555
Mn1 O12 1.937946 1_555
Mn1 O4 1.945937 1_455
Mn1 O14 2.000458 1_555
Mn1 O9 2.034344 1_455
Mn1 O10 2.259487 1_555
Mn1 O0 2.270529 1_555
Mn2 O12 1.937946 1_555
Mn2 O4 1.945937 1_545
Mn2 O14 2.000458 1_555
Mn2 O9 2.034344 1_545
Mn2 O11 2.259487 1_555
Mn2 O5 2.270529 1_555
O0 Ti2 1.858793 1_555
O0 Ti0 2.182481 1_565
O1 Ti1 2.007248 1_555
O1 Ti3 2.007248 1_555
O1 Ti2 2.137023 1_555
O2 Ti3 1.941118 1_555
O2 Ti1 1.941118 1_555
O3 Ti3 1.938153 1_455
O3 Ti1 1.938153 1_545
O4 Ti0 1.980871 1_665
O5 Ti2 1.858793 1_555
O5 Ti0 2.182481 1_655
O6 Ti1 1.831404 1_555
O6 Ti2 2.173548 1_555
O7 Ti3 1.831404 1_555
O7 Ti2 2.173548 1_555
O8 Ti1 2.045362 1_545
O8 Ti3 2.045362 1_455
O8 Ti4 2.122912 1_556
O9 Ti2 2.008286 1_555
O10 Ti0 1.834175 1_555
O10 Ti4 2.176505 1_555
O11 Ti0 1.834175 1_555
O11 Ti4 2.176505 1_555
O12 Ti0 2.048636 1_555
O13 Ti4 1.846224 1_556
O13 Ti1 2.236098 1_555
O14 Ti4 2.090446 1_555
O15 Ti4 1.846224 1_556
O15 Ti3 2.236098 1_555
