# generated using pymatgen
data_FeNi(PO4)2
_symmetry_space_group_name_H-M   'P 1'
_cell_length_a   8.51549700
_cell_length_b   8.51549700
_cell_length_c   8.51549642
_cell_angle_alpha   61.04114736
_cell_angle_beta   61.04114736
_cell_angle_gamma   61.04115112
_symmetry_Int_Tables_number   1
_chemical_formula_structural   FeNi(PO4)2
_chemical_formula_sum   'Fe3 Ni3 P6 O24'
_cell_volume   446.86832032
_cell_formula_units_Z   3
loop_
 _symmetry_equiv_pos_site_id
 _symmetry_equiv_pos_as_xyz
  1  'x, y, z'
loop_
 _atom_site_type_symbol
 _atom_site_label
 _atom_site_symmetry_multiplicity
 _atom_site_fract_x
 _atom_site_fract_y
 _atom_site_fract_z
 _atom_site_occupancy
  Fe  Fe0  1  0.64459500  0.64459500  0.64459500  1
  Fe  Fe1  1  0.85656100  0.85656100  0.85656100  1
  Fe  Fe2  1  0.35634200  0.35634200  0.35634200  1
  Ni  Ni0  1  0.00058000  0.00058000  0.00058000  1
  Ni  Ni1  1  0.14188100  0.14188100  0.14188100  1
  Ni  Ni2  1  0.50024500  0.50024500  0.50024500  1
  P  P0  1  0.95396200  0.24996000  0.54495100  1
  P  P1  1  0.54495100  0.95396200  0.24996000  1
  P  P2  1  0.24996000  0.54495100  0.95396200  1
  P  P3  1  0.75140300  0.45310800  0.04683000  1
  P  P4  1  0.45310800  0.04683000  0.75140300  1
  P  P5  1  0.04683000  0.75140300  0.45310800  1
  O  O0  1  0.50372800  0.11106800  0.31798200  1
  O  O1  1  0.31798200  0.50372800  0.11106800  1
  O  O2  1  0.11106800  0.31798200  0.50372800  1
  O  O3  1  0.93986600  0.09234400  0.74489500  1
  O  O4  1  0.98666700  0.18647300  0.38930500  1
  O  O5  1  0.75395300  0.40881000  0.56253400  1
  O  O6  1  0.74489500  0.93986600  0.09234400  1
  O  O7  1  0.56253400  0.75395300  0.40881000  1
  O  O8  1  0.82210800  0.60882200  0.00425300  1
  O  O9  1  0.40881000  0.56253400  0.75395300  1
  O  O10  1  0.90773400  0.25492300  0.05786800  1
  O  O11  1  0.60882200  0.00425300  0.82210800  1
  O  O12  1  0.38930500  0.98666700  0.18647300  1
  O  O13  1  0.09234400  0.74489500  0.93986600  1
  O  O14  1  0.59252600  0.44020900  0.24596500  1
  O  O15  1  0.18647300  0.38930500  0.98666700  1
  O  O16  1  0.44020900  0.24596500  0.59252600  1
  O  O17  1  0.25492300  0.05786800  0.90773400  1
  O  O18  1  0.24596500  0.59252600  0.44020900  1
  O  O19  1  0.00425300  0.82210800  0.60882200  1
  O  O20  1  0.05786800  0.90773400  0.25492300  1
  O  O21  1  0.89147700  0.67919100  0.49689300  1
  O  O22  1  0.67919100  0.49689300  0.89147700  1
  O  O23  1  0.49689300  0.89147700  0.67919100  1
loop_
_geom_bond_atom_site_label_1
_geom_bond_atom_site_label_2
_geom_bond_distance
_geom_bond_site_symmetry_2
Fe0 O22 1.941362 1_555
Fe0 O21 1.941362 1_555
Fe0 O23 1.941362 1_555
Fe0 O7 2.074796 1_555
Fe0 O9 2.074796 1_555
Fe0 O5 2.074796 1_555
Fe1 O19 1.947070 1_655
Fe1 O8 1.947070 1_556
Fe1 O11 1.947070 1_565
Fe1 O6 2.077487 1_556
Fe1 O3 2.077487 1_565
Fe1 O13 2.077487 1_655
Fe2 O1 1.941522 1_555
Fe2 O2 1.941522 1_555
Fe2 O0 1.941522 1_555
Fe2 O16 2.085382 1_555
Fe2 O14 2.085382 1_555
Fe2 O18 2.085382 1_555
Ni0 O20 2.132008 1_545
Ni0 O17 2.132008 1_554
Ni0 O10 2.132009 1_455
Ni0 O3 2.160969 1_454
Ni0 O6 2.160969 1_445
Ni0 O13 2.160969 1_544
Ni1 O4 1.980499 1_455
Ni1 O15 1.980499 1_554
Ni1 O12 1.980499 1_545
Ni1 O17 2.066354 1_554
Ni1 O20 2.066354 1_545
Ni1 O10 2.066354 1_455
Ni2 O14 2.145392 1_555
Ni2 O16 2.145393 1_555
Ni2 O18 2.145393 1_555
Ni2 O9 2.153128 1_555
Ni2 O7 2.153128 1_555
Ni2 O5 2.153128 1_555
O0 P1 1.532088 1_545
O1 P2 1.532088 1_554
O2 P0 1.532088 1_455
O3 P0 1.568424 1_555
O4 P0 1.522221 1_555
O5 P0 1.572004 1_555
O6 P1 1.568424 1_555
O7 P1 1.572003 1_555
O8 P3 1.532435 1_555
O9 P2 1.572003 1_555
O10 P3 1.556005 1_555
O11 P4 1.532435 1_555
O12 P1 1.522221 1_555
O13 P2 1.568424 1_555
O14 P3 1.568404 1_555
O15 P2 1.522221 1_555
O16 P4 1.568404 1_555
O17 P4 1.556005 1_555
O18 P5 1.568404 1_555
O19 P5 1.532435 1_555
O20 P5 1.556005 1_555
O21 P5 1.534704 1_655
O22 P3 1.534704 1_556
O23 P4 1.534704 1_565
