# generated using pymatgen
data_SnP6(WO8)3
_symmetry_space_group_name_H-M   'P 1'
_cell_length_a   8.82784054
_cell_length_b   8.82784054
_cell_length_c   8.82784092
_cell_angle_alpha   60.20408132
_cell_angle_beta   60.20408132
_cell_angle_gamma   60.20408386
_symmetry_Int_Tables_number   1
_chemical_formula_structural   SnP6(WO8)3
_chemical_formula_sum   'Sn1 P6 W3 O24'
_cell_volume   488.70945297
_cell_formula_units_Z   1
loop_
 _symmetry_equiv_pos_site_id
 _symmetry_equiv_pos_as_xyz
  1  'x, y, z'
loop_
 _atom_site_type_symbol
 _atom_site_label
 _atom_site_symmetry_multiplicity
 _atom_site_fract_x
 _atom_site_fract_y
 _atom_site_fract_z
 _atom_site_occupancy
  Sn  Sn0  1  0.13899700  0.13899700  0.13899700  1
  P  P0  1  0.53768900  0.96228000  0.24892600  1
  P  P1  1  0.24892600  0.53768900  0.96228000  1
  P  P2  1  0.96228000  0.24892600  0.53768900  1
  P  P3  1  0.03747400  0.75197400  0.46180500  1
  P  P4  1  0.75197400  0.46180500  0.03747400  1
  P  P5  1  0.46180500  0.03747400  0.75197400  1
  W  W0  1  0.64050800  0.64050800  0.64050800  1
  W  W1  1  0.86005600  0.86005600  0.86005600  1
  W  W2  1  0.36087000  0.36087000  0.36087000  1
  O  O0  1  0.29021200  0.50948100  0.12482100  1
  O  O1  1  0.12482100  0.29021200  0.50948100  1
  O  O2  1  0.50948100  0.12482100  0.29021200  1
  O  O3  1  0.72027000  0.93659300  0.08312500  1
  O  O4  1  0.37631500  0.98717500  0.20791700  1
  O  O5  1  0.56727600  0.78040700  0.41444900  1
  O  O6  1  0.08312500  0.72027000  0.93659300  1
  O  O7  1  0.41444900  0.56727600  0.78040700  1
  O  O8  1  0.00207000  0.79933000  0.62668200  1
  O  O9  1  0.78040700  0.41444900  0.56727600  1
  O  O10  1  0.04845400  0.91738300  0.28306200  1
  O  O11  1  0.79933000  0.62668200  0.00207000  1
  O  O12  1  0.20791700  0.37631500  0.98717500  1
  O  O13  1  0.93659300  0.08312500  0.72027000  1
  O  O14  1  0.21624900  0.58709300  0.44615600  1
  O  O15  1  0.98717500  0.20791700  0.37631500  1
  O  O16  1  0.58709300  0.44615600  0.21624900  1
  O  O17  1  0.91738300  0.28306200  0.04845400  1
  O  O18  1  0.44615600  0.21624900  0.58709300  1
  O  O19  1  0.62668200  0.00207000  0.79933000  1
  O  O20  1  0.28306200  0.04845400  0.91738300  1
  O  O21  1  0.50013800  0.87382000  0.70094100  1
  O  O22  1  0.87382000  0.70094100  0.50013800  1
  O  O23  1  0.70094100  0.50013800  0.87382000  1
loop_
_geom_bond_atom_site_label_1
_geom_bond_atom_site_label_2
_geom_bond_distance
_geom_bond_site_symmetry_2
O0 P1 1.525838 1_554
O0 W2 2.052812 1_555
O1 P2 1.525838 1_455
O1 W2 2.052812 1_555
O2 P0 1.525838 1_545
O2 W2 2.052812 1_555
O3 P0 1.553602 1_555
O3 W1 1.983876 1_554
O4 P0 1.526802 1_555
O4 Sn0 2.054596 1_565
O5 P0 1.553099 1_555
O5 W0 1.991219 1_555
O6 P1 1.553602 1_555
O6 W1 1.983876 1_455
O7 P1 1.553099 1_555
O7 W0 1.991219 1_555
O8 P3 1.553616 1_555
O8 W1 1.991554 1_455
O9 P2 1.553099 1_555
O9 W0 1.991219 1_555
O10 P3 1.526506 1_555
O10 Sn0 2.038333 1_565
O11 P4 1.553616 1_555
O11 W1 1.991554 1_554
O12 P1 1.526802 1_555
O12 Sn0 2.054596 1_556
O13 P2 1.553602 1_555
O13 W1 1.983876 1_545
O14 P3 1.525978 1_555
O14 W2 2.046989 1_555
O15 P2 1.526802 1_555
O15 Sn0 2.054596 1_655
O16 P4 1.525978 1_555
O16 W2 2.046989 1_555
O17 P4 1.526506 1_555
O17 Sn0 2.038334 1_655
O18 P5 1.525978 1_555
O18 W2 2.046989 1_555
O19 P5 1.553616 1_555
O19 W1 1.991554 1_545
O20 P5 1.526506 1_555
O20 Sn0 2.038334 1_556
O21 P5 1.553746 1_565
O21 W0 1.990178 1_555
O22 P3 1.553746 1_655
O22 W0 1.990178 1_555
O23 P4 1.553746 1_556
O23 W0 1.990178 1_555
