# generated using pymatgen
data_SnSb3(PO4)4
_symmetry_space_group_name_H-M   'P 1'
_cell_length_a   7.03994900
_cell_length_b   4.83231900
_cell_length_c   10.08210885
_cell_angle_alpha   88.94878907
_cell_angle_beta   90.00000000
_cell_angle_gamma   90.00000000
_symmetry_Int_Tables_number   1
_chemical_formula_structural   SnSb3(PO4)4
_chemical_formula_sum   'Sn1 Sb3 P4 O16'
_cell_volume   342.92835141
_cell_formula_units_Z   1
loop_
 _symmetry_equiv_pos_site_id
 _symmetry_equiv_pos_as_xyz
  1  'x, y, z'
loop_
 _atom_site_type_symbol
 _atom_site_label
 _atom_site_symmetry_multiplicity
 _atom_site_fract_x
 _atom_site_fract_y
 _atom_site_fract_z
 _atom_site_occupancy
  Sn  Sn0  1  0.50000000  0.89524500  0.70724400  1
  Sb  Sb0  1  0.00000000  0.10064100  0.29366600  1
  Sb  Sb1  1  0.00000000  0.39245900  0.79778600  1
  Sb  Sb2  1  0.50000000  0.59914200  0.20173400  1
  P  P0  1  0.50000000  0.15731400  0.39932500  1
  P  P1  1  0.50000000  0.32979100  0.90091500  1
  P  P2  1  0.00000000  0.67442300  0.09693000  1
  P  P3  1  0.00000000  0.83709100  0.60004700  1
  O  O0  1  0.50000000  0.22199200  0.54828000  1
  O  O1  1  0.32974100  0.30371200  0.32268700  1
  O  O2  1  0.67025900  0.30371200  0.32268700  1
  O  O3  1  0.00000000  0.15454200  0.61470300  1
  O  O4  1  0.00000000  0.35585100  0.11135200  1
  O  O5  1  0.32762900  0.19910200  0.82375000  1
  O  O6  1  0.67237100  0.19910200  0.82375000  1
  O  O7  1  0.50000000  0.25517800  0.04888700  1
  O  O8  1  0.00000000  0.75298300  0.94984100  1
  O  O9  1  0.82968700  0.80962100  0.17683900  1
  O  O10  1  0.17031300  0.80962100  0.17683900  1
  O  O11  1  0.50000000  0.65058000  0.88754400  1
  O  O12  1  0.50000000  0.84168600  0.38369100  1
  O  O13  1  0.82838000  0.69689500  0.67886000  1
  O  O14  1  0.17162000  0.69689500  0.67886000  1
  O  O15  1  0.00000000  0.76242400  0.45378100  1
loop_
_geom_bond_atom_site_label_1
_geom_bond_atom_site_label_2
_geom_bond_distance
_geom_bond_site_symmetry_2
O0 P0 1.539562 1_555
O0 Sn0 2.229090 1_545
O1 P0 1.585597 1_555
O1 Sb2 2.213134 1_555
O1 Sb0 2.539255 1_555
O2 P0 1.585597 1_555
O2 Sb2 2.213134 1_555
O2 Sb0 2.539255 1_655
O3 P3 1.543821 1_545
O3 Sb1 2.192456 1_555
O4 P2 1.543635 1_555
O4 Sb0 2.194628 1_555
O5 P1 1.579450 1_555
O5 Sn0 2.252016 1_545
O5 Sb1 2.500497 1_555
O6 P1 1.579450 1_555
O6 Sn0 2.252016 1_545
O6 Sb1 2.500497 1_655
O7 P1 1.528378 1_554
O7 Sb2 2.287236 1_555
O8 P2 1.524025 1_556
O8 Sb1 2.341653 1_555
O9 P2 1.591478 1_655
O9 Sb0 2.205314 1_665
O9 Sb2 2.544617 1_555
O10 P2 1.591478 1_555
O10 Sb0 2.205314 1_565
O10 Sb2 2.544617 1_555
O11 P1 1.553540 1_555
O11 Sn0 2.150206 1_555
O12 P0 1.536212 1_565
O12 Sb2 2.194999 1_555
O13 P3 1.590706 1_655
O13 Sb1 2.235376 1_655
O13 Sn0 2.520909 1_555
O14 P3 1.590706 1_555
O14 Sb1 2.235376 1_555
O14 Sn0 2.520909 1_555
O15 P3 1.524586 1_555
O15 Sb0 2.276032 1_565
