# generated using pymatgen
data_HoCrO3
_symmetry_space_group_name_H-M   'P 1'
_cell_length_a   5.21129171
_cell_length_b   5.52912416
_cell_length_c   7.52657970
_cell_angle_alpha   90.00000000
_cell_angle_beta   90.00000000
_cell_angle_gamma   90.00000000
_symmetry_Int_Tables_number   1
_chemical_formula_structural   HoCrO3
_chemical_formula_sum   'Ho4 Cr4 O12'
_cell_volume   216.86995600
_cell_formula_units_Z   4
loop_
 _symmetry_equiv_pos_site_id
 _symmetry_equiv_pos_as_xyz
  1  'x, y, z'
loop_
 _atom_site_type_symbol
 _atom_site_label
 _atom_site_symmetry_multiplicity
 _atom_site_fract_x
 _atom_site_fract_y
 _atom_site_fract_z
 _atom_site_occupancy
  Ho  Ho0  1  0.51981885  0.56977455  0.25000000  1
  Ho  Ho1  1  0.98018115  0.06977455  0.25000000  1
  Ho  Ho2  1  0.48018115  0.43022545  0.75000000  1
  Ho  Ho3  1  0.01981885  0.93022545  0.75000000  1
  Cr  Cr0  1  -0.00000000  0.50000000  -0.00000000  1
  Cr  Cr1  1  0.50000000  -0.00000000  0.50000000  1
  Cr  Cr2  1  -0.00000000  0.50000000  0.50000000  1
  Cr  Cr3  1  0.50000000  -0.00000000  -0.00000000  1
  O  O0  1  0.38788099  0.96112892  0.25000000  1
  O  O1  1  0.11211901  0.46112892  0.25000000  1
  O  O2  1  0.61211901  0.03887108  0.75000000  1
  O  O3  1  0.88788099  0.53887108  0.75000000  1
  O  O4  1  0.80865120  0.80360690  0.05718012  1
  O  O5  1  0.69134880  0.30360690  0.44281988  1
  O  O6  1  0.19134880  0.19639310  0.55718012  1
  O  O7  1  0.30865120  0.69639310  0.94281988  1
  O  O8  1  0.19134880  0.19639310  0.94281988  1
  O  O9  1  0.30865120  0.69639310  0.55718012  1
  O  O10  1  0.80865120  0.80360690  0.44281988  1
  O  O11  1  0.69134880  0.30360690  0.05718012  1
loop_
_geom_bond_atom_site_label_1
_geom_bond_atom_site_label_2
_geom_bond_distance
_geom_bond_site_symmetry_2
Ho0 O1 2.207932 1_555
Ho0 O11 2.251903 1_555
Ho0 O5 2.251903 1_555
Ho0 O0 2.270458 1_555
Ho0 O4 2.458323 1_555
Ho0 O10 2.458323 1_555
Ho0 O7 2.654533 1_554
Ho0 O9 2.654533 1_555
Ho1 O0 2.207932 1_645
Ho1 O10 2.251903 1_545
Ho1 O4 2.251903 1_545
Ho1 O1 2.270458 1_655
Ho1 O11 2.458323 1_555
Ho1 O5 2.458323 1_555
Ho1 O8 2.654533 1_654
Ho1 O6 2.654533 1_655
Ho2 O3 2.207932 1_555
Ho2 O9 2.251903 1_555
Ho2 O7 2.251903 1_555
Ho2 O2 2.270458 1_555
Ho2 O6 2.458323 1_555
Ho2 O8 2.458323 1_555
Ho2 O11 2.654533 1_556
Ho2 O5 2.654533 1_555
Ho3 O2 2.207932 1_465
Ho3 O6 2.251903 1_565
Ho3 O8 2.251903 1_565
Ho3 O3 2.270458 1_455
Ho3 O9 2.458323 1_555
Ho3 O7 2.458323 1_555
Ho3 O4 2.654533 1_456
Ho3 O10 2.654533 1_455
Cr0 O1 1.981961 1_555
Cr0 O3 1.981961 1_454
Cr0 O7 1.987848 1_554
Cr0 O11 1.987848 1_455
Cr0 O8 1.999386 1_554
Cr0 O4 1.999386 1_455
Cr1 O0 1.981961 1_545
Cr1 O2 1.981961 1_555
Cr1 O10 1.987848 1_545
Cr1 O6 1.987848 1_555
Cr1 O5 1.999386 1_555
Cr1 O9 1.999386 1_545
Cr2 O1 1.981961 1_555
Cr2 O3 1.981961 1_455
Cr2 O9 1.987848 1_555
Cr2 O5 1.987848 1_455
Cr2 O6 1.999386 1_555
Cr2 O10 1.999386 1_455
Cr3 O2 1.981961 1_554
Cr3 O0 1.981961 1_545
Cr3 O4 1.987848 1_545
Cr3 O8 1.987848 1_554
Cr3 O11 1.999386 1_555
Cr3 O7 1.999386 1_544
