# generated using pymatgen
data_Li2V2(SO4)3
_symmetry_space_group_name_H-M   'P 1'
_cell_length_a   8.78853500
_cell_length_b   8.98258100
_cell_length_c   12.46126000
_cell_angle_alpha   90.00000000
_cell_angle_beta   90.00000000
_cell_angle_gamma   90.00000000
_symmetry_Int_Tables_number   1
_chemical_formula_structural   Li2V2(SO4)3
_chemical_formula_sum   'Li8 V8 S12 O48'
_cell_volume   983.73831386
_cell_formula_units_Z   4
loop_
 _symmetry_equiv_pos_site_id
 _symmetry_equiv_pos_as_xyz
  1  'x, y, z'
loop_
 _atom_site_type_symbol
 _atom_site_label
 _atom_site_symmetry_multiplicity
 _atom_site_fract_x
 _atom_site_fract_y
 _atom_site_fract_z
 _atom_site_occupancy
  Li  Li0  1  0.21637400  0.27724900  0.18226900  1
  Li  Li1  1  0.78362600  0.77724900  0.18226900  1
  Li  Li2  1  0.28362600  0.77724900  0.31773100  1
  Li  Li3  1  0.71637400  0.27724900  0.31773100  1
  Li  Li4  1  0.28362600  0.72275100  0.68226900  1
  Li  Li5  1  0.71637400  0.22275100  0.68226900  1
  Li  Li6  1  0.21637400  0.22275100  0.81773100  1
  Li  Li7  1  0.78362600  0.72275100  0.81773100  1
  V  V0  1  0.25246400  0.96236000  0.11372800  1
  V  V1  1  0.74753600  0.46236000  0.11372800  1
  V  V2  1  0.75246400  0.96236000  0.38627200  1
  V  V3  1  0.24753600  0.46236000  0.38627200  1
  V  V4  1  0.24753600  0.03764000  0.61372800  1
  V  V5  1  0.75246400  0.53764000  0.61372800  1
  V  V6  1  0.25246400  0.53764000  0.88627200  1
  V  V7  1  0.74753600  0.03764000  0.88627200  1
  S  S0  1  0.45502900  0.25000000  0.00000000  1
  S  S1  1  0.54497100  0.75000000  0.00000000  1
  S  S2  1  0.10241500  0.60569600  0.14675300  1
  S  S3  1  0.89758500  0.10569600  0.14675300  1
  S  S4  1  0.39758500  0.10569600  0.35324700  1
  S  S5  1  0.60241500  0.60569600  0.35324700  1
  S  S6  1  0.04497100  0.75000000  0.50000000  1
  S  S7  1  0.95502900  0.25000000  0.50000000  1
  S  S8  1  0.39758500  0.39430400  0.64675300  1
  S  S9  1  0.60241500  0.89430400  0.64675300  1
  S  S10  1  0.10241500  0.89430400  0.85324700  1
  S  S11  1  0.89758500  0.39430400  0.85324700  1
  O  O0  1  0.13663000  0.57493300  0.03433000  1
  O  O1  1  0.86337000  0.07493300  0.03433000  1
  O  O2  1  0.54509500  0.36134800  0.05726100  1
  O  O3  1  0.45490500  0.86134800  0.05726100  1
  O  O4  1  0.35281700  0.17568300  0.08060300  1
  O  O5  1  0.64718300  0.67568300  0.08060300  1
  O  O6  1  0.06616200  0.11333000  0.16274200  1
  O  O7  1  0.93383800  0.61333000  0.16274200  1
  O  O8  1  0.16865100  0.75107900  0.18179100  1
  O  O9  1  0.83134900  0.25107900  0.18179100  1
  O  O10  1  0.83442100  0.98449500  0.21617800  1
  O  O11  1  0.16557900  0.48449500  0.21617800  1
  O  O12  1  0.33442100  0.98449500  0.28382200  1
  O  O13  1  0.66557900  0.48449500  0.28382200  1
  O  O14  1  0.66865100  0.75107900  0.31820900  1
  O  O15  1  0.33134900  0.25107900  0.31820900  1
  O  O16  1  0.43383800  0.61333000  0.33725800  1
  O  O17  1  0.56616200  0.11333000  0.33725800  1
  O  O18  1  0.14718300  0.67568300  0.41939700  1
  O  O19  1  0.85281700  0.17568300  0.41939700  1
  O  O20  1  0.04509500  0.36134800  0.44273900  1
  O  O21  1  0.95490500  0.86134800  0.44273900  1
  O  O22  1  0.63663000  0.57493300  0.46567000  1
  O  O23  1  0.36337000  0.07493300  0.46567000  1
  O  O24  1  0.36337000  0.42506700  0.53433000  1
  O  O25  1  0.63663000  0.92506700  0.53433000  1
  O  O26  1  0.04509500  0.13865200  0.55726100  1
  O  O27  1  0.95490500  0.63865200  0.55726100  1
  O  O28  1  0.14718300  0.82431700  0.58060300  1
  O  O29  1  0.85281700  0.32431700  0.58060300  1
  O  O30  1  0.43383800  0.88667000  0.66274200  1
  O  O31  1  0.56616200  0.38667000  0.66274200  1
  O  O32  1  0.33134900  0.24892100  0.68179100  1
  O  O33  1  0.66865100  0.74892100  0.68179100  1
  O  O34  1  0.33442100  0.51550500  0.71617800  1
  O  O35  1  0.66557900  0.01550500  0.71617800  1
  O  O36  1  0.16557900  0.01550500  0.78382200  1
  O  O37  1  0.83442100  0.51550500  0.78382200  1
  O  O38  1  0.16865100  0.74892100  0.81820900  1
  O  O39  1  0.83134900  0.24892100  0.81820900  1
  O  O40  1  0.06616200  0.38667000  0.83725800  1
  O  O41  1  0.93383800  0.88667000  0.83725800  1
  O  O42  1  0.35281700  0.32431700  0.91939700  1
  O  O43  1  0.64718300  0.82431700  0.91939700  1
  O  O44  1  0.45490500  0.63865200  0.94273900  1
  O  O45  1  0.54509500  0.13865200  0.94273900  1
  O  O46  1  0.13663000  0.92506700  0.96567000  1
  O  O47  1  0.86337000  0.42506700  0.96567000  1
loop_
_geom_bond_atom_site_label_1
_geom_bond_atom_site_label_2
_geom_bond_distance
_geom_bond_site_symmetry_2
Li0 O11 1.960460 1_555
Li0 O4 1.968568 1_555
Li0 O15 1.986422 1_555
Li0 O6 1.992485 1_555
Li1 O10 1.960460 1_555
Li1 O5 1.968568 1_555
Li1 O14 1.986422 1_555
Li1 O7 1.992485 1_555
Li2 O12 1.960460 1_555
Li2 O18 1.968568 1_555
Li2 O8 1.986422 1_555
Li2 O16 1.992485 1_555
Li3 O13 1.960460 1_555
Li3 O19 1.968568 1_555
Li3 O9 1.986422 1_555
Li3 O17 1.992485 1_555
Li4 O34 1.960460 1_555
Li4 O28 1.968568 1_555
Li4 O38 1.986422 1_555
Li4 O30 1.992485 1_555
Li5 O35 1.960460 1_555
Li5 O29 1.968568 1_555
Li5 O39 1.986422 1_555
Li5 O31 1.992485 1_555
Li6 O36 1.960460 1_555
Li6 O42 1.968568 1_555
Li6 O32 1.986422 1_555
Li6 O40 1.992485 1_555
Li7 O37 1.960460 1_555
Li7 O43 1.968568 1_555
Li7 O33 1.986422 1_555
Li7 O41 1.992485 1_555
O0 S2 1.459243 1_555
O0 V6 2.133670 1_554
O1 S3 1.459243 1_555
O1 V7 2.133670 1_554
O2 S0 1.461533 1_555
O2 V1 2.117502 1_555
O3 S1 1.461533 1_555
O3 V0 2.117502 1_555
O4 S0 1.503800 1_555
O4 V0 2.149423 1_545
O5 S1 1.503800 1_555
O5 V1 2.149423 1_555
O6 S3 1.496454 1_455
O6 V0 2.211985 1_545
O7 S2 1.496454 1_655
O7 V1 2.211985 1_555
O8 S2 1.494961 1_555
O8 V0 2.205393 1_555
O9 S3 1.494961 1_555
O9 V1 2.205393 1_555
O10 S3 1.497283 1_565
O10 V2 2.247439 1_555
O11 S2 1.497283 1_555
O11 V3 2.247439 1_555
O12 S4 1.497283 1_565
O12 V0 2.247439 1_555
O13 S5 1.497283 1_555
O13 V1 2.247439 1_555
O14 S5 1.494961 1_555
O14 V2 2.205393 1_555
O15 S4 1.494961 1_555
O15 V3 2.205393 1_555
O16 S5 1.496454 1_555
O16 V3 2.211985 1_555
O17 S4 1.496454 1_555
O17 V2 2.211985 1_545
O18 S6 1.503800 1_555
O18 V3 2.149423 1_555
O19 S7 1.503800 1_555
O19 V2 2.149423 1_545
O20 S7 1.461533 1_455
O20 V3 2.117502 1_555
O21 S6 1.461533 1_655
O21 V2 2.117502 1_555
O22 S5 1.459243 1_555
O22 V5 2.133670 1_555
O23 S4 1.459243 1_555
O23 V4 2.133670 1_555
O24 S8 1.459243 1_555
O24 V3 2.133670 1_555
O25 S9 1.459243 1_555
O25 V2 2.133670 1_555
O26 S7 1.461533 1_455
O26 V4 2.117502 1_555
O27 S6 1.461533 1_655
O27 V5 2.117502 1_555
O28 S6 1.503800 1_555
O28 V4 2.149423 1_565
O29 S7 1.503800 1_555
O29 V5 2.149423 1_555
O30 S9 1.496454 1_555
O30 V4 2.211985 1_565
O31 S8 1.496454 1_555
O31 V5 2.211985 1_555
O32 S8 1.494961 1_555
O32 V4 2.205393 1_555
O33 S9 1.494961 1_555
O33 V5 2.205393 1_555
O34 S8 1.497283 1_555
O34 V6 2.247439 1_555
O35 S9 1.497283 1_545
O35 V7 2.247439 1_555
O36 S10 1.497283 1_545
O36 V4 2.247439 1_555
O37 S11 1.497283 1_555
O37 V5 2.247439 1_555
O38 S10 1.494961 1_555
O38 V6 2.205393 1_555
O39 S11 1.494961 1_555
O39 V7 2.205393 1_555
O40 S11 1.496454 1_455
O40 V6 2.211985 1_555
O41 S10 1.496454 1_655
O41 V7 2.211985 1_565
O42 S0 1.503800 1_556
O42 V6 2.149423 1_555
O43 S1 1.503800 1_556
O43 V7 2.149423 1_565
O44 S1 1.461533 1_556
O44 V6 2.117502 1_555
O45 S0 1.461533 1_556
O45 V7 2.117502 1_555
O46 S10 1.459243 1_555
O46 V0 2.133670 1_556
O47 S11 1.459243 1_555
O47 V1 2.133670 1_556
