# generated using pymatgen
data_H10SeO8
_symmetry_space_group_name_H-M   'P 1'
_cell_length_a   5.98311566
_cell_length_b   9.24521244
_cell_length_c   12.66613597
_cell_angle_alpha   90.00000000
_cell_angle_beta   90.00000000
_cell_angle_gamma   90.00000000
_symmetry_Int_Tables_number   1
_chemical_formula_structural   H10SeO8
_chemical_formula_sum   'H40 Se4 O32'
_cell_volume   700.62953193
_cell_formula_units_Z   4
loop_
 _symmetry_equiv_pos_site_id
 _symmetry_equiv_pos_as_xyz
  1  'x, y, z'
loop_
 _atom_site_type_symbol
 _atom_site_label
 _atom_site_symmetry_multiplicity
 _atom_site_fract_x
 _atom_site_fract_y
 _atom_site_fract_z
 _atom_site_occupancy
  H  H0  1  0.01069011  0.19498100  0.10469864  1
  H  H1  1  0.01069011  0.19498100  0.39530136  1
  H  H2  1  0.05295018  0.35971204  0.14525378  1
  H  H3  1  0.05295018  0.35971204  0.35474622  1
  H  H4  1  0.05075019  0.33041799  0.00957033  1
  H  H5  1  0.05075019  0.33041799  0.49042967  1
  H  H6  1  0.10972062  0.29744192  0.64350065  1
  H  H7  1  0.10972062  0.29744192  0.85649935  1
  H  H8  1  0.25628464  0.93215009  0.10002727  1
  H  H9  1  0.25628464  0.93215009  0.39997273  1
  H  H10  1  0.24371536  0.43215009  0.60002727  1
  H  H11  1  0.24371536  0.43215009  0.89997273  1
  H  H12  1  0.39027938  0.79744192  0.14350065  1
  H  H13  1  0.39027938  0.79744192  0.35649935  1
  H  H14  1  0.44924981  0.83041799  0.50957033  1
  H  H15  1  0.44924981  0.83041799  0.99042967  1
  H  H16  1  0.44704982  0.85971204  0.64525378  1
  H  H17  1  0.44704982  0.85971204  0.85474622  1
  H  H18  1  0.48930989  0.69498100  0.60469864  1
  H  H19  1  0.48930989  0.69498100  0.89530136  1
  H  H20  1  0.51069011  0.30501900  0.10469864  1
  H  H21  1  0.51069011  0.30501900  0.39530136  1
  H  H22  1  0.55295018  0.14028796  0.14525378  1
  H  H23  1  0.55295018  0.14028796  0.35474622  1
  H  H24  1  0.55075019  0.16958201  0.00957033  1
  H  H25  1  0.55075019  0.16958201  0.49042967  1
  H  H26  1  0.60972062  0.20255808  0.64350065  1
  H  H27  1  0.60972062  0.20255808  0.85649935  1
  H  H28  1  0.75628464  0.56784991  0.10002727  1
  H  H29  1  0.75628464  0.56784991  0.39997273  1
  H  H30  1  0.74371536  0.06784991  0.60002727  1
  H  H31  1  0.74371536  0.06784991  0.89997273  1
  H  H32  1  0.89027938  0.70255808  0.14350065  1
  H  H33  1  0.89027938  0.70255808  0.35649935  1
  H  H34  1  0.94924981  0.66958201  0.50957033  1
  H  H35  1  0.94924981  0.66958201  0.99042967  1
  H  H36  1  0.94704982  0.64028796  0.64525378  1
  H  H37  1  0.94704982  0.64028796  0.85474622  1
  H  H38  1  0.98930989  0.80501900  0.60469864  1
  H  H39  1  0.98930989  0.80501900  0.89530136  1
  Se  Se0  1  0.10908842  0.01422896  0.75000000  1
  Se  Se1  1  0.39091158  0.51422896  0.25000000  1
  Se  Se2  1  0.60908842  0.48577104  0.75000000  1
  Se  Se3  1  0.89091158  0.98577104  0.25000000  1
  O  O0  1  0.01492874  0.69989117  0.58670058  1
  O  O1  1  0.01492874  0.69989117  0.91329942  1
  O  O2  1  0.02767983  0.03238160  0.14130219  1
  O  O3  1  0.02767983  0.03238160  0.35869781  1
  O  O4  1  0.14604545  0.19002643  0.75000000  1
  O  O5  1  0.11011147  0.37218138  0.58777399  1
  O  O6  1  0.11011147  0.37218138  0.91222601  1
  O  O7  1  0.15090218  0.42400114  0.25000000  1
  O  O8  1  0.34909782  0.92400114  0.75000000  1
  O  O9  1  0.38988853  0.87218138  0.08777399  1
  O  O10  1  0.38988853  0.87218138  0.41222601  1
  O  O11  1  0.35395455  0.69002643  0.25000000  1
  O  O12  1  0.47232017  0.53238160  0.64130219  1
  O  O13  1  0.47232017  0.53238160  0.85869781  1
  O  O14  1  0.48507126  0.19989117  0.08670058  1
  O  O15  1  0.48507126  0.19989117  0.41329942  1
  O  O16  1  0.51492874  0.80010883  0.58670058  1
  O  O17  1  0.51492874  0.80010883  0.91329942  1
  O  O18  1  0.52767983  0.46761840  0.14130219  1
  O  O19  1  0.52767983  0.46761840  0.35869781  1
  O  O20  1  0.64604545  0.30997357  0.75000000  1
  O  O21  1  0.61011147  0.12781862  0.58777399  1
  O  O22  1  0.61011147  0.12781862  0.91222601  1
  O  O23  1  0.65090218  0.07599886  0.25000000  1
  O  O24  1  0.84909782  0.57599886  0.75000000  1
  O  O25  1  0.88988853  0.62781862  0.08777399  1
  O  O26  1  0.88988853  0.62781862  0.41222601  1
  O  O27  1  0.85395455  0.80997357  0.25000000  1
  O  O28  1  0.97232017  0.96761840  0.64130219  1
  O  O29  1  0.97232017  0.96761840  0.85869781  1
  O  O30  1  -0.01492874  0.30010883  0.08670058  1
  O  O31  1  -0.01492874  0.30010883  0.41329942  1
loop_
_geom_bond_atom_site_label_1
_geom_bond_atom_site_label_2
_geom_bond_distance
_geom_bond_site_symmetry_2
H0 O30 1.010005 1_555
H0 O2 1.576417 1_555
H1 O31 1.010005 1_555
H1 O3 1.576417 1_555
H2 O30 1.009269 1_555
H2 O7 1.567465 1_555
H3 O31 1.009269 1_555
H3 O7 1.567465 1_555
H4 O30 1.089659 1_555
H4 O6 1.339946 1_554
H5 O31 1.089659 1_555
H5 O5 1.339946 1_555
H6 O5 0.987762 1_555
H6 O4 1.689102 1_555
H7 O6 0.987762 1_555
H7 O4 1.689102 1_555
H8 O9 0.985120 1_555
H8 O2 1.732861 1_565
H9 O10 0.985120 1_555
H9 O3 1.732861 1_565
H10 O5 0.985120 1_555
H10 O12 1.732861 1_555
H11 O6 0.985120 1_555
H11 O13 1.732861 1_555
H12 O9 0.987762 1_555
H12 O11 1.689102 1_555
H13 O10 0.987762 1_555
H13 O11 1.689102 1_555
H14 O16 1.089659 1_555
H14 O10 1.339946 1_555
H15 O17 1.089659 1_555
H15 O9 1.339946 1_556
H16 O16 1.009269 1_555
H16 O8 1.567465 1_555
H17 O17 1.009269 1_555
H17 O8 1.567465 1_555
H18 O16 1.010005 1_555
H18 O12 1.576417 1_555
H19 O17 1.010005 1_555
H19 O13 1.576417 1_555
H20 O14 1.010005 1_555
H20 O18 1.576417 1_555
H21 O15 1.010005 1_555
H21 O19 1.576417 1_555
H22 O14 1.009269 1_555
H22 O23 1.567465 1_555
H23 O15 1.009269 1_555
H23 O23 1.567465 1_555
H24 O14 1.089659 1_555
H24 O22 1.339946 1_554
H25 O15 1.089659 1_555
H25 O21 1.339946 1_555
H26 O21 0.987762 1_555
H26 O20 1.689102 1_555
H27 O22 0.987762 1_555
H27 O20 1.689102 1_555
H28 O25 0.985120 1_555
H28 O18 1.732861 1_555
H29 O26 0.985120 1_555
H29 O19 1.732861 1_555
H30 O21 0.985120 1_555
H30 O28 1.732861 1_545
H31 O22 0.985120 1_555
H31 O29 1.732861 1_545
H32 O25 0.987762 1_555
H32 O27 1.689102 1_555
H33 O26 0.987762 1_555
H33 O27 1.689102 1_555
H34 O0 1.089659 1_655
H34 O26 1.339946 1_555
H35 O1 1.089659 1_655
H35 O25 1.339946 1_556
H36 O0 1.009269 1_655
H36 O24 1.567465 1_555
H37 O1 1.009269 1_655
H37 O24 1.567465 1_555
H38 O0 1.010005 1_655
H38 O28 1.576417 1_555
H39 O1 1.010005 1_655
H39 O29 1.576417 1_555
O2 Se3 1.658565 1_445
O3 Se3 1.658565 1_445
O4 Se0 1.640257 1_555
O7 Se1 1.660709 1_555
O8 Se0 1.660709 1_565
O11 Se1 1.640257 1_555
O12 Se2 1.658565 1_555
O13 Se2 1.658565 1_555
O18 Se1 1.658565 1_555
O19 Se1 1.658565 1_555
O20 Se2 1.640257 1_555
O23 Se3 1.660709 1_545
O24 Se2 1.660709 1_555
O27 Se3 1.640257 1_555
O28 Se0 1.658565 1_665
O29 Se0 1.658565 1_665
