# generated using pymatgen
data_LiMn(PO3)3
_symmetry_space_group_name_H-M   'P 1'
_cell_length_a   9.55095800
_cell_length_b   9.60382173
_cell_length_c   9.85807997
_cell_angle_alpha   108.70033037
_cell_angle_beta   104.49233933
_cell_angle_gamma   109.87710633
_symmetry_Int_Tables_number   1
_chemical_formula_structural   LiMn(PO3)3
_chemical_formula_sum   'Li4 Mn4 P12 O36'
_cell_volume   737.06067348
_cell_formula_units_Z   4
loop_
 _symmetry_equiv_pos_site_id
 _symmetry_equiv_pos_as_xyz
  1  'x, y, z'
loop_
 _atom_site_type_symbol
 _atom_site_label
 _atom_site_symmetry_multiplicity
 _atom_site_fract_x
 _atom_site_fract_y
 _atom_site_fract_z
 _atom_site_occupancy
  Li  Li0  1  0.22992400  0.77216600  0.74731600  1
  Li  Li1  1  0.93200700  0.68740800  0.79034700  1
  Li  Li2  1  0.06799300  0.31259200  0.20965300  1
  Li  Li3  1  0.77007600  0.22783400  0.25268400  1
  Mn  Mn0  1  0.67191700  0.07153000  0.49302900  1
  Mn  Mn1  1  0.62579400  0.82354100  0.70257800  1
  Mn  Mn2  1  0.37420600  0.17645900  0.29742200  1
  Mn  Mn3  1  0.32808300  0.92847000  0.50697100  1
  P  P0  1  0.19333800  0.08200400  0.91250800  1
  P  P1  1  0.51708200  0.14683800  0.89287400  1
  P  P2  1  0.01285000  0.39679800  0.64795800  1
  P  P3  1  0.95594800  0.21376900  0.84154800  1
  P  P4  1  0.57874200  0.34123000  0.71152200  1
  P  P5  1  0.32466900  0.43280800  0.59619200  1
  P  P6  1  0.67533100  0.56719200  0.40380800  1
  P  P7  1  0.42125800  0.65877000  0.28847800  1
  P  P8  1  0.04405200  0.78623100  0.15845200  1
  P  P9  1  0.98715000  0.60320200  0.35204200  1
  P  P10  1  0.48291800  0.85316200  0.10712600  1
  P  P11  1  0.80666200  0.91799600  0.08749200  1
  O  O0  1  0.04645400  0.73069700  0.00226100  1
  O  O1  1  0.36340200  0.17664600  0.90121100  1
  O  O2  1  0.10260200  0.16931500  0.83640700  1
  O  O3  1  0.00855200  0.36628600  0.79805100  1
  O  O4  1  0.60701000  0.29888700  0.85686000  1
  O  O5  1  0.37635000  0.82794500  0.95582600  1
  O  O6  1  0.11255200  0.90236400  0.80362100  1
  O  O7  1  0.04025000  0.56831400  0.68299800  1
  O  O8  1  0.16826000  0.37331700  0.63446600  1
  O  O9  1  0.43294400  0.38757900  0.71461400  1
  O  O10  1  0.79763200  0.06914900  0.70380200  1
  O  O11  1  0.77912800  0.86174400  0.91727200  1
  O  O12  1  0.72703200  0.47815300  0.73558700  1
  O  O13  1  0.50773400  0.17596600  0.55922000  1
  O  O14  1  0.40198400  0.61652600  0.64907900  1
  O  O15  1  0.45750100  0.98526400  0.74595500  1
  O  O16  1  0.28452500  0.31739400  0.43121900  1
  O  O17  1  0.13530000  0.74340900  0.49491400  1
  O  O18  1  0.86470000  0.25659100  0.50508600  1
  O  O19  1  0.71547500  0.68260600  0.56878100  1
  O  O20  1  0.54249900  0.01473600  0.25404500  1
  O  O21  1  0.59801600  0.38347400  0.35092100  1
  O  O22  1  0.49226600  0.82403400  0.44078000  1
  O  O23  1  0.27296800  0.52184700  0.26441300  1
  O  O24  1  0.22087200  0.13825600  0.08272800  1
  O  O25  1  0.20236800  0.93085100  0.29619800  1
  O  O26  1  0.56705600  0.61242100  0.28538600  1
  O  O27  1  0.83174000  0.62668300  0.36553400  1
  O  O28  1  0.95975000  0.43168600  0.31700200  1
  O  O29  1  0.88744800  0.09763600  0.19637900  1
  O  O30  1  0.62365000  0.17205500  0.04417400  1
  O  O31  1  0.39299000  0.70111300  0.14314000  1
  O  O32  1  0.99144800  0.63371400  0.20194900  1
  O  O33  1  0.89739800  0.83068500  0.16359300  1
  O  O34  1  0.63659800  0.82335400  0.09878900  1
  O  O35  1  0.95354600  0.26930300  0.99773900  1
loop_
_geom_bond_atom_site_label_1
_geom_bond_atom_site_label_2
_geom_bond_distance
_geom_bond_site_symmetry_2
Li0 O7 1.932363 1_555
Li0 O5 1.952850 1_555
Li0 O6 1.986912 1_555
Li0 O17 2.312643 1_555
Li0 O15 2.433167 1_555
Li1 O0 1.929511 1_656
Li1 O7 2.018013 1_655
Li1 O12 2.064646 1_555
Li1 O6 2.132016 1_655
Li1 O19 2.580625 1_555
Li2 O35 1.929511 1_454
Li2 O28 2.018013 1_455
Li2 O23 2.064646 1_555
Li2 O29 2.132016 1_455
Li2 O16 2.580625 1_555
Li3 O28 1.932363 1_555
Li3 O30 1.952850 1_555
Li3 O29 1.986912 1_555
Li3 O18 2.312643 1_555
Li3 O20 2.433167 1_555
Mn0 O18 2.023080 1_555
Mn0 O10 2.135414 1_555
Mn0 O20 2.153087 1_555
Mn0 O22 2.204170 1_545
Mn0 O13 2.247814 1_555
Mn1 O11 2.084261 1_555
Mn1 O19 2.124713 1_555
Mn1 O14 2.161859 1_555
Mn1 O10 2.365779 1_565
Mn1 O22 2.579094 1_555
Mn1 O15 2.606630 1_555
Mn2 O24 2.084261 1_555
Mn2 O16 2.124713 1_555
Mn2 O21 2.161859 1_555
Mn2 O25 2.365779 1_545
Mn2 O13 2.579094 1_555
Mn2 O20 2.606630 1_555
Mn3 O17 2.023080 1_555
Mn3 O25 2.135414 1_555
Mn3 O15 2.153087 1_555
Mn3 O13 2.204170 1_565
Mn3 O22 2.247814 1_555
O0 P8 1.468060 1_555
O1 P1 1.604412 1_555
O1 P0 1.621213 1_555
O2 P3 1.604697 1_455
O2 P0 1.609061 1_555
O3 P2 1.605335 1_555
O3 P3 1.609943 1_455
O4 P4 1.595526 1_555
O4 P1 1.621195 1_555
O5 P10 1.469766 1_556
O6 P0 1.488877 1_565
O7 P2 1.482522 1_555
O8 P5 1.593847 1_555
O8 P2 1.605903 1_555
O9 P4 1.603807 1_555
O9 P5 1.627067 1_555
O10 P3 1.547320 1_555
O11 P11 1.509324 1_556
O12 P4 1.468581 1_555
O13 P4 1.569589 1_555
O14 P5 1.503882 1_555
O15 P1 1.541191 1_565
O16 P5 1.504494 1_555
O17 P9 1.513213 1_455
O18 P2 1.513213 1_655
O19 P6 1.504494 1_555
O20 P10 1.541191 1_545
O21 P6 1.503882 1_555
O22 P7 1.569589 1_555
O23 P7 1.468581 1_555
O24 P0 1.509324 1_554
O25 P8 1.547320 1_555
O26 P7 1.603807 1_555
O26 P6 1.627067 1_555
O27 P6 1.593847 1_555
O27 P9 1.605903 1_555
O28 P9 1.482522 1_555
O29 P11 1.488877 1_545
O30 P1 1.469766 1_554
O31 P7 1.595526 1_555
O31 P10 1.621195 1_555
O32 P9 1.605335 1_555
O32 P8 1.609943 1_655
O33 P8 1.604697 1_655
O33 P11 1.609061 1_555
O34 P10 1.604412 1_555
O34 P11 1.621213 1_555
O35 P3 1.468060 1_555
