# generated using pymatgen
data_MnNiO2
_symmetry_space_group_name_H-M   'P 1'
_cell_length_a   3.09443700
_cell_length_b   3.09443700
_cell_length_c   4.37408700
_cell_angle_alpha   90.00000000
_cell_angle_beta   90.00000000
_cell_angle_gamma   90.00000000
_symmetry_Int_Tables_number   1
_chemical_formula_structural   MnNiO2
_chemical_formula_sum   'Mn1 Ni1 O2'
_cell_volume   41.88424655
_cell_formula_units_Z   1
loop_
 _symmetry_equiv_pos_site_id
 _symmetry_equiv_pos_as_xyz
  1  'x, y, z'
loop_
 _atom_site_type_symbol
 _atom_site_label
 _atom_site_symmetry_multiplicity
 _atom_site_fract_x
 _atom_site_fract_y
 _atom_site_fract_z
 _atom_site_occupancy
  Mn  Mn0  1  0.50000000  0.50000000  0.50000000  1
  Ni  Ni0  1  0.00000000  0.00000000  0.00000000  1
  O  O0  1  0.50000000  0.50000000  0.00000000  1
  O  O1  1  0.00000000  0.00000000  0.50000000  1
loop_
_geom_bond_atom_site_label_1
_geom_bond_atom_site_label_2
_geom_bond_distance
_geom_bond_site_symmetry_2
Mn0 O0 2.187044 1_555
Mn0 O0 2.187044 1_556
Mn0 O1 2.188097 1_565
Mn0 O1 2.188097 1_665
Mn0 O1 2.188097 1_555
Mn0 O1 2.188097 1_655
Ni0 O1 2.187044 1_555
Ni0 O1 2.187044 1_554
Ni0 O0 2.188097 1_555
Ni0 O0 2.188097 1_545
Ni0 O0 2.188097 1_445
Ni0 O0 2.188097 1_455
