# generated using pymatgen
data_Li5(NiO2)8
_symmetry_space_group_name_H-M   'P 1'
_cell_length_a   7.60254418
_cell_length_b   6.49874059
_cell_length_c   12.38059412
_cell_angle_alpha   99.84247354
_cell_angle_beta   88.24516462
_cell_angle_gamma   65.68128902
_symmetry_Int_Tables_number   1
_chemical_formula_structural   Li5(NiO2)8
_chemical_formula_sum   'Li10 Ni16 O32'
_cell_volume   545.72035654
_cell_formula_units_Z   2
loop_
 _symmetry_equiv_pos_site_id
 _symmetry_equiv_pos_as_xyz
  1  'x, y, z'
loop_
 _atom_site_type_symbol
 _atom_site_label
 _atom_site_symmetry_multiplicity
 _atom_site_fract_x
 _atom_site_fract_y
 _atom_site_fract_z
 _atom_site_occupancy
  Li  Li0  1  0.24388900  0.12713100  0.87499800  1
  Li  Li1  1  0.13537700  0.81254100  0.18241400  1
  Li  Li2  1  0.25945100  0.63080600  0.37247700  1
  Li  Li3  1  0.35990400  0.43676600  0.56053000  1
  Li  Li4  1  0.49408400  0.24449000  0.75392100  1
  Li  Li5  1  0.37424300  0.93942200  0.06100600  1
  Li  Li6  1  0.77757500  0.38480400  0.61474900  1
  Li  Li7  1  0.87411400  0.18179400  0.82140800  1
  Li  Li8  1  0.75412700  0.87815500  0.11417800  1
  Li  Li9  1  0.84349400  0.67580000  0.32397400  1
  Ni  Ni0  1  0.06682400  0.39910000  0.09356300  1
  Ni  Ni1  1  0.19012000  0.21455100  0.28219200  1
  Ni  Ni2  1  0.31033400  0.03150100  0.47001000  1
  Ni  Ni3  1  0.06286000  0.90435100  0.59343400  1
  Ni  Ni4  1  0.19536900  0.71610000  0.78158800  1
  Ni  Ni5  1  0.31351500  0.52829500  0.96775200  1
  Ni  Ni6  1  0.43605800  0.34573500  0.15724500  1
  Ni  Ni7  1  0.56178000  0.15639600  0.34244100  1
  Ni  Ni8  1  0.43223000  0.85218300  0.65917400  1
  Ni  Ni9  1  0.55783700  0.66236100  0.84529100  1
  Ni  Ni10  1  0.68581400  0.46813300  0.03166700  1
  Ni  Ni11  1  0.80896800  0.28722700  0.21973900  1
  Ni  Ni12  1  0.92922300  0.09416600  0.40419900  1
  Ni  Ni13  1  0.68919800  0.96592300  0.53016400  1
  Ni  Ni14  1  0.81663200  0.77777500  0.71797600  1
  Ni  Ni15  1  0.93851800  0.59587600  0.90452200  1
  O  O0  1  0.02441200  0.16611400  0.53332900  1
  O  O1  1  0.10107900  0.13046900  0.15226100  1
  O  O2  1  0.04081400  0.66716600  0.03981200  1
  O  O3  1  0.17988900  0.48558700  0.22698400  1
  O  O4  1  0.10465000  0.63933400  0.65056500  1
  O  O5  1  0.22398000  0.45009400  0.83629600  1
  O  O6  1  0.32772800  0.25505800  0.03066100  1
  O  O7  1  0.30308800  0.29552100  0.40679400  1
  O  O8  1  0.43848500  0.12198800  0.60075300  1
  O  O9  1  0.47388200  0.07866300  0.20913700  1
  O  O10  1  0.18164400  0.94833400  0.33538900  1
  O  O11  1  0.17020800  0.98385400  0.73613400  1
  O  O12  1  0.40430900  0.60787100  0.09976900  1
  O  O13  1  0.32680500  0.76463500  0.53108600  1
  O  O14  1  0.30037800  0.80474800  0.90982500  1
  O  O15  1  0.52646800  0.42261400  0.28902800  1
  O  O16  1  0.45770700  0.57064800  0.71893300  1
  O  O17  1  0.69731000  0.21527000  0.09259500  1
  O  O18  1  0.66646500  0.22720000  0.47436500  1
  O  O19  1  0.58294500  0.39513700  0.89260200  1
  O  O20  1  0.82129400  0.01923000  0.27463600  1
  O  O21  1  0.79605000  0.04403300  0.65996800  1
  O  O22  1  0.52769500  0.92904500  0.79106600  1
  O  O23  1  0.59060200  0.89645300  0.40019900  1
  O  O24  1  0.70294400  0.71274100  0.59215900  1
  O  O25  1  0.65004700  0.73508600  0.98001600  1
  O  O26  1  0.81151400  0.54631700  0.16340000  1
  O  O27  1  0.91032600  0.35492500  0.34879400  1
  O  O28  1  0.81549800  0.52036300  0.77709300  1
  O  O29  1  0.96196900  0.33107400  0.95454500  1
  O  O30  1  0.93327600  0.84920300  0.84302900  1
  O  O31  1  0.94445100  0.82946900  0.45151600  1
loop_
_geom_bond_atom_site_label_1
_geom_bond_atom_site_label_2
_geom_bond_distance
_geom_bond_site_symmetry_2
Li0 O11 2.019348 1_545
Li0 O14 2.082990 1_545
Li0 O29 2.098836 1_455
Li0 O22 2.123697 1_545
Li0 O5 2.178140 1_555
Li0 O6 2.185279 1_556
Li1 O12 2.040370 1_555
Li1 O10 2.052925 1_555
Li1 O1 2.074171 1_565
Li1 O2 2.143196 1_555
Li1 O3 2.180320 1_555
Li1 O20 2.340218 1_465
Li2 O15 2.037257 1_555
Li2 O10 2.038169 1_555
Li2 O3 2.111131 1_555
Li2 O13 2.172358 1_555
Li2 O7 2.183590 1_555
Li2 O31 2.288562 1_455
Li3 O4 2.000787 1_555
Li3 O8 2.037047 1_555
Li3 O7 2.105106 1_555
Li3 O13 2.136774 1_555
Li3 O18 2.271882 1_555
Li3 O16 2.279183 1_555
Li4 O5 2.046514 1_555
Li4 O8 2.053918 1_555
Li4 O22 2.092205 1_545
Li4 O19 2.098547 1_555
Li4 O16 2.143671 1_555
Li4 O21 2.274993 1_555
Li5 O6 2.036645 1_565
Li5 O25 2.070780 1_554
Li5 O1 2.093769 1_565
Li5 O14 2.119852 1_554
Li5 O9 2.199616 1_565
Li5 O12 2.209012 1_555
Li6 O0 1.937854 1_655
Li6 O24 2.039518 1_555
Li6 O28 2.130331 1_555
Li6 O18 2.230980 1_555
Li6 O21 2.325943 1_555
Li6 O16 2.427427 1_555
Li7 O29 2.039274 1_555
Li7 O30 2.085708 1_545
Li7 O19 2.129374 1_555
Li7 O11 2.200413 1_645
Li7 O28 2.227309 1_555
Li7 O21 2.246584 1_555
Li8 O25 2.099518 1_554
Li8 O2 2.112414 1_655
Li8 O17 2.117894 1_565
Li8 O9 2.157710 1_565
Li8 O20 2.207439 1_565
Li8 O26 2.214269 1_555
Li9 O23 1.949062 1_555
Li9 O27 2.014194 1_555
Li9 O31 2.060635 1_555
Li9 O26 2.084595 1_555
Li9 O20 2.354775 1_565
Li9 O3 2.492228 1_655
Ni0 O26 1.874922 1_455
Ni0 O6 1.882560 1_555
Ni0 O2 1.907226 1_555
Ni0 O1 1.927304 1_555
Ni0 O29 1.976699 1_454
Ni0 O3 1.987664 1_555
Ni1 O1 1.848062 1_555
Ni1 O7 1.889472 1_555
Ni1 O3 1.969201 1_555
Ni1 O10 1.977336 1_545
Ni1 O27 2.018426 1_455
Ni1 O9 2.071290 1_555
Ni2 O13 1.967358 1_545
Ni2 O7 1.985808 1_555
Ni2 O23 2.035937 1_545
Ni2 O8 2.039157 1_555
Ni2 O0 2.049372 1_555
Ni2 O10 2.062669 1_545
Ni3 O4 1.883358 1_555
Ni3 O0 1.889332 1_565
Ni3 O13 1.900473 1_555
Ni3 O21 1.934572 1_465
Ni3 O11 2.043965 1_555
Ni3 O31 2.073574 1_455
Ni4 O4 1.852337 1_555
Ni4 O11 1.856965 1_555
Ni4 O30 1.886754 1_455
Ni4 O16 1.890723 1_555
Ni4 O5 1.895815 1_555
Ni4 O14 1.906199 1_555
Ni5 O5 1.854827 1_555
Ni5 O12 1.868009 1_556
Ni5 O19 1.989558 1_555
Ni5 O2 1.994759 1_556
Ni5 O14 2.012255 1_555
Ni5 O6 2.022703 1_556
Ni6 O15 1.859264 1_555
Ni6 O9 1.867972 1_555
Ni6 O3 1.880237 1_555
Ni6 O12 1.884940 1_555
Ni6 O17 1.894219 1_555
Ni6 O6 1.909100 1_555
Ni7 O9 1.867100 1_555
Ni7 O7 1.874412 1_555
Ni7 O15 1.876705 1_555
Ni7 O23 1.879043 1_545
Ni7 O20 1.893705 1_555
Ni7 O18 1.907117 1_555
Ni8 O22 1.880145 1_555
Ni8 O13 1.904167 1_555
Ni8 O11 1.951755 1_555
Ni8 O24 1.961549 1_555
Ni8 O8 2.024829 1_565
Ni8 O16 2.027832 1_555
Ni9 O19 1.864660 1_555
Ni9 O14 1.866951 1_555
Ni9 O16 1.873471 1_555
Ni9 O28 1.882860 1_555
Ni9 O25 1.889959 1_555
Ni9 O22 1.893931 1_555
Ni10 O25 1.869220 1_554
Ni10 O17 1.893828 1_555
Ni10 O19 1.977307 1_554
Ni10 O26 2.010826 1_555
Ni10 O12 2.035392 1_555
Ni10 O29 2.039393 1_554
Ni11 O27 1.858642 1_555
Ni11 O17 1.890571 1_555
Ni11 O26 1.936355 1_555
Ni11 O20 1.943761 1_555
Ni11 O15 2.048283 1_555
Ni11 O1 2.097543 1_655
Ni12 O0 1.841789 1_655
Ni12 O10 1.852716 1_645
Ni12 O31 1.870910 1_545
Ni12 O27 1.888325 1_555
Ni12 O20 1.904239 1_555
Ni12 O18 1.925388 1_555
Ni13 O8 1.851542 1_565
Ni13 O23 1.859827 1_555
Ni13 O18 1.885962 1_565
Ni13 O24 1.897972 1_555
Ni13 O21 1.908111 1_565
Ni13 O31 1.916256 1_555
Ni14 O24 1.873583 1_555
Ni14 O30 1.891115 1_555
Ni14 O21 1.934702 1_565
Ni14 O28 1.940174 1_555
Ni14 O4 2.075919 1_655
Ni14 O22 2.099073 1_555
Ni15 O29 1.869543 1_555
Ni15 O30 1.915161 1_555
Ni15 O2 1.932936 1_656
Ni15 O28 1.951465 1_555
Ni15 O5 2.059534 1_655
Ni15 O25 2.110220 1_555
