# generated using pymatgen
data_Mo3(NO5)2
_symmetry_space_group_name_H-M   'P 1'
_cell_length_a   7.73981300
_cell_length_b   9.55719200
_cell_length_c   13.60822700
_cell_angle_alpha   90.00000000
_cell_angle_beta   90.00000000
_cell_angle_gamma   90.00000000
_symmetry_Int_Tables_number   1
_chemical_formula_structural   Mo3(NO5)2
_chemical_formula_sum   'Mo12 N8 O40'
_cell_volume   1006.61251126
_cell_formula_units_Z   4
loop_
 _symmetry_equiv_pos_site_id
 _symmetry_equiv_pos_as_xyz
  1  'x, y, z'
loop_
 _atom_site_type_symbol
 _atom_site_label
 _atom_site_symmetry_multiplicity
 _atom_site_fract_x
 _atom_site_fract_y
 _atom_site_fract_z
 _atom_site_occupancy
  Mo  Mo0  1  0.00269800  0.14422400  0.90891300  1
  Mo  Mo1  1  0.49730200  0.35577600  0.40891300  1
  Mo  Mo2  1  0.50269800  0.85577600  0.09108700  1
  Mo  Mo3  1  0.99730200  0.64422400  0.59108700  1
  Mo  Mo4  1  0.99730200  0.85577600  0.09108700  1
  Mo  Mo5  1  0.50269800  0.64422400  0.59108700  1
  Mo  Mo6  1  0.49730200  0.14422400  0.90891300  1
  Mo  Mo7  1  0.00269800  0.35577600  0.40891300  1
  Mo  Mo8  1  0.75000000  0.35330900  0.61070100  1
  Mo  Mo9  1  0.75000000  0.14669100  0.11070100  1
  Mo  Mo10  1  0.25000000  0.64669100  0.38929900  1
  Mo  Mo11  1  0.25000000  0.85330900  0.88929900  1
  N  N0  1  0.75000000  0.53609700  0.92002600  1
  N  N1  1  0.75000000  0.96390300  0.42002600  1
  N  N2  1  0.25000000  0.46390300  0.07997400  1
  N  N3  1  0.25000000  0.03609700  0.57997400  1
  N  N4  1  0.25000000  0.39432300  0.74585100  1
  N  N5  1  0.25000000  0.10567700  0.24585100  1
  N  N6  1  0.75000000  0.60567700  0.25414900  1
  N  N7  1  0.75000000  0.89432300  0.75414900  1
  O  O0  1  0.75000000  0.17138300  0.59800800  1
  O  O1  1  0.75000000  0.32861700  0.09800800  1
  O  O2  1  0.25000000  0.82861700  0.40199200  1
  O  O3  1  0.25000000  0.67138300  0.90199200  1
  O  O4  1  0.75000000  0.37496600  0.73833800  1
  O  O5  1  0.75000000  0.12503400  0.23833800  1
  O  O6  1  0.25000000  0.62503400  0.26166200  1
  O  O7  1  0.25000000  0.87496600  0.76166200  1
  O  O8  1  0.75000000  0.58820900  0.57799000  1
  O  O9  1  0.75000000  0.91179100  0.07799000  1
  O  O10  1  0.25000000  0.41179100  0.42201000  1
  O  O11  1  0.25000000  0.08820900  0.92201000  1
  O  O12  1  0.51555000  0.40703900  0.57025700  1
  O  O13  1  0.98445000  0.09296100  0.07025700  1
  O  O14  1  0.01555000  0.59296100  0.42974300  1
  O  O15  1  0.48445000  0.90703900  0.92974300  1
  O  O16  1  0.48445000  0.59296100  0.42974300  1
  O  O17  1  0.01555000  0.90703900  0.92974300  1
  O  O18  1  0.98445000  0.40703900  0.57025700  1
  O  O19  1  0.51555000  0.09296100  0.07025700  1
  O  O20  1  0.48852700  0.62927200  0.71813300  1
  O  O21  1  0.01147300  0.87072800  0.21813300  1
  O  O22  1  0.98852700  0.37072800  0.28186700  1
  O  O23  1  0.51147300  0.12927200  0.78186700  1
  O  O24  1  0.51147300  0.37072800  0.28186700  1
  O  O25  1  0.98852700  0.12927200  0.78186700  1
  O  O26  1  0.01147300  0.62927200  0.71813300  1
  O  O27  1  0.48852700  0.87072800  0.21813300  1
  O  O28  1  0.25000000  0.63573900  0.56218000  1
  O  O29  1  0.25000000  0.86426100  0.06218000  1
  O  O30  1  0.75000000  0.36426100  0.43782000  1
  O  O31  1  0.75000000  0.13573900  0.93782000  1
  O  O32  1  0.54062200  0.82091500  0.57100800  1
  O  O33  1  0.95937800  0.67908500  0.07100800  1
  O  O34  1  0.04062200  0.17908500  0.42899200  1
  O  O35  1  0.45937800  0.32091500  0.92899200  1
  O  O36  1  0.45937800  0.17908500  0.42899200  1
  O  O37  1  0.04062200  0.32091500  0.92899200  1
  O  O38  1  0.95937800  0.82091500  0.57100800  1
  O  O39  1  0.54062200  0.67908500  0.07100800  1
loop_
_geom_bond_atom_site_label_1
_geom_bond_atom_site_label_2
_geom_bond_distance
_geom_bond_site_symmetry_2
Mo0 O37 1.735633 1_555
Mo0 O25 1.738230 1_455
Mo0 O11 1.995502 1_555
Mo0 O31 1.996650 1_455
Mo0 O13 2.254033 1_456
Mo0 O17 2.286641 1_545
Mo1 O36 1.735633 1_555
Mo1 O24 1.738230 1_555
Mo1 O10 1.995502 1_555
Mo1 O30 1.996650 1_555
Mo1 O12 2.254033 1_555
Mo1 O16 2.286641 1_555
Mo2 O39 1.735633 1_555
Mo2 O27 1.738230 1_555
Mo2 O9 1.995502 1_555
Mo2 O29 1.996650 1_555
Mo2 O15 2.254033 1_554
Mo2 O19 2.286641 1_565
Mo3 O38 1.735633 1_555
Mo3 O26 1.738230 1_655
Mo3 O8 1.995502 1_555
Mo3 O28 1.996650 1_655
Mo3 O14 2.254033 1_655
Mo3 O18 2.286641 1_555
Mo4 O33 1.735633 1_555
Mo4 O21 1.738230 1_655
Mo4 O9 1.995502 1_555
Mo4 O29 1.996650 1_655
Mo4 O17 2.254033 1_654
Mo4 O13 2.286641 1_565
Mo5 O32 1.735633 1_555
Mo5 O20 1.738230 1_555
Mo5 O8 1.995502 1_555
Mo5 O28 1.996650 1_555
Mo5 O16 2.254033 1_555
Mo5 O12 2.286641 1_555
Mo6 O35 1.735633 1_555
Mo6 O23 1.738230 1_555
Mo6 O11 1.995502 1_555
Mo6 O31 1.996650 1_555
Mo6 O19 2.254033 1_556
Mo6 O15 2.286641 1_545
Mo7 O34 1.735633 1_555
Mo7 O22 1.738230 1_455
Mo7 O10 1.995502 1_555
Mo7 O30 1.996650 1_455
Mo7 O18 2.254033 1_455
Mo7 O14 2.286641 1_555
Mo8 O0 1.747260 1_555
Mo8 O4 1.749202 1_555
Mo8 O18 1.964528 1_555
Mo8 O12 1.964528 1_555
Mo8 O8 2.288690 1_555
Mo8 O30 2.354931 1_555
Mo9 O1 1.747260 1_555
Mo9 O5 1.749202 1_555
Mo9 O19 1.964528 1_555
Mo9 O13 1.964528 1_555
Mo9 O9 2.288690 1_545
Mo9 O31 2.354931 1_554
Mo10 O2 1.747260 1_555
Mo10 O6 1.749202 1_555
Mo10 O16 1.964528 1_555
Mo10 O14 1.964528 1_555
Mo10 O10 2.288690 1_555
Mo10 O28 2.354931 1_555
Mo11 O3 1.747260 1_555
Mo11 O7 1.749202 1_555
Mo11 O17 1.964528 1_555
Mo11 O15 1.964528 1_555
Mo11 O11 2.288690 1_565
Mo11 O29 2.354931 1_556
