# generated using pymatgen
data_Na5H3(CO3)4
_symmetry_space_group_name_H-M   'P 1'
_cell_length_a   3.40453221
_cell_length_b   9.99076164
_cell_length_c   15.45663297
_cell_angle_alpha   107.73262795
_cell_angle_beta   95.45983126
_cell_angle_gamma   94.88552754
_symmetry_Int_Tables_number   1
_chemical_formula_structural   Na5H3(CO3)4
_chemical_formula_sum   'Na10 H6 C8 O24'
_cell_volume   494.86380326
_cell_formula_units_Z   2
loop_
 _symmetry_equiv_pos_site_id
 _symmetry_equiv_pos_as_xyz
  1  'x, y, z'
loop_
 _atom_site_type_symbol
 _atom_site_label
 _atom_site_symmetry_multiplicity
 _atom_site_fract_x
 _atom_site_fract_y
 _atom_site_fract_z
 _atom_site_occupancy
  Na  Na0  1  0.21431132  0.32553353  0.95179634  1
  Na  Na1  1  0.78568868  0.67446647  0.04820366  1
  Na  Na2  1  0.18679620  0.81863313  0.90182054  1
  Na  Na3  1  0.81320380  0.18136687  0.09817946  1
  Na  Na4  1  0.81710370  0.28299801  0.72106999  1
  Na  Na5  1  0.18289630  0.71700199  0.27893001  1
  Na  Na6  1  0.57906469  0.78636529  0.69273145  1
  Na  Na7  1  0.42093531  0.21363471  0.30726855  1
  Na  Na8  1  0.22650455  0.25203122  0.52317453  1
  Na  Na9  1  0.77349545  0.74796878  0.47682547  1
  H  H0  1  0.26446202  0.53022542  0.74811489  1
  H  H1  1  0.73553798  0.46977458  0.25188511  1
  H  H2  1  0.50000000  0.50000000  0.50000000  1
  H  H3  1  0.00374533  0.04655264  0.75712151  1
  H  H4  1  0.99625467  0.95344736  0.24287849  1
  H  H5  1  0.50000000  0.00000000  0.50000000  1
  C  C0  1  0.58382196  0.52431908  0.86132534  1
  C  C1  1  0.41617804  0.47568092  0.13867466  1
  C  C2  1  0.86064803  0.53182659  0.62298766  1
  C  C3  1  0.13935197  0.46817341  0.37701234  1
  C  C4  1  0.75928934  0.06357956  0.86982195  1
  C  C5  1  0.24071066  0.93642044  0.13017805  1
  C  C6  1  0.24090353  0.00400133  0.61833145  1
  C  C7  1  0.75909647  0.99599867  0.38166855  1
  O  O0  1  0.71821911  0.44351115  0.90274079  1
  O  O1  1  0.28178089  0.55648885  0.09725921  1
  O  O2  1  0.62853750  0.65775840  0.89113619  1
  O  O3  1  0.37146250  0.34224160  0.10886381  1
  O  O4  1  0.37531449  0.45893221  0.77773172  1
  O  O5  1  0.62468551  0.54106779  0.22226828  1
  O  O6  1  0.05967345  0.61782613  0.69730344  1
  O  O7  1  0.94032655  0.38217387  0.30269656  1
  O  O8  1  0.81667156  0.39863678  0.60557904  1
  O  O9  1  0.18332844  0.60136322  0.39442096  1
  O  O10  1  0.69145119  0.58977881  0.56496239  1
  O  O11  1  0.30854881  0.41022119  0.43503761  1
  O  O12  1  0.68713601  0.14856051  0.94375812  1
  O  O13  1  0.31286399  0.85143949  0.05624188  1
  O  O14  1  0.69553503  0.92984200  0.84573661  1
  O  O15  1  0.30446497  0.07015800  0.15426339  1
  O  O16  1  0.92709954  0.12329790  0.81190489  1
  O  O17  1  0.07290046  0.87670210  0.18809511  1
  O  O18  1  0.11092249  0.93709869  0.67103580  1
  O  O19  1  0.88907751  0.06290131  0.32896420  1
  O  O20  1  0.26008523  0.13728671  0.63734395  1
  O  O21  1  0.73991477  0.86271329  0.36265605  1
  O  O22  1  0.35555958  0.92650054  0.54124878  1
  O  O23  1  0.64444042  0.07349946  0.45875122  1
loop_
_geom_bond_atom_site_label_1
_geom_bond_atom_site_label_2
_geom_bond_distance
_geom_bond_site_symmetry_2
Na0 O0 2.314070 1_555
Na0 O0 2.335939 1_455
Na0 O12 2.376149 1_455
Na0 O3 2.387208 1_556
Na0 O12 2.474251 1_555
Na0 O16 2.512711 1_455
Na0 O1 2.661449 1_556
Na1 O1 2.314070 1_555
Na1 O1 2.335939 1_655
Na1 O13 2.376149 1_655
Na1 O2 2.387208 1_554
Na1 O13 2.474251 1_555
Na1 O17 2.512711 1_655
Na1 O0 2.661449 1_554
Na2 O2 2.273685 1_555
Na2 O13 2.300688 1_556
Na2 O14 2.326057 1_455
Na2 O2 2.341184 1_455
Na2 O14 2.351689 1_555
Na3 O3 2.273685 1_555
Na3 O12 2.300688 1_554
Na3 O15 2.326057 1_655
Na3 O3 2.341184 1_655
Na3 O15 2.351689 1_555
Na4 O20 2.303355 1_555
Na4 O4 2.375889 1_655
Na4 O20 2.380394 1_655
Na4 O8 2.403629 1_555
Na4 O4 2.425308 1_555
Na4 O16 2.454272 1_555
Na5 O21 2.303355 1_555
Na5 O5 2.375889 1_455
Na5 O21 2.380394 1_455
Na5 O9 2.403629 1_555
Na5 O5 2.425308 1_555
Na5 O17 2.454272 1_555
Na6 O14 2.337660 1_555
Na6 O18 2.352715 1_555
Na6 O6 2.357165 1_555
Na6 O18 2.370180 1_655
Na6 O10 2.411033 1_555
Na6 O6 2.457106 1_655
Na7 O15 2.337660 1_555
Na7 O19 2.352715 1_555
Na7 O7 2.357165 1_555
Na7 O19 2.370180 1_455
Na7 O11 2.411033 1_555
Na7 O7 2.457106 1_455
Na8 O8 2.294418 1_455
Na8 O20 2.378569 1_555
Na8 O8 2.383278 1_555
Na8 O11 2.395915 1_555
Na8 O23 2.411967 1_555
Na8 O23 2.457744 1_455
Na9 O9 2.294418 1_655
Na9 O21 2.378569 1_555
Na9 O9 2.383278 1_555
Na9 O10 2.395915 1_555
Na9 O22 2.411967 1_555
Na9 O22 2.457744 1_655
H0 O4 1.034822 1_555
H0 O6 1.512390 1_555
H1 O5 1.034822 1_555
H1 O7 1.512390 1_555
H2 O11 1.210309 1_555
H2 O10 1.210309 1_555
H3 O16 1.026467 1_455
H3 O18 1.540599 1_545
H4 O17 1.026467 1_655
H4 O19 1.540599 1_565
H5 O22 1.212797 1_545
H5 O23 1.212797 1_555
C0 O2 1.261227 1_555
C0 O0 1.262112 1_555
C0 O4 1.353676 1_555
C1 O3 1.261227 1_555
C1 O1 1.262112 1_555
C1 O5 1.353676 1_555
C2 O8 1.267196 1_555
C2 O6 1.291638 1_655
C2 O10 1.321455 1_555
C3 O9 1.267196 1_555
C3 O7 1.291638 1_455
C3 O11 1.321455 1_555
C4 O12 1.259005 1_555
C4 O14 1.266174 1_545
C4 O16 1.359550 1_555
C5 O13 1.259005 1_555
C5 O15 1.266174 1_565
C5 O17 1.359550 1_555
C6 O20 1.267676 1_555
C6 O18 1.286907 1_545
C6 O22 1.322670 1_545
C7 O21 1.267676 1_555
C7 O19 1.286907 1_565
C7 O23 1.322670 1_565
