# generated using pymatgen
data_Li2FeBO4
_symmetry_space_group_name_H-M   'P 1'
_cell_length_a   4.90988000
_cell_length_b   9.65538900
_cell_length_c   13.15132600
_cell_angle_alpha   90.00000000
_cell_angle_beta   90.00000000
_cell_angle_gamma   90.00000000
_symmetry_Int_Tables_number   1
_chemical_formula_structural   Li2FeBO4
_chemical_formula_sum   'Li16 Fe8 B8 O32'
_cell_volume   623.46229908
_cell_formula_units_Z   8
loop_
 _symmetry_equiv_pos_site_id
 _symmetry_equiv_pos_as_xyz
  1  'x, y, z'
loop_
 _atom_site_type_symbol
 _atom_site_label
 _atom_site_symmetry_multiplicity
 _atom_site_fract_x
 _atom_site_fract_y
 _atom_site_fract_z
 _atom_site_occupancy
  Li  Li0  1  0.01385500  0.00322200  0.55402400  1
  Li  Li1  1  0.53132500  0.97866500  0.94272400  1
  Li  Li2  1  0.43386900  0.21573200  0.30706600  1
  Li  Li3  1  0.90727400  0.21146500  0.20143400  1
  Li  Li4  1  0.90727400  0.28853500  0.70143400  1
  Li  Li5  1  0.43386900  0.28426800  0.80706600  1
  Li  Li6  1  0.53132500  0.52133500  0.44272400  1
  Li  Li7  1  0.01385500  0.49677800  0.05402400  1
  Li  Li8  1  0.46867500  0.47866500  0.94272400  1
  Li  Li9  1  0.98614500  0.50322200  0.55402400  1
  Li  Li10  1  0.56613100  0.71573200  0.30706600  1
  Li  Li11  1  0.09272600  0.71146500  0.20143400  1
  Li  Li12  1  0.09272600  0.78853500  0.70143400  1
  Li  Li13  1  0.56613100  0.78426800  0.80706600  1
  Li  Li14  1  0.46867500  0.02133500  0.44272400  1
  Li  Li15  1  0.98614500  0.99677800  0.05402400  1
  Fe  Fe0  1  0.01754100  0.02762500  0.81293100  1
  Fe  Fe1  1  0.48880700  0.21914400  0.06331800  1
  Fe  Fe2  1  0.48880700  0.28085600  0.56331800  1
  Fe  Fe3  1  0.01754100  0.47237500  0.31293100  1
  Fe  Fe4  1  0.98245900  0.52762500  0.81293100  1
  Fe  Fe5  1  0.51119300  0.71914400  0.06331800  1
  Fe  Fe6  1  0.51119300  0.78085600  0.56331800  1
  Fe  Fe7  1  0.98245900  0.97237500  0.31293100  1
  B  B0  1  0.51893300  0.02789300  0.69212200  1
  B  B1  1  0.98125500  0.22022200  0.43215700  1
  B  B2  1  0.98125500  0.27977800  0.93215700  1
  B  B3  1  0.51893300  0.47210700  0.19212200  1
  B  B4  1  0.48106700  0.52789300  0.69212200  1
  B  B5  1  0.01874500  0.72022200  0.43215700  1
  B  B6  1  0.01874500  0.77977800  0.93215700  1
  B  B7  1  0.48106700  0.97210700  0.19212200  1
  O  O0  1  0.35590100  0.01762600  0.29049500  1
  O  O1  1  0.77929900  0.01000100  0.19203200  1
  O  O2  1  0.82662700  0.09062200  0.41449700  1
  O  O3  1  0.35356600  0.04335100  0.10313100  1
  O  O4  1  0.56778400  0.18174900  0.68466500  1
  O  O5  1  0.06481600  0.22052400  0.83120400  1
  O  O6  1  0.23323000  0.17737100  0.48845400  1
  O  O7  1  0.81699500  0.17482400  0.98982800  1
  O  O8  1  0.81699500  0.32517600  0.48982800  1
  O  O9  1  0.23323000  0.32262900  0.98845400  1
  O  O10  1  0.06481600  0.27947600  0.33120400  1
  O  O11  1  0.56778400  0.31825100  0.18466500  1
  O  O12  1  0.35356600  0.45664900  0.60313100  1
  O  O13  1  0.82662700  0.40937800  0.91449700  1
  O  O14  1  0.77929900  0.48999900  0.69203200  1
  O  O15  1  0.35590100  0.48237400  0.79049500  1
  O  O16  1  0.64409900  0.51762600  0.29049500  1
  O  O17  1  0.22070100  0.51000100  0.19203200  1
  O  O18  1  0.17337300  0.59062200  0.41449700  1
  O  O19  1  0.64643400  0.54335100  0.10313100  1
  O  O20  1  0.43221600  0.68174900  0.68466500  1
  O  O21  1  0.93518400  0.72052400  0.83120400  1
  O  O22  1  0.76677000  0.67737100  0.48845400  1
  O  O23  1  0.18300500  0.67482400  0.98982800  1
  O  O24  1  0.18300500  0.82517600  0.48982800  1
  O  O25  1  0.76677000  0.82262900  0.98845400  1
  O  O26  1  0.93518400  0.77947600  0.33120400  1
  O  O27  1  0.43221600  0.81825100  0.18466500  1
  O  O28  1  0.64643400  0.95664900  0.60313100  1
  O  O29  1  0.17337300  0.90937800  0.91449700  1
  O  O30  1  0.22070100  0.98999900  0.69203200  1
  O  O31  1  0.64409900  0.98237400  0.79049500  1
loop_
_geom_bond_atom_site_label_1
_geom_bond_atom_site_label_2
_geom_bond_distance
_geom_bond_site_symmetry_2
Li0 O28 1.968169 1_445
Li0 O30 2.083724 1_545
Li0 O24 2.087543 1_545
Li0 O6 2.175117 1_555
Li0 O2 2.219073 1_455
Li1 O29 1.916812 1_555
Li1 O25 1.991947 1_555
Li1 O31 2.077482 1_555
Li1 O3 2.366873 1_566
Li1 O7 2.436855 1_565
Li2 O10 1.939831 1_555
Li2 O0 1.962857 1_555
Li2 O11 2.000847 1_555
Li3 O11 1.972341 1_555
Li3 O10 1.985494 1_655
Li3 O1 2.047915 1_555
Li4 O4 1.972341 1_555
Li4 O5 1.985494 1_655
Li4 O14 2.047915 1_555
Li5 O5 1.939831 1_555
Li5 O15 1.962857 1_555
Li5 O4 2.000847 1_555
Li6 O18 1.916812 1_555
Li6 O22 1.991947 1_555
Li6 O16 2.077482 1_555
Li6 O12 2.366873 1_555
Li6 O8 2.436855 1_555
Li7 O19 1.968169 1_455
Li7 O17 2.083724 1_555
Li7 O23 2.087543 1_554
Li7 O9 2.175117 1_554
Li7 O13 2.219073 1_454
Li8 O13 1.916812 1_555
Li8 O9 1.991947 1_555
Li8 O15 2.077482 1_555
Li8 O19 2.366873 1_556
Li8 O23 2.436855 1_555
Li9 O12 1.968169 1_655
Li9 O14 2.083724 1_555
Li9 O8 2.087543 1_555
Li9 O22 2.175117 1_555
Li9 O18 2.219073 1_655
Li10 O26 1.939831 1_555
Li10 O16 1.962857 1_555
Li10 O27 2.000847 1_555
Li11 O27 1.972341 1_555
Li11 O26 1.985494 1_455
Li11 O17 2.047915 1_555
Li12 O20 1.972341 1_555
Li12 O21 1.985494 1_455
Li12 O30 2.047915 1_555
Li13 O21 1.939831 1_555
Li13 O31 1.962857 1_555
Li13 O20 2.000847 1_555
Li14 O2 1.916812 1_555
Li14 O6 1.991947 1_555
Li14 O0 2.077482 1_555
Li14 O28 2.366873 1_545
Li14 O24 2.436855 1_545
Li15 O3 1.968169 1_665
Li15 O1 2.083724 1_565
Li15 O7 2.087543 1_564
Li15 O25 2.175117 1_554
Li15 O29 2.219073 1_654
Fe0 O5 1.892245 1_555
Fe0 O31 1.907848 1_445
Fe0 O30 1.911809 1_545
Fe0 O29 1.916533 1_545
Fe1 O9 1.882124 1_554
Fe1 O3 1.896329 1_555
Fe1 O11 1.900754 1_555
Fe1 O7 1.927101 1_554
Fe2 O6 1.882124 1_555
Fe2 O12 1.896329 1_555
Fe2 O4 1.900754 1_555
Fe2 O8 1.927101 1_555
Fe3 O10 1.892245 1_555
Fe3 O16 1.907848 1_455
Fe3 O17 1.911809 1_555
Fe3 O18 1.916533 1_555
Fe4 O21 1.892245 1_555
Fe4 O15 1.907848 1_655
Fe4 O14 1.911809 1_555
Fe4 O13 1.916533 1_555
Fe5 O25 1.882124 1_554
Fe5 O19 1.896329 1_555
Fe5 O27 1.900754 1_555
Fe5 O23 1.927101 1_554
Fe6 O22 1.882124 1_555
Fe6 O28 1.896329 1_555
Fe6 O20 1.900754 1_555
Fe6 O24 1.927101 1_555
Fe7 O26 1.892245 1_555
Fe7 O0 1.907848 1_665
Fe7 O1 1.911809 1_565
Fe7 O2 1.916533 1_565
B0 O28 1.494926 1_545
B0 O31 1.498194 1_545
B0 O4 1.507970 1_555
B0 O30 1.509303 1_545
B1 O2 1.481952 1_555
B1 O6 1.499976 1_655
B1 O8 1.500868 1_555
B1 O10 1.502779 1_655
B2 O13 1.481952 1_555
B2 O9 1.499976 1_655
B2 O7 1.500868 1_555
B2 O5 1.502779 1_655
B3 O19 1.494926 1_555
B3 O16 1.498194 1_555
B3 O11 1.507970 1_555
B3 O17 1.509303 1_555
B4 O12 1.494926 1_555
B4 O15 1.498194 1_555
B4 O20 1.507970 1_555
B4 O14 1.509303 1_555
B5 O18 1.481952 1_555
B5 O22 1.499976 1_455
B5 O24 1.500868 1_555
B5 O26 1.502779 1_455
B6 O29 1.481952 1_555
B6 O25 1.499976 1_455
B6 O23 1.500868 1_555
B6 O21 1.502779 1_455
B7 O3 1.494926 1_565
B7 O0 1.498194 1_565
B7 O27 1.507970 1_555
B7 O1 1.509303 1_565
