# generated using pymatgen
data_Mn3OF5
_symmetry_space_group_name_H-M   'P 1'
_cell_length_a   4.86754200
_cell_length_b   5.79934427
_cell_length_c   8.20355659
_cell_angle_alpha   87.01732022
_cell_angle_beta   89.00003356
_cell_angle_gamma   87.08104485
_symmetry_Int_Tables_number   1
_chemical_formula_structural   Mn3OF5
_chemical_formula_sum   'Mn6 O2 F10'
_cell_volume   230.93532676
_cell_formula_units_Z   2
loop_
 _symmetry_equiv_pos_site_id
 _symmetry_equiv_pos_as_xyz
  1  'x, y, z'
loop_
 _atom_site_type_symbol
 _atom_site_label
 _atom_site_symmetry_multiplicity
 _atom_site_fract_x
 _atom_site_fract_y
 _atom_site_fract_z
 _atom_site_occupancy
  Mn  Mn0  1  0.46955600  0.34518100  0.68741300  1
  Mn  Mn1  1  0.53044400  0.65481900  0.31258700  1
  Mn  Mn2  1  0.50000000  0.00000000  0.00000000  1
  Mn  Mn3  1  0.99683100  0.16624000  0.33658600  1
  Mn  Mn4  1  0.00000000  0.50000000  0.00000000  1
  Mn  Mn5  1  0.00316900  0.83376000  0.66341400  1
  O  O0  1  0.70668500  0.71584500  0.08483400  1
  O  O1  1  0.29331500  0.28415500  0.91516600  1
  F  F0  1  0.79341600  0.21437300  0.10469600  1
  F  F1  1  0.80261600  0.86524300  0.43340500  1
  F  F2  1  0.81447400  0.52838400  0.76789800  1
  F  F3  1  0.69004600  0.03037500  0.77541400  1
  F  F4  1  0.68729000  0.36076100  0.45021400  1
  F  F5  1  0.30995400  0.96962500  0.22458600  1
  F  F6  1  0.31271000  0.63923900  0.54978600  1
  F  F7  1  0.18552600  0.47161600  0.23210200  1
  F  F8  1  0.20658400  0.78562700  0.89530400  1
  F  F9  1  0.19738400  0.13475700  0.56659500  1
loop_
_geom_bond_atom_site_label_1
_geom_bond_atom_site_label_2
_geom_bond_distance
_geom_bond_site_symmetry_2
Mn0 O1 2.063541 1_555
Mn1 O0 2.063541 1_555
Mn2 O0 1.987038 1_545
Mn2 O1 1.987038 1_554
Mn4 O0 1.990877 1_455
Mn4 O1 1.990877 1_554
F0 Mn4 2.117565 1_655
F0 Mn2 2.158205 1_555
F0 Mn3 2.158574 1_555
F1 Mn5 2.134701 1_655
F1 Mn1 2.136121 1_555
F1 Mn3 2.137563 1_565
F2 Mn4 2.116676 1_656
F2 Mn0 2.162601 1_555
F2 Mn5 2.166768 1_655
F3 Mn2 2.050499 1_556
F3 Mn5 2.085782 1_645
F3 Mn0 2.167121 1_555
F4 Mn3 2.073395 1_555
F4 Mn1 2.112554 1_555
F4 Mn0 2.199388 1_555
F5 Mn2 2.050499 1_565
F5 Mn3 2.085782 1_465
F5 Mn1 2.167121 1_555
F6 Mn5 2.073395 1_555
F6 Mn0 2.112554 1_555
F6 Mn1 2.199388 1_555
F7 Mn4 2.116676 1_555
F7 Mn1 2.162601 1_555
F7 Mn3 2.166768 1_455
F8 Mn4 2.117565 1_556
F8 Mn2 2.158205 1_566
F8 Mn5 2.158574 1_555
F9 Mn3 2.134701 1_455
F9 Mn0 2.136121 1_555
F9 Mn5 2.137563 1_545
