# generated using pymatgen
data_UBr4(NO2)2
_symmetry_space_group_name_H-M   'P 1'
_cell_length_a   5.59054500
_cell_length_b   6.64132834
_cell_length_c   8.91370886
_cell_angle_alpha   99.79919517
_cell_angle_beta   90.72441613
_cell_angle_gamma   113.30830804
_symmetry_Int_Tables_number   1
_chemical_formula_structural   UBr4(NO2)2
_chemical_formula_sum   'U1 Br4 N2 O4'
_cell_volume   298.33787603
_cell_formula_units_Z   1
loop_
 _symmetry_equiv_pos_site_id
 _symmetry_equiv_pos_as_xyz
  1  'x, y, z'
loop_
 _atom_site_type_symbol
 _atom_site_label
 _atom_site_symmetry_multiplicity
 _atom_site_fract_x
 _atom_site_fract_y
 _atom_site_fract_z
 _atom_site_occupancy
  U  U0  1  0.00000000  0.00000000  0.00000000  1
  Br  Br0  1  0.69105800  0.99863700  0.74746900  1
  Br  Br1  1  0.30894200  0.00136300  0.25253100  1
  Br  Br2  1  0.48544000  0.67304200  0.08391600  1
  Br  Br3  1  0.51456000  0.32695800  0.91608400  1
  N  N0  1  0.85793300  0.51148000  0.56102000  1
  N  N1  1  0.14206700  0.48852000  0.43898000  1
  O  O0  1  0.95749000  0.23553400  0.10415200  1
  O  O1  1  0.04251000  0.76446600  0.89584800  1
  O  O2  1  0.88332300  0.44786100  0.40955400  1
  O  O3  1  0.11667700  0.55213900  0.59044600  1
loop_
_geom_bond_atom_site_label_1
_geom_bond_atom_site_label_2
_geom_bond_distance
_geom_bond_site_symmetry_2
Br0 U0 2.816465 1_666
Br0 Br3 2.934568 1_565
Br1 U0 2.816465 1_555
Br1 Br2 2.934568 1_545
Br2 Br3 2.584429 1_554
Br2 U0 3.035448 1_665
Br3 U0 3.035448 1_556
N0 O2 1.370997 1_555
N0 O3 1.375254 1_655
N1 O3 1.370997 1_555
N1 O2 1.375254 1_455
O0 U0 1.780651 1_655
O1 U0 1.780651 1_566
