# generated using pymatgen
data_Li6V3P8O29
_symmetry_space_group_name_H-M   'P 1'
_cell_length_a   9.79350200
_cell_length_b   9.81214705
_cell_length_c   13.97534120
_cell_angle_alpha   89.76570739
_cell_angle_beta   89.74495204
_cell_angle_gamma   60.22690322
_symmetry_Int_Tables_number   1
_chemical_formula_structural   Li6V3P8O29
_chemical_formula_sum   'Li12 V6 P16 O58'
_cell_volume   1165.67704623
_cell_formula_units_Z   2
loop_
 _symmetry_equiv_pos_site_id
 _symmetry_equiv_pos_as_xyz
  1  'x, y, z'
loop_
 _atom_site_type_symbol
 _atom_site_label
 _atom_site_symmetry_multiplicity
 _atom_site_fract_x
 _atom_site_fract_y
 _atom_site_fract_z
 _atom_site_occupancy
  Li  Li0  1  0.23209500  0.66414900  0.06051300  1
  Li  Li1  1  0.09373700  0.67703400  0.56088300  1
  Li  Li2  1  0.67846500  0.22866900  0.56145500  1
  Li  Li3  1  0.66250600  0.10038600  0.05839700  1
  Li  Li4  1  0.09799400  0.23291600  0.05640000  1
  Li  Li5  1  0.77653300  0.90697200  0.44349000  1
  Li  Li6  1  0.22789400  0.08127900  0.55947400  1
  Li  Li7  1  0.32565600  0.90394500  0.93622700  1
  Li  Li8  1  0.66778600  0.66837200  0.11184400  1
  Li  Li9  1  0.91429200  0.31368700  0.44240100  1
  Li  Li10  1  0.76378900  0.32849900  0.93427500  1
  Li  Li11  1  0.98589400  0.96178100  0.98878700  1
  V  V0  1  0.56658500  0.00246200  0.25268200  1
  V  V1  1  0.43612000  0.99964300  0.75166900  1
  V  V2  1  0.99834300  0.57001300  0.75470100  1
  V  V3  1  0.00397100  0.43542200  0.24682100  1
  V  V4  1  0.43263500  0.56878500  0.25303000  1
  V  V5  1  0.56458800  0.43820100  0.74698000  1
  P  P0  1  0.22771900  0.68606200  0.84323900  1
  P  P1  1  0.08790600  0.68099000  0.34504600  1
  P  P2  1  0.67981500  0.23340500  0.34135100  1
  P  P3  1  0.33553700  0.33638100  0.12710700  1
  P  P4  1  0.33383900  0.33116700  0.63045700  1
  P  P5  1  0.68768300  0.08928900  0.84231600  1
  P  P6  1  0.77134600  0.91034900  0.66083400  1
  P  P7  1  0.08509600  0.22677500  0.84339300  1
  P  P8  1  0.91166300  0.78174600  0.16072600  1
  P  P9  1  0.22929700  0.08709200  0.34211200  1
  P  P10  1  0.31579900  0.91098900  0.15713500  1
  P  P11  1  0.67195200  0.66224000  0.36976800  1
  P  P12  1  0.66462500  0.66823800  0.87229400  1
  P  P13  1  0.31388900  0.77328700  0.65828300  1
  P  P14  1  0.91328800  0.32152100  0.65905900  1
  P  P15  1  0.77316700  0.31591500  0.15559300  1
  O  O0  1  0.22955700  0.75875400  0.57474300  1
  O  O1  1  0.25070200  0.66361600  0.33850600  1
  O  O2  1  0.00494700  0.79330800  0.07909400  1
  O  O3  1  0.08530600  0.65994200  0.83623700  1
  O  O4  1  0.38187100  0.53191600  0.83310700  1
  O  O5  1  0.32939800  0.48902800  0.16834700  1
  O  O6  1  0.51714500  0.37632100  0.32335800  1
  O  O7  1  0.76739200  0.22741600  0.06868400  1
  O  O8  1  0.66015800  0.25947400  0.83412500  1
  O  O9  1  0.18801000  0.48260600  0.66947400  1
  O  O10  1  0.09786000  0.52159900  0.32485800  1
  O  O11  1  0.48905800  0.32581500  0.66703400  1
  O  O12  1  0.32461300  0.34411300  0.02062700  1
  O  O13  1  0.33574100  0.31661500  0.52401100  1
  O  O14  1  0.48744700  0.18989600  0.16466600  1
  O  O15  1  0.08998600  0.37877600  0.83261100  1
  O  O16  1  0.18680000  0.33009900  0.16933200  1
  O  O17  1  0.66999900  0.08030100  0.34165100  1
  O  O18  1  0.79493000  0.00040000  0.75063600  1
  O  O19  1  0.75572500  0.00239800  0.57074000  1
  O  O20  1  0.77851500  0.01806500  0.93291200  1
  O  O21  1  0.53299700  0.08663000  0.83548900  1
  O  O22  1  0.33230600  0.18293300  0.67813500  1
  O  O23  1  0.74041800  0.92376900  0.15930300  1
  O  O24  1  0.38091300  0.09747400  0.31756200  1
  O  O25  1  0.08300600  0.25185700  0.33837900  1
  O  O26  1  0.98437000  0.79971500  0.25901500  1
  O  O27  1  0.99894600  0.75323700  0.43607700  1
  O  O28  1  0.00619500  0.24359100  0.56980600  1
  O  O29  1  0.92107500  0.74776800  0.66005400  1
  O  O30  1  0.62518100  0.89413700  0.67941000  1
  O  O31  1  0.24983400  0.08046000  0.84310000  1
  O  O32  1  0.67382700  0.81357800  0.33336100  1
  O  O33  1  0.48107900  0.89277000  0.17033500  1
  O  O34  1  0.23036500  0.00402100  0.06888500  1
  O  O35  1  0.24666300  0.00243500  0.43308800  1
  O  O36  1  0.21182400  0.99597200  0.25073500  1
  O  O37  1  0.33851300  0.91592200  0.65671100  1
  O  O38  1  0.80553600  0.67895000  0.83088000  1
  O  O39  1  0.89973200  0.62977500  0.16483300  1
  O  O40  1  0.50713100  0.81368800  0.83339000  1
  O  O41  1  0.65574800  0.67245800  0.98036500  1
  O  O42  1  0.67832100  0.64742900  0.47544500  1
  O  O43  1  0.52551500  0.66217700  0.32177600  1
  O  O44  1  0.90322600  0.48012300  0.67918900  1
  O  O45  1  0.81881400  0.51496300  0.32175400  1
  O  O46  1  0.33151100  0.74717000  0.15529100  1
  O  O47  1  0.21211900  0.79886700  0.75582400  1
  O  O48  1  0.21478800  0.77714200  0.93436300  1
  O  O49  1  0.47575300  0.62137600  0.67719900  1
  O  O50  1  0.67444400  0.51305400  0.83550300  1
  O  O51  1  0.62533400  0.47954000  0.16641800  1
  O  O52  1  0.92115900  0.33343300  0.15270100  1
  O  O53  1  0.99499000  0.22257400  0.93139200  1
  O  O54  1  0.99811700  0.20855700  0.74959800  1
  O  O55  1  0.74742400  0.33956300  0.65569000  1
  O  O56  1  0.75656700  0.24735000  0.43108000  1
  O  O57  1  0.79161500  0.21316600  0.25032300  1
loop_
_geom_bond_atom_site_label_1
_geom_bond_atom_site_label_2
_geom_bond_distance
_geom_bond_site_symmetry_2
Li0 O2 1.954463 1_555
Li0 O48 2.041110 1_554
Li0 O46 2.043035 1_555
Li0 O5 2.120659 1_555
Li1 O0 1.874196 1_555
Li1 O27 1.943586 1_455
Li1 O29 2.020735 1_455
Li1 O9 2.243786 1_555
Li2 O19 1.961837 1_555
Li2 O56 2.015583 1_555
Li2 O55 2.030744 1_555
Li2 O11 2.181215 1_555
Li3 O7 1.975790 1_555
Li3 O20 2.025128 1_554
Li3 O23 2.061668 1_545
Li3 O14 2.099743 1_555
Li4 O34 1.965334 1_555
Li4 O52 2.019169 1_455
Li4 O53 2.049105 1_454
Li4 O16 2.237144 1_555
Li5 O27 1.940840 1_555
Li5 O19 1.975276 1_565
Li5 O17 2.058594 1_565
Li5 O32 2.271797 1_555
Li6 O35 1.902398 1_555
Li6 O28 1.958666 1_555
Li6 O37 1.975409 1_545
Li6 O22 2.414982 1_555
Li7 O31 1.989456 1_565
Li7 O48 2.017388 1_555
Li7 O34 2.088456 1_566
Li7 O40 2.105472 1_555
Li8 O41 1.840764 1_554
Li8 O33 2.205151 1_555
Li8 O51 2.222217 1_555
Li8 O39 2.238333 1_555
Li9 O56 1.958650 1_555
Li9 O28 1.960328 1_655
Li9 O25 2.049834 1_655
Li9 O45 2.402171 1_555
Li10 O53 1.967512 1_555
Li10 O8 2.037347 1_555
Li10 O50 2.089740 1_555
Li10 O7 2.112823 1_556
Li11 O20 1.983997 1_565
Li11 O2 2.009730 1_656
Li11 O48 2.201955 1_655
O0 P13 1.480683 1_555
O1 P1 1.519291 1_555
O1 V4 1.952195 1_555
O2 P8 1.497195 1_455
O3 P0 1.541731 1_555
O3 V2 1.888288 1_455
O4 P0 1.522825 1_555
O4 V5 1.962688 1_555
O5 P3 1.580030 1_555
O5 V4 1.959416 1_555
O6 P2 1.532872 1_555
O6 V4 1.912376 1_555
O7 P15 1.513434 1_555
O8 P5 1.557539 1_555
O8 V5 1.948658 1_555
O9 P4 1.561127 1_555
O9 V2 2.002762 1_455
O10 P1 1.545007 1_555
O10 V3 1.881098 1_555
O11 P4 1.581864 1_555
O11 V5 1.959350 1_555
O12 P3 1.491328 1_555
O13 P4 1.494187 1_555
O14 P3 1.559452 1_555
O14 V0 2.017546 1_555
O15 P7 1.522653 1_555
O15 V2 1.957428 1_455
O16 P3 1.598467 1_555
O16 V3 1.897618 1_555
O17 P2 1.552248 1_555
O17 V0 1.985509 1_555
O18 P5 1.610245 1_555
O18 P6 1.619715 1_545
O19 P6 1.509860 1_545
O20 P5 1.506035 1_555
O21 P5 1.531444 1_555
O21 V1 1.955297 1_545
O22 P4 1.604190 1_555
O22 V1 1.871497 1_545
O23 P8 1.560133 1_555
O23 V0 1.969895 1_565
O24 P9 1.574254 1_555
O24 V0 1.818358 1_555
O25 P9 1.539059 1_555
O25 V3 2.021378 1_555
O26 P8 1.600100 1_555
O26 P1 1.630058 1_655
O27 P1 1.504719 1_655
O28 P14 1.508369 1_455
O29 P6 1.540147 1_555
O29 V2 2.010865 1_555
O30 P6 1.537628 1_555
O30 V1 1.899490 1_555
O31 P7 1.537444 1_555
O31 V1 2.034872 1_545
O32 P11 1.576424 1_555
O32 V0 1.967127 1_565
O33 P10 1.549546 1_555
O33 V0 2.024334 1_565
O34 P10 1.515218 1_545
O35 P9 1.479333 1_555
O36 P10 1.611556 1_555
O36 P9 1.619472 1_565
O37 P13 1.533717 1_555
O37 V1 2.037107 1_555
O38 P12 1.544962 1_555
O38 V2 1.956631 1_555
O39 P8 1.553316 1_555
O39 V3 2.012679 1_655
O40 P12 1.589474 1_555
O40 V1 1.961387 1_555
O41 P12 1.511997 1_555
O42 P11 1.481966 1_555
O43 P11 1.586198 1_555
O43 V4 1.852837 1_555
O44 P14 1.536791 1_555
O44 V2 1.895180 1_555
O45 P11 1.594490 1_555
O45 V3 1.891618 1_655
O46 P10 1.537136 1_555
O46 V4 2.044801 1_555
O47 P0 1.601118 1_555
O47 P13 1.629989 1_555
O48 P0 1.527078 1_555
O49 P13 1.567946 1_555
O49 V5 1.838108 1_555
O50 P12 1.566122 1_555
O50 V5 2.007863 1_555
O51 P15 1.545388 1_555
O51 V4 2.034841 1_555
O52 P15 1.542292 1_555
O52 V3 2.053214 1_655
O53 P7 1.522800 1_655
O54 P14 1.613432 1_555
O54 P7 1.624466 1_655
O55 P14 1.545063 1_555
O55 V5 2.009804 1_555
O56 P2 1.506045 1_555
O57 P15 1.616190 1_555
O57 P2 1.621836 1_555
