# generated using pymatgen
data_FeOF
_symmetry_space_group_name_H-M   'P 1'
_cell_length_a   3.06703100
_cell_length_b   9.54797500
_cell_length_c   9.57587959
_cell_angle_alpha   89.28789196
_cell_angle_beta   90.00000000
_cell_angle_gamma   90.00000000
_symmetry_Int_Tables_number   1
_chemical_formula_structural   FeOF
_chemical_formula_sum   'Fe8 O8 F8'
_cell_volume   280.39778037
_cell_formula_units_Z   8
loop_
 _symmetry_equiv_pos_site_id
 _symmetry_equiv_pos_as_xyz
  1  'x, y, z'
loop_
 _atom_site_type_symbol
 _atom_site_label
 _atom_site_symmetry_multiplicity
 _atom_site_fract_x
 _atom_site_fract_y
 _atom_site_fract_z
 _atom_site_occupancy
  Fe  Fe0  1  0.00000000  0.99993800  0.97966100  1
  Fe  Fe1  1  0.00000000  0.99109700  0.50749500  1
  Fe  Fe2  1  0.50000000  0.72022400  0.24000100  1
  Fe  Fe3  1  0.50000000  0.76994600  0.74874600  1
  Fe  Fe4  1  0.00000000  0.49815400  0.48175900  1
  Fe  Fe5  1  0.00000000  0.49053200  0.00927100  1
  Fe  Fe6  1  0.50000000  0.26904500  0.25187500  1
  Fe  Fe7  1  0.50000000  0.26284400  0.78316900  1
  O  O0  1  0.50000000  0.90042200  0.90058600  1
  O  O1  1  0.00000000  0.85266800  0.64571700  1
  O  O2  1  0.00000000  0.65462800  0.34999300  1
  O  O3  1  0.50000000  0.59719100  0.09031400  1
  O  O4  1  0.50000000  0.39574900  0.41106300  1
  O  O5  1  0.50000000  0.40989400  0.90367200  1
  O  O6  1  0.00000000  0.33855600  0.15531000  1
  O  O7  1  0.00000000  0.15405400  0.85007400  1
  F  F0  1  0.50000000  0.90921700  0.39846300  1
  F  F1  1  0.00000000  0.84867800  0.15542200  1
  F  F2  1  0.00000000  0.65692100  0.83349600  1
  F  F3  1  0.50000000  0.59882900  0.60087200  1
  F  F4  1  0.00000000  0.34997200  0.65714200  1
  F  F5  1  0.00000000  0.14291200  0.35266200  1
  F  F6  1  0.50000000  0.08821500  0.10361100  1
  F  F7  1  0.50000000  0.10031300  0.58963000  1
loop_
_geom_bond_atom_site_label_1
_geom_bond_atom_site_label_2
_geom_bond_distance
_geom_bond_site_symmetry_2
Fe0 O7 1.913052 1_565
Fe0 O0 1.961061 1_455
Fe0 O0 1.961061 1_555
Fe1 O1 1.858860 1_555
Fe2 O3 1.864512 1_555
Fe2 O2 1.958804 1_555
Fe2 O2 1.958804 1_655
Fe3 O0 1.926426 1_555
Fe3 O1 1.982295 1_655
Fe3 O1 1.982295 1_555
Fe4 O2 1.943524 1_555
Fe4 O4 1.944848 1_455
Fe4 O4 1.944848 1_555
Fe5 O5 1.996584 1_554
Fe5 O5 1.996584 1_454
Fe5 O3 2.002667 1_555
Fe5 O3 2.002667 1_455
Fe5 O6 2.002701 1_555
Fe6 O6 1.905770 1_555
Fe6 O6 1.905770 1_655
Fe6 O4 1.957821 1_555
Fe7 O5 1.828417 1_555
Fe7 O7 1.955643 1_555
Fe7 O7 1.955643 1_655
F0 Fe1 2.018229 1_655
F0 Fe1 2.018229 1_555
F0 Fe2 2.372093 1_555
F1 Fe2 2.118299 1_555
F1 Fe2 2.118299 1_455
F1 Fe0 2.204106 1_554
F2 Fe3 2.037918 1_555
F2 Fe3 2.037918 1_455
F2 Fe5 2.300129 1_556
F3 Fe4 2.145671 1_555
F3 Fe4 2.145671 1_655
F3 Fe3 2.175316 1_555
F4 Fe7 2.115462 1_455
F4 Fe7 2.115462 1_555
F4 Fe4 2.182486 1_555
F5 Fe1 2.060580 1_545
F5 Fe6 2.169013 1_455
F5 Fe6 2.169013 1_555
F6 Fe0 2.120322 1_644
F6 Fe0 2.120322 1_544
F6 Fe6 2.248923 1_555
F7 Fe1 2.019425 1_545
F7 Fe1 2.019425 1_645
F7 Fe7 2.431963 1_555
