# generated using pymatgen
data_Li6Ti2O7
_symmetry_space_group_name_H-M   'P 1'
_cell_length_a   8.98256000
_cell_length_b   5.10469000
_cell_length_c   15.68959577
_cell_angle_alpha   89.63879848
_cell_angle_beta   90.00000000
_cell_angle_gamma   90.00000000
_symmetry_Int_Tables_number   1
_chemical_formula_structural   Li6Ti2O7
_chemical_formula_sum   'Li24 Ti8 O28'
_cell_volume   719.40362932
_cell_formula_units_Z   4
loop_
 _symmetry_equiv_pos_site_id
 _symmetry_equiv_pos_as_xyz
  1  'x, y, z'
loop_
 _atom_site_type_symbol
 _atom_site_label
 _atom_site_symmetry_multiplicity
 _atom_site_fract_x
 _atom_site_fract_y
 _atom_site_fract_z
 _atom_site_occupancy
  Li  Li0  1  0.52672600  0.25329700  0.04807700  1
  Li  Li1  1  0.57411800  0.24148000  0.79846800  1
  Li  Li2  1  0.75104600  0.26217100  0.94668300  1
  Li  Li3  1  0.80219100  0.22761800  0.67675700  1
  Li  Li4  1  0.56567300  0.17144400  0.57444400  1
  Li  Li5  1  0.57754300  0.14320100  0.32068600  1
  Li  Li6  1  0.73324400  0.18827600  0.43925000  1
  Li  Li7  1  0.26724200  0.16731500  0.91598200  1
  Li  Li8  1  0.00981200  0.25226200  0.32067100  1
  Li  Li9  1  0.77031900  0.18859900  0.19357300  1
  Li  Li10  1  0.01438700  0.23589500  0.84350300  1
  Li  Li11  1  0.31848200  0.19275700  0.42380400  1
  Li  Li12  1  0.81848200  0.80724300  0.57619600  1
  Li  Li13  1  0.51438700  0.76410500  0.15649700  1
  Li  Li14  1  0.27031900  0.81140100  0.80642700  1
  Li  Li15  1  0.50981200  0.74773800  0.67932900  1
  Li  Li16  1  0.76724200  0.83268500  0.08401800  1
  Li  Li17  1  0.23324400  0.81172400  0.56075000  1
  Li  Li18  1  0.07754300  0.85679900  0.67931400  1
  Li  Li19  1  0.06567300  0.82855600  0.42555600  1
  Li  Li20  1  0.30219100  0.77238200  0.32324300  1
  Li  Li21  1  0.25104600  0.73782900  0.05331700  1
  Li  Li22  1  0.07411800  0.75852000  0.20153200  1
  Li  Li23  1  0.02672600  0.74670300  0.95192300  1
  Ti  Ti0  1  0.28574600  0.29456200  0.69691900  1
  Ti  Ti1  1  0.02253600  0.31568900  0.53432700  1
  Ti  Ti2  1  0.01529900  0.25960500  0.06090000  1
  Ti  Ti3  1  0.28884200  0.27998500  0.19959300  1
  Ti  Ti4  1  0.78884200  0.72001500  0.80040700  1
  Ti  Ti5  1  0.51529900  0.74039500  0.93910000  1
  Ti  Ti6  1  0.52253600  0.68431100  0.46567300  1
  Ti  Ti7  1  0.78574600  0.70543800  0.30308100  1
  O  O0  1  0.39941300  0.05327500  0.26393000  1
  O  O1  1  0.06496400  0.12334900  0.95895500  1
  O  O2  1  0.21159900  0.17962200  0.79719700  1
  O  O3  1  0.83145300  0.19836500  0.55196600  1
  O  O4  1  0.46873300  0.15761800  0.68703800  1
  O  O5  1  0.16010900  0.15692900  0.61100500  1
  O  O6  1  0.13716000  0.08530300  0.14422400  1
  O  O7  1  0.81570600  0.20940400  0.07355700  1
  O  O8  1  0.09462300  0.21843400  0.43291100  1
  O  O9  1  0.54590100  0.39060500  0.93136900  1
  O  O10  1  0.52300700  0.32746300  0.45626900  1
  O  O11  1  0.78228000  0.34427800  0.30741900  1
  O  O12  1  0.39679200  0.46209300  0.12069900  1
  O  O13  1  0.19532200  0.50385000  0.26844800  1
  O  O14  1  0.69532200  0.49615000  0.73155200  1
  O  O15  1  0.89679200  0.53790700  0.87930100  1
  O  O16  1  0.28228000  0.65572200  0.69258100  1
  O  O17  1  0.02300700  0.67253700  0.54373100  1
  O  O18  1  0.04590100  0.60939500  0.06863100  1
  O  O19  1  0.59462300  0.78156600  0.56708900  1
  O  O20  1  0.31570600  0.79059600  0.92644300  1
  O  O21  1  0.63716000  0.91469700  0.85577600  1
  O  O22  1  0.66010900  0.84307100  0.38899500  1
  O  O23  1  0.96873300  0.84238200  0.31296200  1
  O  O24  1  0.33145300  0.80163500  0.44803400  1
  O  O25  1  0.71159900  0.82037800  0.20280300  1
  O  O26  1  0.56496400  0.87665100  0.04104500  1
  O  O27  1  0.89941300  0.94672500  0.73607000  1
loop_
_geom_bond_atom_site_label_1
_geom_bond_atom_site_label_2
_geom_bond_distance
_geom_bond_site_symmetry_2
Li0 O12 1.952382 1_555
Li0 O26 1.956897 1_545
Li0 O9 1.964102 1_554
Li1 O21 1.973032 1_545
Li1 O14 1.990074 1_555
Li1 O4 2.036007 1_555
Li1 O9 2.238670 1_555
Li2 O9 1.970081 1_555
Li2 O7 2.089410 1_556
Li2 O15 2.189526 1_555
Li2 O21 2.501778 1_545
Li3 O14 1.885338 1_555
Li3 O27 1.915158 1_545
Li3 O3 1.982051 1_555
Li4 O4 1.970371 1_555
Li4 O19 2.011158 1_545
Li4 O10 2.049467 1_555
Li4 O3 2.417076 1_555
Li5 O0 1.889188 1_555
Li5 O22 2.006294 1_545
Li5 O11 2.115740 1_555
Li5 O10 2.382245 1_555
Li6 O3 1.977246 1_555
Li6 O10 2.035882 1_555
Li6 O22 2.043530 1_545
Li6 O11 2.255123 1_555
Li7 O2 1.930187 1_555
Li7 O1 1.950498 1_555
Li7 O20 1.977506 1_545
Li8 O8 1.925481 1_555
Li8 O11 2.107090 1_455
Li8 O23 2.128788 1_445
Li8 O13 2.254815 1_555
Li9 O7 1.928903 1_555
Li9 O25 1.956744 1_545
Li9 O11 1.962519 1_555
Li10 O2 1.936771 1_555
Li10 O1 1.950511 1_555
Li10 O15 1.954207 1_455
Li10 O27 2.473477 1_445
Li11 O8 2.020212 1_555
Li11 O10 2.027771 1_555
Li11 O24 2.033412 1_545
Li12 O19 2.020212 1_555
Li12 O17 2.027771 1_655
Li12 O3 2.033412 1_565
Li13 O25 1.936771 1_555
Li13 O26 1.950511 1_555
Li13 O12 1.954207 1_555
Li13 O0 2.473477 1_565
Li14 O20 1.928903 1_555
Li14 O2 1.956744 1_565
Li14 O16 1.962519 1_555
Li15 O19 1.925481 1_555
Li15 O16 2.107090 1_555
Li15 O4 2.128788 1_565
Li15 O14 2.254815 1_555
Li16 O25 1.930187 1_555
Li16 O26 1.950498 1_555
Li16 O7 1.977506 1_565
Li17 O24 1.977246 1_555
Li17 O17 2.035882 1_555
Li17 O5 2.043530 1_565
Li17 O16 2.255123 1_555
Li18 O27 1.889188 1_455
Li18 O5 2.006294 1_565
Li18 O16 2.115740 1_555
Li18 O17 2.382245 1_555
Li19 O23 1.970371 1_455
Li19 O8 2.011158 1_565
Li19 O17 2.049467 1_555
Li19 O24 2.417076 1_555
Li20 O13 1.885338 1_555
Li20 O0 1.915158 1_565
Li20 O24 1.982051 1_555
Li21 O18 1.970081 1_555
Li21 O20 2.089410 1_554
Li21 O12 2.189526 1_555
Li21 O6 2.501778 1_565
Li22 O6 1.973032 1_565
Li22 O13 1.990074 1_555
Li22 O23 2.036007 1_455
Li22 O18 2.238670 1_555
Li23 O15 1.952382 1_455
Li23 O1 1.956897 1_565
Li23 O18 1.964102 1_556
O0 Ti3 1.824823 1_555
O1 Ti2 1.804205 1_556
O2 Ti0 1.803206 1_555
O3 Ti1 1.838277 1_655
O4 Ti0 1.793266 1_555
O5 Ti0 1.896350 1_555
O5 Ti1 1.902343 1_555
O6 Ti3 1.899885 1_555
O6 Ti2 1.919450 1_555
O7 Ti2 1.821756 1_655
O8 Ti1 1.790966 1_555
O9 Ti5 1.811426 1_555
O10 Ti6 1.828496 1_555
O11 Ti7 1.844700 1_555
O12 Ti3 1.822662 1_555
O13 Ti3 1.787237 1_555
O14 Ti4 1.787237 1_555
O15 Ti4 1.822662 1_555
O16 Ti0 1.844700 1_555
O17 Ti1 1.828496 1_555
O18 Ti2 1.811426 1_555
O19 Ti6 1.790966 1_555
O20 Ti5 1.821756 1_555
O21 Ti4 1.899885 1_555
O21 Ti5 1.919450 1_555
O22 Ti7 1.896350 1_555
O22 Ti6 1.902343 1_555
O23 Ti7 1.793266 1_555
O24 Ti6 1.838277 1_555
O25 Ti7 1.803206 1_555
O26 Ti5 1.804205 1_554
O27 Ti4 1.824823 1_555
