# generated using pymatgen
data_Ba4OF6
_symmetry_space_group_name_H-M   'P 1'
_cell_length_a   8.97444804
_cell_length_b   8.97444804
_cell_length_c   6.73645200
_cell_angle_alpha   90.00000000
_cell_angle_beta   90.00000000
_cell_angle_gamma   120.00000030
_symmetry_Int_Tables_number   1
_chemical_formula_structural   Ba4OF6
_chemical_formula_sum   'Ba8 O2 F12'
_cell_volume   469.86959712
_cell_formula_units_Z   2
loop_
 _symmetry_equiv_pos_site_id
 _symmetry_equiv_pos_as_xyz
  1  'x, y, z'
loop_
 _atom_site_type_symbol
 _atom_site_label
 _atom_site_symmetry_multiplicity
 _atom_site_fract_x
 _atom_site_fract_y
 _atom_site_fract_z
 _atom_site_occupancy
  Ba  Ba0  1  0.18384800  0.81615200  0.98049900  1
  Ba  Ba1  1  0.33333300  0.66666700  0.46649500  1
  Ba  Ba2  1  0.18384800  0.36769700  0.98049900  1
  Ba  Ba3  1  0.63230300  0.81615200  0.98049900  1
  Ba  Ba4  1  0.36769700  0.18384800  0.48049900  1
  Ba  Ba5  1  0.66666700  0.33333300  0.96649500  1
  Ba  Ba6  1  0.81615200  0.63230300  0.48049900  1
  Ba  Ba7  1  0.81615200  0.18384800  0.48049900  1
  O  O0  1  0.33333300  0.66666700  0.09806900  1
  O  O1  1  0.66666700  0.33333300  0.59806900  1
  F  F0  1  0.14811600  0.85188400  0.38255800  1
  F  F1  1  0.07078500  0.53539200  0.72379600  1
  F  F2  1  0.14811600  0.29623300  0.38255800  1
  F  F3  1  0.46460800  0.92921500  0.72379600  1
  F  F4  1  0.46460800  0.53539200  0.72379600  1
  F  F5  1  0.29623300  0.14811600  0.88255800  1
  F  F6  1  0.70376700  0.85188400  0.38255800  1
  F  F7  1  0.53539200  0.46460800  0.22379600  1
  F  F8  1  0.53539200  0.07078500  0.22379600  1
  F  F9  1  0.85188400  0.70376700  0.88255800  1
  F  F10  1  0.92921500  0.46460800  0.22379600  1
  F  F11  1  0.85188400  0.14811600  0.88255800  1
loop_
_geom_bond_atom_site_label_1
_geom_bond_atom_site_label_2
_geom_bond_distance
_geom_bond_site_symmetry_2
Ba0 O0 2.454894 1_556
Ba0 F9 2.706171 1_455
Ba0 F5 2.706171 1_565
Ba0 F0 2.764816 1_556
Ba0 F3 2.794996 1_555
Ba0 F1 2.794996 1_555
Ba0 F10 3.263768 1_456
Ba0 F8 3.263768 1_566
Ba1 O0 2.481884 1_555
Ba1 F3 2.677341 1_555
Ba1 F1 2.677341 1_555
Ba1 F4 2.677353 1_555
Ba1 F6 2.934050 1_555
Ba1 F2 2.934050 1_555
Ba1 F0 2.934050 1_555
Ba2 O0 2.454894 1_556
Ba2 F11 2.706175 1_455
Ba2 F5 2.706188 1_555
Ba2 F2 2.764816 1_556
Ba2 F1 2.794983 1_555
Ba2 F4 2.794995 1_555
Ba2 F7 3.263768 1_556
Ba2 F10 3.263768 1_456
Ba3 O0 2.454894 1_556
Ba3 F11 2.706175 1_565
Ba3 F9 2.706188 1_555
Ba3 F6 2.764816 1_556
Ba3 F3 2.794983 1_555
Ba3 F4 2.794995 1_555
Ba3 F7 3.263768 1_556
Ba3 F8 3.263768 1_566
Ba4 O1 2.454894 1_555
Ba4 F0 2.706175 1_545
Ba4 F2 2.706188 1_555
Ba4 F5 2.764816 1_555
Ba4 F8 2.794983 1_555
Ba4 F7 2.794995 1_555
Ba4 F4 3.263768 1_555
Ba4 F3 3.263768 1_545
Ba5 O1 2.481884 1_555
Ba5 F8 2.677341 1_556
Ba5 F10 2.677341 1_556
Ba5 F7 2.677353 1_556
Ba5 F9 2.934050 1_555
Ba5 F5 2.934050 1_555
Ba5 F11 2.934050 1_555
Ba6 O1 2.454894 1_555
Ba6 F0 2.706175 1_655
Ba6 F6 2.706188 1_555
Ba6 F9 2.764816 1_555
Ba6 F10 2.794983 1_555
Ba6 F7 2.794995 1_555
Ba6 F4 3.263768 1_555
Ba6 F1 3.263768 1_655
Ba7 O1 2.454894 1_555
Ba7 F6 2.706171 1_545
Ba7 F2 2.706171 1_655
Ba7 F11 2.764816 1_555
Ba7 F10 2.794996 1_555
Ba7 F8 2.794996 1_555
Ba7 F3 3.263768 1_545
Ba7 F1 3.263768 1_655
