# generated using pymatgen
data_LiMn(PO3)4
_symmetry_space_group_name_H-M   'P 1'
_cell_length_a   9.31467700
_cell_length_b   9.31467700
_cell_length_c   9.33275100
_cell_angle_alpha   90.00000000
_cell_angle_beta   90.00000000
_cell_angle_gamma   90.00000000
_symmetry_Int_Tables_number   1
_chemical_formula_structural   LiMn(PO3)4
_chemical_formula_sum   'Li4 Mn4 P16 O48'
_cell_volume   809.73941263
_cell_formula_units_Z   4
loop_
 _symmetry_equiv_pos_site_id
 _symmetry_equiv_pos_as_xyz
  1  'x, y, z'
loop_
 _atom_site_type_symbol
 _atom_site_label
 _atom_site_symmetry_multiplicity
 _atom_site_fract_x
 _atom_site_fract_y
 _atom_site_fract_z
 _atom_site_occupancy
  Li  Li0  1  0.25000000  0.75000000  0.75000000  1
  Li  Li1  1  0.75000000  0.25000000  0.75000000  1
  Li  Li2  1  0.75000000  0.75000000  0.25000000  1
  Li  Li3  1  0.25000000  0.25000000  0.25000000  1
  Mn  Mn0  1  0.00000000  0.50000000  0.75000000  1
  Mn  Mn1  1  0.00000000  0.50000000  0.25000000  1
  Mn  Mn2  1  0.50000000  0.00000000  0.75000000  1
  Mn  Mn3  1  0.50000000  0.00000000  0.25000000  1
  P  P0  1  0.00000000  0.23061200  0.00000000  1
  P  P1  1  0.76938800  0.00000000  0.00000000  1
  P  P2  1  0.26938800  0.50000000  0.50000000  1
  P  P3  1  0.50000000  0.27846500  0.00000000  1
  P  P4  1  0.72153500  0.50000000  0.00000000  1
  P  P5  1  0.23061200  0.00000000  0.00000000  1
  P  P6  1  0.50000000  0.72153500  0.00000000  1
  P  P7  1  0.50000000  0.73061200  0.50000000  1
  P  P8  1  0.22153500  0.00000000  0.50000000  1
  P  P9  1  0.00000000  0.22153500  0.50000000  1
  P  P10  1  0.27846500  0.50000000  0.00000000  1
  P  P11  1  0.77846500  0.00000000  0.50000000  1
  P  P12  1  0.00000000  0.77846500  0.50000000  1
  P  P13  1  0.50000000  0.26938800  0.50000000  1
  P  P14  1  0.00000000  0.76938800  0.00000000  1
  P  P15  1  0.73061200  0.50000000  0.50000000  1
  O  O0  1  0.37944700  0.62055300  0.56354700  1
  O  O1  1  0.61428100  0.61428100  0.92685400  1
  O  O2  1  0.29966500  0.07273200  0.37908800  1
  O  O3  1  0.79966500  0.57273200  0.12091200  1
  O  O4  1  0.37944700  0.37944700  0.43645300  1
  O  O5  1  0.87944700  0.12055300  0.93645300  1
  O  O6  1  0.43770200  0.80935000  0.37459300  1
  O  O7  1  0.42726800  0.20033500  0.12091200  1
  O  O8  1  0.20033500  0.42726800  0.12091200  1
  O  O9  1  0.19065000  0.43770200  0.62540700  1
  O  O10  1  0.92726800  0.70033500  0.37908800  1
  O  O11  1  0.62055300  0.37944700  0.56354700  1
  O  O12  1  0.88571900  0.88571900  0.57314600  1
  O  O13  1  0.93770200  0.30935000  0.12540700  1
  O  O14  1  0.62055300  0.62055300  0.43645300  1
  O  O15  1  0.20033500  0.57273200  0.87908800  1
  O  O16  1  0.57273200  0.79966500  0.12091200  1
  O  O17  1  0.38571900  0.38571900  0.92685400  1
  O  O18  1  0.79966500  0.42726800  0.87908800  1
  O  O19  1  0.19065000  0.56229800  0.37459300  1
  O  O20  1  0.30935000  0.06229800  0.87459300  1
  O  O21  1  0.70033500  0.92726800  0.37908800  1
  O  O22  1  0.11428100  0.88571900  0.42685400  1
  O  O23  1  0.06229800  0.69065000  0.12540700  1
  O  O24  1  0.30935000  0.93770200  0.12540700  1
  O  O25  1  0.07273200  0.70033500  0.62091200  1
  O  O26  1  0.88571900  0.11428100  0.42685400  1
  O  O27  1  0.29966500  0.92726800  0.62091200  1
  O  O28  1  0.38571900  0.61428100  0.07314600  1
  O  O29  1  0.56229800  0.80935000  0.62540700  1
  O  O30  1  0.43770200  0.19065000  0.62540700  1
  O  O31  1  0.42726800  0.79966500  0.87908800  1
  O  O32  1  0.56229800  0.19065000  0.37459300  1
  O  O33  1  0.07273200  0.29966500  0.37908800  1
  O  O34  1  0.80935000  0.43770200  0.37459300  1
  O  O35  1  0.87944700  0.87944700  0.06354700  1
  O  O36  1  0.69065000  0.06229800  0.12540700  1
  O  O37  1  0.69065000  0.93770200  0.87459300  1
  O  O38  1  0.93770200  0.69065000  0.87459300  1
  O  O39  1  0.06229800  0.30935000  0.87459300  1
  O  O40  1  0.92726800  0.29966500  0.62091200  1
  O  O41  1  0.80935000  0.56229800  0.62540700  1
  O  O42  1  0.57273200  0.20033500  0.87908800  1
  O  O43  1  0.61428100  0.38571900  0.07314600  1
  O  O44  1  0.11428100  0.11428100  0.57314600  1
  O  O45  1  0.12055300  0.87944700  0.93645300  1
  O  O46  1  0.12055300  0.12055300  0.06354700  1
  O  O47  1  0.70033500  0.07273200  0.62091200  1
loop_
_geom_bond_atom_site_label_1
_geom_bond_atom_site_label_2
_geom_bond_distance
_geom_bond_site_symmetry_2
Li0 O27 2.095678 1_555
Li0 O31 2.095678 1_555
Li0 O15 2.095678 1_555
Li0 O25 2.095678 1_555
Li0 O0 2.436332 1_555
Li0 O45 2.436332 1_555
Li1 O40 2.095678 1_555
Li1 O18 2.095678 1_555
Li1 O42 2.095678 1_555
Li1 O47 2.095678 1_555
Li1 O5 2.436332 1_555
Li1 O11 2.436332 1_555
Li2 O10 2.095678 1_555
Li2 O21 2.095678 1_555
Li2 O3 2.095678 1_555
Li2 O16 2.095678 1_555
Li2 O14 2.436332 1_555
Li2 O35 2.436332 1_555
Li3 O33 2.095678 1_555
Li3 O2 2.095678 1_555
Li3 O7 2.095678 1_555
Li3 O8 2.095678 1_555
Li3 O4 2.436332 1_555
Li3 O46 2.436332 1_555
Mn0 O39 2.200555 1_555
Mn0 O38 2.200555 1_455
Mn0 O41 2.200555 1_455
Mn0 O9 2.200555 1_555
Mn0 O25 2.322186 1_555
Mn0 O15 2.322186 1_555
Mn0 O18 2.322186 1_455
Mn0 O40 2.322186 1_455
Mn1 O34 2.200555 1_455
Mn1 O19 2.200555 1_555
Mn1 O23 2.200555 1_555
Mn1 O13 2.200555 1_455
Mn1 O10 2.322186 1_455
Mn1 O8 2.322186 1_555
Mn1 O33 2.322186 1_555
Mn1 O3 2.322186 1_455
Mn2 O20 2.200555 1_555
Mn2 O37 2.200555 1_545
Mn2 O29 2.200555 1_545
Mn2 O30 2.200555 1_555
Mn2 O47 2.322186 1_555
Mn2 O42 2.322186 1_555
Mn2 O31 2.322186 1_545
Mn2 O27 2.322186 1_545
Mn3 O6 2.200555 1_545
Mn3 O32 2.200555 1_555
Mn3 O36 2.200555 1_555
Mn3 O24 2.200555 1_545
Mn3 O21 2.322186 1_545
Mn3 O7 2.322186 1_555
Mn3 O2 2.322186 1_555
Mn3 O16 2.322186 1_545
O0 P7 1.632061 1_555
O0 P2 1.632061 1_555
O1 P6 1.611592 1_556
O1 P4 1.611592 1_556
O2 P8 1.503988 1_555
O3 P4 1.503988 1_555
O4 P13 1.632061 1_555
O4 P2 1.632061 1_555
O5 P0 1.632061 1_656
O5 P1 1.632061 1_556
O6 P7 1.498150 1_555
O7 P3 1.503988 1_555
O8 P10 1.503988 1_555
O9 P2 1.498150 1_555
O10 P12 1.503988 1_655
O11 P15 1.632061 1_555
O11 P13 1.632061 1_555
O12 P12 1.611592 1_655
O12 P11 1.611592 1_565
O13 P0 1.498150 1_655
O14 P7 1.632061 1_555
O14 P15 1.632061 1_555
O15 P10 1.503988 1_556
O16 P6 1.503988 1_555
O17 P3 1.611592 1_556
O17 P10 1.611592 1_556
O18 P4 1.503988 1_556
O19 P2 1.498150 1_555
O20 P5 1.498150 1_556
O21 P11 1.503988 1_565
O22 P12 1.611592 1_555
O22 P8 1.611592 1_565
O23 P14 1.498150 1_555
O24 P5 1.498150 1_565
O25 P12 1.503988 1_555
O26 P11 1.611592 1_555
O26 P9 1.611592 1_655
O27 P8 1.503988 1_565
O28 P6 1.611592 1_555
O28 P10 1.611592 1_555
O29 P7 1.498150 1_555
O30 P13 1.498150 1_555
O31 P6 1.503988 1_556
O32 P13 1.498150 1_555
O33 P9 1.503988 1_555
O34 P15 1.498150 1_555
O35 P1 1.632061 1_565
O35 P14 1.632061 1_655
O36 P1 1.498150 1_555
O37 P1 1.498150 1_566
O38 P14 1.498150 1_656
O39 P0 1.498150 1_556
O40 P9 1.503988 1_655
O41 P15 1.498150 1_555
O42 P3 1.503988 1_556
O43 P4 1.611592 1_555
O43 P3 1.611592 1_555
O44 P8 1.611592 1_555
O44 P9 1.611592 1_555
O45 P5 1.632061 1_566
O45 P14 1.632061 1_556
O46 P5 1.632061 1_555
O46 P0 1.632061 1_555
O47 P11 1.503988 1_555
