# generated using pymatgen
data_Li11Ti8Fe5O32
_symmetry_space_group_name_H-M   'P 1'
_cell_length_a   8.35569200
_cell_length_b   8.42189610
_cell_length_c   8.43889897
_cell_angle_alpha   90.14080779
_cell_angle_beta   90.06528091
_cell_angle_gamma   90.02932856
_symmetry_Int_Tables_number   1
_chemical_formula_structural   Li11Ti8Fe5O32
_chemical_formula_sum   'Li11 Ti8 Fe5 O32'
_cell_volume   593.84956041
_cell_formula_units_Z   1
loop_
 _symmetry_equiv_pos_site_id
 _symmetry_equiv_pos_as_xyz
  1  'x, y, z'
loop_
 _atom_site_type_symbol
 _atom_site_label
 _atom_site_symmetry_multiplicity
 _atom_site_fract_x
 _atom_site_fract_y
 _atom_site_fract_z
 _atom_site_occupancy
  Li  Li0  1  0.99761300  0.50696200  0.49469800  1
  Li  Li1  1  0.88381300  0.37290800  0.87532200  1
  Li  Li2  1  0.75796000  0.75135400  0.74963600  1
  Li  Li3  1  0.75007300  0.24940000  0.25269300  1
  Li  Li4  1  0.62519000  0.87501700  0.12434600  1
  Li  Li5  1  0.49882500  0.00272000  0.50055600  1
  Li  Li6  1  0.49449000  0.49920600  0.00038500  1
  Li  Li7  1  0.36640100  0.62403000  0.62053000  1
  Li  Li8  1  0.24852100  0.74299200  0.25233000  1
  Li  Li9  1  0.12474000  0.12937100  0.37750400  1
  Li  Li10  1  0.99917400  0.00282500  0.99835400  1
  Ti  Ti0  1  0.86586100  0.13219000  0.61849800  1
  Ti  Ti1  1  0.87897100  0.87938200  0.36471200  1
  Ti  Ti2  1  0.86574100  0.61921300  0.12280400  1
  Ti  Ti3  1  0.63915700  0.12850000  0.88502000  1
  Ti  Ti4  1  0.62942200  0.38852700  0.63629000  1
  Ti  Ti5  1  0.61981200  0.63466600  0.37727700  1
  Ti  Ti6  1  0.38311400  0.86587800  0.87234600  1
  Ti  Ti7  1  0.37383200  0.11560600  0.13743400  1
  Fe  Fe0  1  0.37680300  0.37622800  0.37326700  1
  Fe  Fe1  1  0.25291800  0.24584000  0.75163700  1
  Fe  Fe2  1  0.12390700  0.87199300  0.62628400  1
  Fe  Fe3  1  0.12326700  0.62735500  0.87483200  1
  Fe  Fe4  1  0.12794200  0.37260800  0.12666300  1
  O  O0  1  0.90516900  0.38806300  0.12797800  1
  O  O1  1  0.89675200  0.88683600  0.61495400  1
  O  O2  1  0.90137600  0.62194400  0.89272000  1
  O  O3  1  0.87411000  0.10330300  0.39203700  1
  O  O4  1  0.88841800  0.85456800  0.14591800  1
  O  O5  1  0.86079200  0.35632900  0.62071200  1
  O  O6  1  0.86124200  0.63439100  0.36053100  1
  O  O7  1  0.85637500  0.12520600  0.85900700  1
  O  O8  1  0.64548800  0.62004800  0.13753600  1
  O  O9  1  0.63982900  0.13477600  0.63754600  1
  O  O10  1  0.64088300  0.85478200  0.37631600  1
  O  O11  1  0.62139700  0.35940000  0.85536300  1
  O  O12  1  0.62677000  0.60748200  0.60906800  1
  O  O13  1  0.60520300  0.12707200  0.10515500  1
  O  O14  1  0.60529300  0.38459600  0.39003700  1
  O  O15  1  0.60259300  0.89179400  0.87203000  1
  O  O16  1  0.39194400  0.60058000  0.37445100  1
  O  O17  1  0.38085500  0.11631500  0.88246000  1
  O  O18  1  0.38327700  0.37092800  0.61596400  1
  O  O19  1  0.36289900  0.89718200  0.10597400  1
  O  O20  1  0.37430900  0.14852000  0.35708300  1
  O  O21  1  0.34975800  0.64357100  0.87428400  1
  O  O22  1  0.35517900  0.36303300  0.12981300  1
  O  O23  1  0.34695200  0.87746500  0.64073000  1
  O  O24  1  0.14685600  0.37789800  0.35152600  1
  O  O25  1  0.13233500  0.86774300  0.85495900  1
  O  O26  1  0.13797100  0.15305600  0.12252100  1
  O  O27  1  0.12273700  0.64859000  0.64422700  1
  O  O28  1  0.13058700  0.38489600  0.88862600  1
  O  O29  1  0.11331300  0.87138300  0.40601100  1
  O  O30  1  0.11969000  0.60234700  0.10905300  1
  O  O31  1  0.11210100  0.11114900  0.63201000  1
loop_
_geom_bond_atom_site_label_1
_geom_bond_atom_site_label_2
_geom_bond_distance
_geom_bond_site_symmetry_2
Li0 O6 1.932966 1_555
Li0 O5 2.013739 1_555
Li0 O27 2.023954 1_655
Li0 O24 2.048101 1_655
Li1 O28 2.067296 1_655
Li1 O7 2.102723 1_555
Li1 O2 2.107158 1_555
Li1 O0 2.142876 1_556
Li1 O5 2.161170 1_555
Li1 O11 2.201797 1_555
Li2 O1 1.986614 1_555
Li2 O12 2.016321 1_555
Li2 O2 2.021472 1_555
Li2 O15 2.037084 1_555
Li3 O3 1.994111 1_555
Li3 O13 2.016388 1_555
Li3 O14 2.025182 1_555
Li3 O0 2.039235 1_555
Li4 O13 2.135956 1_565
Li4 O10 2.137467 1_555
Li4 O15 2.142427 1_554
Li4 O8 2.157233 1_555
Li4 O19 2.204967 1_555
Li4 O4 2.213599 1_555
Li5 O9 1.987637 1_555
Li5 O10 2.014557 1_545
Li5 O20 2.015417 1_555
Li5 O23 2.032393 1_545
Li6 O22 1.967453 1_555
Li6 O8 1.989163 1_555
Li6 O11 2.001421 1_554
Li6 O21 2.019427 1_554
Li7 O27 2.056490 1_555
Li7 O16 2.096666 1_555
Li7 O18 2.136586 1_555
Li7 O23 2.147039 1_555
Li7 O21 2.151977 1_555
Li7 O12 2.182333 1_555
Li8 O16 1.985313 1_555
Li8 O30 2.003107 1_555
Li8 O29 2.031057 1_555
Li8 O19 2.033322 1_555
Li9 O20 2.098782 1_555
Li9 O3 2.109290 1_455
Li9 O24 2.113078 1_555
Li9 O31 2.156306 1_555
Li9 O26 2.164435 1_555
Li9 O29 2.188660 1_545
Li10 O7 1.967952 1_555
Li10 O4 1.993806 1_546
Li10 O25 1.998541 1_645
Li10 O26 2.008228 1_656
Fe0 O16 1.893636 1_555
Fe0 O14 1.915517 1_555
Fe0 O20 1.922356 1_555
Fe0 O24 1.929960 1_555
Fe0 O18 2.049345 1_555
Fe0 O22 2.064924 1_555
Fe1 O17 1.885724 1_555
Fe1 O18 1.901242 1_555
Fe1 O31 1.918497 1_555
Fe1 O28 1.936493 1_555
Fe2 O29 1.860862 1_555
Fe2 O23 1.868077 1_555
Fe2 O27 1.887952 1_555
Fe2 O1 1.904521 1_455
Fe2 O25 1.931390 1_555
Fe2 O31 2.017075 1_565
Fe3 O2 1.860903 1_455
Fe3 O21 1.897352 1_555
Fe3 O27 1.954690 1_555
Fe3 O30 1.988528 1_556
Fe3 O25 2.033249 1_555
Fe3 O28 2.046507 1_555
Fe4 O26 1.851231 1_555
Fe4 O0 1.866078 1_455
Fe4 O22 1.900634 1_555
Fe4 O24 1.904397 1_555
Fe4 O30 1.942154 1_555
Fe4 O28 2.011834 1_554
O0 Ti2 1.975148 1_555
O1 Ti0 2.082682 1_565
O1 Ti1 2.117593 1_555
O2 Ti2 1.964878 1_556
O3 Ti1 1.899783 1_545
O3 Ti0 1.927227 1_555
O4 Ti1 1.859429 1_555
O4 Ti2 2.000111 1_555
O5 Ti0 1.888219 1_555
O5 Ti4 1.956843 1_555
O6 Ti2 2.010304 1_555
O6 Ti5 2.022421 1_555
O6 Ti1 2.068736 1_555
O7 Ti3 1.828698 1_555
O7 Ti0 2.032263 1_555
O8 Ti2 1.844718 1_555
O8 Ti5 2.038164 1_555
O9 Ti0 1.895796 1_555
O9 Ti3 2.089221 1_555
O9 Ti4 2.138929 1_555
O10 Ti5 1.862085 1_555
O10 Ti1 2.002575 1_555
O11 Ti4 1.866812 1_555
O11 Ti3 1.966924 1_555
O12 Ti4 1.858971 1_555
O12 Ti5 1.970767 1_555
O13 Ti3 1.879623 1_554
O13 Ti7 1.955039 1_555
O14 Ti4 2.087813 1_555
O14 Ti5 2.112510 1_555
O15 Ti6 1.846736 1_555
O15 Ti3 2.019326 1_565
O16 Ti5 1.925481 1_555
O17 Ti6 2.110766 1_545
O17 Ti7 2.152590 1_556
O17 Ti3 2.160759 1_555
O18 Ti4 2.068868 1_555
O19 Ti7 1.860141 1_565
O19 Ti6 1.995832 1_554
O20 Ti7 1.873534 1_555
O21 Ti6 1.892850 1_555
O22 Ti7 2.090846 1_555
O23 Ti6 1.980112 1_555
O25 Ti6 2.100466 1_555
O26 Ti7 1.999891 1_555
O29 Ti1 1.989677 1_455
O30 Ti2 2.130017 1_455
O31 Ti0 2.068253 1_455
