# generated using pymatgen
data_LiMnBO3
_symmetry_space_group_name_H-M   'P 1'
_cell_length_a   5.29235023
_cell_length_b   6.05058058
_cell_length_c   8.99832142
_cell_angle_alpha   102.72894106
_cell_angle_beta   90.57373244
_cell_angle_gamma   113.44808835
_symmetry_Int_Tables_number   1
_chemical_formula_structural   LiMnBO3
_chemical_formula_sum   'Li4 Mn4 B4 O12'
_cell_volume   256.31002687
_cell_formula_units_Z   4
loop_
 _symmetry_equiv_pos_site_id
 _symmetry_equiv_pos_as_xyz
  1  'x, y, z'
loop_
 _atom_site_type_symbol
 _atom_site_label
 _atom_site_symmetry_multiplicity
 _atom_site_fract_x
 _atom_site_fract_y
 _atom_site_fract_z
 _atom_site_occupancy
  Li  Li0  1  0.90304600  0.67201000  0.53384700  1
  Li  Li1  1  0.40305700  0.67201200  0.03384700  1
  Li  Li2  1  0.09694600  0.32798900  0.46615200  1
  Li  Li3  1  0.59694900  0.32799600  0.96614800  1
  Mn  Mn0  1  0.45465300  0.76528400  0.70639100  1
  Mn  Mn1  1  0.54534000  0.23472800  0.29360800  1
  Mn  Mn2  1  0.95465800  0.76522900  0.20638900  1
  Mn  Mn3  1  0.04536300  0.23475700  0.79362000  1
  B  B0  1  0.94055300  0.73701400  0.86729800  1
  B  B1  1  0.44055300  0.73702000  0.36729800  1
  B  B2  1  0.05943900  0.26298000  0.13270400  1
  B  B3  1  0.55944700  0.26298000  0.63269900  1
  O  O0  1  0.66805800  0.67566400  0.36566600  1
  O  O1  1  0.16806600  0.67565900  0.86565500  1
  O  O2  1  0.33193800  0.32433100  0.63433400  1
  O  O3  1  0.83192800  0.32433900  0.13434200  1
  O  O4  1  0.87830300  0.82583400  0.74642400  1
  O  O5  1  0.37830300  0.82583400  0.24641800  1
  O  O6  1  0.12169000  0.17416200  0.25357600  1
  O  O7  1  0.62171000  0.17417000  0.75357800  1
  O  O8  1  0.26968700  0.70186300  0.48317900  1
  O  O9  1  0.76969400  0.70186500  0.98318300  1
  O  O10  1  0.73030300  0.29813700  0.51681400  1
  O  O11  1  0.23031800  0.29814300  0.01682900  1
loop_
_geom_bond_atom_site_label_1
_geom_bond_atom_site_label_2
_geom_bond_distance
_geom_bond_site_symmetry_2
Li0 O8 1.944401 1_655
Li0 O0 1.958642 1_555
Li0 O4 1.964637 1_555
Li0 O10 2.043316 1_555
Li1 O9 1.944371 1_554
Li1 O1 1.958710 1_554
Li1 O5 1.964602 1_555
Li1 O11 2.043317 1_555
Li2 O10 1.944399 1_455
Li2 O2 1.958673 1_555
Li2 O6 1.964636 1_555
Li2 O8 2.043331 1_555
Li3 O11 1.944381 1_556
Li3 O3 1.958710 1_556
Li3 O7 1.964611 1_555
Li3 O9 2.043291 1_555
Mn0 O1 2.092784 1_555
Mn0 O8 2.112283 1_555
Mn0 O4 2.136110 1_555
Mn0 O7 2.207135 1_565
Mn0 O2 2.410556 1_555
Mn1 O3 2.092790 1_555
Mn1 O10 2.112244 1_555
Mn1 O6 2.136082 1_555
Mn1 O5 2.207183 1_545
Mn1 O0 2.410457 1_555
Mn2 O0 2.092870 1_555
Mn2 O9 2.112304 1_554
Mn2 O5 2.135986 1_655
Mn2 O6 2.207402 1_665
Mn2 O3 2.410182 1_555
Mn3 O2 2.092854 1_555
Mn3 O11 2.112282 1_556
Mn3 O7 2.136072 1_455
Mn3 O4 2.207335 1_445
Mn3 O1 2.410273 1_555
B0 O9 1.383411 1_555
B0 O1 1.393381 1_655
B0 O4 1.404163 1_555
B1 O8 1.383408 1_555
B1 O0 1.393347 1_555
B1 O5 1.404186 1_555
B2 O11 1.383408 1_555
B2 O3 1.393387 1_455
B2 O6 1.404142 1_555
B3 O10 1.383404 1_555
B3 O2 1.393348 1_555
B3 O7 1.404188 1_555
