# generated using pymatgen
data_Li2VCu(PO4)2
_symmetry_space_group_name_H-M   'P 1'
_cell_length_a   6.08338400
_cell_length_b   4.75274000
_cell_length_c   10.30202890
_cell_angle_alpha   89.10427315
_cell_angle_beta   90.00000000
_cell_angle_gamma   90.00000000
_symmetry_Int_Tables_number   1
_chemical_formula_structural   Li2VCu(PO4)2
_chemical_formula_sum   'Li4 V2 Cu2 P4 O16'
_cell_volume   297.82351027
_cell_formula_units_Z   2
loop_
 _symmetry_equiv_pos_site_id
 _symmetry_equiv_pos_as_xyz
  1  'x, y, z'
loop_
 _atom_site_type_symbol
 _atom_site_label
 _atom_site_symmetry_multiplicity
 _atom_site_fract_x
 _atom_site_fract_y
 _atom_site_fract_z
 _atom_site_occupancy
  Li  Li0  1  0.00000000  0.50000000  0.00000000  1
  Li  Li1  1  0.50000000  0.50000000  0.00000000  1
  Li  Li2  1  0.00000000  0.00000000  0.50000000  1
  Li  Li3  1  0.50000000  0.00000000  0.50000000  1
  V  V0  1  0.75000000  0.98379900  0.78020900  1
  V  V1  1  0.25000000  0.01620100  0.21979100  1
  Cu  Cu0  1  0.25000000  0.45023800  0.71603000  1
  Cu  Cu1  1  0.75000000  0.54976200  0.28397000  1
  P  P0  1  0.25000000  0.92296500  0.90782600  1
  P  P1  1  0.75000000  0.41350700  0.59587200  1
  P  P2  1  0.25000000  0.58649300  0.40412800  1
  P  P3  1  0.75000000  0.07703500  0.09217400  1
  O  O0  1  0.75000000  0.21455100  0.95298200  1
  O  O1  1  0.25000000  0.24568300  0.90918900  1
  O  O2  1  0.04169800  0.79865100  0.83927800  1
  O  O3  1  0.45830200  0.79865100  0.83927800  1
  O  O4  1  0.55161100  0.26796200  0.66922500  1
  O  O5  1  0.94838900  0.26796200  0.66922500  1
  O  O6  1  0.75000000  0.73669800  0.60270700  1
  O  O7  1  0.25000000  0.69634000  0.54413000  1
  O  O8  1  0.75000000  0.30366000  0.45587000  1
  O  O9  1  0.25000000  0.26330200  0.39729300  1
  O  O10  1  0.05161100  0.73203800  0.33077500  1
  O  O11  1  0.44838900  0.73203800  0.33077500  1
  O  O12  1  0.54169800  0.20134900  0.16072200  1
  O  O13  1  0.95830200  0.20134900  0.16072200  1
  O  O14  1  0.75000000  0.75431700  0.09081100  1
  O  O15  1  0.25000000  0.78544900  0.04701800  1
loop_
_geom_bond_atom_site_label_1
_geom_bond_atom_site_label_2
_geom_bond_distance
_geom_bond_site_symmetry_2
Li0 O0 2.099686 1_454
Li0 O15 2.099686 1_555
Li0 O14 2.164375 1_455
Li0 O1 2.164375 1_554
Li0 O13 2.178794 1_455
Li0 O2 2.178794 1_554
Li1 O0 2.099686 1_554
Li1 O15 2.099686 1_555
Li1 O14 2.164375 1_555
Li1 O1 2.164375 1_554
Li1 O12 2.178794 1_555
Li1 O3 2.178794 1_554
Li2 O8 2.140566 1_455
Li2 O7 2.140566 1_545
Li2 O5 2.197553 1_455
Li2 O10 2.197553 1_545
Li2 O9 2.226465 1_555
Li2 O6 2.226465 1_445
Li3 O8 2.140566 1_555
Li3 O7 2.140566 1_545
Li3 O4 2.197553 1_555
Li3 O11 2.197553 1_545
Li3 O6 2.226465 1_545
Li3 O9 2.226465 1_555
Cu0 O5 2.088685 1_455
Cu0 O4 2.088685 1_555
Cu0 O7 2.107010 1_555
Cu0 O1 2.201022 1_555
Cu0 O2 2.454729 1_555
Cu0 O3 2.454729 1_555
Cu1 O11 2.088685 1_555
Cu1 O10 2.088685 1_655
Cu1 O8 2.107010 1_555
Cu1 O14 2.201022 1_555
Cu1 O13 2.454729 1_555
Cu1 O12 2.454729 1_555
O0 P3 1.566558 1_556
O0 V0 2.105203 1_545
O1 P0 1.534079 1_545
O2 P0 1.570532 1_555
O2 V0 2.068039 1_455
O3 P0 1.570532 1_555
O3 V0 2.068039 1_555
O4 P1 1.577900 1_555
O4 V0 2.130619 1_545
O5 P1 1.577900 1_555
O5 V0 2.130619 1_545
O6 P1 1.538755 1_555
O6 V0 2.188668 1_555
O7 P2 1.541540 1_555
O8 P1 1.541540 1_555
O9 P2 1.538755 1_555
O9 V1 2.188668 1_555
O10 P2 1.577900 1_555
O10 V1 2.130619 1_565
O11 P2 1.577900 1_555
O11 V1 2.130619 1_565
O12 P3 1.570532 1_555
O12 V1 2.068039 1_555
O13 P3 1.570532 1_555
O13 V1 2.068039 1_655
O14 P3 1.534079 1_565
O15 P0 1.566558 1_554
O15 V1 2.105203 1_565
