# generated using pymatgen
data_V3CrSn2(PO4)6
_symmetry_space_group_name_H-M   'P 1'
_cell_length_a   8.99529588
_cell_length_b   8.99529588
_cell_length_c   8.99529612
_cell_angle_alpha   57.14104037
_cell_angle_beta   57.14104037
_cell_angle_gamma   57.14104330
_symmetry_Int_Tables_number   1
_chemical_formula_structural   V3CrSn2(PO4)6
_chemical_formula_sum   'V3 Cr1 Sn2 P6 O24'
_cell_volume   480.76903280
_cell_formula_units_Z   1
loop_
 _symmetry_equiv_pos_site_id
 _symmetry_equiv_pos_as_xyz
  1  'x, y, z'
loop_
 _atom_site_type_symbol
 _atom_site_label
 _atom_site_symmetry_multiplicity
 _atom_site_fract_x
 _atom_site_fract_y
 _atom_site_fract_z
 _atom_site_occupancy
  V  V0  1  0.64790500  0.64790500  0.64790500  1
  V  V1  1  0.85299000  0.85299000  0.85299000  1
  V  V2  1  0.35194400  0.35194400  0.35194400  1
  Cr  Cr0  1  0.14704900  0.14704900  0.14704900  1
  Sn  Sn0  1  0.00196300  0.00196300  0.00196300  1
  Sn  Sn1  1  0.50088800  0.50088800  0.50088800  1
  P  P0  1  0.24976700  0.53432900  0.96393100  1
  P  P1  1  0.96393100  0.24976700  0.53432900  1
  P  P2  1  0.53432900  0.96393100  0.24976700  1
  P  P3  1  0.46384300  0.03661900  0.74990300  1
  P  P4  1  0.03661900  0.74990300  0.46384300  1
  P  P5  1  0.74990300  0.46384300  0.03661900  1
  O  O0  1  0.12954000  0.28338900  0.50833200  1
  O  O1  1  0.50833200  0.12954000  0.28338900  1
  O  O2  1  0.28338900  0.50833200  0.12954000  1
  O  O3  1  0.07636300  0.72015300  0.93772500  1
  O  O4  1  0.22176500  0.37044700  0.98646900  1
  O  O5  1  0.42483600  0.56456200  0.77929900  1
  O  O6  1  0.93772500  0.07636300  0.72015300  1
  O  O7  1  0.77929900  0.42483600  0.56456200  1
  O  O8  1  0.62905100  0.00890100  0.78338300  1
  O  O9  1  0.56456200  0.77929900  0.42483600  1
  O  O10  1  0.27965200  0.05870100  0.92351100  1
  O  O11  1  0.00890100  0.78338300  0.62905100  1
  O  O12  1  0.98646900  0.22176500  0.37044700  1
  O  O13  1  0.72015300  0.93772500  0.07636300  1
  O  O14  1  0.43837100  0.22061800  0.57511200  1
  O  O15  1  0.37044700  0.98646900  0.22176500  1
  O  O16  1  0.22061800  0.57511200  0.43837100  1
  O  O17  1  0.05870100  0.92351100  0.27965200  1
  O  O18  1  0.57511200  0.43837100  0.22061800  1
  O  O19  1  0.78338300  0.62905100  0.00890100  1
  O  O20  1  0.92351100  0.27965200  0.05870100  1
  O  O21  1  0.71276300  0.49424500  0.87165500  1
  O  O22  1  0.49424500  0.87165500  0.71276300  1
  O  O23  1  0.87165500  0.71276300  0.49424500  1
loop_
_geom_bond_atom_site_label_1
_geom_bond_atom_site_label_2
_geom_bond_distance
_geom_bond_site_symmetry_2
Cr0 O4 1.959251 1_554
Cr0 O12 1.959251 1_455
Cr0 O15 1.959251 1_545
Cr0 O17 2.049476 1_545
Cr0 O20 2.049476 1_455
Cr0 O10 2.049476 1_554
O0 P1 1.549031 1_455
O0 V2 1.924842 1_555
O1 P2 1.549031 1_545
O1 V2 1.924842 1_555
O2 P0 1.549031 1_554
O2 V2 1.924842 1_555
O3 P0 1.557169 1_555
O3 V1 2.028380 1_455
O3 Sn0 2.556705 1_566
O4 P0 1.516881 1_555
O5 P0 1.564843 1_555
O5 V0 2.020554 1_555
O5 Sn1 2.517984 1_555
O6 P1 1.557169 1_555
O6 V1 2.028380 1_545
O6 Sn0 2.556705 1_656
O7 P1 1.564843 1_555
O7 V0 2.020554 1_555
O7 Sn1 2.517984 1_555
O8 P3 1.537350 1_555
O8 V1 1.940840 1_545
O9 P2 1.564843 1_555
O9 V0 2.020554 1_555
O9 Sn1 2.517984 1_555
O10 P3 1.547618 1_555
O10 Sn0 2.465298 1_556
O11 P4 1.537350 1_555
O11 V1 1.940840 1_455
O12 P1 1.516881 1_555
O13 P2 1.557169 1_555
O13 V1 2.028380 1_554
O13 Sn0 2.556705 1_665
O14 P3 1.555486 1_555
O14 V2 2.037993 1_555
O14 Sn1 2.534264 1_555
O15 P2 1.516881 1_555
O16 P4 1.555486 1_555
O16 V2 2.037993 1_555
O16 Sn1 2.534264 1_555
O17 P4 1.547618 1_555
O17 Sn0 2.465298 1_565
O18 P5 1.555486 1_555
O18 V2 2.037993 1_555
O18 Sn1 2.534264 1_555
O19 P5 1.537350 1_555
O19 V1 1.940840 1_554
O20 P5 1.547618 1_555
O20 Sn0 2.465298 1_655
O21 P5 1.544932 1_556
O21 V0 1.918891 1_555
O22 P3 1.544932 1_565
O22 V0 1.918891 1_555
O23 P4 1.544932 1_655
O23 V0 1.918891 1_555
