# generated using pymatgen
data_V6O7F5
_symmetry_space_group_name_H-M   'P 1'
_cell_length_a   4.69920400
_cell_length_b   5.65617063
_cell_length_c   7.75746768
_cell_angle_alpha   86.08736329
_cell_angle_beta   89.31579948
_cell_angle_gamma   89.05541575
_symmetry_Int_Tables_number   1
_chemical_formula_structural   V6O7F5
_chemical_formula_sum   'V6 O7 F5'
_cell_volume   205.66898775
_cell_formula_units_Z   1
loop_
 _symmetry_equiv_pos_site_id
 _symmetry_equiv_pos_as_xyz
  1  'x, y, z'
loop_
 _atom_site_type_symbol
 _atom_site_label
 _atom_site_symmetry_multiplicity
 _atom_site_fract_x
 _atom_site_fract_y
 _atom_site_fract_z
 _atom_site_occupancy
  V  V0  1  0.48060500  0.84899300  0.66903700  1
  V  V1  1  0.49113100  0.49380100  0.99716500  1
  V  V2  1  0.53078800  0.16959200  0.33783900  1
  V  V3  1  0.02890200  0.32611400  0.66345900  1
  V  V4  1  0.93777500  0.66372100  0.32911200  1
  V  V5  1  0.00504200  0.00421200  0.00260900  1
  O  O0  1  0.81061500  0.37538400  0.43498500  1
  O  O1  1  0.80587600  0.69707400  0.10641800  1
  O  O2  1  0.69010700  0.20159100  0.10472200  1
  O  O3  1  0.70920100  0.85807100  0.44148400  1
  O  O4  1  0.31428700  0.13194500  0.56144000  1
  O  O5  1  0.30582900  0.79288700  0.89589500  1
  O  O6  1  0.19151500  0.29559200  0.89576000  1
  F  F0  1  0.80294600  0.03786700  0.76579700  1
  F  F1  1  0.70247300  0.53795700  0.75643000  1
  F  F2  1  0.29122900  0.47199300  0.24107700  1
  F  F3  1  0.20137000  0.95868300  0.24065400  1
  F  F4  1  0.20030700  0.63452200  0.55611500  1
loop_
_geom_bond_atom_site_label_1
_geom_bond_atom_site_label_2
_geom_bond_distance
_geom_bond_site_symmetry_2
O0 V4 1.878565 1_555
O0 V2 1.961066 1_555
O0 V3 2.058591 1_655
O1 V4 1.838860 1_555
O1 V5 2.094538 1_665
O1 V1 2.108743 1_554
O2 V2 1.947058 1_555
O2 V1 2.020309 1_554
O2 V5 2.025414 1_655
O3 V4 1.786482 1_555
O3 V0 2.053485 1_555
O3 V2 2.056239 1_565
O4 V0 1.913355 1_545
O4 V3 1.917211 1_555
O4 V2 2.000939 1_555
O5 V0 1.941691 1_555
O5 V1 2.005891 1_555
O5 V5 2.040411 1_566
O6 V3 1.961443 1_555
O6 V5 2.003735 1_556
O6 V1 2.014169 1_555
F0 V0 2.046726 1_545
F0 V3 2.067880 1_655
F0 V5 2.073867 1_656
F1 V3 2.083224 1_655
F1 V0 2.106018 1_555
F1 V1 2.106292 1_555
F2 V1 2.099372 1_554
F2 V4 2.101374 1_455
F2 V2 2.130207 1_555
F3 V5 2.072551 1_565
F3 V2 2.144595 1_565
F3 V4 2.163386 1_455
F4 V0 2.049182 1_555
F4 V3 2.053589 1_555
F4 V4 2.157720 1_455
