# generated using pymatgen
data_Li3MnV4O12
_symmetry_space_group_name_H-M   'P 1'
_cell_length_a   5.03330700
_cell_length_b   5.41054283
_cell_length_c   7.37951731
_cell_angle_alpha   94.94708049
_cell_angle_beta   90.93610473
_cell_angle_gamma   90.97715479
_symmetry_Int_Tables_number   1
_chemical_formula_structural   Li3MnV4O12
_chemical_formula_sum   'Li3 Mn1 V4 O12'
_cell_volume   200.15607524
_cell_formula_units_Z   1
loop_
 _symmetry_equiv_pos_site_id
 _symmetry_equiv_pos_as_xyz
  1  'x, y, z'
loop_
 _atom_site_type_symbol
 _atom_site_label
 _atom_site_symmetry_multiplicity
 _atom_site_fract_x
 _atom_site_fract_y
 _atom_site_fract_z
 _atom_site_occupancy
  Li  Li0  1  0.50181200  0.06819100  0.20913100  1
  Li  Li1  1  0.00307100  0.57532300  0.21333300  1
  Li  Li2  1  0.49522600  0.06613000  0.71745000  1
  Mn  Mn0  1  0.00100300  0.58960100  0.70771500  1
  V  V0  1  0.99782500  0.01894200  0.99747000  1
  V  V1  1  0.49029800  0.48781000  0.49856900  1
  V  V2  1  0.99558100  0.00200900  0.48360400  1
  V  V3  1  0.50800700  0.50688200  0.00551800  1
  O  O0  1  0.29201800  0.76825300  0.59262400  1
  O  O1  1  0.11996500  0.96133300  0.26479300  1
  O  O2  1  0.30884300  0.15518300  0.96386300  1
  O  O3  1  0.19359000  0.26440800  0.58134000  1
  O  O4  1  0.80998700  0.27211400  0.08013900  1
  O  O5  1  0.38542800  0.46397400  0.26869400  1
  O  O6  1  0.63689200  0.45808400  0.75781600  1
  O  O7  1  0.17078300  0.64466700  0.94913000  1
  O  O8  1  0.82957700  0.66176000  0.47413300  1
  O  O9  1  0.69152900  0.77496600  0.07763700  1
  O  O10  1  0.87297900  0.97199200  0.77476000  1
  O  O11  1  0.69558700  0.14757800  0.45268100  1
loop_
_geom_bond_atom_site_label_1
_geom_bond_atom_site_label_2
_geom_bond_distance
_geom_bond_site_symmetry_2
Li0 O11 2.039919 1_555
Li0 O9 2.046186 1_545
Li0 O1 2.055663 1_545
Li0 O2 2.132120 1_554
Li0 O4 2.168064 1_555
Li0 O5 2.238485 1_555
Li1 O4 2.058695 1_455
Li1 O5 2.071218 1_555
Li1 O8 2.144502 1_455
Li1 O1 2.160164 1_555
Li1 O9 2.195778 1_455
Li1 O7 2.196311 1_554
Li2 O10 2.024182 1_545
Li2 O0 2.036935 1_545
Li2 O2 2.082999 1_555
Li2 O3 2.157854 1_555
Li2 O6 2.219685 1_555
Li2 O11 2.286165 1_555
Mn0 O7 1.960330 1_555
Mn0 O0 1.983723 1_555
Mn0 O8 1.986731 1_455
Mn0 O6 2.006190 1_455
Mn0 O3 2.170208 1_555
Mn0 O10 2.195424 1_455
O0 V1 1.916442 1_555
O0 V2 2.161874 1_465
O1 V2 1.739008 1_465
O1 V0 2.107049 1_464
O2 V0 1.749390 1_455
O2 V3 2.131748 1_556
O3 V2 1.811281 1_455
O3 V1 2.039606 1_555
O4 V0 1.749650 1_554
O4 V3 2.094305 1_555
O5 V1 1.761703 1_555
O5 V3 2.078073 1_555
O6 V3 1.947611 1_556
O6 V1 2.059443 1_555
O7 V3 1.919244 1_556
O7 V0 2.220709 1_465
O8 V1 1.954238 1_555
O8 V2 2.003870 1_565
O9 V3 1.745135 1_555
O9 V0 2.136435 1_564
O10 V0 1.746217 1_565
O10 V2 2.263562 1_565
O11 V2 1.735709 1_555
O11 V1 2.130688 1_555
