# generated using pymatgen
data_LiMn2F7
_symmetry_space_group_name_H-M   'P 1'
_cell_length_a   8.22962600
_cell_length_b   9.71642047
_cell_length_c   13.00137421
_cell_angle_alpha   93.13744543
_cell_angle_beta   103.00132593
_cell_angle_gamma   91.03832984
_symmetry_Int_Tables_number   1
_chemical_formula_structural   LiMn2F7
_chemical_formula_sum   'Li8 Mn16 F56'
_cell_volume   1010.95826566
_cell_formula_units_Z   8
loop_
 _symmetry_equiv_pos_site_id
 _symmetry_equiv_pos_as_xyz
  1  'x, y, z'
loop_
 _atom_site_type_symbol
 _atom_site_label
 _atom_site_symmetry_multiplicity
 _atom_site_fract_x
 _atom_site_fract_y
 _atom_site_fract_z
 _atom_site_occupancy
  Li  Li0  1  0.97315700  0.86667200  0.29622700  1
  Li  Li1  1  0.97156700  0.36928800  0.29331000  1
  Li  Li2  1  0.38240500  0.84034900  0.80730900  1
  Li  Li3  1  0.60434100  0.59743600  0.18543900  1
  Li  Li4  1  0.60023900  0.09237300  0.17624400  1
  Li  Li5  1  0.01747900  0.35856800  0.89498200  1
  Li  Li6  1  0.04444600  0.63606900  0.72660300  1
  Li  Li7  1  0.06018700  0.12268600  0.72127900  1
  Mn  Mn0  1  0.31532800  0.62804700  0.95466100  1
  Mn  Mn1  1  0.32084200  0.12925400  0.95078600  1
  Mn  Mn2  1  0.17520000  0.85640400  0.54078200  1
  Mn  Mn3  1  0.17533800  0.35581000  0.53796400  1
  Mn  Mn4  1  0.21827700  0.87351900  0.17079000  1
  Mn  Mn5  1  0.21531800  0.37400400  0.16738400  1
  Mn  Mn6  1  0.38139800  0.59437800  0.37546800  1
  Mn  Mn7  1  0.37256000  0.09663800  0.37082500  1
  Mn  Mn8  1  0.58391900  0.85062800  0.61566500  1
  Mn  Mn9  1  0.57933900  0.35167300  0.61448100  1
  Mn  Mn10  1  0.80343000  0.11049600  0.83879000  1
  Mn  Mn11  1  0.78655000  0.61964300  0.84152100  1
  Mn  Mn12  1  0.80742600  0.59429100  0.46550600  1
  Mn  Mn13  1  0.80643900  0.09599200  0.46635200  1
  Mn  Mn14  1  0.68096200  0.37538000  0.03925100  1
  Mn  Mn15  1  0.69500700  0.87222200  0.03494200  1
  F  F0  1  0.01458800  0.53173500  0.84523700  1
  F  F1  1  0.02687500  0.03218300  0.84485500  1
  F  F2  1  0.01510500  0.74870100  0.43593700  1
  F  F3  1  0.01183600  0.24933800  0.43291000  1
  F  F4  1  0.20863800  0.76307000  0.87212200  1
  F  F5  1  0.20772500  0.26519400  0.87551900  1
  F  F6  1  0.14799000  0.24677100  0.64201300  1
  F  F7  1  0.15583400  0.74900600  0.64932800  1
  F  F8  1  0.21703500  0.97085300  0.43816300  1
  F  F9  1  0.21304000  0.47182700  0.43339100  1
  F  F10  1  0.12967500  0.50676800  0.24379200  1
  F  F11  1  0.13672900  0.00631700  0.25135500  1
  F  F12  1  0.15015100  0.96790000  0.05529300  1
  F  F13  1  0.14653800  0.46381600  0.04522400  1
  F  F14  1  0.34670400  0.53596900  0.83727600  1
  F  F15  1  0.34747200  0.03246700  0.82978600  1
  F  F16  1  0.35750400  0.94927400  0.63282400  1
  F  F17  1  0.36013300  0.44839300  0.62781900  1
  F  F18  1  0.28676100  0.26949400  0.28669400  1
  F  F19  1  0.29421600  0.76876100  0.29145900  1
  F  F20  1  0.30301600  0.73426100  0.09020600  1
  F  F21  1  0.30137900  0.23451500  0.08630200  1
  F  F22  1  0.40896600  0.73176100  0.51351500  1
  F  F23  1  0.39991900  0.23120100  0.50627700  1
  F  F24  1  0.54218500  0.24523500  0.94957100  1
  F  F25  1  0.53074300  0.75727800  0.94101300  1
  F  F26  1  0.54393500  0.75687300  0.72871500  1
  F  F27  1  0.55971700  0.24506400  0.72020000  1
  F  F28  1  0.41704900  0.48079300  0.22765400  1
  F  F29  1  0.42031800  0.98109600  0.22603900  1
  F  F30  1  0.46719500  0.00965600  0.03408900  1
  F  F31  1  0.47088500  0.51342500  0.04046400  1
  F  F32  1  0.60329200  0.95932200  0.50145400  1
  F  F33  1  0.59438000  0.46553300  0.49937600  1
  F  F34  1  0.70877900  0.97995500  0.91418300  1
  F  F35  1  0.72094100  0.47455000  0.92016000  1
  F  F36  1  0.71339500  0.99612200  0.70892700  1
  F  F37  1  0.70461000  0.50178900  0.71288600  1
  F  F38  1  0.62522800  0.66437400  0.36417500  1
  F  F39  1  0.62020200  0.16089100  0.36638700  1
  F  F40  1  0.65876500  0.27745800  0.15521400  1
  F  F41  1  0.66385200  0.77767400  0.14982000  1
  F  F42  1  0.84805800  0.73426700  0.96514600  1
  F  F43  1  0.86917700  0.23428200  0.95802700  1
  F  F44  1  0.88561200  0.24556900  0.76692800  1
  F  F45  1  0.86757400  0.74728100  0.76668800  1
  F  F46  1  0.76567300  0.72417800  0.56698100  1
  F  F47  1  0.76007300  0.22851700  0.56582700  1
  F  F48  1  0.83796800  0.97911900  0.35720500  1
  F  F49  1  0.83511300  0.47783600  0.35545000  1
  F  F50  1  0.79052100  0.51082100  0.13507200  1
  F  F51  1  0.79473500  0.01189100  0.13005500  1
  F  F52  1  0.97515500  0.00754900  0.56652500  1
  F  F53  1  0.97508300  0.50762800  0.56476300  1
  F  F54  1  0.01485300  0.28551500  0.15421900  1
  F  F55  1  0.01852400  0.78505900  0.16024800  1
loop_
_geom_bond_atom_site_label_1
_geom_bond_atom_site_label_2
_geom_bond_distance
_geom_bond_site_symmetry_2
F0 Li5 1.833990 1_555
F0 Li6 1.949294 1_555
F0 Mn11 2.067754 1_455
F1 Li7 1.942649 1_555
F1 Mn10 1.989647 1_455
F2 Mn2 1.917008 1_555
F2 Li0 2.166235 1_455
F2 Mn12 2.363401 1_455
F3 Mn3 1.927243 1_555
F3 Li1 2.176531 1_455
F3 Mn13 2.361491 1_455
F4 Mn0 1.848134 1_555
F4 Li2 1.972673 1_555
F4 Li6 2.337047 1_555
F5 Mn1 1.828937 1_555
F5 Li5 1.882296 1_555
F5 Li7 2.439769 1_555
F6 Mn3 1.813388 1_555
F6 Li7 1.864757 1_555
F7 Mn2 1.833668 1_555
F7 Li6 1.884798 1_555
F8 Mn2 1.868267 1_555
F8 Mn7 2.112580 1_565
F9 Mn3 1.886901 1_555
F9 Mn6 2.100607 1_555
F10 Mn5 1.831777 1_555
F10 Li1 2.073640 1_455
F10 Mn6 2.475434 1_555
F11 Mn4 1.847218 1_545
F11 Li0 2.089805 1_445
F11 Mn7 2.319955 1_555
F12 Mn4 1.789058 1_555
F13 Mn5 1.835636 1_555
F13 Li5 2.190416 1_554
F13 Mn0 2.592979 1_554
F14 Mn0 1.797919 1_555
F15 Mn1 1.846058 1_555
F15 Li2 1.910537 1_545
F16 Mn2 1.876721 1_555
F16 Mn8 2.160729 1_555
F17 Mn3 1.876916 1_555
F17 Mn9 2.086136 1_555
F18 Mn5 1.888585 1_555
F18 Mn7 2.100579 1_555
F19 Mn4 1.909099 1_555
F19 Mn6 2.114875 1_555
F20 Mn4 1.903320 1_555
F20 Mn0 2.016428 1_554
F21 Mn5 1.914202 1_555
F21 Mn1 2.027715 1_554
F22 Mn8 2.020452 1_555
F22 Mn6 2.144345 1_555
F22 Mn2 2.374393 1_555
F23 Mn9 2.086140 1_555
F23 Mn7 2.102473 1_555
F23 Mn3 2.328230 1_555
F24 Mn14 1.857417 1_556
F24 Mn1 2.128101 1_555
F25 Mn15 1.902450 1_556
F25 Li2 2.097151 1_555
F25 Mn0 2.199134 1_555
F26 Mn8 1.857894 1_555
F26 Li2 2.007153 1_555
F27 Mn9 1.799434 1_555
F28 Mn5 1.926148 1_555
F28 Li3 2.084919 1_555
F28 Mn6 2.242906 1_555
F29 Mn4 1.921099 1_555
F29 Li4 2.056817 1_565
F29 Mn7 2.252970 1_565
F30 Mn1 1.890927 1_554
F30 Li4 2.038538 1_555
F30 Mn15 2.319748 1_545
F31 Mn0 1.915405 1_554
F31 Li3 2.071945 1_555
F31 Mn14 2.209588 1_555
F32 Mn8 1.902054 1_555
F32 Mn13 2.257406 1_565
F32 Mn7 2.675625 1_565
F33 Mn9 1.933506 1_555
F33 Mn12 2.271850 1_555
F33 Mn6 2.502897 1_555
F34 Mn10 1.902687 1_565
F34 Mn15 1.956850 1_556
F35 Mn11 1.924302 1_555
F35 Mn14 1.953240 1_556
F36 Mn8 1.944363 1_555
F36 Mn10 1.958717 1_565
F37 Mn11 1.953968 1_555
F37 Mn9 1.993724 1_555
F38 Mn12 1.921978 1_555
F38 Mn6 2.145858 1_555
F38 Li3 2.345943 1_555
F39 Mn13 1.914241 1_555
F39 Mn7 2.134779 1_555
F39 Li4 2.492936 1_555
F40 Mn14 1.867182 1_555
F40 Li4 1.903297 1_555
F41 Mn15 1.858603 1_555
F41 Li3 1.918592 1_555
F42 Mn11 1.870180 1_555
F42 Mn15 2.156153 1_556
F43 Mn10 1.880836 1_555
F43 Li5 2.030960 1_655
F43 Mn14 2.459354 1_556
F44 Mn10 1.854503 1_555
F44 Li5 2.024544 1_655
F44 Li7 2.051869 1_655
F45 Mn11 1.822988 1_555
F45 Li6 1.973499 1_655
F46 Mn12 1.867841 1_555
F46 Mn8 2.134242 1_555
F47 Mn13 1.879868 1_555
F47 Mn9 2.109347 1_555
F48 Mn13 1.835913 1_565
F48 Li0 1.845576 1_555
F49 Mn12 1.832620 1_555
F49 Li1 1.839570 1_555
F50 Mn14 1.835471 1_555
F50 Li3 1.980544 1_555
F51 Mn15 1.834045 1_545
F51 Li4 1.990129 1_555
F52 Mn13 1.927341 1_555
F52 Li7 2.209334 1_655
F52 Mn2 2.293645 1_645
F53 Mn12 1.907358 1_555
F53 Mn3 2.302953 1_655
F53 Li6 2.336030 1_655
F54 Mn5 1.815394 1_555
F54 Li1 2.049123 1_455
F55 Mn4 1.815062 1_555
F55 Li0 2.011964 1_455
