# generated using pymatgen
data_LiCoPO4
_symmetry_space_group_name_H-M   'P 1'
_cell_length_a   4.84683200
_cell_length_b   7.58551300
_cell_length_c   17.44934411
_cell_angle_alpha   87.21347673
_cell_angle_beta   90.00000000
_cell_angle_gamma   90.00000000
_symmetry_Int_Tables_number   1
_chemical_formula_structural   LiCoPO4
_chemical_formula_sum   'Li8 Co8 P8 O32'
_cell_volume   640.77892130
_cell_formula_units_Z   8
loop_
 _symmetry_equiv_pos_site_id
 _symmetry_equiv_pos_as_xyz
  1  'x, y, z'
loop_
 _atom_site_type_symbol
 _atom_site_label
 _atom_site_symmetry_multiplicity
 _atom_site_fract_x
 _atom_site_fract_y
 _atom_site_fract_z
 _atom_site_occupancy
  Li  Li0  1  0.79800600  0.12576000  0.77476600  1
  Li  Li1  1  0.70199400  0.12576000  0.27476600  1
  Li  Li2  1  0.21527100  0.35223600  0.51052100  1
  Li  Li3  1  0.28472900  0.35223600  0.01052100  1
  Li  Li4  1  0.71527100  0.64776400  0.98947900  1
  Li  Li5  1  0.78472900  0.64776400  0.48947900  1
  Li  Li6  1  0.29800600  0.87424000  0.72523400  1
  Li  Li7  1  0.20199400  0.87424000  0.22523400  1
  Co  Co0  1  0.72489700  0.02648400  0.59731700  1
  Co  Co1  1  0.77510300  0.02648400  0.09731700  1
  Co  Co2  1  0.37505300  0.50740300  0.82353600  1
  Co  Co3  1  0.12494700  0.50740300  0.32353600  1
  Co  Co4  1  0.87505300  0.49259700  0.67646400  1
  Co  Co5  1  0.62494700  0.49259700  0.17646400  1
  Co  Co6  1  0.22489700  0.97351600  0.90268300  1
  Co  Co7  1  0.27510300  0.97351600  0.40268300  1
  P  P0  1  0.37355300  0.25572700  0.67512500  1
  P  P1  1  0.12644700  0.25572700  0.17512500  1
  P  P2  1  0.69193600  0.22847800  0.93068700  1
  P  P3  1  0.80806400  0.22847800  0.43068700  1
  P  P4  1  0.19193600  0.77152200  0.56931300  1
  P  P5  1  0.30806400  0.77152200  0.06931300  1
  P  P6  1  0.87355300  0.74427300  0.82487500  1
  P  P7  1  0.62644700  0.74427300  0.32487500  1
  O  O0  1  0.51469100  0.07811700  0.70105600  1
  O  O1  1  0.98530900  0.07811700  0.20105600  1
  O  O2  1  0.59310200  0.17212800  0.01259800  1
  O  O3  1  0.55544100  0.11685800  0.86877300  1
  O  O4  1  0.45592700  0.28529000  0.59096600  1
  O  O5  1  0.06021700  0.25474800  0.69258600  1
  O  O6  1  0.90689800  0.17212800  0.51259800  1
  O  O7  1  0.94455900  0.11685800  0.36877400  1
  O  O8  1  0.04407300  0.28529000  0.09096600  1
  O  O9  1  0.43978300  0.25474800  0.19258600  1
  O  O10  1  0.00946100  0.21648900  0.92168400  1
  O  O11  1  0.49053900  0.21648900  0.42168400  1
  O  O12  1  0.50749600  0.40871200  0.72240000  1
  O  O13  1  0.99250400  0.40871200  0.22240000  1
  O  O14  1  0.57410500  0.42280600  0.91783200  1
  O  O15  1  0.92589500  0.42280600  0.41783200  1
  O  O16  1  0.07410500  0.57719400  0.58216800  1
  O  O17  1  0.42589500  0.57719400  0.08216800  1
  O  O18  1  0.00749600  0.59128800  0.77760000  1
  O  O19  1  0.49250400  0.59128800  0.27760000  1
  O  O20  1  0.50946100  0.78351100  0.57831600  1
  O  O21  1  0.99053900  0.78351100  0.07831600  1
  O  O22  1  0.56021700  0.74525200  0.80741400  1
  O  O23  1  0.95592700  0.71471000  0.90903400  1
  O  O24  1  0.05544100  0.88314200  0.63122700  1
  O  O25  1  0.09310200  0.82787200  0.48740200  1
  O  O26  1  0.93978300  0.74525200  0.30741400  1
  O  O27  1  0.54407300  0.71471000  0.40903400  1
  O  O28  1  0.44455900  0.88314200  0.13122700  1
  O  O29  1  0.40689800  0.82787200  0.98740200  1
  O  O30  1  0.01469100  0.92188300  0.79894400  1
  O  O31  1  0.48530900  0.92188300  0.29894400  1
loop_
_geom_bond_atom_site_label_1
_geom_bond_atom_site_label_2
_geom_bond_distance
_geom_bond_site_symmetry_2
Li0 O30 1.899802 1_645
Li0 O0 1.927619 1_555
Li0 O3 2.016625 1_555
Li0 O5 2.119531 1_655
Li1 O31 1.899802 1_545
Li1 O1 1.927619 1_555
Li1 O7 2.016639 1_555
Li1 O9 2.119531 1_555
Li2 O4 1.876037 1_555
Li2 O6 2.024094 1_455
Li2 O15 2.187556 1_455
Li2 O16 2.269455 1_555
Li2 O11 2.323465 1_555
Li3 O8 1.876037 1_555
Li3 O2 2.024094 1_555
Li3 O14 2.187556 1_554
Li3 O17 2.269455 1_555
Li3 O10 2.323465 1_554
Li4 O23 1.876037 1_555
Li4 O29 2.024094 1_555
Li4 O17 2.187556 1_556
Li4 O14 2.269455 1_555
Li4 O21 2.323465 1_556
Li5 O27 1.876037 1_555
Li5 O25 2.024094 1_655
Li5 O16 2.187556 1_655
Li5 O15 2.269455 1_555
Li5 O20 2.323465 1_555
Li6 O0 1.899802 1_565
Li6 O30 1.927619 1_555
Li6 O24 2.016625 1_555
Li6 O22 2.119531 1_555
Li7 O1 1.899802 1_465
Li7 O31 1.927619 1_555
Li7 O28 2.016625 1_555
Li7 O26 2.119531 1_455
Co0 O6 2.006302 1_555
Co0 O24 2.009111 1_645
Co0 O0 2.130046 1_555
Co0 O20 2.157912 1_545
Co0 O4 2.354718 1_555
Co1 O2 2.006302 1_555
Co1 O28 2.009111 1_545
Co1 O1 2.130046 1_555
Co1 O21 2.157912 1_545
Co1 O8 2.354718 1_655
Co2 O14 1.986773 1_555
Co2 O22 2.022470 1_555
Co2 O18 2.042421 1_555
Co2 O12 2.053126 1_555
Co3 O15 1.986773 1_455
Co3 O26 2.022470 1_455
Co3 O19 2.042421 1_555
Co3 O13 2.053126 1_455
Co4 O16 1.986773 1_655
Co4 O5 2.022470 1_655
Co4 O12 2.042421 1_555
Co4 O18 2.053126 1_655
Co5 O17 1.986773 1_555
Co5 O9 2.022470 1_555
Co5 O13 2.042421 1_555
Co5 O19 2.053126 1_555
Co6 O29 2.006302 1_555
Co6 O3 2.009111 1_565
Co6 O30 2.130046 1_555
Co6 O10 2.157912 1_565
Co6 O23 2.354718 1_455
Co7 O25 2.006302 1_555
Co7 O7 2.009107 1_465
Co7 O31 2.130046 1_555
Co7 O11 2.157912 1_565
Co7 O27 2.354718 1_555
O0 P0 1.558377 1_555
O1 P1 1.558377 1_655
O2 P2 1.547791 1_554
O3 P2 1.552636 1_555
O4 P0 1.527816 1_555
O5 P0 1.548895 1_555
O6 P3 1.547791 1_555
O7 P3 1.552624 1_555
O8 P1 1.527816 1_555
O9 P1 1.548895 1_555
O10 P2 1.550107 1_455
O11 P3 1.550107 1_555
O12 P0 1.594276 1_555
O13 P1 1.594276 1_655
O14 P2 1.586579 1_555
O15 P3 1.586579 1_555
O16 P4 1.586579 1_555
O17 P5 1.586579 1_555
O18 P6 1.594276 1_455
O19 P7 1.594276 1_555
O20 P4 1.550107 1_555
O21 P5 1.550107 1_655
O22 P6 1.548895 1_555
O23 P6 1.527816 1_555
O24 P4 1.552636 1_555
O25 P4 1.547791 1_555
O26 P7 1.548895 1_555
O27 P7 1.527816 1_555
O28 P5 1.552636 1_555
O29 P5 1.547791 1_556
O30 P6 1.558377 1_455
O31 P7 1.558377 1_555
