# generated using pymatgen
data_LiBiB2O5
_symmetry_space_group_name_H-M   'P 1'
_cell_length_a   4.42455300
_cell_length_b   11.56721200
_cell_length_c   13.51692300
_cell_angle_alpha   90.00000000
_cell_angle_beta   90.00000000
_cell_angle_gamma   90.00000000
_symmetry_Int_Tables_number   1
_chemical_formula_structural   LiBiB2O5
_chemical_formula_sum   'Li8 Bi8 B16 O40'
_cell_volume   691.79263929
_cell_formula_units_Z   8
loop_
 _symmetry_equiv_pos_site_id
 _symmetry_equiv_pos_as_xyz
  1  'x, y, z'
loop_
 _atom_site_type_symbol
 _atom_site_label
 _atom_site_symmetry_multiplicity
 _atom_site_fract_x
 _atom_site_fract_y
 _atom_site_fract_z
 _atom_site_occupancy
  Li  Li0  1  0.70922800  0.90578700  0.09389300  1
  Li  Li1  1  0.27151200  0.73781700  0.15506200  1
  Li  Li2  1  0.77151200  0.23781700  0.34493800  1
  Li  Li3  1  0.20922800  0.40578700  0.40610700  1
  Li  Li4  1  0.79077200  0.90578700  0.59389300  1
  Li  Li5  1  0.22848800  0.73781700  0.65506200  1
  Li  Li6  1  0.72848800  0.23781700  0.84493800  1
  Li  Li7  1  0.29077200  0.40578700  0.90610700  1
  Bi  Bi0  1  0.83144500  0.64014100  0.02597000  1
  Bi  Bi1  1  0.20324900  0.00419100  0.22082000  1
  Bi  Bi2  1  0.70324900  0.50419100  0.27918000  1
  Bi  Bi3  1  0.33144500  0.14014100  0.47403000  1
  Bi  Bi4  1  0.66855500  0.64014100  0.52597000  1
  Bi  Bi5  1  0.29675100  0.00419100  0.72082000  1
  Bi  Bi6  1  0.79675100  0.50419100  0.77918000  1
  Bi  Bi7  1  0.16855500  0.14014100  0.97403000  1
  B  B0  1  0.80605400  0.37361300  0.01796900  1
  B  B1  1  0.29771000  0.45375300  0.10739000  1
  B  B2  1  0.72020200  0.19497600  0.13968000  1
  B  B3  1  0.21714700  0.27393000  0.23157600  1
  B  B4  1  0.71714700  0.77393000  0.26842400  1
  B  B5  1  0.22020200  0.69497600  0.36032000  1
  B  B6  1  0.79771000  0.95375300  0.39261000  1
  B  B7  1  0.30605400  0.87361300  0.48203100  1
  B  B8  1  0.69394600  0.37361300  0.51796900  1
  B  B9  1  0.20229000  0.45375300  0.60739000  1
  B  B10  1  0.77979800  0.19497600  0.63968000  1
  B  B11  1  0.28285300  0.27393000  0.73157600  1
  B  B12  1  0.78285300  0.77393000  0.76842400  1
  B  B13  1  0.27979800  0.69497600  0.86032000  1
  B  B14  1  0.70229000  0.95375300  0.89261000  1
  B  B15  1  0.19394600  0.87361300  0.98203100  1
  O  O0  1  0.13213400  0.38949700  0.03374100  1
  O  O1  1  0.27218300  0.89603900  0.08929400  1
  O  O2  1  0.73740400  0.24908000  0.03597300  1
  O  O3  1  0.63283100  0.45459500  0.08135100  1
  O  O4  1  0.20845000  0.57447400  0.11858200  1
  O  O5  1  0.82722000  0.07384400  0.12623400  1
  O  O6  1  0.39140400  0.19232100  0.16701400  1
  O  O7  1  0.28660400  0.39911900  0.21145100  1
  O  O8  1  0.77654500  0.75268500  0.16151200  1
  O  O9  1  0.88997400  0.25878600  0.21330300  1
  O  O10  1  0.38997400  0.75878600  0.28669700  1
  O  O11  1  0.27654500  0.25268500  0.33848800  1
  O  O12  1  0.78660400  0.89911900  0.28854900  1
  O  O13  1  0.89140400  0.69232100  0.33298600  1
  O  O14  1  0.32722000  0.57384400  0.37376600  1
  O  O15  1  0.70845000  0.07447400  0.38141800  1
  O  O16  1  0.13283100  0.95459500  0.41864900  1
  O  O17  1  0.23740400  0.74908000  0.46402700  1
  O  O18  1  0.77218300  0.39603900  0.41070600  1
  O  O19  1  0.63213400  0.88949700  0.46625900  1
  O  O20  1  0.36786600  0.38949700  0.53374100  1
  O  O21  1  0.22781700  0.89603900  0.58929400  1
  O  O22  1  0.76259600  0.24908000  0.53597300  1
  O  O23  1  0.86716900  0.45459500  0.58135100  1
  O  O24  1  0.29155000  0.57447400  0.61858200  1
  O  O25  1  0.67278000  0.07384400  0.62623400  1
  O  O26  1  0.10859600  0.19232100  0.66701400  1
  O  O27  1  0.21339600  0.39911900  0.71145100  1
  O  O28  1  0.72345500  0.75268500  0.66151200  1
  O  O29  1  0.61002600  0.25878600  0.71330300  1
  O  O30  1  0.11002600  0.75878600  0.78669700  1
  O  O31  1  0.22345500  0.25268500  0.83848800  1
  O  O32  1  0.71339600  0.89911900  0.78854900  1
  O  O33  1  0.60859600  0.69232100  0.83298600  1
  O  O34  1  0.17278000  0.57384400  0.87376600  1
  O  O35  1  0.79155000  0.07447400  0.88141800  1
  O  O36  1  0.36716900  0.95459500  0.91864900  1
  O  O37  1  0.26259600  0.74908000  0.96402700  1
  O  O38  1  0.72781700  0.39603900  0.91070600  1
  O  O39  1  0.86786600  0.88949700  0.96625900  1
loop_
_geom_bond_atom_site_label_1
_geom_bond_atom_site_label_2
_geom_bond_distance
_geom_bond_site_symmetry_2
Li0 O39 1.872045 1_554
Li0 O1 1.938011 1_555
Li0 O8 2.015049 1_555
Li0 O5 2.059756 1_565
Li0 O1 2.494150 1_655
Li1 O10 1.870686 1_555
Li1 O4 1.972541 1_555
Li1 O1 2.034670 1_555
Li1 O8 2.198480 1_455
Li1 O8 2.242849 1_555
Li2 O9 1.870686 1_555
Li2 O15 1.972541 1_555
Li2 O18 2.034670 1_555
Li2 O11 2.198480 1_555
Li2 O11 2.242849 1_655
Li3 O20 1.872045 1_555
Li3 O18 1.938011 1_455
Li3 O11 2.015049 1_555
Li3 O14 2.059756 1_555
Li3 O18 2.494150 1_555
Li4 O19 1.872045 1_555
Li4 O21 1.938011 1_655
Li4 O28 2.015049 1_555
Li4 O25 2.059756 1_565
Li4 O21 2.494150 1_555
Li5 O30 1.870686 1_555
Li5 O24 1.972541 1_555
Li5 O21 2.034670 1_555
Li5 O28 2.198480 1_555
Li5 O28 2.242849 1_455
Li6 O29 1.870686 1_555
Li6 O35 1.972541 1_555
Li6 O38 2.034670 1_555
Li6 O31 2.198480 1_655
Li6 O31 2.242849 1_555
Li7 O0 1.872045 1_556
Li7 O38 1.938011 1_555
Li7 O31 2.015049 1_555
Li7 O34 2.059756 1_555
Li7 O38 2.494150 1_455
Bi0 O4 2.219579 1_655
Bi0 O8 2.260613 1_555
Bi0 O37 2.434763 1_654
Bi0 O3 2.437009 1_555
Bi0 O34 2.664877 1_654
Bi1 O1 2.195162 1_545
Bi1 O5 2.247627 1_455
Bi1 O12 2.390327 1_445
Bi1 O6 2.440819 1_555
Bi1 O16 2.752577 1_545
Bi2 O18 2.195162 1_555
Bi2 O14 2.247627 1_555
Bi2 O7 2.390327 1_555
Bi2 O13 2.440819 1_555
Bi2 O3 2.752577 1_555
Bi3 O15 2.219579 1_555
Bi3 O11 2.260613 1_555
Bi3 O22 2.434763 1_555
Bi3 O16 2.437009 1_545
Bi3 O25 2.664877 1_555
Bi4 O24 2.219579 1_555
Bi4 O28 2.260613 1_555
Bi4 O17 2.434763 1_555
Bi4 O23 2.437009 1_555
Bi4 O14 2.664877 1_555
Bi5 O21 2.195162 1_545
Bi5 O25 2.247627 1_555
Bi5 O32 2.390327 1_545
Bi5 O26 2.440819 1_555
Bi5 O36 2.752577 1_545
Bi6 O38 2.195162 1_555
Bi6 O34 2.247627 1_655
Bi6 O27 2.390327 1_655
Bi6 O33 2.440819 1_555
Bi6 O23 2.752577 1_555
Bi7 O35 2.219579 1_455
Bi7 O31 2.260613 1_555
Bi7 O2 2.434763 1_456
Bi7 O36 2.437009 1_545
Bi7 O5 2.664877 1_456
B0 O0 1.469952 1_655
B0 O3 1.482863 1_555
B0 O2 1.492154 1_555
B0 O38 1.513021 1_554
B1 O0 1.442282 1_555
B1 O4 1.459044 1_555
B1 O3 1.523993 1_555
B1 O7 1.542813 1_555
B2 O9 1.448925 1_555
B2 O5 1.490131 1_555
B2 O6 1.501283 1_555
B2 O2 1.537043 1_555
B3 O9 1.478926 1_455
B3 O11 1.489240 1_555
B3 O6 1.499046 1_555
B3 O7 1.505125 1_555
B4 O10 1.478926 1_555
B4 O8 1.489240 1_555
B4 O13 1.499046 1_555
B4 O12 1.505125 1_555
B5 O10 1.448925 1_555
B5 O14 1.490131 1_555
B5 O13 1.501283 1_455
B5 O17 1.537043 1_555
B6 O19 1.442282 1_555
B6 O15 1.459044 1_565
B6 O16 1.523993 1_655
B6 O12 1.542813 1_555
B7 O19 1.469952 1_555
B7 O16 1.482863 1_555
B7 O17 1.492154 1_555
B7 O21 1.513021 1_555
B8 O20 1.469952 1_555
B8 O23 1.482863 1_555
B8 O22 1.492154 1_555
B8 O18 1.513021 1_555
B9 O20 1.442282 1_555
B9 O24 1.459044 1_555
B9 O23 1.523993 1_455
B9 O27 1.542813 1_555
B10 O29 1.448925 1_555
B10 O25 1.490131 1_555
B10 O26 1.501283 1_655
B10 O22 1.537043 1_555
B11 O29 1.478926 1_555
B11 O31 1.489240 1_555
B11 O26 1.499046 1_555
B11 O27 1.505125 1_555
B12 O30 1.478926 1_655
B12 O28 1.489240 1_555
B12 O33 1.499046 1_555
B12 O32 1.505125 1_555
B13 O30 1.448925 1_555
B13 O34 1.490131 1_555
B13 O33 1.501283 1_555
B13 O37 1.537043 1_555
B14 O39 1.442282 1_555
B14 O35 1.459044 1_565
B14 O36 1.523993 1_555
B14 O32 1.542813 1_555
B15 O39 1.469952 1_455
B15 O36 1.482863 1_555
B15 O37 1.492154 1_555
B15 O1 1.513021 1_556
