# generated using pymatgen
data_CaH8(ClO2)2
_symmetry_space_group_name_H-M   'P 1'
_cell_length_a   6.42707000
_cell_length_b   6.51560615
_cell_length_c   8.59198081
_cell_angle_alpha   92.38536192
_cell_angle_beta   97.85631635
_cell_angle_gamma   110.41019697
_symmetry_Int_Tables_number   1
_chemical_formula_structural   CaH8(ClO2)2
_chemical_formula_sum   'Ca2 H16 Cl4 O8'
_cell_volume   332.49821911
_cell_formula_units_Z   2
loop_
 _symmetry_equiv_pos_site_id
 _symmetry_equiv_pos_as_xyz
  1  'x, y, z'
loop_
 _atom_site_type_symbol
 _atom_site_label
 _atom_site_symmetry_multiplicity
 _atom_site_fract_x
 _atom_site_fract_y
 _atom_site_fract_z
 _atom_site_occupancy
  Ca  Ca0  1  0.98838500  0.12304200  0.25598100  1
  Ca  Ca1  1  0.01161500  0.87695800  0.74401900  1
  H  H0  1  0.81136200  0.67386400  0.07704400  1
  H  H1  1  0.18863800  0.32613600  0.92295600  1
  H  H2  1  0.65157500  0.79338200  0.00995500  1
  H  H3  1  0.34842500  0.20661800  0.99004500  1
  H  H4  1  0.44154800  0.07781100  0.32289000  1
  H  H5  1  0.55845200  0.92218900  0.67711000  1
  H  H6  1  0.29817500  0.89948500  0.18067400  1
  H  H7  1  0.70182500  0.10051500  0.81932600  1
  H  H8  1  0.40677200  0.54618600  0.34120800  1
  H  H9  1  0.59322800  0.45381400  0.65879200  1
  H  H10  1  0.29803800  0.53749200  0.16511700  1
  H  H11  1  0.70196200  0.46250800  0.83488300  1
  H  H12  1  0.75701700  0.40191400  0.40396000  1
  H  H13  1  0.24298300  0.59808600  0.59604000  1
  H  H14  1  0.76859000  0.22302600  0.52150500  1
  H  H15  1  0.23141000  0.77697400  0.47849500  1
  Cl  Cl0  1  0.70421600  0.29056500  0.04529900  1
  Cl  Cl1  1  0.29578400  0.70943500  0.95470100  1
  Cl  Cl2  1  0.77129200  0.74241000  0.42086800  1
  Cl  Cl3  1  0.22870800  0.25759000  0.57913200  1
  O  O0  1  0.81306200  0.81826700  0.04577500  1
  O  O1  1  0.18693800  0.18173300  0.95422500  1
  O  O2  1  0.28672500  0.97716200  0.27838800  1
  O  O3  1  0.71327500  0.02283800  0.72161200  1
  O  O4  1  0.26950400  0.47056600  0.26513500  1
  O  O5  1  0.73049600  0.52943400  0.73486500  1
  O  O6  1  0.73946800  0.24467000  0.40889200  1
  O  O7  1  0.26053200  0.75532900  0.59110800  1
loop_
_geom_bond_atom_site_label_1
_geom_bond_atom_site_label_2
_geom_bond_distance
_geom_bond_site_symmetry_2
Ca0 O4 2.343215 1_655
Ca0 O2 2.408863 1_645
Ca0 O0 2.461593 1_545
Ca0 O6 2.507130 1_555
Ca0 Cl0 2.907727 1_555
Ca0 Cl2 2.919558 1_545
Ca0 Cl3 2.922978 1_655
Ca0 O1 3.023798 1_654
Ca1 O5 2.343215 1_455
Ca1 O3 2.408863 1_465
Ca1 O1 2.461593 1_565
Ca1 O7 2.507134 1_555
Ca1 Cl1 2.907727 1_555
Ca1 Cl3 2.919558 1_565
Ca1 Cl2 2.922978 1_455
Ca1 O0 3.023798 1_456
H0 O0 0.986010 1_555
H1 O1 0.986010 1_555
H2 O0 0.994670 1_555
H3 O1 0.994670 1_555
H4 O2 0.993165 1_545
H5 O3 0.993165 1_565
H6 O2 0.986873 1_555
H7 O3 0.986873 1_555
H8 O4 0.980143 1_555
H9 O5 0.980143 1_555
H10 O4 0.990338 1_555
H11 O5 0.990338 1_555
H12 O6 0.994244 1_555
H13 O7 0.994238 1_555
H14 O6 0.985581 1_555
H15 O7 0.985582 1_555
