# generated using pymatgen
data_KCoO2
_symmetry_space_group_name_H-M   'P 1'
_cell_length_a   6.49864075
_cell_length_b   6.48901959
_cell_length_c   6.93274640
_cell_angle_alpha   73.23963257
_cell_angle_beta   76.34527683
_cell_angle_gamma   104.63457160
_symmetry_Int_Tables_number   1
_chemical_formula_structural   KCoO2
_chemical_formula_sum   'K4 Co4 O8'
_cell_volume   255.34971720
_cell_formula_units_Z   4
loop_
 _symmetry_equiv_pos_site_id
 _symmetry_equiv_pos_as_xyz
  1  'x, y, z'
loop_
 _atom_site_type_symbol
 _atom_site_label
 _atom_site_symmetry_multiplicity
 _atom_site_fract_x
 _atom_site_fract_y
 _atom_site_fract_z
 _atom_site_occupancy
  K  K0  1  0.72915500  0.65347100  0.73468000  1
  K  K1  1  0.22913900  0.65352000  0.73477700  1
  K  K2  1  0.27086900  0.34648200  0.26522100  1
  K  K3  1  0.77083600  0.34653800  0.26532000  1
  Co  Co0  1  0.91951400  0.89022700  0.21125400  1
  Co  Co1  1  0.08044600  0.10977700  0.78882800  1
  Co  Co2  1  0.41953800  0.89018900  0.21121400  1
  Co  Co3  1  0.58050200  0.10979900  0.78870300  1
  O  O0  1  0.04557600  0.20652500  0.02565000  1
  O  O1  1  0.54560700  0.20647600  0.02560800  1
  O  O2  1  0.95438800  0.79351100  0.97439900  1
  O  O3  1  0.45442900  0.79348100  0.97434200  1
  O  O4  1  0.88401200  0.18147600  0.64701500  1
  O  O5  1  0.38399500  0.18150400  0.64703200  1
  O  O6  1  0.11601700  0.81850200  0.35296700  1
  O  O7  1  0.61597600  0.81852100  0.35298800  1
loop_
_geom_bond_atom_site_label_1
_geom_bond_atom_site_label_2
_geom_bond_distance
_geom_bond_site_symmetry_2
K0 O3 2.657668 1_555
K0 O2 2.660369 1_555
K0 O1 2.765112 1_556
K0 O6 2.886928 1_655
K0 O7 2.893566 1_555
K0 O4 3.144706 1_565
K1 O2 2.657525 1_455
K1 O3 2.659489 1_555
K1 O0 2.764987 1_556
K1 O7 2.887177 1_555
K1 O6 2.893992 1_555
K1 O5 3.144467 1_565
K2 O1 2.657506 1_555
K2 O0 2.659526 1_555
K2 O3 2.765020 1_554
K2 O4 2.887267 1_455
K2 O5 2.894008 1_555
K2 O6 3.144441 1_545
K3 O0 2.657768 1_655
K3 O1 2.660366 1_555
K3 O2 2.764992 1_554
K3 O5 2.886845 1_555
K3 O4 2.893586 1_555
K3 O7 3.144776 1_545
Co0 O7 1.852158 1_555
Co0 O6 1.855139 1_655
Co0 O2 1.905807 1_554
Co0 O0 1.915450 1_665
Co1 O5 1.852286 1_555
Co1 O4 1.855130 1_455
Co1 O0 1.905721 1_556
Co1 O2 1.915230 1_445
Co2 O6 1.852109 1_555
Co2 O7 1.854930 1_555
Co2 O3 1.905885 1_554
Co2 O1 1.915398 1_565
Co3 O4 1.851964 1_555
Co3 O5 1.854946 1_555
Co3 O1 1.905975 1_556
Co3 O3 1.915613 1_545
