# generated using pymatgen
data_LiMn28O56
_symmetry_space_group_name_H-M   'P 1'
_cell_length_a   10.09989054
_cell_length_b   10.09989054
_cell_length_c   10.09989009
_cell_angle_alpha   99.59292907
_cell_angle_beta   99.59292907
_cell_angle_gamma   99.59292896
_symmetry_Int_Tables_number   1
_chemical_formula_structural   LiMn28O56
_chemical_formula_sum   'Li1 Mn28 O56'
_cell_volume   981.42386595
_cell_formula_units_Z   1
loop_
 _symmetry_equiv_pos_site_id
 _symmetry_equiv_pos_as_xyz
  1  'x, y, z'
loop_
 _atom_site_type_symbol
 _atom_site_label
 _atom_site_symmetry_multiplicity
 _atom_site_fract_x
 _atom_site_fract_y
 _atom_site_fract_z
 _atom_site_occupancy
  Li  Li0  1  0.48216500  0.48216500  0.48216500  1
  Mn  Mn0  1  0.00044500  0.64278300  0.42863000  1
  Mn  Mn1  1  0.42822800  0.99966500  0.14250800  1
  Mn  Mn2  1  0.14259700  0.92859400  0.99994600  1
  Mn  Mn3  1  0.28540500  0.71561700  0.57221600  1
  Mn  Mn4  1  0.85731500  0.85749700  0.35694400  1
  Mn  Mn5  1  0.35694400  0.85731500  0.85749700  1
  Mn  Mn6  1  0.78714900  0.71523000  0.57142400  1
  Mn  Mn7  1  0.14145500  0.42785400  0.50028500  1
  Mn  Mn8  1  0.92859400  0.99994600  0.14259700  1
  Mn  Mn9  1  0.42863000  0.00044500  0.64278300  1
  Mn  Mn10  1  0.21339900  0.57171300  0.28443300  1
  Mn  Mn11  1  0.28556600  0.71465800  0.07121800  1
  Mn  Mn12  1  0.85720900  0.85720900  0.85720900  1
  Mn  Mn13  1  0.99966500  0.14250800  0.42822800  1
  Mn  Mn14  1  0.71561700  0.57221600  0.28540500  1
  Mn  Mn15  1  0.28443300  0.21339900  0.57171300  1
  Mn  Mn16  1  0.57142400  0.78714900  0.71523000  1
  Mn  Mn17  1  0.14250800  0.42822800  0.99966500  1
  Mn  Mn18  1  0.42785400  0.50028500  0.14145500  1
  Mn  Mn19  1  0.71523000  0.57142400  0.78714900  1
  Mn  Mn20  1  0.99994600  0.14259700  0.92859400  1
  Mn  Mn21  1  0.50028500  0.14145500  0.42785400  1
  Mn  Mn22  1  0.07121800  0.28556600  0.71465800  1
  Mn  Mn23  1  0.57171300  0.28443300  0.21339900  1
  Mn  Mn24  1  0.64278300  0.42863000  0.00044500  1
  Mn  Mn25  1  0.57221600  0.28540500  0.71561700  1
  Mn  Mn26  1  0.85749700  0.35694400  0.85731500  1
  Mn  Mn27  1  0.71465800  0.07121800  0.28556600  1
  O  O0  1  0.01681100  0.97045400  0.31936500  1
  O  O1  1  0.94985200  0.80700100  0.52139700  1
  O  O2  1  0.96636000  0.84027200  0.02943800  1
  O  O3  1  0.02943800  0.96636000  0.84027200  1
  O  O4  1  0.53776200  0.98285000  0.31534600  1
  O  O5  1  0.45790900  0.82342700  0.55481900  1
  O  O6  1  0.11348300  0.60502200  0.58824000  1
  O  O7  1  0.25633700  0.89076100  0.15972700  1
  O  O8  1  0.17636700  0.73106100  0.39917500  1
  O  O9  1  0.30466600  0.54131100  0.46244200  1
  O  O10  1  0.05046600  0.47898100  0.33619500  1
  O  O11  1  0.19328000  0.76452200  0.90755900  1
  O  O12  1  0.62022600  0.62022600  0.62022600  1
  O  O13  1  0.44545700  0.82779100  0.03368800  1
  O  O14  1  0.76452200  0.90755900  0.19328000  1
  O  O15  1  0.12561800  0.60097900  0.10934100  1
  O  O16  1  0.98285000  0.31534600  0.53776200  1
  O  O17  1  0.69766000  0.74353100  0.39503200  1
  O  O18  1  0.37800200  0.66363000  0.23521100  1
  O  O19  1  0.52139700  0.94985200  0.80700100  1
  O  O20  1  0.26844600  0.88658800  0.68052200  1
  O  O21  1  0.25224700  0.41201300  0.17231500  1
  O  O22  1  0.31534600  0.53776200  0.98285000  1
  O  O23  1  0.10934100  0.12561800  0.60097900  1
  O  O24  1  0.82342700  0.55481900  0.45790900  1
  O  O25  1  0.88658800  0.68052200  0.26844600  1
  O  O26  1  0.17231500  0.25224700  0.41201300  1
  O  O27  1  0.39503200  0.69766000  0.74353100  1
  O  O28  1  0.68480200  0.74785400  0.87390500  1
  O  O29  1  0.74785400  0.87390500  0.68480200  1
  O  O30  1  0.97045400  0.31936500  0.01681100  1
  O  O31  1  0.03368800  0.44545700  0.82779100  1
  O  O32  1  0.60502200  0.58824000  0.11348300  1
  O  O33  1  0.54131100  0.46244200  0.30466600  1
  O  O34  1  0.46244200  0.30466600  0.54131100  1
  O  O35  1  0.87390500  0.68480200  0.74785400  1
  O  O36  1  0.15972700  0.25633700  0.89076100  1
  O  O37  1  0.47898100  0.33619500  0.05046600  1
  O  O38  1  0.73106100  0.39917500  0.17636700  1
  O  O39  1  0.33619500  0.05046600  0.47898100  1
  O  O40  1  0.58824000  0.11348300  0.60502200  1
  O  O41  1  0.80700100  0.52139700  0.94985200  1
  O  O42  1  0.66363000  0.23521100  0.37800200  1
  O  O43  1  0.23521100  0.37800200  0.66363000  1
  O  O44  1  0.09246400  0.09246400  0.09246400  1
  O  O45  1  0.41201300  0.17231500  0.25224700  1
  O  O46  1  0.55481900  0.45790900  0.82342700  1
  O  O47  1  0.60097900  0.10934100  0.12561800  1
  O  O48  1  0.68052200  0.26844600  0.88658800  1
  O  O49  1  0.74353100  0.39503200  0.69766000  1
  O  O50  1  0.82779100  0.03368800  0.44545700  1
  O  O51  1  0.31936500  0.01681100  0.97045400  1
  O  O52  1  0.89076100  0.15972700  0.25633700  1
  O  O53  1  0.39917500  0.17636700  0.73106100  1
  O  O54  1  0.90755900  0.19328000  0.76452200  1
  O  O55  1  0.84027200  0.02943800  0.96636000  1
loop_
_geom_bond_atom_site_label_1
_geom_bond_atom_site_label_2
_geom_bond_distance
_geom_bond_site_symmetry_2
Li0 O33 1.971787 1_555
Li0 O34 1.971787 1_555
Li0 O9 1.971787 1_555
Li0 O12 1.972039 1_555
Mn0 O8 1.943456 1_555
Mn0 O6 1.945297 1_555
Mn0 O10 1.945453 1_555
Mn0 O24 1.951301 1_455
Mn0 O1 1.952936 1_455
Mn0 O25 1.953614 1_455
Mn1 O13 1.944260 1_555
Mn1 O7 1.944732 1_555
Mn1 O51 1.945648 1_564
Mn1 O45 1.951266 1_565
Mn1 O4 1.953908 1_555
Mn1 O47 1.954063 1_565
Mn2 O3 1.946400 1_555
Mn2 O2 1.946493 1_456
Mn2 O44 1.946876 1_566
Mn2 O7 1.950350 1_556
Mn2 O11 1.950713 1_555
Mn2 O51 1.950776 1_565
Mn3 O20 1.933695 1_555
Mn3 O5 1.945642 1_555
Mn3 O27 1.945672 1_555
Mn3 O6 1.948438 1_555
Mn3 O8 1.948896 1_555
Mn3 O9 1.975303 1_555
Mn4 O0 1.943230 1_655
Mn4 O14 1.945901 1_555
Mn4 O50 1.946855 1_565
Mn4 O17 1.951600 1_555
Mn4 O25 1.952678 1_555
Mn4 O1 1.953508 1_555
Mn5 O51 1.943230 1_565
Mn5 O11 1.945901 1_555
Mn5 O13 1.946855 1_556
Mn5 O27 1.951600 1_555
Mn5 O20 1.952678 1_555
Mn5 O19 1.953508 1_555
Mn6 O1 1.933894 1_555
Mn6 O29 1.946514 1_555
Mn6 O35 1.946623 1_555
Mn6 O17 1.947216 1_555
Mn6 O24 1.947383 1_555
Mn6 O12 1.975182 1_555
Mn7 O16 1.933731 1_455
Mn7 O43 1.946020 1_555
Mn7 O26 1.946157 1_555
Mn7 O6 1.947605 1_555
Mn7 O10 1.947706 1_555
Mn7 O9 1.975561 1_555
Mn8 O2 1.946400 1_555
Mn8 O55 1.946493 1_564
Mn8 O44 1.946876 1_665
Mn8 O52 1.950350 1_565
Mn8 O14 1.950713 1_555
Mn8 O0 1.950776 1_655
Mn9 O53 1.943456 1_555
Mn9 O40 1.945297 1_555
Mn9 O39 1.945453 1_555
Mn9 O5 1.951301 1_545
Mn9 O19 1.952936 1_545
Mn9 O20 1.953614 1_545
Mn10 O15 1.933824 1_555
Mn10 O18 1.946197 1_555
Mn10 O21 1.946305 1_555
Mn10 O10 1.948013 1_555
Mn10 O8 1.948466 1_555
Mn10 O9 1.975422 1_555
Mn11 O11 1.942940 1_554
Mn11 O7 1.944938 1_555
Mn11 O13 1.946920 1_555
Mn11 O18 1.951940 1_555
Mn11 O15 1.952604 1_555
Mn11 O22 1.953508 1_554
Mn12 O2 1.947641 1_556
Mn12 O55 1.947641 1_565
Mn12 O3 1.947641 1_655
Mn12 O29 1.949189 1_555
Mn12 O35 1.949189 1_555
Mn12 O28 1.949189 1_555
Mn13 O50 1.944260 1_555
Mn13 O52 1.944732 1_555
Mn13 O0 1.945648 1_645
Mn13 O26 1.951266 1_655
Mn13 O16 1.953908 1_555
Mn13 O23 1.954063 1_655
Mn14 O25 1.933695 1_555
Mn14 O24 1.945642 1_555
Mn14 O17 1.945672 1_555
Mn14 O32 1.948438 1_555
Mn14 O38 1.948896 1_555
Mn14 O33 1.975303 1_555
Mn15 O23 1.933824 1_555
Mn15 O43 1.946197 1_555
Mn15 O26 1.946305 1_555
Mn15 O39 1.948013 1_555
Mn15 O53 1.948466 1_555
Mn15 O34 1.975422 1_555
Mn16 O19 1.933894 1_555
Mn16 O28 1.946514 1_555
Mn16 O29 1.946623 1_555
Mn16 O27 1.947216 1_555
Mn16 O5 1.947383 1_555
Mn16 O12 1.975182 1_555
Mn17 O31 1.944260 1_555
Mn17 O36 1.944732 1_555
Mn17 O30 1.945648 1_456
Mn17 O21 1.951266 1_556
Mn17 O22 1.953908 1_555
Mn17 O15 1.954063 1_556
Mn18 O22 1.933731 1_554
Mn18 O18 1.946020 1_555
Mn18 O21 1.946157 1_555
Mn18 O32 1.947605 1_555
Mn18 O37 1.947706 1_555
Mn18 O33 1.975561 1_555
Mn19 O41 1.933894 1_555
Mn19 O35 1.946514 1_555
Mn19 O28 1.946623 1_555
Mn19 O49 1.947216 1_555
Mn19 O46 1.947383 1_555
Mn19 O12 1.975182 1_555
Mn20 O55 1.946400 1_555
Mn20 O3 1.946493 1_645
Mn20 O44 1.946876 1_656
Mn20 O36 1.950350 1_655
Mn20 O54 1.950713 1_555
Mn20 O30 1.950776 1_556
Mn21 O4 1.933731 1_545
Mn21 O42 1.946020 1_555
Mn21 O45 1.946157 1_555
Mn21 O40 1.947605 1_555
Mn21 O39 1.947706 1_555
Mn21 O34 1.975561 1_555
Mn22 O54 1.942941 1_455
Mn22 O36 1.944938 1_555
Mn22 O31 1.946920 1_555
Mn22 O43 1.951940 1_555
Mn22 O23 1.952604 1_555
Mn22 O16 1.953508 1_455
Mn23 O47 1.933824 1_555
Mn23 O42 1.946197 1_555
Mn23 O45 1.946305 1_555
Mn23 O37 1.948013 1_555
Mn23 O38 1.948466 1_555
Mn23 O33 1.975422 1_555
Mn24 O38 1.943456 1_555
Mn24 O32 1.945297 1_555
Mn24 O37 1.945453 1_555
Mn24 O46 1.951301 1_554
Mn24 O41 1.952936 1_554
Mn24 O48 1.953614 1_554
Mn25 O48 1.933695 1_555
Mn25 O46 1.945642 1_555
Mn25 O49 1.945672 1_555
Mn25 O40 1.948438 1_555
Mn25 O53 1.948896 1_555
Mn25 O34 1.975303 1_555
Mn26 O30 1.943230 1_556
Mn26 O54 1.945901 1_555
Mn26 O31 1.946855 1_655
Mn26 O49 1.951600 1_555
Mn26 O48 1.952678 1_555
Mn26 O41 1.953508 1_555
Mn27 O14 1.942941 1_545
Mn27 O52 1.944938 1_555
Mn27 O50 1.946920 1_555
Mn27 O42 1.951940 1_555
Mn27 O47 1.952604 1_555
Mn27 O4 1.953508 1_545
