# generated using pymatgen
data_Li2VCrO4
_symmetry_space_group_name_H-M   'P 1'
_cell_length_a   5.15207500
_cell_length_b   5.99885336
_cell_length_c   7.87207605
_cell_angle_alpha   100.83022923
_cell_angle_beta   108.78742153
_cell_angle_gamma   89.96140391
_symmetry_Int_Tables_number   1
_chemical_formula_structural   Li2VCrO4
_chemical_formula_sum   'Li6 V3 Cr3 O12'
_cell_volume   225.76405100
_cell_formula_units_Z   3
loop_
 _symmetry_equiv_pos_site_id
 _symmetry_equiv_pos_as_xyz
  1  'x, y, z'
loop_
 _atom_site_type_symbol
 _atom_site_label
 _atom_site_symmetry_multiplicity
 _atom_site_fract_x
 _atom_site_fract_y
 _atom_site_fract_z
 _atom_site_occupancy
  Li  Li0  1  0.99798200  0.74583000  0.49673700  1
  Li  Li1  1  0.00201800  0.25417000  0.50326300  1
  Li  Li2  1  0.00025000  0.90979500  0.16768200  1
  Li  Li3  1  0.00094800  0.42010400  0.16673100  1
  Li  Li4  1  0.99975000  0.09020500  0.83231800  1
  Li  Li5  1  0.99905200  0.57989600  0.83326900  1
  V  V0  1  0.50000000  0.00000000  0.50000000  1
  V  V1  1  0.50027900  0.16385300  0.16649400  1
  V  V2  1  0.49972100  0.83614700  0.83350600  1
  Cr  Cr0  1  0.50000000  0.50000000  0.50000000  1
  Cr  Cr1  1  0.49882700  0.66302500  0.16662300  1
  Cr  Cr2  1  0.50117300  0.33697500  0.83337700  1
  O  O0  1  0.27308300  0.05049000  0.67204200  1
  O  O1  1  0.27531400  0.54556300  0.67268600  1
  O  O2  1  0.72555300  0.79021000  0.65898700  1
  O  O3  1  0.72820900  0.29730300  0.66304800  1
  O  O4  1  0.27179100  0.70269700  0.33695200  1
  O  O5  1  0.72691700  0.94951000  0.32795800  1
  O  O6  1  0.27444700  0.20979000  0.34101300  1
  O  O7  1  0.27251800  0.87390700  0.00673500  1
  O  O8  1  0.72468600  0.45443700  0.32731400  1
  O  O9  1  0.27417800  0.37684600  0.00450800  1
  O  O10  1  0.72582200  0.62315400  0.99549200  1
  O  O11  1  0.72748200  0.12609300  0.99326500  1
loop_
_geom_bond_atom_site_label_1
_geom_bond_atom_site_label_2
_geom_bond_distance
_geom_bond_site_symmetry_2
Li0 O5 2.149686 1_555
Li0 O4 2.158534 1_655
Li0 O2 2.167643 1_555
Li0 O8 2.175902 1_555
Li0 O1 2.179816 1_655
Li0 O0 2.247059 1_665
Li1 O0 2.149686 1_555
Li1 O3 2.158534 1_455
Li1 O6 2.167643 1_555
Li1 O1 2.175902 1_555
Li1 O8 2.179816 1_455
Li1 O5 2.247059 1_445
Li2 O7 2.158969 1_555
Li2 O5 2.159354 1_455
Li2 O10 2.164731 1_454
Li2 O4 2.166849 1_555
Li2 O6 2.221525 1_565
Li2 O11 2.228886 1_464
Li3 O4 2.135810 1_555
Li3 O10 2.166565 1_454
Li3 O9 2.170866 1_555
Li3 O8 2.174157 1_455
Li3 O11 2.195337 1_454
Li3 O6 2.205089 1_555
Li4 O11 2.158969 1_555
Li4 O0 2.159354 1_655
Li4 O9 2.164731 1_656
Li4 O3 2.166849 1_555
Li4 O2 2.221525 1_545
Li4 O7 2.228886 1_646
Li5 O3 2.135810 1_555
Li5 O9 2.166565 1_656
Li5 O10 2.170866 1_555
Li5 O1 2.174157 1_655
Li5 O7 2.195337 1_656
Li5 O2 2.205089 1_555
Cr0 O3 2.030002 1_555
Cr0 O4 2.030002 1_555
Cr0 O8 2.033777 1_555
Cr0 O1 2.033777 1_555
Cr0 O6 2.048105 1_555
Cr0 O2 2.048105 1_555
Cr1 O4 2.027965 1_555
Cr1 O10 2.033001 1_554
Cr1 O9 2.035534 1_555
Cr1 O8 2.040757 1_555
Cr1 O5 2.041721 1_555
Cr1 O7 2.048203 1_555
Cr2 O3 2.027965 1_555
Cr2 O9 2.033001 1_556
Cr2 O10 2.035534 1_555
Cr2 O1 2.040757 1_555
Cr2 O0 2.041721 1_555
Cr2 O11 2.048203 1_555
O0 V0 2.039103 1_555
O0 V2 2.070872 1_545
O1 V2 2.051508 1_555
O2 V0 2.038078 1_565
O2 V2 2.050357 1_555
O3 V0 2.093119 1_555
O4 V0 2.093119 1_565
O5 V0 2.039103 1_565
O5 V1 2.070872 1_565
O6 V0 2.038078 1_555
O6 V1 2.050357 1_555
O7 V2 2.047652 1_554
O7 V1 2.052820 1_565
O8 V1 2.051508 1_555
O9 V1 2.066171 1_555
O10 V2 2.066171 1_555
O11 V1 2.047652 1_556
O11 V2 2.052820 1_545
