# generated using pymatgen
data_Li24Ti7Cr5O36
_symmetry_space_group_name_H-M   'P 1'
_cell_length_a   5.05813000
_cell_length_b   9.81175267
_cell_length_c   13.45953314
_cell_angle_alpha   80.81143345
_cell_angle_beta   79.30837390
_cell_angle_gamma   85.51175159
_symmetry_Int_Tables_number   1
_chemical_formula_structural   Li24Ti7Cr5O36
_chemical_formula_sum   'Li24 Ti7 Cr5 O36'
_cell_volume   647.15109524
_cell_formula_units_Z   1
loop_
 _symmetry_equiv_pos_site_id
 _symmetry_equiv_pos_as_xyz
  1  'x, y, z'
loop_
 _atom_site_type_symbol
 _atom_site_label
 _atom_site_symmetry_multiplicity
 _atom_site_fract_x
 _atom_site_fract_y
 _atom_site_fract_z
 _atom_site_occupancy
  Li  Li0  1  0.66636500  0.00038400  0.16691500  1
  Li  Li1  1  0.56896800  0.00011000  0.38872100  1
  Li  Li2  1  0.25152000  0.75007100  0.74896700  1
  Li  Li3  1  0.58144500  0.74936900  0.08394900  1
  Li  Li4  1  0.06619100  0.50028000  0.88708500  1
  Li  Li5  1  0.39298700  0.50061400  0.21906500  1
  Li  Li6  1  0.17095200  0.50200900  0.66658900  1
  Li  Li7  1  0.49867400  0.49861100  0.00051400  1
  Li  Li8  1  0.26872500  0.50117300  0.44640900  1
  Li  Li9  1  0.08366100  0.24997100  0.58301900  1
  Li  Li10  1  0.00376500  0.99900400  0.49820000  1
  Li  Li11  1  0.76561800  0.99997800  0.94663400  1
  Li  Li12  1  0.09705300  0.00030000  0.27837900  1
  Li  Li13  1  0.89613700  0.00033900  0.72105800  1
  Li  Li14  1  0.23340100  0.00120600  0.05446400  1
  Li  Li15  1  0.91744200  0.75031500  0.41577400  1
  Li  Li16  1  0.72994200  0.49873500  0.55400400  1
  Li  Li17  1  0.83418100  0.49858000  0.33254800  1
  Li  Li18  1  0.59854100  0.49793800  0.77991900  1
  Li  Li19  1  0.94064700  0.49963400  0.11407900  1
  Li  Li20  1  0.41590500  0.24998300  0.91643800  1
  Li  Li21  1  0.33501500  0.00114300  0.83312100  1
  Li  Li22  1  0.75203600  0.25007900  0.25146700  1
  Li  Li23  1  0.43407700  0.99994200  0.61224300  1
  Ti  Ti0  1  0.86472000  0.24651800  0.02778400  1
  Ti  Ti1  1  0.46477300  0.75586200  0.30611500  1
  Ti  Ti2  1  0.96734100  0.25351200  0.80514800  1
  Ti  Ti3  1  0.19497300  0.25062400  0.36022200  1
  Ti  Ti4  1  0.69800800  0.75168100  0.86018700  1
  Ti  Ti5  1  0.80743400  0.74687800  0.63885800  1
  Ti  Ti6  1  0.14213800  0.74624800  0.97399300  1
  Cr  Cr0  1  0.36764700  0.75004500  0.52662400  1
  Cr  Cr1  1  0.30899800  0.25034700  0.14014800  1
  Cr  Cr2  1  0.02195600  0.74958800  0.19406900  1
  Cr  Cr3  1  0.52184600  0.25115300  0.69228500  1
  Cr  Cr4  1  0.64313600  0.24774000  0.47410700  1
  O  O0  1  0.92665900  0.86153000  0.07510700  1
  O  O1  1  0.72270400  0.63553900  0.21528400  1
  O  O2  1  0.42534800  0.36053600  0.57483300  1
  O  O3  1  0.50203300  0.36240800  0.35895800  1
  O  O4  1  0.61001400  0.36390700  0.11961300  1
  O  O5  1  0.25941900  0.86423900  0.40366800  1
  O  O6  1  0.22206300  0.13523800  0.71377300  1
  O  O7  1  0.33739700  0.13860300  0.47732400  1
  O  O8  1  0.55020100  0.13387700  0.04776800  1
  O  O9  1  0.99948000  0.86410400  0.85680800  1
  O  O10  1  0.12307900  0.86393600  0.61631000  1
  O  O11  1  0.32941800  0.86183000  0.18969400  1
  O  O12  1  0.40587800  0.13787300  0.25945800  1
  O  O13  1  0.83224800  0.63637000  0.97739600  1
  O  O14  1  0.05136600  0.63562300  0.54688100  1
  O  O15  1  0.16401300  0.63749500  0.30902900  1
  O  O16  1  0.90522300  0.63606800  0.76229400  1
  O  O17  1  0.24346300  0.63701300  0.09523200  1
  O  O18  1  0.76254000  0.36423500  0.90437500  1
  O  O19  1  0.09219000  0.36343400  0.23899800  1
  O  O20  1  0.83038800  0.36178800  0.68826100  1
  O  O21  1  0.94425100  0.36520800  0.45235200  1
  O  O22  1  0.16924000  0.36182600  0.02487200  1
  O  O23  1  0.59640300  0.86353700  0.73640700  1
  O  O24  1  0.66438600  0.13842600  0.80736300  1
  O  O25  1  0.88477600  0.13318700  0.38135000  1
  O  O26  1  0.00350800  0.13847100  0.14449800  1
  O  O27  1  0.45273000  0.86610000  0.95149000  1
  O  O28  1  0.66118700  0.86237800  0.52198600  1
  O  O29  1  0.78238400  0.86608900  0.28604100  1
  O  O30  1  0.74180300  0.13881500  0.59144500  1
  O  O31  1  0.37928200  0.63427200  0.88223000  1
  O  O32  1  0.50041100  0.63659400  0.64364100  1
  O  O33  1  0.56675800  0.63765800  0.43180700  1
  O  O34  1  0.28236700  0.36611400  0.78529700  1
  O  O35  1  0.06917100  0.13571200  0.92905500  1
loop_
_geom_bond_atom_site_label_1
_geom_bond_atom_site_label_2
_geom_bond_distance
_geom_bond_site_symmetry_2
Li0 O8 2.047169 1_555
Li0 O29 2.050568 1_545
Li0 O12 2.181015 1_555
Li0 O0 2.183981 1_545
Li0 O26 2.207931 1_655
Li0 O11 2.209630 1_545
Li1 O7 2.095424 1_555
Li1 O5 2.096046 1_545
Li1 O25 2.119597 1_555
Li1 O29 2.146890 1_545
Li1 O28 2.167670 1_545
Li1 O12 2.267493 1_555
Li2 O23 2.108458 1_555
Li2 O32 2.111108 1_555
Li2 O16 2.116014 1_455
Li2 O10 2.130257 1_555
Li2 O31 2.142447 1_555
Li2 O9 2.143069 1_455
Li3 O17 2.075119 1_555
Li3 O0 2.110940 1_555
Li3 O11 2.115792 1_555
Li3 O13 2.123206 1_554
Li3 O27 2.139163 1_554
Li3 O1 2.143812 1_555
Li4 O18 2.069784 1_455
Li4 O13 2.097171 1_455
Li4 O31 2.121481 1_555
Li4 O34 2.144843 1_555
Li4 O16 2.209549 1_455
Li4 O22 2.236010 1_556
Li5 O19 2.062093 1_555
Li5 O15 2.089719 1_555
Li5 O4 2.143308 1_555
Li5 O17 2.176699 1_555
Li5 O1 2.197523 1_555
Li5 O3 2.267426 1_555
Li6 O34 2.045578 1_555
Li6 O14 2.059974 1_555
Li6 O32 2.153920 1_555
Li6 O2 2.187713 1_555
Li6 O16 2.195007 1_455
Li6 O20 2.236442 1_455
Li7 O4 2.043406 1_555
Li7 O31 2.055532 1_554
Li7 O22 2.166132 1_555
Li7 O13 2.190539 1_554
Li7 O17 2.191722 1_555
Li7 O18 2.196072 1_554
Li8 O33 2.055836 1_555
Li8 O3 2.092079 1_555
Li8 O14 2.137481 1_555
Li8 O21 2.177068 1_455
Li8 O15 2.225148 1_555
Li8 O2 2.257163 1_555
Li9 O2 2.088213 1_555
Li9 O30 2.091708 1_455
Li9 O20 2.110540 1_455
Li9 O7 2.112944 1_555
Li9 O6 2.134392 1_555
Li9 O21 2.137535 1_455
Li10 O25 2.033479 1_465
Li10 O10 2.050768 1_555
Li10 O5 2.167651 1_555
Li10 O30 2.204760 1_465
Li10 O7 2.205858 1_565
Li10 O28 2.218739 1_455
Li11 O35 2.066817 1_665
Li11 O9 2.091793 1_555
Li11 O27 2.119915 1_555
Li11 O8 2.136105 1_566
Li11 O24 2.248415 1_565
Li11 O0 2.257913 1_556
Li12 O11 2.097515 1_545
Li12 O12 2.097523 1_555
Li12 O29 2.121741 1_445
Li12 O25 2.140001 1_455
Li12 O26 2.178232 1_555
Li12 O5 2.218944 1_545
Li13 O23 2.063158 1_545
Li13 O24 2.075571 1_555
Li13 O6 2.172420 1_655
Li13 O10 2.204142 1_645
Li13 O9 2.205322 1_545
Li13 O30 2.254140 1_555
Li14 O26 2.094717 1_555
Li14 O0 2.100925 1_445
Li14 O8 2.122683 1_555
Li14 O27 2.166812 1_544
Li14 O11 2.201815 1_545
Li14 O35 2.217697 1_554
Li15 O5 2.099515 1_655
Li15 O15 2.114720 1_655
Li15 O29 2.119848 1_555
Li15 O33 2.122130 1_555
Li15 O28 2.126994 1_555
Li15 O14 2.128198 1_655
Li16 O2 2.082364 1_555
Li16 O32 2.094945 1_555
Li16 O21 2.136199 1_555
Li16 O14 2.167759 1_655
Li16 O20 2.188006 1_555
Li16 O33 2.203635 1_555
Li17 O1 2.036937 1_555
Li17 O21 2.041514 1_555
Li17 O19 2.167850 1_655
Li17 O3 2.170735 1_555
Li17 O15 2.182533 1_655
Li17 O33 2.258202 1_555
Li18 O16 2.095057 1_555
Li18 O20 2.103827 1_555
Li18 O34 2.118176 1_555
Li18 O31 2.169119 1_555
Li18 O18 2.204218 1_555
Li18 O32 2.212875 1_555
Li19 O17 2.072938 1_655
Li19 O22 2.089384 1_655
Li19 O1 2.154473 1_555
Li19 O19 2.191040 1_655
Li19 O4 2.201492 1_555
Li19 O13 2.226189 1_554
Li20 O35 2.120912 1_555
Li20 O18 2.121566 1_555
Li20 O22 2.124269 1_556
Li20 O24 2.132209 1_555
Li20 O34 2.133012 1_555
Li20 O8 2.136602 1_556
Li21 O6 2.045926 1_555
Li21 O27 2.050061 1_545
Li21 O24 2.167463 1_555
Li21 O9 2.193051 1_445
Li21 O35 2.200257 1_555
Li21 O23 2.215576 1_545
Li22 O19 2.087628 1_655
Li22 O12 2.117387 1_555
Li22 O26 2.120379 1_655
Li22 O25 2.120602 1_555
Li22 O3 2.125855 1_555
Li22 O4 2.151140 1_555
Li23 O28 2.092943 1_555
Li23 O30 2.099096 1_565
Li23 O10 2.128751 1_555
Li23 O6 2.143013 1_565
Li23 O7 2.196389 1_565
Li23 O23 2.209318 1_555
Cr0 O28 1.903415 1_555
Cr0 O33 1.912505 1_555
Cr0 O32 1.971347 1_555
Cr0 O10 1.973978 1_555
Cr0 O14 1.978781 1_555
Cr0 O5 1.985405 1_555
Cr1 O4 1.909750 1_555
Cr1 O12 1.917847 1_555
Cr1 O26 1.951259 1_555
Cr1 O22 1.961487 1_555
Cr1 O19 1.985854 1_555
Cr1 O8 2.003288 1_555
Cr2 O1 1.904619 1_455
Cr2 O0 1.909012 1_455
Cr2 O11 1.961700 1_555
Cr2 O15 1.966073 1_555
Cr2 O17 1.991888 1_555
Cr2 O29 1.996491 1_455
Cr3 O2 1.884578 1_555
Cr3 O6 1.917966 1_555
Cr3 O20 1.957527 1_555
Cr3 O24 1.970956 1_555
Cr3 O34 1.995324 1_555
Cr3 O30 2.005103 1_555
Cr4 O30 1.885588 1_555
Cr4 O21 1.932719 1_555
Cr4 O7 1.938976 1_555
Cr4 O3 1.976142 1_555
Cr4 O25 1.995696 1_555
Cr4 O2 2.002645 1_555
O0 Ti6 2.016888 1_654
O1 Ti1 2.053913 1_555
O3 Ti3 1.966310 1_555
O4 Ti0 2.036084 1_555
O5 Ti1 1.923713 1_555
O6 Ti2 2.037925 1_455
O7 Ti3 1.988812 1_555
O8 Ti0 1.961170 1_555
O9 Ti4 1.940515 1_555
O9 Ti6 2.013659 1_655
O10 Ti5 1.989018 1_455
O11 Ti1 1.942038 1_555
O12 Ti3 1.989700 1_555
O13 Ti6 1.960460 1_655
O13 Ti4 1.984203 1_555
O14 Ti5 1.974984 1_455
O15 Ti1 1.975980 1_555
O16 Ti5 1.957251 1_555
O16 Ti4 1.974903 1_555
O17 Ti6 1.933913 1_554
O18 Ti2 1.952162 1_555
O18 Ti0 1.993134 1_556
O19 Ti3 1.950774 1_555
O20 Ti2 1.959342 1_555
O21 Ti3 2.012096 1_655
O22 Ti0 1.972372 1_455
O23 Ti4 1.972240 1_555
O23 Ti5 1.985489 1_555
O24 Ti2 1.966543 1_555
O25 Ti3 1.970569 1_655
O26 Ti0 1.960946 1_455
O27 Ti6 1.985331 1_555
O27 Ti4 1.991645 1_555
O28 Ti5 2.009273 1_555
O29 Ti1 1.959882 1_555
O31 Ti6 1.961826 1_555
O31 Ti4 2.004542 1_555
O32 Ti5 1.946893 1_555
O33 Ti1 2.019109 1_555
O34 Ti2 1.963254 1_455
O35 Ti0 1.947516 1_456
O35 Ti2 1.998121 1_455
