# generated using pymatgen
data_Li9Cr3(WO4)7
_symmetry_space_group_name_H-M   'P 1'
_cell_length_a   8.49995135
_cell_length_b   8.49995135
_cell_length_c   8.49995199
_cell_angle_alpha   89.62176551
_cell_angle_beta   89.62176551
_cell_angle_gamma   89.62176579
_symmetry_Int_Tables_number   1
_chemical_formula_structural   Li9Cr3(WO4)7
_chemical_formula_sum   'Li9 Cr3 W7 O28'
_cell_volume   614.07453412
_cell_formula_units_Z   1
loop_
 _symmetry_equiv_pos_site_id
 _symmetry_equiv_pos_as_xyz
  1  'x, y, z'
loop_
 _atom_site_type_symbol
 _atom_site_label
 _atom_site_symmetry_multiplicity
 _atom_site_fract_x
 _atom_site_fract_y
 _atom_site_fract_z
 _atom_site_occupancy
  Li  Li0  1  0.90748800  0.34884800  0.64454800  1
  Li  Li1  1  0.90748800  0.64454800  0.34884800  1
  Li  Li2  1  0.64454800  0.34884800  0.90748800  1
  Li  Li3  1  0.64454800  0.90748800  0.34884800  1
  Li  Li4  1  0.35853600  0.09329700  0.35853600  1
  Li  Li5  1  0.35853600  0.35853600  0.09329700  1
  Li  Li6  1  0.34884800  0.64454800  0.90748800  1
  Li  Li7  1  0.34884800  0.90748800  0.64454800  1
  Li  Li8  1  0.09329700  0.35853600  0.35853600  1
  Cr  Cr0  1  0.62550200  0.10585600  0.62550200  1
  Cr  Cr1  1  0.62550200  0.62550200  0.10585600  1
  Cr  Cr2  1  0.10585600  0.62550200  0.62550200  1
  W  W0  1  0.64816600  0.36156800  0.36156800  1
  W  W1  1  0.64260400  0.64260400  0.64260400  1
  W  W2  1  0.36156800  0.36156800  0.64816600  1
  W  W3  1  0.36156800  0.64816600  0.36156800  1
  W  W4  1  0.99826000  0.99826000  0.49906000  1
  W  W5  1  0.99826000  0.49906000  0.99826000  1
  W  W6  1  0.49906000  0.99826000  0.99826000  1
  O  O0  1  0.85917300  0.38429600  0.38429600  1
  O  O1  1  0.85690500  0.61970200  0.61970200  1
  O  O2  1  0.86631800  0.11752600  0.62235900  1
  O  O3  1  0.86631800  0.62235900  0.11752600  1
  O  O4  1  0.87976100  0.37347900  0.87976100  1
  O  O5  1  0.87976100  0.87976100  0.37347900  1
  O  O6  1  0.62235900  0.11752600  0.86631800  1
  O  O7  1  0.62235900  0.86631800  0.11752600  1
  O  O8  1  0.61803100  0.38607700  0.61803100  1
  O  O9  1  0.61803100  0.61803100  0.38607700  1
  O  O10  1  0.61927300  0.13603800  0.39269000  1
  O  O11  1  0.61927300  0.39269000  0.13603800  1
  O  O12  1  0.61970200  0.61970200  0.85690500  1
  O  O13  1  0.61970200  0.85690500  0.61970200  1
  O  O14  1  0.39269000  0.13603800  0.61927300  1
  O  O15  1  0.39269000  0.61927300  0.13603800  1
  O  O16  1  0.38429600  0.38429600  0.85917300  1
  O  O17  1  0.38429600  0.85917300  0.38429600  1
  O  O18  1  0.39996200  0.39996200  0.39996200  1
  O  O19  1  0.38607700  0.61803100  0.61803100  1
  O  O20  1  0.38503100  0.12445200  0.12445200  1
  O  O21  1  0.37347900  0.87976100  0.87976100  1
  O  O22  1  0.12445200  0.12445200  0.38503100  1
  O  O23  1  0.12445200  0.38503100  0.12445200  1
  O  O24  1  0.11752600  0.62235900  0.86631800  1
  O  O25  1  0.11752600  0.86631800  0.62235900  1
  O  O26  1  0.13603800  0.39269000  0.61927300  1
  O  O27  1  0.13603800  0.61927300  0.39269000  1
loop_
_geom_bond_atom_site_label_1
_geom_bond_atom_site_label_2
_geom_bond_distance
_geom_bond_site_symmetry_2
Li0 O26 1.990467 1_655
Li0 O2 2.009708 1_555
Li0 O4 2.023667 1_555
Li0 O0 2.270356 1_555
Li0 O1 2.347660 1_555
Li0 O8 2.490073 1_555
Li1 O27 1.990467 1_655
Li1 O3 2.009709 1_555
Li1 O5 2.023667 1_555
Li1 O0 2.270356 1_555
Li1 O1 2.347660 1_555
Li1 O9 2.490073 1_555
Li2 O11 1.990467 1_556
Li2 O6 2.009708 1_555
Li2 O4 2.023667 1_555
Li2 O16 2.270356 1_555
Li2 O12 2.347660 1_555
Li2 O8 2.490073 1_555
Li3 O10 1.990467 1_565
Li3 O7 2.009709 1_555
Li3 O5 2.023667 1_555
Li3 O17 2.270356 1_555
Li3 O13 2.347660 1_555
Li3 O9 2.490073 1_555
Li4 O17 2.011289 1_545
Li4 O22 2.016848 1_555
Li4 O20 2.016848 1_555
Li4 O10 2.269042 1_555
Li4 O14 2.269042 1_555
Li4 O18 2.658648 1_555
Li5 O16 2.011289 1_554
Li5 O20 2.016848 1_555
Li5 O23 2.016848 1_555
Li5 O11 2.269042 1_555
Li5 O15 2.269042 1_555
Li5 O18 2.658648 1_555
Li6 O15 1.990467 1_556
Li6 O24 2.009708 1_555
Li6 O21 2.023667 1_555
Li6 O16 2.270356 1_555
Li6 O12 2.347660 1_555
Li6 O19 2.490073 1_555
Li7 O14 1.990467 1_565
Li7 O25 2.009708 1_555
Li7 O21 2.023667 1_555
Li7 O17 2.270356 1_555
Li7 O13 2.347660 1_555
Li7 O19 2.490073 1_555
Li8 O0 2.011289 1_455
Li8 O22 2.016848 1_555
Li8 O23 2.016848 1_555
Li8 O27 2.269042 1_555
Li8 O26 2.269042 1_555
Li8 O18 2.658648 1_555
Cr0 O14 1.994775 1_555
Cr0 O10 1.994775 1_555
Cr0 O2 2.049970 1_555
Cr0 O6 2.049970 1_555
Cr0 O13 2.117878 1_545
Cr0 O8 2.382731 1_555
Cr1 O11 1.994775 1_555
Cr1 O15 1.994775 1_555
Cr1 O3 2.049970 1_555
Cr1 O7 2.049970 1_555
Cr1 O12 2.117878 1_554
Cr1 O9 2.382731 1_555
Cr2 O26 1.994775 1_555
Cr2 O27 1.994775 1_555
Cr2 O25 2.049970 1_555
Cr2 O24 2.049970 1_555
Cr2 O1 2.117878 1_455
Cr2 O19 2.382731 1_555
O0 W0 1.816894 1_555
O1 W1 1.839827 1_555
O2 W4 1.835031 1_545
O3 W5 1.835031 1_554
O4 W5 1.791715 1_555
O5 W4 1.791715 1_555
O6 W6 1.835031 1_545
O7 W6 1.835031 1_554
O8 W1 2.203246 1_555
O8 W2 2.204313 1_555
O8 W0 2.204313 1_555
O9 W1 2.203246 1_555
O9 W0 2.204313 1_555
O9 W3 2.204313 1_555
O10 W0 1.950339 1_555
O11 W0 1.950339 1_555
O12 W1 1.839827 1_555
O13 W1 1.839827 1_555
O14 W2 1.950339 1_555
O15 W3 1.950339 1_555
O16 W2 1.816894 1_555
O17 W3 1.816894 1_555
O18 W0 2.155727 1_555
O18 W3 2.155727 1_555
O18 W2 2.155727 1_555
O19 W1 2.203246 1_555
O19 W2 2.204313 1_555
O19 W3 2.204313 1_555
O20 W6 1.796724 1_544
O21 W6 1.791715 1_555
O22 W4 1.796724 1_445
O23 W5 1.796724 1_454
O24 W5 1.835031 1_455
O25 W4 1.835031 1_455
O26 W2 1.950339 1_555
O27 W3 1.950339 1_555
