# generated using pymatgen
data_InPH4NO5
_symmetry_space_group_name_H-M   'P 1'
_cell_length_a   9.57877200
_cell_length_b   9.57877200
_cell_length_c   11.21699900
_cell_angle_alpha   90.00000000
_cell_angle_beta   90.00000000
_cell_angle_gamma   90.00000000
_symmetry_Int_Tables_number   1
_chemical_formula_structural   InPH4NO5
_chemical_formula_sum   'In8 P8 H32 N8 O40'
_cell_volume   1029.19188500
_cell_formula_units_Z   8
loop_
 _symmetry_equiv_pos_site_id
 _symmetry_equiv_pos_as_xyz
  1  'x, y, z'
loop_
 _atom_site_type_symbol
 _atom_site_label
 _atom_site_symmetry_multiplicity
 _atom_site_fract_x
 _atom_site_fract_y
 _atom_site_fract_z
 _atom_site_occupancy
  In  In0  1  0.59646600  0.40353400  0.25000000  1
  In  In1  1  0.40353400  0.59646600  0.75000000  1
  In  In2  1  0.90353400  0.90353400  0.50000000  1
  In  In3  1  0.09646600  0.09646600  0.00000000  1
  In  In4  1  0.15365200  0.84634800  0.25000000  1
  In  In5  1  0.84634800  0.15365200  0.75000000  1
  In  In6  1  0.34634800  0.34634800  0.50000000  1
  In  In7  1  0.65365200  0.65365200  0.00000000  1
  P  P0  1  0.83896200  0.68559000  0.25534900  1
  P  P1  1  0.16103800  0.31441000  0.75534900  1
  P  P2  1  0.18559000  0.66103800  0.50534900  1
  P  P3  1  0.81441000  0.33896200  0.00534900  1
  P  P4  1  0.31441000  0.16103800  0.24465100  1
  P  P5  1  0.68559000  0.83896200  0.74465100  1
  P  P6  1  0.66103800  0.18559000  0.49465100  1
  P  P7  1  0.33896200  0.81441000  0.99465100  1
  H  H0  1  0.94050700  0.23442000  0.31772100  1
  H  H1  1  0.05949300  0.76558000  0.81772100  1
  H  H2  1  0.73442000  0.55949300  0.56772100  1
  H  H3  1  0.26558000  0.44050700  0.06772100  1
  H  H4  1  0.76558000  0.05949300  0.18227900  1
  H  H5  1  0.23442000  0.94050700  0.68227900  1
  H  H6  1  0.55949300  0.73442000  0.43227900  1
  H  H7  1  0.44050700  0.26558000  0.93227900  1
  H  H8  1  0.98157600  0.39460200  0.36753700  1
  H  H9  1  0.01842400  0.60539800  0.86753700  1
  H  H10  1  0.89460200  0.51842400  0.61753700  1
  H  H11  1  0.10539800  0.48157600  0.11753700  1
  H  H12  1  0.60539800  0.01842400  0.13246300  1
  H  H13  1  0.39460200  0.98157600  0.63246300  1
  H  H14  1  0.51842400  0.89460200  0.38246300  1
  H  H15  1  0.48157600  0.10539800  0.88246300  1
  H  H16  1  0.94320800  0.36956200  0.22448400  1
  H  H17  1  0.05679200  0.63043800  0.72448400  1
  H  H18  1  0.86956200  0.55679200  0.47448400  1
  H  H19  1  0.13043800  0.44320800  0.97448400  1
  H  H20  1  0.63043800  0.05679200  0.27551600  1
  H  H21  1  0.36956200  0.94320800  0.77551600  1
  H  H22  1  0.55679200  0.86956200  0.52551600  1
  H  H23  1  0.44320800  0.13043800  0.02551600  1
  H  H24  1  0.09641500  0.30293400  0.28804300  1
  H  H25  1  0.90358500  0.69706600  0.78804300  1
  H  H26  1  0.80293400  0.40358500  0.53804300  1
  H  H27  1  0.19706600  0.59641500  0.03804300  1
  H  H28  1  0.69706600  0.90358500  0.21195700  1
  H  H29  1  0.30293400  0.09641500  0.71195700  1
  H  H30  1  0.40358500  0.80293400  0.46195700  1
  H  H31  1  0.59641500  0.19706600  0.96195700  1
  N  N0  1  0.99055800  0.32654400  0.29819000  1
  N  N1  1  0.00944200  0.67345600  0.79819000  1
  N  N2  1  0.82654400  0.50944200  0.54819000  1
  N  N3  1  0.17345600  0.49055800  0.04819000  1
  N  N4  1  0.67345600  0.00944200  0.20181000  1
  N  N5  1  0.32654400  0.99055800  0.70181000  1
  N  N6  1  0.50944200  0.82654400  0.45181000  1
  N  N7  1  0.49055800  0.17345600  0.95181000  1
  O  O0  1  0.76584900  0.75106400  0.14410300  1
  O  O1  1  0.23415100  0.24893600  0.64410300  1
  O  O2  1  0.25106400  0.73415100  0.39410300  1
  O  O3  1  0.74893600  0.26584900  0.89410300  1
  O  O4  1  0.24893600  0.23415100  0.35589700  1
  O  O5  1  0.75106400  0.76584900  0.85589700  1
  O  O6  1  0.73415100  0.25106400  0.60589700  1
  O  O7  1  0.26584900  0.74893600  0.10589700  1
  O  O8  1  0.77994200  0.53859600  0.28187000  1
  O  O9  1  0.22005800  0.46140400  0.78187000  1
  O  O10  1  0.03859600  0.72005800  0.53187000  1
  O  O11  1  0.96140400  0.27994200  0.03187000  1
  O  O12  1  0.46140400  0.22005800  0.21813000  1
  O  O13  1  0.53859600  0.77994200  0.71813000  1
  O  O14  1  0.72005800  0.03859600  0.46813000  1
  O  O15  1  0.27994200  0.96140400  0.96813000  1
  O  O16  1  0.99878500  0.67320200  0.23859700  1
  O  O17  1  0.00121500  0.32679800  0.73859700  1
  O  O18  1  0.17320200  0.50121500  0.48859700  1
  O  O19  1  0.82679800  0.49878500  0.98859700  1
  O  O20  1  0.32679800  0.00121500  0.26140300  1
  O  O21  1  0.67320200  0.99878500  0.76140300  1
  O  O22  1  0.50121500  0.17320200  0.51140300  1
  O  O23  1  0.49878500  0.82679800  0.01140300  1
  O  O24  1  0.79986400  0.78230600  0.36225400  1
  O  O25  1  0.20013600  0.21769400  0.86225400  1
  O  O26  1  0.28230600  0.70013600  0.61225400  1
  O  O27  1  0.71769400  0.29986400  0.11225400  1
  O  O28  1  0.21769400  0.20013600  0.13774600  1
  O  O29  1  0.78230600  0.79986400  0.63774600  1
  O  O30  1  0.70013600  0.28230600  0.38774600  1
  O  O31  1  0.29986400  0.71769400  0.88774600  1
  O  O32  1  0.47277500  0.49088700  0.39254300  1
  O  O33  1  0.52722500  0.50911300  0.89254300  1
  O  O34  1  0.99088700  0.02722500  0.64254300  1
  O  O35  1  0.00911300  0.97277500  0.14254300  1
  O  O36  1  0.50911300  0.52722500  0.10745700  1
  O  O37  1  0.49088700  0.47277500  0.60745700  1
  O  O38  1  0.02722500  0.99088700  0.35745700  1
  O  O39  1  0.97277500  0.00911300  0.85745700  1
loop_
_geom_bond_atom_site_label_1
_geom_bond_atom_site_label_2
_geom_bond_distance
_geom_bond_site_symmetry_2
In0 O32 2.158794 1_555
In0 O36 2.158794 1_555
In0 O30 2.172983 1_555
In0 O27 2.172983 1_555
In0 O8 2.211390 1_555
In0 O12 2.211390 1_555
In1 O33 2.158794 1_555
In1 O37 2.158794 1_555
In1 O31 2.172983 1_555
In1 O26 2.172983 1_555
In1 O13 2.211390 1_555
In1 O9 2.211390 1_555
In2 O38 2.158794 1_655
In2 O34 2.158794 1_565
In2 O24 2.172983 1_555
In2 O29 2.172983 1_555
In2 O10 2.211390 1_655
In2 O14 2.211390 1_565
In3 O35 2.158794 1_545
In3 O39 2.158794 1_454
In3 O25 2.172983 1_554
In3 O28 2.172983 1_555
In3 O15 2.211390 1_544
In3 O11 2.211390 1_455
In4 O7 2.153697 1_555
In4 O2 2.153697 1_555
In4 O35 2.199153 1_555
In4 O38 2.199153 1_555
In4 O20 2.228823 1_565
In4 O16 2.228823 1_455
In5 O3 2.153697 1_555
In5 O6 2.153697 1_555
In5 O39 2.199153 1_555
In5 O34 2.199153 1_555
In5 O17 2.228823 1_655
In5 O21 2.228823 1_545
In6 O1 2.153697 1_555
In6 O4 2.153697 1_555
In6 O37 2.199153 1_555
In6 O32 2.199153 1_555
In6 O18 2.228823 1_555
In6 O22 2.228823 1_555
In7 O5 2.153697 1_554
In7 O0 2.153697 1_555
In7 O36 2.199153 1_555
In7 O33 2.199153 1_554
In7 O19 2.228823 1_554
In7 O23 2.228823 1_555
H0 N0 1.027880 1_555
H1 N1 1.027880 1_555
H2 N2 1.027880 1_555
H3 N3 1.027880 1_555
H4 N4 1.027880 1_555
H5 N5 1.027880 1_555
H6 N6 1.027880 1_555
H7 N7 1.027880 1_555
H8 N0 1.018561 1_555
H9 N1 1.018561 1_555
H10 N2 1.018561 1_555
H11 N3 1.018561 1_555
H12 N4 1.018561 1_555
H13 N5 1.018561 1_555
H14 N6 1.018561 1_555
H15 N7 1.018561 1_555
H16 N0 1.029095 1_555
H17 N1 1.029095 1_555
H18 N2 1.029095 1_555
H19 N3 1.029095 1_556
H20 N4 1.029095 1_555
H21 N5 1.029095 1_555
H22 N6 1.029095 1_555
H23 N7 1.029095 1_554
H24 N0 1.045111 1_455
H25 N1 1.045111 1_655
H26 N2 1.045111 1_555
H27 N3 1.045111 1_555
H28 N4 1.045111 1_565
H29 N5 1.045111 1_545
H30 N6 1.045111 1_555
H31 N7 1.045111 1_555
O0 P0 1.562343 1_555
O1 P1 1.562343 1_555
O2 P2 1.562343 1_555
O3 P3 1.562343 1_556
O4 P4 1.562343 1_555
O5 P5 1.562343 1_555
O6 P6 1.562343 1_555
O7 P7 1.562343 1_554
O8 P0 1.546167 1_555
O9 P1 1.546167 1_555
O10 P2 1.546167 1_555
O11 P3 1.546167 1_555
O12 P4 1.546167 1_555
O13 P5 1.546167 1_555
O14 P6 1.546167 1_555
O15 P7 1.546167 1_555
O16 P0 1.546955 1_555
O17 P1 1.546955 1_555
O18 P2 1.546955 1_555
O19 P3 1.546955 1_556
O20 P4 1.546955 1_555
O21 P5 1.546955 1_555
O22 P6 1.546955 1_555
O23 P7 1.546955 1_554
O24 P0 1.560923 1_555
O25 P1 1.560923 1_555
O26 P2 1.560923 1_555
O27 P3 1.560923 1_555
O28 P4 1.560923 1_555
O29 P5 1.560923 1_555
O30 P6 1.560923 1_555
O31 P7 1.560923 1_555
