# generated using pymatgen
data_Li5Mn2(PO4)3
_symmetry_space_group_name_H-M   'P 1'
_cell_length_a   8.50624000
_cell_length_b   8.53336638
_cell_length_c   9.40693249
_cell_angle_alpha   63.17112291
_cell_angle_beta   63.54513925
_cell_angle_gamma   60.93637859
_symmetry_Int_Tables_number   1
_chemical_formula_structural   Li5Mn2(PO4)3
_chemical_formula_sum   'Li10 Mn4 P6 O24'
_cell_volume   509.69746511
_cell_formula_units_Z   2
loop_
 _symmetry_equiv_pos_site_id
 _symmetry_equiv_pos_as_xyz
  1  'x, y, z'
loop_
 _atom_site_type_symbol
 _atom_site_label
 _atom_site_symmetry_multiplicity
 _atom_site_fract_x
 _atom_site_fract_y
 _atom_site_fract_z
 _atom_site_occupancy
  Li  Li0  1  0.97579200  0.23211900  0.17304300  1
  Li  Li1  1  0.20877900  0.73824100  0.07776200  1
  Li  Li2  1  0.65436300  0.92310000  0.15463700  1
  Li  Li3  1  0.24094600  0.54511000  0.36634500  1
  Li  Li4  1  0.68439700  0.35300100  0.37806400  1
  Li  Li5  1  0.31560300  0.64699900  0.62193600  1
  Li  Li6  1  0.75905400  0.45489000  0.63365500  1
  Li  Li7  1  0.34563700  0.07690000  0.84536300  1
  Li  Li8  1  0.79122100  0.26175900  0.92223800  1
  Li  Li9  1  0.02420800  0.76788100  0.82695700  1
  Mn  Mn0  1  0.14051800  0.14239800  0.55124100  1
  Mn  Mn1  1  0.35412100  0.34159700  0.96430600  1
  Mn  Mn2  1  0.64587900  0.65840300  0.03569400  1
  Mn  Mn3  1  0.85948200  0.85760200  0.44875900  1
  P  P0  1  0.05114000  0.45546100  0.74588700  1
  P  P1  1  0.54885800  0.24882600  0.25770600  1
  P  P2  1  0.26121600  0.94237600  0.23753900  1
  P  P3  1  0.73878400  0.05762400  0.76246100  1
  P  P4  1  0.45114200  0.75117400  0.74229400  1
  P  P5  1  0.94886000  0.54453900  0.25411300  1
  O  O0  1  0.24779800  0.11104500  0.07080100  1
  O  O1  1  0.15770800  0.02964900  0.37900200  1
  O  O2  1  0.94753100  0.41055300  0.43339100  1
  O  O3  1  0.15320600  0.51946500  0.13357300  1
  O  O4  1  0.14928200  0.24992500  0.74327800  1
  O  O5  1  0.57433400  0.21041500  0.09960500  1
  O  O6  1  0.15249400  0.82774100  0.25221500  1
  O  O7  1  0.39392200  0.19239000  0.40585300  1
  O  O8  1  0.15511300  0.51324900  0.80653100  1
  O  O9  1  0.50176500  0.46221100  0.22680900  1
  O  O10  1  0.74723800  0.14904000  0.29057300  1
  O  O11  1  0.46677000  0.81078400  0.23362200  1
  O  O12  1  0.53323000  0.18921600  0.76637800  1
  O  O13  1  0.25276200  0.85096000  0.70942700  1
  O  O14  1  0.49823500  0.53778900  0.77319100  1
  O  O15  1  0.84488700  0.48675100  0.19346900  1
  O  O16  1  0.60607800  0.80761000  0.59414700  1
  O  O17  1  0.84750600  0.17225900  0.74778500  1
  O  O18  1  0.42566600  0.78958500  0.90039500  1
  O  O19  1  0.85071800  0.75007500  0.25672200  1
  O  O20  1  0.84679400  0.48053500  0.86642700  1
  O  O21  1  0.05246900  0.58944700  0.56660900  1
  O  O22  1  0.84229200  0.97035100  0.62099800  1
  O  O23  1  0.75220200  0.88895500  0.92919900  1
loop_
_geom_bond_atom_site_label_1
_geom_bond_atom_site_label_2
_geom_bond_distance
_geom_bond_site_symmetry_2
Li0 O15 1.957987 1_555
Li0 O0 1.984341 1_655
Li0 O10 2.054526 1_555
Li0 O1 2.487054 1_655
Li1 O6 1.892525 1_555
Li1 O3 1.932863 1_555
Li1 O18 1.939661 1_554
Li2 O19 1.909238 1_555
Li2 O11 1.950298 1_555
Li2 O23 2.006104 1_554
Li2 O5 2.071064 1_565
Li3 O21 1.904070 1_555
Li3 O9 1.965750 1_555
Li3 O6 2.038363 1_555
Li3 O7 2.550829 1_555
Li4 O15 1.947910 1_555
Li4 O10 1.997368 1_555
Li4 O9 2.161555 1_555
Li5 O8 1.947910 1_555
Li5 O13 1.997368 1_555
Li5 O14 2.161555 1_555
Li6 O2 1.904070 1_555
Li6 O14 1.965750 1_555
Li6 O17 2.038363 1_555
Li6 O16 2.550829 1_555
Li7 O4 1.909238 1_555
Li7 O12 1.950298 1_555
Li7 O0 2.006104 1_556
Li7 O18 2.071064 1_545
Li8 O17 1.892525 1_555
Li8 O20 1.932863 1_555
Li8 O5 1.939661 1_556
Li9 O8 1.957987 1_555
Li9 O23 1.984341 1_455
Li9 O13 2.054526 1_555
Li9 O22 2.487054 1_455
Mn0 O7 2.106854 1_555
Mn0 O1 2.152118 1_555
Mn0 O2 2.200470 1_455
Mn0 O13 2.220192 1_545
Mn0 O17 2.323330 1_455
Mn0 O4 2.406971 1_555
Mn1 O0 2.198762 1_556
Mn1 O14 2.202548 1_555
Mn1 O3 2.235310 1_556
Mn1 O8 2.254123 1_555
Mn1 O5 2.276555 1_556
Mn1 O12 2.282952 1_555
Mn2 O23 2.198762 1_554
Mn2 O9 2.202548 1_555
Mn2 O20 2.235310 1_554
Mn2 O15 2.254123 1_555
Mn2 O18 2.276555 1_554
Mn2 O11 2.282952 1_555
Mn3 O16 2.106854 1_555
Mn3 O22 2.152118 1_555
Mn3 O21 2.200470 1_655
Mn3 O10 2.220192 1_565
Mn3 O6 2.323330 1_655
Mn3 O19 2.406971 1_555
O0 P2 1.583329 1_545
O1 P2 1.521271 1_545
O2 P5 1.551314 1_555
O3 P5 1.566676 1_455
O4 P0 1.540058 1_555
O5 P1 1.565297 1_555
O6 P2 1.573070 1_555
O7 P1 1.511748 1_555
O8 P0 1.574168 1_555
O9 P1 1.574146 1_555
O10 P1 1.580945 1_555
O11 P2 1.546576 1_555
O12 P3 1.546576 1_555
O13 P4 1.580945 1_555
O14 P4 1.574146 1_555
O15 P5 1.574168 1_555
O16 P4 1.511748 1_555
O17 P3 1.573070 1_555
O18 P4 1.565297 1_555
O19 P5 1.540058 1_555
O20 P0 1.566676 1_655
O21 P0 1.551314 1_555
O22 P3 1.521271 1_565
O23 P3 1.583329 1_565
