# generated using pymatgen
data_Na6Cr2As(CO4)4
_symmetry_space_group_name_H-M   'P 1'
_cell_length_a   9.98206945
_cell_length_b   9.98206945
_cell_length_c   9.98206945
_cell_angle_alpha   60.00000000
_cell_angle_beta   60.00000000
_cell_angle_gamma   60.00000000
_symmetry_Int_Tables_number   1
_chemical_formula_structural   Na6Cr2As(CO4)4
_chemical_formula_sum   'Na12 Cr4 As2 C8 O32'
_cell_volume   703.30995369
_cell_formula_units_Z   2
loop_
 _symmetry_equiv_pos_site_id
 _symmetry_equiv_pos_as_xyz
  1  'x, y, z'
loop_
 _atom_site_type_symbol
 _atom_site_label
 _atom_site_symmetry_multiplicity
 _atom_site_fract_x
 _atom_site_fract_y
 _atom_site_fract_z
 _atom_site_occupancy
  Na  Na0  1  0.54119200  0.95880800  0.54119200  1
  Na  Na1  1  0.54119200  0.54119200  0.95880800  1
  Na  Na2  1  0.95880800  0.54119200  0.54119200  1
  Na  Na3  1  0.29119200  0.70880800  0.29119200  1
  Na  Na4  1  0.54119200  0.95880800  0.95880800  1
  Na  Na5  1  0.95880800  0.95880800  0.54119200  1
  Na  Na6  1  0.70880800  0.29119200  0.29119200  1
  Na  Na7  1  0.29119200  0.29119200  0.70880800  1
  Na  Na8  1  0.95880800  0.54119200  0.95880800  1
  Na  Na9  1  0.70880800  0.70880800  0.29119200  1
  Na  Na10  1  0.29119200  0.70880800  0.70880800  1
  Na  Na11  1  0.70880800  0.29119200  0.70880800  1
  Cr  Cr0  1  0.12500000  0.12500000  0.62500000  1
  Cr  Cr1  1  0.62500000  0.12500000  0.12500000  1
  Cr  Cr2  1  0.12500000  0.62500000  0.12500000  1
  Cr  Cr3  1  0.12500000  0.12500000  0.12500000  1
  As  As0  1  0.50000000  0.50000000  0.50000000  1
  As  As1  1  0.75000000  0.75000000  0.75000000  1
  C  C0  1  0.33974400  0.33974400  0.33974400  1
  C  C1  1  0.26923200  0.91025600  0.91025600  1
  C  C2  1  0.91025600  0.91025600  0.26923200  1
  C  C3  1  0.91025600  0.26923200  0.91025600  1
  C  C4  1  0.33974400  0.98076800  0.33974400  1
  C  C5  1  0.98076800  0.33974400  0.33974400  1
  C  C6  1  0.33974400  0.33974400  0.98076800  1
  C  C7  1  0.91025600  0.91025600  0.91025600  1
  O  O0  1  0.48238600  0.22618500  0.31329400  1
  O  O1  1  0.22618500  0.31329400  0.48238600  1
  O  O2  1  0.31329400  0.48238600  0.22618500  1
  O  O3  1  0.27186500  0.76761400  0.93670600  1
  O  O4  1  0.57052500  0.28842500  0.57052500  1
  O  O5  1  0.02381500  0.76761400  0.27186500  1
  O  O6  1  0.76761400  0.93670600  0.27186500  1
  O  O7  1  0.28842500  0.57052500  0.57052500  1
  O  O8  1  0.57052500  0.57052500  0.28842500  1
  O  O9  1  0.27186500  0.02381500  0.76761400  1
  O  O10  1  0.27186500  0.93670600  0.02381500  1
  O  O11  1  0.57052500  0.57052500  0.57052500  1
  O  O12  1  0.93670600  0.27186500  0.76761400  1
  O  O13  1  0.93670600  0.02381500  0.27186500  1
  O  O14  1  0.76761400  0.27186500  0.02381500  1
  O  O15  1  0.22618500  0.97813500  0.31329400  1
  O  O16  1  0.02381500  0.27186500  0.93670600  1
  O  O17  1  0.48238600  0.97813500  0.22618500  1
  O  O18  1  0.31329400  0.22618500  0.97813500  1
  O  O19  1  0.31329400  0.97813500  0.48238600  1
  O  O20  1  0.67947500  0.67947500  0.67947500  1
  O  O21  1  0.97813500  0.31329400  0.22618500  1
  O  O22  1  0.97813500  0.22618500  0.48238600  1
  O  O23  1  0.96157500  0.67947500  0.67947500  1
  O  O24  1  0.67947500  0.67947500  0.96157500  1
  O  O25  1  0.48238600  0.31329400  0.97813500  1
  O  O26  1  0.22618500  0.48238600  0.97813500  1
  O  O27  1  0.67947500  0.96157500  0.67947500  1
  O  O28  1  0.97813500  0.48238600  0.31329400  1
  O  O29  1  0.93670600  0.76761400  0.02381500  1
  O  O30  1  0.02381500  0.93670600  0.76761400  1
  O  O31  1  0.76761400  0.02381500  0.93670600  1
loop_
_geom_bond_atom_site_label_1
_geom_bond_atom_site_label_2
_geom_bond_distance
_geom_bond_site_symmetry_2
Na0 O20 2.406890 1_555
Na0 O27 2.406890 1_555
Na0 O19 2.517972 1_555
Na0 O0 2.517972 1_565
Na0 O6 2.530394 1_555
Na0 O9 2.530394 1_565
Na1 O20 2.406890 1_555
Na1 O24 2.406890 1_555
Na1 O25 2.517972 1_555
Na1 O2 2.517972 1_556
Na1 O3 2.530394 1_555
Na1 O14 2.530394 1_556
Na2 O20 2.406890 1_555
Na2 O23 2.406890 1_555
Na2 O28 2.517972 1_555
Na2 O1 2.517972 1_655
Na2 O12 2.530394 1_555
Na2 O5 2.530394 1_655
Na3 O7 2.406890 1_555
Na3 O8 2.406890 1_555
Na3 O10 2.517972 1_555
Na3 O5 2.517972 1_555
Na3 O2 2.530394 1_555
Na3 O15 2.530394 1_555
Na4 O24 2.406890 1_555
Na4 O27 2.406890 1_555
Na4 O18 2.517972 1_565
Na4 O17 2.517972 1_556
Na4 O31 2.530394 1_565
Na4 O10 2.530394 1_556
Na5 O23 2.406890 1_555
Na5 O27 2.406890 1_555
Na5 O15 2.517972 1_655
Na5 O22 2.517972 1_565
Na5 O30 2.530394 1_655
Na5 O13 2.530394 1_565
Na6 O8 2.406890 1_555
Na6 O4 2.406890 1_555
Na6 O13 2.517972 1_555
Na6 O14 2.517972 1_555
Na6 O21 2.530394 1_555
Na6 O0 2.530394 1_555
Na7 O7 2.406890 1_555
Na7 O4 2.406890 1_555
Na7 O16 2.517972 1_555
Na7 O9 2.517972 1_555
Na7 O1 2.530394 1_555
Na7 O18 2.530394 1_555
Na8 O24 2.406890 1_555
Na8 O23 2.406890 1_555
Na8 O21 2.517972 1_556
Na8 O26 2.517972 1_655
Na8 O29 2.530394 1_556
Na8 O16 2.530394 1_655
Na9 O11 2.406890 1_555
Na9 O8 2.406890 1_555
Na9 O29 2.517972 1_555
Na9 O6 2.517972 1_555
Na9 O17 2.530394 1_555
Na9 O28 2.530394 1_555
Na10 O11 2.406890 1_555
Na10 O7 2.406890 1_555
Na10 O30 2.517972 1_555
Na10 O3 2.517972 1_555
Na10 O19 2.530394 1_555
Na10 O26 2.530394 1_555
Na11 O11 2.406890 1_555
Na11 O4 2.406890 1_555
Na11 O31 2.517972 1_555
Na11 O12 2.517972 1_555
Na11 O22 2.530394 1_555
Na11 O25 2.530394 1_555
Cr0 O30 2.089106 1_545
Cr0 O1 2.089106 1_555
Cr0 O19 2.089106 1_545
Cr0 O12 2.089106 1_455
Cr0 O22 2.089106 1_455
Cr0 O9 2.089106 1_555
Cr1 O31 2.089106 1_554
Cr1 O0 2.089106 1_555
Cr1 O6 2.089106 1_545
Cr1 O25 2.089106 1_554
Cr1 O14 2.089106 1_555
Cr1 O17 2.089106 1_545
Cr2 O29 2.089106 1_455
Cr2 O3 2.089106 1_554
Cr2 O2 2.089106 1_555
Cr2 O28 2.089106 1_455
Cr2 O26 2.089106 1_554
Cr2 O5 2.089106 1_555
Cr3 O13 2.089106 1_455
Cr3 O16 2.089106 1_554
Cr3 O10 2.089106 1_545
Cr3 O18 2.089106 1_554
Cr3 O21 2.089106 1_455
Cr3 O15 2.089106 1_545
As0 O11 1.724405 1_555
As0 O7 1.724405 1_555
As0 O4 1.724405 1_555
As0 O8 1.724405 1_555
As1 O20 1.724405 1_555
As1 O23 1.724405 1_555
As1 O27 1.724405 1_555
As1 O24 1.724405 1_555
C0 O0 1.300525 1_555
C0 O1 1.300525 1_555
C0 O2 1.300525 1_555
C1 O3 1.300525 1_555
C1 O9 1.300525 1_565
C1 O10 1.300525 1_556
C2 O6 1.300525 1_555
C2 O5 1.300525 1_655
C2 O13 1.300525 1_565
C3 O12 1.300525 1_555
C3 O14 1.300525 1_556
C3 O16 1.300525 1_655
C4 O15 1.300525 1_555
C4 O17 1.300525 1_555
C4 O19 1.300525 1_555
C5 O21 1.300525 1_555
C5 O22 1.300525 1_555
C5 O28 1.300525 1_555
C6 O18 1.300525 1_555
C6 O25 1.300525 1_555
C6 O26 1.300525 1_555
C7 O30 1.300525 1_655
C7 O31 1.300525 1_565
C7 O29 1.300525 1_556
