# generated using pymatgen
data_Li3Fe3TeO8
_symmetry_space_group_name_H-M   'P 1'
_cell_length_a   5.98591568
_cell_length_b   5.98591568
_cell_length_c   5.98591606
_cell_angle_alpha   61.14672967
_cell_angle_beta   61.14672967
_cell_angle_gamma   61.14672851
_symmetry_Int_Tables_number   1
_chemical_formula_structural   Li3Fe3TeO8
_chemical_formula_sum   'Li3 Fe3 Te1 O8'
_cell_volume   155.57552345
_cell_formula_units_Z   1
loop_
 _symmetry_equiv_pos_site_id
 _symmetry_equiv_pos_as_xyz
  1  'x, y, z'
loop_
 _atom_site_type_symbol
 _atom_site_label
 _atom_site_symmetry_multiplicity
 _atom_site_fract_x
 _atom_site_fract_y
 _atom_site_fract_z
 _atom_site_occupancy
  Li  Li0  1  -0.00000000  -0.00000000  0.50000000  1
  Li  Li1  1  0.50000000  -0.00000000  -0.00000000  1
  Li  Li2  1  -0.00000000  0.50000000  -0.00000000  1
  Fe  Fe0  1  0.50000000  0.50000000  -0.00000000  1
  Fe  Fe1  1  -0.00000000  0.50000000  0.50000000  1
  Fe  Fe2  1  0.50000000  -0.00000000  0.50000000  1
  Te  Te0  1  -0.00000000  -0.00000000  -0.00000000  1
  O  O0  1  0.73752855  0.73752855  0.73752855  1
  O  O1  1  0.22655414  0.22655414  0.77377522  1
  O  O2  1  0.77377522  0.22655414  0.22655414  1
  O  O3  1  0.26247145  0.26247145  0.26247145  1
  O  O4  1  0.22655414  0.77377522  0.22655414  1
  O  O5  1  0.77344586  0.77344586  0.22622478  1
  O  O6  1  0.22622478  0.77344586  0.77344586  1
  O  O7  1  0.77344586  0.22622478  0.77344586  1
loop_
_geom_bond_atom_site_label_1
_geom_bond_atom_site_label_2
_geom_bond_distance
_geom_bond_site_symmetry_2
Li0 O2 2.139283 1_455
Li0 O6 2.139283 1_545
Li0 O4 2.139283 1_545
Li0 O7 2.139283 1_455
Li0 O3 2.242522 1_555
Li0 O0 2.242522 1_445
Li1 O4 2.139283 1_545
Li1 O7 2.139283 1_554
Li1 O5 2.139283 1_545
Li1 O1 2.139283 1_554
Li1 O3 2.242522 1_555
Li1 O0 2.242522 1_544
Li2 O6 2.139283 1_554
Li2 O2 2.139283 1_455
Li2 O5 2.139283 1_455
Li2 O1 2.139283 1_554
Li2 O3 2.242522 1_555
Li2 O0 2.242522 1_454
Fe0 O0 2.037339 1_554
Fe0 O3 2.037339 1_555
Fe0 O6 2.148865 1_554
Fe0 O4 2.148865 1_555
Fe0 O7 2.148865 1_554
Fe0 O2 2.148865 1_555
Fe1 O0 2.037339 1_455
Fe1 O3 2.037339 1_555
Fe1 O7 2.148865 1_455
Fe1 O4 2.148865 1_555
Fe1 O1 2.148865 1_555
Fe1 O5 2.148865 1_455
Fe2 O0 2.037339 1_545
Fe2 O3 2.037339 1_555
Fe2 O6 2.148865 1_545
Fe2 O2 2.148865 1_555
Fe2 O1 2.148865 1_555
Fe2 O5 2.148865 1_545
O1 Te0 1.934460 1_556
O2 Te0 1.934460 1_655
O4 Te0 1.934460 1_565
O5 Te0 1.934460 1_665
O6 Te0 1.934460 1_566
O7 Te0 1.934460 1_656
