# generated using pymatgen
data_Na6Ni2C4SO16
_symmetry_space_group_name_H-M   'P 1'
_cell_length_a   9.82723287
_cell_length_b   9.82723287
_cell_length_c   9.82723287
_cell_angle_alpha   60.00000000
_cell_angle_beta   60.00000000
_cell_angle_gamma   60.00000000
_symmetry_Int_Tables_number   1
_chemical_formula_structural   Na6Ni2C4SO16
_chemical_formula_sum   'Na12 Ni4 C8 S2 O32'
_cell_volume   671.08687312
_cell_formula_units_Z   2
loop_
 _symmetry_equiv_pos_site_id
 _symmetry_equiv_pos_as_xyz
  1  'x, y, z'
loop_
 _atom_site_type_symbol
 _atom_site_label
 _atom_site_symmetry_multiplicity
 _atom_site_fract_x
 _atom_site_fract_y
 _atom_site_fract_z
 _atom_site_occupancy
  Na  Na0  1  0.28335600  0.71664400  0.28335600  1
  Na  Na1  1  0.71664400  0.71664400  0.28335600  1
  Na  Na2  1  0.28335600  0.71664400  0.71664400  1
  Na  Na3  1  0.96664400  0.96664400  0.53335600  1
  Na  Na4  1  0.53335600  0.96664400  0.96664400  1
  Na  Na5  1  0.53335600  0.96664400  0.53335600  1
  Na  Na6  1  0.71664400  0.28335600  0.71664400  1
  Na  Na7  1  0.71664400  0.28335600  0.28335600  1
  Na  Na8  1  0.28335600  0.28335600  0.71664400  1
  Na  Na9  1  0.96664400  0.53335600  0.53335600  1
  Na  Na10  1  0.53335600  0.53335600  0.96664400  1
  Na  Na11  1  0.96664400  0.53335600  0.96664400  1
  Ni  Ni0  1  0.12500000  0.62500000  0.12500000  1
  Ni  Ni1  1  0.12500000  0.12500000  0.12500000  1
  Ni  Ni2  1  0.62500000  0.12500000  0.12500000  1
  Ni  Ni3  1  0.12500000  0.12500000  0.62500000  1
  C  C0  1  0.34293600  0.97119100  0.34293600  1
  C  C1  1  0.90706400  0.90706400  0.90706400  1
  C  C2  1  0.97119100  0.34293600  0.34293600  1
  C  C3  1  0.34293600  0.34293600  0.97119100  1
  C  C4  1  0.90706400  0.90706400  0.27880900  1
  C  C5  1  0.27880900  0.90706400  0.90706400  1
  C  C6  1  0.34293600  0.34293600  0.34293600  1
  C  C7  1  0.90706400  0.27880900  0.90706400  1
  S  S0  1  0.75000000  0.75000000  0.75000000  1
  S  S1  1  0.50000000  0.50000000  0.50000000  1
  O  O0  1  0.68782300  0.68782300  0.68782300  1
  O  O1  1  0.02503400  0.76413400  0.28141100  1
  O  O2  1  0.68782300  0.68782300  0.93653200  1
  O  O3  1  0.93653200  0.68782300  0.68782300  1
  O  O4  1  0.28141100  0.92942100  0.02503400  1
  O  O5  1  0.68782300  0.93653200  0.68782300  1
  O  O6  1  0.92942100  0.76413400  0.02503400  1
  O  O7  1  0.22496600  0.96858900  0.32057900  1
  O  O8  1  0.02503400  0.92942100  0.76413400  1
  O  O9  1  0.48586600  0.96858900  0.22496600  1
  O  O10  1  0.28141100  0.76413400  0.92942100  1
  O  O11  1  0.32057900  0.22496600  0.96858900  1
  O  O12  1  0.32057900  0.96858900  0.48586600  1
  O  O13  1  0.76413400  0.02503400  0.92942100  1
  O  O14  1  0.76413400  0.92942100  0.28141100  1
  O  O15  1  0.96858900  0.22496600  0.48586600  1
  O  O16  1  0.28141100  0.02503400  0.76413400  1
  O  O17  1  0.48586600  0.32057900  0.96858900  1
  O  O18  1  0.48586600  0.22496600  0.32057900  1
  O  O19  1  0.92942100  0.28141100  0.76413400  1
  O  O20  1  0.92942100  0.02503400  0.28141100  1
  O  O21  1  0.96858900  0.48586600  0.32057900  1
  O  O22  1  0.76413400  0.28141100  0.02503400  1
  O  O23  1  0.22496600  0.32057900  0.48586600  1
  O  O24  1  0.02503400  0.28141100  0.92942100  1
  O  O25  1  0.32057900  0.48586600  0.22496600  1
  O  O26  1  0.56217700  0.31346800  0.56217700  1
  O  O27  1  0.96858900  0.32057900  0.22496600  1
  O  O28  1  0.31346800  0.56217700  0.56217700  1
  O  O29  1  0.56217700  0.56217700  0.31346800  1
  O  O30  1  0.22496600  0.48586600  0.96858900  1
  O  O31  1  0.56217700  0.56217700  0.56217700  1
loop_
_geom_bond_atom_site_label_1
_geom_bond_atom_site_label_2
_geom_bond_distance
_geom_bond_site_symmetry_2
Na0 O1 2.348929 1_555
Na0 O4 2.348929 1_555
Na0 O25 2.422465 1_555
Na0 O7 2.422465 1_555
Na0 O29 2.470212 1_555
Na0 O28 2.470212 1_555
Na1 O6 2.348929 1_555
Na1 O14 2.348929 1_555
Na1 O9 2.422465 1_555
Na1 O21 2.422465 1_555
Na1 O31 2.470216 1_555
Na1 O29 2.470221 1_555
Na2 O8 2.348929 1_555
Na2 O10 2.348929 1_555
Na2 O30 2.422465 1_555
Na2 O12 2.422465 1_555
Na2 O31 2.470216 1_555
Na2 O28 2.470221 1_555
Na3 O15 2.348929 1_565
Na3 O7 2.348929 1_655
Na3 O20 2.422465 1_565
Na3 O8 2.422465 1_655
Na3 O3 2.470212 1_555
Na3 O5 2.470212 1_555
Na4 O11 2.348929 1_565
Na4 O9 2.348929 1_556
Na4 O4 2.422465 1_556
Na4 O13 2.422465 1_565
Na4 O5 2.470212 1_555
Na4 O2 2.470212 1_555
Na5 O12 2.348929 1_555
Na5 O18 2.348929 1_565
Na5 O14 2.422465 1_555
Na5 O16 2.422465 1_565
Na5 O0 2.470216 1_555
Na5 O5 2.470221 1_555
Na6 O13 2.348929 1_555
Na6 O19 2.348929 1_555
Na6 O15 2.422465 1_555
Na6 O17 2.422465 1_555
Na6 O31 2.470216 1_555
Na6 O26 2.470221 1_555
Na7 O22 2.348929 1_555
Na7 O20 2.348929 1_555
Na7 O18 2.422465 1_555
Na7 O27 2.422465 1_555
Na7 O29 2.470212 1_555
Na7 O26 2.470212 1_555
Na8 O16 2.348929 1_555
Na8 O24 2.348929 1_555
Na8 O23 2.422465 1_555
Na8 O11 2.422465 1_555
Na8 O26 2.470212 1_555
Na8 O28 2.470212 1_555
Na9 O21 2.348929 1_555
Na9 O23 2.348929 1_655
Na9 O19 2.422465 1_555
Na9 O1 2.422465 1_655
Na9 O0 2.470216 1_555
Na9 O3 2.470221 1_555
Na10 O17 2.348929 1_555
Na10 O25 2.348929 1_556
Na10 O22 2.422465 1_556
Na10 O10 2.422465 1_555
Na10 O0 2.470216 1_555
Na10 O2 2.470221 1_555
Na11 O27 2.348929 1_556
Na11 O30 2.348929 1_655
Na11 O24 2.422465 1_655
Na11 O6 2.422465 1_556
Na11 O3 2.470212 1_555
Na11 O2 2.470212 1_555
Ni0 O10 2.108474 1_554
Ni0 O30 2.108474 1_554
Ni0 O1 2.108474 1_555
Ni0 O21 2.108474 1_455
Ni0 O6 2.108474 1_455
Ni0 O25 2.108474 1_555
Ni1 O24 2.108474 1_554
Ni1 O20 2.108474 1_455
Ni1 O7 2.108474 1_545
Ni1 O4 2.108474 1_545
Ni1 O27 2.108474 1_455
Ni1 O11 2.108474 1_554
Ni2 O13 2.108474 1_554
Ni2 O17 2.108474 1_554
Ni2 O18 2.108474 1_555
Ni2 O14 2.108474 1_545
Ni2 O22 2.108474 1_555
Ni2 O9 2.108474 1_545
Ni3 O8 2.108474 1_545
Ni3 O19 2.108474 1_455
Ni3 O16 2.108474 1_555
Ni3 O23 2.108474 1_555
Ni3 O15 2.108474 1_455
Ni3 O12 2.108474 1_545
C0 O7 1.297273 1_555
C0 O9 1.297280 1_555
C0 O12 1.297283 1_555
C1 O13 1.297279 1_565
C1 O6 1.297279 1_556
C1 O8 1.297279 1_655
C2 O27 1.297273 1_555
C2 O15 1.297280 1_555
C2 O21 1.297283 1_555
C3 O11 1.297273 1_555
C3 O30 1.297280 1_555
C3 O17 1.297283 1_555
C4 O20 1.297273 1_565
C4 O1 1.297280 1_655
C4 O14 1.297283 1_555
C5 O4 1.297273 1_556
C5 O16 1.297280 1_565
C5 O10 1.297283 1_555
C6 O18 1.297279 1_555
C6 O25 1.297279 1_555
C6 O23 1.297279 1_555
C7 O24 1.297273 1_655
C7 O22 1.297280 1_556
C7 O19 1.297283 1_555
O0 S0 1.496706 1_555
O2 S0 1.496714 1_555
O3 S0 1.496714 1_555
O5 S0 1.496714 1_555
O26 S1 1.496714 1_555
O28 S1 1.496714 1_555
O29 S1 1.496714 1_555
O31 S1 1.496706 1_555
