# generated using pymatgen
data_Li4CrNi3(PO4)4
_symmetry_space_group_name_H-M   'P 1'
_cell_length_a   6.03890100
_cell_length_b   4.74221200
_cell_length_c   10.16160060
_cell_angle_alpha   89.50736731
_cell_angle_beta   90.00000000
_cell_angle_gamma   90.00000000
_symmetry_Int_Tables_number   1
_chemical_formula_structural   Li4CrNi3(PO4)4
_chemical_formula_sum   'Li4 Cr1 Ni3 P4 O16'
_cell_volume   290.99460894
_cell_formula_units_Z   1
loop_
 _symmetry_equiv_pos_site_id
 _symmetry_equiv_pos_as_xyz
  1  'x, y, z'
loop_
 _atom_site_type_symbol
 _atom_site_label
 _atom_site_symmetry_multiplicity
 _atom_site_fract_x
 _atom_site_fract_y
 _atom_site_fract_z
 _atom_site_occupancy
  Li  Li0  1  0.24774100  0.00604600  0.00216300  1
  Li  Li1  1  0.75225900  0.00604600  0.00216300  1
  Li  Li2  1  0.75383900  0.49833800  0.49776100  1
  Li  Li3  1  0.24616100  0.49833800  0.49776100  1
  Cr  Cr0  1  0.50000000  0.95840200  0.71894800  1
  Ni  Ni0  1  0.00000000  0.01868400  0.27589400  1
  Ni  Ni1  1  0.00000000  0.48065200  0.77696600  1
  Ni  Ni2  1  0.50000000  0.52014000  0.22348300  1
  P  P0  1  0.50000000  0.08208500  0.40492300  1
  P  P1  1  0.50000000  0.41767600  0.90641300  1
  P  P2  1  0.00000000  0.58533200  0.09412500  1
  P  P3  1  0.00000000  0.91568100  0.59279000  1
  O  O0  1  0.50000000  0.19789300  0.54771300  1
  O  O1  1  0.29481000  0.22220100  0.33479300  1
  O  O2  1  0.70519000  0.22220100  0.33479300  1
  O  O3  1  0.00000000  0.23944900  0.59852300  1
  O  O4  1  0.00000000  0.26115800  0.10085100  1
  O  O5  1  0.29183300  0.28518400  0.83890900  1
  O  O6  1  0.70816700  0.28518400  0.83890900  1
  O  O7  1  0.50000000  0.30238200  0.05073900  1
  O  O8  1  0.00000000  0.70410500  0.95136900  1
  O  O9  1  0.79582300  0.72434300  0.16596900  1
  O  O10  1  0.20417700  0.72434300  0.16596900  1
  O  O11  1  0.50000000  0.74277600  0.89905300  1
  O  O12  1  0.50000000  0.75786600  0.40091000  1
  O  O13  1  0.80036100  0.77127200  0.66423800  1
  O  O14  1  0.19963900  0.77127200  0.66423800  1
  O  O15  1  0.00000000  0.80095400  0.44963100  1
loop_
_geom_bond_atom_site_label_1
_geom_bond_atom_site_label_2
_geom_bond_distance
_geom_bond_site_symmetry_2
Li0 O5 2.130123 1_554
Li0 O7 2.133322 1_555
Li0 O8 2.137201 1_544
Li0 O10 2.141554 1_545
Li0 O4 2.174488 1_555
Li0 O11 2.235991 1_544
Li1 O6 2.130123 1_554
Li1 O7 2.133322 1_555
Li1 O8 2.137201 1_644
Li1 O9 2.141554 1_545
Li1 O4 2.174488 1_655
Li1 O11 2.235991 1_544
Li2 O15 2.120462 1_655
Li2 O2 2.140276 1_555
Li2 O0 2.150582 1_555
Li2 O13 2.157215 1_555
Li2 O3 2.178034 1_655
Li2 O12 2.193688 1_555
Li3 O15 2.120462 1_555
Li3 O1 2.140276 1_555
Li3 O0 2.150582 1_555
Li3 O14 2.157215 1_555
Li3 O3 2.178034 1_555
Li3 O12 2.193688 1_555
Cr0 O0 2.069673 1_565
Cr0 O11 2.088752 1_555
Cr0 O13 2.096450 1_555
Cr0 O14 2.096450 1_555
Cr0 O5 2.345253 1_565
Cr0 O6 2.345253 1_565
Ni0 O15 2.037537 1_545
Ni0 O4 2.109704 1_555
Ni0 O1 2.114042 1_555
Ni0 O2 2.114042 1_455
Ni0 O9 2.177881 1_445
Ni0 O10 2.177881 1_545
Ni1 O8 2.072659 1_555
Ni1 O5 2.085972 1_555
Ni1 O6 2.085972 1_455
Ni1 O3 2.152199 1_555
Ni1 O13 2.153572 1_455
Ni1 O14 2.153572 1_555
Ni2 O7 2.044216 1_555
Ni2 O9 2.112100 1_555
Ni2 O10 2.112100 1_555
Ni2 O12 2.134588 1_555
Ni2 O1 2.187135 1_555
Ni2 O2 2.187135 1_555
O0 P0 1.555839 1_555
O1 P0 1.573732 1_555
O2 P0 1.573732 1_555
O3 P3 1.536982 1_545
O4 P2 1.538233 1_555
O5 P1 1.566207 1_555
O6 P1 1.566207 1_555
O7 P1 1.560773 1_554
O8 P2 1.551619 1_556
O9 P2 1.579911 1_655
O10 P2 1.579911 1_555
O11 P1 1.542864 1_555
O12 P0 1.538406 1_565
O13 P3 1.562374 1_655
O14 P3 1.562374 1_555
O15 P3 1.557509 1_555
