# generated using pymatgen
data_Li4V7(PO4)6
_symmetry_space_group_name_H-M   'P 1'
_cell_length_a   8.91268503
_cell_length_b   8.91268503
_cell_length_c   6.70780170
_cell_angle_alpha   79.96582669
_cell_angle_beta   79.96582669
_cell_angle_gamma   105.82994495
_symmetry_Int_Tables_number   1
_chemical_formula_structural   Li4V7(PO4)6
_chemical_formula_sum   'Li4 V7 P6 O24'
_cell_volume   490.76647948
_cell_formula_units_Z   1
loop_
 _symmetry_equiv_pos_site_id
 _symmetry_equiv_pos_as_xyz
  1  'x, y, z'
loop_
 _atom_site_type_symbol
 _atom_site_label
 _atom_site_symmetry_multiplicity
 _atom_site_fract_x
 _atom_site_fract_y
 _atom_site_fract_z
 _atom_site_occupancy
  Li  Li0  1  0.99595800  0.99595800  0.49175000  1
  Li  Li1  1  0.63068100  0.63068100  0.58846000  1
  Li  Li2  1  0.32647400  0.54693900  0.49014600  1
  Li  Li3  1  0.54693900  0.32647400  0.49014600  1
  V  V0  1  0.35692000  0.99277000  0.19388500  1
  V  V1  1  0.99277000  0.35692000  0.19388500  1
  V  V2  1  0.99630800  0.99630800  0.99758300  1
  V  V3  1  0.67336500  0.31661000  0.00492300  1
  V  V4  1  0.31661000  0.67336500  0.00492300  1
  V  V5  1  0.63746800  0.99802300  0.81415000  1
  V  V6  1  0.99802300  0.63746800  0.81415000  1
  P  P0  1  0.27963600  0.90760400  0.69804000  1
  P  P1  1  0.90760400  0.27963600  0.69804000  1
  P  P2  1  0.66386900  0.66386900  0.08899400  1
  P  P3  1  0.32516500  0.32516500  0.91671700  1
  P  P4  1  0.71642700  0.07841500  0.30846600  1
  P  P5  1  0.07841500  0.71642700  0.30846600  1
  O  O0  1  0.94993200  0.64717400  0.51118200  1
  O  O1  1  0.64717400  0.94993200  0.51118200  1
  O  O2  1  0.94052300  0.36967300  0.87773500  1
  O  O3  1  0.36967300  0.94052300  0.87773500  1
  O  O4  1  0.79332500  0.79332500  0.13785200  1
  O  O5  1  0.56931200  0.74338600  0.94480300  1
  O  O6  1  0.74338600  0.56931200  0.94480300  1
  O  O7  1  0.89607600  0.09677600  0.75503500  1
  O  O8  1  0.09677600  0.89607600  0.75503500  1
  O  O9  1  0.26893800  0.72713700  0.69961500  1
  O  O10  1  0.72713700  0.26893800  0.69961500  1
  O  O11  1  0.55039700  0.55039700  0.29285000  1
  O  O12  1  0.43989300  0.43989300  0.71201200  1
  O  O13  1  0.71796900  0.25585800  0.31453100  1
  O  O14  1  0.25585800  0.71796900  0.31453100  1
  O  O15  1  0.90092000  0.09942800  0.24069000  1
  O  O16  1  0.09942800  0.90092000  0.24069000  1
  O  O17  1  0.19729000  0.19729000  0.86484400  1
  O  O18  1  0.62343200  0.04556500  0.13217600  1
  O  O19  1  0.04556500  0.62343200  0.13217600  1
  O  O20  1  0.24475700  0.42267600  0.05258100  1
  O  O21  1  0.42267600  0.24475700  0.05258100  1
  O  O22  1  0.36311700  0.03488500  0.49691500  1
  O  O23  1  0.03488500  0.36311700  0.49691500  1
loop_
_geom_bond_atom_site_label_1
_geom_bond_atom_site_label_2
_geom_bond_distance
_geom_bond_site_symmetry_2
Li0 O16 2.187704 1_655
Li0 O15 2.187704 1_565
Li0 O7 2.271654 1_565
Li0 O8 2.271654 1_655
Li1 O12 1.977406 1_555
Li1 O11 2.380210 1_555
Li2 O14 2.064803 1_555
Li2 O12 2.168538 1_555
Li2 O11 2.183409 1_555
Li2 O9 2.408568 1_555
Li3 O13 2.064803 1_555
Li3 O12 2.168538 1_555
Li3 O11 2.183409 1_555
Li3 O10 2.408568 1_555
O0 P5 1.523351 1_655
O0 V6 2.140968 1_555
O1 P4 1.523351 1_565
O1 V5 2.140968 1_555
O2 P1 1.585806 1_555
O2 V1 2.239644 1_556
O2 V6 2.245663 1_555
O2 V3 2.271186 1_556
O3 P0 1.585806 1_555
O3 V0 2.239644 1_556
O3 V5 2.245663 1_555
O3 V4 2.271186 1_556
O4 P2 1.518937 1_555
O4 V2 2.111684 1_554
O5 P2 1.587143 1_556
O5 V4 2.110380 1_556
O5 V5 2.157997 1_555
O6 P2 1.587143 1_556
O6 V3 2.110380 1_556
O6 V6 2.157997 1_555
O7 P1 1.578199 1_555
O7 V2 2.163815 1_545
O7 V5 2.167385 1_545
O8 P0 1.578199 1_555
O8 V2 2.163815 1_455
O8 V6 2.167385 1_455
O9 P0 1.583148 1_555
O9 V4 2.162541 1_556
O9 V6 2.268473 1_455
O10 P1 1.583148 1_555
O10 V3 2.162541 1_556
O10 V5 2.268473 1_545
O11 P2 1.547138 1_555
O12 P3 1.558086 1_555
O13 P4 1.585473 1_555
O13 V3 2.185762 1_555
O13 V1 2.305778 1_555
O14 P5 1.585473 1_555
O14 V4 2.185762 1_555
O14 V0 2.305778 1_555
O15 P4 1.577148 1_555
O15 V1 2.160994 1_555
O15 V2 2.166137 1_544
O16 P5 1.577148 1_555
O16 V0 2.160994 1_555
O16 V2 2.166137 1_454
O17 P3 1.512176 1_555
O17 V2 2.085204 1_445
O18 P4 1.581403 1_555
O18 V5 2.235371 1_544
O18 V0 2.239353 1_545
O18 V3 2.307594 1_555
O19 P5 1.581403 1_555
O19 V6 2.235371 1_454
O19 V1 2.239353 1_455
O19 V4 2.307594 1_555
O20 P3 1.577231 1_554
O20 V4 2.098474 1_555
O20 V1 2.152298 1_455
O21 P3 1.577231 1_554
O21 V3 2.098474 1_555
O21 V0 2.152298 1_545
O22 P0 1.522166 1_545
O22 V0 2.137606 1_545
O23 P1 1.522166 1_455
O23 V1 2.137606 1_455
