# generated using pymatgen
data_Na5CoO4
_symmetry_space_group_name_H-M   'P 1'
_cell_length_a   5.92145500
_cell_length_b   6.07293600
_cell_length_c   7.67072100
_cell_angle_alpha   90.00000000
_cell_angle_beta   90.00000000
_cell_angle_gamma   90.00000000
_symmetry_Int_Tables_number   1
_chemical_formula_structural   Na5CoO4
_chemical_formula_sum   'Na10 Co2 O8'
_cell_volume   275.84386185
_cell_formula_units_Z   2
loop_
 _symmetry_equiv_pos_site_id
 _symmetry_equiv_pos_as_xyz
  1  'x, y, z'
loop_
 _atom_site_type_symbol
 _atom_site_label
 _atom_site_symmetry_multiplicity
 _atom_site_fract_x
 _atom_site_fract_y
 _atom_site_fract_z
 _atom_site_occupancy
  Na  Na0  1  0.93241400  0.06829900  0.31640000  1
  Na  Na1  1  0.93241400  0.06829900  0.68360000  1
  Na  Na2  1  0.74865600  0.61141000  0.69916800  1
  Na  Na3  1  0.74865600  0.61141000  0.30083200  1
  Na  Na4  1  0.74617000  0.32531800  0.00000000  1
  Na  Na5  1  0.43241400  0.93170100  0.81640000  1
  Na  Na6  1  0.43241400  0.93170100  0.18360000  1
  Na  Na7  1  0.24865600  0.38859000  0.80083200  1
  Na  Na8  1  0.24865600  0.38859000  0.19916800  1
  Na  Na9  1  0.24617000  0.67468200  0.50000000  1
  Co  Co0  1  0.99502800  0.82591000  0.00000000  1
  Co  Co1  1  0.49502800  0.17409000  0.50000000  1
  O  O0  1  0.68906400  0.74098300  0.00000000  1
  O  O1  1  0.59686200  0.87150000  0.50000000  1
  O  O2  1  0.60138900  0.26736200  0.27906000  1
  O  O3  1  0.60138900  0.26736200  0.72094000  1
  O  O4  1  0.18906400  0.25901700  0.50000000  1
  O  O5  1  0.09686200  0.12850000  0.00000000  1
  O  O6  1  0.10138900  0.73263800  0.77906000  1
  O  O7  1  0.10138900  0.73263800  0.22094000  1
loop_
_geom_bond_atom_site_label_1
_geom_bond_atom_site_label_2
_geom_bond_distance
_geom_bond_site_symmetry_2
Na0 O2 2.320702 1_555
Na0 O4 2.373714 1_655
Na0 O7 2.385919 1_645
Na0 O5 2.640511 1_655
Na0 O1 2.712896 1_545
Na1 O3 2.320702 1_555
Na1 O4 2.373714 1_655
Na1 O6 2.385919 1_645
Na1 O5 2.640511 1_656
Na1 O1 2.712896 1_545
Na2 O3 2.270210 1_555
Na2 O6 2.297869 1_655
Na2 O1 2.374200 1_555
Na2 O0 2.463478 1_556
Na3 O2 2.270210 1_555
Na3 O7 2.297869 1_655
Na3 O1 2.374200 1_555
Na3 O0 2.463478 1_555
Na4 O3 2.332595 1_554
Na4 O2 2.332595 1_555
Na4 O5 2.396028 1_655
Na4 O0 2.546855 1_555
Na5 O6 2.320702 1_555
Na5 O0 2.373714 1_556
Na5 O3 2.385919 1_565
Na5 O1 2.640511 1_555
Na5 O5 2.712896 1_566
Na6 O7 2.320702 1_555
Na6 O0 2.373714 1_555
Na6 O2 2.385919 1_565
Na6 O1 2.640511 1_555
Na6 O5 2.712896 1_565
Na7 O6 2.270210 1_555
Na7 O3 2.297869 1_555
Na7 O5 2.374200 1_556
Na7 O4 2.463478 1_555
Na8 O7 2.270210 1_555
Na8 O2 2.297869 1_555
Na8 O5 2.374200 1_555
Na8 O4 2.463478 1_555
Na9 O7 2.332595 1_555
Na9 O6 2.332595 1_555
Na9 O1 2.396028 1_555
Na9 O4 2.546855 1_555
Co0 O0 1.883733 1_555
Co0 O6 1.894665 1_654
Co0 O7 1.894665 1_655
Co0 O5 1.934018 1_665
Co1 O4 1.883733 1_555
Co1 O2 1.894665 1_555
Co1 O3 1.894665 1_555
Co1 O1 1.934018 1_545
