# generated using pymatgen
data_LiFeSiO4
_symmetry_space_group_name_H-M   'P 1'
_cell_length_a   10.34426400
_cell_length_b   5.10460500
_cell_length_c   8.42195776
_cell_angle_alpha   53.33519441
_cell_angle_beta   90.00000000
_cell_angle_gamma   90.00000000
_symmetry_Int_Tables_number   1
_chemical_formula_structural   LiFeSiO4
_chemical_formula_sum   'Li4 Fe4 Si4 O16'
_cell_volume   356.71910649
_cell_formula_units_Z   4
loop_
 _symmetry_equiv_pos_site_id
 _symmetry_equiv_pos_as_xyz
  1  'x, y, z'
loop_
 _atom_site_type_symbol
 _atom_site_label
 _atom_site_symmetry_multiplicity
 _atom_site_fract_x
 _atom_site_fract_y
 _atom_site_fract_z
 _atom_site_occupancy
  Li  Li0  1  0.15241400  0.80491600  0.50762200  1
  Li  Li1  1  0.65241400  0.19508400  0.99237800  1
  Li  Li2  1  0.34758600  0.80491600  0.00762200  1
  Li  Li3  1  0.84758600  0.19508400  0.49237800  1
  Fe  Fe0  1  0.16575200  0.30498200  0.00923600  1
  Fe  Fe1  1  0.66575200  0.69501800  0.49076400  1
  Fe  Fe2  1  0.33424800  0.30498200  0.50923600  1
  Fe  Fe3  1  0.83424800  0.69501800  0.99076400  1
  Si  Si0  1  0.40828700  0.04776800  0.26414500  1
  Si  Si1  1  0.90828700  0.95223200  0.23585500  1
  Si  Si2  1  0.09171300  0.04776800  0.76414500  1
  Si  Si3  1  0.59171300  0.95223200  0.73585500  1
  O  O0  1  0.61640500  0.64309600  0.72552700  1
  O  O1  1  0.83567000  0.27753000  0.04357400  1
  O  O2  1  0.83739000  0.86551900  0.43739000  1
  O  O3  1  0.06312300  0.01780200  0.24048700  1
  O  O4  1  0.56312300  0.98219800  0.25951300  1
  O  O5  1  0.33739000  0.13448100  0.06261000  1
  O  O6  1  0.33567000  0.72247000  0.45642600  1
  O  O7  1  0.11640500  0.35690400  0.77447300  1
  O  O8  1  0.88359500  0.64309600  0.22552700  1
  O  O9  1  0.66433000  0.27753000  0.54357400  1
  O  O10  1  0.66261000  0.86551900  0.93739000  1
  O  O11  1  0.43687700  0.01780200  0.74048700  1
  O  O12  1  0.93687700  0.98219800  0.75951300  1
  O  O13  1  0.16261000  0.13448100  0.56261000  1
  O  O14  1  0.16433000  0.72247000  0.95642600  1
  O  O15  1  0.38359500  0.35690400  0.27447300  1
loop_
_geom_bond_atom_site_label_1
_geom_bond_atom_site_label_2
_geom_bond_distance
_geom_bond_site_symmetry_2
Li0 O13 1.996536 1_565
Li0 O6 2.042846 1_555
Li0 O3 2.043487 1_565
Li0 O7 2.069180 1_555
Li1 O10 1.996536 1_545
Li1 O1 2.042846 1_556
Li1 O4 2.043487 1_546
Li1 O0 2.069180 1_555
Li2 O5 1.996536 1_565
Li2 O14 2.042846 1_554
Li2 O11 2.043487 1_564
Li2 O15 2.069180 1_555
Li3 O2 1.996536 1_545
Li3 O9 2.042846 1_555
Li3 O12 2.043487 1_545
Li3 O8 2.069180 1_555
Fe0 O14 1.899393 1_554
Fe0 O7 1.901095 1_554
Fe0 O5 1.909087 1_555
Fe0 O3 1.912964 1_555
Fe1 O9 1.899393 1_555
Fe1 O0 1.901095 1_555
Fe1 O2 1.909087 1_555
Fe1 O4 1.912964 1_555
Fe2 O6 1.899393 1_555
Fe2 O15 1.901095 1_555
Fe2 O13 1.909087 1_555
Fe2 O11 1.912964 1_555
Fe3 O1 1.899393 1_556
Fe3 O8 1.901095 1_556
Fe3 O10 1.909087 1_555
Fe3 O12 1.912964 1_555
O0 Si3 1.651323 1_555
O1 Si1 1.653052 1_545
O2 Si1 1.648459 1_555
O3 Si1 1.641486 1_445
O4 Si0 1.641486 1_565
O5 Si0 1.648459 1_555
O6 Si0 1.653052 1_565
O7 Si2 1.651323 1_555
O8 Si1 1.651323 1_555
O9 Si3 1.653052 1_545
O10 Si3 1.648459 1_555
O11 Si3 1.641486 1_545
O12 Si2 1.641486 1_665
O13 Si2 1.648459 1_555
O14 Si2 1.653052 1_565
O15 Si0 1.651323 1_555
