# generated using pymatgen
data_VSb
_symmetry_space_group_name_H-M   'P 1'
_cell_length_a   4.14005765
_cell_length_b   4.14005765
_cell_length_c   5.59091900
_cell_angle_alpha   90.00000000
_cell_angle_beta   90.00000000
_cell_angle_gamma   119.99999445
_symmetry_Int_Tables_number   1
_chemical_formula_structural   VSb
_chemical_formula_sum   'V2 Sb2'
_cell_volume   82.99016618
_cell_formula_units_Z   2
loop_
 _symmetry_equiv_pos_site_id
 _symmetry_equiv_pos_as_xyz
  1  'x, y, z'
loop_
 _atom_site_type_symbol
 _atom_site_label
 _atom_site_symmetry_multiplicity
 _atom_site_fract_x
 _atom_site_fract_y
 _atom_site_fract_z
 _atom_site_occupancy
  V  V0  1  0.00000000  0.00000000  0.00000000  1
  V  V1  1  0.00000000  0.00000000  0.50000000  1
  Sb  Sb0  1  0.33333300  0.66666700  0.75000000  1
  Sb  Sb1  1  0.66666700  0.33333300  0.25000000  1
loop_
_geom_bond_atom_site_label_1
_geom_bond_atom_site_label_2
_geom_bond_distance
_geom_bond_site_symmetry_2
Sb0 V0 2.768934 1_566
Sb0 V1 2.768934 1_565
Sb0 V0 2.768937 1_666
Sb0 V1 2.768937 1_665
Sb0 V0 2.768937 1_556
Sb0 V1 2.768937 1_555
Sb1 V1 2.768934 1_655
Sb1 V0 2.768934 1_655
Sb1 V0 2.768937 1_555
Sb1 V1 2.768937 1_555
Sb1 V0 2.768937 1_665
Sb1 V1 2.768937 1_665
