# generated using pymatgen
data_LiP4WO12
_symmetry_space_group_name_H-M   'P 1'
_cell_length_a   13.06249900
_cell_length_b   7.47960800
_cell_length_c   11.76814326
_cell_angle_alpha   53.55082186
_cell_angle_beta   90.00000000
_cell_angle_gamma   90.00000000
_symmetry_Int_Tables_number   1
_chemical_formula_structural   LiP4WO12
_chemical_formula_sum   'Li4 P16 W4 O48'
_cell_volume   924.86120540
_cell_formula_units_Z   4
loop_
 _symmetry_equiv_pos_site_id
 _symmetry_equiv_pos_as_xyz
  1  'x, y, z'
loop_
 _atom_site_type_symbol
 _atom_site_label
 _atom_site_symmetry_multiplicity
 _atom_site_fract_x
 _atom_site_fract_y
 _atom_site_fract_z
 _atom_site_occupancy
  Li  Li0  1  0.23418700  0.91305900  0.06385400  1
  Li  Li1  1  0.73418700  0.08694100  0.43614600  1
  Li  Li2  1  0.26581300  0.91305900  0.56385400  1
  Li  Li3  1  0.76581300  0.08694100  0.93614600  1
  P  P0  1  0.37603500  0.42782300  0.19080800  1
  P  P1  1  0.59334000  0.49201700  0.19421600  1
  P  P2  1  0.11764700  0.15095600  0.26768700  1
  P  P3  1  0.90658200  0.05422500  0.22754800  1
  P  P4  1  0.40658200  0.94577500  0.27245200  1
  P  P5  1  0.61764700  0.84904400  0.23231300  1
  P  P6  1  0.09334000  0.50798300  0.30578400  1
  P  P7  1  0.87603500  0.57217700  0.30919200  1
  P  P8  1  0.12396500  0.42782300  0.69080800  1
  P  P9  1  0.90666000  0.49201700  0.69421600  1
  P  P10  1  0.38235300  0.15095600  0.76768700  1
  P  P11  1  0.59341800  0.05422500  0.72754800  1
  P  P12  1  0.09341800  0.94577500  0.77245200  1
  P  P13  1  0.88235300  0.84904400  0.73231300  1
  P  P14  1  0.40666000  0.50798300  0.80578400  1
  P  P15  1  0.62396500  0.57217700  0.80919200  1
  W  W0  1  0.80291700  0.46836100  0.06343500  1
  W  W1  1  0.30291700  0.53163900  0.43656500  1
  W  W2  1  0.69708300  0.46836100  0.56343500  1
  W  W3  1  0.19708300  0.53163900  0.93656500  1
  O  O0  1  0.66892300  0.62456100  0.07317400  1
  O  O1  1  0.91618900  0.23710100  0.06964400  1
  O  O2  1  0.15429000  0.21684000  0.12548100  1
  O  O3  1  0.29122200  0.55537100  0.08461100  1
  O  O4  1  0.48432700  0.52890400  0.11495000  1
  O  O5  1  0.68734600  0.97332600  0.10922300  1
  O  O6  1  0.87252900  0.58220400  0.17809200  1
  O  O7  1  0.38039400  0.17951500  0.23648100  1
  O  O8  1  0.32262400  0.87242800  0.21755800  1
  O  O9  1  0.51260500  0.99361200  0.19147600  1
  O  O10  1  0.07367200  0.37648800  0.23863900  1
  O  O11  1  0.11500800  0.74625400  0.19355400  1
  O  O12  1  0.61500800  0.25374600  0.30644600  1
  O  O13  1  0.57367200  0.62351200  0.26136100  1
  O  O14  1  0.01260500  0.00638800  0.30852400  1
  O  O15  1  0.82262400  0.12757200  0.28244200  1
  O  O16  1  0.88039400  0.82048500  0.26351900  1
  O  O17  1  0.37252900  0.41779600  0.32190800  1
  O  O18  1  0.18734600  0.02667400  0.39077700  1
  O  O19  1  0.98432700  0.47109600  0.38505000  1
  O  O20  1  0.79122200  0.44462900  0.41538900  1
  O  O21  1  0.65429000  0.78316000  0.37451900  1
  O  O22  1  0.41618900  0.76289900  0.43035600  1
  O  O23  1  0.16892300  0.37543900  0.42682600  1
  O  O24  1  0.83107700  0.62456100  0.57317400  1
  O  O25  1  0.58381100  0.23710100  0.56964400  1
  O  O26  1  0.34571000  0.21684000  0.62548100  1
  O  O27  1  0.20877800  0.55537100  0.58461100  1
  O  O28  1  0.01567300  0.52890400  0.61495000  1
  O  O29  1  0.81265400  0.97332600  0.60922300  1
  O  O30  1  0.62747100  0.58220400  0.67809200  1
  O  O31  1  0.11960600  0.17951500  0.73648100  1
  O  O32  1  0.17737600  0.87242800  0.71755800  1
  O  O33  1  0.98739500  0.99361200  0.69147600  1
  O  O34  1  0.42632800  0.37648800  0.73863900  1
  O  O35  1  0.38499200  0.74625400  0.69355400  1
  O  O36  1  0.88499200  0.25374600  0.80644600  1
  O  O37  1  0.92632800  0.62351200  0.76136100  1
  O  O38  1  0.48739500  0.00638800  0.80852400  1
  O  O39  1  0.67737600  0.12757200  0.78244200  1
  O  O40  1  0.61960600  0.82048500  0.76351900  1
  O  O41  1  0.12747100  0.41779600  0.82190800  1
  O  O42  1  0.31265400  0.02667400  0.89077700  1
  O  O43  1  0.51567300  0.47109600  0.88505000  1
  O  O44  1  0.70877800  0.44462900  0.91538900  1
  O  O45  1  0.84571000  0.78316000  0.87451900  1
  O  O46  1  0.08381100  0.76289900  0.93035600  1
  O  O47  1  0.33107700  0.37543900  0.92682600  1
loop_
_geom_bond_atom_site_label_1
_geom_bond_atom_site_label_2
_geom_bond_distance
_geom_bond_site_symmetry_2
Li0 O42 1.965864 1_564
Li0 O8 2.011340 1_555
Li0 O11 2.011739 1_555
Li1 O29 1.965864 1_545
Li1 O15 2.011340 1_555
Li1 O12 2.011739 1_555
Li2 O18 1.965864 1_565
Li2 O32 2.011340 1_555
Li2 O35 2.011739 1_555
Li3 O5 1.965864 1_546
Li3 O39 2.011340 1_555
Li3 O36 2.011739 1_555
O0 P1 1.519431 1_555
O0 W0 2.144933 1_555
O1 P3 1.523023 1_555
O1 W0 2.244193 1_555
O2 P2 1.514150 1_555
O2 W3 2.139889 1_554
O3 P0 1.510858 1_555
O3 W3 2.224065 1_554
O4 P0 1.602361 1_555
O4 P1 1.633457 1_555
O5 P5 1.480310 1_555
O6 P7 1.500160 1_555
O6 W0 2.176622 1_555
O7 P4 1.572687 1_545
O7 P0 1.598551 1_555
O8 P4 1.530407 1_555
O8 W1 2.323799 1_555
O9 P4 1.596556 1_555
O9 P5 1.632610 1_555
O10 P6 1.606594 1_555
O10 P2 1.614693 1_555
O11 P6 1.484517 1_555
O12 P1 1.484517 1_555
O13 P1 1.606594 1_555
O13 P5 1.614693 1_555
O14 P3 1.596556 1_455
O14 P2 1.632610 1_555
O15 P3 1.530407 1_555
O15 W0 2.323799 1_555
O16 P3 1.572687 1_565
O16 P7 1.598551 1_555
O17 P0 1.500160 1_555
O17 W1 2.176622 1_555
O18 P2 1.480310 1_555
O19 P7 1.602361 1_555
O19 P6 1.633457 1_655
O20 P7 1.510858 1_555
O20 W2 2.224065 1_555
O21 P5 1.514150 1_555
O21 W2 2.139889 1_555
O22 P4 1.523023 1_555
O22 W1 2.244193 1_555
O23 P6 1.519431 1_555
O23 W1 2.144933 1_555
O24 P9 1.519431 1_555
O24 W2 2.144933 1_555
O25 P11 1.523023 1_555
O25 W2 2.244193 1_555
O26 P10 1.514150 1_555
O26 W1 2.139889 1_555
O27 P8 1.510858 1_555
O27 W1 2.224065 1_555
O28 P8 1.602361 1_555
O28 P9 1.633457 1_455
O29 P13 1.480310 1_555
O30 P15 1.500160 1_555
O30 W2 2.176622 1_555
O31 P12 1.572687 1_545
O31 P8 1.598551 1_555
O32 P12 1.530407 1_555
O32 W3 2.323799 1_555
O33 P12 1.596556 1_655
O33 P13 1.632610 1_555
O34 P14 1.606594 1_555
O34 P10 1.614693 1_555
O35 P14 1.484517 1_555
O36 P9 1.484517 1_555
O37 P9 1.606594 1_555
O37 P13 1.614693 1_555
O38 P11 1.596556 1_555
O38 P10 1.632610 1_555
O39 P11 1.530407 1_555
O39 W2 2.323799 1_555
O40 P11 1.572687 1_565
O40 P15 1.598551 1_555
O41 P8 1.500160 1_555
O41 W3 2.176622 1_555
O42 P10 1.480310 1_555
O43 P15 1.602361 1_555
O43 P14 1.633457 1_555
O44 P15 1.510858 1_555
O44 W0 2.224065 1_556
O45 P13 1.514150 1_555
O45 W0 2.139889 1_556
O46 P12 1.523023 1_555
O46 W3 2.244193 1_555
O47 P14 1.519431 1_555
O47 W3 2.144933 1_555
