# generated using pymatgen
data_LiMn2(PO4)2
_symmetry_space_group_name_H-M   'P 1'
_cell_length_a   5.19433900
_cell_length_b   8.66705400
_cell_length_c   17.03697891
_cell_angle_alpha   80.39776804
_cell_angle_beta   90.00000000
_cell_angle_gamma   90.00000000
_symmetry_Int_Tables_number   1
_chemical_formula_structural   LiMn2(PO4)2
_chemical_formula_sum   'Li4 Mn8 P8 O32'
_cell_volume   756.25226032
_cell_formula_units_Z   4
loop_
 _symmetry_equiv_pos_site_id
 _symmetry_equiv_pos_as_xyz
  1  'x, y, z'
loop_
 _atom_site_type_symbol
 _atom_site_label
 _atom_site_symmetry_multiplicity
 _atom_site_fract_x
 _atom_site_fract_y
 _atom_site_fract_z
 _atom_site_occupancy
  Li  Li0  1  0.32666000  0.00185100  0.25130300  1
  Li  Li1  1  0.67334000  0.00185100  0.75130300  1
  Li  Li2  1  0.83486800  0.61030600  0.49097700  1
  Li  Li3  1  0.16513200  0.61030600  0.99097700  1
  Mn  Mn0  1  0.32303000  0.37309400  0.13138100  1
  Mn  Mn1  1  0.67697000  0.37309400  0.63138100  1
  Mn  Mn2  1  0.19607400  0.46653800  0.36121000  1
  Mn  Mn3  1  0.80392600  0.46653800  0.86121000  1
  Mn  Mn4  1  0.68306600  0.88120900  0.11498300  1
  Mn  Mn5  1  0.31693400  0.88120900  0.61498300  1
  Mn  Mn6  1  0.83228400  0.97606100  0.37432300  1
  Mn  Mn7  1  0.16771600  0.97606100  0.87432300  1
  P  P0  1  0.82102100  0.17524500  0.18946900  1
  P  P1  1  0.17897900  0.17524500  0.68946900  1
  P  P2  1  0.68729700  0.29763100  0.43724700  1
  P  P3  1  0.31270300  0.29763100  0.93724700  1
  P  P4  1  0.17873500  0.69314800  0.18014100  1
  P  P5  1  0.82126500  0.69314800  0.68014100  1
  P  P6  1  0.32550800  0.78690700  0.42924400  1
  P  P7  1  0.67449200  0.78690700  0.92924400  1
  O  O0  1  0.69924400  0.06594100  0.26129300  1
  O  O1  1  0.76730200  0.09490000  0.11430400  1
  O  O2  1  0.11506200  0.19171700  0.20177900  1
  O  O3  1  0.77052700  0.12545600  0.45164000  1
  O  O4  1  0.30075600  0.06594100  0.76129300  1
  O  O5  1  0.23269800  0.09490000  0.61430400  1
  O  O6  1  0.27331700  0.37893900  0.01020800  1
  O  O7  1  0.39219200  0.29647200  0.41489900  1
  O  O8  1  0.69132900  0.33605200  0.17166100  1
  O  O9  1  0.88493800  0.19171700  0.70177900  1
  O  O10  1  0.22947300  0.12545600  0.95164000  1
  O  O11  1  0.83337100  0.39354300  0.36551600  1
  O  O12  1  0.72668300  0.37893900  0.51020800  1
  O  O13  1  0.60780800  0.29647200  0.91489900  1
  O  O14  1  0.30867100  0.33605200  0.67166100  1
  O  O15  1  0.25062500  0.57000300  0.25391800  1
  O  O16  1  0.22797700  0.61366000  0.10669600  1
  O  O17  1  0.16662900  0.39354300  0.86551600  1
  O  O18  1  0.89288800  0.73853600  0.18943200  1
  O  O19  1  0.19453500  0.62261100  0.43419700  1
  O  O20  1  0.74937500  0.57000300  0.75391800  1
  O  O21  1  0.77202300  0.61366000  0.60669600  1
  O  O22  1  0.75122300  0.83998000  0.00792900  1
  O  O23  1  0.62026600  0.77346000  0.41965900  1
  O  O24  1  0.34266800  0.84422100  0.17555800  1
  O  O25  1  0.10711200  0.73853600  0.68943200  1
  O  O26  1  0.80546500  0.62261100  0.93419700  1
  O  O27  1  0.20998300  0.90342100  0.35870400  1
  O  O28  1  0.24877700  0.83998000  0.50792900  1
  O  O29  1  0.37973400  0.77346000  0.91965900  1
  O  O30  1  0.65733200  0.84422100  0.67555800  1
  O  O31  1  0.79001700  0.90342100  0.85870400  1
loop_
_geom_bond_atom_site_label_1
_geom_bond_atom_site_label_2
_geom_bond_distance
_geom_bond_site_symmetry_2
Li0 O27 1.980516 1_545
Li0 O0 2.028435 1_555
Li0 O24 2.031466 1_545
Li0 O2 2.040752 1_555
Li1 O31 1.980516 1_545
Li1 O4 2.028435 1_555
Li1 O30 2.031466 1_545
Li1 O9 2.040752 1_555
Li2 O21 2.003334 1_555
Li2 O23 2.036001 1_555
Li2 O12 2.055494 1_555
Li2 O19 2.098340 1_655
Li3 O16 2.003334 1_556
Li3 O29 2.036001 1_555
Li3 O6 2.055494 1_556
Li3 O26 2.098340 1_455
Mn0 O8 2.039692 1_555
Mn0 O6 2.072726 1_555
Mn0 O2 2.108942 1_555
Mn0 O16 2.115498 1_555
Mn1 O14 2.039692 1_555
Mn1 O12 2.072726 1_555
Mn1 O9 2.108942 1_555
Mn1 O21 2.115498 1_555
Mn2 O7 1.896636 1_555
Mn2 O15 1.918048 1_555
Mn2 O19 1.984246 1_555
Mn2 O11 1.984845 1_455
Mn3 O13 1.896636 1_555
Mn3 O20 1.918048 1_555
Mn3 O26 1.984246 1_555
Mn3 O17 1.984845 1_655
Mn4 O1 1.901211 1_565
Mn4 O22 1.948584 1_555
Mn4 O18 1.949993 1_555
Mn4 O24 2.045429 1_555
Mn5 O5 1.901211 1_565
Mn5 O28 1.948584 1_555
Mn5 O25 1.949993 1_555
Mn5 O30 2.045429 1_555
Mn6 O3 2.020792 1_565
Mn6 O0 2.071766 1_565
Mn6 O27 2.090957 1_655
Mn6 O23 2.107209 1_555
Mn7 O10 2.020792 1_565
Mn7 O4 2.071766 1_565
Mn7 O31 2.090957 1_455
Mn7 O29 2.107209 1_555
O0 P0 1.551837 1_555
O1 P0 1.581191 1_555
O2 P0 1.551499 1_455
O3 P2 1.533548 1_555
O4 P1 1.551837 1_555
O5 P1 1.581191 1_555
O6 P3 1.541373 1_554
O7 P2 1.579889 1_555
O8 P0 1.532079 1_555
O9 P1 1.551499 1_655
O10 P3 1.533548 1_555
O11 P2 1.556051 1_555
O12 P2 1.541373 1_555
O13 P3 1.579889 1_555
O14 P1 1.532079 1_555
O15 P4 1.552713 1_555
O16 P4 1.547041 1_555
O17 P3 1.556051 1_555
O18 P4 1.550860 1_655
O19 P6 1.567653 1_555
O20 P5 1.552713 1_555
O21 P5 1.547041 1_555
O22 P7 1.540535 1_554
O23 P6 1.546216 1_555
O24 P4 1.552900 1_555
O25 P5 1.550860 1_455
O26 P7 1.567653 1_555
O27 P6 1.555401 1_555
O28 P6 1.540535 1_555
O29 P7 1.546216 1_555
O30 P5 1.552900 1_555
O31 P7 1.555401 1_555
