# generated using pymatgen
data_Li5Cu3F14
_symmetry_space_group_name_H-M   'P 1'
_cell_length_a   6.96576600
_cell_length_b   6.96576600
_cell_length_c   9.63802600
_cell_angle_alpha   90.00000000
_cell_angle_beta   90.00000000
_cell_angle_gamma   90.00000000
_symmetry_Int_Tables_number   1
_chemical_formula_structural   Li5Cu3F14
_chemical_formula_sum   'Li10 Cu6 F28'
_cell_volume   467.65529490
_cell_formula_units_Z   2
loop_
 _symmetry_equiv_pos_site_id
 _symmetry_equiv_pos_as_xyz
  1  'x, y, z'
loop_
 _atom_site_type_symbol
 _atom_site_label
 _atom_site_symmetry_multiplicity
 _atom_site_fract_x
 _atom_site_fract_y
 _atom_site_fract_z
 _atom_site_occupancy
  Li  Li0  1  0.00000000  0.00000000  0.50000000  1
  Li  Li1  1  0.22971600  0.27028400  0.25000000  1
  Li  Li2  1  0.22971600  0.27028400  0.75000000  1
  Li  Li3  1  0.27028400  0.77028400  0.75000000  1
  Li  Li4  1  0.27028400  0.77028400  0.25000000  1
  Li  Li5  1  0.50000000  0.50000000  0.00000000  1
  Li  Li6  1  0.72971600  0.22971600  0.75000000  1
  Li  Li7  1  0.72971600  0.22971600  0.25000000  1
  Li  Li8  1  0.77028400  0.72971600  0.75000000  1
  Li  Li9  1  0.77028400  0.72971600  0.25000000  1
  Cu  Cu0  1  0.00000000  0.00000000  0.00000000  1
  Cu  Cu1  1  0.00000000  0.50000000  0.00000000  1
  Cu  Cu2  1  0.00000000  0.50000000  0.50000000  1
  Cu  Cu3  1  0.50000000  0.50000000  0.50000000  1
  Cu  Cu4  1  0.50000000  0.00000000  0.00000000  1
  Cu  Cu5  1  0.50000000  0.00000000  0.50000000  1
  F  F0  1  0.00000000  0.00000000  0.19408300  1
  F  F1  1  0.00000000  0.00000000  0.80591700  1
  F  F2  1  0.03609600  0.69920700  0.36312200  1
  F  F3  1  0.03609600  0.69920700  0.63687800  1
  F  F4  1  0.10402200  0.24802000  0.00000000  1
  F  F5  1  0.19920700  0.53609600  0.13687800  1
  F  F6  1  0.19920700  0.53609600  0.86312200  1
  F  F7  1  0.24802000  0.89597800  0.00000000  1
  F  F8  1  0.25198000  0.39597800  0.50000000  1
  F  F9  1  0.30079300  0.03609600  0.36312200  1
  F  F10  1  0.30079300  0.03609600  0.63687800  1
  F  F11  1  0.39597800  0.74802000  0.50000000  1
  F  F12  1  0.46390400  0.19920700  0.13687800  1
  F  F13  1  0.46390400  0.19920700  0.86312200  1
  F  F14  1  0.50000000  0.50000000  0.30591700  1
  F  F15  1  0.50000000  0.50000000  0.69408300  1
  F  F16  1  0.53609600  0.80079300  0.13687800  1
  F  F17  1  0.53609600  0.80079300  0.86312200  1
  F  F18  1  0.60402200  0.25198000  0.50000000  1
  F  F19  1  0.69920700  0.96390400  0.36312200  1
  F  F20  1  0.69920700  0.96390400  0.63687800  1
  F  F21  1  0.74802000  0.60402200  0.50000000  1
  F  F22  1  0.75198000  0.10402200  0.00000000  1
  F  F23  1  0.80079300  0.46390400  0.13687800  1
  F  F24  1  0.80079300  0.46390400  0.86312200  1
  F  F25  1  0.89597800  0.75198000  0.00000000  1
  F  F26  1  0.96390400  0.30079300  0.36312200  1
  F  F27  1  0.96390400  0.30079300  0.63687800  1
loop_
_geom_bond_atom_site_label_1
_geom_bond_atom_site_label_2
_geom_bond_distance
_geom_bond_site_symmetry_2
Cu0 F0 1.870577 1_555
Cu0 F1 1.870577 1_554
Cu0 F22 1.873448 1_455
Cu0 F4 1.873448 1_555
Cu0 F25 1.873448 1_445
Cu0 F7 1.873448 1_545
Cu1 F4 1.898916 1_555
Cu1 F25 1.898916 1_455
Cu1 F5 1.931091 1_555
Cu1 F23 1.931091 1_455
Cu1 F6 1.931091 1_554
Cu1 F24 1.931091 1_454
Cu2 F21 1.898916 1_455
Cu2 F8 1.898916 1_555
Cu2 F3 1.931091 1_555
Cu2 F27 1.931091 1_455
Cu2 F2 1.931091 1_555
Cu2 F26 1.931091 1_455
Cu3 F15 1.870577 1_555
Cu3 F14 1.870577 1_555
Cu3 F18 1.873448 1_555
Cu3 F21 1.873448 1_555
Cu3 F8 1.873448 1_555
Cu3 F11 1.873448 1_555
Cu4 F22 1.898916 1_555
Cu4 F7 1.898916 1_545
Cu4 F12 1.931091 1_555
Cu4 F16 1.931091 1_545
Cu4 F13 1.931091 1_554
Cu4 F17 1.931091 1_544
Cu5 F11 1.898916 1_545
Cu5 F18 1.898916 1_555
Cu5 F10 1.931091 1_555
Cu5 F20 1.931091 1_545
Cu5 F9 1.931091 1_555
Cu5 F19 1.931091 1_545
F2 Li4 2.023601 1_555
F2 Li9 2.159218 1_455
F2 Li0 2.488712 1_565
F3 Li3 2.023601 1_555
F3 Li8 2.159218 1_455
F3 Li0 2.488712 1_565
F5 Li4 2.023601 1_555
F5 Li1 2.159218 1_555
F5 Li5 2.488712 1_555
F6 Li3 2.023601 1_555
F6 Li2 2.159218 1_555
F6 Li5 2.488712 1_556
F9 Li1 2.023601 1_555
F9 Li4 2.159218 1_545
F9 Li0 2.488712 1_555
F10 Li2 2.023601 1_555
F10 Li3 2.159218 1_545
F10 Li0 2.488712 1_555
F12 Li1 2.023601 1_555
F12 Li7 2.159218 1_555
F12 Li5 2.488712 1_555
F13 Li2 2.023601 1_555
F13 Li6 2.159218 1_555
F13 Li5 2.488712 1_556
F16 Li9 2.023601 1_555
F16 Li4 2.159218 1_555
F16 Li5 2.488712 1_555
F17 Li8 2.023601 1_555
F17 Li3 2.159218 1_555
F17 Li5 2.488712 1_556
F19 Li9 2.023601 1_555
F19 Li7 2.159218 1_565
F19 Li0 2.488712 1_665
F20 Li8 2.023601 1_555
F20 Li6 2.159218 1_565
F20 Li0 2.488712 1_665
F23 Li7 2.023601 1_555
F23 Li9 2.159218 1_555
F23 Li5 2.488712 1_555
F24 Li6 2.023601 1_555
F24 Li8 2.159218 1_555
F24 Li5 2.488712 1_556
F26 Li7 2.023601 1_555
F26 Li1 2.159218 1_655
F26 Li0 2.488712 1_655
F27 Li6 2.023601 1_555
F27 Li2 2.159218 1_655
F27 Li0 2.488712 1_655
