# generated using pymatgen
data_Li4Co2Ni3O10
_symmetry_space_group_name_H-M   'P 1'
_cell_length_a   20.66049343
_cell_length_b   2.86858300
_cell_length_c   5.80807122
_cell_angle_alpha   90.00000000
_cell_angle_beta   82.79090068
_cell_angle_gamma   90.00000000
_symmetry_Int_Tables_number   1
_chemical_formula_structural   Li4Co2Ni3O10
_chemical_formula_sum   'Li8 Co4 Ni6 O20'
_cell_volume   341.50196699
_cell_formula_units_Z   2
loop_
 _symmetry_equiv_pos_site_id
 _symmetry_equiv_pos_as_xyz
  1  'x, y, z'
loop_
 _atom_site_type_symbol
 _atom_site_label
 _atom_site_symmetry_multiplicity
 _atom_site_fract_x
 _atom_site_fract_y
 _atom_site_fract_z
 _atom_site_occupancy
  Li  Li0  1  0.20000000  0.00000000  0.90000000  1
  Li  Li1  1  0.39352100  0.00000000  0.28716000  1
  Li  Li2  1  0.49742100  0.50000000  0.49848400  1
  Li  Li3  1  0.59938300  0.00000000  0.69955200  1
  Li  Li4  1  0.70000000  0.50000000  0.90000000  1
  Li  Li5  1  0.80061700  0.00000000  0.10044800  1
  Li  Li6  1  0.90257900  0.50000000  0.30151600  1
  Li  Li7  1  0.00647900  0.00000000  0.51284000  1
  Co  Co0  1  0.10187800  0.50000000  0.20127300  1
  Co  Co1  1  0.20000000  0.00000000  0.40000000  1
  Co  Co2  1  0.29812200  0.50000000  0.59872700  1
  Co  Co3  1  0.70000000  0.50000000  0.40000000  1
  Ni  Ni0  1  0.39778900  0.00000000  0.80148000  1
  Ni  Ni1  1  0.49978800  0.50000000  0.99708300  1
  Ni  Ni2  1  0.59948600  0.00000000  0.20043500  1
  Ni  Ni3  1  0.80051400  0.00000000  0.59956500  1
  Ni  Ni4  1  0.90021200  0.50000000  0.80291700  1
  Ni  Ni5  1  0.00221100  0.00000000  0.99852000  1
  O  O0  1  0.00887100  0.50000000  0.23473200  1
  O  O1  1  0.10610600  0.00000000  0.41604800  1
  O  O2  1  0.10127300  0.00000000  0.98947600  1
  O  O3  1  0.19327000  0.50000000  0.18075700  1
  O  O4  1  0.20673000  0.50000000  0.61924300  1
  O  O5  1  0.29389400  0.00000000  0.38395200  1
  O  O6  1  0.29872700  0.00000000  0.81052400  1
  O  O7  1  0.40899200  0.50000000  0.02857700  1
  O  O8  1  0.39112900  0.50000000  0.56526800  1
  O  O9  1  0.49920300  0.00000000  0.23176900  1
  O  O10  1  0.50000900  0.00000000  0.76311700  1
  O  O11  1  0.60697400  0.50000000  0.43012200  1
  O  O12  1  0.59326800  0.50000000  0.96822300  1
  O  O13  1  0.70017200  0.00000000  0.17298100  1
  O  O14  1  0.69982800  0.00000000  0.62701900  1
  O  O15  1  0.79302600  0.50000000  0.36987800  1
  O  O16  1  0.80673200  0.50000000  0.83177700  1
  O  O17  1  0.89999100  0.00000000  0.03688300  1
  O  O18  1  0.90079700  0.00000000  0.56823100  1
  O  O19  1  0.99100800  0.50000000  0.77142300  1
loop_
_geom_bond_atom_site_label_1
_geom_bond_atom_site_label_2
_geom_bond_distance
_geom_bond_site_symmetry_2
Li0 O6 2.040735 1_555
Li0 O2 2.040735 1_555
Li0 O4 2.163021 1_555
Li0 O3 2.163021 1_556
Li0 O3 2.163021 1_546
Li0 O4 2.163021 1_545
Li1 O5 2.064556 1_555
Li1 O7 2.072314 1_555
Li1 O7 2.072314 1_545
Li1 O8 2.156084 1_545
Li1 O8 2.156084 1_555
Li1 O9 2.166707 1_555
Li2 O10 2.107859 1_555
Li2 O10 2.107859 1_565
Li2 O9 2.108066 1_565
Li2 O9 2.108066 1_555
Li2 O8 2.181577 1_555
Li2 O11 2.248368 1_555
Li3 O10 2.039937 1_555
Li3 O14 2.065112 1_555
Li3 O12 2.111566 1_555
Li3 O12 2.111566 1_545
Li3 O11 2.114002 1_555
Li3 O11 2.114002 1_545
Li4 O14 2.138319 1_565
Li4 O14 2.138319 1_555
Li4 O13 2.138319 1_556
Li4 O13 2.138319 1_566
Li4 O12 2.190966 1_555
Li4 O16 2.190966 1_555
Li5 O17 2.039937 1_555
Li5 O13 2.065112 1_555
Li5 O16 2.111566 1_544
Li5 O16 2.111566 1_554
Li5 O15 2.114002 1_545
Li5 O15 2.114002 1_555
Li6 O17 2.107859 1_555
Li6 O17 2.107859 1_565
Li6 O18 2.108066 1_565
Li6 O18 2.108066 1_555
Li6 O0 2.181577 1_655
Li6 O15 2.248368 1_555
Li7 O1 2.064556 1_555
Li7 O19 2.072314 1_455
Li7 O19 2.072314 1_445
Li7 O0 2.156084 1_555
Li7 O0 2.156084 1_545
Li7 O18 2.166707 1_455
Co0 O3 1.876977 1_555
Co0 O2 1.890617 1_554
Co0 O2 1.890617 1_564
Co0 O0 1.906955 1_555
Co0 O1 1.910039 1_555
Co0 O1 1.910039 1_565
Co1 O5 1.930416 1_555
Co1 O1 1.930416 1_555
Co1 O4 1.934543 1_545
Co1 O4 1.934543 1_555
Co1 O3 1.934543 1_555
Co1 O3 1.934543 1_545
Co2 O4 1.876977 1_555
Co2 O6 1.890617 1_555
Co2 O6 1.890617 1_565
Co2 O8 1.906955 1_555
Co2 O5 1.910039 1_565
Co2 O5 1.910039 1_555
Co3 O11 1.907920 1_555
Co3 O15 1.907920 1_555
Co3 O14 1.947969 1_555
Co3 O13 1.947969 1_565
Co3 O14 1.947969 1_565
Co3 O13 1.947969 1_555
Ni0 O7 1.981701 1_556
Ni0 O7 1.981701 1_546
Ni0 O8 2.001428 1_545
Ni0 O8 2.001428 1_555
Ni0 O6 2.040743 1_555
Ni0 O10 2.095646 1_555
Ni1 O7 1.861801 1_556
Ni1 O12 1.917533 1_555
Ni1 O10 1.975409 1_555
Ni1 O10 1.975409 1_565
Ni1 O9 1.977668 1_556
Ni1 O9 1.977668 1_566
Ni2 O11 1.978025 1_545
Ni2 O11 1.978025 1_555
Ni2 O12 1.983982 1_544
Ni2 O12 1.983982 1_554
Ni2 O9 2.056997 1_555
Ni2 O13 2.066277 1_555
Ni3 O15 1.978025 1_545
Ni3 O15 1.978025 1_555
Ni3 O16 1.983982 1_555
Ni3 O16 1.983982 1_545
Ni3 O18 2.056997 1_555
Ni3 O14 2.066277 1_555
Ni4 O19 1.861801 1_555
Ni4 O16 1.917533 1_555
Ni4 O17 1.975409 1_556
Ni4 O17 1.975409 1_566
Ni4 O18 1.977668 1_565
Ni4 O18 1.977668 1_555
Ni5 O19 1.981701 1_445
Ni5 O19 1.981701 1_455
Ni5 O0 2.001428 1_546
Ni5 O0 2.001428 1_556
Ni5 O2 2.040743 1_555
Ni5 O17 2.095646 1_456
