# generated using pymatgen
data_Li3Mn(OF)2
_symmetry_space_group_name_H-M   'P 1'
_cell_length_a   5.05947213
_cell_length_b   7.86318138
_cell_length_c   7.86318276
_cell_angle_alpha   99.63012979
_cell_angle_beta   100.75279303
_cell_angle_gamma   100.75283520
_symmetry_Int_Tables_number   1
_chemical_formula_structural   Li3Mn(OF)2
_chemical_formula_sum   'Li12 Mn4 O8 F8'
_cell_volume   295.24316563
_cell_formula_units_Z   4
loop_
 _symmetry_equiv_pos_site_id
 _symmetry_equiv_pos_as_xyz
  1  'x, y, z'
loop_
 _atom_site_type_symbol
 _atom_site_label
 _atom_site_symmetry_multiplicity
 _atom_site_fract_x
 _atom_site_fract_y
 _atom_site_fract_z
 _atom_site_occupancy
  Li  Li0  1  0.24999400  0.30599000  0.19401700  1
  Li  Li1  1  0.25000500  0.80598300  0.69401000  1
  Li  Li2  1  0.74999500  0.69401800  0.80598900  1
  Li  Li3  1  0.75000500  0.19401100  0.30598200  1
  Li  Li4  1  0.25000300  0.56990800  0.93010600  1
  Li  Li5  1  0.24999500  0.06989300  0.43009300  1
  Li  Li6  1  0.75000400  0.43010700  0.06990700  1
  Li  Li7  1  0.74999600  0.93009300  0.56989200  1
  Li  Li8  1  0.25000000  0.18450600  0.81549200  1
  Li  Li9  1  0.24999800  0.68450200  0.31549600  1
  Li  Li10  1  0.75000000  0.31549100  0.68450600  1
  Li  Li11  1  0.74999900  0.81549600  0.18450200  1
  Mn  Mn0  1  0.25000200  0.94560100  0.05440300  1
  Mn  Mn1  1  0.75000300  0.55439400  0.44560100  1
  Mn  Mn2  1  0.25001300  0.44556100  0.55445100  1
  Mn  Mn3  1  0.75000100  0.05444500  0.94555800  1
  O  O0  1  0.01474400  0.55714200  0.67626900  1
  O  O1  1  0.01472000  0.05715400  0.17624100  1
  O  O2  1  0.48527500  0.82376400  0.94284900  1
  O  O3  1  0.48525600  0.32372900  0.44285800  1
  O  O4  1  0.51474300  0.17627000  0.05714200  1
  O  O5  1  0.51472100  0.67623900  0.55715300  1
  O  O6  1  0.98527800  0.44284700  0.32376300  1
  O  O7  1  0.98525700  0.94285900  0.82373200  1
  F  F0  1  0.00493700  0.68550100  0.06649700  1
  F  F1  1  0.00494300  0.18550300  0.56650100  1
  F  F2  1  0.50493600  0.56649800  0.18550000  1
  F  F3  1  0.50494100  0.06650000  0.68550100  1
  F  F4  1  0.49505700  0.43349900  0.81449500  1
  F  F5  1  0.49506200  0.93350100  0.31449700  1
  F  F6  1  0.99505400  0.31449500  0.93349600  1
  F  F7  1  0.99506200  0.81450000  0.43350000  1
loop_
_geom_bond_atom_site_label_1
_geom_bond_atom_site_label_2
_geom_bond_distance
_geom_bond_site_symmetry_2
Li0 O1 2.059676 1_555
Li0 O3 2.059744 1_555
Li0 O6 2.161721 1_455
Li0 O4 2.161827 1_555
Li1 O2 2.059681 1_555
Li1 O0 2.059738 1_555
Li1 O5 2.161713 1_555
Li1 O7 2.161835 1_455
Li2 O5 2.059672 1_555
Li2 O7 2.059736 1_555
Li2 O2 2.161749 1_555
Li2 O0 2.161831 1_655
Li3 O6 2.059666 1_555
Li3 O4 2.059734 1_555
Li3 O1 2.161697 1_655
Li3 O3 2.161823 1_555
Li4 O0 2.100623 1_555
Li4 O2 2.100811 1_555
Li5 O3 2.100621 1_555
Li5 O1 2.100799 1_555
Li6 O4 2.100628 1_555
Li6 O6 2.100821 1_555
Li7 O7 2.100647 1_555
Li7 O5 2.100811 1_555
Li8 O7 2.129004 1_445
Li8 O4 2.129014 1_556
Li9 O6 2.129062 1_455
Li9 O5 2.129073 1_555
Li10 O3 2.129009 1_555
Li10 O0 2.129024 1_655
Li11 O2 2.129062 1_554
Li11 O1 2.129068 1_665
Mn0 O2 1.907401 1_554
Mn0 O1 1.907438 1_565
Mn0 O4 2.038148 1_565
Mn0 O7 2.038165 1_454
Mn1 O6 1.907387 1_555
Mn1 O5 1.907464 1_555
Mn1 O0 2.038125 1_655
Mn1 O3 2.038130 1_555
Mn2 O0 1.907409 1_555
Mn2 O3 1.907409 1_555
Mn2 O5 2.038196 1_555
Mn2 O6 2.038300 1_455
Mn3 O4 1.907405 1_556
Mn3 O7 1.907409 1_545
Mn3 O1 2.038240 1_656
Mn3 O2 2.038245 1_545
F0 Li4 2.025902 1_554
F0 Li11 2.047140 1_455
F0 Li9 2.115129 1_555
F0 Li6 2.182123 1_455
F0 Mn0 2.211814 1_555
F0 Li2 2.226319 1_454
F1 Li5 2.025985 1_555
F1 Li10 2.047131 1_455
F1 Li8 2.115065 1_555
F1 Li7 2.182214 1_445
F1 Mn2 2.211446 1_555
F1 Li3 2.226361 1_455
F2 Li6 2.025910 1_555
F2 Li9 2.047141 1_555
F2 Li11 2.115124 1_555
F2 Li4 2.182124 1_554
F2 Mn1 2.211849 1_555
F2 Li0 2.226318 1_555
F3 Li7 2.025989 1_545
F3 Li8 2.047139 1_555
F3 Li10 2.115064 1_555
F3 Li5 2.182204 1_555
F3 Mn3 2.211432 1_555
F3 Li1 2.226345 1_545
F4 Li4 2.026001 1_555
F4 Li10 2.047147 1_555
F4 Li8 2.115077 1_555
F4 Li6 2.182230 1_556
F4 Mn2 2.211332 1_555
F4 Li2 2.226355 1_555
F5 Li5 2.025922 1_565
F5 Li11 2.047136 1_555
F5 Li9 2.115134 1_555
F5 Li7 2.182128 1_555
F5 Mn0 2.211780 1_555
F5 Li3 2.226329 1_565
F6 Li6 2.025998 1_556
F6 Li8 2.047144 1_655
F6 Li10 2.115050 1_555
F6 Li4 2.182235 1_655
F6 Mn3 2.211388 1_555
F6 Li0 2.226371 1_656
F7 Li7 2.025906 1_555
F7 Li9 2.047141 1_655
F7 Li11 2.115121 1_555
F7 Li5 2.182110 1_665
F7 Mn1 2.211857 1_555
F7 Li1 2.226334 1_655
