# generated using pymatgen
data_Li5V3P8O29
_symmetry_space_group_name_H-M   'P 1'
_cell_length_a   9.77937900
_cell_length_b   9.79763243
_cell_length_c   13.98574197
_cell_angle_alpha   89.77193033
_cell_angle_beta   89.78653950
_cell_angle_gamma   60.06453532
_symmetry_Int_Tables_number   1
_chemical_formula_structural   Li5V3P8O29
_chemical_formula_sum   'Li10 V6 P16 O58'
_cell_volume   1161.25153899
_cell_formula_units_Z   2
loop_
 _symmetry_equiv_pos_site_id
 _symmetry_equiv_pos_as_xyz
  1  'x, y, z'
loop_
 _atom_site_type_symbol
 _atom_site_label
 _atom_site_symmetry_multiplicity
 _atom_site_fract_x
 _atom_site_fract_y
 _atom_site_fract_z
 _atom_site_occupancy
  Li  Li0  1  0.22613400  0.09534500  0.55527000  1
  Li  Li1  1  0.09396900  0.67539500  0.55983300  1
  Li  Li2  1  0.23487500  0.66153300  0.06097000  1
  Li  Li3  1  0.66703000  0.09589900  0.06124100  1
  Li  Li4  1  0.32086400  0.77410500  0.43817400  1
  Li  Li5  1  0.68705400  0.22635000  0.55929400  1
  Li  Li6  1  0.33076100  0.90627200  0.94063700  1
  Li  Li7  1  0.76562400  0.33670400  0.94244700  1
  Li  Li8  1  0.77131000  0.90666600  0.43906300  1
  Li  Li9  1  0.00022300  0.99862200  0.00446400  1
  V  V0  1  0.43293800  0.56592800  0.25243700  1
  V  V1  1  0.56880500  0.43243200  0.74727700  1
  V  V2  1  0.43346700  0.00324500  0.75026900  1
  V  V3  1  0.56701600  0.99953200  0.24844400  1
  V  V4  1  0.00237700  0.42938500  0.24743200  1
  V  V5  1  0.99534300  0.56626800  0.75612900  1
  P  P0  1  0.08251800  0.22426400  0.84354100  1
  P  P1  1  0.22899300  0.08915100  0.33829800  1
  P  P2  1  0.08482500  0.68097400  0.34393300  1
  P  P3  1  0.33238700  0.33574700  0.12714300  1
  P  P4  1  0.33065500  0.33601100  0.62947400  1
  P  P5  1  0.22817500  0.68368800  0.84083000  1
  P  P6  1  0.31947100  0.77008800  0.65770400  1
  P  P7  1  0.68538600  0.08874500  0.84353200  1
  P  P8  1  0.31493000  0.91004500  0.15617900  1
  P  P9  1  0.68100500  0.22972100  0.34320500  1
  P  P10  1  0.77310500  0.31447300  0.15996100  1
  P  P11  1  0.66965400  0.66680300  0.37032200  1
  P  P12  1  0.66440900  0.66533200  0.87261700  1
  P  P13  1  0.91706000  0.31514000  0.65536500  1
  P  P14  1  0.77042900  0.91087400  0.66053600  1
  P  P15  1  0.91687700  0.77395900  0.15824200  1
  O  O0  1  0.00965900  0.23511700  0.56860200  1
  O  O1  1  0.08412700  0.25606000  0.33487800  1
  O  O2  1  0.22696900  0.98298900  0.06553100  1
  O  O3  1  0.25204400  0.08453200  0.84190900  1
  O  O4  1  0.08430500  0.38269700  0.82983400  1
  O  O5  1  0.18693000  0.33116700  0.17555000  1
  O  O6  1  0.09499000  0.52222400  0.32347900  1
  O  O7  1  0.00875700  0.78708500  0.07587600  1
  O  O8  1  0.08343900  0.65863000  0.83446600  1
  O  O9  1  0.32698200  0.18573100  0.67005500  1
  O  O10  1  0.38086200  0.09704600  0.32139000  1
  O  O11  1  0.18359800  0.48563300  0.67415100  1
  O  O12  1  0.32602600  0.33875300  0.02055000  1
  O  O13  1  0.32581000  0.34094300  0.52279300  1
  O  O14  1  0.32236900  0.48980000  0.16730200  1
  O  O15  1  0.52795400  0.09125800  0.83074000  1
  O  O16  1  0.48726400  0.18942400  0.16551600  1
  O  O17  1  0.25031400  0.66498200  0.34379200  1
  O  O18  1  0.20798500  0.79311000  0.74885200  1
  O  O19  1  0.24394200  0.75473700  0.56794500  1
  O  O20  1  0.22046700  0.77416400  0.92982200  1
  O  O21  1  0.38112700  0.52828500  0.82898700  1
  O  O22  1  0.48629000  0.32657600  0.66787500  1
  O  O23  1  0.34036300  0.74011600  0.16421600  1
  O  O24  1  0.52027500  0.37995800  0.32181600  1
  O  O25  1  0.66185900  0.08195100  0.33941400  1
  O  O26  1  0.20668700  0.99879000  0.24877500  1
  O  O27  1  0.24007100  0.00104100  0.42910700  1
  O  O28  1  0.76040300  0.99819000  0.56989700  1
  O  O29  1  0.33714100  0.91726000  0.65712400  1
  O  O30  1  0.47984200  0.61991800  0.67705200  1
  O  O31  1  0.66027800  0.25837800  0.83594300  1
  O  O32  1  0.51455100  0.67212700  0.33352200  1
  O  O33  1  0.61983700  0.47039600  0.16998200  1
  O  O34  1  0.78093600  0.22282500  0.07078300  1
  O  O35  1  0.75243800  0.24067500  0.43408500  1
  O  O36  1  0.79258600  0.20637900  0.25184300  1
  O  O37  1  0.74909200  0.33703400  0.65662400  1
  O  O38  1  0.51113500  0.81319200  0.83307500  1
  O  O39  1  0.47104700  0.90806400  0.16902800  1
  O  O40  1  0.67671800  0.51082700  0.83272600  1
  O  O41  1  0.67184800  0.66311900  0.97899800  1
  O  O42  1  0.67530600  0.66517800  0.47691000  1
  O  O43  1  0.81542400  0.52297900  0.32015100  1
  O  O44  1  0.62203900  0.89815100  0.67817700  1
  O  O45  1  0.67334300  0.81611900  0.33045300  1
  O  O46  1  0.91745100  0.33930300  0.16449500  1
  O  O47  1  0.00092400  0.20664700  0.74831100  1
  O  O48  1  0.99168900  0.21913300  0.92811700  1
  O  O49  1  0.90856100  0.47533700  0.67772800  1
  O  O50  1  0.81167600  0.67044600  0.82491700  1
  O  O51  1  0.91814300  0.61696000  0.16868600  1
  O  O52  1  0.74552300  0.91558000  0.15835400  1
  O  O53  1  0.77063900  0.01532700  0.93470800  1
  O  O54  1  0.79398300  0.99903200  0.75117600  1
  O  O55  1  0.91907700  0.74384900  0.66181100  1
  O  O56  1  0.99707700  0.75557500  0.43526700  1
  O  O57  1  0.99152100  0.79669800  0.25647200  1
loop_
_geom_bond_atom_site_label_1
_geom_bond_atom_site_label_2
_geom_bond_distance
_geom_bond_site_symmetry_2
Li0 O0 1.870144 1_555
Li0 O27 1.967530 1_555
Li0 O29 2.086471 1_545
Li0 O9 2.286663 1_555
Li1 O56 1.951547 1_455
Li1 O19 1.976876 1_555
Li1 O55 2.062474 1_455
Li1 O11 2.267494 1_555
Li2 O7 1.931381 1_555
Li2 O14 2.080249 1_555
Li2 O20 2.105357 1_554
Li2 O23 2.134179 1_555
Li3 O53 1.995236 1_554
Li3 O34 2.046975 1_555
Li3 O52 2.047029 1_545
Li3 O16 2.107325 1_555
Li4 O27 1.956833 1_565
Li4 O19 2.006356 1_555
Li4 O17 2.028723 1_555
Li4 O32 2.197826 1_555
Li5 O35 1.890585 1_555
Li5 O28 1.982789 1_545
Li5 O37 2.017817 1_555
Li5 O22 2.278282 1_555
Li6 O2 1.970309 1_556
Li6 O3 2.048507 1_565
Li6 O20 2.063430 1_555
Li6 O38 2.142858 1_555
Li7 O48 1.926521 1_555
Li7 O34 2.075619 1_556
Li7 O40 2.128346 1_555
Li7 O31 2.163003 1_555
Li8 O56 1.951055 1_555
Li8 O28 2.019860 1_555
Li8 O25 2.048120 1_565
Li8 O45 2.209544 1_555
Li9 O7 2.260860 1_555
Li9 O2 2.311710 1_555
Li9 O34 2.363117 1_465
Li9 O48 2.370050 1_464
Li9 O53 2.380700 1_464
Li9 O20 2.416454 1_554
O0 P13 1.482559 1_455
O1 P1 1.539880 1_555
O1 V4 1.911657 1_555
O2 P8 1.498441 1_555
O3 P0 1.535582 1_555
O3 V2 2.001412 1_555
O4 P0 1.572028 1_555
O4 V5 1.866692 1_455
O5 P3 1.593766 1_555
O5 V4 1.858722 1_555
O6 P2 1.536203 1_555
O6 V4 1.901565 1_555
O7 P15 1.502438 1_455
O8 P5 1.555496 1_555
O8 V5 1.885334 1_455
O9 P4 1.592896 1_555
O9 V2 1.916812 1_555
O10 P1 1.542586 1_555
O10 V3 1.877700 1_545
O11 P4 1.582441 1_555
O11 V5 1.966690 1_455
O12 P3 1.491872 1_555
O13 P4 1.492766 1_555
O14 P3 1.569064 1_555
O14 V0 1.991191 1_555
O15 P7 1.538547 1_555
O15 V2 1.916969 1_555
O16 P3 1.571658 1_555
O16 V3 1.989025 1_545
O17 P2 1.546159 1_555
O17 V0 2.006715 1_555
O18 P6 1.615887 1_555
O18 P5 1.619493 1_555
O19 P6 1.504451 1_555
O20 P5 1.510612 1_555
O21 P5 1.519934 1_555
O21 V1 1.956815 1_555
O22 P4 1.574416 1_555
O22 V1 1.952215 1_555
O23 P8 1.559432 1_555
O23 V0 1.924596 1_555
O24 P9 1.554886 1_555
O24 V0 1.851982 1_555
O25 P9 1.550876 1_555
O25 V3 1.973709 1_545
O26 P1 1.613260 1_565
O26 P8 1.622891 1_555
O27 P1 1.506289 1_555
O28 P14 1.502331 1_555
O29 P6 1.535477 1_555
O29 V2 2.025848 1_565
O30 P6 1.547459 1_555
O30 V1 1.868901 1_555
O31 P7 1.557338 1_555
O31 V1 1.927431 1_555
O32 P11 1.579546 1_555
O32 V0 1.962304 1_555
O33 P10 1.521467 1_555
O33 V0 1.957573 1_555
O34 P10 1.518974 1_555
O35 P9 1.482414 1_555
O36 P10 1.612097 1_555
O36 P9 1.618197 1_555
O37 P13 1.546828 1_555
O37 V1 1.984348 1_555
O38 P12 1.576025 1_555
O38 V2 1.990788 1_565
O39 P8 1.528400 1_555
O39 V3 1.942342 1_555
O40 P12 1.562577 1_555
O40 V1 1.989358 1_555
O41 P12 1.489409 1_555
O42 P11 1.491670 1_555
O43 P11 1.582953 1_555
O43 V4 1.881001 1_655
O44 P14 1.536200 1_555
O44 V2 1.891259 1_565
O45 P11 1.580649 1_555
O45 V3 1.937406 1_555
O46 P10 1.548996 1_555
O46 V4 1.887086 1_655
O47 P0 1.608591 1_555
O47 P13 1.618391 1_455
O48 P0 1.492292 1_655
O49 P13 1.562606 1_555
O49 V5 1.866975 1_555
O50 P12 1.608189 1_555
O50 V5 1.832679 1_555
O51 P15 1.538448 1_555
O51 V4 1.936148 1_655
O52 P15 1.553305 1_555
O52 V3 1.967308 1_555
O53 P7 1.496875 1_555
O54 P14 1.617265 1_555
O54 P7 1.623585 1_565
O55 P14 1.554737 1_555
O55 V5 2.004347 1_555
O56 P2 1.508498 1_655
O57 P2 1.605956 1_655
O57 P15 1.625452 1_555
