# generated using pymatgen
data_Cr4OF11
_symmetry_space_group_name_H-M   'P 1'
_cell_length_a   5.05806800
_cell_length_b   5.34240250
_cell_length_c   16.91962020
_cell_angle_alpha   83.27198452
_cell_angle_beta   81.41893974
_cell_angle_gamma   61.77913259
_symmetry_Int_Tables_number   1
_chemical_formula_structural   Cr4OF11
_chemical_formula_sum   'Cr8 O2 F22'
_cell_volume   397.77859900
_cell_formula_units_Z   2
loop_
 _symmetry_equiv_pos_site_id
 _symmetry_equiv_pos_as_xyz
  1  'x, y, z'
loop_
 _atom_site_type_symbol
 _atom_site_label
 _atom_site_symmetry_multiplicity
 _atom_site_fract_x
 _atom_site_fract_y
 _atom_site_fract_z
 _atom_site_occupancy
  Cr  Cr0  1  0.39185000  0.36550500  0.87900800  1
  Cr  Cr1  1  0.87275700  0.87155400  0.37530100  1
  Cr  Cr2  1  0.24833500  0.24975600  0.24994500  1
  Cr  Cr3  1  0.75757300  0.74913300  0.74931000  1
  Cr  Cr4  1  0.13813400  0.13502500  0.62222600  1
  Cr  Cr5  1  0.62121500  0.62747700  0.12384500  1
  Cr  Cr6  1  0.49003500  0.48927700  0.50419100  1
  Cr  Cr7  1  0.98024300  0.01123700  0.99696600  1
  O  O0  1  0.59571400  0.21751600  0.96801000  1
  O  O1  1  0.34407600  0.34251400  0.59313700  1
  F  F0  1  0.68639400  0.06353800  0.81220300  1
  F  F1  1  0.56342200  0.18752000  0.43732900  1
  F  F2  1  0.06959400  0.68641000  0.93727500  1
  F  F3  1  0.65430400  0.03174400  0.28179100  1
  F  F4  1  0.15599000  0.53019500  0.78532400  1
  F  F5  1  0.40494700  0.40721300  0.15656800  1
  F  F6  1  0.91252600  0.91282400  0.65687700  1
  F  F7  1  0.09457600  0.71803000  0.46877500  1
  F  F8  1  0.15884700  0.15746300  0.90602900  1
  F  F9  1  0.18290800  0.56207400  0.31249500  1
  F  F10  1  0.82179600  0.43627100  0.68673400  1
  F  F11  1  0.84413000  0.84231500  0.09180200  1
  F  F12  1  0.09293900  0.09075900  0.34332500  1
  F  F13  1  0.59448300  0.59398500  0.84288700  1
  F  F14  1  0.90334000  0.28174000  0.53123100  1
  F  F15  1  0.84404500  0.46860100  0.21742200  1
  F  F16  1  0.65351400  0.65495100  0.41041100  1
  F  F17  1  0.35059000  0.96543200  0.71667100  1
  F  F18  1  0.93083800  0.31237900  0.06151300  1
  F  F19  1  0.43223200  0.81122400  0.56223100  1
  F  F20  1  0.31572500  0.93738000  0.18749000  1
  F  F21  1  0.39292500  0.78896100  0.03167900  1
loop_
_geom_bond_atom_site_label_1
_geom_bond_atom_site_label_2
_geom_bond_distance
_geom_bond_site_symmetry_2
Cr0 O0 1.835602 1_555
Cr0 F13 1.932718 1_555
Cr0 F0 1.936854 1_555
Cr0 F8 1.947372 1_555
Cr0 F2 1.960002 1_555
Cr0 F4 1.988650 1_555
Cr1 F3 1.940783 1_565
Cr1 F16 1.943627 1_555
Cr1 F9 1.945523 1_655
Cr1 F7 1.946305 1_655
Cr1 F12 1.951834 1_665
Cr1 F1 1.956058 1_565
Cr2 F15 1.943036 1_455
Cr2 F5 1.943333 1_555
Cr2 F12 1.944726 1_555
Cr2 F3 1.945420 1_555
Cr2 F20 1.945660 1_545
Cr2 F9 1.949507 1_555
Cr3 F4 1.941836 1_655
Cr3 F6 1.945993 1_555
Cr3 F0 1.953423 1_565
Cr3 F17 1.953948 1_555
Cr3 F10 1.954153 1_555
Cr3 F13 1.955429 1_555
Cr4 O1 1.835010 1_555
Cr4 F19 1.939816 1_545
Cr4 F14 1.943620 1_455
Cr4 F17 1.944636 1_545
Cr4 F10 1.948486 1_455
Cr4 F6 1.993368 1_445
Cr5 F5 1.942129 1_555
Cr5 F11 1.943769 1_555
Cr5 F21 1.946634 1_555
Cr5 F20 1.946807 1_555
Cr5 F15 1.952038 1_555
Cr5 F18 1.956651 1_555
Cr6 O1 1.834131 1_555
Cr6 F7 1.930761 1_555
Cr6 F1 1.937148 1_555
Cr6 F14 1.945091 1_555
Cr6 F19 1.960263 1_555
Cr6 F16 1.989067 1_555
Cr7 O0 1.835250 1_555
Cr7 F8 1.940295 1_655
Cr7 F2 1.941245 1_645
Cr7 F11 1.944671 1_546
Cr7 F18 1.947688 1_556
Cr7 F21 1.992587 1_646
