# generated using pymatgen
data_Li3Fe(PO4)2
_symmetry_space_group_name_H-M   'P 1'
_cell_length_a   7.54257872
_cell_length_b   7.54387491
_cell_length_c   11.25557561
_cell_angle_alpha   74.90155500
_cell_angle_beta   74.90283031
_cell_angle_gamma   101.02505062
_symmetry_Int_Tables_number   1
_chemical_formula_structural   Li3Fe(PO4)2
_chemical_formula_sum   'Li12 Fe4 P8 O32'
_cell_volume   573.47318185
_cell_formula_units_Z   4
loop_
 _symmetry_equiv_pos_site_id
 _symmetry_equiv_pos_as_xyz
  1  'x, y, z'
loop_
 _atom_site_type_symbol
 _atom_site_label
 _atom_site_symmetry_multiplicity
 _atom_site_fract_x
 _atom_site_fract_y
 _atom_site_fract_z
 _atom_site_occupancy
  Li  Li0  1  0.35708600  0.60789400  0.93566800  1
  Li  Li1  1  0.85708700  0.10789500  0.93566900  1
  Li  Li2  1  0.14209200  0.89292700  0.06433300  1
  Li  Li3  1  0.64209200  0.39292700  0.06433200  1
  Li  Li4  1  0.23759000  0.48461800  0.76987400  1
  Li  Li5  1  0.73759000  0.98461900  0.76987300  1
  Li  Li6  1  0.26531900  0.01247600  0.23012700  1
  Li  Li7  1  0.76531800  0.51247600  0.23012700  1
  Li  Li8  1  0.24897800  0.74952700  0.50154300  1
  Li  Li9  1  0.74897800  0.24952700  0.50154400  1
  Li  Li10  1  0.50047200  0.50102700  0.49845000  1
  Li  Li11  1  0.00047200  0.00102600  0.49844800  1
  Fe  Fe0  1  0.77325600  0.52251800  0.72599800  1
  Fe  Fe1  1  0.72743600  0.97682300  0.27400500  1
  Fe  Fe2  1  0.27324000  0.02249500  0.72599100  1
  Fe  Fe3  1  0.22743300  0.47682500  0.27402200  1
  P  P0  1  0.97753100  0.72704700  0.90285200  1
  P  P1  1  0.47754400  0.22706500  0.90285600  1
  P  P2  1  0.52290800  0.77250800  0.09714900  1
  P  P3  1  0.02289500  0.27250100  0.09715100  1
  P  P4  1  0.11540600  0.36471700  0.58875400  1
  P  P5  1  0.61541100  0.86471800  0.58874800  1
  P  P6  1  0.38530000  0.13454900  0.41124200  1
  P  P7  1  0.88528300  0.63454400  0.41124900  1
  O  O0  1  0.05461100  0.30394400  0.95315700  1
  O  O1  1  0.55460900  0.80393900  0.95315700  1
  O  O2  1  0.44605600  0.19538800  0.04684800  1
  O  O3  1  0.94605200  0.69538900  0.04684600  1
  O  O4  1  0.82657500  0.57629700  0.88332800  1
  O  O5  1  0.32656800  0.07630800  0.88332400  1
  O  O6  1  0.67369200  0.92343700  0.11666900  1
  O  O7  1  0.17368800  0.42343900  0.11667700  1
  O  O8  1  0.45782100  0.70715500  0.58759300  1
  O  O9  1  0.95782800  0.20716600  0.58758900  1
  O  O10  1  0.04272900  0.79229300  0.41241100  1
  O  O11  1  0.54272500  0.29229200  0.41240900  1
  O  O12  1  0.25051400  0.99982700  0.55093200  1
  O  O13  1  0.75051000  0.49982000  0.55093000  1
  O  O14  1  0.25005700  0.49961800  0.44906600  1
  O  O15  1  0.75005800  0.99961200  0.44906600  1
  O  O16  1  0.97956100  0.93795700  0.82969800  1
  O  O17  1  0.47955800  0.43796200  0.82970300  1
  O  O18  1  0.18839600  0.72911700  0.82946100  1
  O  O19  1  0.68839400  0.22912100  0.82946900  1
  O  O20  1  0.31194800  0.77043900  0.17032600  1
  O  O21  1  0.81194700  0.27044700  0.17032300  1
  O  O22  1  0.52087600  0.56169400  0.17051400  1
  O  O23  1  0.02087900  0.06169600  0.17051500  1
  O  O24  1  0.04248200  0.50368800  0.66010400  1
  O  O25  1  0.54249500  0.00369400  0.66010300  1
  O  O26  1  0.25424400  0.29162500  0.66004700  1
  O  O27  1  0.75424800  0.79163100  0.66004000  1
  O  O28  1  0.24646900  0.20751200  0.33983900  1
  O  O29  1  0.74646500  0.70751500  0.33984300  1
  O  O30  1  0.45838400  0.99560300  0.34000500  1
  O  O31  1  0.95837900  0.49560300  0.34000800  1
loop_
_geom_bond_atom_site_label_1
_geom_bond_atom_site_label_2
_geom_bond_distance
_geom_bond_site_symmetry_2
Li0 O1 1.976691 1_555
Li0 O7 2.078323 1_556
Li0 O18 2.133554 1_555
Li0 O17 2.143542 1_555
Li1 O0 1.976709 1_655
Li1 O6 2.078259 1_546
Li1 O19 2.133534 1_555
Li1 O16 2.143626 1_545
Li2 O3 1.976731 1_455
Li2 O5 2.078331 1_564
Li2 O23 2.133990 1_565
Li2 O20 2.143161 1_555
Li3 O2 1.976701 1_555
Li3 O4 2.078287 1_554
Li3 O22 2.133986 1_555
Li3 O21 2.143117 1_555
Li4 O0 2.085873 1_555
Li4 O26 2.142482 1_555
Li4 O24 2.156012 1_555
Li4 O17 2.161166 1_555
Li4 O18 2.183152 1_555
Li4 O8 2.269527 1_555
Li5 O1 2.085897 1_555
Li5 O27 2.142501 1_555
Li5 O25 2.155931 1_565
Li5 O16 2.161177 1_555
Li5 O19 2.183226 1_565
Li5 O9 2.269591 1_565
Li6 O2 2.085834 1_555
Li6 O30 2.143197 1_545
Li6 O28 2.155227 1_555
Li6 O20 2.161760 1_545
Li6 O23 2.182609 1_555
Li6 O10 2.269559 1_545
Li7 O3 2.085844 1_555
Li7 O31 2.143197 1_555
Li7 O29 2.155281 1_555
Li7 O21 2.161719 1_555
Li7 O22 2.182625 1_555
Li7 O11 2.269558 1_555
Li8 O8 2.085087 1_555
Li8 O10 2.089719 1_555
Li8 O12 2.101524 1_555
Li8 O14 2.118186 1_555
Li8 O24 2.184807 1_555
Li8 O30 2.207013 1_555
Li9 O9 2.085085 1_555
Li9 O11 2.089766 1_555
Li9 O13 2.101459 1_555
Li9 O15 2.118236 1_545
Li9 O25 2.184742 1_555
Li9 O31 2.206990 1_555
Li10 O11 2.084382 1_555
Li10 O8 2.089079 1_555
Li10 O14 2.102103 1_555
Li10 O13 2.118916 1_555
Li10 O29 2.185516 1_555
Li10 O26 2.207783 1_555
Li11 O10 2.084346 1_545
Li11 O9 2.089137 1_455
Li11 O15 2.102081 1_445
Li11 O12 2.118962 1_545
Li11 O28 2.185535 1_555
Li11 O27 2.207726 1_445
Fe0 O24 2.018540 1_655
Fe0 O27 2.018620 1_555
Fe0 O4 2.035939 1_555
Fe0 O13 2.069355 1_555
Fe0 O19 2.095689 1_555
Fe0 O17 2.097943 1_555
Fe1 O30 2.017341 1_555
Fe1 O29 2.019869 1_555
Fe1 O6 2.036097 1_555
Fe1 O15 2.069199 1_555
Fe1 O23 2.095715 1_665
Fe1 O21 2.097740 1_565
Fe2 O25 2.018656 1_555
Fe2 O26 2.018687 1_555
Fe2 O5 2.036098 1_555
Fe2 O12 2.069136 1_545
Fe2 O18 2.095570 1_545
Fe2 O16 2.097832 1_445
Fe3 O31 2.017330 1_455
Fe3 O28 2.019894 1_555
Fe3 O7 2.036199 1_555
Fe3 O14 2.069022 1_555
Fe3 O22 2.095757 1_555
Fe3 O20 2.097706 1_555
O0 P3 1.521949 1_556
O1 P2 1.521958 1_556
O2 P1 1.521920 1_554
O3 P0 1.521974 1_554
O4 P0 1.550254 1_555
O5 P1 1.550430 1_555
O6 P2 1.550264 1_555
O7 P3 1.550385 1_555
O8 P5 1.517100 1_555
O9 P4 1.517032 1_655
O10 P7 1.517336 1_455
O11 P6 1.517230 1_555
O12 P6 1.574248 1_565
O13 P7 1.574159 1_555
O14 P4 1.574321 1_555
O15 P5 1.574254 1_555
O16 P0 1.584727 1_555
O17 P1 1.584677 1_555
O18 P0 1.584800 1_455
O19 P1 1.584725 1_555
O20 P2 1.584806 1_555
O21 P3 1.584749 1_655
O22 P2 1.584703 1_555
O23 P3 1.584680 1_555
O24 P4 1.573420 1_555
O25 P5 1.573465 1_545
O26 P4 1.572467 1_555
O27 P5 1.572441 1_555
O28 P6 1.572820 1_555
O29 P7 1.572776 1_555
O30 P6 1.572919 1_565
O31 P7 1.572944 1_555
