# generated using pymatgen
data_CsC3(SeN)3
_symmetry_space_group_name_H-M   'P 1'
_cell_length_a   11.62984745
_cell_length_b   11.62984745
_cell_length_c   5.78517132
_cell_angle_alpha   86.68337359
_cell_angle_beta   86.68337359
_cell_angle_gamma   137.14348569
_symmetry_Int_Tables_number   1
_chemical_formula_structural   CsC3(SeN)3
_chemical_formula_sum   'Cs2 C6 Se6 N6'
_cell_volume   525.48881258
_cell_formula_units_Z   2
loop_
 _symmetry_equiv_pos_site_id
 _symmetry_equiv_pos_as_xyz
  1  'x, y, z'
loop_
 _atom_site_type_symbol
 _atom_site_label
 _atom_site_symmetry_multiplicity
 _atom_site_fract_x
 _atom_site_fract_y
 _atom_site_fract_z
 _atom_site_occupancy
  Cs  Cs0  1  0.22753700  0.77381500  0.24807300  1
  Cs  Cs1  1  0.78087200  0.22032500  0.73262400  1
  C  C0  1  0.64127600  0.36173300  0.24514300  1
  C  C1  1  0.35262700  0.10632700  0.69133900  1
  C  C2  1  0.35700700  0.64366200  0.74534200  1
  C  C3  1  0.64823200  0.89479100  0.32348800  1
  C  C4  1  0.89777400  0.65981100  0.81691300  1
  C  C5  1  0.10332000  0.33335100  0.19009200  1
  Se  Se0  1  0.56168500  0.44711400  0.24771500  1
  Se  Se1  1  0.24983000  0.12293500  0.48407600  1
  Se  Se2  1  0.74226400  0.86808800  0.53130300  1
  Se  Se3  1  0.86192900  0.74720100  0.03361500  1
  Se  Se4  1  0.44476800  0.55793500  0.75525000  1
  Se  Se5  1  0.13442800  0.26196500  0.97794900  1
  N  N0  1  0.07755600  0.39554500  0.32067800  1
  N  N1  1  0.92628000  0.60853300  0.67988300  1
  N  N2  1  0.69497300  0.29791400  0.25281900  1
  N  N3  1  0.39461300  0.07686100  0.82957800  1
  N  N4  1  0.30678400  0.69490200  0.75198300  1
  N  N5  1  0.60621000  0.93290300  0.17106600  1
loop_
_geom_bond_atom_site_label_1
_geom_bond_atom_site_label_2
_geom_bond_distance
_geom_bond_site_symmetry_2
Cs0 N3 3.238295 1_564
Cs0 N5 3.278373 1_555
Cs0 N1 3.281518 1_455
Cs0 N0 3.320145 1_555
Cs0 N4 3.341729 1_554
Cs0 N4 3.381046 1_555
Cs1 N0 3.148876 1_655
Cs1 N5 3.193931 1_546
Cs1 N2 3.296921 1_555
Cs1 N3 3.448088 1_555
Cs1 N1 3.453048 1_555
Cs1 N2 3.486656 1_556
Cs1 Se2 4.031744 1_545
C0 N2 1.273485 1_555
C0 Se0 1.786241 1_555
C1 N3 1.119928 1_555
C1 Se1 1.838993 1_555
C2 N4 1.099137 1_555
C2 Se4 1.879107 1_555
C3 N5 1.238978 1_555
C3 Se2 1.828821 1_555
C4 N1 1.186649 1_555
C4 Se3 1.867216 1_556
C5 N0 1.240345 1_555
C5 Se5 1.683220 1_554
Se0 Se3 2.653216 1_555
Se0 Se1 2.831977 1_555
Se2 Se4 2.702498 1_555
Se4 Se5 2.696135 1_555
