# generated using pymatgen
data_Li9Mn7(PO4)12
_symmetry_space_group_name_H-M   'P 1'
_cell_length_a   8.56187600
_cell_length_b   8.72317517
_cell_length_c   12.00272908
_cell_angle_alpha   90.42028783
_cell_angle_beta   90.06590859
_cell_angle_gamma   90.12320686
_symmetry_Int_Tables_number   1
_chemical_formula_structural   Li9Mn7(PO4)12
_chemical_formula_sum   'Li9 Mn7 P12 O48'
_cell_volume   896.41795566
_cell_formula_units_Z   1
loop_
 _symmetry_equiv_pos_site_id
 _symmetry_equiv_pos_as_xyz
  1  'x, y, z'
loop_
 _atom_site_type_symbol
 _atom_site_label
 _atom_site_symmetry_multiplicity
 _atom_site_fract_x
 _atom_site_fract_y
 _atom_site_fract_z
 _atom_site_occupancy
  Li  Li0  1  0.78283000  0.27668700  0.18242000  1
  Li  Li1  1  0.78443800  0.21924800  0.81859700  1
  Li  Li2  1  0.71442800  0.77879400  0.31637100  1
  Li  Li3  1  0.71252200  0.72094100  0.67939900  1
  Li  Li4  1  0.28429100  0.28399500  0.32403100  1
  Li  Li5  1  0.27912400  0.23819600  0.68074100  1
  Li  Li6  1  0.24991900  0.53856200  0.61502400  1
  Li  Li7  1  0.21647200  0.77777400  0.18203200  1
  Li  Li8  1  0.21672400  0.71671600  0.80879700  1
  Mn  Mn0  1  0.75139300  0.03601400  0.61127200  1
  Mn  Mn1  1  0.75440400  0.46433900  0.38733600  1
  Mn  Mn2  1  0.75013800  0.96392000  0.11378200  1
  Mn  Mn3  1  0.74881600  0.53358700  0.88579000  1
  Mn  Mn4  1  0.25297600  0.46502200  0.11494200  1
  Mn  Mn5  1  0.25167000  0.03751100  0.88501200  1
  Mn  Mn6  1  0.24556600  0.96231500  0.38782000  1
  P  P0  1  0.89513900  0.60417900  0.14746500  1
  P  P1  1  0.89605000  0.89292800  0.85342800  1
  P  P2  1  0.60779900  0.38800800  0.64648800  1
  P  P3  1  0.60425400  0.10676000  0.35464900  1
  P  P4  1  0.39317100  0.89790900  0.64841500  1
  P  P5  1  0.39732700  0.60698300  0.35466200  1
  P  P6  1  0.10485800  0.39366000  0.86057600  1
  P  P7  1  0.10693900  0.10715000  0.14629600  1
  P  P8  1  0.96450300  0.74900200  0.50068400  1
  P  P9  1  0.53375500  0.25318800  0.00009600  1
  P  P10  1  0.46441000  0.75086900  0.99817700  1
  P  P11  1  0.03420400  0.24748000  0.50109000  1
  O  O0  1  0.93843100  0.35064600  0.42187700  1
  O  O1  1  0.93926900  0.13400500  0.57150800  1
  O  O2  1  0.92630100  0.10510500  0.15616200  1
  O  O3  1  0.92186200  0.38942500  0.85050300  1
  O  O4  1  0.84933000  0.84132300  0.57856600  1
  O  O5  1  0.85079900  0.66455700  0.41713000  1
  O  O6  1  0.84318800  0.56062800  0.02904200  1
  O  O7  1  0.84620800  0.93853800  0.97024800  1
  O  O8  1  0.84483100  0.76520300  0.18142300  1
  O  O9  1  0.84328200  0.72781500  0.82067800  1
  O  O10  1  0.82458100  0.48174300  0.22671800  1
  O  O11  1  0.82271900  0.01113500  0.77252000  1
  O  O12  1  0.67764000  0.98819900  0.27409900  1
  O  O13  1  0.68848200  0.50992300  0.72568200  1
  O  O14  1  0.67508100  0.22752000  0.67648900  1
  O  O15  1  0.65653400  0.27107800  0.32280800  1
  O  O16  1  0.65658300  0.43962600  0.52836100  1
  O  O17  1  0.65305100  0.06176700  0.47235100  1
  O  O18  1  0.64155100  0.16950100  0.08042500  1
  O  O19  1  0.64030000  0.33934600  0.91465300  1
  O  O20  1  0.57592400  0.90463200  0.65653100  1
  O  O21  1  0.57818700  0.60385300  0.33763300  1
  O  O22  1  0.55773400  0.85796800  0.07430600  1
  O  O23  1  0.55910000  0.64290500  0.92278300  1
  O  O24  1  0.44006800  0.36179200  0.07549100  1
  O  O25  1  0.44047600  0.14211400  0.92514000  1
  O  O26  1  0.43413400  0.38765300  0.65904000  1
  O  O27  1  0.42344400  0.10458100  0.34373200  1
  O  O28  1  0.35275300  0.66196700  0.07826000  1
  O  O29  1  0.35417200  0.83936900  0.91737200  1
  O  O30  1  0.34426000  0.94466600  0.52929800  1
  O  O31  1  0.34441400  0.55824100  0.46646900  1
  O  O32  1  0.34623900  0.77283300  0.32038800  1
  O  O33  1  0.34587900  0.73950400  0.68183700  1
  O  O34  1  0.32447600  0.48973000  0.26860000  1
  O  O35  1  0.32296000  0.02642500  0.72649400  1
  O  O36  1  0.17877000  0.98587500  0.22621100  1
  O  O37  1  0.17597500  0.50887500  0.78399900  1
  O  O38  1  0.16189600  0.26997200  0.18122600  1
  O  O39  1  0.15394500  0.22635400  0.82556700  1
  O  O40  1  0.14730100  0.42386200  0.98266500  1
  O  O41  1  0.15718300  0.06028400  0.02867800  1
  O  O42  1  0.13850900  0.33423000  0.57993800  1
  O  O43  1  0.14212100  0.15927200  0.41616200  1
  O  O44  1  0.07742000  0.89558800  0.84160800  1
  O  O45  1  0.07654500  0.60276400  0.15797100  1
  O  O46  1  0.05306900  0.85960900  0.42194100  1
  O  O47  1  0.05489900  0.64626300  0.57402600  1
loop_
_geom_bond_atom_site_label_1
_geom_bond_atom_site_label_2
_geom_bond_distance
_geom_bond_site_symmetry_2
Li0 O10 1.895503 1_555
Li0 O18 1.952189 1_555
Li0 O2 1.962233 1_555
Li0 O15 2.004046 1_555
Li1 O11 1.922819 1_555
Li1 O3 1.928177 1_555
Li1 O14 1.946701 1_555
Li1 O19 1.985169 1_555
Li2 O12 1.925901 1_555
Li2 O21 1.937355 1_555
Li2 O5 1.959169 1_555
Li2 O8 1.971319 1_555
Li3 O13 1.937254 1_555
Li3 O4 1.989003 1_555
Li3 O20 2.006118 1_555
Li3 O9 2.031343 1_555
Li4 O34 1.948649 1_555
Li4 O43 1.975671 1_555
Li4 O27 1.984336 1_555
Li4 O38 2.010803 1_555
Li5 O26 1.878115 1_555
Li5 O42 1.905508 1_555
Li5 O35 1.967843 1_555
Li5 O39 2.046341 1_555
Li6 O31 1.967377 1_555
Li6 O47 1.981025 1_555
Li6 O42 2.060344 1_555
Li6 O33 2.088609 1_555
Li6 O26 2.125299 1_555
Li6 O37 2.142725 1_555
Li7 O36 1.915593 1_555
Li7 O45 1.958113 1_555
Li7 O28 1.980739 1_555
Li7 O32 1.997763 1_555
Li8 O37 1.867225 1_555
Li8 O33 1.895224 1_555
Li8 O44 2.003083 1_555
Li8 O29 2.049035 1_555
Mn0 O17 1.882239 1_555
Mn0 O1 1.883561 1_555
Mn0 O4 1.933554 1_545
Mn0 O14 1.953724 1_555
Mn0 O20 1.967032 1_545
Mn0 O11 2.042029 1_555
Mn1 O16 1.902880 1_555
Mn1 O0 1.910313 1_555
Mn1 O5 1.960457 1_555
Mn1 O10 2.026636 1_555
Mn1 O15 2.029137 1_555
Mn1 O21 2.032190 1_555
Mn2 O7 1.921479 1_554
Mn2 O22 1.943625 1_555
Mn2 O2 2.007866 1_565
Mn2 O12 2.032286 1_555
Mn2 O18 2.063371 1_565
Mn2 O8 2.084817 1_555
Mn3 O6 1.911787 1_556
Mn3 O23 1.935728 1_555
Mn3 O19 1.963877 1_555
Mn3 O3 1.989371 1_555
Mn3 O13 1.998488 1_555
Mn3 O9 2.037285 1_555
Mn4 O40 1.858820 1_554
Mn4 O24 1.898092 1_555
Mn4 O34 1.952873 1_555
Mn4 O28 1.969966 1_555
Mn4 O45 1.998200 1_555
Mn4 O38 2.037549 1_555
Mn5 O25 1.913944 1_555
Mn5 O41 1.914758 1_556
Mn5 O29 1.980936 1_545
Mn5 O39 1.986101 1_555
Mn5 O35 2.000552 1_555
Mn5 O44 2.002671 1_545
Mn6 O30 1.903273 1_555
Mn6 O46 1.920245 1_555
Mn6 O43 1.962309 1_565
Mn6 O32 2.029327 1_555
Mn6 O36 2.033651 1_555
Mn6 O27 2.035419 1_565
O0 P11 1.549251 1_655
O1 P11 1.537946 1_655
O2 P7 1.551337 1_655
O3 P6 1.571642 1_655
O4 P8 1.577746 1_555
O5 P8 1.574787 1_555
O6 P0 1.533768 1_555
O7 P1 1.516699 1_555
O8 P0 1.522918 1_555
O9 P1 1.556154 1_555
O10 P0 1.556910 1_555
O11 P1 1.554538 1_545
O12 P3 1.545536 1_565
O13 P2 1.578682 1_555
O14 P2 1.559423 1_555
O15 P3 1.551339 1_555
O16 P2 1.548358 1_555
O17 P3 1.527064 1_555
O18 P9 1.524969 1_555
O19 P9 1.568208 1_556
O20 P4 1.568570 1_555
O21 P5 1.562436 1_555
O22 P10 1.526038 1_554
O23 P10 1.534801 1_555
O24 P9 1.533696 1_555
O25 P9 1.538922 1_556
O26 P2 1.494683 1_555
O27 P3 1.553522 1_555
O28 P10 1.564970 1_554
O29 P10 1.561892 1_555
O30 P4 1.547179 1_555
O31 P5 1.481857 1_555
O32 P5 1.569921 1_555
O33 P4 1.496774 1_555
O34 P5 1.575605 1_555
O35 P4 1.576455 1_545
O36 P7 1.560059 1_565
O37 P6 1.495952 1_555
O38 P7 1.549980 1_555
O39 P6 1.573917 1_555
O40 P6 1.530217 1_555
O41 P7 1.529339 1_555
O42 P11 1.500160 1_555
O43 P11 1.574361 1_555
O44 P1 1.559636 1_455
O45 P0 1.558224 1_455
O46 P8 1.552766 1_455
O47 P8 1.479909 1_455
