# generated using pymatgen
data_Na5V36O88
_symmetry_space_group_name_H-M   'P 1'
_cell_length_a   22.23769767
_cell_length_b   3.67549600
_cell_length_c   20.69595470
_cell_angle_alpha   90.00000000
_cell_angle_beta   105.81535311
_cell_angle_gamma   90.00000000
_symmetry_Int_Tables_number   1
_chemical_formula_structural   Na5V36O88
_chemical_formula_sum   'Na5 V36 O88'
_cell_volume   1627.54036227
_cell_formula_units_Z   1
loop_
 _symmetry_equiv_pos_site_id
 _symmetry_equiv_pos_as_xyz
  1  'x, y, z'
loop_
 _atom_site_type_symbol
 _atom_site_label
 _atom_site_symmetry_multiplicity
 _atom_site_fract_x
 _atom_site_fract_y
 _atom_site_fract_z
 _atom_site_occupancy
  Na  Na0  1  0.17632100  0.75000000  0.67251900  1
  Na  Na1  1  0.17572600  0.75000000  0.17244700  1
  Na  Na2  1  0.82086000  0.25000000  0.84303000  1
  Na  Na3  1  0.83371200  0.25000000  0.69824200  1
  Na  Na4  1  0.82424600  0.25000000  0.32677100  1
  V  V0  1  0.02567000  0.25000000  0.70154700  1
  V  V1  1  0.09084500  0.75000000  0.93120400  1
  V  V2  1  0.06023700  0.25000000  0.54384600  1
  V  V3  1  0.02527200  0.25000000  0.20222500  1
  V  V4  1  0.09033200  0.75000000  0.43047400  1
  V  V5  1  0.05866400  0.25000000  0.04358700  1
  V  V6  1  0.28483400  0.25000000  0.91376300  1
  V  V7  1  0.25374700  0.75000000  0.52552900  1
  V  V8  1  0.31739600  0.25000000  0.75599300  1
  V  V9  1  0.28500600  0.25000000  0.41375700  1
  V  V10  1  0.36813700  0.75000000  0.66194800  1
  V  V11  1  0.42982100  0.25000000  0.89090400  1
  V  V12  1  0.25413800  0.75000000  0.02572700  1
  V  V13  1  0.31731800  0.25000000  0.25599600  1
  V  V14  1  0.40769200  0.75000000  0.50731900  1
  V  V15  1  0.36812400  0.75000000  0.16200200  1
  V  V16  1  0.43036000  0.25000000  0.39146900  1
  V  V17  1  0.59248400  0.25000000  0.99289600  1
  V  V18  1  0.40721900  0.75000000  0.00678600  1
  V  V19  1  0.57067600  0.75000000  0.60983600  1
  V  V20  1  0.63258800  0.25000000  0.83847800  1
  V  V21  1  0.59336800  0.25000000  0.49314300  1
  V  V22  1  0.68389700  0.75000000  0.74406700  1
  V  V23  1  0.74605800  0.25000000  0.97654400  1
  V  V24  1  0.56988800  0.75000000  0.10895000  1
  V  V25  1  0.63179300  0.25000000  0.33809300  1
  V  V26  1  0.71236100  0.75000000  0.58261800  1
  V  V27  1  0.68261700  0.75000000  0.24422500  1
  V  V28  1  0.74687500  0.25000000  0.47372700  1
  V  V29  1  0.71525000  0.75000000  0.08697500  1
  V  V30  1  0.94114400  0.75000000  0.95686400  1
  V  V31  1  0.91149800  0.25000000  0.56600200  1
  V  V32  1  0.97552900  0.75000000  0.79799100  1
  V  V33  1  0.94112900  0.75000000  0.45481200  1
  V  V34  1  0.91045700  0.25000000  0.06950000  1
  V  V35  1  0.97484200  0.75000000  0.29727200  1
  O  O0  1  0.00564200  0.75000000  0.71414500  1
  O  O1  1  0.08018500  0.25000000  0.95463000  1
  O  O2  1  0.01015700  0.25000000  0.61005600  1
  O  O3  1  0.09391700  0.75000000  0.85361900  1
  O  O4  1  0.04402200  0.75000000  0.52258300  1
  O  O5  1  0.10136700  0.25000000  0.72379500  1
  O  O6  1  0.17286700  0.75000000  0.97894900  1
  O  O7  1  0.00449700  0.75000000  0.21301000  1
  O  O8  1  0.08072000  0.25000000  0.45432300  1
  O  O9  1  0.00785200  0.25000000  0.11023100  1
  O  O10  1  0.12945600  0.25000000  0.59888900  1
  O  O11  1  0.21583500  0.25000000  0.86307200  1
  O  O12  1  0.09537600  0.75000000  0.35388500  1
  O  O13  1  0.04260700  0.75000000  0.02195900  1
  O  O14  1  0.10097300  0.25000000  0.22349200  1
  O  O15  1  0.17309000  0.75000000  0.47973800  1
  O  O16  1  0.24107000  0.25000000  0.73127700  1
  O  O17  1  0.30164300  0.75000000  0.93860200  1
  O  O18  1  0.25024200  0.75000000  0.60388200  1
  O  O19  1  0.12779900  0.25000000  0.09910200  1
  O  O20  1  0.33343800  0.25000000  0.85007300  1
  O  O21  1  0.21599300  0.25000000  0.36314200  1
  O  O22  1  0.26544900  0.25000000  0.50341900  1
  O  O23  1  0.39084700  0.25000000  0.98424400  1
  O  O24  1  0.33610400  0.75000000  0.74782200  1
  O  O25  1  0.34515600  0.25000000  0.67332200  1
  O  O26  1  0.24106000  0.25000000  0.23127800  1
  O  O27  1  0.30162200  0.75000000  0.43869100  1
  O  O28  1  0.42579600  0.75000000  0.91679600  1
  O  O29  1  0.35549000  0.75000000  0.57106700  1
  O  O30  1  0.24970600  0.75000000  0.10376400  1
  O  O31  1  0.43429900  0.25000000  0.81362500  1
  O  O32  1  0.33362600  0.25000000  0.35018800  1
  O  O33  1  0.26516200  0.25000000  0.00322600  1
  O  O34  1  0.44230500  0.75000000  0.69057000  1
  O  O35  1  0.39104500  0.25000000  0.48399300  1
  O  O36  1  0.33623400  0.75000000  0.24790200  1
  O  O37  1  0.51908700  0.25000000  0.94050700  1
  O  O38  1  0.34520600  0.25000000  0.17331200  1
  O  O39  1  0.42593400  0.75000000  0.41664400  1
  O  O40  1  0.35518400  0.75000000  0.07099800  1
  O  O41  1  0.48111600  0.75000000  0.55958700  1
  O  O42  1  0.55825900  0.25000000  0.80924800  1
  O  O43  1  0.43453300  0.25000000  0.31424700  1
  O  O44  1  0.56478800  0.75000000  0.68633700  1
  O  O45  1  0.44231700  0.75000000  0.19034800  1
  O  O46  1  0.51893600  0.25000000  0.44089600  1
  O  O47  1  0.64343800  0.25000000  0.92932500  1
  O  O48  1  0.57392000  0.25000000  0.58421800  1
  O  O49  1  0.65509800  0.75000000  0.82647400  1
  O  O50  1  0.48056800  0.75000000  0.05947900  1
  O  O51  1  0.66552100  0.25000000  0.75316600  1
  O  O52  1  0.61150600  0.75000000  0.51889500  1
  O  O53  1  0.55753300  0.25000000  0.30962700  1
  O  O54  1  0.73422500  0.75000000  0.99779000  1
  O  O55  1  0.66533100  0.75000000  0.65100700  1
  O  O56  1  0.56555100  0.75000000  0.18626300  1
  O  O57  1  0.74677000  0.25000000  0.89699600  1
  O  O58  1  0.64511800  0.25000000  0.42847700  1
  O  O59  1  0.57412300  0.25000000  0.08326100  1
  O  O60  1  0.69699500  0.25000000  0.56044700  1
  O  O61  1  0.76151800  0.75000000  0.76724400  1
  O  O62  1  0.65486400  0.75000000  0.32659600  1
  O  O63  1  0.66385700  0.25000000  0.25202700  1
  O  O64  1  0.60865300  0.75000000  0.01558400  1
  O  O65  1  0.73501100  0.75000000  0.49524700  1
  O  O66  1  0.78250500  0.75000000  0.63723600  1
  O  O67  1  0.66640500  0.75000000  0.14991700  1
  O  O68  1  0.87171900  0.75000000  0.90106100  1
  O  O69  1  0.75103900  0.25000000  0.39574000  1
  O  O70  1  0.69882300  0.25000000  0.06144100  1
  O  O71  1  0.75890900  0.75000000  0.26874600  1
  O  O72  1  0.82760700  0.25000000  0.52058200  1
  O  O73  1  0.89837500  0.75000000  0.77206400  1
  O  O74  1  0.95727100  0.25000000  0.97769400  1
  O  O75  1  0.90873200  0.25000000  0.64486900  1
  O  O76  1  0.78433400  0.75000000  0.13754200  1
  O  O77  1  0.87195700  0.75000000  0.39951900  1
  O  O78  1  0.99078500  0.75000000  0.88832600  1
  O  O79  1  0.91954900  0.75000000  0.54337800  1
  O  O80  1  0.99470900  0.25000000  0.78632100  1
  O  O81  1  0.82659600  0.25000000  0.01955100  1
  O  O82  1  0.89912300  0.75000000  0.27594800  1
  O  O83  1  0.95705200  0.25000000  0.47815100  1
  O  O84  1  0.90465900  0.25000000  0.14591000  1
  O  O85  1  0.99231200  0.75000000  0.38928700  1
  O  O86  1  0.91893600  0.75000000  0.04518000  1
  O  O87  1  0.99557400  0.25000000  0.28650400  1
loop_
_geom_bond_atom_site_label_1
_geom_bond_atom_site_label_2
_geom_bond_distance
_geom_bond_site_symmetry_2
Na0 O10 2.433084 1_555
Na0 O10 2.433084 1_565
Na0 O16 2.444365 1_565
Na0 O16 2.444365 1_555
Na0 O18 2.448025 1_555
Na0 O5 2.871560 1_555
Na0 O5 2.871560 1_565
Na1 O19 2.436298 1_565
Na1 O19 2.436298 1_555
Na1 O30 2.449840 1_555
Na1 O26 2.450798 1_565
Na1 O26 2.450798 1_555
Na1 O14 2.865996 1_565
Na1 O14 2.865996 1_555
Na2 O57 2.228228 1_555
Na2 O68 2.314839 1_555
Na2 O68 2.314839 1_545
Na2 O61 2.539808 1_555
Na2 O61 2.539808 1_545
Na3 O75 2.237798 1_555
Na3 O66 2.341889 1_545
Na3 O66 2.341889 1_555
Na3 O73 2.565495 1_555
Na3 O73 2.565495 1_545
Na4 O77 2.428805 1_545
Na4 O77 2.428805 1_555
Na4 O69 2.440133 1_555
Na4 O71 2.445287 1_555
Na4 O71 2.445287 1_545
Na4 O82 2.865456 1_555
Na4 O82 2.865456 1_545
O0 V0 1.925345 1_555
O0 V0 1.925345 1_565
O0 V32 2.023112 1_455
O1 V1 1.931634 1_545
O1 V1 1.931634 1_555
O1 V5 2.024539 1_556
O2 V0 1.829830 1_555
O2 V2 1.987389 1_555
O2 V31 2.134095 1_455
O3 V1 1.625643 1_555
O4 V2 1.901183 1_555
O4 V2 1.901183 1_565
O4 V33 2.335246 1_455
O4 V4 2.400943 1_555
O5 V0 1.619606 1_555
O6 V12 1.802724 1_556
O6 V1 1.822333 1_555
O7 V3 1.922701 1_565
O7 V3 1.922701 1_555
O7 V35 2.025552 1_455
O8 V4 1.929801 1_555
O8 V4 1.929801 1_545
O8 V2 2.024898 1_555
O9 V3 1.836546 1_555
O9 V5 2.007143 1_555
O9 V34 2.099118 1_455
O10 V2 1.646595 1_555
O11 V6 1.605462 1_555
O12 V4 1.619253 1_555
O13 V5 1.902118 1_565
O13 V5 1.902118 1_555
O13 V30 2.291068 1_454
O13 V1 2.403494 1_554
O14 V3 1.619798 1_555
O15 V7 1.785690 1_555
O15 V4 1.844895 1_555
O16 V8 1.633796 1_555
O17 V6 1.917437 1_565
O17 V6 1.917437 1_555
O17 V12 2.324986 1_556
O17 V18 2.386936 1_556
O18 V7 1.644543 1_555
O19 V5 1.649501 1_555
O20 V8 1.881424 1_555
O20 V6 1.918915 1_555
O20 V11 2.078638 1_555
O21 V9 1.605087 1_555
O22 V7 1.928556 1_555
O22 V7 1.928556 1_545
O22 V9 2.018027 1_555
O23 V18 1.906551 1_556
O23 V18 1.906551 1_546
O23 V11 2.322809 1_555
O23 V6 2.410612 1_555
O24 V8 1.901930 1_565
O24 V8 1.901930 1_555
O24 V10 2.087126 1_555
O25 V10 1.938934 1_555
O25 V10 1.938934 1_545
O25 V8 1.970828 1_555
O26 V13 1.632355 1_555
O27 V9 1.917344 1_565
O27 V9 1.917344 1_555
O27 V7 2.325138 1_555
O27 V14 2.398942 1_555
O28 V11 1.923179 1_565
O28 V11 1.923179 1_555
O28 V18 2.014616 1_556
O29 V10 1.824399 1_555
O29 V14 1.980658 1_555
O29 V7 2.201131 1_555
O30 V12 1.644647 1_555
O31 V11 1.629322 1_555
O32 V13 1.883164 1_555
O32 V9 1.917078 1_555
O32 V16 2.087000 1_555
O33 V12 1.927822 1_545
O33 V12 1.927822 1_555
O33 V6 2.015192 1_554
O34 V10 1.593307 1_555
O35 V14 1.910497 1_545
O35 V14 1.910497 1_555
O35 V16 2.311627 1_555
O35 V9 2.409371 1_555
O36 V13 1.902822 1_565
O36 V13 1.902822 1_555
O36 V15 2.085813 1_555
O37 V17 1.695577 1_555
O37 V11 1.970685 1_555
O38 V15 1.938264 1_555
O38 V15 1.938264 1_545
O38 V13 1.972651 1_555
O39 V16 1.920005 1_565
O39 V16 1.920005 1_555
O39 V14 2.025131 1_555
O40 V15 1.826100 1_555
O40 V18 1.985753 1_555
O40 V12 2.186190 1_555
O41 V14 1.695108 1_555
O41 V19 1.979660 1_555
O42 V20 1.597819 1_555
O43 V16 1.625927 1_555
O44 V19 1.623840 1_555
O45 V15 1.593325 1_555
O46 V21 1.712696 1_555
O46 V16 1.956514 1_555
O47 V20 1.829198 1_555
O47 V17 1.956392 1_555
O47 V23 2.224208 1_555
O48 V19 1.919497 1_545
O48 V19 1.919497 1_555
O48 V21 2.045521 1_555
O49 V20 1.938400 1_565
O49 V20 1.938400 1_555
O49 V22 1.978433 1_555
O50 V18 1.697121 1_555
O50 V24 1.971053 1_555
O51 V22 1.903079 1_555
O51 V22 1.903079 1_545
O51 V20 2.087713 1_555
O52 V21 1.925326 1_565
O52 V21 1.925326 1_555
O52 V26 2.270926 1_555
O52 V19 2.301786 1_555
O53 V25 1.594933 1_555
O54 V23 1.924310 1_565
O54 V23 1.924310 1_555
O54 V29 2.002359 1_556
O55 V22 1.856442 1_555
O55 V26 1.975834 1_555
O55 V19 2.044274 1_555
O56 V24 1.628996 1_555
O57 V23 1.650707 1_555
O57 V20 2.497561 1_555
O58 V25 1.812390 1_555
O58 V21 1.988706 1_555
O58 V28 2.200541 1_555
O59 V24 1.922535 1_545
O59 V24 1.922535 1_555
O59 V17 2.020037 1_554
O60 V26 1.902409 1_555
O60 V26 1.902409 1_545
O60 V21 2.345416 1_555
O60 V28 2.353003 1_555
O61 V22 1.660796 1_555
O62 V25 1.940023 1_555
O62 V25 1.940023 1_565
O62 V27 1.964823 1_555
O63 V27 1.901091 1_545
O63 V27 1.901091 1_555
O63 V25 2.091274 1_555
O64 V17 1.906581 1_554
O64 V17 1.906581 1_564
O64 V24 2.320527 1_555
O64 V29 2.427569 1_555
O65 V28 1.925963 1_565
O65 V28 1.925963 1_555
O65 V26 2.004949 1_555
O66 V26 1.658242 1_555
O67 V27 1.885717 1_555
O67 V29 1.909964 1_555
O67 V24 2.081734 1_555
O68 V30 1.656925 1_555
O69 V28 1.641671 1_555
O70 V29 1.919583 1_555
O70 V29 1.919583 1_545
O70 V23 2.279572 1_554
O70 V17 2.403307 1_554
O71 V27 1.632958 1_555
O72 V28 1.792899 1_555
O72 V31 1.846079 1_555
O73 V32 1.652219 1_555
O74 V30 1.899343 1_545
O74 V30 1.899343 1_555
O74 V5 2.295123 1_656
O74 V34 2.402489 1_556
O75 V31 1.650053 1_555
O76 V29 1.605928 1_555
O77 V33 1.648085 1_555
O78 V32 1.806837 1_555
O78 V30 2.020922 1_555
O78 V1 2.159232 1_655
O79 V31 1.916846 1_555
O79 V31 1.916846 1_565
O79 V33 2.017297 1_555
O80 V32 1.916695 1_555
O80 V32 1.916695 1_545
O80 V0 2.051990 1_655
O81 V23 1.769443 1_554
O81 V34 1.869649 1_555
O82 V35 1.620171 1_555
O83 V33 1.908608 1_545
O83 V33 1.908608 1_555
O83 V31 2.309945 1_555
O83 V2 2.326634 1_655
O84 V34 1.621270 1_555
O85 V35 1.836892 1_555
O85 V33 1.993947 1_555
O85 V4 2.113077 1_655
O86 V34 1.928195 1_565
O86 V34 1.928195 1_555
O86 V30 2.019085 1_554
O87 V35 1.922377 1_545
O87 V35 1.922377 1_555
O87 V3 2.026422 1_655
