# generated using pymatgen
data_BaLaCl5
_symmetry_space_group_name_H-M   'P 1'
_cell_length_a   10.01298600
_cell_length_b   13.29434600
_cell_length_c   19.07215563
_cell_angle_alpha   46.86458045
_cell_angle_beta   90.00000000
_cell_angle_gamma   90.00000000
_symmetry_Int_Tables_number   1
_chemical_formula_structural   BaLaCl5
_chemical_formula_sum   'Ba8 La8 Cl40'
_cell_volume   1852.67128138
_cell_formula_units_Z   8
loop_
 _symmetry_equiv_pos_site_id
 _symmetry_equiv_pos_as_xyz
  1  'x, y, z'
loop_
 _atom_site_type_symbol
 _atom_site_label
 _atom_site_symmetry_multiplicity
 _atom_site_fract_x
 _atom_site_fract_y
 _atom_site_fract_z
 _atom_site_occupancy
  Ba  Ba0  1  0.77785500  0.95104600  0.35073700  1
  Ba  Ba1  1  0.76587500  0.25789800  0.96834600  1
  Ba  Ba2  1  0.27785500  0.04895400  0.14926300  1
  Ba  Ba3  1  0.26587500  0.74210200  0.53165400  1
  Ba  Ba4  1  0.73412500  0.25789800  0.46834600  1
  Ba  Ba5  1  0.72214500  0.95104600  0.85073700  1
  Ba  Ba6  1  0.23412500  0.74210200  0.03165400  1
  Ba  Ba7  1  0.22214500  0.04895400  0.64926300  1
  La  La0  1  0.28695400  0.19373200  0.30582300  1
  La  La1  1  0.26486600  0.53350600  0.85085000  1
  La  La2  1  0.76486600  0.46649400  0.64915000  1
  La  La3  1  0.78695400  0.80626800  0.19417700  1
  La  La4  1  0.21304600  0.19373200  0.80582300  1
  La  La5  1  0.23513400  0.53350600  0.35085000  1
  La  La6  1  0.73513400  0.46649400  0.14915000  1
  La  La7  1  0.71304600  0.80626800  0.69417700  1
  Cl  Cl0  1  0.26335900  0.31921500  0.11939000  1
  Cl  Cl1  1  0.69705100  0.98370400  0.49611600  1
  Cl  Cl2  1  0.73738500  0.26997300  0.13592100  1
  Cl  Cl3  1  0.09369900  0.00323600  0.35087100  1
  Cl  Cl4  1  0.11550700  0.72685600  0.68845800  1
  Cl  Cl5  1  0.46433900  0.70102700  0.70782600  1
  Cl  Cl6  1  0.44187300  0.99395200  0.32619700  1
  Cl  Cl7  1  0.07193800  0.33354500  0.96113100  1
  Cl  Cl8  1  0.45648700  0.32538100  0.96499200  1
  Cl  Cl9  1  0.79529900  0.55584000  0.75448600  1
  Cl  Cl10  1  0.94187300  0.00604800  0.17380300  1
  Cl  Cl11  1  0.29529900  0.44416000  0.74551400  1
  Cl  Cl12  1  0.95648700  0.67461900  0.53500800  1
  Cl  Cl13  1  0.57193800  0.66645500  0.53886900  1
  Cl  Cl14  1  0.59369900  0.99676400  0.14912900  1
  Cl  Cl15  1  0.23738500  0.73002700  0.36407900  1
  Cl  Cl16  1  0.96433900  0.29897300  0.79217400  1
  Cl  Cl17  1  0.61550700  0.27314400  0.81154200  1
  Cl  Cl18  1  0.76335900  0.68078500  0.38061000  1
  Cl  Cl19  1  0.19705100  0.01629600  0.00388400  1
  Cl  Cl20  1  0.80294900  0.98370400  0.99611600  1
  Cl  Cl21  1  0.23664100  0.31921500  0.61939000  1
  Cl  Cl22  1  0.38449300  0.72685600  0.18845800  1
  Cl  Cl23  1  0.03566100  0.70102700  0.20782600  1
  Cl  Cl24  1  0.76261500  0.26997300  0.63592100  1
  Cl  Cl25  1  0.40630100  0.00323600  0.85087100  1
  Cl  Cl26  1  0.42806200  0.33354500  0.46113100  1
  Cl  Cl27  1  0.04351300  0.32538100  0.46499200  1
  Cl  Cl28  1  0.70470100  0.55584000  0.25448600  1
  Cl  Cl29  1  0.05812700  0.99395200  0.82619700  1
  Cl  Cl30  1  0.20470100  0.44416000  0.24551400  1
  Cl  Cl31  1  0.54351300  0.67461900  0.03500800  1
  Cl  Cl32  1  0.92806200  0.66645500  0.03886900  1
  Cl  Cl33  1  0.55812700  0.00604800  0.67380300  1
  Cl  Cl34  1  0.53566100  0.29897300  0.29217400  1
  Cl  Cl35  1  0.88449300  0.27314400  0.31154200  1
  Cl  Cl36  1  0.90630100  0.99676400  0.64912900  1
  Cl  Cl37  1  0.26261500  0.73002700  0.86407900  1
  Cl  Cl38  1  0.30294900  0.01629600  0.50388400  1
  Cl  Cl39  1  0.73664100  0.68078500  0.88061000  1
loop_
_geom_bond_atom_site_label_1
_geom_bond_atom_site_label_2
_geom_bond_distance
_geom_bond_site_symmetry_2
Ba0 Cl1 3.190155 1_555
Ba0 Cl18 3.233523 1_555
Ba0 Cl3 3.238133 1_665
Ba0 Cl2 3.342552 1_565
Ba0 Cl10 3.353359 1_565
Ba0 Cl12 3.375581 1_555
Ba0 Cl6 3.390734 1_555
Ba0 Cl13 3.588377 1_555
Ba1 Cl7 3.198888 1_655
Ba1 Cl9 3.212480 1_555
Ba1 Cl8 3.213635 1_555
Ba1 Cl17 3.228430 1_555
Ba1 Cl14 3.247189 1_546
Ba1 Cl2 3.320127 1_556
Ba1 Cl20 3.326555 1_545
Ba1 Cl10 3.424884 1_556
Ba1 Cl16 3.609395 1_555
Ba2 Cl19 3.190155 1_555
Ba2 Cl0 3.233523 1_555
Ba2 Cl14 3.238133 1_545
Ba2 Cl15 3.342552 1_545
Ba2 Cl6 3.353359 1_545
Ba2 Cl8 3.375581 1_554
Ba2 Cl10 3.390734 1_455
Ba2 Cl7 3.588377 1_554
Ba3 Cl13 3.198888 1_555
Ba3 Cl11 3.212480 1_555
Ba3 Cl12 3.213635 1_455
Ba3 Cl4 3.228430 1_555
Ba3 Cl3 3.247189 1_565
Ba3 Cl15 3.320127 1_555
Ba3 Cl38 3.326555 1_565
Ba3 Cl6 3.424884 1_555
Ba3 Cl5 3.609395 1_555
Ba4 Cl26 3.198888 1_555
Ba4 Cl28 3.212480 1_555
Ba4 Cl27 3.213635 1_655
Ba4 Cl35 3.228430 1_555
Ba4 Cl36 3.247189 1_545
Ba4 Cl24 3.320127 1_555
Ba4 Cl1 3.326555 1_545
Ba4 Cl33 3.424884 1_555
Ba4 Cl34 3.609395 1_555
Ba5 Cl20 3.190155 1_555
Ba5 Cl39 3.233523 1_555
Ba5 Cl25 3.238133 1_565
Ba5 Cl24 3.342552 1_565
Ba5 Cl33 3.353359 1_565
Ba5 Cl31 3.375581 1_556
Ba5 Cl29 3.390734 1_655
Ba5 Cl32 3.588377 1_556
Ba6 Cl32 3.198888 1_455
Ba6 Cl30 3.212480 1_555
Ba6 Cl31 3.213635 1_555
Ba6 Cl22 3.228430 1_555
Ba6 Cl25 3.247189 1_564
Ba6 Cl37 3.320127 1_554
Ba6 Cl19 3.326555 1_565
Ba6 Cl29 3.424884 1_554
Ba6 Cl23 3.609395 1_555
Ba7 Cl38 3.190155 1_555
Ba7 Cl21 3.233523 1_555
Ba7 Cl36 3.238133 1_445
Ba7 Cl37 3.342552 1_545
Ba7 Cl29 3.353359 1_545
Ba7 Cl27 3.375581 1_555
Ba7 Cl33 3.390734 1_555
Ba7 Cl26 3.588377 1_555
Cl0 La0 2.714847 1_555
Cl1 La7 2.770262 1_555
Cl2 La6 2.791296 1_555
Cl3 La0 2.814411 1_555
Cl4 La1 2.747699 1_555
Cl5 La7 2.780077 1_555
Cl5 La1 2.843011 1_555
Cl6 La0 2.863564 1_565
Cl7 La1 2.752573 1_555
Cl8 La1 2.799911 1_555
Cl9 La7 2.801586 1_555
Cl9 La2 2.966957 1_555
Cl10 La3 2.863564 1_545
Cl11 La4 2.801586 1_555
Cl11 La1 2.966957 1_555
Cl12 La2 2.799911 1_555
Cl13 La2 2.752573 1_555
Cl14 La3 2.814411 1_555
Cl15 La5 2.791296 1_555
Cl16 La4 2.780077 1_655
Cl16 La2 2.843011 1_555
Cl17 La2 2.747699 1_555
Cl18 La3 2.714847 1_555
Cl19 La4 2.770262 1_554
Cl20 La3 2.770262 1_556
Cl21 La4 2.714847 1_555
Cl22 La5 2.747699 1_555
Cl23 La3 2.780077 1_455
Cl23 La5 2.843011 1_555
Cl24 La2 2.791296 1_555
Cl25 La4 2.814411 1_555
Cl26 La5 2.752573 1_555
Cl27 La5 2.799911 1_555
Cl28 La3 2.801586 1_555
Cl28 La6 2.966957 1_555
Cl29 La4 2.863564 1_565
Cl30 La0 2.801586 1_555
Cl30 La5 2.966957 1_555
Cl31 La6 2.799911 1_555
Cl32 La6 2.752573 1_555
Cl33 La7 2.863564 1_545
Cl34 La0 2.780077 1_555
Cl34 La6 2.843011 1_555
Cl35 La6 2.747699 1_555
Cl36 La7 2.814411 1_555
Cl37 La1 2.791296 1_555
Cl38 La0 2.770262 1_555
Cl39 La7 2.714847 1_555
