# generated using pymatgen
data_LiVP2O7
_symmetry_space_group_name_H-M   'P 1'
_cell_length_a   5.26139304
_cell_length_b   8.77936400
_cell_length_c   6.92852823
_cell_angle_alpha   89.99787423
_cell_angle_beta   110.16728368
_cell_angle_gamma   90.00350594
_symmetry_Int_Tables_number   1
_chemical_formula_structural   LiVP2O7
_chemical_formula_sum   'Li2 V2 P4 O14'
_cell_volume   300.41872613
_cell_formula_units_Z   2
loop_
 _symmetry_equiv_pos_site_id
 _symmetry_equiv_pos_as_xyz
  1  'x, y, z'
loop_
 _atom_site_type_symbol
 _atom_site_label
 _atom_site_symmetry_multiplicity
 _atom_site_fract_x
 _atom_site_fract_y
 _atom_site_fract_z
 _atom_site_occupancy
  Li  Li0  1  0.15155700  0.47139400  0.75647700  1
  Li  Li1  1  0.84842500  0.97138800  0.24351900  1
  V  V0  1  0.21056900  0.84957400  0.67011000  1
  V  V1  1  0.78943900  0.34986200  0.32985100  1
  P  P0  1  0.37402700  0.19609900  0.54651000  1
  P  P1  1  0.20308800  0.78040500  0.04055300  1
  P  P2  1  0.79692000  0.28040200  0.95946300  1
  P  P3  1  0.62596700  0.69610900  0.45348700  1
  O  O0  1  0.01142500  0.31352700  0.87127800  1
  O  O1  1  0.13615800  0.67276500  0.85338400  1
  O  O2  1  0.23089600  0.04194500  0.51354700  1
  O  O3  1  0.17579800  0.33363900  0.50658700  1
  O  O4  1  0.43469500  0.71005400  0.57639400  1
  O  O5  1  0.68501200  0.42220200  0.04573300  1
  O  O6  1  0.54062100  0.20096500  0.78690400  1
  O  O7  1  0.45937200  0.70099900  0.21310700  1
  O  O8  1  0.31498600  0.92217100  0.95420900  1
  O  O9  1  0.56531900  0.21011400  0.42359500  1
  O  O10  1  0.82419700  0.83365800  0.49344900  1
  O  O11  1  0.76912200  0.54195000  0.48648100  1
  O  O12  1  0.86383600  0.17280800  0.14665200  1
  O  O13  1  0.98857100  0.81354800  0.12871100  1
loop_
_geom_bond_atom_site_label_1
_geom_bond_atom_site_label_2
_geom_bond_distance
_geom_bond_site_symmetry_2
Li0 O0 1.871186 1_555
Li0 O1 1.902759 1_555
Li0 O3 2.151510 1_555
Li0 O11 2.310085 1_455
Li1 O13 1.871188 1_555
Li1 O12 1.903012 1_565
Li1 O10 2.151512 1_555
Li1 O2 2.310283 1_665
O0 P2 1.485608 1_455
O1 P1 1.543997 1_556
O1 V0 2.125519 1_555
O2 P0 1.527154 1_555
O2 V0 2.029858 1_545
O3 P0 1.556784 1_555
O3 V1 1.983840 1_455
O4 P3 1.530959 1_555
O4 V0 1.959776 1_555
O5 P2 1.580055 1_554
O5 V1 1.958182 1_555
O6 P0 1.592988 1_555
O6 P2 1.619410 1_555
O7 P3 1.592912 1_555
O7 P1 1.619264 1_555
O8 P1 1.579961 1_556
O8 V0 1.958825 1_555
O9 P0 1.531126 1_555
O9 V1 1.960989 1_555
O10 P3 1.556751 1_555
O10 V0 1.983556 1_655
O11 P3 1.527311 1_555
O11 V1 2.028114 1_555
O12 P2 1.543827 1_554
O12 V1 2.126822 1_555
O13 P1 1.485605 1_655
