# generated using pymatgen
data_Sr3TeO6
_symmetry_space_group_name_H-M   'P 1'
_cell_length_a   11.91335203
_cell_length_b   11.91335203
_cell_length_c   11.91335203
_cell_angle_alpha   109.47122063
_cell_angle_beta   109.47122063
_cell_angle_gamma   109.47122063
_symmetry_Int_Tables_number   1
_chemical_formula_structural   Sr3TeO6
_chemical_formula_sum   'Sr24 Te8 O48'
_cell_volume   1301.60747502
_cell_formula_units_Z   8
loop_
 _symmetry_equiv_pos_site_id
 _symmetry_equiv_pos_as_xyz
  1  'x, y, z'
loop_
 _atom_site_type_symbol
 _atom_site_label
 _atom_site_symmetry_multiplicity
 _atom_site_fract_x
 _atom_site_fract_y
 _atom_site_fract_z
 _atom_site_occupancy
  Sr  Sr0  1  0.84611900  0.15212100  0.24872600  1
  Sr  Sr1  1  0.69399800  0.34611900  0.09739300  1
  Sr  Sr2  1  0.34787900  0.19399800  0.09660500  1
  Sr  Sr3  1  0.59739300  0.25127400  0.40339500  1
  Sr  Sr4  1  0.84787900  0.75127400  0.15388100  1
  Sr  Sr5  1  0.90260700  0.30600200  0.65388100  1
  Sr  Sr6  1  0.74872600  0.59660500  0.40260700  1
  Sr  Sr7  1  0.19399800  0.09660500  0.34787900  1
  Sr  Sr8  1  0.75127400  0.15388100  0.84787900  1
  Sr  Sr9  1  0.40339500  0.59739300  0.25127400  1
  Sr  Sr10  1  0.09660500  0.34787900  0.19399800  1
  Sr  Sr11  1  0.34611900  0.09739300  0.69399800  1
  Sr  Sr12  1  0.90339500  0.65212100  0.80600200  1
  Sr  Sr13  1  0.65388100  0.90260700  0.30600200  1
  Sr  Sr14  1  0.59660500  0.40260700  0.74872600  1
  Sr  Sr15  1  0.80600200  0.90339500  0.65212100  1
  Sr  Sr16  1  0.24872600  0.84611900  0.15212100  1
  Sr  Sr17  1  0.25127400  0.40339500  0.59739300  1
  Sr  Sr18  1  0.09739300  0.69399800  0.34611900  1
  Sr  Sr19  1  0.40260700  0.74872600  0.59660500  1
  Sr  Sr20  1  0.15212100  0.24872600  0.84611900  1
  Sr  Sr21  1  0.65212100  0.80600200  0.90339500  1
  Sr  Sr22  1  0.30600200  0.65388100  0.90260700  1
  Sr  Sr23  1  0.15388100  0.84787900  0.75127400  1
  Te  Te0  1  0.50000000  0.00000000  0.00000000  1
  Te  Te1  1  0.00000000  0.00000000  0.00000000  1
  Te  Te2  1  0.50000000  0.00000000  0.50000000  1
  Te  Te3  1  0.50000000  0.50000000  0.00000000  1
  Te  Te4  1  0.50000000  0.50000000  0.50000000  1
  Te  Te5  1  0.00000000  0.00000000  0.50000000  1
  Te  Te6  1  0.00000000  0.50000000  0.00000000  1
  Te  Te7  1  0.00000000  0.50000000  0.50000000  1
  O  O0  1  0.00963500  0.11386000  0.17038200  1
  O  O1  1  0.66638600  0.10974100  0.00126100  1
  O  O2  1  0.89151900  0.39025900  0.05664400  1
  O  O3  1  0.55664400  0.16638600  0.16512500  1
  O  O4  1  0.94335600  0.10848100  0.60974100  1
  O  O5  1  0.89577500  0.50963500  0.33925300  1
  O  O6  1  0.88614000  0.82961800  0.99036500  1
  O  O7  1  0.83925300  0.32961800  0.44347800  1
  O  O8  1  0.66074700  0.10422500  0.49036500  1
  O  O9  1  0.38614000  0.39577500  0.05652200  1
  O  O10  1  0.39577500  0.05652200  0.38614000  1
  O  O11  1  0.67038200  0.55652200  0.16074700  1
  O  O12  1  0.82961800  0.99036500  0.88614000  1
  O  O13  1  0.50126100  0.39151900  0.33487500  1
  O  O14  1  0.99873900  0.33361400  0.89025900  1
  O  O15  1  0.55652200  0.16074700  0.67038200  1
  O  O16  1  0.49036500  0.66074700  0.10422500  1
  O  O17  1  0.94347800  0.61386000  0.60422500  1
  O  O18  1  0.60974100  0.94335600  0.10848100  1
  O  O19  1  0.89025900  0.99873900  0.33361400  1
  O  O20  1  0.66512500  0.49873900  0.60848100  1
  O  O21  1  0.83487500  0.44335600  0.83361400  1
  O  O22  1  0.83361400  0.83487500  0.44335600  1
  O  O23  1  0.39151900  0.33487500  0.50126100  1
  O  O24  1  0.60848100  0.66512500  0.49873900  1
  O  O25  1  0.16638600  0.16512500  0.55664400  1
  O  O26  1  0.33487500  0.50126100  0.39151900  1
  O  O27  1  0.10974100  0.00126100  0.66638600  1
  O  O28  1  0.16512500  0.55664400  0.16638600  1
  O  O29  1  0.39025900  0.05664400  0.89151900  1
  O  O30  1  0.44347800  0.83925300  0.32961800  1
  O  O31  1  0.05652200  0.38614000  0.39577500  1
  O  O32  1  0.50963500  0.33925300  0.89577500  1
  O  O33  1  0.00126100  0.66638600  0.10974100  1
  O  O34  1  0.49873900  0.60848100  0.66512500  1
  O  O35  1  0.60422500  0.94347800  0.61386000  1
  O  O36  1  0.17038200  0.00963500  0.11386000  1
  O  O37  1  0.32961800  0.44347800  0.83925300  1
  O  O38  1  0.61386000  0.60422500  0.94347800  1
  O  O39  1  0.33925300  0.89577500  0.50963500  1
  O  O40  1  0.16074700  0.67038200  0.55652200  1
  O  O41  1  0.11386000  0.17038200  0.00963500  1
  O  O42  1  0.10422500  0.49036500  0.66074700  1
  O  O43  1  0.05664400  0.89151900  0.39025900  1
  O  O44  1  0.44335600  0.83361400  0.83487500  1
  O  O45  1  0.10848100  0.60974100  0.94335600  1
  O  O46  1  0.33361400  0.89025900  0.99873900  1
  O  O47  1  0.99036500  0.88614000  0.82961800  1
loop_
_geom_bond_atom_site_label_1
_geom_bond_atom_site_label_2
_geom_bond_distance
_geom_bond_site_symmetry_2
O0 Te1 1.969420 1_555
O0 Sr10 2.506460 1_555
O0 Sr0 2.528664 1_455
O0 Sr7 2.613870 1_555
O1 Te0 1.969272 1_555
O1 Sr8 2.481185 1_554
O1 Sr1 2.516186 1_555
O1 Sr0 2.758589 1_555
O2 Te6 1.969269 1_655
O2 Sr1 2.481181 1_555
O2 Sr8 2.516182 1_554
O2 Sr10 2.758602 1_655
O3 Te0 1.969275 1_555
O3 Sr3 2.481181 1_555
O3 Sr2 2.516175 1_555
O3 Sr1 2.758594 1_555
O4 Te5 1.969269 1_655
O4 Sr5 2.481181 1_555
O4 Sr20 2.516182 1_655
O4 Sr15 2.758602 1_545
O5 Te7 1.969420 1_655
O5 Sr6 2.506460 1_555
O5 Sr1 2.528664 1_555
O5 Sr18 2.613870 1_655
O6 Te1 1.969420 1_666
O6 Sr21 2.506460 1_555
O6 Sr4 2.528664 1_556
O6 Sr12 2.613870 1_555
O7 Te7 1.969420 1_655
O7 Sr5 2.506460 1_555
O7 Sr3 2.528664 1_555
O7 Sr0 2.613870 1_555
O8 Te2 1.969420 1_555
O8 Sr3 2.506460 1_555
O8 Sr5 2.528664 1_555
O8 Sr13 2.613870 1_545
O9 Te3 1.969420 1_555
O9 Sr20 2.506460 1_554
O9 Sr2 2.528664 1_555
O9 Sr9 2.613870 1_555
O10 Te2 1.969420 1_555
O10 Sr16 2.506460 1_545
O10 Sr7 2.528664 1_555
O10 Sr3 2.613870 1_555
O11 Te3 1.969420 1_555
O11 Sr1 2.506460 1_555
O11 Sr6 2.528664 1_555
O11 Sr4 2.613870 1_555
O12 Te1 1.969420 1_666
O12 Sr15 2.506460 1_555
O12 Sr8 2.528664 1_565
O12 Sr21 2.613870 1_555
O13 Te4 1.969275 1_555
O13 Sr2 2.481181 1_555
O13 Sr3 2.516175 1_555
O13 Sr6 2.758594 1_555
O14 Te6 1.969272 1_656
O14 Sr20 2.481185 1_655
O14 Sr5 2.516186 1_555
O14 Sr8 2.758589 1_555
O15 Te2 1.969420 1_555
O15 Sr11 2.506460 1_555
O15 Sr14 2.528664 1_555
O15 Sr8 2.613870 1_555
O16 Te3 1.969420 1_555
O16 Sr9 2.506460 1_555
O16 Sr13 2.528664 1_555
O16 Sr22 2.613870 1_554
O17 Te7 1.969420 1_655
O17 Sr23 2.506460 1_655
O17 Sr12 2.528664 1_555
O17 Sr6 2.613870 1_555
O18 Te0 1.969269 1_565
O18 Sr13 2.481181 1_555
O18 Sr0 2.516182 1_565
O18 Sr21 2.758602 1_554
O19 Te5 1.969272 1_665
O19 Sr0 2.481185 1_565
O19 Sr13 2.516186 1_555
O19 Sr4 2.758589 1_555
O20 Te4 1.969275 1_555
O20 Sr12 2.481181 1_555
O20 Sr14 2.516175 1_555
O20 Sr3 2.758594 1_555
O21 Te6 1.969275 1_656
O21 Sr14 2.481181 1_555
O21 Sr12 2.516175 1_555
O21 Sr5 2.758594 1_555
O22 Te5 1.969275 1_665
O22 Sr6 2.481181 1_555
O22 Sr15 2.516175 1_555
O22 Sr13 2.758594 1_555
O23 Te4 1.969275 1_555
O23 Sr7 2.481181 1_555
O23 Sr17 2.516175 1_555
O23 Sr14 2.758594 1_555
O24 Te4 1.969275 1_555
O24 Sr15 2.481181 1_555
O24 Sr6 2.516175 1_555
O24 Sr9 2.758594 1_555
O25 Te5 1.969275 1_555
O25 Sr17 2.481181 1_555
O25 Sr7 2.516175 1_555
O25 Sr11 2.758594 1_555
O26 Te4 1.969275 1_555
O26 Sr10 2.481181 1_555
O26 Sr9 2.516175 1_555
O26 Sr19 2.758594 1_555
O27 Te5 1.969272 1_555
O27 Sr23 2.481185 1_545
O27 Sr11 2.516186 1_555
O27 Sr20 2.758589 1_555
O28 Te6 1.969275 1_555
O28 Sr9 2.481181 1_555
O28 Sr10 2.516175 1_555
O28 Sr18 2.758594 1_555
O29 Te0 1.969269 1_556
O29 Sr11 2.481181 1_555
O29 Sr23 2.516182 1_545
O29 Sr2 2.758602 1_556
O30 Te2 1.969420 1_565
O30 Sr13 2.506460 1_555
O30 Sr9 2.528664 1_555
O30 Sr16 2.613870 1_555
O31 Te7 1.969420 1_555
O31 Sr0 2.506460 1_455
O31 Sr10 2.528664 1_555
O31 Sr17 2.613870 1_555
O32 Te3 1.969420 1_556
O32 Sr14 2.506460 1_555
O32 Sr11 2.528664 1_555
O32 Sr1 2.613870 1_556
O33 Te6 1.969272 1_555
O33 Sr4 2.481185 1_455
O33 Sr18 2.516186 1_555
O33 Sr16 2.758589 1_555
O34 Te4 1.969275 1_555
O34 Sr21 2.481181 1_555
O34 Sr19 2.516175 1_555
O34 Sr17 2.758594 1_555
O35 Te2 1.969420 1_565
O35 Sr8 2.506460 1_565
O35 Sr15 2.528664 1_555
O35 Sr19 2.613870 1_555
O36 Te1 1.969420 1_555
O36 Sr7 2.506460 1_555
O36 Sr16 2.528664 1_545
O36 Sr2 2.613870 1_555
O37 Te3 1.969420 1_556
O37 Sr22 2.506460 1_555
O37 Sr17 2.528664 1_555
O37 Sr20 2.613870 1_555
O38 Te3 1.969420 1_556
O38 Sr4 2.506460 1_556
O38 Sr21 2.528664 1_555
O38 Sr14 2.613870 1_555
O39 Te2 1.969420 1_565
O39 Sr19 2.506460 1_555
O39 Sr18 2.528664 1_555
O39 Sr11 2.613870 1_565
O40 Te7 1.969420 1_555
O40 Sr18 2.506460 1_555
O40 Sr19 2.528664 1_555
O40 Sr23 2.613870 1_555
O41 Te1 1.969420 1_555
O41 Sr2 2.506460 1_555
O41 Sr20 2.528664 1_554
O41 Sr10 2.613870 1_555
O42 Te7 1.969420 1_555
O42 Sr17 2.506460 1_555
O42 Sr22 2.528664 1_555
O42 Sr5 2.613870 1_455
O43 Te5 1.969269 1_565
O43 Sr18 2.481181 1_555
O43 Sr4 2.516182 1_455
O43 Sr7 2.758602 1_565
O44 Te0 1.969275 1_566
O44 Sr19 2.481181 1_555
O44 Sr21 2.516175 1_555
O44 Sr22 2.758594 1_555
O45 Te6 1.969269 1_556
O45 Sr22 2.481181 1_555
O45 Sr16 2.516182 1_556
O45 Sr12 2.758602 1_455
O46 Te0 1.969272 1_566
O46 Sr16 2.481185 1_556
O46 Sr22 2.516186 1_555
O46 Sr23 2.758589 1_555
O47 Te1 1.969420 1_666
O47 Sr12 2.506460 1_555
O47 Sr23 2.528664 1_655
O47 Sr15 2.613870 1_555
