# generated using pymatgen
data_Mn8O13F3
_symmetry_space_group_name_H-M   'P 1'
_cell_length_a   5.00523500
_cell_length_b   5.53659155
_cell_length_c   9.01737751
_cell_angle_alpha   89.24659342
_cell_angle_beta   89.50422848
_cell_angle_gamma   89.68149021
_symmetry_Int_Tables_number   1
_chemical_formula_structural   Mn8O13F3
_chemical_formula_sum   'Mn8 O13 F3'
_cell_volume   249.85437796
_cell_formula_units_Z   1
loop_
 _symmetry_equiv_pos_site_id
 _symmetry_equiv_pos_as_xyz
  1  'x, y, z'
loop_
 _atom_site_type_symbol
 _atom_site_label
 _atom_site_symmetry_multiplicity
 _atom_site_fract_x
 _atom_site_fract_y
 _atom_site_fract_z
 _atom_site_occupancy
  Mn  Mn0  1  0.74943400  0.17094900  0.00524900  1
  Mn  Mn1  1  0.26519400  0.86018800  0.00549900  1
  Mn  Mn2  1  0.26291900  0.35587900  0.24727900  1
  Mn  Mn3  1  0.74710400  0.66498200  0.24749500  1
  Mn  Mn4  1  0.24762000  0.85081200  0.49931500  1
  Mn  Mn5  1  0.74688000  0.11643300  0.49943700  1
  Mn  Mn6  1  0.23325300  0.35384800  0.75542000  1
  Mn  Mn7  1  0.74624900  0.65259300  0.74641800  1
  O  O0  1  0.08496700  0.11908900  0.11660900  1
  O  O1  1  0.58569600  0.89711300  0.11116800  1
  O  O2  1  0.58815200  0.39769400  0.13747500  1
  O  O3  1  0.08367900  0.61743800  0.13687900  1
  O  O4  1  0.42433800  0.61076000  0.36766900  1
  O  O5  1  0.42444100  0.10543800  0.38321200  1
  O  O6  1  0.92486300  0.88558700  0.38529400  1
  O  O7  1  0.06814900  0.10143000  0.61654900  1
  O  O8  1  0.56974800  0.88100600  0.61319000  1
  O  O9  1  0.07504300  0.60510200  0.62923500  1
  O  O10  1  0.91225000  0.39313200  0.86381100  1
  O  O11  1  0.41613200  0.61343600  0.86240300  1
  O  O12  1  0.42475600  0.11725100  0.88478300  1
  F  F0  1  0.91785000  0.37270300  0.37408000  1
  F  F1  1  0.56746000  0.36084800  0.62494200  1
  F  F2  1  0.93382200  0.89628800  0.88658900  1
loop_
_geom_bond_atom_site_label_1
_geom_bond_atom_site_label_2
_geom_bond_distance
_geom_bond_site_symmetry_2
Mn0 O2 1.913314 1_555
Mn0 O10 1.938013 1_554
Mn0 O1 1.960790 1_545
Mn0 O0 1.981794 1_655
Mn0 O12 1.988402 1_554
Mn1 O1 1.886365 1_555
Mn1 O12 1.950707 1_564
Mn1 O0 1.969787 1_565
Mn1 O3 1.997091 1_555
Mn1 O11 2.029822 1_554
Mn2 O2 1.911597 1_555
Mn2 O3 1.963705 1_555
Mn2 O4 1.972523 1_555
Mn2 O0 1.993048 1_555
Mn2 O5 2.009653 1_555
Mn3 O1 1.944160 1_555
Mn3 O4 1.959815 1_555
Mn3 O2 1.967885 1_555
Mn3 O3 1.968534 1_655
Mn3 O6 1.974481 1_555
Mn4 O8 1.928246 1_555
Mn4 O6 1.929778 1_455
Mn4 O5 1.955970 1_565
Mn4 O7 1.964209 1_565
Mn4 O9 1.980643 1_555
Mn4 O4 1.992048 1_555
Mn5 O6 1.868854 1_545
Mn5 O8 1.870608 1_545
Mn5 O7 1.932220 1_655
Mn5 O5 1.933588 1_555
Mn6 O10 1.886431 1_455
Mn6 O9 1.954135 1_555
Mn6 O11 1.974978 1_555
Mn6 O12 1.990141 1_555
Mn6 O7 2.069039 1_555
Mn7 O8 1.946538 1_555
Mn7 O10 1.958702 1_555
Mn7 O11 1.959367 1_555
Mn7 O9 1.966321 1_655
F0 Mn5 1.994451 1_555
F0 Mn2 2.065419 1_655
F0 Mn3 2.145908 1_555
F1 Mn5 1.981836 1_555
F1 Mn6 2.037029 1_555
F1 Mn7 2.165496 1_555
F2 Mn1 1.990496 1_656
F2 Mn0 2.078278 1_566
F2 Mn7 2.092602 1_555
