# generated using pymatgen
data_Na5Bi2P(CO4)4
_symmetry_space_group_name_H-M   'P 1'
_cell_length_a   10.37028643
_cell_length_b   10.35559446
_cell_length_c   17.92346481
_cell_angle_alpha   106.30574361
_cell_angle_beta   73.76720121
_cell_angle_gamma   119.68911127
_symmetry_Int_Tables_number   1
_chemical_formula_structural   Na5Bi2P(CO4)4
_chemical_formula_sum   'Na20 Bi8 P4 C16 O64'
_cell_volume   1581.93033851
_cell_formula_units_Z   4
loop_
 _symmetry_equiv_pos_site_id
 _symmetry_equiv_pos_as_xyz
  1  'x, y, z'
loop_
 _atom_site_type_symbol
 _atom_site_label
 _atom_site_symmetry_multiplicity
 _atom_site_fract_x
 _atom_site_fract_y
 _atom_site_fract_z
 _atom_site_occupancy
  Na  Na0  1  0.28240033  0.21653952  0.03321167  1
  Na  Na1  1  0.21689228  0.89961833  0.46484634  1
  Na  Na2  1  0.51720065  0.58929256  0.15540919  1
  Na  Na3  1  0.58988368  0.90659352  0.34198231  1
  Na  Na4  1  0.91492699  0.59638452  0.15950664  1
  Na  Na5  1  0.90369399  0.21767037  0.03197456  1
  Na  Na6  1  0.59286128  0.52917897  0.34280556  1
  Na  Na7  1  0.21541639  0.28423589  0.46573655  1
  Na  Na8  1  0.78311587  0.71667364  0.53287265  1
  Na  Na9  1  0.60418331  0.28537363  0.46667066  1
  Na  Na10  1  0.90772621  0.97193337  0.16263504  1
  Na  Na11  1  0.10024542  0.78317373  0.96514130  1
  Na  Na12  1  0.41035901  0.48326763  0.65546655  1
  Na  Na13  1  0.09395905  0.41008591  0.84197803  1
  Na  Na14  1  0.40394190  0.08488719  0.65912510  1
  Na  Na15  1  0.47068270  0.40791476  0.84250221  1
  Na  Na16  1  0.78197641  0.09635722  0.53199176  1
  Na  Na17  1  0.71633900  0.78473803  0.96543974  1
  Na  Na18  1  0.02849042  0.09320121  0.66257622  1
  Na  Na19  1  0.71468274  0.39556521  0.96663651  1
  Bi  Bi0  1  0.24611044  0.74942072  0.24827927  1
  Bi  Bi1  1  0.00850235  0.50382694  0.49934089  1
  Bi  Bi2  1  0.24500343  0.24549094  0.25253227  1
  Bi  Bi3  1  0.49701199  0.99237274  0.99950161  1
  Bi  Bi4  1  0.75487654  0.25300327  0.25000161  1
  Bi  Bi5  1  0.24985754  0.75402888  0.74822974  1
  Bi  Bi6  1  0.75290354  0.75469767  0.75198801  1
  Bi  Bi7  1  0.74610633  0.24641305  0.75064432  1
  P  P0  1  0.81065976  0.68554614  0.06248391  1
  P  P1  1  0.68738395  0.81272357  0.43753881  1
  P  P2  1  0.31445006  0.18940505  0.56248828  1
  P  P3  1  0.18731010  0.31230429  0.93748794  1
  C  C0  1  0.19301838  0.91936476  0.13619069  1
  C  C1  1  0.58828090  0.91941784  0.14091184  1
  C  C2  1  0.10828334  0.38712562  0.16808041  1
  C  C3  1  0.30442643  0.58297438  0.35927185  1
  C  C4  1  0.07983158  0.80718649  0.63668337  1
  C  C5  1  0.58307742  0.30638126  0.13873388  1
  C  C6  1  0.39506710  0.11466312  0.33469113  1
  C  C7  1  0.08005544  0.41095412  0.64034285  1
  C  C8  1  0.91818560  0.58157337  0.36116263  1
  C  C9  1  0.61154568  0.88929729  0.66824881  1
  C  C10  1  0.91602409  0.19679976  0.36116650  1
  C  C11  1  0.41961827  0.69528331  0.85903389  1
  C  C12  1  0.69351454  0.41669737  0.63852925  1
  C  C13  1  0.88716117  0.60542194  0.83451012  1
  C  C14  1  0.41988434  0.08351556  0.86029847  1
  C  C15  1  0.80234531  0.08275206  0.86238421  1
  O  O0  1  0.25625001  0.86710199  0.06994321  1
  O  O1  1  0.13358094  0.84649521  0.19472254  1
  O  O2  1  0.64302701  0.97376802  0.07507623  1
  O  O3  1  0.10921417  0.51542024  0.17459258  1
  O  O4  1  0.46443675  0.79665990  0.14712698  1
  O  O5  1  0.04766102  0.69920698  0.35618045  1
  O  O6  1  0.38438139  0.98365746  0.33357945  1
  O  O7  1  0.65901934  0.59426457  0.03003541  1
  O  O8  1  0.90292174  0.84077523  0.03346983  1
  O  O9  1  0.23055476  0.37964437  0.16718129  1
  O  O10  1  0.36923375  0.65278682  0.29873290  1
  O  O11  1  0.90350167  0.59437406  0.03199570  1
  O  O12  1  0.77679914  0.71269772  0.15452105  1
  O  O13  1  0.18670652  0.04546555  0.14289595  1
  O  O14  1  0.52831500  0.24187472  0.07341946  1
  O  O15  1  0.02656780  0.74091081  0.57041835  1
  O  O16  1  0.23441295  0.63780452  0.42102631  1
  O  O17  1  0.98543273  0.14534610  0.29750460  1
  O  O18  1  0.51295688  0.36502906  0.19896024  1
  O  O19  1  0.30923824  0.45822010  0.35690968  1
  O  O20  1  0.59881887  0.90903274  0.46648638  1
  O  O21  1  0.71265050  0.77998486  0.34509625  1
  O  O22  1  0.71009181  0.31351818  0.14326227  1
  O  O23  1  0.20429793  0.81476206  0.64334292  1
  O  O24  1  0.27614810  0.12818565  0.33683942  1
  O  O25  1  0.13475569  0.46153211  0.57415038  1
  O  O26  1  0.59939402  0.65739156  0.46730331  1
  O  O27  1  0.83859691  0.90436090  0.47117027  1
  O  O28  1  0.36239714  0.01368521  0.79661885  1
  O  O29  1  0.84598009  0.51560128  0.30152117  1
  O  O30  1  0.01683597  0.72222202  0.83418672  1
  O  O31  1  0.52593878  0.23426797  0.33499553  1
  O  O32  1  0.48361210  0.77035976  0.67518071  1
  O  O33  1  0.98136729  0.26360372  0.16362432  1
  O  O34  1  0.14975929  0.48285166  0.70044049  1
  O  O35  1  0.66214750  0.99022980  0.20011856  1
  O  O36  1  0.15940383  0.09702560  0.53345265  1
  O  O37  1  0.40589220  0.34111778  0.53001765  1
  O  O38  1  0.85917092  0.52619595  0.42686926  1
  O  O39  1  0.73535120  0.88172452  0.66559398  1
  O  O40  1  0.29401697  0.69077569  0.85524458  1
  O  O41  1  0.78696040  0.18884505  0.35976117  1
  O  O42  1  0.40545033  0.09631954  0.53195468  1
  O  O43  1  0.28742124  0.22346385  0.65450552  1
  O  O44  1  0.68830370  0.54191696  0.64328152  1
  O  O45  1  0.48492241  0.62908692  0.79970957  1
  O  O46  1  0.75899010  0.36176752  0.57409333  1
  O  O47  1  0.00779602  0.86738908  0.69457593  1
  O  O48  1  0.79678928  0.95347181  0.85900347  1
  O  O49  1  0.97425297  0.25842480  0.42549030  1
  O  O50  1  0.48335801  0.76664596  0.92125324  1
  O  O51  1  0.09099439  0.40092989  0.96656499  1
  O  O52  1  0.22023019  0.28688292  0.84504075  1
  O  O53  1  0.63128296  0.34545070  0.69861620  1
  O  O54  1  0.76708547  0.61710079  0.83492840  1
  O  O55  1  0.09532794  0.16103822  0.97126260  1
  O  O56  1  0.34274206  0.40031295  0.96709489  1
  O  O57  1  0.61995955  0.01746352  0.66500301  1
  O  O58  1  0.95525190  0.28511612  0.64605733  1
  O  O59  1  0.54162213  0.21270409  0.85918865  1
  O  O60  1  0.87379397  0.47342197  0.83577028  1
  O  O61  1  0.36013165  0.02644457  0.92512728  1
  O  O62  1  0.86582774  0.15172014  0.80157704  1
  O  O63  1  0.74119932  0.14282339  0.92706679  1
loop_
_geom_bond_atom_site_label_1
_geom_bond_atom_site_label_2
_geom_bond_distance
_geom_bond_site_symmetry_2
Na0 O55 2.251267 1_554
Na0 O56 2.256046 1_554
Na0 O9 2.609234 1_555
Na0 O61 2.614443 1_554
Na0 O13 2.666749 1_555
Na0 O14 2.711142 1_555
Na1 O42 2.326616 1_565
Na1 O36 2.330750 1_565
Na1 O15 2.573355 1_555
Na1 O6 2.584065 1_555
Na1 O16 2.685732 1_555
Na1 O5 2.685857 1_555
Na2 O7 2.314625 1_555
Na2 O12 2.336736 1_555
Na2 O4 2.514196 1_555
Na2 O18 2.627204 1_555
Na2 O9 2.666074 1_555
Na2 O10 2.689445 1_555
Na3 O20 2.251810 1_555
Na3 O21 2.253283 1_555
Na3 O10 2.575837 1_555
Na3 O41 2.597186 1_565
Na3 O6 2.670743 1_555
Na3 O35 2.702841 1_555
Na4 O12 2.313382 1_555
Na4 O11 2.315152 1_555
Na4 O1 2.512536 1_655
Na4 O22 2.623095 1_555
Na4 O3 2.634545 1_655
Na4 O29 2.697362 1_555
Na5 O55 2.250452 1_654
Na5 O51 2.252436 1_654
Na5 O33 2.548670 1_555
Na5 O63 2.575895 1_554
Na5 O2 2.729154 1_545
Na5 O22 2.760089 1_555
Na6 O21 2.250139 1_555
Na6 O26 2.253550 1_555
Na6 O29 2.584327 1_555
Na6 O19 2.608159 1_555
Na6 O31 2.746408 1_555
Na6 O18 2.749816 1_555
Na7 O37 2.305398 1_555
Na7 O36 2.319600 1_555
Na7 O24 2.538463 1_555
Na7 O25 2.540810 1_555
Na7 O49 2.661696 1_455
Na7 O19 2.678309 1_555
Na8 O27 2.252828 1_555
Na8 O26 2.253020 1_555
Na8 O38 2.592598 1_555
Na8 O39 2.592742 1_555
Na8 O15 2.667792 1_655
Na8 O44 2.705256 1_555
Na9 O37 2.313740 1_555
Na9 O42 2.321790 1_555
Na9 O31 2.540145 1_555
Na9 O46 2.554403 1_555
Na9 O41 2.652251 1_555
Na9 O38 2.670666 1_555
Na10 O12 2.313424 1_555
Na10 O8 2.332096 1_555
Na10 O35 2.534361 1_555
Na10 O13 2.543976 1_665
Na10 O17 2.633574 1_565
Na10 O33 2.720117 1_565
Na11 O11 2.327734 1_456
Na11 O8 2.332560 1_456
Na11 O0 2.508098 1_556
Na11 O30 2.533395 1_555
Na11 O61 2.707881 1_565
Na11 O40 2.732534 1_555
Na12 O37 2.314483 1_555
Na12 O43 2.335072 1_555
Na12 O44 2.590950 1_555
Na12 O34 2.593406 1_555
Na12 O32 2.619866 1_555
Na12 O45 2.707569 1_555
Na13 O51 2.252549 1_555
Na13 O52 2.253874 1_555
Na13 O40 2.593017 1_555
Na13 O62 2.622877 1_455
Na13 O34 2.675628 1_555
Na13 O60 2.705892 1_455
Na14 O42 2.310711 1_555
Na14 O43 2.316613 1_555
Na14 O23 2.517443 1_545
Na14 O53 2.626582 1_555
Na14 O28 2.629532 1_555
Na14 O57 2.690646 1_555
Na15 O52 2.249456 1_555
Na15 O56 2.256587 1_555
Na15 O45 2.538493 1_555
Na15 O59 2.579315 1_555
Na15 O54 2.737724 1_555
Na15 O53 2.751768 1_555
Na16 O20 2.251049 1_545
Na16 O27 2.251166 1_545
Na16 O57 2.582343 1_555
Na16 O49 2.606220 1_555
Na16 O58 2.749556 1_555
Na16 O46 2.750313 1_555
Na17 O7 2.306632 1_556
Na17 O8 2.318812 1_556
Na17 O54 2.588238 1_555
Na17 O2 2.598142 1_556
Na17 O48 2.631821 1_555
Na17 O50 2.652892 1_555
Na18 O43 2.314118 1_555
Na18 O36 2.332903 1_555
Na18 O47 2.455686 1_545
Na18 O58 2.562342 1_455
Na18 O62 2.689781 1_455
Na18 O39 2.723966 1_445
Na19 O7 2.314152 1_556
Na19 O11 2.319460 1_556
Na19 O60 2.540604 1_555
Na19 O14 2.554764 1_556
Na19 O63 2.643938 1_555
Na19 O59 2.652106 1_555
Bi0 O3 2.339893 1_555
Bi0 O5 2.350604 1_555
Bi0 O1 2.371500 1_555
Bi0 O4 2.399664 1_555
Bi0 O10 2.422565 1_555
Bi0 O6 2.444415 1_555
Bi1 O16 2.327871 1_555
Bi1 O25 2.362888 1_555
Bi1 O15 2.367972 1_555
Bi1 O38 2.405834 1_455
Bi1 O49 2.411686 1_455
Bi1 O46 2.460159 1_455
Bi2 O17 2.337124 1_455
Bi2 O24 2.357026 1_555
Bi2 O13 2.378162 1_555
Bi2 O19 2.392796 1_555
Bi2 O9 2.412551 1_555
Bi2 O18 2.438060 1_555
Bi3 O50 2.322359 1_555
Bi3 O0 2.336583 1_556
Bi3 O61 2.394704 1_565
Bi3 O2 2.397304 1_556
Bi3 O63 2.432077 1_565
Bi3 O14 2.454345 1_566
Bi4 O35 2.377245 1_545
Bi4 O29 2.381787 1_555
Bi4 O31 2.383812 1_555
Bi4 O22 2.393070 1_555
Bi4 O33 2.394300 1_555
Bi4 O41 2.396069 1_555
Bi5 O28 2.343547 1_565
Bi5 O32 2.358582 1_555
Bi5 O23 2.368075 1_555
Bi5 O30 2.395122 1_555
Bi5 O40 2.410707 1_555
Bi5 O34 2.440499 1_555
Bi6 O48 2.338015 1_555
Bi6 O47 2.346434 1_655
Bi6 O39 2.387438 1_555
Bi6 O54 2.404400 1_555
Bi6 O45 2.421077 1_555
Bi6 O44 2.440709 1_555
Bi7 O60 2.374776 1_555
Bi7 O58 2.380430 1_555
Bi7 O62 2.383005 1_555
Bi7 O57 2.386512 1_555
Bi7 O53 2.388914 1_555
Bi7 O59 2.396900 1_555
C0 O1 1.293142 1_555
C0 O0 1.299295 1_555
C0 O13 1.310006 1_565
C1 O4 1.288457 1_555
C1 O35 1.308324 1_555
C1 O2 1.308954 1_555
C2 O3 1.296016 1_555
C2 O9 1.303551 1_555
C2 O33 1.307115 1_455
C3 O16 1.296478 1_555
C3 O10 1.305063 1_555
C3 O19 1.305858 1_555
C4 O23 1.291129 1_555
C4 O47 1.299281 1_555
C4 O15 1.311600 1_555
C5 O18 1.301293 1_555
C5 O14 1.302294 1_555
C5 O22 1.306511 1_555
C6 O24 1.297469 1_555
C6 O6 1.300111 1_545
C6 O31 1.308142 1_555
C7 O25 1.296923 1_555
C7 O34 1.299605 1_555
C7 O58 1.309141 1_455
C8 O5 1.291725 1_655
C8 O29 1.304158 1_555
C8 O38 1.311100 1_555
C9 O32 1.291390 1_555
C9 O57 1.303211 1_565
C9 O39 1.311600 1_555
C10 O17 1.297429 1_555
C10 O49 1.302089 1_555
C10 O41 1.306627 1_555
C11 O40 1.300309 1_555
C11 O50 1.300829 1_555
C11 O45 1.306573 1_555
C12 O46 1.301430 1_555
C12 O44 1.302492 1_555
C12 O53 1.306382 1_555
C13 O30 1.288313 1_655
C13 O54 1.307175 1_555
C13 O60 1.310011 1_555
C14 O28 1.292650 1_555
C14 O61 1.305257 1_555
C14 O59 1.308366 1_555
C15 O48 1.295876 1_545
C15 O62 1.304419 1_555
C15 O63 1.306865 1_555
O7 P0 1.560396 1_555
O8 P0 1.561275 1_555
O11 P0 1.560000 1_555
O12 P0 1.561128 1_555
O20 P1 1.567742 1_555
O21 P1 1.568034 1_555
O26 P1 1.568574 1_555
O27 P1 1.567188 1_555
O36 P2 1.560718 1_555
O37 P2 1.560546 1_555
O42 P2 1.560587 1_555
O43 P2 1.560732 1_555
O51 P3 1.568441 1_555
O52 P3 1.568197 1_555
O55 P3 1.568315 1_555
O56 P3 1.569009 1_555
