# generated using pymatgen
data_Li3Bi(PO4)2
_symmetry_space_group_name_H-M   'P 1'
_cell_length_a   5.20425907
_cell_length_b   5.20425907
_cell_length_c   15.14421391
_cell_angle_alpha   83.44138098
_cell_angle_beta   83.44138098
_cell_angle_gamma   54.37259545
_symmetry_Int_Tables_number   1
_chemical_formula_structural   Li3Bi(PO4)2
_chemical_formula_sum   'Li6 Bi2 P4 O16'
_cell_volume   330.63588433
_cell_formula_units_Z   2
loop_
 _symmetry_equiv_pos_site_id
 _symmetry_equiv_pos_as_xyz
  1  'x, y, z'
loop_
 _atom_site_type_symbol
 _atom_site_label
 _atom_site_symmetry_multiplicity
 _atom_site_fract_x
 _atom_site_fract_y
 _atom_site_fract_z
 _atom_site_occupancy
  Li  Li0  1  0.35371200  0.29386900  0.17967400  1
  Li  Li1  1  0.29386900  0.35371200  0.67967400  1
  Li  Li2  1  0.70613100  0.64628800  0.32032600  1
  Li  Li3  1  0.64628800  0.70613100  0.82032600  1
  Li  Li4  1  0.04915300  0.95084700  0.25000000  1
  Li  Li5  1  0.95084700  0.04915300  0.75000000  1
  Bi  Bi0  1  0.00000000  0.00000000  0.00000000  1
  Bi  Bi1  1  0.00000000  0.00000000  0.50000000  1
  P  P0  1  0.37615400  0.31158600  0.37404300  1
  P  P1  1  0.31158600  0.37615400  0.87404300  1
  P  P2  1  0.68841400  0.62384600  0.12595700  1
  P  P3  1  0.62384600  0.68841400  0.62595700  1
  O  O0  1  0.72607300  0.21248500  0.35232400  1
  O  O1  1  0.21248500  0.72607300  0.85232400  1
  O  O2  1  0.25329200  0.49326500  0.45926300  1
  O  O3  1  0.49326500  0.25329200  0.95926300  1
  O  O4  1  0.16529500  0.51115100  0.29482900  1
  O  O5  1  0.99468500  0.61594300  0.10721200  1
  O  O6  1  0.51115100  0.16529500  0.79482900  1
  O  O7  1  0.61594300  0.99468500  0.60721200  1
  O  O8  1  0.38405700  0.00531500  0.39278800  1
  O  O9  1  0.48884900  0.83470500  0.20517100  1
  O  O10  1  0.00531500  0.38405700  0.89278800  1
  O  O11  1  0.83470500  0.48884900  0.70517100  1
  O  O12  1  0.50673500  0.74670800  0.04073700  1
  O  O13  1  0.74670800  0.50673500  0.54073700  1
  O  O14  1  0.78751500  0.27392700  0.14767600  1
  O  O15  1  0.27392700  0.78751500  0.64767600  1
loop_
_geom_bond_atom_site_label_1
_geom_bond_atom_site_label_2
_geom_bond_distance
_geom_bond_site_symmetry_2
Li0 O5 1.975970 1_455
Li0 O4 2.012349 1_555
Li0 O9 2.060892 1_545
Li0 O14 2.197967 1_555
Li1 O7 1.975970 1_545
Li1 O6 2.012349 1_555
Li1 O11 2.060892 1_455
Li1 O15 2.197967 1_555
Li2 O8 1.975970 1_565
Li2 O9 2.012349 1_555
Li2 O4 2.060892 1_655
Li2 O0 2.197967 1_555
Li3 O10 1.975970 1_655
Li3 O11 2.012349 1_555
Li3 O6 2.060892 1_565
Li3 O1 2.197967 1_555
Li4 O4 2.046952 1_555
Li4 O9 2.046952 1_555
Li4 O0 2.074124 1_465
Li4 O14 2.074124 1_465
Li5 O6 2.046952 1_555
Li5 O11 2.046952 1_555
Li5 O1 2.074124 1_645
Li5 O15 2.074124 1_645
Bi0 O12 2.282291 1_545
Bi0 O3 2.282291 1_454
Bi0 O5 2.438180 1_445
Bi0 O10 2.438180 1_554
Bi0 O14 2.565845 1_455
Bi0 O1 2.565845 1_544
Bi1 O13 2.282291 1_455
Bi1 O2 2.282291 1_545
Bi1 O7 2.438180 1_445
Bi1 O8 2.438180 1_555
Bi1 O15 2.565845 1_545
Bi1 O0 2.565845 1_455
O0 P0 1.580567 1_555
O1 P1 1.580567 1_555
O2 P0 1.534392 1_555
O3 P1 1.534392 1_555
O4 P0 1.552519 1_555
O5 P2 1.563895 1_555
O6 P1 1.552519 1_555
O7 P3 1.563895 1_555
O8 P0 1.563895 1_555
O9 P2 1.552519 1_555
O10 P1 1.563895 1_555
O11 P3 1.552519 1_555
O12 P2 1.534392 1_555
O13 P3 1.534392 1_555
O14 P2 1.580567 1_555
O15 P3 1.580567 1_555
