# generated using pymatgen
data_Li4Cr3Co5O16
_symmetry_space_group_name_H-M   'P 1'
_cell_length_a   5.76613400
_cell_length_b   5.81468267
_cell_length_c   9.44274826
_cell_angle_alpha   90.95006339
_cell_angle_beta   89.73303230
_cell_angle_gamma   119.70001213
_symmetry_Int_Tables_number   1
_chemical_formula_structural   Li4Cr3Co5O16
_chemical_formula_sum   'Li4 Cr3 Co5 O16'
_cell_volume   274.96748538
_cell_formula_units_Z   1
loop_
 _symmetry_equiv_pos_site_id
 _symmetry_equiv_pos_as_xyz
  1  'x, y, z'
loop_
 _atom_site_type_symbol
 _atom_site_label
 _atom_site_symmetry_multiplicity
 _atom_site_fract_x
 _atom_site_fract_y
 _atom_site_fract_z
 _atom_site_occupancy
  Li  Li0  1  0.34680000  0.67183700  0.10873000  1
  Li  Li1  1  0.98123800  0.99173400  0.00424700  1
  Li  Li2  1  0.98485600  0.99360600  0.50240000  1
  Li  Li3  1  0.67596300  0.33728300  0.60446500  1
  Cr  Cr0  1  0.17246300  0.34107200  0.78650100  1
  Cr  Cr1  1  0.16892900  0.83541900  0.78968900  1
  Cr  Cr2  1  0.33915300  0.17116800  0.28495400  1
  Co  Co0  1  0.32129200  0.66114200  0.50950800  1
  Co  Co1  1  0.65942600  0.83101300  0.78325100  1
  Co  Co2  1  0.67196000  0.32721000  0.01248000  1
  Co  Co3  1  0.82964600  0.16929600  0.28551300  1
  Co  Co4  1  0.83332200  0.66323400  0.28735800  1
  O  O0  1  0.14805200  0.32088400  0.40138200  1
  O  O1  1  0.04124000  0.52847700  0.66301000  1
  O  O2  1  0.34993100  0.67918700  0.89488600  1
  O  O3  1  0.98735400  0.99303300  0.68927800  1
  O  O4  1  0.98494100  0.99311900  0.19202400  1
  O  O5  1  0.15143700  0.82892600  0.39700900  1
  O  O6  1  0.49460500  0.53260900  0.66020800  1
  O  O7  1  0.48335000  0.96444100  0.66647700  1
  O  O8  1  0.32198400  0.15342100  0.90086000  1
  O  O9  1  0.66741300  0.82981500  0.39087300  1
  O  O10  1  0.53479000  0.03802300  0.16437400  1
  O  O11  1  0.53518600  0.48848700  0.16095100  1
  O  O12  1  0.68325800  0.34117700  0.38974300  1
  O  O13  1  0.82543100  0.15830100  0.89986100  1
  O  O14  1  0.96787300  0.48206300  0.16995200  1
  O  O15  1  0.83810700  0.67372200  0.89217300  1
loop_
_geom_bond_atom_site_label_1
_geom_bond_atom_site_label_2
_geom_bond_distance
_geom_bond_site_symmetry_2
Li0 O10 1.914659 1_565
Li0 O11 1.931249 1_555
Li0 O14 1.986477 1_455
Li0 O2 2.020243 1_554
Li1 O4 1.773196 1_555
Li1 O13 1.902345 1_564
Li1 O15 1.910867 1_554
Li1 O8 1.969643 1_664
Li2 O3 1.764840 1_555
Li2 O9 1.903630 1_555
Li2 O0 1.922034 1_665
Li2 O5 1.923753 1_655
Li3 O1 1.909964 1_655
Li3 O6 1.952570 1_555
Li3 O7 1.981548 1_545
Li3 O12 2.028075 1_555
Cr0 O3 1.970957 1_445
Cr0 O2 1.977206 1_555
Cr0 O1 1.996781 1_555
Cr0 O8 2.019882 1_555
Cr0 O6 2.021474 1_555
Cr0 O13 2.046918 1_455
Cr1 O8 1.904513 1_565
Cr1 O15 1.922250 1_455
Cr1 O1 1.947732 1_555
Cr1 O3 1.955504 1_455
Cr1 O7 1.965938 1_555
Cr1 O2 1.969866 1_555
Cr2 O4 1.976022 1_445
Cr2 O12 1.983795 1_555
Cr2 O10 1.998138 1_555
Cr2 O11 2.011425 1_555
Cr2 O0 2.021951 1_555
Cr2 O5 2.043552 1_545
Co0 O0 1.984650 1_555
Co0 O5 2.007596 1_555
Co0 O1 2.021039 1_555
Co0 O9 2.067840 1_555
Co0 O6 2.090667 1_555
Co0 O7 2.115092 1_555
Co1 O3 1.870094 1_555
Co1 O2 1.878167 1_555
Co1 O6 1.890289 1_555
Co1 O7 1.915186 1_555
Co1 O13 1.971204 1_565
Co1 O15 1.982595 1_555
Co2 O13 1.922619 1_554
Co2 O11 2.036147 1_555
Co2 O8 2.041619 1_554
Co2 O10 2.064422 1_555
Co2 O14 2.095241 1_555
Co2 O15 2.102626 1_554
Co3 O12 1.864306 1_555
Co3 O10 1.866793 1_555
Co3 O4 1.871418 1_545
Co3 O0 1.930795 1_655
Co3 O14 1.937735 1_555
Co3 O9 1.997026 1_545
Co4 O5 1.896933 1_655
Co4 O12 1.907050 1_555
Co4 O4 1.908480 1_555
Co4 O11 1.913239 1_555
Co4 O9 1.920142 1_555
Co4 O14 1.924552 1_555
