# generated using pymatgen
data_Fe7O8
_symmetry_space_group_name_H-M   'P 1'
_cell_length_a   6.08702900
_cell_length_b   6.16343028
_cell_length_c   10.73150246
_cell_angle_alpha   73.78770652
_cell_angle_beta   73.63883771
_cell_angle_gamma   60.65669731
_symmetry_Int_Tables_number   1
_chemical_formula_structural   Fe7O8
_chemical_formula_sum   'Fe14 O16'
_cell_volume   331.91560120
_cell_formula_units_Z   2
loop_
 _symmetry_equiv_pos_site_id
 _symmetry_equiv_pos_as_xyz
  1  'x, y, z'
loop_
 _atom_site_type_symbol
 _atom_site_label
 _atom_site_symmetry_multiplicity
 _atom_site_fract_x
 _atom_site_fract_y
 _atom_site_fract_z
 _atom_site_occupancy
  Fe  Fe0  1  0.00000000  0.50000000  0.00000000  1
  Fe  Fe1  1  0.50000000  0.00000000  0.50000000  1
  Fe  Fe2  1  0.26024400  0.24393800  0.74842800  1
  Fe  Fe3  1  0.73975600  0.75606200  0.25157200  1
  Fe  Fe4  1  0.50000000  0.50000000  0.00000000  1
  Fe  Fe5  1  0.00000000  0.00000000  0.50000000  1
  Fe  Fe6  1  0.50000000  0.00000000  0.00000000  1
  Fe  Fe7  1  0.00000000  0.50000000  0.50000000  1
  Fe  Fe8  1  0.75103200  0.25766100  0.75000500  1
  Fe  Fe9  1  0.24896800  0.74233900  0.24999500  1
  Fe  Fe10  1  0.24170200  0.75134900  0.75179700  1
  Fe  Fe11  1  0.75829800  0.24865100  0.24820300  1
  Fe  Fe12  1  0.00000000  0.00000000  0.00000000  1
  Fe  Fe13  1  0.50000000  0.50000000  0.50000000  1
  O  O0  1  0.87871100  0.85466800  0.38237800  1
  O  O1  1  0.38301400  0.35424000  0.88121700  1
  O  O2  1  0.12128900  0.14533200  0.61762200  1
  O  O3  1  0.61698600  0.64576000  0.11878300  1
  O  O4  1  0.14567900  0.61423300  0.61619900  1
  O  O5  1  0.64563900  0.11965600  0.11602400  1
  O  O6  1  0.37622100  0.84105800  0.37975700  1
  O  O7  1  0.88545600  0.34422100  0.88092500  1
  O  O8  1  0.37107700  0.37312200  0.39217700  1
  O  O9  1  0.86507800  0.87949300  0.89146900  1
  O  O10  1  0.62892300  0.62687800  0.60782300  1
  O  O11  1  0.13492200  0.12050700  0.10853100  1
  O  O12  1  0.62377900  0.15894200  0.62024300  1
  O  O13  1  0.11454400  0.65577900  0.11907500  1
  O  O14  1  0.85432100  0.38576700  0.38380100  1
  O  O15  1  0.35436100  0.88034400  0.88397600  1
loop_
_geom_bond_atom_site_label_1
_geom_bond_atom_site_label_2
_geom_bond_distance
_geom_bond_site_symmetry_2
Fe0 O9 2.153339 1_454
Fe0 O11 2.153339 1_555
Fe0 O1 2.186291 1_554
Fe0 O3 2.186291 1_455
Fe0 O13 2.209989 1_555
Fe0 O7 2.209989 1_454
Fe1 O8 2.121396 1_555
Fe1 O10 2.121396 1_545
Fe1 O2 2.162865 1_555
Fe1 O0 2.162865 1_545
Fe1 O12 2.273644 1_555
Fe1 O6 2.273644 1_545
Fe2 O12 2.148198 1_555
Fe2 O1 2.165686 1_555
Fe2 O2 2.168960 1_555
Fe2 O15 2.203893 1_545
Fe2 O7 2.211242 1_455
Fe2 O4 2.213134 1_555
Fe3 O6 2.148198 1_555
Fe3 O3 2.165686 1_555
Fe3 O0 2.168960 1_555
Fe3 O5 2.203893 1_565
Fe3 O13 2.211242 1_655
Fe3 O14 2.213134 1_555
Fe4 O1 2.171851 1_554
Fe4 O3 2.171851 1_555
Fe4 O15 2.187879 1_554
Fe4 O5 2.187879 1_555
Fe4 O13 2.201793 1_555
Fe4 O7 2.201793 1_554
Fe5 O6 2.170595 1_545
Fe5 O12 2.170595 1_455
Fe5 O2 2.178361 1_555
Fe5 O0 2.178361 1_445
Fe5 O14 2.212582 1_455
Fe5 O4 2.212582 1_545
Fe6 O11 2.062462 1_555
Fe6 O9 2.062462 1_544
Fe6 O1 2.081458 1_554
Fe6 O3 2.081458 1_545
Fe6 O5 2.157656 1_555
Fe6 O15 2.157656 1_544
Fe7 O2 2.078310 1_555
Fe7 O0 2.078310 1_455
Fe7 O8 2.086631 1_555
Fe7 O10 2.086631 1_455
Fe7 O14 2.135918 1_455
Fe7 O4 2.135918 1_555
Fe8 O7 2.102890 1_555
Fe8 O12 2.110000 1_555
Fe8 O1 2.177000 1_555
Fe8 O2 2.189328 1_655
Fe8 O10 2.258645 1_555
Fe8 O9 2.291583 1_545
Fe9 O13 2.102890 1_555
Fe9 O6 2.110000 1_555
Fe9 O3 2.177000 1_555
Fe9 O0 2.189328 1_455
Fe9 O8 2.258645 1_555
Fe9 O11 2.291583 1_565
Fe10 O4 2.196214 1_555
Fe10 O15 2.196945 1_555
Fe10 O9 2.253146 1_455
Fe10 O10 2.317171 1_555
Fe10 O1 2.317515 1_555
Fe10 O2 2.324844 1_565
Fe11 O14 2.196214 1_555
Fe11 O5 2.196945 1_555
Fe11 O11 2.253146 1_655
Fe11 O8 2.317171 1_555
Fe11 O3 2.317515 1_555
Fe11 O0 2.324844 1_545
Fe12 O13 2.039236 1_545
Fe12 O7 2.039236 1_454
Fe12 O15 2.046326 1_544
Fe12 O5 2.046326 1_455
Fe12 O11 2.049991 1_555
Fe12 O9 2.049991 1_444
Fe13 O12 2.032826 1_555
Fe13 O6 2.032826 1_555
Fe13 O8 2.045622 1_555
Fe13 O10 2.045622 1_555
Fe13 O14 2.046732 1_555
Fe13 O4 2.046732 1_555
