# generated using pymatgen
data_Na3B5(HO5)2
_symmetry_space_group_name_H-M   'P 1'
_cell_length_a   6.09852400
_cell_length_b   11.22993300
_cell_length_c   11.33900100
_cell_angle_alpha   90.00000000
_cell_angle_beta   90.00000000
_cell_angle_gamma   90.00000000
_symmetry_Int_Tables_number   1
_chemical_formula_structural   Na3B5(HO5)2
_chemical_formula_sum   'Na12 B20 H8 O40'
_cell_volume   776.56300299
_cell_formula_units_Z   4
loop_
 _symmetry_equiv_pos_site_id
 _symmetry_equiv_pos_as_xyz
  1  'x, y, z'
loop_
 _atom_site_type_symbol
 _atom_site_label
 _atom_site_symmetry_multiplicity
 _atom_site_fract_x
 _atom_site_fract_y
 _atom_site_fract_z
 _atom_site_occupancy
  Na  Na0  1  0.91857900  0.25009800  0.86125800  1
  Na  Na1  1  0.08142100  0.75009800  0.13874200  1
  Na  Na2  1  0.91857900  0.75009800  0.63874200  1
  Na  Na3  1  0.08142100  0.25009800  0.36125800  1
  Na  Na4  1  0.47488500  0.25609500  0.06587000  1
  Na  Na5  1  0.52511500  0.75609500  0.93413000  1
  Na  Na6  1  0.47488500  0.75609500  0.43413000  1
  Na  Na7  1  0.52511500  0.25609500  0.56587000  1
  Na  Na8  1  0.65152500  0.50526700  0.74382600  1
  Na  Na9  1  0.34847500  0.00526700  0.25617400  1
  Na  Na10  1  0.65152500  0.00526700  0.75617400  1
  Na  Na11  1  0.34847500  0.50526700  0.24382600  1
  B  B0  1  0.86273900  0.51282000  0.24717000  1
  B  B1  1  0.13726100  0.01282000  0.75283000  1
  B  B2  1  0.86273900  0.01282000  0.25283000  1
  B  B3  1  0.13726100  0.51282000  0.74717000  1
  B  B4  1  0.72289800  0.50854600  0.45804500  1
  B  B5  1  0.27710200  0.00854600  0.54195500  1
  B  B6  1  0.72289800  0.00854600  0.04195500  1
  B  B7  1  0.27710200  0.50854600  0.95804500  1
  B  B8  1  0.96127600  0.34874900  0.10469900  1
  B  B9  1  0.03872400  0.84874900  0.89530100  1
  B  B10  1  0.96127600  0.84874900  0.39530100  1
  B  B11  1  0.03872400  0.34874900  0.60469900  1
  B  B12  1  0.06376700  0.62740900  0.41163900  1
  B  B13  1  0.93623300  0.12740900  0.58836100  1
  B  B14  1  0.06376700  0.12740900  0.08836100  1
  B  B15  1  0.93623300  0.62740900  0.91163900  1
  B  B16  1  0.67268900  0.49714800  0.03986300  1
  B  B17  1  0.32731100  0.99714800  0.96013700  1
  B  B18  1  0.67268900  0.99714800  0.46013700  1
  B  B19  1  0.32731100  0.49714800  0.53986300  1
  H  H0  1  0.41504200  0.17765300  0.81979800  1
  H  H1  1  0.58495800  0.67765300  0.18020200  1
  H  H2  1  0.41504200  0.67765300  0.68020200  1
  H  H3  1  0.58495800  0.17765300  0.31979800  1
  H  H4  1  0.41295000  0.32045900  0.81596400  1
  H  H5  1  0.58705000  0.82045900  0.18403600  1
  H  H6  1  0.41295000  0.82045900  0.68403600  1
  H  H7  1  0.58705000  0.32045900  0.31596400  1
  O  O0  1  0.00103300  0.40756900  0.20888100  1
  O  O1  1  0.99896700  0.90756900  0.79111900  1
  O  O2  1  0.00103300  0.90756900  0.29111900  1
  O  O3  1  0.99896700  0.40756900  0.70888100  1
  O  O4  1  0.00333100  0.60833100  0.28823100  1
  O  O5  1  0.99666900  0.10833100  0.71176900  1
  O  O6  1  0.00333100  0.10833100  0.21176900  1
  O  O7  1  0.99666900  0.60833100  0.78823100  1
  O  O8  1  0.72231900  0.55642700  0.15223400  1
  O  O9  1  0.27768100  0.05642700  0.84776600  1
  O  O10  1  0.72231900  0.05642700  0.34776600  1
  O  O11  1  0.27768100  0.55642700  0.65223400  1
  O  O12  1  0.71576100  0.46435800  0.34455500  1
  O  O13  1  0.28423900  0.96435800  0.65544500  1
  O  O14  1  0.71576100  0.96435800  0.15544500  1
  O  O15  1  0.28423900  0.46435800  0.84455500  1
  O  O16  1  0.57026900  0.47122500  0.54088300  1
  O  O17  1  0.42973100  0.97122500  0.45911700  1
  O  O18  1  0.57026900  0.97122500  0.95911700  1
  O  O19  1  0.42973100  0.47122500  0.04088300  1
  O  O20  1  0.88057500  0.58923700  0.49200300  1
  O  O21  1  0.11942500  0.08923700  0.50799700  1
  O  O22  1  0.88057500  0.08923700  0.00799700  1
  O  O23  1  0.11942500  0.58923700  0.99200300  1
  O  O24  1  0.09813900  0.25810000  0.06737100  1
  O  O25  1  0.90186100  0.75810000  0.93262900  1
  O  O26  1  0.09813900  0.75810000  0.43262900  1
  O  O27  1  0.90186100  0.25810000  0.56737100  1
  O  O28  1  0.78718100  0.37847800  0.03251900  1
  O  O29  1  0.21281900  0.87847800  0.96748100  1
  O  O30  1  0.78718100  0.87847800  0.46748100  1
  O  O31  1  0.21281900  0.37847800  0.53251900  1
  O  O32  1  0.72395100  0.56994500  0.93789200  1
  O  O33  1  0.27604900  0.06994500  0.06210800  1
  O  O34  1  0.72395100  0.06994500  0.56210800  1
  O  O35  1  0.27604900  0.56994500  0.43789200  1
  O  O36  1  0.50700800  0.25038500  0.79964400  1
  O  O37  1  0.49299200  0.75038500  0.20035600  1
  O  O38  1  0.50700800  0.75038500  0.70035600  1
  O  O39  1  0.49299200  0.25038500  0.29964400  1
loop_
_geom_bond_atom_site_label_1
_geom_bond_atom_site_label_2
_geom_bond_distance
_geom_bond_site_symmetry_2
Na0 O5 2.373728 1_555
Na0 O22 2.466877 1_556
Na0 O3 2.520485 1_555
Na0 O28 2.547885 1_556
Na0 O24 2.582503 1_656
Na0 O36 2.605396 1_555
Na1 O4 2.373728 1_555
Na1 O23 2.466877 1_554
Na1 O2 2.520485 1_555
Na1 O29 2.547885 1_554
Na1 O25 2.582503 1_454
Na1 O37 2.605396 1_555
Na2 O7 2.373728 1_555
Na2 O20 2.466877 1_555
Na2 O1 2.520485 1_555
Na2 O30 2.547885 1_555
Na2 O26 2.582503 1_655
Na2 O38 2.605396 1_555
Na3 O6 2.373728 1_555
Na3 O21 2.466877 1_555
Na3 O0 2.520485 1_555
Na3 O31 2.547885 1_555
Na3 O27 2.582503 1_455
Na3 O39 2.605396 1_555
Na4 O24 2.297768 1_555
Na4 O28 2.378896 1_555
Na4 O33 2.417069 1_555
Na4 O19 2.447990 1_555
Na4 O39 2.653837 1_555
Na5 O25 2.297768 1_555
Na5 O29 2.378896 1_555
Na5 O32 2.417069 1_555
Na5 O18 2.447990 1_555
Na5 O38 2.653837 1_555
Na6 O26 2.297768 1_555
Na6 O30 2.378896 1_555
Na6 O35 2.417069 1_555
Na6 O17 2.447990 1_555
Na6 O37 2.653837 1_555
Na7 O27 2.297768 1_555
Na7 O31 2.378896 1_555
Na7 O34 2.417069 1_555
Na7 O16 2.447990 1_555
Na7 O36 2.653837 1_555
Na8 O32 2.359006 1_555
Na8 O16 2.384763 1_555
Na8 O3 2.418759 1_555
Na8 O7 2.454297 1_555
Na8 O15 2.555926 1_555
Na8 O11 2.570334 1_555
Na9 O33 2.359006 1_555
Na9 O17 2.384763 1_545
Na9 O2 2.418759 1_545
Na9 O6 2.454297 1_555
Na9 O14 2.555926 1_545
Na9 O10 2.570334 1_555
Na10 O34 2.359006 1_555
Na10 O18 2.384763 1_545
Na10 O1 2.418759 1_545
Na10 O5 2.454297 1_555
Na10 O13 2.555926 1_545
Na10 O9 2.570334 1_555
Na11 O35 2.359006 1_555
Na11 O19 2.384763 1_555
Na11 O0 2.418759 1_555
Na11 O4 2.454297 1_555
Na11 O12 2.555926 1_555
Na11 O8 2.570334 1_555
B0 O4 1.449948 1_655
B0 O8 1.460124 1_555
B0 O0 1.515531 1_655
B0 O12 1.522822 1_555
B1 O5 1.449948 1_455
B1 O9 1.460124 1_555
B1 O1 1.515531 1_445
B1 O13 1.522822 1_545
B2 O6 1.449948 1_655
B2 O10 1.460124 1_555
B2 O2 1.515531 1_645
B2 O14 1.522822 1_545
B3 O7 1.449948 1_455
B3 O11 1.460124 1_555
B3 O3 1.515531 1_455
B3 O15 1.522822 1_555
B4 O20 1.376244 1_555
B4 O12 1.379911 1_555
B4 O16 1.387210 1_555
B5 O21 1.376244 1_555
B5 O13 1.379911 1_545
B5 O17 1.387210 1_545
B6 O22 1.376244 1_555
B6 O14 1.379911 1_545
B6 O18 1.387210 1_544
B7 O23 1.376244 1_555
B7 O15 1.379911 1_555
B7 O19 1.387210 1_556
B8 O0 1.374999 1_655
B8 O28 1.381511 1_555
B8 O24 1.382787 1_655
B9 O1 1.374999 1_455
B9 O29 1.381511 1_555
B9 O25 1.382787 1_455
B10 O2 1.374999 1_655
B10 O30 1.381511 1_555
B10 O26 1.382787 1_655
B11 O3 1.374999 1_455
B11 O31 1.381511 1_555
B11 O27 1.382787 1_455
B12 O4 1.462823 1_555
B12 O35 1.476840 1_555
B12 O26 1.501528 1_555
B12 O20 1.504083 1_455
B13 O5 1.462823 1_555
B13 O34 1.476840 1_555
B13 O27 1.501528 1_555
B13 O21 1.504083 1_655
B14 O6 1.462823 1_555
B14 O33 1.476840 1_555
B14 O24 1.501528 1_555
B14 O22 1.504083 1_455
B15 O7 1.462823 1_555
B15 O32 1.476840 1_555
B15 O25 1.501528 1_555
B15 O23 1.504083 1_655
B16 O32 1.450159 1_554
B16 O8 1.469111 1_555
B16 O28 1.506796 1_555
B16 O19 1.510057 1_555
B17 O33 1.450159 1_566
B17 O9 1.469111 1_565
B17 O29 1.506796 1_555
B17 O18 1.510057 1_555
B18 O34 1.450159 1_565
B18 O10 1.469111 1_565
B18 O30 1.506796 1_555
B18 O17 1.510057 1_555
B19 O35 1.450159 1_555
B19 O11 1.469111 1_555
B19 O31 1.506796 1_555
B19 O16 1.510057 1_555
H0 O36 1.016812 1_555
H0 O9 1.629605 1_555
H0 Na10 2.519532 1_555
H1 O37 1.016812 1_555
H1 O8 1.629605 1_555
H1 Na11 2.519532 1_555
H2 O38 1.016812 1_555
H2 O11 1.629605 1_555
H2 Na8 2.519532 1_555
H3 O39 1.016812 1_555
H3 O10 1.629605 1_555
H3 Na9 2.519532 1_555
H4 O36 0.991227 1_555
H4 Na8 2.663303 1_555
H5 O37 0.991227 1_555
H5 Na9 2.663303 1_565
H6 O38 0.991227 1_555
H6 Na10 2.663303 1_565
H7 O39 0.991227 1_555
H7 Na11 2.663303 1_555
