# generated using pymatgen
data_Co3OF5
_symmetry_space_group_name_H-M   'P 1'
_cell_length_a   4.71648522
_cell_length_b   4.71648522
_cell_length_c   9.48302900
_cell_angle_alpha   90.00000000
_cell_angle_beta   90.00000000
_cell_angle_gamma   92.47312709
_symmetry_Int_Tables_number   1
_chemical_formula_structural   Co3OF5
_chemical_formula_sum   'Co6 O2 F10'
_cell_volume   210.75570104
_cell_formula_units_Z   2
loop_
 _symmetry_equiv_pos_site_id
 _symmetry_equiv_pos_as_xyz
  1  'x, y, z'
loop_
 _atom_site_type_symbol
 _atom_site_label
 _atom_site_symmetry_multiplicity
 _atom_site_fract_x
 _atom_site_fract_y
 _atom_site_fract_z
 _atom_site_occupancy
  Co  Co0  1  0.00922900  0.00922900  0.82601700  1
  Co  Co1  1  0.01457900  0.01457900  0.50000000  1
  Co  Co2  1  0.00922900  0.00922900  0.17398300  1
  Co  Co3  1  0.47306900  0.47306900  0.66430900  1
  Co  Co4  1  0.50901300  0.50901300  0.00000000  1
  Co  Co5  1  0.47306900  0.47306900  0.33569100  1
  O  O0  1  0.20305900  0.20305900  0.66271500  1
  O  O1  1  0.20305900  0.20305900  0.33728500  1
  F  F0  1  0.20251400  0.20251400  0.00000000  1
  F  F1  1  0.69316100  0.31055600  0.50000000  1
  F  F2  1  0.69755300  0.30713300  0.83050000  1
  F  F3  1  0.69755300  0.30713300  0.16950000  1
  F  F4  1  0.30713300  0.69755300  0.16950000  1
  F  F5  1  0.30713300  0.69755300  0.83050000  1
  F  F6  1  0.31055600  0.69316100  0.50000000  1
  F  F7  1  0.78792400  0.78792400  0.66268700  1
  F  F8  1  0.81424400  0.81424400  0.00000000  1
  F  F9  1  0.78792400  0.78792400  0.33731300  1
loop_
_geom_bond_atom_site_label_1
_geom_bond_atom_site_label_2
_geom_bond_distance
_geom_bond_site_symmetry_2
Co0 O0 1.999384 1_555
Co0 F0 2.076662 1_556
Co0 F2 2.077305 1_455
Co0 F5 2.077305 1_545
Co0 F8 2.083416 1_446
Co0 F7 2.117525 1_445
Co1 O0 1.973133 1_555
Co1 O1 1.973133 1_555
Co1 F1 2.104641 1_455
Co1 F6 2.104641 1_545
Co1 F7 2.137074 1_445
Co1 F9 2.137074 1_445
Co2 O1 1.999384 1_555
Co2 F0 2.076662 1_555
Co2 F3 2.077305 1_455
Co2 F4 2.077305 1_545
Co2 F8 2.083416 1_445
Co2 F9 2.117525 1_445
Co3 O0 1.761777 1_555
Co3 F6 2.039992 1_555
Co3 F1 2.039992 1_555
Co3 F7 2.054367 1_555
Co3 F2 2.070940 1_555
Co3 F5 2.070940 1_555
Co4 F8 1.991516 1_555
Co4 F0 1.999790 1_555
Co4 F2 2.086647 1_554
Co4 F5 2.086647 1_554
Co4 F4 2.086647 1_555
Co4 F3 2.086647 1_555
Co5 O1 1.761777 1_555
Co5 F1 2.039992 1_555
Co5 F6 2.039992 1_555
Co5 F9 2.054367 1_555
Co5 F3 2.070940 1_555
Co5 F4 2.070940 1_555
