# generated using pymatgen
data_Li5V(CO3)4
_symmetry_space_group_name_H-M   'P 1'
_cell_length_a   9.73911000
_cell_length_b   8.42108200
_cell_length_c   10.97231224
_cell_angle_alpha   88.85909638
_cell_angle_beta   90.00000000
_cell_angle_gamma   90.00000000
_symmetry_Int_Tables_number   1
_chemical_formula_structural   Li5V(CO3)4
_chemical_formula_sum   'Li20 V4 C16 O48'
_cell_volume   899.70310367
_cell_formula_units_Z   4
loop_
 _symmetry_equiv_pos_site_id
 _symmetry_equiv_pos_as_xyz
  1  'x, y, z'
loop_
 _atom_site_type_symbol
 _atom_site_label
 _atom_site_symmetry_multiplicity
 _atom_site_fract_x
 _atom_site_fract_y
 _atom_site_fract_z
 _atom_site_occupancy
  Li  Li0  1  0.36321800  0.43749500  0.05454400  1
  Li  Li1  1  0.13678200  0.93749500  0.05454400  1
  Li  Li2  1  0.85822500  0.41670900  0.12279200  1
  Li  Li3  1  0.64177500  0.91671000  0.12279200  1
  Li  Li4  1  0.10280500  0.30544500  0.20982100  1
  Li  Li5  1  0.39719500  0.80544500  0.20982100  1
  Li  Li6  1  0.33626000  0.47082200  0.32920500  1
  Li  Li7  1  0.16374000  0.97082200  0.32920500  1
  Li  Li8  1  0.89197300  0.41941600  0.41349300  1
  Li  Li9  1  0.60802700  0.91941600  0.41349300  1
  Li  Li10  1  0.39197300  0.08058400  0.58650700  1
  Li  Li11  1  0.10802700  0.58058400  0.58650700  1
  Li  Li12  1  0.83626000  0.02917800  0.67079500  1
  Li  Li13  1  0.66374000  0.52917800  0.67079500  1
  Li  Li14  1  0.60280500  0.19455500  0.79017900  1
  Li  Li15  1  0.89719500  0.69455500  0.79017900  1
  Li  Li16  1  0.35822500  0.08329100  0.87720800  1
  Li  Li17  1  0.14177500  0.58329100  0.87720800  1
  Li  Li18  1  0.86321800  0.06250500  0.94545600  1
  Li  Li19  1  0.63678200  0.56250500  0.94545600  1
  V  V0  1  0.59214700  0.27106600  0.28548600  1
  V  V1  1  0.90785300  0.77106600  0.28548600  1
  V  V2  1  0.09214700  0.22893400  0.71451400  1
  V  V3  1  0.40785300  0.72893400  0.71451400  1
  C  C0  1  0.61180900  0.24533800  0.02205600  1
  C  C1  1  0.88819100  0.74533800  0.02205600  1
  C  C2  1  0.36505400  0.15064000  0.20666300  1
  C  C3  1  0.13494600  0.65064000  0.20666300  1
  C  C4  1  0.86867000  0.12481900  0.28976800  1
  C  C5  1  0.63133000  0.62481900  0.28976800  1
  C  C6  1  0.14115800  0.28479600  0.48969700  1
  C  C7  1  0.35884200  0.78479600  0.48969700  1
  C  C8  1  0.64115800  0.21520400  0.51030300  1
  C  C9  1  0.85884200  0.71520400  0.51030300  1
  C  C10  1  0.36867000  0.37518100  0.71023200  1
  C  C11  1  0.13133000  0.87518100  0.71023200  1
  C  C12  1  0.86505400  0.34936000  0.79333700  1
  C  C13  1  0.63494600  0.84936000  0.79333700  1
  C  C14  1  0.11180900  0.25466200  0.97794400  1
  C  C15  1  0.38819100  0.75466200  0.97794400  1
  O  O0  1  0.17374100  0.38260200  0.00839000  1
  O  O1  1  0.32625900  0.88260200  0.00839000  1
  O  O2  1  0.00057000  0.20934900  0.03282700  1
  O  O3  1  0.49943000  0.70934900  0.03282700  1
  O  O4  1  0.66298900  0.33675900  0.10830300  1
  O  O5  1  0.83701100  0.83675900  0.10830300  1
  O  O6  1  0.24210400  0.10343600  0.19595700  1
  O  O7  1  0.25789600  0.60343600  0.19595700  1
  O  O8  1  0.47362300  0.06099200  0.21093700  1
  O  O9  1  0.02637700  0.56099200  0.21093700  1
  O  O10  1  0.39308200  0.30273400  0.21812000  1
  O  O11  1  0.10691800  0.80273400  0.21812000  1
  O  O12  1  0.91223900  0.26741300  0.27574400  1
  O  O13  1  0.73783800  0.09130200  0.28584800  1
  O  O14  1  0.58776100  0.76741300  0.27574400  1
  O  O15  1  0.76216200  0.59130200  0.28584800  1
  O  O16  1  0.95527400  0.00989500  0.30917600  1
  O  O17  1  0.54472600  0.50989500  0.30917600  1
  O  O18  1  0.18086800  0.34439600  0.38895000  1
  O  O19  1  0.31913200  0.84439600  0.38895000  1
  O  O20  1  0.52830600  0.16607300  0.45516500  1
  O  O21  1  0.97169400  0.66607300  0.45516500  1
  O  O22  1  0.70774600  0.32428500  0.44883700  1
  O  O23  1  0.79225400  0.82428500  0.44883700  1
  O  O24  1  0.20774600  0.17571500  0.55116300  1
  O  O25  1  0.29225400  0.67571500  0.55116300  1
  O  O26  1  0.02830600  0.33392700  0.54483500  1
  O  O27  1  0.47169400  0.83392700  0.54483500  1
  O  O28  1  0.68086800  0.15560400  0.61105000  1
  O  O29  1  0.81913200  0.65560400  0.61105000  1
  O  O30  1  0.45527400  0.49010500  0.69082400  1
  O  O31  1  0.04472600  0.99010500  0.69082400  1
  O  O32  1  0.23783800  0.40869800  0.71415200  1
  O  O33  1  0.41223900  0.23258700  0.72425600  1
  O  O34  1  0.26216200  0.90869800  0.71415200  1
  O  O35  1  0.08776100  0.73258700  0.72425600  1
  O  O36  1  0.89308200  0.19726600  0.78188000  1
  O  O37  1  0.60691800  0.69726600  0.78188000  1
  O  O38  1  0.97362300  0.43900800  0.78906300  1
  O  O39  1  0.52637700  0.93900800  0.78906300  1
  O  O40  1  0.74210400  0.39656400  0.80404300  1
  O  O41  1  0.75789600  0.89656400  0.80404300  1
  O  O42  1  0.16298900  0.16324100  0.89169700  1
  O  O43  1  0.33701100  0.66324100  0.89169700  1
  O  O44  1  0.50057000  0.29065100  0.96717300  1
  O  O45  1  0.99943000  0.79065100  0.96717300  1
  O  O46  1  0.67374100  0.11739800  0.99161000  1
  O  O47  1  0.82625900  0.61739800  0.99161000  1
loop_
_geom_bond_atom_site_label_1
_geom_bond_atom_site_label_2
_geom_bond_distance
_geom_bond_site_symmetry_2
Li0 O0 1.970972 1_555
Li0 O44 2.069973 1_554
Li0 O10 2.124303 1_555
Li0 O7 2.344947 1_555
Li1 O1 1.970972 1_555
Li1 O45 2.069973 1_454
Li1 O11 2.124303 1_555
Li1 O6 2.344947 1_565
Li2 O4 2.024411 1_555
Li2 O12 2.142387 1_555
Li2 O47 2.219909 1_554
Li2 O9 2.267235 1_655
Li2 O2 2.452370 1_655
Li2 O15 2.518450 1_555
Li3 O5 2.024414 1_555
Li3 O14 2.142392 1_555
Li3 O46 2.219903 1_564
Li3 O8 2.267230 1_565
Li3 O3 2.452376 1_555
Li3 O13 2.518445 1_565
Li4 O12 2.015211 1_455
Li4 O18 2.138760 1_555
Li4 O6 2.183529 1_555
Li4 O9 2.277338 1_555
Li4 O2 2.341006 1_555
Li4 O0 2.393133 1_555
Li5 O14 2.015211 1_555
Li5 O19 2.138760 1_555
Li5 O7 2.183529 1_555
Li5 O8 2.277338 1_565
Li5 O3 2.341006 1_555
Li5 O1 2.393133 1_555
Li6 O18 1.955946 1_555
Li6 O10 1.965747 1_555
Li6 O7 1.975384 1_555
Li6 O17 2.067775 1_555
Li7 O19 1.955946 1_555
Li7 O11 1.965747 1_555
Li7 O6 1.975384 1_565
Li7 O16 2.067775 1_465
Li8 O22 1.999743 1_555
Li8 O12 2.009697 1_555
Li8 O26 2.077679 1_655
Li8 O21 2.272471 1_555
Li8 O15 2.360998 1_555
Li9 O23 1.999743 1_555
Li9 O14 2.009697 1_555
Li9 O27 2.077679 1_555
Li9 O20 2.272471 1_565
Li9 O13 2.360998 1_565
Li10 O24 1.999743 1_555
Li10 O33 2.009697 1_555
Li10 O20 2.077679 1_555
Li10 O27 2.272471 1_545
Li10 O34 2.360998 1_545
Li11 O25 1.999743 1_555
Li11 O35 2.009697 1_555
Li11 O21 2.077679 1_455
Li11 O26 2.272471 1_555
Li11 O32 2.360998 1_555
Li12 O28 1.955946 1_555
Li12 O36 1.965747 1_555
Li12 O41 1.975384 1_545
Li12 O31 2.067775 1_645
Li13 O29 1.955946 1_555
Li13 O37 1.965747 1_555
Li13 O40 1.975384 1_555
Li13 O30 2.067775 1_555
Li14 O33 2.015211 1_555
Li14 O28 2.138760 1_555
Li14 O40 2.183529 1_555
Li14 O39 2.277338 1_545
Li14 O44 2.341006 1_555
Li14 O46 2.393133 1_555
Li15 O35 2.015211 1_655
Li15 O29 2.138760 1_555
Li15 O41 2.183529 1_555
Li15 O38 2.277338 1_555
Li15 O45 2.341006 1_555
Li15 O47 2.393133 1_555
Li16 O42 2.024411 1_555
Li16 O33 2.142387 1_555
Li16 O1 2.219909 1_546
Li16 O39 2.267235 1_545
Li16 O44 2.452370 1_555
Li16 O34 2.518450 1_545
Li17 O43 2.024411 1_555
Li17 O35 2.142387 1_555
Li17 O0 2.219909 1_556
Li17 O38 2.267235 1_455
Li17 O45 2.452370 1_455
Li17 O32 2.518450 1_555
Li18 O46 1.970972 1_555
Li18 O2 2.069973 1_656
Li18 O36 2.124303 1_555
Li18 O41 2.344947 1_545
Li19 O47 1.970972 1_555
Li19 O3 2.069973 1_556
Li19 O37 2.124303 1_555
Li19 O40 2.344947 1_555
C0 O46 1.284723 1_554
C0 O44 1.293360 1_554
C0 O4 1.328793 1_555
C1 O47 1.284723 1_554
C1 O45 1.293360 1_554
C1 O5 1.328793 1_555
C2 O6 1.267870 1_555
C2 O8 1.299513 1_555
C2 O10 1.318015 1_555
C3 O7 1.267870 1_555
C3 O9 1.299513 1_555
C3 O11 1.318015 1_555
C4 O12 1.279953 1_555
C4 O16 1.298133 1_555
C4 O13 1.305968 1_555
C5 O14 1.279953 1_555
C5 O17 1.298133 1_555
C5 O15 1.305968 1_555
C6 O18 1.265442 1_555
C6 O24 1.301741 1_555
C6 O26 1.324814 1_555
C7 O19 1.265442 1_555
C7 O25 1.301741 1_555
C7 O27 1.324814 1_555
C8 O28 1.265442 1_555
C8 O22 1.301741 1_555
C8 O20 1.324814 1_555
C9 O29 1.265442 1_555
C9 O23 1.301741 1_555
C9 O21 1.324814 1_555
C10 O33 1.279953 1_555
C10 O30 1.298133 1_555
C10 O32 1.305968 1_555
C11 O35 1.279953 1_555
C11 O31 1.298133 1_555
C11 O34 1.305968 1_555
C12 O40 1.267870 1_555
C12 O38 1.299513 1_555
C12 O36 1.318015 1_555
C13 O41 1.267870 1_555
C13 O39 1.299513 1_555
C13 O37 1.318015 1_555
C14 O0 1.284723 1_556
C14 O2 1.293360 1_556
C14 O42 1.328793 1_555
C15 O1 1.284723 1_556
C15 O3 1.293360 1_556
C15 O43 1.328793 1_555
O4 V0 2.125741 1_555
O5 V1 2.125741 1_555
O8 V0 2.277871 1_555
O9 V1 2.277871 1_455
O10 V0 2.090035 1_555
O11 V1 2.090035 1_455
O13 V0 2.074769 1_555
O15 V1 2.074769 1_555
O16 V1 2.084850 1_545
O17 V0 2.084850 1_555
O20 V0 2.137510 1_555
O21 V1 2.137510 1_555
O22 V0 2.170900 1_555
O23 V1 2.170900 1_555
O24 V2 2.170900 1_555
O25 V3 2.170900 1_555
O26 V2 2.137510 1_555
O27 V3 2.137510 1_555
O30 V3 2.084850 1_555
O31 V2 2.084850 1_565
O32 V2 2.074769 1_555
O34 V3 2.074769 1_555
O36 V2 2.090035 1_655
O37 V3 2.090035 1_555
O38 V2 2.277871 1_655
O39 V3 2.277871 1_555
O42 V2 2.125741 1_555
O43 V3 2.125741 1_555
