# generated using pymatgen
data_Ca3Be2P4(HO2)10
_symmetry_space_group_name_H-M   'P 1'
_cell_length_a   7.10583700
_cell_length_b   7.38045628
_cell_length_c   7.79561999
_cell_angle_alpha   102.38396168
_cell_angle_beta   94.41046469
_cell_angle_gamma   96.33705917
_symmetry_Int_Tables_number   1
_chemical_formula_structural   Ca3Be2P4(HO2)10
_chemical_formula_sum   'Ca3 Be2 P4 H10 O20'
_cell_volume   394.74769075
_cell_formula_units_Z   1
loop_
 _symmetry_equiv_pos_site_id
 _symmetry_equiv_pos_as_xyz
  1  'x, y, z'
loop_
 _atom_site_type_symbol
 _atom_site_label
 _atom_site_symmetry_multiplicity
 _atom_site_fract_x
 _atom_site_fract_y
 _atom_site_fract_z
 _atom_site_occupancy
  Ca  Ca0  1  0.02272500  0.29024500  0.60644300  1
  Ca  Ca1  1  0.97727500  0.70975500  0.39355700  1
  Ca  Ca2  1  0.00000000  0.00000000  0.00000000  1
  Be  Be0  1  0.51633800  0.26845700  0.58177900  1
  Be  Be1  1  0.48366200  0.73154300  0.41822100  1
  P  P0  1  0.31805400  0.95843600  0.69802000  1
  P  P1  1  0.68194600  0.04156400  0.30198000  1
  P  P2  1  0.72832000  0.64499100  0.69826100  1
  P  P3  1  0.27168000  0.35500900  0.30173900  1
  H  H0  1  0.50672600  0.84829100  0.87639300  1
  H  H1  1  0.49327400  0.15170900  0.12360700  1
  H  H2  1  0.36572100  0.48706900  0.82518500  1
  H  H3  1  0.63427900  0.51293100  0.17481500  1
  H  H4  1  0.27927700  0.36302700  0.94954800  1
  H  H5  1  0.72072300  0.63697300  0.05045200  1
  H  H6  1  0.71676100  0.18603700  0.82224100  1
  H  H7  1  0.28323900  0.81396300  0.17775900  1
  H  H8  1  0.82871500  0.35300700  0.96158800  1
  H  H9  1  0.17128500  0.64699300  0.03841200  1
  O  O0  1  0.11756100  0.01494700  0.71371000  1
  O  O1  1  0.88243900  0.98505300  0.28629000  1
  O  O2  1  0.36779800  0.86775400  0.86012800  1
  O  O3  1  0.63220200  0.13224600  0.13987200  1
  O  O4  1  0.30713100  0.80518000  0.52524400  1
  O  O5  1  0.69286900  0.19482000  0.47475600  1
  O  O6  1  0.47385500  0.12449700  0.71172200  1
  O  O7  1  0.52614500  0.87550300  0.28827800  1
  O  O8  1  0.92654800  0.58661500  0.66910800  1
  O  O9  1  0.07345200  0.41338500  0.33089200  1
  O  O10  1  0.67855700  0.73775200  0.54051600  1
  O  O11  1  0.32144300  0.26224800  0.45948400  1
  O  O12  1  0.72873500  0.79010900  0.87571200  1
  O  O13  1  0.27126500  0.20989100  0.12428800  1
  O  O14  1  0.57650000  0.47855100  0.70200900  1
  O  O15  1  0.42350000  0.52144900  0.29799100  1
  O  O16  1  0.24630300  0.44982300  0.87430600  1
  O  O17  1  0.75369700  0.55017700  0.12569400  1
  O  O18  1  0.84889200  0.24187800  0.87069600  1
  O  O19  1  0.15110800  0.75812200  0.12930400  1
loop_
_geom_bond_atom_site_label_1
_geom_bond_atom_site_label_2
_geom_bond_distance
_geom_bond_site_symmetry_2
Ca0 O8 2.326630 1_455
Ca0 O5 2.449317 1_455
Ca0 O0 2.495204 1_555
Ca0 O11 2.496014 1_555
Ca0 O16 2.508655 1_555
Ca0 O9 2.540538 1_555
Ca0 O18 2.550750 1_455
Ca1 O9 2.326630 1_655
Ca1 O4 2.449317 1_655
Ca1 O1 2.495204 1_555
Ca1 O10 2.496014 1_555
Ca1 O17 2.508655 1_555
Ca1 O8 2.540538 1_555
Ca1 O19 2.550750 1_655
Ca2 O13 2.337471 1_555
Ca2 O12 2.337471 1_444
Ca2 O1 2.462313 1_445
Ca2 O0 2.462313 1_554
Ca2 O18 2.526728 1_454
Ca2 O19 2.526728 1_545
Be0 O11 1.610316 1_555
Be0 O14 1.623032 1_555
Be0 O5 1.637661 1_555
Be0 O6 1.638301 1_555
Be1 O10 1.610316 1_555
Be1 O15 1.623032 1_555
Be1 O4 1.637661 1_555
Be1 O7 1.638301 1_555
H0 O2 1.015450 1_555
H0 O12 1.680169 1_555
H1 O3 1.015450 1_555
H1 O13 1.680169 1_555
H2 O16 0.992923 1_555
H3 O17 0.992923 1_555
H4 O16 0.991198 1_555
H5 O17 0.991198 1_555
H6 O18 0.993646 1_555
H7 O19 0.993646 1_555
H8 O18 0.993795 1_555
H9 O19 0.993795 1_555
O0 P0 1.534500 1_545
O1 P1 1.534500 1_565
O2 P0 1.586250 1_555
O3 P1 1.586250 1_555
O4 P0 1.552619 1_555
O5 P1 1.552619 1_555
O6 P0 1.537956 1_545
O7 P1 1.537956 1_565
O8 P2 1.537064 1_555
O9 P3 1.537064 1_555
O10 P2 1.566404 1_555
O11 P3 1.566404 1_555
O12 P2 1.556900 1_555
O13 P3 1.556900 1_555
O14 P2 1.549629 1_555
O15 P3 1.549629 1_555
