# generated using pymatgen
data_LiFe4(PO4)3
_symmetry_space_group_name_H-M   'P 1'
_cell_length_a   6.46609000
_cell_length_b   9.35551600
_cell_length_c   14.92721269
_cell_angle_alpha   89.34624672
_cell_angle_beta   90.00000000
_cell_angle_gamma   90.00000000
_symmetry_Int_Tables_number   1
_chemical_formula_structural   LiFe4(PO4)3
_chemical_formula_sum   'Li4 Fe16 P12 O48'
_cell_volume   902.94217872
_cell_formula_units_Z   4
loop_
 _symmetry_equiv_pos_site_id
 _symmetry_equiv_pos_as_xyz
  1  'x, y, z'
loop_
 _atom_site_type_symbol
 _atom_site_label
 _atom_site_symmetry_multiplicity
 _atom_site_fract_x
 _atom_site_fract_y
 _atom_site_fract_z
 _atom_site_occupancy
  Li  Li0  1  0.00000000  0.16309300  0.15517500  1
  Li  Li1  1  0.50000000  0.33600200  0.32209900  1
  Li  Li2  1  0.50000000  0.33508900  0.65601200  1
  Li  Li3  1  0.50000000  0.33028900  0.99625500  1
  Fe  Fe0  1  0.75688500  0.02011500  0.66548800  1
  Fe  Fe1  1  0.75855700  0.00604600  0.00101700  1
  Fe  Fe2  1  0.76307200  0.00430100  0.33505900  1
  Fe  Fe3  1  0.24144300  0.00604600  0.00101700  1
  Fe  Fe4  1  0.23692800  0.00430100  0.33505900  1
  Fe  Fe5  1  0.24311500  0.02011500  0.66548800  1
  Fe  Fe6  1  0.23780700  0.49888800  0.16303400  1
  Fe  Fe7  1  0.76219300  0.49888800  0.16303400  1
  Fe  Fe8  1  0.23531000  0.48298500  0.48869700  1
  Fe  Fe9  1  0.24503000  0.48821800  0.83572600  1
  Fe  Fe10  1  0.76469000  0.48298500  0.48869700  1
  Fe  Fe11  1  0.75497000  0.48821800  0.83572600  1
  Fe  Fe12  1  0.00000000  0.65131800  0.67642400  1
  Fe  Fe13  1  0.50000000  0.85208900  0.84207200  1
  Fe  Fe14  1  0.50000000  0.85821400  0.50193700  1
  Fe  Fe15  1  0.50000000  0.84401500  0.17497400  1
  P  P0  1  0.50000000  0.17921600  0.16020500  1
  P  P1  1  0.50000000  0.17439200  0.48871400  1
  P  P2  1  0.50000000  0.17449300  0.82518300  1
  P  P3  1  0.00000000  0.32450500  0.32125900  1
  P  P4  1  0.00000000  0.32820800  0.65750100  1
  P  P5  1  0.00000000  0.32080200  0.99335100  1
  P  P6  1  0.50000000  0.67486500  0.34679900  1
  P  P7  1  0.50000000  0.67491300  0.01085300  1
  P  P8  1  0.50000000  0.68435800  0.67489900  1
  P  P9  1  0.00000000  0.82017000  0.17255900  1
  P  P10  1  0.00000000  0.81656500  0.84007400  1
  P  P11  1  0.00000000  0.82535300  0.50949000  1
  O  O0  1  0.30419400  0.11431400  0.11753600  1
  O  O1  1  0.30569400  0.10948000  0.78311600  1
  O  O2  1  0.30582700  0.10656700  0.44849600  1
  O  O3  1  0.69417300  0.10656700  0.44849600  1
  O  O4  1  0.69430600  0.10948000  0.78311600  1
  O  O5  1  0.69580600  0.11431400  0.11753600  1
  O  O6  1  0.50000000  0.14107600  0.26246100  1
  O  O7  1  0.50000000  0.14307500  0.59295000  1
  O  O8  1  0.50000000  0.13741200  0.92837200  1
  O  O9  1  0.00000000  0.15819700  0.30147000  1
  O  O10  1  0.00000000  0.15394600  0.98576800  1
  O  O11  1  0.00000000  0.16360300  0.64795000  1
  O  O12  1  0.50000000  0.34419500  0.13935200  1
  O  O13  1  0.50000000  0.34002100  0.46773300  1
  O  O14  1  0.50000000  0.34158000  0.80525300  1
  O  O15  1  0.00000000  0.36180000  0.42221300  1
  O  O16  1  0.00000000  0.36141000  0.09493400  1
  O  O17  1  0.00000000  0.38242600  0.75611300  1
  O  O18  1  0.20056100  0.37733900  0.94940900  1
  O  O19  1  0.20062000  0.38378100  0.27796500  1
  O  O20  1  0.19844100  0.38958100  0.61187700  1
  O  O21  1  0.80155900  0.38958100  0.61187700  1
  O  O22  1  0.79943900  0.37733900  0.94940900  1
  O  O23  1  0.79938000  0.38378100  0.27796500  1
  O  O24  1  0.30287900  0.61728200  0.05327700  1
  O  O25  1  0.30319400  0.61858100  0.39063000  1
  O  O26  1  0.30485000  0.61756300  0.71883300  1
  O  O27  1  0.69712100  0.61728200  0.05327700  1
  O  O28  1  0.69680600  0.61858100  0.39063000  1
  O  O29  1  0.69515000  0.61756300  0.71883300  1
  O  O30  1  0.50000000  0.64639400  0.24307600  1
  O  O31  1  0.50000000  0.64705600  0.90634600  1
  O  O32  1  0.50000000  0.66024600  0.57299700  1
  O  O33  1  0.00000000  0.65655600  0.18303700  1
  O  O34  1  0.00000000  0.64987800  0.84355900  1
  O  O35  1  0.00000000  0.65909900  0.53306600  1
  O  O36  1  0.50000000  0.84872300  0.69894500  1
  O  O37  1  0.50000000  0.84612300  0.02745500  1
  O  O38  1  0.50000000  0.84545900  0.36150400  1
  O  O39  1  0.00000000  0.86050600  0.73781400  1
  O  O40  1  0.00000000  0.86819000  0.41033400  1
  O  O41  1  0.00000000  0.88145400  0.07561400  1
  O  O42  1  0.80276900  0.87512100  0.88608900  1
  O  O43  1  0.19723100  0.87512100  0.88608900  1
  O  O44  1  0.80098600  0.88333800  0.55736300  1
  O  O45  1  0.80157600  0.88004500  0.22098100  1
  O  O46  1  0.19842400  0.88004500  0.22098100  1
  O  O47  1  0.19901400  0.88333800  0.55736300  1
loop_
_geom_bond_atom_site_label_1
_geom_bond_atom_site_label_2
_geom_bond_distance
_geom_bond_site_symmetry_2
Li0 O16 2.052534 1_555
Li0 O5 2.097297 1_455
Li0 O0 2.097297 1_555
Li0 O9 2.183734 1_555
Li0 O10 2.531198 1_554
Li1 O6 2.038429 1_555
Li1 O19 2.091529 1_555
Li1 O23 2.091529 1_555
Li1 O13 2.174664 1_555
Li2 O7 2.037579 1_555
Li2 O21 2.118586 1_555
Li2 O20 2.118586 1_555
Li2 O14 2.229272 1_555
Li3 O8 2.079567 1_555
Li3 O18 2.103472 1_555
Li3 O22 2.103472 1_555
Li3 O12 2.141479 1_556
Fe0 O4 1.994809 1_555
Fe0 O11 2.081769 1_655
Fe0 O44 2.090666 1_545
Fe0 O7 2.286129 1_555
Fe0 O36 2.358239 1_545
Fe0 O39 2.414481 1_645
Fe1 O5 2.063005 1_555
Fe1 O10 2.096788 1_654
Fe1 O42 2.138484 1_544
Fe1 O41 2.237480 1_645
Fe1 O37 2.275053 1_545
Fe1 O8 2.334740 1_554
Fe2 O3 2.004514 1_555
Fe2 O45 2.087647 1_545
Fe2 O9 2.157520 1_655
Fe2 O40 2.280014 1_645
Fe2 O38 2.290053 1_545
Fe2 O6 2.381947 1_555
Fe3 O0 2.063005 1_555
Fe3 O10 2.096788 1_554
Fe3 O43 2.138484 1_544
Fe3 O41 2.237480 1_545
Fe3 O37 2.275053 1_545
Fe3 O8 2.334740 1_554
Fe4 O2 2.004514 1_555
Fe4 O46 2.087647 1_545
Fe4 O9 2.157520 1_555
Fe4 O40 2.280014 1_545
Fe4 O38 2.290053 1_545
Fe4 O6 2.381947 1_555
Fe5 O1 1.994809 1_555
Fe5 O11 2.081769 1_555
Fe5 O47 2.090666 1_545
Fe5 O7 2.286129 1_555
Fe5 O36 2.358239 1_545
Fe5 O39 2.414481 1_545
Fe6 O24 2.011649 1_555
Fe6 O19 2.029439 1_555
Fe6 O33 2.153947 1_555
Fe6 O16 2.254310 1_555
Fe6 O12 2.259509 1_555
Fe6 O30 2.498765 1_555
Fe7 O27 2.011649 1_555
Fe7 O23 2.029439 1_555
Fe7 O33 2.153947 1_655
Fe7 O16 2.254310 1_655
Fe7 O12 2.259509 1_555
Fe7 O30 2.498765 1_555
Fe8 O25 1.975468 1_555
Fe8 O20 2.040762 1_555
Fe8 O15 2.147331 1_555
Fe8 O13 2.196737 1_555
Fe8 O35 2.343785 1_555
Fe8 O32 2.703803 1_555
Fe9 O18 1.999568 1_555
Fe9 O26 2.147179 1_555
Fe9 O34 2.194397 1_555
Fe9 O14 2.195739 1_555
Fe9 O17 2.220135 1_555
Fe9 O31 2.464408 1_555
Fe10 O28 1.975468 1_555
Fe10 O21 2.040762 1_555
Fe10 O15 2.147331 1_655
Fe10 O13 2.196737 1_555
Fe10 O35 2.343785 1_655
Fe10 O32 2.703803 1_555
Fe11 O22 1.999568 1_555
Fe11 O29 2.147179 1_555
Fe11 O34 2.194397 1_655
Fe11 O14 2.195739 1_555
Fe11 O17 2.220135 1_655
Fe11 O31 2.464408 1_555
Fe12 O29 2.093202 1_455
Fe12 O26 2.093202 1_555
Fe12 O35 2.140343 1_555
Fe12 O39 2.170431 1_555
Fe12 O34 2.494742 1_555
Fe13 O42 2.077039 1_555
Fe13 O43 2.077039 1_555
Fe13 O31 2.134939 1_555
Fe13 O36 2.137078 1_555
Fe14 O38 2.101026 1_555
Fe14 O32 2.123808 1_555
Fe14 O47 2.128828 1_555
Fe14 O44 2.128828 1_555
Fe15 O45 2.095974 1_555
Fe15 O46 2.095974 1_555
Fe15 O30 2.099706 1_555
Fe15 O37 2.201911 1_555
O0 P0 1.544731 1_555
O1 P2 1.533464 1_555
O2 P1 1.532359 1_555
O3 P1 1.532359 1_555
O4 P2 1.533464 1_555
O5 P0 1.544731 1_555
O6 P0 1.563579 1_555
O7 P1 1.580009 1_555
O8 P2 1.575040 1_555
O9 P3 1.586998 1_555
O10 P5 1.566410 1_555
O11 P4 1.548169 1_555
O12 P0 1.571054 1_555
O13 P1 1.577372 1_555
O14 P2 1.587905 1_555
O15 P3 1.550701 1_555
O16 P5 1.567417 1_554
O17 P4 1.562408 1_555
O18 P5 1.543991 1_555
O19 P3 1.549130 1_555
O20 P4 1.559170 1_555
O21 P4 1.559170 1_655
O22 P5 1.543991 1_655
O23 P3 1.549130 1_655
O24 P7 1.519393 1_555
O25 P6 1.522139 1_555
O26 P8 1.550330 1_555
O27 P7 1.519393 1_555
O28 P6 1.522139 1_555
O29 P8 1.550330 1_555
O30 P6 1.574032 1_555
O31 P7 1.584548 1_556
O32 P8 1.540292 1_555
O33 P9 1.536887 1_555
O34 P10 1.559717 1_555
O35 P11 1.590787 1_555
O36 P8 1.583039 1_555
O37 P7 1.623608 1_555
O38 P6 1.613498 1_555
O39 P10 1.576308 1_555
O40 P11 1.528999 1_555
O41 P9 1.550465 1_555
O42 P10 1.551424 1_655
O43 P10 1.551424 1_555
O44 P11 1.571548 1_655
O45 P9 1.578489 1_655
O46 P9 1.578489 1_555
O47 P11 1.571548 1_555
