# generated using pymatgen
data_Li2Mn3VO8
_symmetry_space_group_name_H-M   'P 1'
_cell_length_a   5.94515334
_cell_length_b   5.94515334
_cell_length_c   5.94515320
_cell_angle_alpha   60.07287725
_cell_angle_beta   60.07287725
_cell_angle_gamma   60.07288884
_symmetry_Int_Tables_number   1
_chemical_formula_structural   Li2Mn3VO8
_chemical_formula_sum   'Li2 Mn3 V1 O8'
_cell_volume   148.83013614
_cell_formula_units_Z   1
loop_
 _symmetry_equiv_pos_site_id
 _symmetry_equiv_pos_as_xyz
  1  'x, y, z'
loop_
 _atom_site_type_symbol
 _atom_site_label
 _atom_site_symmetry_multiplicity
 _atom_site_fract_x
 _atom_site_fract_y
 _atom_site_fract_z
 _atom_site_occupancy
  Li  Li0  1  0.87859800  0.87859800  0.87859800  1
  Li  Li1  1  0.12140200  0.12140200  0.12140200  1
  Mn  Mn0  1  0.00000000  0.50000000  0.50000000  1
  Mn  Mn1  1  0.50000000  0.00000000  0.50000000  1
  Mn  Mn2  1  0.50000000  0.50000000  0.00000000  1
  V  V0  1  0.50000000  0.50000000  0.50000000  1
  O  O0  1  0.73946200  0.73946200  0.73946200  1
  O  O1  1  0.74202200  0.74202200  0.29210200  1
  O  O2  1  0.74202200  0.29210200  0.74202200  1
  O  O3  1  0.29210200  0.74202200  0.74202200  1
  O  O4  1  0.70789800  0.25797800  0.25797800  1
  O  O5  1  0.25797800  0.70789800  0.25797800  1
  O  O6  1  0.25797800  0.25797800  0.70789800  1
  O  O7  1  0.26053800  0.26053800  0.26053800  1
loop_
_geom_bond_atom_site_label_1
_geom_bond_atom_site_label_2
_geom_bond_distance
_geom_bond_site_symmetry_2
Li0 O1 2.009101 1_556
Li0 O3 2.009101 1_655
Li0 O2 2.009101 1_565
Li0 O0 2.025064 1_555
Li1 O6 2.009101 1_554
Li1 O5 2.009101 1_545
Li1 O4 2.009101 1_455
Li1 O7 2.025064 1_555
Mn0 O5 1.966040 1_555
Mn0 O2 1.966040 1_455
Mn0 O6 1.966040 1_555
Mn0 O1 1.966040 1_455
Mn0 O0 2.018526 1_455
Mn0 O7 2.018526 1_555
Mn1 O4 1.966040 1_555
Mn1 O3 1.966040 1_545
Mn1 O6 1.966040 1_555
Mn1 O1 1.966040 1_545
Mn1 O0 2.018526 1_545
Mn1 O7 2.018526 1_555
Mn2 O4 1.966040 1_555
Mn2 O5 1.966040 1_555
Mn2 O2 1.966040 1_554
Mn2 O3 1.966040 1_554
Mn2 O0 2.018525 1_554
Mn2 O7 2.018525 1_555
O1 V0 2.045741 1_555
O2 V0 2.045741 1_555
O3 V0 2.045741 1_555
O4 V0 2.045741 1_555
O5 V0 2.045741 1_555
O6 V0 2.045741 1_555
