# generated using pymatgen
data_Li4V3Fe2Sn3O16
_symmetry_space_group_name_H-M   'P 1'
_cell_length_a   6.11104400
_cell_length_b   6.13425272
_cell_length_c   9.70501507
_cell_angle_alpha   89.63331587
_cell_angle_beta   89.66953693
_cell_angle_gamma   60.27958553
_symmetry_Int_Tables_number   1
_chemical_formula_structural   Li4V3Fe2Sn3O16
_chemical_formula_sum   'Li4 V3 Fe2 Sn3 O16'
_cell_volume   315.94372910
_cell_formula_units_Z   1
loop_
 _symmetry_equiv_pos_site_id
 _symmetry_equiv_pos_as_xyz
  1  'x, y, z'
loop_
 _atom_site_type_symbol
 _atom_site_label
 _atom_site_symmetry_multiplicity
 _atom_site_fract_x
 _atom_site_fract_y
 _atom_site_fract_z
 _atom_site_occupancy
  Li  Li0  1  0.67110500  0.65386300  0.10986400  1
  Li  Li1  1  0.99060400  0.01915600  0.00821300  1
  Li  Li2  1  0.99547600  0.01276800  0.50012600  1
  Li  Li3  1  0.33279000  0.33267200  0.60462600  1
  V  V0  1  0.83071800  0.33868400  0.78693100  1
  V  V1  1  0.66095300  0.17043600  0.28930200  1
  V  V2  1  0.18142800  0.16234700  0.28417900  1
  Fe  Fe0  1  0.67549400  0.65577900  0.50623800  1
  Fe  Fe1  1  0.33391200  0.32973500  0.01024600  1
  Sn  Sn0  1  0.33884100  0.83032000  0.78506800  1
  Sn  Sn1  1  0.83074700  0.83066600  0.78538400  1
  Sn  Sn2  1  0.16890100  0.66064300  0.28567200  1
  O  O0  1  0.32913600  0.84384800  0.40051300  1
  O  O1  1  0.51913400  0.96441600  0.65391500  1
  O  O2  1  0.66495900  0.66794100  0.90342700  1
  O  O3  1  0.00014100  0.00160200  0.68394200  1
  O  O4  1  0.00603100  0.00688600  0.19138300  1
  O  O5  1  0.82905500  0.84351400  0.40050100  1
  O  O6  1  0.52511100  0.51382600  0.65805300  1
  O  O7  1  0.96170700  0.51486900  0.65872600  1
  O  O8  1  0.16069700  0.67680700  0.90824400  1
  O  O9  1  0.84765000  0.32487200  0.39243600  1
  O  O10  1  0.04182900  0.46852800  0.15897600  1
  O  O11  1  0.48717900  0.46744900  0.15816300  1
  O  O12  1  0.32191300  0.33010100  0.39925900  1
  O  O13  1  0.15845900  0.17017800  0.89973400  1
  O  O14  1  0.46433700  0.03941900  0.16779500  1
  O  O15  1  0.67139200  0.16867400  0.90124200  1
loop_
_geom_bond_atom_site_label_1
_geom_bond_atom_site_label_2
_geom_bond_distance
_geom_bond_site_symmetry_2
Li0 O2 2.004548 1_554
Li0 O11 2.012991 1_555
Li0 O10 2.025813 1_655
Li0 O14 2.133551 1_565
Li1 O4 1.779843 1_655
Li1 O13 1.983960 1_654
Li1 O15 1.990338 1_554
Li1 O8 2.069299 1_644
Li2 O3 1.784663 1_655
Li2 O9 1.960658 1_555
Li2 O0 2.015196 1_645
Li2 O5 2.029344 1_545
Li3 O12 1.995005 1_555
Li3 O1 2.017513 1_545
Li3 O7 2.036669 1_455
Li3 O6 2.048019 1_555
Fe0 O5 2.074898 1_555
Fe0 O9 2.084424 1_555
Fe0 O0 2.110093 1_555
Fe0 O7 2.123886 1_555
Fe0 O6 2.129564 1_555
Fe0 O1 2.185572 1_555
Fe1 O15 2.077601 1_554
Fe1 O13 2.079698 1_554
Fe1 O8 2.093741 1_554
Fe1 O11 2.113583 1_555
Fe1 O10 2.115071 1_555
Fe1 O14 2.171741 1_555
O0 V2 2.035071 1_565
O0 Sn2 2.140974 1_555
O1 Sn0 2.092780 1_555
O1 Sn1 2.095912 1_555
O2 Sn1 2.076051 1_555
O2 Sn0 2.080101 1_555
O2 V0 2.090722 1_555
O3 Sn1 2.047339 1_445
O3 Sn0 2.050653 1_545
O3 V0 2.058723 1_455
O4 V2 1.976108 1_555
O4 Sn2 2.056375 1_545
O4 V1 2.061049 1_455
O5 V1 2.045498 1_565
O5 Sn2 2.119614 1_655
O6 V0 2.055914 1_555
O6 Sn0 2.099446 1_555
O7 V0 2.045980 1_555
O7 Sn1 2.094289 1_555
O8 Sn0 2.118498 1_555
O8 Sn1 2.122384 1_455
O9 V2 2.056852 1_655
O9 V1 2.073161 1_555
O10 V2 2.031223 1_555
O10 Sn2 2.107292 1_555
O11 V1 2.033345 1_555
O11 Sn2 2.103417 1_555
O12 V2 1.986221 1_555
O12 Sn2 2.074655 1_555
O12 V1 2.089631 1_555
O13 V0 2.058248 1_455
O13 Sn0 2.129954 1_545
O14 V2 1.878596 1_555
O14 V1 2.113322 1_555
O15 V0 2.060554 1_555
O15 Sn1 2.127642 1_545
