# generated using pymatgen
data_Li6V3P8O29
_symmetry_space_group_name_H-M   'P 1'
_cell_length_a   9.80396400
_cell_length_b   9.82868447
_cell_length_c   13.89981730
_cell_angle_alpha   89.73856371
_cell_angle_beta   89.71375523
_cell_angle_gamma   60.15153469
_symmetry_Int_Tables_number   1
_chemical_formula_structural   Li6V3P8O29
_chemical_formula_sum   'Li12 V6 P16 O58'
_cell_volume   1161.69277638
_cell_formula_units_Z   2
loop_
 _symmetry_equiv_pos_site_id
 _symmetry_equiv_pos_as_xyz
  1  'x, y, z'
loop_
 _atom_site_type_symbol
 _atom_site_label
 _atom_site_symmetry_multiplicity
 _atom_site_fract_x
 _atom_site_fract_y
 _atom_site_fract_z
 _atom_site_occupancy
  Li  Li0  1  0.90481700  0.76716600  0.05907500  1
  Li  Li1  1  0.77184200  0.91192900  0.56172700  1
  Li  Li2  1  0.90494000  0.32197500  0.55947500  1
  Li  Li3  1  0.66588500  0.66628800  0.88272000  1
  Li  Li4  1  0.76781000  0.32609700  0.05994200  1
  Li  Li5  1  0.32735900  0.90514800  0.05900100  1
  Li  Li6  1  0.32359100  0.77138300  0.56120000  1
  Li  Li7  1  0.33912800  0.33186600  0.61692700  1
  Li  Li8  1  0.33657300  0.33249900  0.11367800  1
  Li  Li9  1  0.08871800  0.68516300  0.43980700  1
  Li  Li10  1  0.22534100  0.09104300  0.44001200  1
  Li  Li11  1  0.99779400  0.00149100  0.99118400  1
  V  V0  1  0.56698400  0.43189300  0.25281200  1
  V  V1  1  0.43440600  0.56301500  0.75299100  1
  V  V2  1  0.56605000  0.00266300  0.75333400  1
  V  V3  1  0.43388300  0.99810200  0.25072500  1
  V  V4  1  0.99753600  0.56845800  0.25065200  1
  V  V5  1  0.00130800  0.43252200  0.75346500  1
  P  P0  1  0.90980600  0.77438100  0.84386700  1
  P  P1  1  0.76786200  0.91528000  0.34394400  1
  P  P2  1  0.91330000  0.31632000  0.34306400  1
  P  P3  1  0.66436400  0.66658600  0.12594500  1
  P  P4  1  0.66711200  0.66786800  0.62754600  1
  P  P5  1  0.77382600  0.31431600  0.84477500  1
  P  P6  1  0.68425800  0.22945800  0.65729400  1
  P  P7  1  0.31573900  0.90881100  0.84381200  1
  P  P8  1  0.68902900  0.08702100  0.15666400  1
  P  P9  1  0.31986800  0.76645900  0.34316500  1
  P  P10  1  0.22622700  0.68677500  0.15775900  1
  P  P11  1  0.33069200  0.33499400  0.37336800  1
  P  P12  1  0.33275300  0.33268600  0.87326500  1
  P  P13  1  0.08980000  0.68024800  0.65771300  1
  P  P14  1  0.23013800  0.08964700  0.65792500  1
  P  P15  1  0.08880400  0.22533200  0.15749900  1
  O  O0  1  0.99614800  0.75815900  0.56861800  1
  O  O1  1  0.91514500  0.74841100  0.33921100  1
  O  O2  1  0.78729100  0.99064500  0.07376600  1
  O  O3  1  0.74476400  0.91724500  0.83807200  1
  O  O4  1  0.89304400  0.62532400  0.83071700  1
  O  O5  1  0.81082500  0.67298300  0.16392700  1
  O  O6  1  0.90851300  0.47508600  0.32066300  1
  O  O7  1  0.99637900  0.21948300  0.07409300  1
  O  O8  1  0.91719900  0.33739100  0.83771200  1
  O  O9  1  0.66209400  0.81954200  0.67016600  1
  O  O10  1  0.61678400  0.90511700  0.31989400  1
  O  O11  1  0.81886200  0.52093600  0.67003600  1
  O  O12  1  0.66552900  0.66306900  0.01744300  1
  O  O13  1  0.66779600  0.66879600  0.52040900  1
  O  O14  1  0.66843800  0.51383100  0.16621100  1
  O  O15  1  0.48131600  0.89339200  0.83053700  1
  O  O16  1  0.51088400  0.81248200  0.16355900  1
  O  O17  1  0.74848300  0.34062600  0.34000300  1
  O  O18  1  0.78266800  0.20900300  0.75491900  1
  O  O19  1  0.77010300  0.24202800  0.57283300  1
  O  O20  1  0.77473000  0.23263000  0.93629000  1
  O  O21  1  0.62512800  0.48061800  0.83131600  1
  O  O22  1  0.51965500  0.66257200  0.66971600  1
  O  O23  1  0.66703000  0.25359800  0.15693300  1
  O  O24  1  0.48142900  0.62237200  0.32434000  1
  O  O25  1  0.33105600  0.91838600  0.34127500  1
  O  O26  1  0.78740200  0.00705800  0.25454000  1
  O  O27  1  0.75447400  0.99422200  0.43649300  1
  O  O28  1  0.24591000  0.99618100  0.56862300  1
  O  O29  1  0.66578700  0.08210000  0.65704800  1
  O  O30  1  0.51634300  0.37448200  0.67138600  1
  O  O31  1  0.33830700  0.74352500  0.83742900  1
  O  O32  1  0.47764700  0.33585500  0.32656000  1
  O  O33  1  0.37454600  0.52288500  0.16724300  1
  O  O34  1  0.21904900  0.78629100  0.07411700  1
  O  O35  1  0.24444800  0.75379100  0.43488800  1
  O  O36  1  0.20559900  0.78555300  0.25498700  1
  O  O37  1  0.25346900  0.66614200  0.65606800  1
  O  O38  1  0.47739200  0.18282000  0.82950000  1
  O  O39  1  0.52342400  0.10421600  0.16888800  1
  O  O40  1  0.33966500  0.47654600  0.82917600  1
  O  O41  1  0.33269700  0.33247700  0.98028200  1
  O  O42  1  0.33096500  0.33612400  0.48126600  1
  O  O43  1  0.18332700  0.48896200  0.33533100  1
  O  O44  1  0.37494400  0.11130400  0.67176000  1
  O  O45  1  0.32724900  0.18655700  0.33533400  1
  O  O46  1  0.08144800  0.66062700  0.15964900  1
  O  O47  1  0.00280500  0.78547300  0.75038000  1
  O  O48  1  0.99358600  0.77397200  0.93376200  1
  O  O49  1  0.11171000  0.51416200  0.67223000  1
  O  O50  1  0.18250300  0.33890300  0.82950800  1
  O  O51  1  0.10679800  0.37215300  0.16865900  1
  O  O52  1  0.25888700  0.08056500  0.15958700  1
  O  O53  1  0.23141200  0.99221500  0.93397400  1
  O  O54  1  0.21200100  0.00202200  0.75068800  1
  O  O55  1  0.08083300  0.25274400  0.65640900  1
  O  O56  1  0.00348800  0.24630200  0.43423200  1
  O  O57  1  0.00993800  0.20380700  0.25475400  1
loop_
_geom_bond_atom_site_label_1
_geom_bond_atom_site_label_2
_geom_bond_distance
_geom_bond_site_symmetry_2
Li0 O2 1.917402 1_555
Li0 O48 1.958974 1_554
Li0 O46 2.062850 1_655
Li0 O5 2.157204 1_555
Li1 O27 1.888482 1_555
Li1 O0 1.954936 1_555
Li1 O29 1.977220 1_565
Li1 O9 2.279910 1_555
Li2 O19 1.851926 1_555
Li2 O56 1.948573 1_655
Li2 O55 2.024588 1_655
Li2 O11 2.295581 1_555
Li3 O12 1.872763 1_556
Li3 O4 2.176787 1_555
Li3 O21 2.177387 1_555
Li3 O15 2.181889 1_555
Li4 O20 1.937474 1_554
Li4 O7 1.955354 1_555
Li4 O23 1.995059 1_555
Li4 O14 2.181008 1_555
Li5 O34 1.940810 1_555
Li5 O53 1.959277 1_554
Li5 O52 2.058765 1_565
Li5 O16 2.135863 1_555
Li6 O28 1.949031 1_555
Li6 O35 1.965807 1_555
Li6 O37 1.991918 1_555
Li6 O22 2.254262 1_555
Li7 O42 1.887150 1_555
Li7 O30 2.123080 1_555
Li7 O44 2.152575 1_555
Li7 O49 2.188887 1_555
Li8 O41 1.854762 1_554
Li8 O39 2.210415 1_555
Li8 O33 2.214368 1_555
Li8 O51 2.218600 1_555
Li9 O35 1.953035 1_555
Li9 O0 1.972675 1_455
Li9 O1 2.049444 1_455
Li9 O43 2.218007 1_555
Li10 O56 1.939755 1_555
Li10 O28 1.976606 1_545
Li10 O25 2.023317 1_545
Li10 O45 2.214315 1_555
Li11 O20 2.362464 1_555
Li11 O53 2.379312 1_645
Li11 O48 2.397467 1_545
Li11 O2 2.404643 1_546
Li11 O7 2.431394 1_556
Li11 O34 2.437955 1_646
O0 P13 1.505289 1_655
O1 P1 1.556256 1_555
O1 V4 1.970742 1_555
O2 P8 1.497855 1_565
O3 P0 1.528057 1_555
O3 V2 1.925978 1_565
O4 P0 1.564971 1_555
O4 V5 1.968665 1_655
O5 P3 1.562762 1_555
O5 V4 1.999535 1_555
O6 P2 1.567484 1_555
O6 V4 1.825273 1_555
O7 P15 1.493780 1_655
O8 P5 1.533819 1_555
O8 V5 1.916595 1_655
O9 P4 1.584452 1_555
O9 V2 1.945139 1_565
O10 P1 1.571018 1_555
O10 V3 1.831102 1_555
O11 P4 1.584327 1_555
O11 V5 1.940013 1_655
O12 P3 1.508568 1_555
O13 P4 1.489173 1_555
O14 P3 1.581725 1_555
O14 V0 1.965565 1_555
O15 P7 1.563500 1_555
O15 V2 1.965657 1_565
O16 P3 1.563628 1_555
O16 V3 2.001591 1_555
O17 P2 1.512027 1_555
O17 V0 1.965329 1_555
O18 P5 1.600087 1_555
O18 P6 1.621774 1_555
O19 P6 1.481268 1_555
O20 P5 1.498824 1_555
O21 P5 1.568421 1_555
O21 V1 1.960192 1_555
O22 P4 1.581894 1_555
O22 V1 1.946769 1_555
O23 P8 1.541303 1_555
O23 V0 2.026417 1_555
O24 P9 1.532737 1_555
O24 V0 1.908543 1_555
O25 P9 1.550853 1_555
O25 V3 1.994712 1_555
O26 P1 1.598159 1_545
O26 P8 1.627123 1_555
O27 P1 1.476534 1_555
O28 P14 1.508540 1_565
O29 P6 1.546482 1_555
O29 V2 2.023425 1_555
O30 P6 1.563250 1_555
O30 V1 1.973322 1_555
O31 P7 1.529476 1_555
O31 V1 1.938281 1_555
O32 P11 1.581720 1_555
O32 V0 1.874586 1_555
O33 P10 1.547570 1_555
O33 V0 2.026600 1_555
O34 P10 1.495070 1_555
O35 P9 1.506143 1_555
O36 P9 1.610853 1_555
O36 P10 1.619780 1_555
O37 P13 1.540362 1_555
O37 V1 2.052004 1_555
O38 P12 1.571928 1_555
O38 V2 1.867515 1_555
O39 P8 1.554938 1_555
O39 V3 2.010701 1_545
O40 P12 1.570501 1_555
O40 V1 1.863909 1_555
O41 P12 1.487507 1_555
O42 P11 1.499880 1_555
O43 P11 1.575101 1_555
O43 V4 1.977384 1_455
O44 P14 1.549732 1_555
O44 V2 1.988700 1_555
O45 P11 1.570150 1_555
O45 V3 1.996738 1_545
O46 P10 1.563375 1_555
O46 V4 1.954089 1_455
O47 P13 1.606011 1_555
O47 P0 1.617893 1_455
O48 P0 1.497634 1_555
O49 P13 1.549192 1_555
O49 V5 1.983543 1_555
O50 P12 1.569247 1_555
O50 V5 1.871467 1_555
O51 P15 1.547036 1_555
O51 V4 2.029672 1_455
O52 P15 1.563420 1_555
O52 V3 1.957894 1_545
O53 P7 1.500166 1_555
O54 P14 1.604957 1_555
O54 P7 1.619885 1_545
O55 P14 1.541776 1_555
O55 V5 2.046942 1_555
O56 P2 1.502925 1_455
O57 P2 1.607835 1_455
O57 P15 1.618582 1_555
