# generated using pymatgen
data_B3H3SeO9
_symmetry_space_group_name_H-M   'P 1'
_cell_length_a   8.95957700
_cell_length_b   11.92775400
_cell_length_c   14.27075300
_cell_angle_alpha   90.00000000
_cell_angle_beta   90.00000000
_cell_angle_gamma   90.00000000
_symmetry_Int_Tables_number   1
_chemical_formula_structural   B3H3SeO9
_chemical_formula_sum   'B24 H24 Se8 O72'
_cell_volume   1525.08155713
_cell_formula_units_Z   8
loop_
 _symmetry_equiv_pos_site_id
 _symmetry_equiv_pos_as_xyz
  1  'x, y, z'
loop_
 _atom_site_type_symbol
 _atom_site_label
 _atom_site_symmetry_multiplicity
 _atom_site_fract_x
 _atom_site_fract_y
 _atom_site_fract_z
 _atom_site_occupancy
  B  B0  1  0.96716200  0.14881500  0.58153800  1
  B  B1  1  0.03283800  0.14881500  0.08153800  1
  B  B2  1  0.53667200  0.14644400  0.07336500  1
  B  B3  1  0.46332800  0.14644400  0.57336500  1
  B  B4  1  0.91414600  0.24510900  0.94820800  1
  B  B5  1  0.08585400  0.24510900  0.44820800  1
  B  B6  1  0.41414600  0.25489100  0.94820800  1
  B  B7  1  0.58585400  0.25489100  0.44820800  1
  B  B8  1  0.03667200  0.35355600  0.07336500  1
  B  B9  1  0.96332800  0.35355600  0.57336500  1
  B  B10  1  0.53283800  0.35118500  0.08153800  1
  B  B11  1  0.46716200  0.35118500  0.58153800  1
  B  B12  1  0.46716200  0.64881500  0.91846200  1
  B  B13  1  0.53283800  0.64881500  0.41846200  1
  B  B14  1  0.03667200  0.64644400  0.42663500  1
  B  B15  1  0.96332800  0.64644400  0.92663500  1
  B  B16  1  0.41414600  0.74510900  0.55179200  1
  B  B17  1  0.58585400  0.74510900  0.05179200  1
  B  B18  1  0.08585400  0.75489100  0.05179200  1
  B  B19  1  0.91414600  0.75489100  0.55179200  1
  B  B20  1  0.46332800  0.85355600  0.92663500  1
  B  B21  1  0.53667200  0.85355600  0.42663500  1
  B  B22  1  0.03283800  0.85118500  0.41846200  1
  B  B23  1  0.96716200  0.85118500  0.91846200  1
  H  H0  1  0.06252500  0.98580900  0.08837300  1
  H  H1  1  0.93747500  0.98580900  0.58837300  1
  H  H2  1  0.56163300  0.01914400  0.42101600  1
  H  H3  1  0.43836700  0.01914400  0.92101600  1
  H  H4  1  0.29410300  0.20243600  0.70266900  1
  H  H5  1  0.70589700  0.20243600  0.20266900  1
  H  H6  1  0.20589700  0.29756400  0.20266900  1
  H  H7  1  0.79410300  0.29756400  0.70266900  1
  H  H8  1  0.06163300  0.48085600  0.42101600  1
  H  H9  1  0.93836700  0.48085600  0.92101600  1
  H  H10  1  0.56252500  0.51419100  0.08837300  1
  H  H11  1  0.43747500  0.51419100  0.58837300  1
  H  H12  1  0.43747500  0.48580900  0.91162700  1
  H  H13  1  0.56252500  0.48580900  0.41162700  1
  H  H14  1  0.06163300  0.51914400  0.07898400  1
  H  H15  1  0.93836700  0.51914400  0.57898400  1
  H  H16  1  0.79410300  0.70243600  0.79733100  1
  H  H17  1  0.20589700  0.70243600  0.29733100  1
  H  H18  1  0.29410300  0.79756400  0.79733100  1
  H  H19  1  0.70589700  0.79756400  0.29733100  1
  H  H20  1  0.43836700  0.98085600  0.57898400  1
  H  H21  1  0.56163300  0.98085600  0.07898400  1
  H  H22  1  0.06252500  0.01419100  0.41162700  1
  H  H23  1  0.93747500  0.01419100  0.91162700  1
  Se  Se0  1  0.34047000  0.22592500  0.32341600  1
  Se  Se1  1  0.65953000  0.22592500  0.82341600  1
  Se  Se2  1  0.15953000  0.27407500  0.82341600  1
  Se  Se3  1  0.84047000  0.27407500  0.32341600  1
  Se  Se4  1  0.15953000  0.72592500  0.67658400  1
  Se  Se5  1  0.84047000  0.72592500  0.17658400  1
  Se  Se6  1  0.34047000  0.77407500  0.17658400  1
  Se  Se7  1  0.65953000  0.77407500  0.67658400  1
  O  O0  1  0.41339400  0.05077300  0.61228000  1
  O  O1  1  0.58660600  0.05077300  0.11228000  1
  O  O2  1  0.08637000  0.05535200  0.12211300  1
  O  O3  1  0.91363000  0.05535200  0.62211300  1
  O  O4  1  0.32710300  0.10028200  0.28435800  1
  O  O5  1  0.67289700  0.10028200  0.78435800  1
  O  O6  1  0.94286800  0.14717700  0.00251700  1
  O  O7  1  0.05713200  0.14717700  0.50251700  1
  O  O8  1  0.54178400  0.15025000  0.48963300  1
  O  O9  1  0.45821600  0.15025000  0.98963300  1
  O  O10  1  0.78964000  0.17124000  0.24344400  1
  O  O11  1  0.21036000  0.17124000  0.74344400  1
  O  O12  1  0.01717900  0.22926100  0.34886700  1
  O  O13  1  0.98282100  0.22926100  0.84886700  1
  O  O14  1  0.25297600  0.25412400  0.42807100  1
  O  O15  1  0.74702400  0.25412400  0.92807100  1
  O  O16  1  0.42759000  0.24623000  0.62073600  1
  O  O17  1  0.57241000  0.24623000  0.12073600  1
  O  O18  1  0.07241000  0.25377000  0.12073600  1
  O  O19  1  0.92759000  0.25377000  0.62073600  1
  O  O20  1  0.75297600  0.24587600  0.42807100  1
  O  O21  1  0.24702400  0.24587600  0.92807100  1
  O  O22  1  0.48282100  0.27073900  0.84886700  1
  O  O23  1  0.51717900  0.27073900  0.34886700  1
  O  O24  1  0.28964000  0.32876000  0.24344400  1
  O  O25  1  0.71036000  0.32876000  0.74344400  1
  O  O26  1  0.04178400  0.34975000  0.48963300  1
  O  O27  1  0.95821600  0.34975000  0.98963300  1
  O  O28  1  0.55713200  0.35282300  0.50251700  1
  O  O29  1  0.44286800  0.35282300  0.00251700  1
  O  O30  1  0.82710300  0.39971800  0.28435800  1
  O  O31  1  0.17289700  0.39971800  0.78435800  1
  O  O32  1  0.58637000  0.44464800  0.12211300  1
  O  O33  1  0.41363000  0.44464800  0.62211300  1
  O  O34  1  0.08660600  0.44922700  0.11228000  1
  O  O35  1  0.91339400  0.44922700  0.61228000  1
  O  O36  1  0.08660600  0.55077300  0.38772000  1
  O  O37  1  0.91339400  0.55077300  0.88772000  1
  O  O38  1  0.58637000  0.55535200  0.37788700  1
  O  O39  1  0.41363000  0.55535200  0.87788700  1
  O  O40  1  0.82710300  0.60028200  0.21564200  1
  O  O41  1  0.17289700  0.60028200  0.71564200  1
  O  O42  1  0.44286800  0.64717700  0.49748300  1
  O  O43  1  0.55713200  0.64717700  0.99748300  1
  O  O44  1  0.04178400  0.65025000  0.01036700  1
  O  O45  1  0.95821600  0.65025000  0.51036700  1
  O  O46  1  0.28964000  0.67124000  0.25655600  1
  O  O47  1  0.71036000  0.67124000  0.75655600  1
  O  O48  1  0.48282100  0.72926100  0.65113300  1
  O  O49  1  0.51717900  0.72926100  0.15113300  1
  O  O50  1  0.24702400  0.75412400  0.57192900  1
  O  O51  1  0.75297600  0.75412400  0.07192900  1
  O  O52  1  0.92759000  0.74623000  0.87926400  1
  O  O53  1  0.07241000  0.74623000  0.37926400  1
  O  O54  1  0.42759000  0.75377000  0.87926400  1
  O  O55  1  0.57241000  0.75377000  0.37926400  1
  O  O56  1  0.25297600  0.74587600  0.07192900  1
  O  O57  1  0.74702400  0.74587600  0.57192900  1
  O  O58  1  0.01717900  0.77073900  0.15113300  1
  O  O59  1  0.98282100  0.77073900  0.65113300  1
  O  O60  1  0.21036000  0.82876000  0.75655600  1
  O  O61  1  0.78964000  0.82876000  0.25655600  1
  O  O62  1  0.45821600  0.84975000  0.51036700  1
  O  O63  1  0.54178400  0.84975000  0.01036700  1
  O  O64  1  0.05713200  0.85282300  0.99748300  1
  O  O65  1  0.94286800  0.85282300  0.49748300  1
  O  O66  1  0.32710300  0.89971800  0.21564200  1
  O  O67  1  0.67289700  0.89971800  0.71564200  1
  O  O68  1  0.08637000  0.94464800  0.37788700  1
  O  O69  1  0.91363000  0.94464800  0.87788700  1
  O  O70  1  0.41339400  0.94922700  0.88772000  1
  O  O71  1  0.58660600  0.94922700  0.38772000  1
loop_
_geom_bond_atom_site_label_1
_geom_bond_atom_site_label_2
_geom_bond_distance
_geom_bond_site_symmetry_2
B0 O3 1.344659 1_555
B0 O7 1.386308 1_655
B0 O19 1.416267 1_555
B1 O2 1.344659 1_555
B1 O6 1.386308 1_455
B1 O18 1.416267 1_555
B2 O1 1.345647 1_555
B2 O9 1.387085 1_554
B2 O17 1.405759 1_555
B3 O0 1.345647 1_555
B3 O8 1.387085 1_555
B3 O16 1.405759 1_555
B4 O6 1.425262 1_556
B4 O27 1.436390 1_555
B4 O15 1.528456 1_555
B4 O13 1.556957 1_555
B5 O7 1.425262 1_555
B5 O26 1.436390 1_555
B5 O14 1.528456 1_555
B5 O12 1.556957 1_555
B6 O29 1.425262 1_556
B6 O9 1.436390 1_555
B6 O21 1.528456 1_555
B6 O22 1.556957 1_555
B7 O28 1.425262 1_555
B7 O8 1.436390 1_555
B7 O20 1.528456 1_555
B7 O23 1.556957 1_555
B8 O34 1.345647 1_555
B8 O27 1.387085 1_454
B8 O18 1.405759 1_555
B9 O35 1.345647 1_555
B9 O26 1.387085 1_655
B9 O19 1.405759 1_555
B10 O32 1.344659 1_555
B10 O29 1.386308 1_555
B10 O17 1.416267 1_555
B11 O33 1.344659 1_555
B11 O28 1.386308 1_555
B11 O16 1.416267 1_555
B12 O39 1.344659 1_555
B12 O43 1.386308 1_555
B12 O54 1.416267 1_555
B13 O38 1.344659 1_555
B13 O42 1.386308 1_555
B13 O55 1.416267 1_555
B14 O36 1.345647 1_555
B14 O45 1.387085 1_455
B14 O53 1.405759 1_555
B15 O37 1.345647 1_555
B15 O44 1.387085 1_656
B15 O52 1.405759 1_555
B16 O42 1.425262 1_555
B16 O62 1.436390 1_555
B16 O50 1.528456 1_555
B16 O48 1.556957 1_555
B17 O43 1.425262 1_554
B17 O63 1.436390 1_555
B17 O51 1.528456 1_555
B17 O49 1.556957 1_555
B18 O64 1.425262 1_554
B18 O44 1.436390 1_555
B18 O56 1.528456 1_555
B18 O58 1.556957 1_555
B19 O65 1.425262 1_555
B19 O45 1.436390 1_555
B19 O57 1.528456 1_555
B19 O59 1.556957 1_555
B20 O70 1.345647 1_555
B20 O63 1.387085 1_556
B20 O54 1.405759 1_555
B21 O71 1.345647 1_555
B21 O62 1.387085 1_555
B21 O55 1.405759 1_555
B22 O68 1.344659 1_555
B22 O65 1.386308 1_455
B22 O53 1.416267 1_555
B23 O69 1.344659 1_555
B23 O64 1.386308 1_655
B23 O52 1.416267 1_555
H0 O2 0.982617 1_565
H1 O3 0.982617 1_565
H2 O71 0.985554 1_545
H3 O70 0.985554 1_545
H4 O11 1.019807 1_555
H5 O10 1.019807 1_555
H6 O24 1.019807 1_555
H7 O25 1.019807 1_555
H8 O36 0.985554 1_555
H9 O37 0.985554 1_555
H10 O32 0.982617 1_555
H11 O33 0.982617 1_555
H12 O39 0.982617 1_555
H13 O38 0.982617 1_555
H14 O34 0.985554 1_555
H15 O35 0.985554 1_555
H16 O47 1.019807 1_555
H17 O46 1.019807 1_555
H18 O60 1.019807 1_555
H19 O61 1.019807 1_555
H20 O0 0.985554 1_565
H21 O1 0.985554 1_565
H22 O68 0.982617 1_545
H23 O69 0.982617 1_545
O4 Se0 1.603416 1_555
O5 Se1 1.603416 1_555
O10 Se3 1.736204 1_555
O11 Se2 1.736204 1_555
O12 Se3 1.710053 1_455
O13 Se2 1.710053 1_655
O14 Se0 1.719943 1_555
O15 Se1 1.719943 1_555
O20 Se3 1.719943 1_555
O21 Se2 1.719943 1_555
O22 Se1 1.710053 1_555
O23 Se0 1.710053 1_555
O24 Se0 1.736204 1_555
O25 Se1 1.736204 1_555
O30 Se3 1.603416 1_555
O31 Se2 1.603416 1_555
O40 Se5 1.603416 1_555
O41 Se4 1.603416 1_555
O46 Se6 1.736204 1_555
O47 Se7 1.736204 1_555
O48 Se7 1.710053 1_555
O49 Se6 1.710053 1_555
O50 Se4 1.719943 1_555
O51 Se5 1.719943 1_555
O56 Se6 1.719943 1_555
O57 Se7 1.719943 1_555
O58 Se5 1.710053 1_455
O59 Se4 1.710053 1_655
O60 Se4 1.736204 1_555
O61 Se5 1.736204 1_555
O66 Se6 1.603416 1_555
O67 Se7 1.603416 1_555
