# generated using pymatgen
data_Ti3Fe2Te(PO4)6
_symmetry_space_group_name_H-M   'P 1'
_cell_length_a   8.64726101
_cell_length_b   8.64726101
_cell_length_c   8.64726146
_cell_angle_alpha   61.30084732
_cell_angle_beta   61.30084732
_cell_angle_gamma   61.30085330
_symmetry_Int_Tables_number   1
_chemical_formula_structural   Ti3Fe2Te(PO4)6
_chemical_formula_sum   'Ti3 Fe2 Te1 P6 O24'
_cell_volume   470.58481012
_cell_formula_units_Z   1
loop_
 _symmetry_equiv_pos_site_id
 _symmetry_equiv_pos_as_xyz
  1  'x, y, z'
loop_
 _atom_site_type_symbol
 _atom_site_label
 _atom_site_symmetry_multiplicity
 _atom_site_fract_x
 _atom_site_fract_y
 _atom_site_fract_z
 _atom_site_occupancy
  Ti  Ti0  1  0.85589900  0.85589900  0.85589900  1
  Ti  Ti1  1  0.64479500  0.64479500  0.64479500  1
  Ti  Ti2  1  0.35701700  0.35701700  0.35701700  1
  Fe  Fe0  1  0.99648000  0.99648000  0.99648000  1
  Fe  Fe1  1  0.50047700  0.50047700  0.50047700  1
  Te  Te0  1  0.14540000  0.14540000  0.14540000  1
  P  P0  1  0.74309500  0.46217400  0.04311500  1
  P  P1  1  0.46217400  0.04311500  0.74309500  1
  P  P2  1  0.04311500  0.74309500  0.46217400  1
  P  P3  1  0.95074400  0.25267600  0.55392300  1
  P  P4  1  0.55392300  0.95074400  0.25267600  1
  P  P5  1  0.25267600  0.55392300  0.95074400  1
  O  O0  1  0.88879900  0.67187200  0.50921300  1
  O  O1  1  0.67187200  0.50921300  0.88879900  1
  O  O2  1  0.93748400  0.09266900  0.74446000  1
  O  O3  1  0.50921300  0.88879900  0.67187200  1
  O  O4  1  0.97689500  0.18525600  0.40318800  1
  O  O5  1  0.75784700  0.41007800  0.56945300  1
  O  O6  1  0.74446000  0.93748400  0.09266900  1
  O  O7  1  0.56945300  0.75784700  0.41007800  1
  O  O8  1  0.81746300  0.61272000  0.00077600  1
  O  O9  1  0.41007800  0.56945300  0.75784700  1
  O  O10  1  0.89794900  0.26447700  0.05182100  1
  O  O11  1  0.61272000  0.00077600  0.81746300  1
  O  O12  1  0.40318800  0.97689500  0.18525600  1
  O  O13  1  0.09266900  0.74446000  0.93748400  1
  O  O14  1  0.58872500  0.44584700  0.23809100  1
  O  O15  1  0.18525600  0.40318800  0.97689500  1
  O  O16  1  0.44584700  0.23809100  0.58872500  1
  O  O17  1  0.26447700  0.05182100  0.89794900  1
  O  O18  1  0.23809100  0.58872500  0.44584700  1
  O  O19  1  0.00077600  0.81746300  0.61272000  1
  O  O20  1  0.50241500  0.11374600  0.31296200  1
  O  O21  1  0.05182100  0.89794900  0.26447700  1
  O  O22  1  0.31296200  0.50241500  0.11374600  1
  O  O23  1  0.11374600  0.31296200  0.50241500  1
loop_
_geom_bond_atom_site_label_1
_geom_bond_atom_site_label_2
_geom_bond_distance
_geom_bond_site_symmetry_2
Fe0 O6 2.149577 1_556
Fe0 O13 2.149577 1_655
Fe0 O2 2.149577 1_565
Fe0 O17 2.258901 1_665
Fe0 O10 2.258901 1_566
Fe0 O21 2.258901 1_656
Fe1 O16 2.230199 1_555
Fe1 O18 2.230199 1_555
Fe1 O14 2.230199 1_555
Fe1 O7 2.253022 1_555
Fe1 O5 2.253022 1_555
Fe1 O9 2.253022 1_555
O0 P2 1.533894 1_655
O0 Ti1 1.927776 1_555
O1 P0 1.533894 1_556
O1 Ti1 1.927776 1_555
O2 P3 1.556820 1_555
O2 Ti0 2.111315 1_545
O3 P1 1.533894 1_565
O3 Ti1 1.927776 1_555
O4 P3 1.552455 1_555
O4 Te0 2.084966 1_655
O5 P3 1.559764 1_555
O5 Ti1 2.062112 1_555
O6 P4 1.556820 1_555
O6 Ti0 2.111316 1_554
O7 P4 1.559764 1_555
O7 Ti1 2.062112 1_555
O8 P0 1.537031 1_555
O8 Ti0 1.960371 1_554
O9 P5 1.559764 1_555
O9 Ti1 2.062112 1_555
O10 P0 1.579846 1_555
O10 Te0 2.245068 1_655
O11 P1 1.537031 1_555
O11 Ti0 1.960372 1_545
O12 P4 1.552455 1_555
O12 Te0 2.084966 1_565
O13 P5 1.556820 1_555
O13 Ti0 2.111316 1_455
O14 P0 1.560547 1_555
O14 Ti2 2.098261 1_555
O15 P5 1.552455 1_555
O15 Te0 2.084966 1_556
O16 P1 1.560547 1_555
O16 Ti2 2.098261 1_555
O17 P1 1.579846 1_555
O17 Te0 2.245068 1_556
O18 P2 1.560547 1_555
O18 Ti2 2.098261 1_555
O19 P2 1.537031 1_555
O19 Ti0 1.960372 1_455
O20 P4 1.528610 1_545
O20 Ti2 1.980056 1_555
O21 P2 1.579846 1_555
O21 Te0 2.245068 1_565
O22 P5 1.528610 1_554
O22 Ti2 1.980056 1_555
O23 P3 1.528610 1_455
O23 Ti2 1.980056 1_555
