# generated using pymatgen
data_LiCuCO3
_symmetry_space_group_name_H-M   'P 1'
_cell_length_a   3.21087100
_cell_length_b   14.15843702
_cell_length_c   14.23967754
_cell_angle_alpha   119.80893626
_cell_angle_beta   95.06568348
_cell_angle_gamma   90.00336690
_symmetry_Int_Tables_number   1
_chemical_formula_structural   LiCuCO3
_chemical_formula_sum   'Li9 Cu9 C9 O27'
_cell_volume   558.77887878
_cell_formula_units_Z   9
loop_
 _symmetry_equiv_pos_site_id
 _symmetry_equiv_pos_as_xyz
  1  'x, y, z'
loop_
 _atom_site_type_symbol
 _atom_site_label
 _atom_site_symmetry_multiplicity
 _atom_site_fract_x
 _atom_site_fract_y
 _atom_site_fract_z
 _atom_site_occupancy
  Li  Li0  1  0.99873300  0.22833800  0.12289500  1
  Li  Li1  1  0.99713100  0.52373200  0.42284600  1
  Li  Li2  1  0.97758700  0.89402900  0.76986200  1
  Li  Li3  1  0.00870500  0.57760700  0.10324200  1
  Li  Li4  1  0.00508900  0.89883700  0.47659500  1
  Li  Li5  1  0.99525400  0.18427100  0.75543800  1
  Li  Li6  1  0.02894700  0.87536900  0.10500800  1
  Li  Li7  1  0.92718600  0.24708800  0.43186700  1
  Li  Li8  1  0.06233100  0.56995600  0.81774100  1
  Cu  Cu0  1  0.49324600  0.45483000  0.19783600  1
  Cu  Cu1  1  0.50614800  0.74086900  0.54496300  1
  Cu  Cu2  1  0.49993800  0.12004800  0.90512700  1
  Cu  Cu3  1  0.48810200  0.80311900  0.25530100  1
  Cu  Cu4  1  0.53949600  0.11822300  0.54626300  1
  Cu  Cu5  1  0.51105000  0.09198900  0.21476600  1
  Cu  Cu6  1  0.55048400  0.42367400  0.87585300  1
  Cu  Cu7  1  0.43127300  0.44991000  0.56791900  1
  Cu  Cu8  1  0.49868700  0.78695000  0.87881400  1
  C  C0  1  0.47255500  0.33013400  0.31773300  1
  C  C1  1  0.02601600  0.99997400  0.99935500  1
  C  C2  1  0.97013000  0.66679100  0.33316900  1
  C  C3  1  0.48945300  0.98604700  0.66853300  1
  C  C4  1  0.53725800  0.68374700  0.01461900  1
  C  C5  1  0.01877300  0.00857900  0.34393800  1
  C  C6  1  0.96930600  0.33354900  0.99031500  1
  C  C7  1  0.99766400  0.33403400  0.66699300  1
  C  C8  1  0.00768100  0.65407400  0.66466500  1
  O  O0  1  0.52617100  0.24986600  0.22151000  1
  O  O1  1  0.47771700  0.43006200  0.33615500  1
  O  O2  1  0.12073800  0.33722000  0.07954800  1
  O  O3  1  0.87764300  0.73948900  0.66189200  1
  O  O4  1  0.89171200  0.57910600  0.23854300  1
  O  O5  1  0.07630500  0.65814200  0.41869100  1
  O  O6  1  0.09626400  0.08726300  0.99323400  1
  O  O7  1  0.94657500  0.76191100  0.34080300  1
  O  O8  1  0.46914500  0.96818400  0.74939300  1
  O  O9  1  0.52797900  0.90514700  0.57103100  1
  O  O10  1  0.50658900  0.66449800  0.09445100  1
  O  O11  1  0.47148900  0.08396800  0.68494100  1
  O  O12  1  0.50464000  0.78236800  0.03115100  1
  O  O13  1  0.10550100  0.91928400  0.25846300  1
  O  O14  1  0.82866300  0.24171400  0.90594400  1
  O  O15  1  0.09111700  0.01787300  0.44051400  1
  O  O16  1  0.93751900  0.23754600  0.65339800  1
  O  O17  1  0.85269500  0.08808200  0.33586300  1
  O  O18  1  0.96019900  0.42254600  0.98422800  1
  O  O19  1  0.05346200  0.00562900  0.09364300  1
  O  O20  1  0.14711400  0.41403900  0.76162100  1
  O  O21  1  0.91216300  0.35287500  0.58721700  1
  O  O22  1  0.41356700  0.31107200  0.39561100  1
  O  O23  1  0.60114700  0.60527500  0.91946800  1
  O  O24  1  0.96938800  0.55817200  0.57653000  1
  O  O25  1  0.17662000  0.66222400  0.75480300  1
  O  O26  1  0.92336700  0.90749300  0.91127800  1
loop_
_geom_bond_atom_site_label_1
_geom_bond_atom_site_label_2
_geom_bond_distance
_geom_bond_site_symmetry_2
Li0 O2 1.974756 1_655
Li0 O6 1.982992 1_654
Li0 O0 2.021707 1_655
Li0 O0 2.077957 1_555
Li1 O5 1.950440 1_655
Li1 O24 2.002084 1_555
Li1 O1 2.018086 1_555
Li1 O1 2.091132 1_655
Li2 O26 1.949864 1_555
Li2 O3 1.955124 1_555
Li2 O8 2.015864 1_655
Li2 O8 2.018143 1_555
Li3 O4 1.985112 1_455
Li3 O18 1.992597 1_454
Li3 O10 2.060619 1_455
Li3 O10 2.067133 1_555
Li4 O7 1.934284 1_455
Li4 O15 2.016590 1_565
Li4 O9 2.029027 1_555
Li4 O9 2.099406 1_455
Li5 O16 1.938217 1_555
Li5 O14 2.002559 1_555
Li5 O11 2.033957 1_555
Li5 O11 2.053462 1_655
Li6 O19 1.932025 1_565
Li6 O13 1.943251 1_555
Li6 O12 1.996063 1_455
Li6 O12 2.019879 1_555
Li7 O21 1.965687 1_555
Li7 O17 1.968925 1_555
Li7 O22 2.030215 1_555
Li7 O22 2.033066 1_655
Li8 O25 1.966347 1_555
Li8 O20 1.967366 1_555
Li8 O23 2.044181 1_555
Li8 O23 2.049359 1_455
Cu0 O2 1.973818 1_555
Cu0 O4 1.980829 1_555
Cu0 O1 2.170000 1_555
Cu0 O4 2.519245 1_455
Cu1 O3 1.969048 1_555
Cu1 O5 1.994374 1_555
Cu1 O9 2.165549 1_555
Cu1 O5 2.538526 1_655
Cu2 O14 2.014757 1_555
Cu2 O6 2.082217 1_555
Cu2 O8 2.184339 1_545
Cu2 O6 2.368668 1_655
Cu3 O13 2.037808 1_555
Cu3 O7 2.092765 1_555
Cu3 O10 2.157860 1_555
Cu3 O7 2.434352 1_455
Cu3 O13 2.558751 1_655
Cu4 O15 1.961810 1_555
Cu4 O16 1.976819 1_555
Cu4 O11 2.282718 1_555
Cu4 O15 2.401556 1_655
Cu4 O16 2.622249 1_455
Cu5 O17 1.985122 1_555
Cu5 O19 2.020918 1_555
Cu5 O0 2.189487 1_555
Cu5 O19 2.436608 1_655
Cu6 O20 1.936313 1_555
Cu6 O18 1.943820 1_555
Cu6 O23 2.327585 1_555
Cu6 O18 2.552469 1_455
Cu6 O20 2.581501 1_655
Cu7 O24 2.099890 1_455
Cu7 O21 2.155889 1_555
Cu7 O22 2.251140 1_555
Cu7 O24 2.263921 1_555
Cu7 O21 2.279735 1_455
Cu8 O25 1.970566 1_555
Cu8 O26 2.022353 1_555
Cu8 O12 2.200619 1_556
Cu8 O26 2.430171 1_455
C0 O22 1.293503 1_555
C0 O0 1.300813 1_555
C0 O1 1.304243 1_555
C1 O19 1.299639 1_566
C1 O26 1.300130 1_455
C1 O6 1.302459 1_565
C2 O7 1.298917 1_555
C2 O5 1.299701 1_655
C2 O4 1.302756 1_555
C3 O11 1.288557 1_565
C3 O8 1.302600 1_555
C3 O9 1.305441 1_555
C4 O23 1.290250 1_554
C4 O12 1.301406 1_555
C4 O10 1.305387 1_555
C5 O17 1.297139 1_455
C5 O13 1.298984 1_545
C5 O15 1.313829 1_555
C6 O2 1.295724 1_656
C6 O14 1.299607 1_555
C6 O18 1.305473 1_555
C7 O16 1.292859 1_555
C7 O21 1.297384 1_555
C7 O20 1.302802 1_655
C8 O3 1.297316 1_455
C8 O25 1.298002 1_555
C8 O24 1.308570 1_455
