# generated using pymatgen
data_NaCr4O8
_symmetry_space_group_name_H-M   'P 1'
_cell_length_a   7.12621040
_cell_length_b   7.12621040
_cell_length_c   7.12621040
_cell_angle_alpha   92.51966638
_cell_angle_beta   92.51966638
_cell_angle_gamma   155.79375034
_symmetry_Int_Tables_number   1
_chemical_formula_structural   NaCr4O8
_chemical_formula_sum   'Na1 Cr4 O8'
_cell_volume   145.08454262
_cell_formula_units_Z   1
loop_
 _symmetry_equiv_pos_site_id
 _symmetry_equiv_pos_as_xyz
  1  'x, y, z'
loop_
 _atom_site_type_symbol
 _atom_site_label
 _atom_site_symmetry_multiplicity
 _atom_site_fract_x
 _atom_site_fract_y
 _atom_site_fract_z
 _atom_site_occupancy
  Na  Na0  1  0.50000000  0.50000000  0.00000000  1
  Cr  Cr0  1  0.34787500  0.16548800  0.51336300  1
  Cr  Cr1  1  0.83451200  0.34787500  0.18238700  1
  Cr  Cr2  1  0.16548800  0.65212500  0.81761300  1
  Cr  Cr3  1  0.65212500  0.83451200  0.48663700  1
  O  O0  1  0.84814000  0.80118600  0.64932600  1
  O  O1  1  0.83713200  0.54007200  0.37720400  1
  O  O2  1  0.19881500  0.84814000  0.04695500  1
  O  O3  1  0.54007200  0.16286800  0.70293900  1
  O  O4  1  0.45992800  0.83713200  0.29706100  1
  O  O5  1  0.80118600  0.15186000  0.95304500  1
  O  O6  1  0.16286800  0.45992800  0.62279600  1
  O  O7  1  0.15186000  0.19881500  0.35067400  1
loop_
_geom_bond_atom_site_label_1
_geom_bond_atom_site_label_2
_geom_bond_distance
_geom_bond_site_symmetry_2
Na0 O0 2.882692 1_554
Na0 O0 2.882692 1_444
Na0 O7 2.882692 1_555
Na0 O5 2.882692 1_454
Na0 O7 2.882694 1_665
Na0 O5 2.882694 1_564
Na0 O2 2.882699 1_655
Na0 O2 2.882699 1_545
Cr0 O3 1.894074 1_555
Cr0 O1 1.941920 1_555
Cr0 O1 1.941920 1_445
Cr0 O7 1.959249 1_555
Cr0 O0 2.005130 1_445
Cr0 O0 2.005130 1_555
Cr1 O1 1.894079 1_555
Cr1 O4 1.941921 1_655
Cr1 O4 1.941924 1_545
Cr1 O5 1.959249 1_554
Cr1 O2 2.005123 1_655
Cr1 O2 2.005123 1_545
Cr2 O6 1.894079 1_555
Cr2 O3 1.941921 1_455
Cr2 O3 1.941924 1_565
Cr2 O2 1.959245 1_556
Cr2 O5 2.005125 1_455
Cr2 O5 2.005128 1_565
Cr3 O4 1.894074 1_555
Cr3 O6 1.941920 1_555
Cr3 O6 1.941920 1_665
Cr3 O0 1.959243 1_555
Cr3 O7 2.005125 1_555
Cr3 O7 2.005128 1_665
