# generated using pymatgen
data_Li2NbS3
_symmetry_space_group_name_H-M   'P 1'
_cell_length_a   6.20382121
_cell_length_b   6.20382121
_cell_length_c   12.46371516
_cell_angle_alpha   84.41977950
_cell_angle_beta   84.41977950
_cell_angle_gamma   119.54929554
_symmetry_Int_Tables_number   1
_chemical_formula_structural   Li2NbS3
_chemical_formula_sum   'Li8 Nb4 S12'
_cell_volume   409.44342952
_cell_formula_units_Z   4
loop_
 _symmetry_equiv_pos_site_id
 _symmetry_equiv_pos_as_xyz
  1  'x, y, z'
loop_
 _atom_site_type_symbol
 _atom_site_label
 _atom_site_symmetry_multiplicity
 _atom_site_fract_x
 _atom_site_fract_y
 _atom_site_fract_z
 _atom_site_occupancy
  Li  Li0  1  0.85236100  0.67742100  0.99943700  1
  Li  Li1  1  0.00000000  0.50000000  0.50000000  1
  Li  Li2  1  0.91290900  0.08709100  0.75000000  1
  Li  Li3  1  0.50000000  0.00000000  0.00000000  1
  Li  Li4  1  0.32257900  0.14763900  0.50056300  1
  Li  Li5  1  0.67742100  0.85236100  0.49943700  1
  Li  Li6  1  0.08709100  0.91290900  0.25000000  1
  Li  Li7  1  0.14763900  0.32257900  0.00056300  1
  Nb  Nb0  1  0.72749100  0.27250900  0.25000000  1
  Nb  Nb1  1  0.55405600  0.44594400  0.75000000  1
  Nb  Nb2  1  0.44594400  0.55405600  0.25000000  1
  Nb  Nb3  1  0.27250900  0.72749100  0.75000000  1
  S  S0  1  0.94945500  0.77403500  0.63523600  1
  S  S1  1  0.70482200  0.53235300  0.38009100  1
  S  S2  1  0.87691600  0.39930300  0.86423400  1
  S  S3  1  0.46764700  0.29517800  0.11990900  1
  S  S4  1  0.77403500  0.94945500  0.13523600  1
  S  S5  1  0.39930300  0.87691600  0.36423400  1
  S  S6  1  0.60069700  0.12308400  0.63576600  1
  S  S7  1  0.22596500  0.05054500  0.86476400  1
  S  S8  1  0.53235300  0.70482200  0.88009100  1
  S  S9  1  0.12308400  0.60069700  0.13576600  1
  S  S10  1  0.29517800  0.46764700  0.61990900  1
  S  S11  1  0.05054500  0.22596500  0.36476400  1
loop_
_geom_bond_atom_site_label_1
_geom_bond_atom_site_label_2
_geom_bond_distance
_geom_bond_site_symmetry_2
Li0 S3 2.569517 1_556
Li0 S2 2.571893 1_555
Li0 S7 2.596853 1_665
Li0 S8 2.653460 1_555
Li0 S9 2.668467 1_656
Li0 S4 2.674598 1_556
Li1 S10 2.542381 1_555
Li1 S1 2.542381 1_455
Li1 S0 2.609580 1_455
Li1 S11 2.609580 1_555
Li1 S6 2.677597 1_455
Li1 S5 2.677597 1_555
Li2 S6 2.594167 1_555
Li2 S2 2.594167 1_555
Li2 S0 2.604005 1_545
Li2 S7 2.604005 1_655
Li2 S10 2.610024 1_655
Li2 S8 2.610024 1_545
Li3 S3 2.542381 1_555
Li3 S8 2.542381 1_544
Li3 S4 2.609580 1_545
Li3 S7 2.609580 1_554
Li3 S9 2.677597 1_545
Li3 S2 2.677597 1_554
Li4 S1 2.569517 1_555
Li4 S6 2.571893 1_555
Li4 S0 2.596853 1_445
Li4 S10 2.653460 1_555
Li4 S5 2.668467 1_545
Li4 S11 2.674598 1_555
Li5 S10 2.569517 1_555
Li5 S5 2.571893 1_555
Li5 S11 2.596853 1_665
Li5 S1 2.653460 1_555
Li5 S6 2.668467 1_565
Li5 S0 2.674598 1_555
Li6 S9 2.594167 1_555
Li6 S5 2.594167 1_555
Li6 S11 2.604005 1_565
Li6 S4 2.604005 1_455
Li6 S3 2.610024 1_565
Li6 S1 2.610024 1_455
Li7 S8 2.569517 1_554
Li7 S9 2.571893 1_555
Li7 S4 2.596853 1_445
Li7 S3 2.653460 1_555
Li7 S2 2.668467 1_454
Li7 S7 2.674598 1_554
Nb0 S1 2.436182 1_555
Nb0 S3 2.436182 1_555
Nb0 S5 2.454324 1_545
Nb0 S9 2.454324 1_655
Nb0 S4 2.682177 1_545
Nb0 S11 2.682177 1_655
Nb1 S8 2.429758 1_555
Nb1 S10 2.429758 1_555
Nb1 S7 2.456179 1_555
Nb1 S0 2.456179 1_555
Nb1 S2 2.677477 1_555
Nb1 S6 2.677477 1_555
Nb2 S3 2.429758 1_555
Nb2 S1 2.429758 1_555
Nb2 S11 2.456179 1_555
Nb2 S4 2.456179 1_555
Nb2 S5 2.677477 1_555
Nb2 S9 2.677477 1_555
Nb3 S10 2.436182 1_555
Nb3 S8 2.436182 1_555
Nb3 S2 2.454324 1_455
Nb3 S6 2.454324 1_565
Nb3 S0 2.682177 1_455
Nb3 S7 2.682177 1_565
