# generated using pymatgen
data_Li3VF6
_symmetry_space_group_name_H-M   'P 1'
_cell_length_a   8.66927000
_cell_length_b   5.16825000
_cell_length_c   5.32398877
_cell_angle_alpha   69.13021446
_cell_angle_beta   90.00000000
_cell_angle_gamma   90.00000000
_symmetry_Int_Tables_number   1
_chemical_formula_structural   Li3VF6
_chemical_formula_sum   'Li6 V2 F12'
_cell_volume   222.89098401
_cell_formula_units_Z   2
loop_
 _symmetry_equiv_pos_site_id
 _symmetry_equiv_pos_as_xyz
  1  'x, y, z'
loop_
 _atom_site_type_symbol
 _atom_site_label
 _atom_site_symmetry_multiplicity
 _atom_site_fract_x
 _atom_site_fract_y
 _atom_site_fract_z
 _atom_site_occupancy
  Li  Li0  1  0.16301400  0.41878300  0.01095500  1
  Li  Li1  1  0.33775600  0.90297100  0.10580800  1
  Li  Li2  1  0.66037200  0.79839000  0.45297500  1
  Li  Li3  1  0.16037200  0.20161000  0.54702500  1
  Li  Li4  1  0.66301400  0.58121700  0.98904500  1
  Li  Li5  1  0.83775600  0.09702900  0.89419200  1
  V  V0  1  0.99866000  0.74762000  0.48213000  1
  V  V1  1  0.49866000  0.25238000  0.51787000  1
  F  F0  1  0.82914800  0.74943700  0.22735600  1
  F  F1  1  0.50225400  0.65294200  0.27606900  1
  F  F2  1  0.16212900  0.64363400  0.27911700  1
  F  F3  1  0.64890600  0.20546400  0.26282700  1
  F  F4  1  0.02583200  0.14242600  0.26790600  1
  F  F5  1  0.33407300  0.17627800  0.29620600  1
  F  F6  1  0.66212900  0.35636600  0.72088300  1
  F  F7  1  0.00225400  0.34705800  0.72393100  1
  F  F8  1  0.32914800  0.25056300  0.77264400  1
  F  F9  1  0.83407300  0.82372200  0.70379400  1
  F  F10  1  0.52583200  0.85757400  0.73209400  1
  F  F11  1  0.14890600  0.79453600  0.73717300  1
loop_
_geom_bond_atom_site_label_1
_geom_bond_atom_site_label_2
_geom_bond_distance
_geom_bond_site_symmetry_2
F0 Li2 1.965771 1_555
F0 V0 1.997607 1_555
F0 Li5 2.026988 1_564
F0 Li4 2.286023 1_554
F1 Li1 1.921098 1_555
F1 Li2 1.958466 1_555
F1 V1 2.011253 1_555
F1 Li4 2.195099 1_554
F2 V0 1.969578 1_455
F2 Li1 2.021104 1_555
F2 Li0 2.137966 1_555
F2 Li3 2.220800 1_555
F3 V1 1.957981 1_555
F3 Li4 1.973342 1_554
F3 Li2 1.985816 1_545
F4 V0 1.965107 1_445
F4 Li0 1.983343 1_555
F4 Li3 1.996521 1_555
F5 V1 1.978391 1_555
F5 Li1 2.010955 1_545
F5 Li3 2.047560 1_555
F5 Li0 2.172603 1_555
F6 V1 1.969578 1_555
F6 Li5 2.021104 1_555
F6 Li4 2.137966 1_555
F6 Li2 2.220800 1_555
F7 Li5 1.921098 1_455
F7 Li3 1.958466 1_555
F7 V0 2.011253 1_455
F7 Li0 2.195099 1_556
F8 Li3 1.965771 1_555
F8 V1 1.997607 1_555
F8 Li1 2.026988 1_546
F8 Li0 2.286023 1_556
F9 V0 1.978391 1_555
F9 Li5 2.010955 1_565
F9 Li2 2.047560 1_555
F9 Li4 2.172603 1_555
F10 V1 1.965107 1_565
F10 Li4 1.983343 1_555
F10 Li2 1.996521 1_555
F11 V0 1.957981 1_455
F11 Li0 1.973342 1_556
F11 Li3 1.985816 1_565
