# generated using pymatgen
data_VOF2
_symmetry_space_group_name_H-M   'P 1'
_cell_length_a   5.10347321
_cell_length_b   5.10447838
_cell_length_c   13.10041271
_cell_angle_alpha   90.02813120
_cell_angle_beta   90.46626926
_cell_angle_gamma   119.94225206
_symmetry_Int_Tables_number   1
_chemical_formula_structural   VOF2
_chemical_formula_sum   'V6 O6 F12'
_cell_volume   295.70922034
_cell_formula_units_Z   6
loop_
 _symmetry_equiv_pos_site_id
 _symmetry_equiv_pos_as_xyz
  1  'x, y, z'
loop_
 _atom_site_type_symbol
 _atom_site_label
 _atom_site_symmetry_multiplicity
 _atom_site_fract_x
 _atom_site_fract_y
 _atom_site_fract_z
 _atom_site_occupancy
  V  V0  1  0.01250382  -0.00629646  0.49445443  1
  V  V1  1  0.99479075  0.99009509  -0.00011667  1
  V  V2  1  0.61978889  0.31464365  0.16420571  1
  V  V3  1  0.31966727  0.69730370  0.32865806  1
  V  V4  1  0.73334541  0.35444333  0.66562245  1
  V  V5  1  0.36279693  0.66005598  0.83676366  1
  O  O0  1  0.40308547  -0.00921152  0.25060602  1
  O  O1  1  0.33682472  0.24605945  0.08448681  1
  O  O2  1  -0.00516495  0.57361195  0.75023353  1
  O  O3  1  0.07823462  0.76710255  0.41893271  1
  O  O4  1  0.92356198  0.26689599  0.58447887  1
  O  O5  1  0.65403566  0.74101775  0.91553709  1
  F  F0  1  0.98880058  0.39823119  0.24955444  1
  F  F1  1  0.33977902  0.09210513  0.58707674  1
  F  F2  1  0.06113378  0.32164965  0.91520621  1
  F  F3  1  0.25896524  0.35320626  0.41639745  1
  F  F4  1  0.59130457  -0.00713179  0.74310767  1
  F  F5  1  0.73839557  0.06419497  0.08544356  1
  F  F6  1  0.40872034  0.39361102  0.74758371  1
  F  F7  1  0.59734111  0.59596424  0.25408759  1
  F  F8  1  0.25543560  0.92407900  0.91463769  1
  F  F9  1  0.73893830  0.67149369  0.58762287  1
  F  F10  1  0.93009244  0.66100124  0.08564466  1
  F  F11  1  0.65762189  0.93587193  0.41977576  1
loop_
_geom_bond_atom_site_label_1
_geom_bond_atom_site_label_2
_geom_bond_distance
_geom_bond_site_symmetry_2
O0 V3 1.686111 1_545
O0 V2 1.853158 1_555
O1 V2 1.664053 1_555
O1 V1 1.916481 1_445
O2 V4 1.656947 1_455
O2 V5 2.035643 1_555
O3 V0 1.679553 1_565
O3 V3 1.872240 1_555
O4 V4 1.649691 1_555
O4 V0 2.044637 1_655
O5 V5 1.675217 1_555
O5 V1 1.903120 1_556
F0 V3 1.911120 1_655
F0 V2 2.035176 1_555
F1 V0 1.908730 1_555
F1 V4 2.041160 1_555
F2 V1 1.909292 1_446
F2 V5 1.944946 1_555
F3 V0 1.927143 1_555
F3 V3 1.991687 1_555
F4 V4 1.908024 1_555
F4 V5 1.949108 1_545
F5 V1 1.905029 1_545
F5 V2 1.961306 1_555
F6 V5 1.894916 1_555
F6 V4 2.072910 1_555
F7 V2 1.904323 1_555
F7 V3 1.995971 1_555
F8 V1 1.897730 1_456
F8 V5 1.975389 1_555
F9 V4 1.902649 1_555
F9 V0 1.970147 1_665
F10 V1 1.909815 1_555
F10 V2 1.981468 1_555
F11 V3 1.936740 1_555
F11 V0 1.939488 1_665
