# generated using pymatgen
data_Li5NiOF5
_symmetry_space_group_name_H-M   'P 1'
_cell_length_a   2.90620746
_cell_length_b   5.81180397
_cell_length_c   12.40196500
_cell_angle_alpha   90.00013755
_cell_angle_beta   90.00000653
_cell_angle_gamma   89.99988847
_symmetry_Int_Tables_number   1
_chemical_formula_structural   Li5NiOF5
_chemical_formula_sum   'Li10 Ni2 O2 F10'
_cell_volume   209.47300916
_cell_formula_units_Z   2
loop_
 _symmetry_equiv_pos_site_id
 _symmetry_equiv_pos_as_xyz
  1  'x, y, z'
loop_
 _atom_site_type_symbol
 _atom_site_label
 _atom_site_symmetry_multiplicity
 _atom_site_fract_x
 _atom_site_fract_y
 _atom_site_fract_z
 _atom_site_occupancy
  Li  Li0  1  0.50005300  0.25004600  0.49998800  1
  Li  Li1  1  0.50005300  0.75004600  0.49998800  1
  Li  Li2  1  0.50002000  0.25001200  0.16931400  1
  Li  Li3  1  0.50002000  0.75001700  0.16931400  1
  Li  Li4  1  0.50001800  0.25001100  0.83070000  1
  Li  Li5  1  0.50001800  0.75001600  0.83070000  1
  Li  Li6  1  0.00005600  0.00004700  0.33750900  1
  Li  Li7  1  0.00005600  0.50004700  0.33751000  1
  Li  Li8  1  0.00005500  0.00004600  0.66247900  1
  Li  Li9  1  0.00005500  0.50004600  0.66247800  1
  Ni  Ni0  1  0.99982500  0.99985000  0.00002500  1
  Ni  Ni1  1  0.99982100  0.49984600  0.00003000  1
  O  O0  1  0.49980400  0.24984000  0.00002800  1
  O  O1  1  0.49980700  0.74981500  0.00002800  1
  F  F0  1  0.00003300  0.00004100  0.49997600  1
  F  F1  1  0.00003300  0.50004100  0.49997600  1
  F  F2  1  0.00002000  0.00001300  0.17458200  1
  F  F3  1  0.00002000  0.50001300  0.17457100  1
  F  F4  1  0.00001200  0.00001000  0.82543200  1
  F  F5  1  0.00001200  0.50001000  0.82544300  1
  F  F6  1  0.50005700  0.25005000  0.33629100  1
  F  F7  1  0.50005700  0.75005100  0.33629100  1
  F  F8  1  0.50004900  0.25004300  0.66367300  1
  F  F9  1  0.50004900  0.75004400  0.66367300  1
loop_
_geom_bond_atom_site_label_1
_geom_bond_atom_site_label_2
_geom_bond_distance
_geom_bond_site_symmetry_2
Li2 O0 2.099479 1_555
Li3 O1 2.099479 1_555
Li4 O0 2.100000 1_556
Li5 O1 2.100000 1_556
Ni0 O0 2.054809 1_665
Ni0 O0 2.054891 1_565
Ni0 O1 2.054996 1_655
Ni0 O1 2.055074 1_555
Ni1 O1 2.054737 1_655
Ni1 O1 2.054790 1_555
Ni1 O0 2.054879 1_655
Ni1 O0 2.054953 1_555
F0 Li6 2.014910 1_555
F0 Li8 2.015357 1_555
F0 Li1 2.054831 1_445
F0 Li0 2.054868 1_455
F0 Li1 2.054910 1_545
F0 Li0 2.054955 1_555
F1 Li7 2.014898 1_555
F1 Li9 2.015344 1_555
F1 Li0 2.054831 1_455
F1 Li1 2.054868 1_455
F1 Li0 2.054910 1_555
F1 Li1 2.054955 1_555
F2 Li6 2.020615 1_555
F2 Li3 2.055911 1_545
F2 Li3 2.055915 1_445
F2 Li2 2.055923 1_455
F2 Li2 2.055927 1_555
F2 Ni0 2.164850 1_445
F3 Li7 2.020764 1_555
F3 Li2 2.055927 1_555
F3 Li2 2.055931 1_455
F3 Li3 2.055940 1_455
F3 Li3 2.055944 1_555
F3 Ni1 2.164652 1_455
F4 Li8 2.020937 1_555
F4 Li5 2.055895 1_445
F4 Li5 2.055915 1_545
F4 Li4 2.055919 1_455
F4 Li4 2.055948 1_555
F4 Ni0 2.165297 1_446
F5 Li9 2.021086 1_555
F5 Li4 2.055911 1_455
F5 Li4 2.055931 1_555
F5 Li5 2.055935 1_455
F5 Li5 2.055964 1_555
F5 Ni1 2.165222 1_456
F6 Li0 2.030164 1_555
F6 Li7 2.054934 1_655
F6 Li7 2.054934 1_555
F6 Li6 2.054955 1_655
F6 Li6 2.054963 1_555
F6 Li2 2.070843 1_555
F7 Li1 2.030164 1_555
F7 Li6 2.054930 1_665
F7 Li6 2.054930 1_565
F7 Li7 2.054959 1_655
F7 Li7 2.054967 1_555
F7 Li3 2.070843 1_555
F8 Li0 2.030016 1_555
F8 Li8 2.054922 1_555
F8 Li8 2.054942 1_655
F8 Li9 2.054942 1_555
F8 Li9 2.054971 1_655
F8 Li4 2.071463 1_555
F9 Li1 2.030016 1_555
F9 Li9 2.054926 1_555
F9 Li8 2.054938 1_565
F9 Li9 2.054947 1_655
F9 Li8 2.054967 1_665
F9 Li5 2.071463 1_555
