# generated using pymatgen
data_Li2V2F7
_symmetry_space_group_name_H-M   'P 1'
_cell_length_a   5.50926000
_cell_length_b   6.87357977
_cell_length_c   8.81888111
_cell_angle_alpha   71.83734431
_cell_angle_beta   73.41940701
_cell_angle_gamma   82.00224253
_symmetry_Int_Tables_number   1
_chemical_formula_structural   Li2V2F7
_chemical_formula_sum   'Li4 V4 F14'
_cell_volume   303.66077431
_cell_formula_units_Z   2
loop_
 _symmetry_equiv_pos_site_id
 _symmetry_equiv_pos_as_xyz
  1  'x, y, z'
loop_
 _atom_site_type_symbol
 _atom_site_label
 _atom_site_symmetry_multiplicity
 _atom_site_fract_x
 _atom_site_fract_y
 _atom_site_fract_z
 _atom_site_occupancy
  Li  Li0  1  0.12082800  0.42784600  0.26702900  1
  Li  Li1  1  0.57885700  0.25487000  0.34202100  1
  Li  Li2  1  0.42114300  0.74513000  0.65797900  1
  Li  Li3  1  0.87917200  0.57215400  0.73297100  1
  V  V0  1  0.29717600  0.00396800  0.17655000  1
  V  V1  1  0.78298700  0.78349400  0.30048900  1
  V  V2  1  0.21701300  0.21650600  0.69951100  1
  V  V3  1  0.70282400  0.99603200  0.82345000  1
  F  F0  1  0.39925100  0.27862300  0.17344600  1
  F  F1  1  0.15070000  0.72354300  0.20204900  1
  F  F2  1  0.68794400  0.89866500  0.08286600  1
  F  F3  1  0.89476800  0.06215700  0.27174800  1
  F  F4  1  0.75023500  0.50182700  0.30155100  1
  F  F5  1  0.19602200  0.31396200  0.47547000  1
  F  F6  1  0.42272100  0.87216600  0.39608000  1
  F  F7  1  0.57727900  0.12783400  0.60392000  1
  F  F8  1  0.80397800  0.68603800  0.52453000  1
  F  F9  1  0.24976500  0.49817300  0.69844900  1
  F  F10  1  0.10523200  0.93784300  0.72825200  1
  F  F11  1  0.31205600  0.10133500  0.91713400  1
  F  F12  1  0.84930000  0.27645700  0.79795100  1
  F  F13  1  0.60074900  0.72137700  0.82655400  1
loop_
_geom_bond_atom_site_label_1
_geom_bond_atom_site_label_2
_geom_bond_distance
_geom_bond_site_symmetry_2
F0 Li0 1.858350 1_555
F0 Li1 1.964471 1_555
F0 V0 2.033579 1_555
F1 Li0 1.949268 1_555
F1 V1 2.003604 1_455
F1 V0 2.115695 1_565
F2 V1 2.023652 1_555
F2 V3 2.154567 1_554
F2 V0 2.182955 1_565
F3 V1 2.012158 1_545
F3 Li1 2.102971 1_555
F3 V0 2.163353 1_655
F4 Li1 1.943252 1_555
F4 V1 1.966194 1_555
F4 Li0 1.993148 1_655
F5 Li0 1.900187 1_555
F5 V2 1.910385 1_555
F5 Li1 2.154399 1_555
F6 V1 2.012542 1_555
F6 V0 2.131593 1_565
F6 Li2 2.197814 1_555
F7 V2 2.012542 1_555
F7 V3 2.131593 1_545
F7 Li1 2.197814 1_555
F8 Li3 1.900187 1_555
F8 V1 1.910385 1_555
F8 Li2 2.154399 1_555
F9 Li2 1.943252 1_555
F9 V2 1.966194 1_555
F9 Li3 1.993148 1_455
F10 V2 2.012158 1_565
F10 Li2 2.102971 1_555
F10 V3 2.163353 1_455
F11 V2 2.023652 1_555
F11 V0 2.154567 1_556
F11 V3 2.182955 1_545
F12 Li3 1.949268 1_555
F12 V2 2.003604 1_655
F12 V3 2.115695 1_545
F13 Li3 1.858350 1_555
F13 Li2 1.964471 1_555
F13 V3 2.033579 1_555
