# generated using pymatgen
data_LiV2(OF)3
_symmetry_space_group_name_H-M   'P 1'
_cell_length_a   5.08641500
_cell_length_b   5.13220663
_cell_length_c   13.58422466
_cell_angle_alpha   88.05148069
_cell_angle_beta   88.69976305
_cell_angle_gamma   61.47979145
_symmetry_Int_Tables_number   1
_chemical_formula_structural   LiV2(OF)3
_chemical_formula_sum   'Li3 V6 O9 F9'
_cell_volume   311.38891716
_cell_formula_units_Z   3
loop_
 _symmetry_equiv_pos_site_id
 _symmetry_equiv_pos_as_xyz
  1  'x, y, z'
loop_
 _atom_site_type_symbol
 _atom_site_label
 _atom_site_symmetry_multiplicity
 _atom_site_fract_x
 _atom_site_fract_y
 _atom_site_fract_z
 _atom_site_occupancy
  Li  Li0  1  0.65422200  0.67195700  0.46297300  1
  Li  Li1  1  0.37681400  0.32566800  0.12599500  1
  Li  Li2  1  0.01900000  0.97820500  0.79541800  1
  V  V0  1  0.94766600  0.99678500  0.50108000  1
  V  V1  1  0.70836500  0.68146100  0.16648500  1
  V  V2  1  0.64307600  0.69788800  0.67910900  1
  V  V3  1  0.35146700  0.31290100  0.83264000  1
  V  V4  1  0.05376600  0.96352800  0.01093000  1
  V  V5  1  0.30792400  0.32526300  0.34424700  1
  O  O0  1  0.91132100  0.73689600  0.57621100  1
  O  O1  1  0.99889200  0.58377800  0.24619500  1
  O  O2  1  0.72956300  0.96303900  0.08341300  1
  O  O3  1  0.62700700  0.97993100  0.74854500  1
  O  O4  1  0.38266500  0.59713100  0.75156600  1
  O  O5  1  0.66653800  0.05610100  0.40932100  1
  O  O6  1  0.35218700  0.71816300  0.07881900  1
  O  O7  1  0.24728600  0.09198400  0.90808200  1
  O  O8  1  0.05333400  0.28345800  0.41897900  1
  F  F0  1  0.98813600  0.33325800  0.08051600  1
  F  F1  1  0.70230300  0.35205300  0.57722200  1
  F  F2  1  0.69072500  0.24844100  0.91216100  1
  F  F3  1  0.32795700  0.92407700  0.58051000  1
  F  F4  1  0.57362800  0.40878400  0.24239500  1
  F  F5  1  0.28381000  0.67002400  0.41557500  1
  F  F6  1  0.06591200  0.67913500  0.91263800  1
  F  F7  1  0.39600100  0.01105800  0.24503600  1
  F  F8  1  0.99311600  0.36387700  0.74375000  1
loop_
_geom_bond_atom_site_label_1
_geom_bond_atom_site_label_2
_geom_bond_distance
_geom_bond_site_symmetry_2
Li0 O5 2.107153 1_565
Li0 O8 2.148130 1_655
Li0 O0 2.174799 1_555
Li1 O2 1.963380 1_545
Li1 O6 2.039350 1_555
Li1 O1 2.385163 1_455
Li2 O4 2.043522 1_555
Li2 O3 2.102681 1_455
Li2 O7 2.195556 1_565
O0 V0 1.728917 1_555
O0 V2 2.002687 1_555
O1 V1 1.713404 1_555
O1 V5 1.997121 1_655
O2 V1 1.845482 1_555
O2 V4 1.902339 1_655
O3 V2 1.722790 1_555
O3 V3 1.990600 1_565
O4 V3 1.862755 1_555
O4 V2 1.884393 1_555
O5 V0 1.824960 1_545
O5 V5 1.897578 1_555
O6 V4 1.702790 1_555
O6 V1 2.119574 1_555
O7 V3 1.756876 1_555
O7 V4 1.962161 1_546
O8 V5 1.715912 1_555
O8 V0 2.076941 1_445
F0 V4 2.026909 1_645
F0 V1 2.054371 1_555
F0 Li1 2.066854 1_655
F1 V0 1.961766 1_545
F1 Li0 2.150473 1_555
F1 V2 2.189556 1_555
F2 V3 1.941446 1_555
F2 V4 2.179152 1_646
F2 Li2 2.245993 1_645
F3 V2 1.981285 1_555
F3 V0 2.103124 1_455
F3 Li0 2.224242 1_555
F4 Li1 2.051783 1_555
F4 V1 2.068108 1_555
F4 V5 2.086275 1_555
F5 V5 1.997136 1_555
F5 Li0 2.009406 1_555
F5 V0 2.095001 1_455
F6 V4 1.989882 1_556
F6 V3 2.069707 1_555
F6 Li2 2.109425 1_555
F7 V1 2.000912 1_545
F7 V5 2.011938 1_555
F7 Li1 2.216004 1_555
F8 V2 1.983340 1_555
F8 Li2 2.022040 1_645
F8 V3 2.114675 1_655
