# generated using pymatgen
data_LiMn5O8
_symmetry_space_group_name_H-M   'P 1'
_cell_length_a   8.36485177
_cell_length_b   8.36823986
_cell_length_c   8.35966970
_cell_angle_alpha   89.99896437
_cell_angle_beta   89.99825061
_cell_angle_gamma   89.99748889
_symmetry_Int_Tables_number   1
_chemical_formula_structural   LiMn5O8
_chemical_formula_sum   'Li4 Mn20 O32'
_cell_volume   585.16923784
_cell_formula_units_Z   4
loop_
 _symmetry_equiv_pos_site_id
 _symmetry_equiv_pos_as_xyz
  1  'x, y, z'
loop_
 _atom_site_type_symbol
 _atom_site_label
 _atom_site_symmetry_multiplicity
 _atom_site_fract_x
 _atom_site_fract_y
 _atom_site_fract_z
 _atom_site_occupancy
  Li  Li0  1  0.62502347  0.37499502  0.87500022  1
  Li  Li1  1  0.87495819  0.62499676  0.37500795  1
  Li  Li2  1  0.12502718  0.12504081  0.12497954  1
  Li  Li3  1  0.37500906  0.87498270  0.62502814  1
  Mn  Mn0  1  0.50133464  0.50126130  0.50128689  1
  Mn  Mn1  1  0.49867056  0.00124341  0.99865715  1
  Mn  Mn2  1  0.62659978  0.62323149  0.12506602  1
  Mn  Mn3  1  0.62332604  0.12509309  0.62663612  1
  Mn  Mn4  1  0.62512834  0.87330428  0.37666128  1
  Mn  Mn5  1  0.74866918  0.74865165  0.74864366  1
  Mn  Mn6  1  0.75132255  0.25137569  0.24864324  1
  Mn  Mn7  1  0.87672305  0.87489772  0.12658512  1
  Mn  Mn8  1  0.87487452  0.12671788  0.87661220  1
  Mn  Mn9  1  0.87336057  0.37671231  0.62511990  1
  Mn  Mn10  1  0.99866364  0.49870003  0.00127241  1
  Mn  Mn11  1  0.00132395  0.99871638  0.49866942  1
  Mn  Mn12  1  0.12509342  0.62667714  0.62337219  1
  Mn  Mn13  1  0.12662049  0.87673355  0.87489381  1
  Mn  Mn14  1  0.12324999  0.37491978  0.37342552  1
  Mn  Mn15  1  0.24865741  0.75138188  0.25139124  1
  Mn  Mn16  1  0.25132177  0.24863827  0.75139061  1
  Mn  Mn17  1  0.37675272  0.62509235  0.87343756  1
  Mn  Mn18  1  0.37337601  0.12325745  0.37490479  1
  Mn  Mn19  1  0.37490381  0.37336026  0.12330663  1
  O  O0  1  0.62687257  0.89066961  0.60399793  1
  O  O1  1  0.63804749  0.86192897  0.13803288  1
  O  O2  1  0.64604939  0.35948878  0.62331982  1
  O  O3  1  0.60421308  0.62680293  0.89088995  1
  O  O4  1  0.60923914  0.39598422  0.12676959  1
  O  O5  1  0.62327877  0.64582571  0.35927524  1
  O  O6  1  0.64054355  0.12330872  0.85405295  1
  O  O7  1  0.61202728  0.11204187  0.38802539  1
  O  O8  1  0.89068934  0.60397005  0.62685969  1
  O  O9  1  0.88797703  0.88797318  0.88798612  1
  O  O10  1  0.85390626  0.64039145  0.12326337  1
  O  O11  1  0.85948269  0.87669395  0.35403714  1
  O  O12  1  0.86198109  0.13805073  0.63808806  1
  O  O13  1  0.87668697  0.35414861  0.85927591  1
  O  O14  1  0.87315183  0.10942510  0.10389401  1
  O  O15  1  0.89577166  0.37318250  0.39093996  1
  O  O16  1  0.13799797  0.63806038  0.86190506  1
  O  O17  1  0.12327118  0.85418171  0.64069071  1
  O  O18  1  0.10415981  0.87318799  0.10910377  1
  O  O19  1  0.10915088  0.10405269  0.87313409  1
  O  O20  1  0.12677390  0.60942274  0.39607144  1
  O  O21  1  0.14605251  0.14044309  0.37673074  1
  O  O22  1  0.11195458  0.38797719  0.61203295  1
  O  O23  1  0.14049708  0.37674841  0.14597014  1
  O  O24  1  0.35959585  0.62328426  0.64604164  1
  O  O25  1  0.38801715  0.61206735  0.11196223  1
  O  O26  1  0.35393268  0.85949036  0.87672202  1
  O  O27  1  0.39591102  0.12679991  0.60925376  1
  O  O28  1  0.37674361  0.14589514  0.14058678  1
  O  O29  1  0.39082517  0.89590605  0.37319765  1
  O  O30  1  0.37321726  0.39066179  0.89599789  1
  O  O31  1  0.36199089  0.36195336  0.36189953  1
loop_
_geom_bond_atom_site_label_1
_geom_bond_atom_site_label_2
_geom_bond_distance
_geom_bond_site_symmetry_2
Li0 O2 2.115284 1_555
Li0 O4 2.116147 1_556
Li0 O13 2.116418 1_555
Li0 O6 2.117419 1_555
Li0 O30 2.117674 1_555
Li0 O3 2.118530 1_555
Li1 O10 2.115784 1_555
Li1 O5 2.116551 1_555
Li1 O8 2.116832 1_555
Li1 O11 2.117498 1_555
Li1 O20 2.117762 1_655
Li1 O15 2.118603 1_555
Li2 O21 2.115830 1_555
Li2 O28 2.116827 1_555
Li2 O19 2.116836 1_554
Li2 O23 2.117613 1_555
Li2 O14 2.118306 1_455
Li2 O18 2.118951 1_545
Li3 O26 2.115420 1_555
Li3 O29 2.116620 1_555
Li3 O17 2.116989 1_555
Li3 O24 2.117516 1_555
Li3 O0 2.118195 1_555
Li3 O27 2.118621 1_565
Mn0 O24 1.978025 1_555
Mn0 O5 1.978217 1_555
Mn0 O2 1.978254 1_555
Mn0 O31 2.018816 1_555
Mn1 O26 1.977939 1_545
Mn1 O6 1.978143 1_555
Mn1 O28 1.978150 1_556
Mn1 O1 2.018868 1_546
Mn2 O10 1.906865 1_555
Mn2 O4 1.907256 1_555
Mn2 O3 1.966803 1_554
Mn2 O5 1.967218 1_555
Mn2 O25 2.000902 1_555
Mn2 O1 2.002714 1_555
Mn3 O6 1.906640 1_555
Mn3 O27 1.907892 1_555
Mn3 O2 1.970870 1_555
Mn3 O0 1.971044 1_545
Mn3 O7 1.999934 1_555
Mn3 O12 2.001555 1_555
Mn4 O0 1.906066 1_555
Mn4 O5 1.909202 1_555
Mn4 O29 1.969222 1_555
Mn4 O11 1.969641 1_555
Mn4 O1 2.000044 1_555
Mn4 O7 2.003068 1_565
Mn5 O0 1.977985 1_555
Mn5 O8 1.978251 1_555
Mn5 O3 1.978342 1_555
Mn5 O9 2.018492 1_555
Mn6 O14 1.978304 1_555
Mn6 O15 1.978445 1_555
Mn6 O4 1.978596 1_555
Mn6 O7 2.018617 1_555
Mn7 O11 1.906940 1_555
Mn7 O18 1.908128 1_655
Mn7 O10 1.971869 1_555
Mn7 O14 1.971949 1_565
Mn7 O9 1.999820 1_554
Mn7 O1 2.001724 1_555
Mn8 O14 1.905555 1_556
Mn8 O13 1.908763 1_555
Mn8 O19 1.969050 1_655
Mn8 O6 1.969409 1_555
Mn8 O12 1.999150 1_555
Mn8 O9 2.003128 1_545
Mn9 O2 1.906945 1_555
Mn9 O8 1.907326 1_555
Mn9 O13 1.966747 1_555
Mn9 O15 1.966839 1_555
Mn9 O22 2.001022 1_655
Mn9 O12 2.002383 1_555
Mn10 O10 1.977868 1_555
Mn10 O23 1.977922 1_655
Mn10 O13 1.978278 1_554
Mn10 O16 2.018862 1_654
Mn11 O21 1.977714 1_565
Mn11 O11 1.978008 1_455
Mn11 O17 1.978109 1_555
Mn11 O12 2.018990 1_465
Mn12 O20 1.905691 1_555
Mn12 O17 1.909372 1_555
Mn12 O8 1.970164 1_455
Mn12 O24 1.970920 1_555
Mn12 O16 1.999251 1_555
Mn12 O22 2.002771 1_555
Mn13 O26 1.906955 1_555
Mn13 O19 1.907916 1_565
Mn13 O18 1.967129 1_556
Mn13 O17 1.967139 1_555
Mn13 O9 2.001419 1_455
Mn13 O16 2.002484 1_555
Mn14 O23 1.906974 1_555
Mn14 O15 1.908499 1_455
Mn14 O21 1.971591 1_555
Mn14 O20 1.971713 1_555
Mn14 O22 1.999902 1_555
Mn14 O31 2.002290 1_555
Mn15 O20 1.978256 1_555
Mn15 O29 1.978385 1_555
Mn15 O18 1.978567 1_555
Mn15 O25 2.019026 1_555
Mn16 O30 1.978323 1_555
Mn16 O19 1.978384 1_555
Mn16 O27 1.978395 1_555
Mn16 O22 2.018852 1_555
Mn17 O24 1.906429 1_555
Mn17 O3 1.908316 1_555
Mn17 O26 1.970948 1_555
Mn17 O30 1.971035 1_555
Mn17 O25 1.999187 1_556
Mn17 O16 2.002415 1_555
Mn18 O21 1.907012 1_555
Mn18 O29 1.908169 1_545
Mn18 O28 1.968158 1_555
Mn18 O27 1.968358 1_555
Mn18 O7 2.001494 1_555
Mn18 O31 2.002681 1_555
Mn19 O30 1.905784 1_554
Mn19 O28 1.909015 1_555
Mn19 O4 1.969524 1_555
Mn19 O23 1.970107 1_555
Mn19 O31 1.999755 1_555
Mn19 O25 2.002817 1_555
