# generated using pymatgen
data_Li2V3CoO8
_symmetry_space_group_name_H-M   'P 1'
_cell_length_a   8.25380600
_cell_length_b   8.25380600
_cell_length_c   8.25380600
_cell_angle_alpha   90.00000000
_cell_angle_beta   90.00000000
_cell_angle_gamma   90.00000000
_symmetry_Int_Tables_number   1
_chemical_formula_structural   Li2V3CoO8
_chemical_formula_sum   'Li8 V12 Co4 O32'
_cell_volume   562.29312120
_cell_formula_units_Z   4
loop_
 _symmetry_equiv_pos_site_id
 _symmetry_equiv_pos_as_xyz
  1  'x, y, z'
loop_
 _atom_site_type_symbol
 _atom_site_label
 _atom_site_symmetry_multiplicity
 _atom_site_fract_x
 _atom_site_fract_y
 _atom_site_fract_z
 _atom_site_occupancy
  Li  Li0  1  0.00326600  0.00326600  0.00326600  1
  Li  Li1  1  0.24673400  0.24673400  0.24673400  1
  Li  Li2  1  0.25326600  0.75326600  0.74673400  1
  Li  Li3  1  0.49673400  0.99673400  0.50326600  1
  Li  Li4  1  0.50326600  0.49673400  0.99673400  1
  Li  Li5  1  0.74673400  0.25326600  0.75326600  1
  Li  Li6  1  0.75326600  0.74673400  0.25326600  1
  Li  Li7  1  0.99673400  0.50326600  0.49673400  1
  V  V0  1  0.12518700  0.12481300  0.62500000  1
  V  V1  1  0.12500000  0.37481300  0.87518700  1
  V  V2  1  0.12481300  0.62500000  0.12518700  1
  V  V3  1  0.37518700  0.37500000  0.62518700  1
  V  V4  1  0.37500000  0.62518700  0.37518700  1
  V  V5  1  0.37481300  0.87518700  0.12500000  1
  V  V6  1  0.62518700  0.37518700  0.37500000  1
  V  V7  1  0.62500000  0.12518700  0.12481300  1
  V  V8  1  0.62481300  0.87500000  0.87481300  1
  V  V9  1  0.87518700  0.12500000  0.37481300  1
  V  V10  1  0.87500000  0.87481300  0.62481300  1
  V  V11  1  0.87481300  0.62481300  0.87500000  1
  Co  Co0  1  0.12500000  0.87500000  0.37500000  1
  Co  Co1  1  0.37500000  0.12500000  0.87500000  1
  Co  Co2  1  0.62500000  0.62500000  0.62500000  1
  Co  Co3  1  0.87500000  0.37500000  0.12500000  1
  O  O0  1  0.10961000  0.11354200  0.38691700  1
  O  O1  1  0.11308300  0.89039000  0.61354200  1
  O  O2  1  0.11479600  0.61479600  0.88520400  1
  O  O3  1  0.13645800  0.14039000  0.86308300  1
  O  O4  1  0.11354200  0.38691700  0.10961000  1
  O  O5  1  0.13520400  0.36479600  0.63520400  1
  O  O6  1  0.13691700  0.63645800  0.35961000  1
  O  O7  1  0.14039000  0.86308300  0.13645800  1
  O  O8  1  0.35961000  0.13691700  0.63645800  1
  O  O9  1  0.36308300  0.36354200  0.85961000  1
  O  O10  1  0.36479600  0.63520400  0.13520400  1
  O  O11  1  0.38645800  0.61308300  0.60961000  1
  O  O12  1  0.36354200  0.85961000  0.36308300  1
  O  O13  1  0.38520400  0.38520400  0.38520400  1
  O  O14  1  0.38691700  0.10961000  0.11354200  1
  O  O15  1  0.39039000  0.88645800  0.88691700  1
  O  O16  1  0.60961000  0.38645800  0.61308300  1
  O  O17  1  0.61308300  0.60961000  0.38645800  1
  O  O18  1  0.61479600  0.88520400  0.11479600  1
  O  O19  1  0.63645800  0.35961000  0.13691700  1
  O  O20  1  0.61354200  0.11308300  0.89039000  1
  O  O21  1  0.63520400  0.13520400  0.36479600  1
  O  O22  1  0.63691700  0.86354200  0.64039000  1
  O  O23  1  0.64039000  0.63691700  0.86354200  1
  O  O24  1  0.85961000  0.36308300  0.36354200  1
  O  O25  1  0.86308300  0.13645800  0.14039000  1
  O  O26  1  0.86479600  0.86479600  0.86479600  1
  O  O27  1  0.88645800  0.88691700  0.39039000  1
  O  O28  1  0.86354200  0.64039000  0.63691700  1
  O  O29  1  0.88520400  0.11479600  0.61479600  1
  O  O30  1  0.88691700  0.39039000  0.88645800  1
  O  O31  1  0.89039000  0.61354200  0.11308300  1
loop_
_geom_bond_atom_site_label_1
_geom_bond_atom_site_label_2
_geom_bond_distance
_geom_bond_site_symmetry_2
Li0 O25 1.956594 1_455
Li0 O7 1.956594 1_545
Li0 O3 1.956594 1_554
Li0 O26 1.979569 1_444
Li1 O0 1.956594 1_555
Li1 O14 1.956594 1_555
Li1 O4 1.956594 1_555
Li1 O13 1.979569 1_555
Li2 O15 1.956594 1_555
Li2 O11 1.956594 1_555
Li2 O1 1.956594 1_555
Li2 O2 1.979569 1_555
Li3 O8 1.956594 1_565
Li3 O12 1.956594 1_555
Li3 O22 1.956594 1_555
Li3 O21 1.979569 1_565
Li4 O19 1.956594 1_556
Li4 O9 1.956594 1_555
Li4 O23 1.956594 1_555
Li4 O10 1.979569 1_556
Li5 O30 1.956594 1_555
Li5 O16 1.956594 1_555
Li5 O20 1.956594 1_555
Li5 O29 1.979569 1_555
Li6 O27 1.956594 1_555
Li6 O17 1.956594 1_555
Li6 O31 1.956594 1_555
Li6 O18 1.979569 1_555
Li7 O6 1.956594 1_655
Li7 O24 1.956594 1_555
Li7 O28 1.956594 1_555
Li7 O5 1.979569 1_655
Co0 O0 1.975423 1_565
Co0 O1 1.975423 1_555
Co0 O12 1.975423 1_555
Co0 O6 1.975423 1_555
Co0 O27 1.975423 1_455
Co0 O7 1.975423 1_555
Co1 O14 1.975423 1_556
Co1 O20 1.975423 1_555
Co1 O9 1.975423 1_555
Co1 O8 1.975423 1_555
Co1 O15 1.975423 1_545
Co1 O3 1.975423 1_555
Co2 O28 1.975423 1_555
Co2 O22 1.975423 1_555
Co2 O23 1.975423 1_555
Co2 O16 1.975423 1_555
Co2 O17 1.975423 1_555
Co2 O11 1.975423 1_555
Co3 O4 1.975423 1_655
Co3 O31 1.975423 1_555
Co3 O24 1.975423 1_555
Co3 O19 1.975423 1_555
Co3 O30 1.975423 1_554
Co3 O25 1.975423 1_555
O0 V9 1.939766 1_455
O0 V0 1.971488 1_555
O1 V0 1.939766 1_565
O1 V10 1.971488 1_455
O2 V2 1.984286 1_556
O2 V1 1.984286 1_555
O2 V11 1.984286 1_455
O3 V1 1.939766 1_555
O3 V0 1.971488 1_555
O4 V1 1.939766 1_554
O4 V2 1.971488 1_555
O5 V1 1.984286 1_555
O5 V0 1.984286 1_555
O5 V3 1.984286 1_555
O6 V2 1.939766 1_555
O6 V4 1.971488 1_555
O7 V5 1.939766 1_555
O7 V2 1.971488 1_555
O8 V0 1.939766 1_555
O8 V3 1.971488 1_555
O9 V3 1.939766 1_555
O9 V1 1.971488 1_555
O10 V5 1.984286 1_555
O10 V2 1.984286 1_555
O10 V4 1.984286 1_555
O11 V4 1.939766 1_555
O11 V3 1.971488 1_555
O12 V4 1.939766 1_555
O12 V5 1.971488 1_555
O13 V3 1.984286 1_555
O13 V4 1.984286 1_555
O13 V6 1.984286 1_555
O14 V5 1.939766 1_545
O14 V7 1.971488 1_555
O15 V8 1.939766 1_555
O15 V5 1.971488 1_556
O16 V3 1.939766 1_555
O16 V6 1.971488 1_555
O17 V6 1.939766 1_555
O17 V4 1.971488 1_555
O18 V7 1.984286 1_565
O18 V5 1.984286 1_555
O18 V8 1.984286 1_554
O19 V7 1.939766 1_555
O19 V6 1.971488 1_555
O20 V7 1.939766 1_556
O20 V8 1.971488 1_545
O21 V9 1.984286 1_555
O21 V7 1.984286 1_555
O21 V6 1.984286 1_555
O22 V8 1.939766 1_555
O22 V10 1.971488 1_555
O23 V11 1.939766 1_555
O23 V8 1.971488 1_555
O24 V6 1.939766 1_555
O24 V9 1.971488 1_555
O25 V9 1.939766 1_555
O25 V7 1.971488 1_555
O26 V8 1.984286 1_555
O26 V11 1.984286 1_555
O26 V10 1.984286 1_555
O27 V10 1.939766 1_555
O27 V9 1.971488 1_565
O28 V10 1.939766 1_555
O28 V11 1.971488 1_555
O29 V0 1.984286 1_655
O29 V9 1.984286 1_555
O29 V10 1.984286 1_545
O30 V11 1.939766 1_555
O30 V1 1.971488 1_655
O31 V2 1.939766 1_655
O31 V11 1.971488 1_554
