# generated using pymatgen
data_KAl2P2H5O11
_symmetry_space_group_name_H-M   'P 1'
_cell_length_a   9.28933200
_cell_length_b   9.79694500
_cell_length_c   9.89082500
_cell_angle_alpha   90.00000000
_cell_angle_beta   90.00000000
_cell_angle_gamma   90.00000000
_symmetry_Int_Tables_number   1
_chemical_formula_structural   KAl2P2H5O11
_chemical_formula_sum   'K4 Al8 P8 H20 O44'
_cell_volume   900.13504953
_cell_formula_units_Z   4
loop_
 _symmetry_equiv_pos_site_id
 _symmetry_equiv_pos_as_xyz
  1  'x, y, z'
loop_
 _atom_site_type_symbol
 _atom_site_label
 _atom_site_symmetry_multiplicity
 _atom_site_fract_x
 _atom_site_fract_y
 _atom_site_fract_z
 _atom_site_occupancy
  K  K0  1  0.76100700  0.45189300  0.15315300  1
  K  K1  1  0.73899300  0.54810700  0.65315300  1
  K  K2  1  0.26100700  0.04810700  0.84684700  1
  K  K3  1  0.23899300  0.95189300  0.34684700  1
  Al  Al0  1  0.59079300  0.76287400  0.35546700  1
  Al  Al1  1  0.90920700  0.23712600  0.85546700  1
  Al  Al2  1  0.09079300  0.73712600  0.64453300  1
  Al  Al3  1  0.40920700  0.26287400  0.14453300  1
  Al  Al4  1  0.14501800  0.50000800  0.19248700  1
  Al  Al5  1  0.35498200  0.49999200  0.69248700  1
  Al  Al6  1  0.64501800  0.99999200  0.80751300  1
  Al  Al7  1  0.85498200  0.00000800  0.30751300  1
  P  P0  1  0.91805300  0.69654700  0.36003900  1
  P  P1  1  0.58194700  0.30345300  0.86003900  1
  P  P2  1  0.41805300  0.80345300  0.63996100  1
  P  P3  1  0.08194700  0.19654700  0.13996100  1
  P  P4  1  0.41727400  0.47275500  0.37489900  1
  P  P5  1  0.08272600  0.52724500  0.87489900  1
  P  P6  1  0.91727400  0.02724500  0.62510100  1
  P  P7  1  0.58272600  0.97275500  0.12510100  1
  H  H0  1  0.77930800  0.24476700  0.39437600  1
  H  H1  1  0.72069200  0.75523300  0.89437600  1
  H  H2  1  0.27930800  0.25523300  0.60562400  1
  H  H3  1  0.22069200  0.74476700  0.10562400  1
  H  H4  1  0.65193000  0.16955000  0.30327100  1
  H  H5  1  0.84807000  0.83045000  0.80327100  1
  H  H6  1  0.15193000  0.33045000  0.69672900  1
  H  H7  1  0.34807000  0.66955000  0.19672900  1
  H  H8  1  0.56125700  0.70168900  0.05062600  1
  H  H9  1  0.93874300  0.29831100  0.55062600  1
  H  H10  1  0.06125700  0.79831100  0.94937400  1
  H  H11  1  0.43874300  0.20168900  0.44937400  1
  H  H12  1  0.55221700  0.60355400  0.92523300  1
  H  H13  1  0.94778300  0.39644600  0.42523300  1
  H  H14  1  0.05221700  0.89644600  0.07476700  1
  H  H15  1  0.44778300  0.10355400  0.57476700  1
  H  H16  1  0.69225700  0.95179500  0.49371000  1
  H  H17  1  0.80774300  0.04820500  0.99371000  1
  H  H18  1  0.19225700  0.54820500  0.50629000  1
  H  H19  1  0.30774300  0.45179500  0.00629000  1
  O  O0  1  0.05050100  0.33106800  0.21396700  1
  O  O1  1  0.44949900  0.66893200  0.71396700  1
  O  O2  1  0.55050100  0.16893200  0.78603300  1
  O  O3  1  0.94949900  0.83106800  0.28603300  1
  O  O4  1  0.75403000  0.65979100  0.35906100  1
  O  O5  1  0.74597000  0.34020900  0.85906100  1
  O  O6  1  0.25403000  0.84020900  0.64093900  1
  O  O7  1  0.24597000  0.15979100  0.14093900  1
  O  O8  1  0.53595500  0.29343400  0.01019100  1
  O  O9  1  0.96404500  0.70656600  0.51019100  1
  O  O10  1  0.03595500  0.20656600  0.98980900  1
  O  O11  1  0.46404500  0.79343400  0.48980900  1
  O  O12  1  0.99327700  0.57684000  0.29022300  1
  O  O13  1  0.50672300  0.42316000  0.79022300  1
  O  O14  1  0.49327700  0.92316000  0.70977700  1
  O  O15  1  0.00672300  0.07684000  0.20977700  1
  O  O16  1  0.25147300  0.47983300  0.35643300  1
  O  O17  1  0.24852700  0.52016700  0.85643300  1
  O  O18  1  0.75147300  0.02016700  0.64356700  1
  O  O19  1  0.74852700  0.97983300  0.14356700  1
  O  O20  1  0.47219500  0.33817700  0.30367900  1
  O  O21  1  0.02780500  0.66182300  0.80367900  1
  O  O22  1  0.97219500  0.16182300  0.69632100  1
  O  O23  1  0.52780500  0.83817700  0.19632100  1
  O  O24  1  0.04552100  0.53735100  0.02574000  1
  O  O25  1  0.45447900  0.46264900  0.52574000  1
  O  O26  1  0.54552100  0.96264900  0.97426000  1
  O  O27  1  0.95447900  0.03735100  0.47426000  1
  O  O28  1  0.49186500  0.59689300  0.30652100  1
  O  O29  1  0.00813500  0.40310700  0.80652100  1
  O  O30  1  0.99186500  0.90310700  0.69347900  1
  O  O31  1  0.50813500  0.09689300  0.19347900  1
  O  O32  1  0.69759300  0.91904400  0.39893300  1
  O  O33  1  0.80240700  0.08095600  0.89893300  1
  O  O34  1  0.19759300  0.58095600  0.60106700  1
  O  O35  1  0.30240700  0.41904400  0.10106700  1
  O  O36  1  0.75634500  0.18029900  0.31895200  1
  O  O37  1  0.74365500  0.81970100  0.81895200  1
  O  O38  1  0.25634500  0.31970100  0.68104800  1
  O  O39  1  0.24365500  0.68029900  0.18104800  1
  O  O40  1  0.61955200  0.64300200  0.99119100  1
  O  O41  1  0.88044800  0.35699800  0.49119100  1
  O  O42  1  0.11955200  0.85699800  0.00880900  1
  O  O43  1  0.38044800  0.14300200  0.50880900  1
loop_
_geom_bond_atom_site_label_1
_geom_bond_atom_site_label_2
_geom_bond_distance
_geom_bond_site_symmetry_2
K0 O40 2.792545 1_554
K0 O12 2.826980 1_555
K0 O4 2.881033 1_555
K0 O8 2.963099 1_555
K0 O0 2.999136 1_655
K0 O24 3.045367 1_655
K0 O5 3.110931 1_554
K0 O36 3.125847 1_555
K0 O28 3.251127 1_555
K0 O20 3.264284 1_555
K1 O41 2.792545 1_555
K1 O13 2.826980 1_555
K1 O5 2.881033 1_555
K1 O9 2.963099 1_555
K1 O1 2.999136 1_555
K1 O25 3.045367 1_555
K1 O4 3.110931 1_555
K1 O37 3.125847 1_555
K1 O29 3.251127 1_655
K1 O21 3.264284 1_655
K2 O42 2.792545 1_546
K2 O14 2.826980 1_545
K2 O6 2.881033 1_545
K2 O10 2.963099 1_555
K2 O2 2.999136 1_555
K2 O26 3.045367 1_545
K2 O7 3.110931 1_556
K2 O38 3.125847 1_555
K2 O30 3.251127 1_445
K2 O22 3.264284 1_455
K3 O43 2.792545 1_565
K3 O15 2.826980 1_565
K3 O7 2.881033 1_565
K3 O11 2.963099 1_555
K3 O3 2.999136 1_455
K3 O27 3.045367 1_465
K3 O6 3.110931 1_555
K3 O39 3.125847 1_555
K3 O31 3.251127 1_565
K3 O23 3.264284 1_555
Al0 O11 1.800417 1_555
Al0 O4 1.822228 1_555
Al0 O23 1.834221 1_555
Al0 O32 1.873488 1_555
Al0 O28 1.929535 1_555
Al1 O10 1.800417 1_655
Al1 O5 1.822228 1_555
Al1 O22 1.834221 1_555
Al1 O33 1.873488 1_555
Al1 O29 1.929535 1_655
Al2 O9 1.800417 1_455
Al2 O6 1.822228 1_555
Al2 O21 1.834221 1_555
Al2 O34 1.873488 1_555
Al2 O30 1.929535 1_455
Al3 O8 1.800417 1_555
Al3 O7 1.822228 1_555
Al3 O20 1.834221 1_555
Al3 O35 1.873488 1_555
Al3 O31 1.929535 1_555
Al4 O12 1.867611 1_455
Al4 O0 1.885567 1_555
Al4 O35 1.893234 1_555
Al4 O16 1.909566 1_555
Al4 O24 1.925663 1_555
Al4 O39 1.993031 1_555
Al5 O13 1.867611 1_555
Al5 O1 1.885567 1_555
Al5 O34 1.893234 1_555
Al5 O17 1.909566 1_555
Al5 O25 1.925663 1_555
Al5 O38 1.993031 1_555
Al6 O14 1.867611 1_555
Al6 O2 1.885567 1_565
Al6 O33 1.893234 1_565
Al6 O18 1.909566 1_565
Al6 O26 1.925663 1_555
Al6 O37 1.993031 1_555
Al7 O15 1.867611 1_655
Al7 O3 1.885567 1_545
Al7 O32 1.893234 1_545
Al7 O19 1.909566 1_545
Al7 O27 1.925663 1_555
Al7 O36 1.993031 1_555
H0 O36 1.000465 1_555
H1 O37 1.000465 1_555
H2 O38 1.000465 1_555
H3 O39 1.000465 1_555
H4 O36 0.987897 1_555
H5 O37 0.987897 1_555
H6 O38 0.987897 1_555
H7 O39 0.987897 1_555
H8 O40 0.984580 1_554
H9 O41 0.984580 1_555
H10 O42 0.984580 1_556
H11 O43 0.984580 1_555
H12 O40 0.982957 1_555
H13 O41 0.982957 1_555
H14 O42 0.982957 1_555
H15 O43 0.982957 1_555
H16 O32 0.992053 1_555
H16 O18 1.717035 1_565
H17 O33 0.992053 1_555
H17 O19 1.717035 1_546
H18 O34 0.992053 1_555
H18 O16 1.717035 1_555
H19 O35 0.992053 1_555
H19 O17 1.717035 1_554
O0 P3 1.535569 1_555
O1 P2 1.535569 1_555
O2 P1 1.535569 1_555
O3 P0 1.535569 1_555
O4 P0 1.565668 1_555
O5 P1 1.565668 1_555
O6 P2 1.565668 1_555
O7 P3 1.565668 1_555
O8 P1 1.548472 1_554
O9 P0 1.548472 1_555
O10 P3 1.548472 1_556
O11 P2 1.548472 1_555
O12 P0 1.529872 1_555
O13 P1 1.529872 1_555
O14 P2 1.529872 1_555
O15 P3 1.529872 1_555
O16 P4 1.552522 1_555
O17 P5 1.552522 1_555
O18 P6 1.552522 1_555
O19 P7 1.552522 1_555
O20 P4 1.579499 1_555
O21 P5 1.579499 1_555
O22 P6 1.579499 1_555
O23 P7 1.579499 1_555
O24 P5 1.534646 1_554
O25 P4 1.534646 1_555
O26 P7 1.534646 1_556
O27 P6 1.534646 1_555
O28 P4 1.554539 1_555
O29 P5 1.554539 1_555
O30 P6 1.554539 1_565
O31 P7 1.554539 1_545
