# generated using pymatgen
data_Li3VPCO7
_symmetry_space_group_name_H-M   'P 1'
_cell_length_a   5.20433187
_cell_length_b   6.70294300
_cell_length_c   8.34931113
_cell_angle_alpha   90.00264614
_cell_angle_beta   87.60110657
_cell_angle_gamma   89.99811241
_symmetry_Int_Tables_number   1
_chemical_formula_structural   Li3VPCO7
_chemical_formula_sum   'Li6 V2 P2 C2 O14'
_cell_volume   291.00495785
_cell_formula_units_Z   2
loop_
 _symmetry_equiv_pos_site_id
 _symmetry_equiv_pos_as_xyz
  1  'x, y, z'
loop_
 _atom_site_type_symbol
 _atom_site_label
 _atom_site_symmetry_multiplicity
 _atom_site_fract_x
 _atom_site_fract_y
 _atom_site_fract_z
 _atom_site_occupancy
  Li  Li0  1  0.04843800  0.51324200  0.99505500  1
  Li  Li1  1  0.95174500  0.01330300  0.00494200  1
  Li  Li2  1  0.41359600  0.23264000  0.16230000  1
  Li  Li3  1  0.58664100  0.73255000  0.83769500  1
  Li  Li4  1  0.42807400  0.35365200  0.50051700  1
  Li  Li5  1  0.57200900  0.85364400  0.49943400  1
  V  V0  1  0.93349500  0.24919700  0.73364000  1
  V  V1  1  0.06611200  0.74915000  0.26646600  1
  P  P0  1  0.95995400  0.25116000  0.32431600  1
  P  P1  1  0.04018000  0.75118000  0.67568100  1
  C  C0  1  0.52825500  0.74197900  0.14740600  1
  C  C1  1  0.47155800  0.24201500  0.85257900  1
  O  O0  1  0.34179600  0.72901700  0.04702700  1
  O  O1  1  0.65805000  0.22911600  0.95296600  1
  O  O2  1  0.76355600  0.75352400  0.09189300  1
  O  O3  1  0.23626000  0.25347000  0.90809900  1
  O  O4  1  0.07416600  0.06764500  0.22793100  1
  O  O5  1  0.92600400  0.56762900  0.77201100  1
  O  O6  1  0.06917900  0.43255800  0.22491600  1
  O  O7  1  0.93087500  0.93253100  0.77511500  1
  O  O8  1  0.47146000  0.74583300  0.29930700  1
  O  O9  1  0.52837200  0.24590300  0.70070000  1
  O  O10  1  0.66298400  0.24397500  0.33612900  1
  O  O11  1  0.33714900  0.74401800  0.66385600  1
  O  O12  1  0.07828200  0.26010700  0.49144500  1
  O  O13  1  0.92180600  0.76016600  0.50857400  1
loop_
_geom_bond_atom_site_label_1
_geom_bond_atom_site_label_2
_geom_bond_distance
_geom_bond_site_symmetry_2
Li0 O6 2.001207 1_556
Li0 O5 2.026404 1_455
Li0 O3 2.110654 1_555
Li0 O0 2.160236 1_556
Li0 O2 2.311986 1_456
Li1 O7 2.001111 1_544
Li1 O4 2.025875 1_655
Li1 O2 2.111645 1_545
Li1 O1 2.161628 1_554
Li1 O3 2.310386 1_654
Li2 O10 1.988573 1_555
Li2 O1 2.118429 1_554
Li2 O4 2.136142 1_555
Li2 O6 2.281067 1_555
Li2 O3 2.353690 1_554
Li3 O11 1.989042 1_555
Li3 O0 2.119571 1_556
Li3 O5 2.135612 1_555
Li3 O7 2.280615 1_555
Li3 O2 2.352776 1_556
Li4 O9 1.913311 1_555
Li4 O12 1.929894 1_555
Li4 O10 1.943783 1_555
Li5 O8 1.913413 1_555
Li5 O13 1.929781 1_555
Li5 O11 1.943770 1_555
C0 O8 1.290409 1_555
C0 O2 1.293414 1_555
C0 O0 1.311373 1_555
C1 O9 1.290256 1_555
C1 O3 1.293374 1_555
C1 O1 1.311522 1_555
O0 V1 2.283300 1_555
O1 V0 2.281823 1_555
O2 V1 2.190172 1_655
O3 V0 2.190313 1_455
O4 P0 1.572853 1_455
O4 V1 2.159124 1_545
O5 P1 1.572837 1_655
O5 V0 2.158435 1_555
O6 P0 1.565553 1_455
O6 V1 2.150202 1_555
O7 P1 1.565508 1_655
O7 V0 2.150624 1_565
O8 V1 2.138777 1_555
O9 V0 2.137756 1_555
O10 P0 1.545301 1_555
O11 P1 1.545290 1_555
O12 P0 1.549817 1_455
O12 V0 2.129492 1_455
O13 P1 1.549767 1_655
O13 V1 2.128044 1_655
