# generated using pymatgen
data_Li4Mn3V(PO4)4
_symmetry_space_group_name_H-M   'P 1'
_cell_length_a   6.17036800
_cell_length_b   4.78989500
_cell_length_c   10.55919726
_cell_angle_alpha   89.97199022
_cell_angle_beta   90.00000000
_cell_angle_gamma   90.00000000
_symmetry_Int_Tables_number   1
_chemical_formula_structural   Li4Mn3V(PO4)4
_chemical_formula_sum   'Li4 Mn3 V1 P4 O16'
_cell_volume   312.08141807
_cell_formula_units_Z   1
loop_
 _symmetry_equiv_pos_site_id
 _symmetry_equiv_pos_as_xyz
  1  'x, y, z'
loop_
 _atom_site_type_symbol
 _atom_site_label
 _atom_site_symmetry_multiplicity
 _atom_site_fract_x
 _atom_site_fract_y
 _atom_site_fract_z
 _atom_site_occupancy
  Li  Li0  1  0.24922700  0.00017100  0.00034800  1
  Li  Li1  1  0.75077300  0.00017100  0.00034800  1
  Li  Li2  1  0.74900400  0.50062000  0.50084200  1
  Li  Li3  1  0.25099600  0.50062000  0.50084200  1
  Mn  Mn0  1  0.00000000  0.02813800  0.28171500  1
  Mn  Mn1  1  0.00000000  0.47343700  0.77960600  1
  Mn  Mn2  1  0.50000000  0.52768500  0.21970700  1
  V  V0  1  0.50000000  0.97803500  0.72311300  1
  P  P0  1  0.50000000  0.08938700  0.40919800  1
  P  P1  1  0.50000000  0.40973400  0.90665700  1
  P  P2  1  0.00000000  0.58999500  0.09171000  1
  P  P3  1  0.00000000  0.90938700  0.59183600  1
  O  O0  1  0.50000000  0.20976800  0.54589400  1
  O  O1  1  0.29970300  0.22340700  0.33950800  1
  O  O2  1  0.70029700  0.22340700  0.33950800  1
  O  O3  1  0.00000000  0.23066100  0.59597200  1
  O  O4  1  0.00000000  0.26929700  0.09576600  1
  O  O5  1  0.29940100  0.27437900  0.83744100  1
  O  O6  1  0.70059900  0.27437900  0.83744100  1
  O  O7  1  0.50000000  0.28980900  0.04352900  1
  O  O8  1  0.00000000  0.71140200  0.95481700  1
  O  O9  1  0.79931600  0.72321700  0.16075500  1
  O  O10  1  0.20068400  0.72321700  0.16075500  1
  O  O11  1  0.50000000  0.73021900  0.90253900  1
  O  O12  1  0.50000000  0.76879200  0.40368600  1
  O  O13  1  0.79896100  0.77630600  0.66069400  1
  O  O14  1  0.20103900  0.77630600  0.66069400  1
  O  O15  1  0.00000000  0.78805800  0.45507600  1
loop_
_geom_bond_atom_site_label_1
_geom_bond_atom_site_label_2
_geom_bond_distance
_geom_bond_site_symmetry_2
Li0 O8 2.123642 1_544
Li0 O7 2.127802 1_555
Li0 O10 2.171679 1_545
Li0 O5 2.185796 1_554
Li0 O4 2.245671 1_555
Li0 O11 2.265885 1_544
Li1 O8 2.123642 1_644
Li1 O7 2.127802 1_555
Li1 O9 2.171679 1_545
Li1 O6 2.185796 1_554
Li1 O4 2.245671 1_655
Li1 O11 2.265885 1_544
Li2 O15 2.127685 1_655
Li2 O0 2.127720 1_555
Li2 O13 2.165635 1_555
Li2 O2 2.181227 1_555
Li2 O12 2.249846 1_555
Li2 O3 2.253525 1_655
Li3 O15 2.127685 1_555
Li3 O0 2.127720 1_555
Li3 O14 2.165635 1_555
Li3 O1 2.181227 1_555
Li3 O12 2.249846 1_555
Li3 O3 2.253525 1_555
Mn0 O1 2.160465 1_555
Mn0 O2 2.160465 1_455
Mn0 O15 2.161312 1_545
Mn0 O4 2.277569 1_555
Mn0 O10 2.302111 1_545
Mn0 O9 2.302111 1_445
Mn1 O5 2.166659 1_555
Mn1 O6 2.166659 1_455
Mn1 O8 2.173498 1_555
Mn1 O3 2.261482 1_555
Mn1 O14 2.284328 1_555
Mn1 O13 2.284328 1_455
Mn2 O9 2.162198 1_555
Mn2 O10 2.162198 1_555
Mn2 O7 2.181975 1_555
Mn2 O12 2.260510 1_555
Mn2 O1 2.291306 1_555
Mn2 O2 2.291306 1_555
O0 P0 1.554574 1_555
O0 V0 2.175258 1_545
O1 P0 1.574991 1_555
O2 P0 1.574991 1_555
O3 P3 1.539510 1_545
O4 P2 1.536686 1_555
O5 P1 1.577036 1_555
O5 V0 2.237402 1_545
O6 P1 1.577036 1_555
O6 V0 2.237402 1_545
O7 P1 1.554969 1_554
O8 P2 1.557808 1_556
O9 P2 1.572435 1_655
O10 P2 1.572435 1_555
O11 P1 1.535684 1_555
O11 V0 2.235238 1_555
O12 P0 1.536747 1_565
O13 P3 1.572685 1_655
O13 V0 2.184400 1_555
O14 P3 1.572685 1_555
O14 V0 2.184400 1_555
O15 P3 1.556893 1_555
