# generated using pymatgen
data_Li2Mn3O6
_symmetry_space_group_name_H-M   'P 1'
_cell_length_a   5.18898966
_cell_length_b   5.18898966
_cell_length_c   10.25069000
_cell_angle_alpha   90.00000000
_cell_angle_beta   90.00000000
_cell_angle_gamma   120.09167228
_symmetry_Int_Tables_number   1
_chemical_formula_structural   Li2Mn3O6
_chemical_formula_sum   'Li4 Mn6 O12'
_cell_volume   238.80720212
_cell_formula_units_Z   2
loop_
 _symmetry_equiv_pos_site_id
 _symmetry_equiv_pos_as_xyz
  1  'x, y, z'
loop_
 _atom_site_type_symbol
 _atom_site_label
 _atom_site_symmetry_multiplicity
 _atom_site_fract_x
 _atom_site_fract_y
 _atom_site_fract_z
 _atom_site_occupancy
  Li  Li0  1  0.65329700  0.15329700  0.25000000  1
  Li  Li1  1  0.84670300  0.34670300  0.75000000  1
  Li  Li2  1  0.15329700  0.65329700  0.25000000  1
  Li  Li3  1  0.34670300  0.84670300  0.75000000  1
  Mn  Mn0  1  0.50000000  0.50000000  0.50000000  1
  Mn  Mn1  1  0.00000000  0.00000000  0.00000000  1
  Mn  Mn2  1  0.83642500  0.16357500  0.50000000  1
  Mn  Mn3  1  0.33642500  0.66357500  0.00000000  1
  Mn  Mn4  1  0.66357500  0.33642500  0.00000000  1
  Mn  Mn5  1  0.16357500  0.83642500  0.50000000  1
  O  O0  1  0.67342200  0.67342200  0.09203900  1
  O  O1  1  0.82657800  0.82657800  0.59203900  1
  O  O2  1  0.17342200  0.17342200  0.40796100  1
  O  O3  1  0.47794400  0.84190900  0.39266000  1
  O  O4  1  0.32657800  0.32657800  0.90796100  1
  O  O5  1  0.65809100  0.02205600  0.89266000  1
  O  O6  1  0.97794400  0.34190900  0.10734000  1
  O  O7  1  0.15809100  0.52205600  0.60734000  1
  O  O8  1  0.52205600  0.15809100  0.60734000  1
  O  O9  1  0.84190900  0.47794400  0.39266000  1
  O  O10  1  0.02205600  0.65809100  0.89266000  1
  O  O11  1  0.34190900  0.97794400  0.10734000  1
loop_
_geom_bond_atom_site_label_1
_geom_bond_atom_site_label_2
_geom_bond_distance
_geom_bond_site_symmetry_2
Li0 O11 2.025567 1_545
Li0 O3 2.025567 1_545
Li0 O6 2.069041 1_555
Li0 O9 2.069041 1_555
Li1 O7 2.025567 1_655
Li1 O10 2.025567 1_655
Li1 O5 2.069041 1_555
Li1 O8 2.069041 1_555
Li2 O9 2.025567 1_455
Li2 O6 2.025567 1_455
Li2 O11 2.069041 1_555
Li2 O3 2.069041 1_555
Li3 O8 2.025567 1_565
Li3 O5 2.025567 1_565
Li3 O10 2.069041 1_555
Li3 O7 2.069041 1_555
Mn0 O1 1.937491 1_555
Mn0 O2 1.937491 1_555
Mn0 O8 2.138935 1_555
Mn0 O9 2.138935 1_555
Mn0 O3 2.138935 1_555
Mn0 O7 2.138935 1_555
Mn1 O4 1.937491 1_554
Mn1 O0 1.937491 1_445
Mn1 O6 2.138935 1_455
Mn1 O11 2.138935 1_545
Mn1 O5 2.138935 1_454
Mn1 O10 2.138935 1_544
Mn2 O8 1.956002 1_555
Mn2 O9 1.956002 1_555
Mn2 O1 1.964942 1_545
Mn2 O2 1.964942 1_655
Mn2 O7 2.084082 1_655
Mn2 O3 2.084082 1_545
Mn3 O10 1.956002 1_554
Mn3 O11 1.956002 1_555
Mn3 O4 1.964942 1_554
Mn3 O0 1.964942 1_555
Mn3 O5 2.084082 1_564
Mn3 O6 2.084082 1_455
Mn4 O5 1.956002 1_554
Mn4 O6 1.956002 1_555
Mn4 O4 1.964942 1_554
Mn4 O0 1.964942 1_555
Mn4 O11 2.084082 1_545
Mn4 O10 2.084082 1_654
Mn5 O7 1.956002 1_555
Mn5 O3 1.956002 1_555
Mn5 O2 1.964942 1_565
Mn5 O1 1.964942 1_455
Mn5 O9 2.084082 1_455
Mn5 O8 2.084082 1_565
