# generated using pymatgen
data_FeOF
_symmetry_space_group_name_H-M   'P 1'
_cell_length_a   3.08140700
_cell_length_b   4.78374100
_cell_length_c   9.55164500
_cell_angle_alpha   86.65172753
_cell_angle_beta   90.00000000
_cell_angle_gamma   90.00000000
_symmetry_Int_Tables_number   1
_chemical_formula_structural   FeOF
_chemical_formula_sum   'Fe4 O4 F4'
_cell_volume   140.55713821
_cell_formula_units_Z   4
loop_
 _symmetry_equiv_pos_site_id
 _symmetry_equiv_pos_as_xyz
  1  'x, y, z'
loop_
 _atom_site_type_symbol
 _atom_site_label
 _atom_site_symmetry_multiplicity
 _atom_site_fract_x
 _atom_site_fract_y
 _atom_site_fract_z
 _atom_site_occupancy
  Fe  Fe0  1  0.00000000  0.94697800  0.99997400  1
  Fe  Fe1  1  0.00000000  0.01330700  0.49896100  1
  Fe  Fe2  1  0.50000000  0.48359800  0.24856200  1
  Fe  Fe3  1  0.50000000  0.55892800  0.74994500  1
  O  O0  1  0.50000000  0.80296500  0.90267600  1
  O  O1  1  0.00000000  0.68214900  0.15774000  1
  O  O2  1  0.00000000  0.70972400  0.64672100  1
  O  O3  1  0.00000000  0.29592100  0.35247400  1
  F  F0  1  0.50000000  0.81313700  0.40529100  1
  F  F1  1  0.00000000  0.30809000  0.84538300  1
  F  F2  1  0.50000000  0.18297400  0.09143000  1
  F  F3  1  0.50000000  0.20222900  0.60084400  1
loop_
_geom_bond_atom_site_label_1
_geom_bond_atom_site_label_2
_geom_bond_distance
_geom_bond_site_symmetry_2
Fe0 O1 1.911227 1_556
Fe0 O0 1.945988 1_455
Fe0 O0 1.945988 1_555
Fe1 O3 1.888001 1_555
Fe1 O2 1.965085 1_545
Fe2 O1 1.982984 1_655
Fe2 O1 1.982984 1_555
Fe2 O3 2.015152 1_655
Fe2 O3 2.015152 1_555
Fe3 O0 1.920930 1_555
Fe3 O2 1.945039 1_555
Fe3 O2 1.945039 1_655
F0 Fe1 2.047256 1_665
F0 Fe1 2.047256 1_565
F0 Fe2 2.236485 1_555
F1 Fe3 2.125289 1_555
F1 Fe3 2.125289 1_455
F1 Fe0 2.206020 1_545
F2 Fe0 2.127576 1_644
F2 Fe0 2.127576 1_544
F2 Fe2 2.138431 1_555
F3 Fe1 2.059197 1_655
F3 Fe1 2.059197 1_555
F3 Fe3 2.285551 1_555
