# generated using pymatgen
data_Mn2PO5
_symmetry_space_group_name_H-M   'P 1'
_cell_length_a   6.13308685
_cell_length_b   7.67199853
_cell_length_c   8.08323246
_cell_angle_alpha   90.00000000
_cell_angle_beta   90.00000000
_cell_angle_gamma   90.00000000
_symmetry_Int_Tables_number   1
_chemical_formula_structural   Mn2PO5
_chemical_formula_sum   'Mn8 P4 O20'
_cell_volume   380.34060609
_cell_formula_units_Z   4
loop_
 _symmetry_equiv_pos_site_id
 _symmetry_equiv_pos_as_xyz
  1  'x, y, z'
loop_
 _atom_site_type_symbol
 _atom_site_label
 _atom_site_symmetry_multiplicity
 _atom_site_fract_x
 _atom_site_fract_y
 _atom_site_fract_z
 _atom_site_occupancy
  Mn  Mn0  1  -0.00000000  -0.00000000  0.00000000  1
  Mn  Mn1  1  0.50000000  -0.00000000  0.00000000  1
  Mn  Mn2  1  0.25000000  0.12107122  0.34907647  1
  Mn  Mn3  1  0.25000000  0.37892878  0.84907647  1
  Mn  Mn4  1  -0.00000000  0.50000000  0.50000000  1
  Mn  Mn5  1  0.50000000  0.50000000  0.50000000  1
  Mn  Mn6  1  0.75000000  0.62107122  0.15092353  1
  Mn  Mn7  1  0.75000000  0.87892878  0.65092353  1
  P  P0  1  0.75000000  0.16791578  0.32053349  1
  P  P1  1  0.75000000  0.33208422  0.82053349  1
  P  P2  1  0.25000000  0.66791578  0.17946651  1
  P  P3  1  0.25000000  0.83208422  0.67946651  1
  O  O0  1  0.75000000  0.06057761  0.47591018  1
  O  O1  1  0.95695796  0.13347442  0.21658078  1
  O  O2  1  0.54304204  0.13347442  0.21658078  1
  O  O3  1  0.75000000  0.13586082  0.86461917  1
  O  O4  1  0.25000000  0.14008111  0.95214392  1
  O  O5  1  0.25000000  0.35991889  0.45214392  1
  O  O6  1  0.75000000  0.36413918  0.36461917  1
  O  O7  1  0.54304204  0.36652558  0.71658078  1
  O  O8  1  0.95695796  0.36652558  0.71658078  1
  O  O9  1  0.75000000  0.43942239  0.97591018  1
  O  O10  1  0.25000000  0.56057761  0.02408982  1
  O  O11  1  0.04304204  0.63347442  0.28341922  1
  O  O12  1  0.45695796  0.63347442  0.28341922  1
  O  O13  1  0.25000000  0.63586082  0.63538083  1
  O  O14  1  0.75000000  0.64008111  0.54785608  1
  O  O15  1  0.75000000  0.85991889  0.04785608  1
  O  O16  1  0.25000000  0.86413918  0.13538083  1
  O  O17  1  0.04304204  0.86652558  0.78341922  1
  O  O18  1  0.45695796  0.86652558  0.78341922  1
  O  O19  1  0.25000000  0.93942239  0.52408982  1
loop_
_geom_bond_atom_site_label_1
_geom_bond_atom_site_label_2
_geom_bond_distance
_geom_bond_site_symmetry_2
Mn0 O4 1.911948 1_554
Mn0 O15 1.911948 1_445
Mn0 O17 2.045275 1_544
Mn0 O1 2.045275 1_455
Mn0 O16 2.152879 1_545
Mn0 O3 2.152879 1_454
Mn1 O15 1.911948 1_545
Mn1 O4 1.911948 1_554
Mn1 O2 2.045275 1_555
Mn1 O18 2.045275 1_544
Mn1 O16 2.152879 1_545
Mn1 O3 2.152879 1_554
Mn2 O19 1.985812 1_545
Mn2 O5 2.012938 1_555
Mn2 O2 2.094325 1_555
Mn2 O1 2.094325 1_455
Mn2 O16 2.620935 1_545
Mn3 O10 1.985812 1_556
Mn3 O4 2.012938 1_555
Mn3 O7 2.094325 1_555
Mn3 O8 2.094325 1_455
Mn3 O13 2.620935 1_555
Mn4 O14 1.911948 1_455
Mn4 O5 1.911948 1_555
Mn4 O11 2.045275 1_555
Mn4 O8 2.045275 1_455
Mn4 O6 2.152879 1_455
Mn4 O13 2.152879 1_555
Mn5 O14 1.911948 1_555
Mn5 O5 1.911948 1_555
Mn5 O12 2.045275 1_555
Mn5 O7 2.045275 1_555
Mn5 O6 2.152879 1_555
Mn5 O13 2.152879 1_555
Mn6 O9 1.985812 1_554
Mn6 O15 2.012938 1_555
Mn6 O11 2.094325 1_655
Mn6 O12 2.094325 1_555
Mn6 O6 2.620935 1_555
Mn7 O0 1.985812 1_565
Mn7 O14 2.012938 1_555
Mn7 O17 2.094325 1_655
Mn7 O18 2.094325 1_555
Mn7 O3 2.620935 1_565
O0 P0 1.501849 1_555
O1 P0 1.544985 1_555
O2 P0 1.544985 1_555
O3 P1 1.547028 1_555
O6 P0 1.547028 1_555
O7 P1 1.544985 1_555
O8 P1 1.544985 1_555
O9 P1 1.501849 1_555
O10 P2 1.501849 1_555
O11 P2 1.544985 1_555
O12 P2 1.544985 1_555
O13 P3 1.547028 1_555
O16 P2 1.547028 1_555
O17 P3 1.544985 1_555
O18 P3 1.544985 1_555
O19 P3 1.501849 1_555
