# generated using pymatgen
data_Li5BO4
_symmetry_space_group_name_H-M   'P 1'
_cell_length_a   8.50412900
_cell_length_b   8.78947800
_cell_length_c   8.87783800
_cell_angle_alpha   90.00000000
_cell_angle_beta   90.00000000
_cell_angle_gamma   90.00000000
_symmetry_Int_Tables_number   1
_chemical_formula_structural   Li5BO4
_chemical_formula_sum   'Li40 B8 O32'
_cell_volume   663.59046752
_cell_formula_units_Z   8
loop_
 _symmetry_equiv_pos_site_id
 _symmetry_equiv_pos_as_xyz
  1  'x, y, z'
loop_
 _atom_site_type_symbol
 _atom_site_label
 _atom_site_symmetry_multiplicity
 _atom_site_fract_x
 _atom_site_fract_y
 _atom_site_fract_z
 _atom_site_occupancy
  Li  Li0  1  0.85027900  0.38331200  0.10399700  1
  Li  Li1  1  0.35027900  0.11668800  0.10399700  1
  Li  Li2  1  0.15994300  0.89188200  0.11166600  1
  Li  Li3  1  0.65994300  0.60811800  0.11166600  1
  Li  Li4  1  0.63869900  0.15350100  0.12112700  1
  Li  Li5  1  0.13869900  0.34649900  0.12112700  1
  Li  Li6  1  0.91431900  0.11926100  0.14249900  1
  Li  Li7  1  0.41431900  0.38073900  0.14249900  1
  Li  Li8  1  0.59858400  0.87919700  0.15974800  1
  Li  Li9  1  0.09858400  0.62080300  0.15974800  1
  Li  Li10  1  0.09858400  0.12080300  0.34025200  1
  Li  Li11  1  0.59858400  0.37919700  0.34025200  1
  Li  Li12  1  0.41431900  0.88073900  0.35750100  1
  Li  Li13  1  0.91431900  0.61926100  0.35750100  1
  Li  Li14  1  0.13869900  0.84649900  0.37887300  1
  Li  Li15  1  0.63869900  0.65350100  0.37887300  1
  Li  Li16  1  0.15994300  0.39188200  0.38833400  1
  Li  Li17  1  0.65994300  0.10811800  0.38833400  1
  Li  Li18  1  0.85027900  0.88331200  0.39600300  1
  Li  Li19  1  0.35027900  0.61668800  0.39600300  1
  Li  Li20  1  0.64972100  0.38331200  0.60399700  1
  Li  Li21  1  0.14972100  0.11668800  0.60399700  1
  Li  Li22  1  0.34005700  0.89188200  0.61166600  1
  Li  Li23  1  0.84005700  0.60811800  0.61166600  1
  Li  Li24  1  0.36130100  0.34649900  0.62112700  1
  Li  Li25  1  0.86130100  0.15350100  0.62112700  1
  Li  Li26  1  0.08568100  0.38073900  0.64249900  1
  Li  Li27  1  0.58568100  0.11926100  0.64249900  1
  Li  Li28  1  0.90141600  0.87919700  0.65974800  1
  Li  Li29  1  0.40141600  0.62080300  0.65974800  1
  Li  Li30  1  0.90141600  0.37919700  0.84025200  1
  Li  Li31  1  0.40141600  0.12080300  0.84025200  1
  Li  Li32  1  0.58568100  0.61926100  0.85750100  1
  Li  Li33  1  0.08568100  0.88073900  0.85750100  1
  Li  Li34  1  0.36130100  0.84649900  0.87887300  1
  Li  Li35  1  0.86130100  0.65350100  0.87887300  1
  Li  Li36  1  0.34005700  0.39188200  0.88833400  1
  Li  Li37  1  0.84005700  0.10811800  0.88833400  1
  Li  Li38  1  0.64972100  0.88331200  0.89600300  1
  Li  Li39  1  0.14972100  0.61668800  0.89600300  1
  B  B0  1  0.88273600  0.85688700  0.13342800  1
  B  B1  1  0.38273600  0.64311300  0.13342800  1
  B  B2  1  0.88273600  0.35688700  0.36657200  1
  B  B3  1  0.38273600  0.14311300  0.36657200  1
  B  B4  1  0.61726400  0.85688700  0.63342800  1
  B  B5  1  0.11726400  0.64311300  0.63342800  1
  B  B6  1  0.61726400  0.35688700  0.86657200  1
  B  B7  1  0.11726400  0.14311300  0.86657200  1
  O  O0  1  0.48334700  0.73282000  0.02577900  1
  O  O1  1  0.98334700  0.76718000  0.02577900  1
  O  O2  1  0.77516000  0.97066800  0.05144400  1
  O  O3  1  0.27516000  0.52933200  0.05144400  1
  O  O4  1  0.99134600  0.94768700  0.24119400  1
  O  O5  1  0.49134600  0.55231300  0.24119400  1
  O  O6  1  0.78166000  0.75631600  0.23142200  1
  O  O7  1  0.28166000  0.74368400  0.23142200  1
  O  O8  1  0.78166000  0.25631600  0.26857800  1
  O  O9  1  0.28166000  0.24368400  0.26857800  1
  O  O10  1  0.99134600  0.44768700  0.25880600  1
  O  O11  1  0.49134600  0.05231300  0.25880600  1
  O  O12  1  0.77516000  0.47066800  0.44855600  1
  O  O13  1  0.27516000  0.02933200  0.44855600  1
  O  O14  1  0.48334700  0.23282000  0.47422100  1
  O  O15  1  0.98334700  0.26718000  0.47422100  1
  O  O16  1  0.01665300  0.73282000  0.52577900  1
  O  O17  1  0.51665300  0.76718000  0.52577900  1
  O  O18  1  0.72484000  0.97066800  0.55144400  1
  O  O19  1  0.22484000  0.52933200  0.55144400  1
  O  O20  1  0.50865400  0.94768700  0.74119400  1
  O  O21  1  0.00865400  0.55231300  0.74119400  1
  O  O22  1  0.71834000  0.75631600  0.73142200  1
  O  O23  1  0.21834000  0.74368400  0.73142200  1
  O  O24  1  0.71834000  0.25631600  0.76857800  1
  O  O25  1  0.21834000  0.24368400  0.76857800  1
  O  O26  1  0.50865400  0.44768700  0.75880600  1
  O  O27  1  0.00865400  0.05231300  0.75880600  1
  O  O28  1  0.22484000  0.02933200  0.94855600  1
  O  O29  1  0.72484000  0.47066800  0.94855600  1
  O  O30  1  0.01665300  0.23282000  0.97422100  1
  O  O31  1  0.51665300  0.26718000  0.97422100  1
loop_
_geom_bond_atom_site_label_1
_geom_bond_atom_site_label_2
_geom_bond_distance
_geom_bond_site_symmetry_2
Li0 O29 1.905738 1_554
Li0 O10 1.910029 1_555
Li0 O8 1.929086 1_555
Li0 O30 2.253643 1_654
Li1 O28 1.905738 1_554
Li1 O11 1.910029 1_555
Li1 O9 1.929086 1_555
Li1 O31 2.253643 1_554
Li2 O4 1.902267 1_455
Li2 O28 1.964946 1_564
Li2 O7 1.974459 1_555
Li2 O1 2.009513 1_455
Li3 O5 1.902267 1_555
Li3 O29 1.964946 1_554
Li3 O6 1.974459 1_555
Li3 O0 2.009513 1_555
Li4 O31 1.943333 1_554
Li4 O11 1.963490 1_555
Li4 O8 2.002081 1_555
Li4 O2 2.076511 1_545
Li5 O30 1.943333 1_554
Li5 O10 1.963490 1_455
Li5 O9 2.002081 1_555
Li5 O3 2.076511 1_555
Li6 O4 1.863065 1_545
Li6 O2 1.939005 1_545
Li6 O8 1.994175 1_555
Li6 O30 1.996366 1_654
Li7 O5 1.863065 1_555
Li7 O3 1.939005 1_555
Li7 O9 1.994175 1_555
Li7 O31 1.996366 1_554
Li8 O2 1.955955 1_555
Li8 O11 1.979982 1_565
Li8 O6 1.998841 1_555
Li8 O0 2.007543 1_555
Li9 O3 1.955955 1_555
Li9 O10 1.979982 1_455
Li9 O7 1.998841 1_555
Li9 O1 2.007543 1_455
Li10 O13 1.955955 1_555
Li10 O4 1.979982 1_445
Li10 O9 1.998841 1_555
Li10 O15 2.007543 1_455
Li11 O12 1.955955 1_555
Li11 O5 1.979982 1_555
Li11 O8 1.998841 1_555
Li11 O14 2.007543 1_555
Li12 O11 1.863065 1_565
Li12 O13 1.939005 1_565
Li12 O7 1.994175 1_555
Li12 O17 1.996366 1_555
Li13 O10 1.863065 1_555
Li13 O12 1.939005 1_555
Li13 O6 1.994175 1_555
Li13 O16 1.996366 1_655
Li14 O16 1.943333 1_555
Li14 O4 1.963490 1_455
Li14 O7 2.002081 1_555
Li14 O13 2.076511 1_565
Li15 O17 1.943333 1_555
Li15 O5 1.963490 1_555
Li15 O6 2.002081 1_555
Li15 O12 2.076511 1_555
Li16 O10 1.902267 1_455
Li16 O19 1.964946 1_555
Li16 O9 1.974459 1_555
Li16 O15 2.009513 1_455
Li17 O11 1.902267 1_555
Li17 O18 1.964946 1_545
Li17 O8 1.974459 1_555
Li17 O14 2.009513 1_555
Li18 O18 1.905738 1_555
Li18 O4 1.910029 1_555
Li18 O6 1.929086 1_555
Li18 O16 2.253643 1_655
Li19 O19 1.905738 1_555
Li19 O5 1.910029 1_555
Li19 O7 1.929086 1_555
Li19 O17 2.253643 1_555
Li20 O12 1.905738 1_555
Li20 O26 1.910029 1_555
Li20 O24 1.929086 1_555
Li20 O14 2.253643 1_555
Li21 O13 1.905738 1_555
Li21 O27 1.910029 1_555
Li21 O25 1.929086 1_555
Li21 O15 2.253643 1_455
Li22 O20 1.902267 1_555
Li22 O13 1.964946 1_565
Li22 O23 1.974459 1_555
Li22 O17 2.009513 1_555
Li23 O21 1.902267 1_655
Li23 O12 1.964946 1_555
Li23 O22 1.974459 1_555
Li23 O16 2.009513 1_655
Li24 O14 1.943333 1_555
Li24 O26 1.963490 1_555
Li24 O25 2.002081 1_555
Li24 O19 2.076511 1_555
Li25 O15 1.943333 1_555
Li25 O27 1.963490 1_655
Li25 O24 2.002081 1_555
Li25 O18 2.076511 1_545
Li26 O21 1.863065 1_555
Li26 O19 1.939005 1_555
Li26 O25 1.994175 1_555
Li26 O15 1.996366 1_455
Li27 O20 1.863065 1_545
Li27 O18 1.939005 1_545
Li27 O24 1.994175 1_555
Li27 O14 1.996366 1_555
Li28 O18 1.955955 1_555
Li28 O27 1.979982 1_665
Li28 O22 1.998841 1_555
Li28 O16 2.007543 1_655
Li29 O19 1.955955 1_555
Li29 O26 1.979982 1_555
Li29 O23 1.998841 1_555
Li29 O17 2.007543 1_555
Li30 O29 1.955955 1_555
Li30 O21 1.979982 1_655
Li30 O24 1.998841 1_555
Li30 O30 2.007543 1_655
Li31 O28 1.955955 1_555
Li31 O20 1.979982 1_545
Li31 O25 1.998841 1_555
Li31 O31 2.007543 1_555
Li32 O26 1.863065 1_555
Li32 O29 1.939005 1_555
Li32 O22 1.994175 1_555
Li32 O0 1.996366 1_556
Li33 O27 1.863065 1_565
Li33 O28 1.939005 1_565
Li33 O23 1.994175 1_555
Li33 O1 1.996366 1_456
Li34 O0 1.943333 1_556
Li34 O20 1.963490 1_555
Li34 O23 2.002081 1_555
Li34 O28 2.076511 1_565
Li35 O1 1.943333 1_556
Li35 O21 1.963490 1_655
Li35 O22 2.002081 1_555
Li35 O29 2.076511 1_555
Li36 O26 1.902267 1_555
Li36 O3 1.964946 1_556
Li36 O25 1.974459 1_555
Li36 O31 2.009513 1_555
Li37 O27 1.902267 1_655
Li37 O2 1.964946 1_546
Li37 O24 1.974459 1_555
Li37 O30 2.009513 1_655
Li38 O2 1.905738 1_556
Li38 O20 1.910029 1_555
Li38 O22 1.929086 1_555
Li38 O0 2.253643 1_556
Li39 O3 1.905738 1_556
Li39 O21 1.910029 1_555
Li39 O23 1.929086 1_555
Li39 O1 2.253643 1_456
B0 O1 1.505692 1_555
B0 O6 1.509007 1_555
B0 O2 1.538452 1_555
B0 O4 1.550925 1_555
B1 O0 1.505692 1_555
B1 O7 1.509007 1_555
B1 O3 1.538452 1_555
B1 O5 1.550925 1_555
B2 O15 1.505692 1_555
B2 O8 1.509007 1_555
B2 O12 1.538452 1_555
B2 O10 1.550925 1_555
B3 O14 1.505692 1_555
B3 O9 1.509007 1_555
B3 O13 1.538452 1_555
B3 O11 1.550925 1_555
B4 O17 1.505692 1_555
B4 O22 1.509007 1_555
B4 O18 1.538452 1_555
B4 O20 1.550925 1_555
B5 O16 1.505692 1_555
B5 O23 1.509007 1_555
B5 O19 1.538452 1_555
B5 O21 1.550925 1_555
B6 O31 1.505692 1_555
B6 O24 1.509007 1_555
B6 O29 1.538452 1_555
B6 O26 1.550925 1_555
B7 O30 1.505692 1_555
B7 O25 1.509007 1_555
B7 O28 1.538452 1_555
B7 O27 1.550925 1_555
