# generated using pymatgen
data_Cu9P4(HO10)2
_symmetry_space_group_name_H-M   'P 1'
_cell_length_a   8.23529769
_cell_length_b   8.93248759
_cell_length_c   5.95585817
_cell_angle_alpha   102.09793720
_cell_angle_beta   94.31491790
_cell_angle_gamma   113.33603445
_symmetry_Int_Tables_number   1
_chemical_formula_structural   Cu9P4(HO10)2
_chemical_formula_sum   'Cu9 P4 H2 O20'
_cell_volume   387.18967393
_cell_formula_units_Z   1
loop_
 _symmetry_equiv_pos_site_id
 _symmetry_equiv_pos_as_xyz
  1  'x, y, z'
loop_
 _atom_site_type_symbol
 _atom_site_label
 _atom_site_symmetry_multiplicity
 _atom_site_fract_x
 _atom_site_fract_y
 _atom_site_fract_z
 _atom_site_occupancy
  Cu  Cu0  1  0.00000000  0.00000000  0.00000000  1
  Cu  Cu1  1  0.60234200  0.94454200  0.81868600  1
  Cu  Cu2  1  0.39765800  0.05545800  0.18131400  1
  Cu  Cu3  1  0.67961600  0.64373200  0.97363900  1
  Cu  Cu4  1  0.32038400  0.35626800  0.02636100  1
  Cu  Cu5  1  0.81937900  0.70848700  0.56427900  1
  Cu  Cu6  1  0.18062100  0.29151300  0.43572100  1
  Cu  Cu7  1  0.77984900  0.31780700  0.68152700  1
  Cu  Cu8  1  0.22015100  0.68219300  0.31847300  1
  P  P0  1  0.24761400  0.59299500  0.79929600  1
  P  P1  1  0.75238600  0.40700500  0.20070400  1
  P  P2  1  0.27149000  0.03041200  0.66316100  1
  P  P3  1  0.72851000  0.96958800  0.33683900  1
  H  H0  1  0.95541800  0.61593500  0.86332300  1
  H  H1  1  0.04458200  0.38406500  0.13667700  1
  O  O0  1  0.82862100  0.56152000  0.77229400  1
  O  O1  1  0.17137900  0.43848000  0.22770600  1
  O  O2  1  0.76152200  0.83373000  0.83532700  1
  O  O3  1  0.23847800  0.16627000  0.16467300  1
  O  O4  1  0.43239200  0.05457400  0.84636100  1
  O  O5  1  0.56760800  0.94542600  0.15363900  1
  O  O6  1  0.32880900  0.70511200  0.63377000  1
  O  O7  1  0.67119100  0.29488800  0.36623000  1
  O  O8  1  0.09006900  0.92435500  0.72867600  1
  O  O9  1  0.90993100  0.07564500  0.27132400  1
  O  O10  1  0.28749700  0.20985000  0.66616900  1
  O  O11  1  0.71250300  0.79015000  0.33383100  1
  O  O12  1  0.09511300  0.41799400  0.66722200  1
  O  O13  1  0.90488700  0.58200600  0.33277800  1
  O  O14  1  0.71956400  0.06337400  0.58443200  1
  O  O15  1  0.28043600  0.93662600  0.41556800  1
  O  O16  1  0.40223700  0.56013300  0.91352100  1
  O  O17  1  0.59776300  0.43986700  0.08647900  1
  O  O18  1  0.17104000  0.68166700  0.98831000  1
  O  O19  1  0.82896000  0.31833300  0.01169000  1
loop_
_geom_bond_atom_site_label_1
_geom_bond_atom_site_label_2
_geom_bond_distance
_geom_bond_site_symmetry_2
Cu0 O9 1.933352 1_455
Cu0 O8 1.933352 1_544
Cu0 O3 1.952821 1_555
Cu0 O2 1.952821 1_444
Cu1 O2 1.938448 1_555
Cu1 O4 2.002161 1_565
Cu1 O14 2.004191 1_565
Cu1 O5 2.035361 1_556
Cu1 O6 2.384089 1_555
Cu2 O3 1.938448 1_555
Cu2 O5 2.002161 1_545
Cu2 O15 2.004191 1_545
Cu2 O4 2.035361 1_554
Cu2 O7 2.384089 1_555
Cu3 O2 1.943348 1_555
Cu3 O17 1.957251 1_556
Cu3 O0 2.012290 1_555
Cu3 O16 2.077810 1_555
Cu3 O11 2.200427 1_556
Cu4 O3 1.943348 1_555
Cu4 O16 1.957251 1_554
Cu4 O1 2.012290 1_555
Cu4 O17 2.077810 1_555
Cu4 O10 2.200427 1_554
Cu5 O13 1.948537 1_555
Cu5 O2 1.966127 1_555
Cu5 O11 1.984215 1_555
Cu5 O0 2.002695 1_555
Cu5 O8 2.262945 1_655
Cu6 O12 1.948537 1_555
Cu6 O3 1.966127 1_555
Cu6 O10 1.984215 1_555
Cu6 O1 2.002695 1_555
Cu6 O9 2.262945 1_455
Cu7 O7 1.951889 1_555
Cu7 O19 1.976180 1_556
Cu7 O0 1.993499 1_555
Cu7 O14 2.063524 1_555
Cu7 O12 2.402782 1_655
Cu8 O6 1.951889 1_555
Cu8 O18 1.976180 1_554
Cu8 O1 1.993499 1_555
Cu8 O15 2.063524 1_555
Cu8 O13 2.402782 1_455
H0 O0 1.011342 1_555
H0 O18 1.686391 1_655
H1 O1 1.011342 1_555
H1 O19 1.686391 1_455
O4 P2 1.565277 1_555
O5 P3 1.565277 1_555
O6 P0 1.550642 1_555
O7 P1 1.550642 1_555
O8 P2 1.550246 1_565
O9 P3 1.550246 1_545
O10 P2 1.551441 1_555
O11 P3 1.551441 1_555
O12 P0 1.555694 1_555
O13 P1 1.555694 1_555
O14 P3 1.558587 1_545
O15 P2 1.558587 1_565
O16 P0 1.555611 1_555
O17 P1 1.555611 1_555
O18 P0 1.555990 1_555
O19 P1 1.555990 1_555
