# generated using pymatgen
data_Li3Mn2Fe(BO3)4
_symmetry_space_group_name_H-M   'P 1'
_cell_length_a   9.18246500
_cell_length_b   5.22890300
_cell_length_c   10.63861809
_cell_angle_alpha   65.31799145
_cell_angle_beta   90.00000000
_cell_angle_gamma   90.00000000
_symmetry_Int_Tables_number   1
_chemical_formula_structural   Li3Mn2Fe(BO3)4
_chemical_formula_sum   'Li6 Mn4 Fe2 B8 O24'
_cell_volume   464.13746427
_cell_formula_units_Z   2
loop_
 _symmetry_equiv_pos_site_id
 _symmetry_equiv_pos_as_xyz
  1  'x, y, z'
loop_
 _atom_site_type_symbol
 _atom_site_label
 _atom_site_symmetry_multiplicity
 _atom_site_fract_x
 _atom_site_fract_y
 _atom_site_fract_z
 _atom_site_occupancy
  Li  Li0  1  0.22698100  0.49230700  0.34617600  1
  Li  Li1  1  0.23876200  0.91755700  0.88284100  1
  Li  Li2  1  0.73202400  0.50003900  0.16706800  1
  Li  Li3  1  0.76123800  0.91755700  0.38284100  1
  Li  Li4  1  0.77301900  0.49230700  0.84617600  1
  Li  Li5  1  0.26797600  0.50003900  0.66706800  1
  Mn  Mn0  1  0.55795000  0.97549700  0.88048600  1
  Mn  Mn1  1  0.07491200  0.02265700  0.62450100  1
  Mn  Mn2  1  0.44205000  0.97549700  0.38048600  1
  Mn  Mn3  1  0.92508800  0.02265700  0.12450100  1
  Fe  Fe0  1  0.73695700  0.07028700  0.61116500  1
  Fe  Fe1  1  0.26304300  0.07028700  0.11116500  1
  B  B0  1  0.55810800  0.43567500  0.39255000  1
  B  B1  1  0.90646200  0.98289100  0.86028000  1
  B  B2  1  0.06832000  0.56334100  0.11098900  1
  B  B3  1  0.40188500  0.02616100  0.63272900  1
  B  B4  1  0.09353800  0.98289100  0.36028000  1
  B  B5  1  0.44189200  0.43567500  0.89255000  1
  B  B6  1  0.59811500  0.02616100  0.13272900  1
  B  B7  1  0.93168000  0.56334100  0.61098900  1
  O  O0  1  0.60008200  0.83224700  0.07540800  1
  O  O1  1  0.90739700  0.31239300  0.59735300  1
  O  O2  1  0.18708200  0.73389100  0.10346100  1
  O  O3  1  0.27873000  0.14266000  0.65789500  1
  O  O4  1  0.93074900  0.63319000  0.13408600  1
  O  O5  1  0.53738300  0.09746000  0.67534800  1
  O  O6  1  0.42272500  0.36085000  0.36426900  1
  O  O7  1  0.03832000  0.91350800  0.81973900  1
  O  O8  1  0.77584700  0.88994900  0.82450900  1
  O  O9  1  0.67333700  0.24464000  0.41587000  1
  O  O10  1  0.10017400  0.15781700  0.42871700  1
  O  O11  1  0.41599500  0.68820700  0.89788200  1
  O  O12  1  0.09260300  0.31239300  0.09735300  1
  O  O13  1  0.39991800  0.83224700  0.57540800  1
  O  O14  1  0.72127000  0.14266000  0.15789500  1
  O  O15  1  0.46261700  0.09746000  0.17534800  1
  O  O16  1  0.81291800  0.73389100  0.60346100  1
  O  O17  1  0.06925100  0.63319000  0.63408600  1
  O  O18  1  0.96168000  0.91350800  0.31973900  1
  O  O19  1  0.22415300  0.88994900  0.32450900  1
  O  O20  1  0.57727500  0.36085000  0.86426900  1
  O  O21  1  0.32666300  0.24464000  0.91587000  1
  O  O22  1  0.58400500  0.68820700  0.39788200  1
  O  O23  1  0.89982600  0.15781700  0.92871700  1
loop_
_geom_bond_atom_site_label_1
_geom_bond_atom_site_label_2
_geom_bond_distance
_geom_bond_site_symmetry_2
Li0 O6 1.905184 1_555
Li0 O10 1.975677 1_555
Li0 O19 1.994176 1_555
Li0 O2 2.381870 1_555
Li1 O7 1.962299 1_555
Li1 O11 1.987985 1_555
Li1 O21 2.049863 1_565
Li1 O2 2.184909 1_556
Li1 O3 2.212382 1_565
Li2 O14 1.914058 1_555
Li2 O4 1.932272 1_555
Li2 O0 2.005376 1_555
Li2 O9 2.475442 1_555
Li3 O18 1.962299 1_555
Li3 O22 1.987985 1_555
Li3 O9 2.049863 1_565
Li3 O16 2.184909 1_555
Li3 O14 2.212382 1_565
Li4 O20 1.905184 1_555
Li4 O23 1.975677 1_555
Li4 O8 1.994176 1_555
Li4 O16 2.381870 1_555
Li5 O3 1.914058 1_555
Li5 O17 1.932272 1_555
Li5 O13 2.005376 1_555
Li5 O21 2.475442 1_555
Mn0 O0 1.927102 1_556
Mn0 O11 1.938507 1_555
Mn0 O20 1.957304 1_565
Mn0 O5 2.010674 1_565
Mn0 O8 2.186445 1_555
Mn1 O10 1.913699 1_555
Mn1 O7 1.939789 1_545
Mn1 O17 1.996732 1_545
Mn1 O3 2.051544 1_555
Mn1 O1 2.092671 1_455
Mn2 O13 1.927102 1_555
Mn2 O22 1.938507 1_555
Mn2 O6 1.957304 1_565
Mn2 O15 2.010674 1_565
Mn2 O19 2.186445 1_555
Mn3 O23 1.913699 1_554
Mn3 O18 1.939789 1_545
Mn3 O4 1.996732 1_545
Mn3 O14 2.051544 1_555
Mn3 O12 2.092671 1_655
Fe0 O16 1.925528 1_545
Fe0 O9 1.976665 1_555
Fe0 O1 1.979463 1_555
Fe0 O5 1.981366 1_555
Fe0 O8 2.093020 1_545
Fe1 O2 1.925528 1_545
Fe1 O21 1.976665 1_554
Fe1 O12 1.979463 1_555
Fe1 O15 1.981366 1_555
Fe1 O19 2.093020 1_545
B0 O22 1.365998 1_555
B0 O6 1.373803 1_555
B0 O9 1.404256 1_555
B1 O7 1.383588 1_655
B1 O23 1.388022 1_565
B1 O8 1.404971 1_555
B2 O4 1.365468 1_455
B2 O2 1.389714 1_555
B2 O12 1.396985 1_555
B3 O3 1.363021 1_555
B3 O13 1.384455 1_545
B3 O5 1.426110 1_555
B4 O18 1.383588 1_455
B4 O10 1.388022 1_565
B4 O19 1.404971 1_555
B5 O11 1.365998 1_555
B5 O20 1.373803 1_555
B5 O21 1.404256 1_555
B6 O14 1.363021 1_555
B6 O0 1.384455 1_545
B6 O15 1.426110 1_555
B7 O17 1.365468 1_655
B7 O16 1.389714 1_555
B7 O1 1.396985 1_555
