# generated using pymatgen
data_Li4MnFe3(BO3)4
_symmetry_space_group_name_H-M   'P 1'
_cell_length_a   5.24124000
_cell_length_b   6.01034305
_cell_length_c   8.99625251
_cell_angle_alpha   102.49577088
_cell_angle_beta   90.84473113
_cell_angle_gamma   113.84009111
_symmetry_Int_Tables_number   1
_chemical_formula_structural   Li4MnFe3(BO3)4
_chemical_formula_sum   'Li4 Mn1 Fe3 B4 O12'
_cell_volume   251.41358271
_cell_formula_units_Z   1
loop_
 _symmetry_equiv_pos_site_id
 _symmetry_equiv_pos_as_xyz
  1  'x, y, z'
loop_
 _atom_site_type_symbol
 _atom_site_label
 _atom_site_symmetry_multiplicity
 _atom_site_fract_x
 _atom_site_fract_y
 _atom_site_fract_z
 _atom_site_occupancy
  Li  Li0  1  0.59264500  0.32380700  0.96717000  1
  Li  Li1  1  0.09223000  0.32561400  0.46624300  1
  Li  Li2  1  0.90673000  0.67265400  0.53315000  1
  Li  Li3  1  0.41201200  0.67877000  0.03492100  1
  Mn  Mn0  1  0.04040000  0.22807000  0.79228200  1
  Fe  Fe0  1  0.53630500  0.22907900  0.29020100  1
  Fe  Fe1  1  0.95017900  0.76142600  0.20821900  1
  Fe  Fe2  1  0.44699500  0.76082800  0.70590100  1
  B  B0  1  0.55378700  0.26130000  0.63010200  1
  B  B1  1  0.94674900  0.73996200  0.86838800  1
  B  B2  1  0.05639700  0.26110700  0.13410000  1
  B  B3  1  0.44841800  0.74388600  0.36711800  1
  O  O0  1  0.61978600  0.17462300  0.75221000  1
  O  O1  1  0.72205400  0.29598200  0.51266900  1
  O  O2  1  0.82174700  0.31505800  0.13871700  1
  O  O3  1  0.32247600  0.32035600  0.63279700  1
  O  O4  1  0.12896100  0.17548700  0.25483000  1
  O  O5  1  0.78360000  0.70409700  0.98745100  1
  O  O6  1  0.22336300  0.29929800  0.01637300  1
  O  O7  1  0.86906300  0.81771100  0.74572300  1
  O  O8  1  0.68485300  0.69143000  0.36540600  1
  O  O9  1  0.18544200  0.69075100  0.86620200  1
  O  O10  1  0.28331600  0.70541000  0.48522700  1
  O  O11  1  0.37249200  0.82329500  0.24460300  1
loop_
_geom_bond_atom_site_label_1
_geom_bond_atom_site_label_2
_geom_bond_distance
_geom_bond_site_symmetry_2
Li0 O6 1.945964 1_556
Li0 O2 1.964145 1_556
Li0 O0 1.981110 1_555
Li0 O5 2.055286 1_555
Li1 O3 1.923641 1_555
Li1 O1 1.935773 1_455
Li1 O4 1.969045 1_555
Li1 O10 2.054538 1_555
Li2 O8 1.941756 1_555
Li2 O10 1.966755 1_655
Li2 O7 1.971037 1_555
Li2 O1 2.034463 1_555
Li3 O9 1.944858 1_554
Li3 O11 1.950301 1_555
Li3 O5 1.952337 1_554
Li3 O6 2.053001 1_555
Mn0 O3 2.072678 1_555
Mn0 O6 2.098738 1_556
Mn0 O0 2.108822 1_455
Mn0 O7 2.194636 1_445
Mn0 O9 2.495859 1_555
Fe0 O2 2.025429 1_555
Fe0 O4 2.035408 1_555
Fe0 O1 2.095914 1_555
Fe0 O11 2.172010 1_545
Fe0 O8 2.491596 1_555
Fe1 O8 1.988219 1_555
Fe1 O5 2.057930 1_554
Fe1 O11 2.098895 1_655
Fe1 O4 2.213366 1_665
Fe1 O2 2.417324 1_555
Fe2 O9 1.997680 1_555
Fe2 O10 2.054441 1_555
Fe2 O7 2.109771 1_555
Fe2 O0 2.213350 1_565
Fe2 O3 2.388377 1_555
B0 O1 1.382573 1_555
B0 O3 1.393336 1_555
B0 O0 1.407091 1_555
B1 O5 1.379451 1_555
B1 O9 1.396538 1_655
B1 O7 1.402011 1_555
B2 O6 1.382154 1_555
B2 O2 1.391932 1_455
B2 O4 1.406064 1_555
B3 O10 1.379476 1_555
B3 O8 1.396272 1_555
B3 O11 1.403276 1_555
