# generated using pymatgen
data_LiNiP
_symmetry_space_group_name_H-M   'P 1'
_cell_length_a   3.73738000
_cell_length_b   3.73738000
_cell_length_c   5.80036700
_cell_angle_alpha   90.00000000
_cell_angle_beta   90.00000000
_cell_angle_gamma   90.00000000
_symmetry_Int_Tables_number   1
_chemical_formula_structural   LiNiP
_chemical_formula_sum   'Li2 Ni2 P2'
_cell_volume   81.01957999
_cell_formula_units_Z   2
loop_
 _symmetry_equiv_pos_site_id
 _symmetry_equiv_pos_as_xyz
  1  'x, y, z'
loop_
 _atom_site_type_symbol
 _atom_site_label
 _atom_site_symmetry_multiplicity
 _atom_site_fract_x
 _atom_site_fract_y
 _atom_site_fract_z
 _atom_site_occupancy
  Li  Li0  1  0.00000000  0.50000000  0.33704300  1
  Li  Li1  1  0.50000000  0.00000000  0.66295700  1
  Ni  Ni0  1  0.00000000  0.00000000  0.00000000  1
  Ni  Ni1  1  0.50000000  0.50000000  0.00000000  1
  P  P0  1  0.00000000  0.50000000  0.78044700  1
  P  P1  1  0.50000000  0.00000000  0.21955300  1
loop_
_geom_bond_atom_site_label_1
_geom_bond_atom_site_label_2
_geom_bond_distance
_geom_bond_site_symmetry_2
Li0 P0 2.571906 1_555
Li0 Ni1 2.704426 1_555
Li0 Ni0 2.704426 1_565
Li0 Ni1 2.704426 1_455
Li0 Ni0 2.704426 1_555
Li0 P1 2.729181 1_565
Li0 P1 2.729181 1_555
Li0 P1 2.729181 1_455
Li0 P1 2.729181 1_465
Li1 P1 2.571906 1_555
Li1 Ni0 2.704426 1_556
Li1 Ni0 2.704426 1_656
Li1 Ni1 2.704426 1_556
Li1 Ni1 2.704426 1_546
Li1 P0 2.729181 1_645
Li1 P0 2.729181 1_555
Li1 P0 2.729181 1_545
Li1 P0 2.729181 1_655
Ni0 P0 2.261366 1_544
Ni0 P1 2.261366 1_555
Ni0 P0 2.261366 1_554
Ni0 P1 2.261366 1_455
Ni1 P0 2.261366 1_654
Ni1 P1 2.261366 1_565
Ni1 P1 2.261366 1_555
Ni1 P0 2.261366 1_554
