# generated using pymatgen
data_Li2VSi4O11
_symmetry_space_group_name_H-M   'P 1'
_cell_length_a   8.45068092
_cell_length_b   8.45068092
_cell_length_c   8.45068092
_cell_angle_alpha   102.34342105
_cell_angle_beta   102.34342105
_cell_angle_gamma   124.92184025
_symmetry_Int_Tables_number   1
_chemical_formula_structural   Li2VSi4O11
_chemical_formula_sum   'Li4 V2 Si8 O22'
_cell_volume   438.76144147
_cell_formula_units_Z   2
loop_
 _symmetry_equiv_pos_site_id
 _symmetry_equiv_pos_as_xyz
  1  'x, y, z'
loop_
 _atom_site_type_symbol
 _atom_site_label
 _atom_site_symmetry_multiplicity
 _atom_site_fract_x
 _atom_site_fract_y
 _atom_site_fract_z
 _atom_site_occupancy
  Li  Li0  1  0.64826300  0.61901900  0.26728200  1
  Li  Li1  1  0.38098100  0.64826300  0.02924400  1
  Li  Li2  1  0.61901900  0.35173700  0.97075600  1
  Li  Li3  1  0.35173700  0.38098100  0.73271800  1
  V  V0  1  0.23820700  0.23820700  0.00000000  1
  V  V1  1  0.76179300  0.76179300  0.00000000  1
  Si  Si0  1  0.49859600  0.17140100  0.28254500  1
  Si  Si1  1  0.11114400  0.78394900  0.28254500  1
  Si  Si2  1  0.17140100  0.88885600  0.67280500  1
  Si  Si3  1  0.78394900  0.50140400  0.67280500  1
  Si  Si4  1  0.82859900  0.11114400  0.32719500  1
  Si  Si5  1  0.21605100  0.49859600  0.32719500  1
  Si  Si6  1  0.50140400  0.82859900  0.71745500  1
  Si  Si7  1  0.88885600  0.21605100  0.71745500  1
  O  O0  1  0.00000000  0.00000000  0.00000000  1
  O  O1  1  0.50000000  0.50000000  0.00000000  1
  O  O2  1  0.44611200  0.20437900  0.10291300  1
  O  O3  1  0.89853400  0.65680100  0.10291300  1
  O  O4  1  0.29066900  0.03278800  0.32345800  1
  O  O5  1  0.67220000  0.40551500  0.45343300  1
  O  O6  1  0.04791800  0.78123300  0.45343300  1
  O  O7  1  0.59448500  0.04791800  0.26668500  1
  O  O8  1  0.21876700  0.67220000  0.26668500  1
  O  O9  1  0.20437900  0.10146600  0.75826700  1
  O  O10  1  0.65680100  0.55388800  0.75826700  1
  O  O11  1  0.96721200  0.29066900  0.25788100  1
  O  O12  1  0.03278800  0.70933100  0.74211900  1
  O  O13  1  0.34319900  0.44611200  0.24173300  1
  O  O14  1  0.79562100  0.89853400  0.24173300  1
  O  O15  1  0.78123300  0.32780000  0.73331500  1
  O  O16  1  0.40551500  0.95208200  0.73331500  1
  O  O17  1  0.32780000  0.59448500  0.54656700  1
  O  O18  1  0.95208200  0.21876700  0.54656700  1
  O  O19  1  0.70933100  0.96721200  0.67654200  1
  O  O20  1  0.10146600  0.34319900  0.89708700  1
  O  O21  1  0.55388800  0.79562100  0.89708700  1
loop_
_geom_bond_atom_site_label_1
_geom_bond_atom_site_label_2
_geom_bond_distance
_geom_bond_site_symmetry_2
Li0 O1 2.014745 1_555
Li0 O13 2.035209 1_555
Li0 O14 2.035209 1_555
Li1 O1 2.014745 1_555
Li1 O20 2.035209 1_554
Li1 O21 2.035209 1_554
Li2 O1 2.014745 1_556
Li2 O2 2.035209 1_556
Li2 O3 2.035209 1_556
Li3 O1 2.014745 1_556
Li3 O9 2.035209 1_555
Li3 O10 2.035209 1_555
O0 V0 1.861446 1_555
O0 V1 1.861446 1_445
O1 V1 2.045756 1_555
O1 V0 2.045756 1_555
O2 Si0 1.616564 1_555
O2 V0 1.988207 1_555
O3 Si1 1.616564 1_655
O3 V1 1.988207 1_555
O4 Si1 1.629565 1_545
O4 Si0 1.629572 1_555
O5 Si0 1.643627 1_555
O5 Si3 1.648722 1_555
O6 Si1 1.643627 1_555
O6 Si2 1.648722 1_555
O7 Si4 1.643627 1_555
O7 Si0 1.648722 1_555
O8 Si5 1.643627 1_555
O8 Si1 1.648722 1_555
O9 Si2 1.616564 1_545
O9 V0 1.988207 1_556
O10 Si3 1.616564 1_555
O10 V1 1.988207 1_556
O11 Si5 1.629567 1_655
O11 Si4 1.629567 1_555
O12 Si3 1.629567 1_455
O12 Si2 1.629567 1_555
O13 Si5 1.616564 1_555
O13 V0 1.988207 1_555
O14 Si4 1.616564 1_565
O14 V1 1.988207 1_555
O15 Si3 1.643627 1_555
O15 Si7 1.648722 1_555
O16 Si2 1.643627 1_555
O16 Si6 1.648722 1_555
O17 Si6 1.643627 1_555
O17 Si5 1.648722 1_555
O18 Si7 1.643627 1_555
O18 Si4 1.648722 1_555
O19 Si7 1.629565 1_565
O19 Si6 1.629572 1_555
O20 Si7 1.616564 1_455
O20 V0 1.988207 1_556
O21 Si6 1.616564 1_555
O21 V1 1.988207 1_556
