# generated using pymatgen
data_Ba10LiW7O30
_symmetry_space_group_name_H-M   'P 1'
_cell_length_a   5.89751893
_cell_length_b   5.89812100
_cell_length_c   24.94210627
_cell_angle_alpha   89.96826972
_cell_angle_beta   89.96591045
_cell_angle_gamma   60.16787561
_symmetry_Int_Tables_number   1
_chemical_formula_structural   Ba10LiW7O30
_chemical_formula_sum   'Ba10 Li1 W7 O30'
_cell_volume   752.62538685
_cell_formula_units_Z   1
loop_
 _symmetry_equiv_pos_site_id
 _symmetry_equiv_pos_as_xyz
  1  'x, y, z'
loop_
 _atom_site_type_symbol
 _atom_site_label
 _atom_site_symmetry_multiplicity
 _atom_site_fract_x
 _atom_site_fract_y
 _atom_site_fract_z
 _atom_site_occupancy
  Ba  Ba0  1  0.33429800  0.33433500  0.46069600  1
  Ba  Ba1  1  0.33201900  0.33157600  0.03104100  1
  Ba  Ba2  1  0.33327100  0.33337900  0.75950500  1
  Ba  Ba3  1  0.99972700  0.99947400  0.14802100  1
  Ba  Ba4  1  0.00153000  0.00166800  0.35172000  1
  Ba  Ba5  1  0.00006600  0.00013500  0.64945800  1
  Ba  Ba6  1  0.99985600  0.99988100  0.85890400  1
  Ba  Ba7  1  0.66698400  0.66703400  0.25103800  1
  Ba  Ba8  1  0.66716000  0.66725900  0.55097700  1
  Ba  Ba9  1  0.66624100  0.66615700  0.94244200  1
  Li  Li0  1  0.66690400  0.66701500  0.81881400  1
  W  W0  1  0.33419000  0.33425200  0.19628200  1
  W  W1  1  0.33319700  0.33321500  0.89724600  1
  W  W2  1  0.66603900  0.66560800  0.10034500  1
  W  W3  1  0.66816600  0.66836700  0.40032900  1
  W  W4  1  0.66652600  0.66655800  0.70089700  1
  W  W5  1  0.33349600  0.33358200  0.30511400  1
  W  W6  1  0.33350800  0.33358300  0.59992900  1
  O  O0  1  0.99722800  0.50141000  0.64772200  1
  O  O1  1  0.01810700  0.49078800  0.85057100  1
  O  O2  1  0.51056000  0.98329800  0.34719900  1
  O  O3  1  0.50208000  0.99464200  0.15631700  1
  O  O4  1  0.35584200  0.82149600  0.73841000  1
  O  O5  1  0.17702000  0.64384400  0.24775900  1
  O  O6  1  0.35560300  0.82204000  0.06447800  1
  O  O7  1  0.35497600  0.82063500  0.43754600  1
  O  O8  1  0.18203700  0.63768900  0.55819900  1
  O  O9  1  0.18064100  0.63820200  0.94298700  1
  O  O10  1  0.50328300  0.50349800  0.34708800  1
  O  O11  1  0.18013600  0.18012200  0.94295100  1
  O  O12  1  0.82286000  0.82271200  0.06527700  1
  O  O13  1  0.82228600  0.82210700  0.43892500  1
  O  O14  1  0.18126600  0.18136400  0.55817800  1
  O  O15  1  0.50491100  0.50485400  0.15591000  1
  O  O16  1  0.50127700  0.50127500  0.64780900  1
  O  O17  1  0.49111600  0.49112100  0.85060000  1
  O  O18  1  0.82213500  0.82211100  0.73843600  1
  O  O19  1  0.17955500  0.17945200  0.24977600  1
  O  O20  1  0.82226500  0.35541800  0.06442600  1
  O  O21  1  0.82069200  0.35496600  0.43750000  1
  O  O22  1  0.63765800  0.18207800  0.55820300  1
  O  O23  1  0.63825700  0.18059200  0.94298200  1
  O  O24  1  0.82151600  0.35585700  0.73839700  1
  O  O25  1  0.64375500  0.17702200  0.24786100  1
  O  O26  1  0.50143900  0.99714200  0.64771300  1
  O  O27  1  0.49072200  0.01817000  0.85056600  1
  O  O28  1  0.99426000  0.50229000  0.15630400  1
  O  O29  1  0.98359500  0.51047500  0.34715900  1
loop_
_geom_bond_atom_site_label_1
_geom_bond_atom_site_label_2
_geom_bond_distance
_geom_bond_site_symmetry_2
Ba0 O8 2.885421 1_555
Ba0 O22 2.885530 1_555
Ba0 O14 2.888841 1_555
Ba0 O7 2.986847 1_555
Ba0 O21 2.987165 1_555
Ba0 O13 3.007784 1_455
Ba0 O13 3.009024 1_545
Ba0 O21 3.026497 1_455
Ba0 O7 3.026978 1_545
Ba0 O10 3.316762 1_555
Ba0 O29 3.352963 1_455
Ba0 O2 3.353025 1_545
Ba1 O11 2.688566 1_554
Ba1 O23 2.697441 1_554
Ba1 O9 2.698674 1_554
Ba1 O20 3.054086 1_455
Ba1 O6 3.054215 1_545
Ba1 O12 3.077805 1_545
Ba1 O20 3.078944 1_555
Ba1 O12 3.079392 1_455
Ba1 O6 3.079998 1_555
Ba2 O1 2.785008 1_555
Ba2 O27 2.785228 1_555
Ba2 O17 2.785886 1_555
Ba2 O4 2.993754 1_555
Ba2 O24 2.993965 1_555
Ba2 O24 3.001217 1_455
Ba2 O4 3.001939 1_545
Ba2 O18 3.004544 1_455
Ba2 O18 3.005296 1_545
Ba2 O16 3.270113 1_555
Ba2 O0 3.276083 1_455
Ba2 O26 3.276783 1_545
Ba3 O12 2.742472 1_555
Ba3 O6 2.766589 1_655
Ba3 O20 2.768014 1_565
Ba3 O28 2.955737 1_555
Ba3 O3 2.955936 1_655
Ba3 O3 2.956290 1_555
Ba3 O28 2.957103 1_565
Ba3 O15 2.962847 1_655
Ba3 O15 2.964000 1_565
Ba3 O5 3.081684 1_655
Ba3 O25 3.084557 1_565
Ba3 O19 3.133564 1_665
Ba4 O21 2.801494 1_455
Ba4 O7 2.802849 1_545
Ba4 O13 2.842289 1_445
Ba4 O2 2.951702 1_545
Ba4 O29 2.951946 1_455
Ba4 O2 2.953123 1_445
Ba4 O29 2.953416 1_445
Ba4 O10 2.958468 1_545
Ba4 O10 2.958936 1_455
Ba4 O19 3.123517 1_555
Ba4 O25 3.172471 1_455
Ba4 O5 3.174694 1_545
Ba5 O18 2.867023 1_445
Ba5 O24 2.869856 1_455
Ba5 O4 2.870266 1_545
Ba5 O14 2.932380 1_555
Ba5 O22 2.936224 1_455
Ba5 O8 2.936441 1_545
Ba5 O26 2.948410 1_545
Ba5 O0 2.948584 1_455
Ba5 O26 2.949831 1_445
Ba5 O0 2.950244 1_445
Ba5 O16 2.956493 1_455
Ba5 O16 2.956907 1_545
Ba6 O11 2.790111 1_665
Ba6 O23 2.795933 1_565
Ba6 O9 2.796521 1_655
Ba6 O27 2.957234 1_665
Ba6 O1 2.957646 1_665
Ba6 O27 2.957892 1_565
Ba6 O1 2.958049 1_655
Ba6 O17 2.964924 1_565
Ba6 O17 2.965046 1_655
Ba7 O15 2.893640 1_555
Ba7 O2 2.893692 1_555
Ba7 O29 2.893861 1_555
Ba7 O28 2.895485 1_555
Ba7 O3 2.896398 1_555
Ba7 O10 2.919404 1_555
Ba7 O25 2.943247 1_565
Ba7 O5 2.943388 1_655
Ba7 O19 2.958870 1_565
Ba7 O19 2.959741 1_655
Ba7 O5 2.961172 1_555
Ba7 O25 2.961790 1_555
Ba8 O26 2.944988 1_555
Ba8 O0 2.945716 1_555
Ba8 O16 2.948917 1_555
Ba8 O8 2.957045 1_555
Ba8 O22 2.957463 1_555
Ba8 O8 2.959205 1_655
Ba8 O22 2.959361 1_565
Ba8 O14 2.965337 1_655
Ba8 O14 2.965350 1_565
Ba8 O13 3.210533 1_555
Ba8 O7 3.249425 1_555
Ba8 O21 3.250678 1_555
Ba9 O17 2.906239 1_555
Ba9 O1 2.913468 1_655
Ba9 O27 2.914245 1_565
Ba9 O9 2.949351 1_555
Ba9 O23 2.949520 1_555
Ba9 O9 2.955164 1_655
Ba9 O23 2.955608 1_565
Ba9 O11 2.959611 1_655
Ba9 O11 2.960057 1_565
Li0 O17 1.961579 1_555
Li0 O27 1.963732 1_565
Li0 O1 1.963893 1_655
O0 W6 2.092686 1_655
O0 W4 2.149391 1_555
O1 W1 1.988785 1_555
O2 W5 2.076813 1_565
O2 W3 2.085984 1_555
O3 W0 2.003513 1_565
O3 W2 2.187374 1_555
O4 W4 1.844115 1_555
O5 W0 2.039417 1_555
O5 W5 2.136672 1_555
O6 W2 1.823143 1_555
O7 W3 1.851572 1_555
O8 W6 1.871743 1_555
O9 W1 1.933331 1_555
O10 W5 2.025805 1_555
O10 W3 2.144372 1_555
O11 W1 1.933469 1_555
O12 W2 1.824774 1_555
O13 W3 1.843131 1_555
O14 W6 1.871033 1_555
O15 W0 2.011420 1_555
O15 W2 2.148509 1_555
O16 W6 2.087998 1_555
O16 W4 2.145140 1_555
O17 W1 1.987184 1_555
O18 W4 1.843981 1_555
O19 W0 2.066677 1_555
O19 W5 2.092783 1_555
O20 W2 1.822766 1_555
O21 W3 1.852123 1_555
O22 W6 1.871681 1_555
O23 W1 1.933497 1_555
O24 W4 1.844223 1_555
O25 W0 2.040865 1_555
O25 W5 2.134767 1_555
O26 W6 2.093449 1_565
O26 W4 2.149264 1_555
O27 W1 1.988736 1_555
O28 W0 2.005001 1_655
O28 W2 2.183910 1_555
O29 W5 2.074399 1_655
O29 W3 2.088386 1_555
