# generated using pymatgen
data_Li3Ti4MnO12
_symmetry_space_group_name_H-M   'P 1'
_cell_length_a   5.03317100
_cell_length_b   5.45675251
_cell_length_c   7.45382740
_cell_angle_alpha   95.95611940
_cell_angle_beta   90.05357672
_cell_angle_gamma   90.12751183
_symmetry_Int_Tables_number   1
_chemical_formula_structural   Li3Ti4MnO12
_chemical_formula_sum   'Li3 Ti4 Mn1 O12'
_cell_volume   203.61186411
_cell_formula_units_Z   1
loop_
 _symmetry_equiv_pos_site_id
 _symmetry_equiv_pos_as_xyz
  1  'x, y, z'
loop_
 _atom_site_type_symbol
 _atom_site_label
 _atom_site_symmetry_multiplicity
 _atom_site_fract_x
 _atom_site_fract_y
 _atom_site_fract_z
 _atom_site_occupancy
  Li  Li0  1  0.49972000  0.06367100  0.20905500  1
  Li  Li1  1  0.99739100  0.57806600  0.22074300  1
  Li  Li2  1  0.49832500  0.05644600  0.71921200  1
  Ti  Ti0  1  0.00668900  0.00815600  0.01329900  1
  Ti  Ti1  1  0.49175300  0.48056900  0.49007100  1
  Ti  Ti2  1  0.98692800  0.01229000  0.49188700  1
  Ti  Ti3  1  0.52021700  0.49264300  0.00983600  1
  Mn  Mn0  1  0.00061000  0.60957500  0.70055000  1
  O  O0  1  0.29149000  0.76876900  0.59117200  1
  O  O1  1  0.12182400  0.96021900  0.26330700  1
  O  O2  1  0.32113000  0.15239600  0.95586200  1
  O  O3  1  0.17427500  0.30482300  0.59545400  1
  O  O4  1  0.80837300  0.28174300  0.08055100  1
  O  O5  1  0.37546100  0.46891400  0.26035500  1
  O  O6  1  0.66749500  0.46751500  0.76402400  1
  O  O7  1  0.17790500  0.63933900  0.92917100  1
  O  O8  1  0.82462800  0.65187700  0.47128400  1
  O  O9  1  0.69465500  0.77481200  0.08204700  1
  O  O10  1  0.87772900  0.93669400  0.76289800  1
  O  O11  1  0.66340200  0.15068300  0.45961900  1
loop_
_geom_bond_atom_site_label_1
_geom_bond_atom_site_label_2
_geom_bond_distance
_geom_bond_site_symmetry_2
Li0 O9 2.010551 1_545
Li0 O1 2.035657 1_545
Li0 O11 2.050281 1_555
Li0 O2 2.189179 1_554
Li0 O4 2.231135 1_555
Li0 O5 2.293115 1_555
Li1 O5 2.025691 1_655
Li1 O4 2.062095 1_555
Li1 O8 2.062606 1_555
Li1 O1 2.167475 1_655
Li1 O9 2.185815 1_555
Li1 O7 2.411175 1_654
Li2 O2 1.998599 1_555
Li2 O0 2.034398 1_545
Li2 O10 2.056255 1_545
Li2 O11 2.215048 1_555
Li2 O3 2.369500 1_555
Li2 O6 2.388208 1_555
Mn0 O10 1.902114 1_455
Mn0 O7 1.914605 1_555
Mn0 O0 1.925172 1_555
Mn0 O6 1.925524 1_455
Mn0 O8 1.959119 1_455
Mn0 O3 1.969901 1_555
O0 Ti1 1.954376 1_555
O0 Ti2 2.207789 1_465
O1 Ti2 1.829532 1_465
O1 Ti0 1.994179 1_565
O2 Ti0 1.836622 1_556
O2 Ti3 2.109268 1_556
O3 Ti2 1.941495 1_455
O3 Ti1 2.059592 1_555
O4 Ti0 1.824446 1_655
O4 Ti3 1.958982 1_555
O5 Ti1 1.803842 1_555
O5 Ti3 2.021585 1_555
O6 Ti3 1.968819 1_556
O6 Ti1 2.232562 1_555
O7 Ti3 2.018617 1_556
O7 Ti0 2.221036 1_566
O8 Ti1 1.929013 1_555
O8 Ti2 2.118647 1_565
O9 Ti3 1.803446 1_555
O9 Ti0 2.116231 1_665
O10 Ti0 1.975486 1_666
O10 Ti2 2.174150 1_565
O11 Ti2 1.822674 1_555
O11 Ti1 1.990172 1_555
