# generated using pymatgen
data_LiNi4O4F
_symmetry_space_group_name_H-M   'P 1'
_cell_length_a   10.78981425
_cell_length_b   10.78981425
_cell_length_c   10.78981425
_cell_angle_alpha   164.20672403
_cell_angle_beta   164.20672403
_cell_angle_gamma   22.40693818
_symmetry_Int_Tables_number   1
_chemical_formula_structural   LiNi4O4F
_chemical_formula_sum   'Li1 Ni4 O4 F1'
_cell_volume   93.03224134
_cell_formula_units_Z   1
loop_
 _symmetry_equiv_pos_site_id
 _symmetry_equiv_pos_as_xyz
  1  'x, y, z'
loop_
 _atom_site_type_symbol
 _atom_site_label
 _atom_site_symmetry_multiplicity
 _atom_site_fract_x
 _atom_site_fract_y
 _atom_site_fract_z
 _atom_site_occupancy
  Li  Li0  1  0.00000000  0.00000000  0.00000000  1
  Ni  Ni0  1  0.60182600  0.60182600  0.00000000  1
  Ni  Ni1  1  0.19962800  0.19962800  0.00000000  1
  Ni  Ni2  1  0.80037200  0.80037200  0.00000000  1
  Ni  Ni3  1  0.39817400  0.39817400  0.00000000  1
  O  O0  1  0.09985200  0.09985200  0.00000000  1
  O  O1  1  0.70021800  0.70021800  0.00000000  1
  O  O2  1  0.29978200  0.29978200  0.00000000  1
  O  O3  1  0.90014800  0.90014800  0.00000000  1
  F  F0  1  0.50000000  0.50000000  0.00000000  1
loop_
_geom_bond_atom_site_label_1
_geom_bond_atom_site_label_2
_geom_bond_distance
_geom_bond_site_symmetry_2
Li0 O0 2.113706 1_555
Li0 O3 2.113706 1_445
Ni0 O1 2.082801 1_555
Ni0 O0 2.096810 1_666
Ni0 O0 2.096810 1_554
Ni0 O0 2.096810 1_655
Ni0 O0 2.096810 1_565
Ni1 O1 2.096431 1_455
Ni1 O1 2.096431 1_556
Ni1 O1 2.096431 1_444
Ni1 O1 2.096431 1_545
Ni1 O0 2.112098 1_555
Ni1 O2 2.120099 1_555
Ni2 O2 2.096431 1_655
Ni2 O2 2.096431 1_666
Ni2 O2 2.096431 1_554
Ni2 O2 2.096431 1_565
Ni2 O3 2.112098 1_555
Ni2 O1 2.120099 1_555
Ni3 O2 2.082801 1_555
Ni3 O3 2.096810 1_455
Ni3 O3 2.096810 1_556
Ni3 O3 2.096810 1_444
Ni3 O3 2.096810 1_545
F0 Li0 2.096393 1_565
F0 Li0 2.096393 1_554
F0 Li0 2.096393 1_666
F0 Li0 2.096393 1_655
F0 Ni0 2.155493 1_555
F0 Ni3 2.155493 1_555
