# generated using pymatgen
data_BaBePO4F
_symmetry_space_group_name_H-M   'P 1'
_cell_length_a   4.87790845
_cell_length_b   4.87790845
_cell_length_c   9.05917617
_cell_angle_alpha   74.61460691
_cell_angle_beta   74.61460691
_cell_angle_gamma   90.01785677
_symmetry_Int_Tables_number   1
_chemical_formula_structural   BaBePO4F
_chemical_formula_sum   'Ba2 Be2 P2 O8 F2'
_cell_volume   199.80083082
_cell_formula_units_Z   2
loop_
 _symmetry_equiv_pos_site_id
 _symmetry_equiv_pos_as_xyz
  1  'x, y, z'
loop_
 _atom_site_type_symbol
 _atom_site_label
 _atom_site_symmetry_multiplicity
 _atom_site_fract_x
 _atom_site_fract_y
 _atom_site_fract_z
 _atom_site_occupancy
  Ba  Ba0  1  0.00384596  0.75261841  0.99947619  1
  Ba  Ba1  1  0.75261841  0.00384596  0.49947619  1
  Be  Be0  1  0.16652671  0.40153684  0.66388176  1
  Be  Be1  1  0.40153684  0.16652671  0.16388176  1
  P  P0  1  0.58310509  0.31150152  0.83441470  1
  P  P1  1  0.31150152  0.58310509  0.33441470  1
  O  O0  1  0.83920864  0.48557605  0.70254469  1
  O  O1  1  0.60277932  0.35339890  0.99439857  1
  O  O2  1  -0.00159894  0.58340721  0.34026952  1
  O  O3  1  0.30654293  0.43438915  0.80179308  1
  O  O4  1  0.35339890  0.60277932  0.49439857  1
  O  O5  1  0.58340721  -0.00159894  0.84026952  1
  O  O6  1  0.43438915  0.30654293  0.30179308  1
  O  O7  1  0.48557605  0.83920864  0.20254469  1
  F  F0  1  0.17410014  0.08576909  0.65279149  1
  F  F1  1  0.08576909  0.17410014  0.15279149  1
loop_
_geom_bond_atom_site_label_1
_geom_bond_atom_site_label_2
_geom_bond_distance
_geom_bond_site_symmetry_2
Ba0 O1 2.777515 1_455
Ba0 O3 2.805406 1_555
Ba0 O7 2.810517 1_456
Ba0 F1 2.850419 1_566
Ba0 F1 2.875359 1_556
Ba0 O5 2.894326 1_465
Ba0 O5 2.902852 1_565
Ba0 O2 2.969473 1_556
Ba0 F0 3.016850 1_565
Ba1 O4 2.777515 1_545
Ba1 O6 2.805406 1_555
Ba1 O0 2.810517 1_545
Ba1 F0 2.850419 1_655
Ba1 F0 2.875359 1_555
Ba1 O2 2.894326 1_645
Ba1 O2 2.902852 1_655
Ba1 O5 2.969473 1_555
Ba1 F1 3.016850 1_655
Be0 F0 1.569752 1_555
Be0 O4 1.615233 1_555
Be0 O3 1.616169 1_555
Be0 O0 1.618581 1_455
Be1 F1 1.569752 1_555
Be1 O1 1.615233 1_554
Be1 O6 1.616169 1_555
Be1 O7 1.618581 1_545
O0 P0 1.542066 1_555
O1 P0 1.543527 1_555
O2 P1 1.514082 1_555
O3 P0 1.544225 1_555
O4 P1 1.543527 1_555
O5 P0 1.514082 1_555
O6 P1 1.544225 1_555
O7 P1 1.542066 1_555
