# generated using pymatgen
data_TiMn3Ni2(PO4)6
_symmetry_space_group_name_H-M   'P 1'
_cell_length_a   8.40940477
_cell_length_b   8.40940470
_cell_length_c   8.40940559
_cell_angle_alpha   61.26049799
_cell_angle_beta   61.26049048
_cell_angle_gamma   61.26048795
_symmetry_Int_Tables_number   1
_chemical_formula_structural   TiMn3Ni2(PO4)6
_chemical_formula_sum   'Ti1 Mn3 Ni2 P6 O24'
_cell_volume   432.43253950
_cell_formula_units_Z   1
loop_
 _symmetry_equiv_pos_site_id
 _symmetry_equiv_pos_as_xyz
  1  'x, y, z'
loop_
 _atom_site_type_symbol
 _atom_site_label
 _atom_site_symmetry_multiplicity
 _atom_site_fract_x
 _atom_site_fract_y
 _atom_site_fract_z
 _atom_site_occupancy
  Ti  Ti0  1  0.85676700  0.85676700  0.85676700  1
  Mn  Mn0  1  0.14322600  0.14322600  0.14322600  1
  Mn  Mn1  1  0.35843400  0.35843400  0.35843400  1
  Mn  Mn2  1  0.64247900  0.64247900  0.64247900  1
  Ni  Ni0  1  0.00051900  0.00051900  0.00051900  1
  Ni  Ni1  1  0.50130000  0.50130000  0.50130000  1
  P  P0  1  0.74957800  0.45258900  0.04437800  1
  P  P1  1  0.04437800  0.74957800  0.45258900  1
  P  P2  1  0.45258900  0.04437800  0.74957800  1
  P  P3  1  0.25168100  0.54375400  0.95663900  1
  P  P4  1  0.54375400  0.95663900  0.25168100  1
  P  P5  1  0.95663900  0.25168100  0.54375400  1
  O  O0  1  0.11557200  0.31607200  0.50873700  1
  O  O1  1  0.31607200  0.50873700  0.11557200  1
  O  O2  1  0.06155700  0.91133100  0.25356200  1
  O  O3  1  0.50873700  0.11557200  0.31607200  1
  O  O4  1  0.99363200  0.82089600  0.61458700  1
  O  O5  1  0.24439900  0.58968900  0.44640300  1
  O  O6  1  0.25356200  0.06155700  0.91133100  1
  O  O7  1  0.44640300  0.24439900  0.58968900  1
  O  O8  1  0.18535000  0.38566000  0.99251200  1
  O  O9  1  0.58968900  0.44640300  0.24439900  1
  O  O10  1  0.08990100  0.74475700  0.93814200  1
  O  O11  1  0.38566000  0.99251200  0.18535000  1
  O  O12  1  0.61458700  0.99363200  0.82089600  1
  O  O13  1  0.91133100  0.25356200  0.06155700  1
  O  O14  1  0.41130500  0.56056500  0.75492300  1
  O  O15  1  0.82089600  0.61458700  0.99363200  1
  O  O16  1  0.56056500  0.75492300  0.41130500  1
  O  O17  1  0.74475700  0.93814200  0.08990100  1
  O  O18  1  0.75492300  0.41130500  0.56056500  1
  O  O19  1  0.99251200  0.18535000  0.38566000  1
  O  O20  1  0.48884100  0.88694800  0.68331100  1
  O  O21  1  0.93814200  0.08990100  0.74475700  1
  O  O22  1  0.68331100  0.48884100  0.88694800  1
  O  O23  1  0.88694800  0.68331100  0.48884100  1
loop_
_geom_bond_atom_site_label_1
_geom_bond_atom_site_label_2
_geom_bond_distance
_geom_bond_site_symmetry_2
Mn0 O11 1.914717 1_545
Mn0 O19 1.914718 1_455
Mn0 O8 1.914718 1_554
Mn0 O13 2.017570 1_455
Mn0 O6 2.017570 1_554
Mn0 O2 2.017570 1_545
Mn1 O3 1.918282 1_555
Mn1 O0 1.918282 1_555
Mn1 O1 1.918283 1_555
Mn1 O5 2.038786 1_555
Mn1 O9 2.038786 1_555
Mn1 O7 2.038787 1_555
Mn2 O20 1.926543 1_555
Mn2 O23 1.926544 1_555
Mn2 O22 1.926544 1_555
Mn2 O18 2.010363 1_555
Mn2 O14 2.010363 1_555
Mn2 O16 2.010363 1_555
Ni0 O13 2.121200 1_455
Ni0 O6 2.121200 1_554
Ni0 O2 2.121201 1_545
Ni0 O10 2.148773 1_544
Ni0 O17 2.148773 1_445
Ni0 O21 2.148774 1_454
Ni1 O18 2.115964 1_555
Ni1 O16 2.115965 1_555
Ni1 O14 2.115965 1_555
Ni1 O5 2.125500 1_555
Ni1 O7 2.125500 1_555
Ni1 O9 2.125501 1_555
O0 P5 1.526562 1_455
O1 P3 1.526562 1_554
O2 P1 1.561894 1_555
O3 P4 1.526562 1_545
O4 P1 1.542141 1_655
O4 Ti0 1.888427 1_555
O5 P1 1.564636 1_555
O6 P2 1.561894 1_555
O7 P2 1.564636 1_555
O8 P3 1.528170 1_555
O9 P0 1.564636 1_555
O10 P3 1.572087 1_555
O10 Ti0 2.023263 1_455
O11 P4 1.528170 1_555
O12 P2 1.542141 1_565
O12 Ti0 1.888427 1_555
O13 P0 1.561894 1_555
O14 P3 1.568916 1_555
O15 P0 1.542141 1_556
O15 Ti0 1.888427 1_555
O16 P4 1.568917 1_555
O17 P4 1.572087 1_555
O17 Ti0 2.023263 1_554
O18 P5 1.568916 1_555
O19 P5 1.528170 1_555
O20 P2 1.521233 1_565
O21 P5 1.572087 1_555
O21 Ti0 2.023263 1_545
O22 P0 1.521234 1_556
O23 P1 1.521233 1_655
