# generated using pymatgen
data_Ca2HfO4
_symmetry_space_group_name_H-M   'P 1'
_cell_length_a   5.71732837
_cell_length_b   9.83440401
_cell_length_c   3.25971115
_cell_angle_alpha   90.00000000
_cell_angle_beta   90.00000000
_cell_angle_gamma   90.00000000
_symmetry_Int_Tables_number   1
_chemical_formula_structural   Ca2HfO4
_chemical_formula_sum   'Ca4 Hf2 O8'
_cell_volume   183.28220455
_cell_formula_units_Z   2
loop_
 _symmetry_equiv_pos_site_id
 _symmetry_equiv_pos_as_xyz
  1  'x, y, z'
loop_
 _atom_site_type_symbol
 _atom_site_label
 _atom_site_symmetry_multiplicity
 _atom_site_fract_x
 _atom_site_fract_y
 _atom_site_fract_z
 _atom_site_occupancy
  Ca  Ca0  1  0.06639163  0.31933357  0.50000000  1
  Ca  Ca1  1  0.43360837  0.81933357  0.50000000  1
  Ca  Ca2  1  0.56639163  0.18066643  0.50000000  1
  Ca  Ca3  1  0.93360837  0.68066643  0.50000000  1
  Hf  Hf0  1  -0.00000000  0.00000000  0.00000000  1
  Hf  Hf1  1  0.50000000  0.50000000  0.00000000  1
  O  O0  1  0.13798019  0.80738734  -0.00000000  1
  O  O1  1  0.22554492  0.04492380  0.50000000  1
  O  O2  1  0.27445508  0.54492380  0.50000000  1
  O  O3  1  0.36201981  0.30738734  0.00000000  1
  O  O4  1  0.63798019  0.69261266  -0.00000000  1
  O  O5  1  0.72554492  0.45507620  0.50000000  1
  O  O6  1  0.77445508  0.95507620  0.50000000  1
  O  O7  1  0.86201981  0.19261266  -0.00000000  1
loop_
_geom_bond_atom_site_label_1
_geom_bond_atom_site_label_2
_geom_bond_distance
_geom_bond_site_symmetry_2
Ca0 O3 2.350961 1_555
Ca0 O3 2.350961 1_556
Ca0 O7 2.361103 1_456
Ca0 O7 2.361103 1_455
Ca0 O5 2.362127 1_455
Ca0 O2 2.517343 1_555
Ca0 O1 2.847933 1_555
Ca1 O0 2.350961 1_556
Ca1 O0 2.350961 1_555
Ca1 O4 2.361103 1_556
Ca1 O4 2.361103 1_555
Ca1 O6 2.362127 1_555
Ca1 O1 2.517343 1_565
Ca1 O2 2.847933 1_555
Ca2 O7 2.350961 1_556
Ca2 O7 2.350961 1_555
Ca2 O3 2.361103 1_555
Ca2 O3 2.361103 1_556
Ca2 O1 2.362127 1_555
Ca2 O6 2.517343 1_545
Ca2 O5 2.847933 1_555
Ca3 O4 2.350961 1_556
Ca3 O4 2.350961 1_555
Ca3 O0 2.361103 1_655
Ca3 O0 2.361103 1_656
Ca3 O2 2.362127 1_655
Ca3 O5 2.517343 1_555
Ca3 O6 2.847933 1_555
Hf0 O7 2.051935 1_455
Hf0 O0 2.051935 1_545
Hf0 O1 2.124726 1_555
Hf0 O1 2.124726 1_554
Hf0 O6 2.124726 1_444
Hf0 O6 2.124726 1_445
Hf1 O3 2.051935 1_555
Hf1 O4 2.051935 1_555
Hf1 O2 2.124726 1_554
Hf1 O5 2.124726 1_555
Hf1 O2 2.124726 1_555
Hf1 O5 2.124726 1_554
