# generated using pymatgen
data_KAl2P2H4O11
_symmetry_space_group_name_H-M   'P 1'
_cell_length_a   9.10413300
_cell_length_b   9.96034600
_cell_length_c   10.08076400
_cell_angle_alpha   90.00000000
_cell_angle_beta   90.00000000
_cell_angle_gamma   90.00000000
_symmetry_Int_Tables_number   1
_chemical_formula_structural   KAl2P2H4O11
_chemical_formula_sum   'K4 Al8 P8 H16 O44'
_cell_volume   914.12685204
_cell_formula_units_Z   4
loop_
 _symmetry_equiv_pos_site_id
 _symmetry_equiv_pos_as_xyz
  1  'x, y, z'
loop_
 _atom_site_type_symbol
 _atom_site_label
 _atom_site_symmetry_multiplicity
 _atom_site_fract_x
 _atom_site_fract_y
 _atom_site_fract_z
 _atom_site_occupancy
  K  K0  1  0.24104400  0.98058700  0.35683200  1
  K  K1  1  0.25895600  0.01941300  0.85683200  1
  K  K2  1  0.74104400  0.51941300  0.64316800  1
  K  K3  1  0.75895600  0.48058700  0.14316800  1
  Al  Al0  1  0.08630300  0.72957500  0.65027700  1
  Al  Al1  1  0.13774800  0.50171700  0.18131100  1
  Al  Al2  1  0.36225200  0.49828300  0.68131100  1
  Al  Al3  1  0.41369700  0.27042500  0.15027700  1
  Al  Al4  1  0.58630300  0.77042500  0.34972300  1
  Al  Al5  1  0.63774800  0.99828300  0.81868900  1
  Al  Al6  1  0.86225200  0.00171700  0.31868900  1
  Al  Al7  1  0.91369700  0.22957500  0.84972300  1
  P  P0  1  0.07207400  0.52450300  0.86573700  1
  P  P1  1  0.07516300  0.20077400  0.13807500  1
  P  P2  1  0.42483700  0.79922600  0.63807500  1
  P  P3  1  0.42792600  0.47549700  0.36573700  1
  P  P4  1  0.57207400  0.97549700  0.13426300  1
  P  P5  1  0.57516300  0.29922600  0.86192500  1
  P  P6  1  0.92483700  0.70077400  0.36192500  1
  P  P7  1  0.92792600  0.02450300  0.63426300  1
  H  H0  1  0.01738200  0.41113900  0.49631000  1
  H  H1  1  0.09094500  0.79403100  0.03943000  1
  H  H2  1  0.16565100  0.29640100  0.67880100  1
  H  H3  1  0.17464600  0.74370000  0.23158800  1
  H  H4  1  0.32535400  0.25630000  0.73158800  1
  H  H5  1  0.33434900  0.70359900  0.17880100  1
  H  H6  1  0.40905500  0.20596900  0.53943000  1
  H  H7  1  0.48261800  0.58886100  0.99631000  1
  H  H8  1  0.51738200  0.08886100  0.50369000  1
  H  H9  1  0.59094500  0.70596900  0.96057000  1
  H  H10  1  0.66565100  0.20359900  0.32119900  1
  H  H11  1  0.67464600  0.75630000  0.76841200  1
  H  H12  1  0.82535400  0.24370000  0.26841200  1
  H  H13  1  0.83434900  0.79640100  0.82119900  1
  H  H14  1  0.90905500  0.29403100  0.46057000  1
  H  H15  1  0.98261800  0.91113900  0.00369000  1
  O  O0  1  0.00820800  0.39245700  0.81110700  1
  O  O1  1  0.00298900  0.08908900  0.21985000  1
  O  O2  1  0.99740900  0.64706900  0.79370900  1
  O  O3  1  0.02659800  0.19565400  0.99202800  1
  O  O4  1  0.04657800  0.53838900  0.01628000  1
  O  O5  1  0.03199800  0.33811700  0.19958500  1
  O  O6  1  0.08262700  0.87947400  0.99249700  1
  O  O7  1  0.19016400  0.56863400  0.61880700  1
  O  O8  1  0.22793100  0.68915700  0.16673700  1
  O  O9  1  0.24304900  0.17363200  0.14185900  1
  O  O10  1  0.24117000  0.53257900  0.83722900  1
  O  O11  1  0.25883000  0.46742100  0.33722900  1
  O  O12  1  0.25695100  0.82636800  0.64185900  1
  O  O13  1  0.27206900  0.31084300  0.66673700  1
  O  O14  1  0.30983600  0.43136600  0.11880700  1
  O  O15  1  0.41737300  0.12052600  0.49249700  1
  O  O16  1  0.46800200  0.66188300  0.69958500  1
  O  O17  1  0.45342200  0.46161100  0.51628000  1
  O  O18  1  0.47340200  0.80434600  0.49202800  1
  O  O19  1  0.50259100  0.35293100  0.29370900  1
  O  O20  1  0.49701100  0.91091100  0.71985000  1
  O  O21  1  0.49179200  0.60754300  0.31110700  1
  O  O22  1  0.50820800  0.10754300  0.18889300  1
  O  O23  1  0.50298900  0.41091100  0.78015000  1
  O  O24  1  0.49740900  0.85293100  0.20629100  1
  O  O25  1  0.52659800  0.30434600  0.00797200  1
  O  O26  1  0.54657800  0.96161100  0.98372000  1
  O  O27  1  0.53199800  0.16188300  0.80041500  1
  O  O28  1  0.58262700  0.62052600  0.00750300  1
  O  O29  1  0.69016400  0.93136600  0.38119300  1
  O  O30  1  0.72793100  0.81084300  0.83326300  1
  O  O31  1  0.74304900  0.32636800  0.85814100  1
  O  O32  1  0.74117000  0.96742100  0.16277100  1
  O  O33  1  0.75883000  0.03257900  0.66277100  1
  O  O34  1  0.75695100  0.67363200  0.35814100  1
  O  O35  1  0.77206900  0.18915700  0.33326300  1
  O  O36  1  0.80983600  0.06863400  0.88119300  1
  O  O37  1  0.91737300  0.37947400  0.50750300  1
  O  O38  1  0.96800200  0.83811700  0.30041500  1
  O  O39  1  0.95342200  0.03838900  0.48372000  1
  O  O40  1  0.97340200  0.69565400  0.50797200  1
  O  O41  1  0.00259100  0.14706900  0.70629100  1
  O  O42  1  0.99701100  0.58908900  0.28015000  1
  O  O43  1  0.99179200  0.89245700  0.68889300  1
loop_
_geom_bond_atom_site_label_1
_geom_bond_atom_site_label_2
_geom_bond_distance
_geom_bond_site_symmetry_2
K0 O15 2.527885 1_565
K0 O1 2.787815 1_565
K0 O9 2.897199 1_565
K0 O38 2.918289 1_455
K0 O39 2.970594 1_465
K0 O24 3.060586 1_555
K0 O18 3.068214 1_555
K0 O22 3.221984 1_565
K0 O12 3.261333 1_555
K1 O6 2.527885 1_545
K1 O20 2.787815 1_545
K1 O12 2.897199 1_545
K1 O27 2.918289 1_555
K1 O26 2.970594 1_545
K1 O41 3.060586 1_555
K1 O3 3.068214 1_555
K1 O43 3.221984 1_445
K1 O9 3.261333 1_556
K2 O37 2.527885 1_555
K2 O23 2.787815 1_555
K2 O31 2.897199 1_555
K2 O16 2.918289 1_555
K2 O17 2.970594 1_555
K2 O2 3.060586 1_555
K2 O40 3.068214 1_555
K2 O0 3.221984 1_655
K2 O34 3.261333 1_555
K3 O28 2.527885 1_555
K3 O42 2.787815 1_555
K3 O34 2.897199 1_555
K3 O5 2.918289 1_655
K3 O4 2.970594 1_655
K3 O19 3.060586 1_555
K3 O25 3.068214 1_555
K3 O21 3.221984 1_555
K3 O31 3.261333 1_554
Al0 O40 1.796823 1_455
Al0 O12 1.830397 1_555
Al0 O2 1.849580 1_455
Al0 O43 1.877219 1_455
Al0 O7 1.887971 1_555
Al1 O14 1.828280 1_555
Al1 O42 1.841685 1_455
Al1 O4 1.894743 1_555
Al1 O5 1.901620 1_555
Al1 O11 1.949956 1_555
Al1 O8 2.044812 1_555
Al2 O7 1.828280 1_555
Al2 O23 1.841685 1_555
Al2 O17 1.894743 1_555
Al2 O16 1.901620 1_555
Al2 O10 1.949956 1_555
Al2 O13 2.044812 1_555
Al3 O25 1.796823 1_555
Al3 O9 1.830397 1_555
Al3 O19 1.849580 1_555
Al3 O22 1.877219 1_555
Al3 O14 1.887971 1_555
Al4 O18 1.796823 1_555
Al4 O34 1.830397 1_555
Al4 O24 1.849580 1_555
Al4 O21 1.877219 1_555
Al4 O29 1.887971 1_555
Al5 O36 1.828280 1_565
Al5 O20 1.841685 1_555
Al5 O26 1.894743 1_555
Al5 O27 1.901620 1_565
Al5 O33 1.949956 1_565
Al5 O30 2.044812 1_555
Al6 O29 1.828280 1_545
Al6 O1 1.841685 1_655
Al6 O39 1.894743 1_555
Al6 O38 1.901620 1_545
Al6 O32 1.949956 1_545
Al6 O35 2.044812 1_555
Al7 O3 1.796823 1_655
Al7 O31 1.830397 1_555
Al7 O41 1.849580 1_655
Al7 O0 1.877219 1_655
Al7 O36 1.887971 1_555
H0 O37 0.970158 1_455
H1 O6 0.976652 1_554
H2 O13 0.986985 1_555
H3 O8 0.978703 1_555
H3 K0 2.743463 1_555
H4 O13 0.978703 1_555
H4 K1 2.743463 1_555
H5 O8 0.986985 1_555
H6 O15 0.976652 1_555
H7 O28 0.970158 1_556
H8 O15 0.970158 1_555
H9 O28 0.976652 1_556
H10 O35 0.986985 1_555
H11 O30 0.978703 1_555
H11 K2 2.743463 1_555
H12 O35 0.978703 1_555
H12 K3 2.743463 1_555
H13 O30 0.986985 1_555
H14 O37 0.976652 1_555
H15 O6 0.970158 1_654
O0 P0 1.539862 1_555
O1 P1 1.532579 1_555
O2 P0 1.574688 1_655
O3 P1 1.538069 1_556
O4 P0 1.541455 1_554
O5 P1 1.552513 1_555
O9 P1 1.552649 1_555
O10 P0 1.568131 1_555
O11 P3 1.568131 1_555
O12 P2 1.552649 1_555
O16 P2 1.552513 1_555
O17 P3 1.541455 1_555
O18 P2 1.538069 1_555
O19 P3 1.574688 1_555
O20 P2 1.532579 1_555
O21 P3 1.539862 1_555
O22 P4 1.539862 1_545
O23 P5 1.532579 1_555
O24 P4 1.574688 1_555
O25 P5 1.538069 1_554
O26 P4 1.541455 1_556
O27 P5 1.552513 1_555
O31 P5 1.552649 1_555
O32 P4 1.568131 1_555
O33 P7 1.568131 1_555
O34 P6 1.552649 1_555
O38 P6 1.552513 1_555
O39 P7 1.541455 1_555
O40 P6 1.538069 1_555
O41 P7 1.574688 1_455
O42 P6 1.532579 1_555
O43 P7 1.539862 1_565
