# generated using pymatgen
data_SrSc2O4
_symmetry_space_group_name_H-M   'P 1'
_cell_length_a   5.50941625
_cell_length_b   5.50941625
_cell_length_c   10.68560000
_cell_angle_alpha   90.00000000
_cell_angle_beta   90.00000000
_cell_angle_gamma   146.12450481
_symmetry_Int_Tables_number   1
_chemical_formula_structural   SrSc2O4
_chemical_formula_sum   'Sr2 Sc4 O8'
_cell_volume   180.78788000
_cell_formula_units_Z   2
loop_
 _symmetry_equiv_pos_site_id
 _symmetry_equiv_pos_as_xyz
  1  'x, y, z'
loop_
 _atom_site_type_symbol
 _atom_site_label
 _atom_site_symmetry_multiplicity
 _atom_site_fract_x
 _atom_site_fract_y
 _atom_site_fract_z
 _atom_site_occupancy
  Sr  Sr0  1  0.89006600  0.10993400  0.25000000  1
  Sr  Sr1  1  0.10993400  0.89006600  0.75000000  1
  Sc  Sc0  1  0.63554800  0.36445200  0.42943800  1
  Sc  Sc1  1  0.36445200  0.63554800  0.57056200  1
  Sc  Sc2  1  0.63554800  0.36445200  0.07056200  1
  Sc  Sc3  1  0.36445200  0.63554800  0.92943800  1
  O  O0  1  0.00000000  0.00000000  0.00000000  1
  O  O1  1  0.00000000  0.00000000  0.50000000  1
  O  O2  1  0.73707900  0.26292100  0.60475700  1
  O  O3  1  0.56492000  0.43508000  0.25000000  1
  O  O4  1  0.43508000  0.56492000  0.75000000  1
  O  O5  1  0.26292100  0.73707900  0.39524300  1
  O  O6  1  0.73707900  0.26292100  0.89524300  1
  O  O7  1  0.26292100  0.73707900  0.10475700  1
loop_
_geom_bond_atom_site_label_1
_geom_bond_atom_site_label_2
_geom_bond_distance
_geom_bond_site_symmetry_2
O0 Sc3 2.277326 1_444
O0 Sc2 2.277326 1_555
O0 Sc2 2.277326 1_445
O0 Sc3 2.277326 1_554
O0 Sr1 2.911905 1_544
O0 Sr0 2.911905 1_455
O1 Sc0 2.277326 1_445
O1 Sc0 2.277326 1_555
O1 Sc1 2.277326 1_445
O1 Sc1 2.277326 1_555
O1 Sr1 2.911905 1_545
O1 Sr0 2.911905 1_455
O2 Sc1 2.124241 1_655
O2 Sc1 2.124241 1_545
O2 Sc0 2.157537 1_555
O2 Sr1 2.604068 1_545
O2 Sr1 2.604068 1_655
O3 Sc2 2.056862 1_555
O3 Sc0 2.056862 1_555
O3 Sr0 2.444036 1_565
O3 Sr0 2.444036 1_455
O4 Sc1 2.056862 1_555
O4 Sc3 2.056862 1_555
O4 Sr1 2.444036 1_545
O4 Sr1 2.444036 1_655
O5 Sc0 2.124241 1_455
O5 Sc0 2.124241 1_565
O5 Sc1 2.157537 1_555
O5 Sr0 2.604068 1_455
O5 Sr0 2.604068 1_565
O6 Sc3 2.124241 1_655
O6 Sc3 2.124241 1_545
O6 Sc2 2.157537 1_556
O6 Sr1 2.604068 1_545
O6 Sr1 2.604068 1_655
O7 Sc2 2.124241 1_455
O7 Sc2 2.124241 1_565
O7 Sc3 2.157537 1_554
O7 Sr0 2.604068 1_565
O7 Sr0 2.604068 1_455
