# generated using pymatgen
data_Li6Fe5O12
_symmetry_space_group_name_H-M   'P 1'
_cell_length_a   5.12639621
_cell_length_b   8.83470934
_cell_length_c   9.90607939
_cell_angle_alpha   90.70985784
_cell_angle_beta   100.02990817
_cell_angle_gamma   89.59254168
_symmetry_Int_Tables_number   1
_chemical_formula_structural   Li6Fe5O12
_chemical_formula_sum   'Li12 Fe10 O24'
_cell_volume   441.75231647
_cell_formula_units_Z   2
loop_
 _symmetry_equiv_pos_site_id
 _symmetry_equiv_pos_as_xyz
  1  'x, y, z'
loop_
 _atom_site_type_symbol
 _atom_site_label
 _atom_site_symmetry_multiplicity
 _atom_site_fract_x
 _atom_site_fract_y
 _atom_site_fract_z
 _atom_site_occupancy
  Li  Li0  1  0.24123100  0.74070000  0.00229600  1
  Li  Li1  1  0.25820000  0.42016000  0.00013600  1
  Li  Li2  1  0.24513000  0.91384100  0.49342200  1
  Li  Li3  1  0.25533500  0.24559900  0.49464700  1
  Li  Li4  1  0.25085400  0.58975700  0.49505800  1
  Li  Li5  1  0.25009500  0.08741900  0.00132500  1
  Li  Li6  1  0.74691000  0.89802500  0.00912700  1
  Li  Li7  1  0.75222200  0.25768600  0.00522600  1
  Li  Li8  1  0.50203500  0.24571700  0.25411000  1
  Li  Li9  1  0.74996200  0.75999600  0.49873500  1
  Li  Li10  1  0.74902800  0.40083000  0.49742300  1
  Li  Li11  1  0.99829600  0.74714000  0.24553700  1
  Fe  Fe0  1  0.99373500  0.58803100  0.74936200  1
  Fe  Fe1  1  0.50629500  0.08542500  0.75015600  1
  Fe  Fe2  1  0.49989600  0.75088900  0.75570000  1
  Fe  Fe3  1  0.99935600  0.25028900  0.74564900  1
  Fe  Fe4  1  0.49777200  0.41899400  0.75311300  1
  Fe  Fe5  1  0.99661900  0.91922200  0.74619600  1
  Fe  Fe6  1  0.00910900  0.41523300  0.24974000  1
  Fe  Fe7  1  0.49665300  0.91608600  0.25202600  1
  Fe  Fe8  1  0.51190000  0.58051300  0.25297800  1
  Fe  Fe9  1  0.99137000  0.08139100  0.24600500  1
  O  O0  1  0.13298700  0.09484300  0.64194400  1
  O  O1  1  0.12255500  0.75129100  0.63117900  1
  O  O2  1  0.12186200  0.41316500  0.63611100  1
  O  O3  1  0.37087000  0.92121000  0.86474900  1
  O  O4  1  0.37729400  0.25353400  0.86892100  1
  O  O5  1  0.10665500  0.23791300  0.13564500  1
  O  O6  1  0.35561100  0.58509400  0.86070000  1
  O  O7  1  0.13158900  0.93223400  0.13456500  1
  O  O8  1  0.16573800  0.56616700  0.14380400  1
  O  O9  1  0.33981600  0.06635800  0.35569300  1
  O  O10  1  0.34749800  0.42172500  0.36601500  1
  O  O11  1  0.39943200  0.74712100  0.36488300  1
  O  O12  1  0.62471600  0.58195100  0.64011400  1
  O  O13  1  0.62255400  0.25597300  0.63836300  1
  O  O14  1  0.62092400  0.91288600  0.63937900  1
  O  O15  1  0.59432500  0.76336700  0.14081500  1
  O  O16  1  0.88459100  0.40525500  0.85742700  1
  O  O17  1  0.87758600  0.75661900  0.86240200  1
  O  O18  1  0.88010100  0.09108800  0.86003400  1
  O  O19  1  0.64879000  0.07537200  0.13844300  1
  O  O20  1  0.65247400  0.42496100  0.14563800  1
  O  O21  1  0.86869500  0.93137700  0.35406700  1
  O  O22  1  0.84913300  0.57415900  0.36479200  1
  O  O23  1  0.90219500  0.24993900  0.35635700  1
loop_
_geom_bond_atom_site_label_1
_geom_bond_atom_site_label_2
_geom_bond_distance
_geom_bond_site_symmetry_2
Li0 O15 2.081496 1_555
Li0 O6 2.104378 1_554
Li0 O17 2.125244 1_454
Li0 O8 2.177936 1_555
Li0 O7 2.254805 1_555
Li0 O3 2.285997 1_554
Li1 O8 2.023572 1_555
Li1 O4 2.108452 1_554
Li1 O6 2.140329 1_554
Li1 O16 2.177144 1_454
Li1 O20 2.269253 1_555
Li1 O5 2.330772 1_555
Li2 O9 2.048954 1_565
Li2 O1 2.163210 1_555
Li2 O11 2.168948 1_555
Li2 O21 2.174111 1_455
Li2 O14 2.198116 1_555
Li2 O0 2.296847 1_565
Li3 O23 2.071693 1_455
Li3 O10 2.130117 1_555
Li3 O13 2.155168 1_555
Li3 O0 2.162220 1_555
Li3 O9 2.175724 1_555
Li3 O2 2.211725 1_555
Li4 O10 2.060688 1_555
Li4 O1 2.129637 1_555
Li4 O11 2.139498 1_555
Li4 O12 2.187249 1_555
Li4 O22 2.235890 1_455
Li4 O2 2.283469 1_555
Li5 O7 2.080104 1_545
Li5 O5 2.088538 1_555
Li5 O3 2.144669 1_544
Li5 O18 2.152484 1_454
Li5 O4 2.158357 1_554
Li5 O19 2.251040 1_555
Li6 O15 2.033722 1_555
Li6 O17 2.098642 1_554
Li6 O19 2.124242 1_565
Li6 O7 2.160989 1_655
Li6 O3 2.201116 1_554
Li6 O18 2.446839 1_564
Li7 O5 2.045581 1_655
Li7 O20 2.136868 1_555
Li7 O4 2.148141 1_554
Li7 O16 2.170192 1_554
Li7 O19 2.219351 1_555
Li7 O18 2.219683 1_554
Li8 O19 2.094079 1_555
Li8 O23 2.124113 1_555
Li8 O10 2.126052 1_555
Li8 O9 2.136545 1_555
Li8 O20 2.145987 1_555
Li8 O5 2.159073 1_555
Li9 O11 2.041900 1_555
Li9 O14 2.113020 1_555
Li9 O1 2.122050 1_655
Li9 O22 2.209902 1_555
Li9 O21 2.255538 1_555
Li9 O12 2.286940 1_555
Li10 O13 2.092565 1_555
Li10 O22 2.151827 1_555
Li10 O2 2.153371 1_655
Li10 O23 2.160448 1_555
Li10 O10 2.243397 1_555
Li10 O12 2.282066 1_555
Li11 O21 2.106340 1_555
Li11 O8 2.133212 1_655
Li11 O15 2.153266 1_555
Li11 O7 2.161366 1_655
Li11 O22 2.166062 1_555
Li11 O11 2.186228 1_655
Fe0 O6 1.986433 1_655
Fe0 O17 2.001285 1_555
Fe0 O12 2.009887 1_555
Fe0 O1 2.052264 1_655
Fe0 O2 2.067851 1_655
Fe0 O16 2.081066 1_555
Fe1 O14 2.010856 1_545
Fe1 O0 2.025769 1_555
Fe1 O18 2.032941 1_555
Fe1 O13 2.033690 1_555
Fe1 O3 2.050613 1_545
Fe1 O4 2.059373 1_555
Fe2 O3 2.015718 1_555
Fe2 O14 2.015823 1_555
Fe2 O6 2.023765 1_555
Fe2 O12 2.036508 1_555
Fe2 O17 2.038588 1_555
Fe2 O1 2.105313 1_555
Fe3 O0 1.899331 1_655
Fe3 O16 1.903807 1_555
Fe3 O18 1.982149 1_555
Fe3 O2 1.982763 1_655
Fe3 O13 2.036692 1_555
Fe3 O4 2.102755 1_655
Fe4 O13 1.993801 1_555
Fe4 O6 2.009215 1_555
Fe4 O12 2.013993 1_555
Fe4 O4 2.033606 1_555
Fe4 O2 2.069183 1_555
Fe4 O16 2.073813 1_555
Fe5 O17 2.014768 1_555
Fe5 O18 2.028119 1_565
Fe5 O1 2.028990 1_655
Fe5 O14 2.030350 1_555
Fe5 O0 2.066200 1_665
Fe5 O3 2.067734 1_655
Fe6 O10 1.908673 1_555
Fe6 O20 1.938194 1_455
Fe6 O23 1.949267 1_455
Fe6 O8 1.966595 1_555
Fe6 O5 2.030637 1_555
Fe6 O22 2.052427 1_455
Fe7 O15 1.852158 1_555
Fe7 O9 1.924111 1_565
Fe7 O11 1.993136 1_555
Fe7 O21 2.001578 1_555
Fe7 O7 2.029396 1_555
Fe7 O19 2.053072 1_565
Fe8 O22 1.884646 1_555
Fe8 O8 1.914696 1_555
Fe8 O20 1.937825 1_555
Fe8 O11 1.974333 1_555
Fe8 O15 2.059250 1_555
Fe8 O10 2.077637 1_555
Fe9 O19 1.889581 1_555
Fe9 O21 1.891930 1_545
Fe9 O7 1.923212 1_645
Fe9 O9 1.926964 1_655
Fe9 O5 1.931523 1_655
Fe9 O23 1.935294 1_555
