# generated using pymatgen
data_LiNiPO4
_symmetry_space_group_name_H-M   'P 1'
_cell_length_a   5.96650352
_cell_length_b   6.37648617
_cell_length_c   9.35475522
_cell_angle_alpha   73.91739462
_cell_angle_beta   95.68536318
_cell_angle_gamma   99.89874663
_symmetry_Int_Tables_number   1
_chemical_formula_structural   LiNiPO4
_chemical_formula_sum   'Li4 Ni4 P4 O16'
_cell_volume   336.38693350
_cell_formula_units_Z   4
loop_
 _symmetry_equiv_pos_site_id
 _symmetry_equiv_pos_as_xyz
  1  'x, y, z'
loop_
 _atom_site_type_symbol
 _atom_site_label
 _atom_site_symmetry_multiplicity
 _atom_site_fract_x
 _atom_site_fract_y
 _atom_site_fract_z
 _atom_site_occupancy
  Li  Li0  1  0.59603000  0.17039700  0.26770000  1
  Li  Li1  1  0.40410200  0.82922700  0.73221500  1
  Li  Li2  1  0.43112100  0.33938800  0.67049300  1
  Li  Li3  1  0.56859200  0.66023000  0.32939200  1
  Ni  Ni0  1  0.01360600  0.92316300  0.28445700  1
  Ni  Ni1  1  0.80462900  0.35493600  0.93305700  1
  Ni  Ni2  1  0.98638700  0.07674300  0.71574400  1
  Ni  Ni3  1  0.19557000  0.64552700  0.06672000  1
  P  P0  1  0.16119200  0.28319200  0.37926800  1
  P  P1  1  0.83855100  0.71687800  0.62068100  1
  P  P2  1  0.28497000  0.18165400  0.99903500  1
  P  P3  1  0.71533100  0.81844000  0.00103900  1
  O  O0  1  0.53031000  0.25850700  0.05113700  1
  O  O1  1  0.47013000  0.74145800  0.94879700  1
  O  O2  1  0.30495500  0.10700700  0.36585000  1
  O  O3  1  0.69525000  0.89347300  0.63401100  1
  O  O4  1  0.91898200  0.21036000  0.31480700  1
  O  O5  1  0.08085600  0.78917800  0.68524400  1
  O  O6  1  0.80301400  0.04852600  0.89445800  1
  O  O7  1  0.19733700  0.95159900  0.10566700  1
  O  O8  1  0.13155000  0.35082800  0.01003100  1
  O  O9  1  0.86872600  0.64921900  0.99013800  1
  O  O10  1  0.16234400  0.28919900  0.54419400  1
  O  O11  1  0.83738100  0.71058500  0.45581700  1
  O  O12  1  0.27463500  0.16592200  0.83623100  1
  O  O13  1  0.72544400  0.83401100  0.16385800  1
  O  O14  1  0.72988600  0.48085300  0.71017000  1
  O  O15  1  0.26911900  0.51950100  0.28979000  1
loop_
_geom_bond_atom_site_label_1
_geom_bond_atom_site_label_2
_geom_bond_distance
_geom_bond_site_symmetry_2
Li0 O4 1.922812 1_555
Li0 O0 1.965041 1_555
Li0 O2 1.972690 1_555
Li1 O5 1.924292 1_555
Li1 O1 1.965403 1_555
Li1 O3 1.972924 1_555
Li2 O12 1.865652 1_555
Li2 O14 1.905419 1_555
Li2 O10 1.930728 1_555
Li3 O13 1.865894 1_555
Li3 O15 1.907074 1_555
Li3 O11 1.931664 1_555
Ni0 O11 2.037811 1_455
Ni0 O7 2.039335 1_555
Ni0 O13 2.046211 1_455
Ni0 O4 2.104363 1_465
Ni0 O2 2.123076 1_565
Ni1 O0 1.978130 1_556
Ni1 O8 2.013148 1_656
Ni1 O14 2.049958 1_555
Ni1 O9 2.054403 1_555
Ni1 O6 2.081249 1_555
Ni2 O6 2.037765 1_555
Ni2 O10 2.037928 1_655
Ni2 O12 2.046068 1_655
Ni2 O5 2.106768 1_645
Ni2 O3 2.121709 1_545
Ni3 O1 1.978467 1_554
Ni3 O9 2.011562 1_454
Ni3 O15 2.050281 1_555
Ni3 O8 2.055121 1_555
Ni3 O7 2.080379 1_555
O0 P2 1.537799 1_554
O1 P3 1.537689 1_556
O2 P0 1.563461 1_555
O3 P1 1.563499 1_555
O4 P0 1.555476 1_655
O5 P1 1.555481 1_455
O6 P3 1.565018 1_546
O7 P2 1.565004 1_564
O8 P2 1.559427 1_554
O9 P3 1.559283 1_556
O10 P0 1.553199 1_555
O11 P1 1.553155 1_555
O12 P2 1.548316 1_555
O13 P3 1.548208 1_555
O14 P1 1.568512 1_555
O15 P0 1.568503 1_555
