# generated using pymatgen
data_Li6Cr2O7
_symmetry_space_group_name_H-M   'P 1'
_cell_length_a   5.80589500
_cell_length_b   5.06244900
_cell_length_c   9.80056190
_cell_angle_alpha   69.39495889
_cell_angle_beta   90.00000000
_cell_angle_gamma   90.00000000
_symmetry_Int_Tables_number   1
_chemical_formula_structural   Li6Cr2O7
_chemical_formula_sum   'Li12 Cr4 O14'
_cell_volume   269.63106180
_cell_formula_units_Z   2
loop_
 _symmetry_equiv_pos_site_id
 _symmetry_equiv_pos_as_xyz
  1  'x, y, z'
loop_
 _atom_site_type_symbol
 _atom_site_label
 _atom_site_symmetry_multiplicity
 _atom_site_fract_x
 _atom_site_fract_y
 _atom_site_fract_z
 _atom_site_occupancy
  Li  Li0  1  0.78296000  0.22944000  0.13726500  1
  Li  Li1  1  0.23106000  0.23641900  0.13213400  1
  Li  Li2  1  0.50470900  0.80835400  0.13074500  1
  Li  Li3  1  0.73106000  0.76358100  0.36786600  1
  Li  Li4  1  0.28296000  0.77056000  0.36273500  1
  Li  Li5  1  0.00470900  0.19164600  0.36925500  1
  Li  Li6  1  0.99529100  0.80835400  0.63074500  1
  Li  Li7  1  0.71704000  0.22944000  0.63726500  1
  Li  Li8  1  0.26894000  0.23641900  0.63213400  1
  Li  Li9  1  0.49529100  0.19164600  0.86925500  1
  Li  Li10  1  0.76894000  0.76358100  0.86786600  1
  Li  Li11  1  0.21704000  0.77056000  0.86273500  1
  Cr  Cr0  1  0.00728900  0.74009400  0.13278500  1
  Cr  Cr1  1  0.50728900  0.25990600  0.36721500  1
  Cr  Cr2  1  0.49271100  0.74009400  0.63278500  1
  Cr  Cr3  1  0.99271100  0.25990600  0.86721500  1
  O  O0  1  0.00000000  0.50000000  0.00000000  1
  O  O1  1  0.77539700  0.98425400  0.00606700  1
  O  O2  1  0.00732200  0.94546700  0.25389000  1
  O  O3  1  0.50732200  0.05453300  0.24611000  1
  O  O4  1  0.26469500  0.51546400  0.23713600  1
  O  O5  1  0.76469500  0.48453600  0.26286400  1
  O  O6  1  0.27539700  0.01574600  0.49393300  1
  O  O7  1  0.72460300  0.98425400  0.50606700  1
  O  O8  1  0.50000000  0.50000000  0.50000000  1
  O  O9  1  0.23530500  0.51546400  0.73713600  1
  O  O10  1  0.73530500  0.48453600  0.76286400  1
  O  O11  1  0.49267800  0.94546700  0.75389000  1
  O  O12  1  0.99267800  0.05453300  0.74611000  1
  O  O13  1  0.22460300  0.01574600  0.99393300  1
loop_
_geom_bond_atom_site_label_1
_geom_bond_atom_site_label_2
_geom_bond_distance
_geom_bond_site_symmetry_2
Li0 O3 1.954019 1_555
Li0 O2 1.978233 1_645
Li0 O0 1.994189 1_655
Li0 O5 2.076794 1_555
Li0 O1 2.078286 1_545
Li1 O3 1.986030 1_555
Li1 O0 2.010207 1_555
Li1 O2 2.010905 1_545
Li1 O4 2.028774 1_555
Li1 O13 2.036897 1_554
Li2 O3 1.955389 1_565
Li2 O1 1.997515 1_555
Li2 O4 2.034546 1_555
Li2 O13 2.134021 1_564
Li2 O5 2.269004 1_555
Li3 O2 1.986030 1_655
Li3 O8 2.010207 1_555
Li3 O3 2.010905 1_565
Li3 O5 2.028774 1_555
Li3 O7 2.036897 1_555
Li4 O2 1.954019 1_555
Li4 O3 1.978233 1_565
Li4 O8 1.994189 1_555
Li4 O4 2.076794 1_555
Li4 O6 2.078286 1_565
Li5 O2 1.955389 1_545
Li5 O6 1.997515 1_555
Li5 O5 2.034546 1_455
Li5 O7 2.134021 1_445
Li5 O4 2.269004 1_555
Li6 O12 1.955389 1_565
Li6 O7 1.997515 1_555
Li6 O9 2.034546 1_655
Li6 O6 2.134021 1_665
Li6 O10 2.269004 1_555
Li7 O12 1.954019 1_555
Li7 O11 1.978233 1_545
Li7 O8 1.994189 1_555
Li7 O10 2.076794 1_555
Li7 O7 2.078286 1_545
Li8 O12 1.986030 1_455
Li8 O8 2.010207 1_555
Li8 O11 2.010905 1_545
Li8 O9 2.028774 1_555
Li8 O6 2.036897 1_555
Li9 O11 1.955389 1_545
Li9 O13 1.997515 1_555
Li9 O10 2.034546 1_555
Li9 O1 2.134021 1_546
Li9 O9 2.269004 1_555
Li10 O11 1.986030 1_555
Li10 O0 2.010207 1_656
Li10 O12 2.010905 1_565
Li10 O10 2.028774 1_555
Li10 O1 2.036897 1_556
Li11 O11 1.954019 1_555
Li11 O12 1.978233 1_465
Li11 O0 1.994189 1_556
Li11 O9 2.076794 1_555
Li11 O13 2.078286 1_565
Cr0 O2 1.832548 1_555
Cr0 O4 1.937515 1_555
Cr0 O1 1.949958 1_455
Cr0 O13 2.013575 1_564
Cr0 O5 2.030258 1_455
Cr0 O0 2.070271 1_555
Cr1 O3 1.832548 1_555
Cr1 O5 1.937515 1_555
Cr1 O6 1.949958 1_555
Cr1 O7 2.013575 1_545
Cr1 O4 2.030258 1_555
Cr1 O8 2.070271 1_555
Cr2 O11 1.832548 1_555
Cr2 O9 1.937515 1_555
Cr2 O7 1.949958 1_555
Cr2 O6 2.013575 1_565
Cr2 O10 2.030258 1_555
Cr2 O8 2.070271 1_555
Cr3 O12 1.832548 1_555
Cr3 O10 1.937515 1_555
Cr3 O13 1.949958 1_655
Cr3 O1 2.013575 1_546
Cr3 O9 2.030258 1_655
Cr3 O0 2.070271 1_656
