# generated using pymatgen
data_Mn2Cr3Co3O16
_symmetry_space_group_name_H-M   'P 1'
_cell_length_a   5.73445850
_cell_length_b   5.73445850
_cell_length_c   8.84158748
_cell_angle_alpha   89.82604648
_cell_angle_beta   89.82604648
_cell_angle_gamma   60.26626658
_symmetry_Int_Tables_number   1
_chemical_formula_structural   Mn2Cr3Co3O16
_chemical_formula_sum   'Mn2 Cr3 Co3 O16'
_cell_volume   252.46549827
_cell_formula_units_Z   1
loop_
 _symmetry_equiv_pos_site_id
 _symmetry_equiv_pos_as_xyz
  1  'x, y, z'
loop_
 _atom_site_type_symbol
 _atom_site_label
 _atom_site_symmetry_multiplicity
 _atom_site_fract_x
 _atom_site_fract_y
 _atom_site_fract_z
 _atom_site_occupancy
  Mn  Mn0  1  0.33275400  0.33275400  0.51532400  1
  Mn  Mn1  1  0.66579700  0.66579700  0.01978100  1
  Cr  Cr0  1  0.67217600  0.17030700  0.79510300  1
  Cr  Cr1  1  0.17030700  0.67217600  0.79510300  1
  Cr  Cr2  1  0.83786300  0.83786300  0.29792000  1
  Co  Co0  1  0.17254300  0.17254300  0.78535000  1
  Co  Co1  1  0.83152800  0.34053900  0.28733000  1
  Co  Co2  1  0.34053900  0.83152800  0.28733000  1
  O  O0  1  0.66237200  0.16891000  0.39530100  1
  O  O1  1  0.47627900  0.47627900  0.66026000  1
  O  O2  1  0.32753200  0.32753200  0.90297000  1
  O  O3  1  0.00842300  0.00842300  0.68213800  1
  O  O4  1  0.00766600  0.00766600  0.18287100  1
  O  O5  1  0.16891000  0.66237200  0.39530100  1
  O  O6  1  0.47686300  0.04183600  0.65826200  1
  O  O7  1  0.04183600  0.47686300  0.65826200  1
  O  O8  1  0.82724300  0.82724300  0.89175500  1
  O  O9  1  0.16274200  0.16274200  0.39460900  1
  O  O10  1  0.95877300  0.51855700  0.15979500  1
  O  O11  1  0.51855700  0.95877300  0.15979500  1
  O  O12  1  0.66135300  0.66135300  0.39905600  1
  O  O13  1  0.83102000  0.33582900  0.89591700  1
  O  O14  1  0.52027800  0.52027800  0.16313000  1
  O  O15  1  0.33582900  0.83102000  0.89591700  1
loop_
_geom_bond_atom_site_label_1
_geom_bond_atom_site_label_2
_geom_bond_distance
_geom_bond_site_symmetry_2
Mn0 O1 1.918769 1_555
Mn0 O7 1.920732 1_555
Mn0 O6 1.920732 1_555
Mn0 O5 1.952931 1_555
Mn0 O0 1.952931 1_555
Mn0 O9 1.998894 1_555
Mn1 O10 1.914991 1_555
Mn1 O11 1.914991 1_555
Mn1 O14 1.917541 1_555
Mn1 O8 1.957812 1_554
Mn1 O15 1.976203 1_554
Mn1 O13 1.976203 1_554
Cr0 O13 1.841971 1_555
Cr0 O8 1.910589 1_545
Cr0 O3 1.948249 1_655
Cr0 O1 1.949922 1_555
Cr0 O2 1.963330 1_555
Cr0 O6 2.023149 1_555
Cr1 O15 1.841971 1_555
Cr1 O8 1.910589 1_455
Cr1 O3 1.948249 1_565
Cr1 O1 1.949922 1_555
Cr1 O2 1.963330 1_555
Cr1 O7 2.023149 1_555
Cr2 O0 1.862129 1_565
Cr2 O5 1.862129 1_655
Cr2 O12 1.963143 1_555
Cr2 O4 1.964560 1_665
Cr2 O11 2.018419 1_555
Cr2 O10 2.018419 1_555
Co0 O2 1.859066 1_555
Co0 O3 1.869033 1_555
Co0 O7 1.888267 1_555
Co0 O6 1.888267 1_555
Co0 O13 1.960325 1_455
Co0 O15 1.960325 1_545
Co1 O12 1.880682 1_555
Co1 O10 1.890224 1_555
Co1 O4 1.899856 1_655
Co1 O9 1.905478 1_655
Co1 O14 1.906338 1_555
Co1 O0 1.938190 1_555
Co2 O12 1.880682 1_555
Co2 O11 1.890224 1_555
Co2 O4 1.899856 1_565
Co2 O9 1.905478 1_565
Co2 O14 1.906338 1_555
Co2 O5 1.938190 1_555
