# generated using pymatgen
data_Li4Mn3V2Cr3O16
_symmetry_space_group_name_H-M   'P 1'
_cell_length_a   5.86221700
_cell_length_b   5.88593071
_cell_length_c   9.50950814
_cell_angle_alpha   90.46434642
_cell_angle_beta   90.05653959
_cell_angle_gamma   119.24952279
_symmetry_Int_Tables_number   1
_chemical_formula_structural   Li4Mn3V2Cr3O16
_chemical_formula_sum   'Li4 Mn3 V2 Cr3 O16'
_cell_volume   286.27229600
_cell_formula_units_Z   1
loop_
 _symmetry_equiv_pos_site_id
 _symmetry_equiv_pos_as_xyz
  1  'x, y, z'
loop_
 _atom_site_type_symbol
 _atom_site_label
 _atom_site_symmetry_multiplicity
 _atom_site_fract_x
 _atom_site_fract_y
 _atom_site_fract_z
 _atom_site_occupancy
  Li  Li0  1  0.33382900  0.66334700  0.10096800  1
  Li  Li1  1  0.00206700  0.00719400  0.00429200  1
  Li  Li2  1  0.00075800  0.00417000  0.50592600  1
  Li  Li3  1  0.66359300  0.32391000  0.60502100  1
  Mn  Mn0  1  0.17069000  0.34134400  0.78502700  1
  Mn  Mn1  1  0.33688300  0.17127200  0.28668700  1
  Mn  Mn2  1  0.82837400  0.16801700  0.28546200  1
  V  V0  1  0.33088900  0.67762300  0.51266400  1
  V  V1  1  0.66969600  0.34721800  0.00948200  1
  Cr  Cr0  1  0.16935400  0.83015500  0.78739000  1
  Cr  Cr1  1  0.66151400  0.83010700  0.78708200  1
  Cr  Cr2  1  0.82866300  0.65939400  0.28575200  1
  O  O0  1  0.15496600  0.80534200  0.41169800  1
  O  O1  1  0.47638100  0.95542700  0.65619500  1
  O  O2  1  0.32984900  0.65722100  0.89269000  1
  O  O3  1  0.00376100  0.01006300  0.69229000  1
  O  O4  1  0.00003900  0.00205900  0.19245400  1
  O  O5  1  0.67059400  0.84081000  0.40171900  1
  O  O6  1  0.03809700  0.51432600  0.66165500  1
  O  O7  1  0.47026600  0.51199700  0.65831700  1
  O  O8  1  0.83739200  0.67160400  0.90375200  1
  O  O9  1  0.16213500  0.32577600  0.39950800  1
  O  O10  1  0.53961500  0.49323200  0.14502900  1
  O  O11  1  0.96062300  0.46896500  0.16197800  1
  O  O12  1  0.66464300  0.32709100  0.39129400  1
  O  O13  1  0.33538100  0.17594200  0.90236800  1
  O  O14  1  0.52263300  0.03883000  0.16235200  1
  O  O15  1  0.83701700  0.17756300  0.90311100  1
loop_
_geom_bond_atom_site_label_1
_geom_bond_atom_site_label_2
_geom_bond_distance
_geom_bond_site_symmetry_2
Li0 O10 1.954392 1_555
Li0 O2 1.980564 1_554
Li0 O11 1.999822 1_455
Li0 O14 2.009368 1_565
Li1 O4 1.789781 1_555
Li1 O15 1.956908 1_454
Li1 O8 1.962607 1_444
Li1 O13 1.966395 1_554
Li2 O3 1.772190 1_555
Li2 O9 1.945578 1_555
Li2 O5 1.953147 1_445
Li2 O0 2.002041 1_545
Li3 O1 1.958912 1_545
Li3 O6 1.987312 1_655
Li3 O7 1.996252 1_555
Li3 O12 2.032664 1_555
Mn0 O3 1.908712 1_555
Mn0 O2 1.909853 1_555
Mn0 O6 1.951458 1_555
Mn0 O7 1.960857 1_555
Mn0 O13 2.014700 1_555
Mn0 O15 2.048318 1_455
Mn1 O4 1.937616 1_555
Mn1 O12 1.944698 1_555
Mn1 O9 1.980964 1_555
Mn1 O14 2.002128 1_555
Mn1 O10 2.159147 1_555
Mn1 O0 2.233588 1_545
Mn2 O12 1.917195 1_555
Mn2 O4 1.922897 1_655
Mn2 O14 1.952123 1_555
Mn2 O11 1.952223 1_555
Mn2 O9 2.017591 1_655
Mn2 O5 2.020555 1_545
Cr0 O2 1.968380 1_555
Cr0 O3 1.974803 1_565
Cr0 O6 2.010409 1_555
Cr0 O1 2.015471 1_555
Cr0 O8 2.031909 1_455
Cr0 O13 2.076334 1_565
Cr1 O3 1.975388 1_665
Cr1 O2 1.977706 1_555
Cr1 O1 2.016351 1_555
Cr1 O8 2.029494 1_555
Cr1 O7 2.042267 1_555
Cr1 O15 2.088879 1_565
Cr2 O4 1.978635 1_665
Cr2 O12 1.988299 1_555
Cr2 O10 1.993327 1_555
Cr2 O11 2.016895 1_555
Cr2 O5 2.040798 1_555
Cr2 O0 2.050470 1_655
O0 V0 1.821517 1_555
O1 V0 1.965391 1_555
O5 V0 2.037840 1_555
O6 V0 2.071714 1_555
O7 V0 2.081933 1_555
O8 V1 1.954900 1_556
O9 V0 2.094059 1_555
O10 V1 1.898955 1_555
O11 V1 2.075837 1_555
O13 V1 1.985811 1_556
O14 V1 2.160398 1_555
O15 V1 1.981219 1_556
