# generated using pymatgen
data_Li6Mn5FeO12
_symmetry_space_group_name_H-M   'P 1'
_cell_length_a   5.30821579
_cell_length_b   5.30821579
_cell_length_c   10.25008616
_cell_angle_alpha   89.19312703
_cell_angle_beta   89.19312703
_cell_angle_gamma   122.38656032
_symmetry_Int_Tables_number   1
_chemical_formula_structural   Li6Mn5FeO12
_chemical_formula_sum   'Li6 Mn5 Fe1 O12'
_cell_volume   243.78944540
_cell_formula_units_Z   1
loop_
 _symmetry_equiv_pos_site_id
 _symmetry_equiv_pos_as_xyz
  1  'x, y, z'
loop_
 _atom_site_type_symbol
 _atom_site_label
 _atom_site_symmetry_multiplicity
 _atom_site_fract_x
 _atom_site_fract_y
 _atom_site_fract_z
 _atom_site_occupancy
  Li  Li0  1  0.66567200  0.99614000  0.72454400  1
  Li  Li1  1  0.66809400  0.66809400  0.27584900  1
  Li  Li2  1  0.99614000  0.66567200  0.72454400  1
  Li  Li3  1  0.33190600  0.33190600  0.72415100  1
  Li  Li4  1  0.00386000  0.33432800  0.27545600  1
  Li  Li5  1  0.33432800  0.00386000  0.27545600  1
  Mn  Mn0  1  0.33529900  0.66470100  0.50000000  1
  Mn  Mn1  1  0.16645800  0.83354200  0.00000000  1
  Mn  Mn2  1  0.50000000  0.50000000  0.00000000  1
  Mn  Mn3  1  0.66470100  0.33529900  0.50000000  1
  Mn  Mn4  1  0.83354200  0.16645800  0.00000000  1
  Fe  Fe0  1  0.00000000  0.00000000  0.50000000  1
  O  O0  1  0.81380900  0.81380900  0.10189000  1
  O  O1  1  0.51893900  0.85159600  0.89851600  1
  O  O2  1  0.33250500  0.01156400  0.61234300  1
  O  O3  1  0.67885200  0.67885200  0.61700600  1
  O  O4  1  0.32114800  0.32114800  0.38299400  1
  O  O5  1  0.98843600  0.66749500  0.38765700  1
  O  O6  1  0.14840400  0.48106100  0.10148400  1
  O  O7  1  0.85159600  0.51893900  0.89851600  1
  O  O8  1  0.18619100  0.18619100  0.89811000  1
  O  O9  1  0.01156400  0.33250500  0.61234300  1
  O  O10  1  0.66749500  0.98843600  0.38765700  1
  O  O11  1  0.48106100  0.14840400  0.10148400  1
loop_
_geom_bond_atom_site_label_1
_geom_bond_atom_site_label_2
_geom_bond_distance
_geom_bond_site_symmetry_2
Li0 O1 1.912438 1_555
Li0 O3 2.057398 1_555
Li0 O9 2.062185 1_665
Li0 O2 2.160273 1_565
Li1 O0 1.912430 1_555
Li1 O4 2.059673 1_555
Li1 O5 2.065311 1_555
Li1 O10 2.065311 1_555
Li2 O7 1.912438 1_555
Li2 O3 2.057398 1_555
Li2 O2 2.062185 1_665
Li2 O9 2.160273 1_655
Li3 O8 1.912430 1_555
Li3 O3 2.059673 1_555
Li3 O2 2.065311 1_555
Li3 O9 2.065311 1_555
Li4 O6 1.912438 1_555
Li4 O4 2.057398 1_555
Li4 O10 2.062185 1_445
Li4 O5 2.160273 1_455
Li5 O11 1.912438 1_555
Li5 O4 2.057398 1_555
Li5 O5 2.062185 1_445
Li5 O10 2.160273 1_545
Mn0 O9 2.007348 1_555
Mn0 O10 2.007348 1_555
Mn0 O3 2.164975 1_555
Mn0 O4 2.164975 1_555
Mn0 O5 2.191990 1_455
Mn0 O2 2.191990 1_565
Mn1 O11 1.942213 1_565
Mn1 O7 1.942213 1_454
Mn1 O8 2.082704 1_564
Mn1 O0 2.082704 1_455
Mn1 O6 2.083828 1_555
Mn1 O1 2.083828 1_554
Mn2 O8 1.940562 1_554
Mn2 O0 1.940562 1_555
Mn2 O7 2.077690 1_554
Mn2 O11 2.077690 1_555
Mn2 O1 2.077690 1_554
Mn2 O6 2.077690 1_555
Mn3 O2 2.007348 1_555
Mn3 O5 2.007348 1_555
Mn3 O3 2.164975 1_555
Mn3 O4 2.164975 1_555
Mn3 O10 2.191990 1_545
Mn3 O9 2.191990 1_655
Mn4 O6 1.942213 1_655
Mn4 O1 1.942213 1_544
Mn4 O8 2.082704 1_654
Mn4 O0 2.082704 1_545
Mn4 O11 2.083828 1_555
Mn4 O7 2.083828 1_554
Fe0 O3 2.005544 1_445
Fe0 O4 2.005544 1_555
Fe0 O2 2.094804 1_555
Fe0 O9 2.094804 1_555
Fe0 O10 2.094804 1_445
Fe0 O5 2.094804 1_445
