# generated using pymatgen
data_Li4Fe3CuO8
_symmetry_space_group_name_H-M   'P 1'
_cell_length_a   5.97196329
_cell_length_b   5.97196329
_cell_length_c   5.97196370
_cell_angle_alpha   59.56464244
_cell_angle_beta   59.56464244
_cell_angle_gamma   59.56464010
_symmetry_Int_Tables_number   1
_chemical_formula_structural   Li4Fe3CuO8
_chemical_formula_sum   'Li4 Fe3 Cu1 O8'
_cell_volume   149.11339343
_cell_formula_units_Z   1
loop_
 _symmetry_equiv_pos_site_id
 _symmetry_equiv_pos_as_xyz
  1  'x, y, z'
loop_
 _atom_site_type_symbol
 _atom_site_label
 _atom_site_symmetry_multiplicity
 _atom_site_fract_x
 _atom_site_fract_y
 _atom_site_fract_z
 _atom_site_occupancy
  Li  Li0  1  0.00000000  0.50000000  0.00000000  1
  Li  Li1  1  0.00000000  0.00000000  0.50000000  1
  Li  Li2  1  0.50000000  0.50000000  0.50000000  1
  Li  Li3  1  0.50000000  0.00000000  0.00000000  1
  Fe  Fe0  1  0.50000000  0.50000000  0.00000000  1
  Fe  Fe1  1  0.50000000  0.00000000  0.50000000  1
  Fe  Fe2  1  0.00000000  0.50000000  0.50000000  1
  Cu  Cu0  1  0.00000000  0.00000000  0.00000000  1
  O  O0  1  0.25652000  0.25652000  0.25652000  1
  O  O1  1  0.74236000  0.24398400  0.24398400  1
  O  O2  1  0.75601600  0.25764000  0.75601600  1
  O  O3  1  0.75601600  0.75601600  0.25764000  1
  O  O4  1  0.24398400  0.24398400  0.74236000  1
  O  O5  1  0.24398400  0.74236000  0.24398400  1
  O  O6  1  0.25764000  0.75601600  0.75601600  1
  O  O7  1  0.74348000  0.74348000  0.74348000  1
loop_
_geom_bond_atom_site_label_1
_geom_bond_atom_site_label_2
_geom_bond_distance
_geom_bond_site_symmetry_2
Li0 O7 2.161478 1_454
Li0 O0 2.161478 1_555
Li0 O6 2.164022 1_554
Li0 O1 2.164022 1_455
Li0 O4 2.164022 1_554
Li0 O3 2.164022 1_455
Li1 O7 2.161478 1_445
Li1 O0 2.161478 1_555
Li1 O5 2.164022 1_545
Li1 O1 2.164022 1_455
Li1 O6 2.164022 1_545
Li1 O2 2.164022 1_455
Li2 O3 2.157408 1_555
Li2 O4 2.157408 1_555
Li2 O1 2.157408 1_555
Li2 O5 2.157408 1_555
Li2 O2 2.157408 1_555
Li2 O6 2.157408 1_555
Li3 O7 2.161478 1_544
Li3 O0 2.161478 1_555
Li3 O5 2.164022 1_545
Li3 O2 2.164022 1_554
Li3 O4 2.164022 1_554
Li3 O3 2.164022 1_545
Fe0 O6 2.047716 1_554
Fe0 O2 2.047716 1_554
Fe0 O1 2.047716 1_555
Fe0 O5 2.047716 1_555
Fe0 O0 2.050334 1_555
Fe0 O7 2.050334 1_554
Fe1 O3 2.047716 1_545
Fe1 O4 2.047716 1_555
Fe1 O1 2.047716 1_555
Fe1 O6 2.047716 1_545
Fe1 O7 2.050334 1_545
Fe1 O0 2.050334 1_555
Fe2 O3 2.047716 1_455
Fe2 O4 2.047716 1_555
Fe2 O5 2.047716 1_555
Fe2 O2 2.047716 1_455
Fe2 O7 2.050334 1_455
Fe2 O0 2.050334 1_555
Cu0 O5 2.054682 1_545
Cu0 O1 2.054682 1_455
Cu0 O6 2.054682 1_544
Cu0 O2 2.054682 1_454
Cu0 O3 2.054682 1_445
Cu0 O4 2.054682 1_554
