# generated using pymatgen
data_Mn3CoO8
_symmetry_space_group_name_H-M   'P 1'
_cell_length_a   8.24300200
_cell_length_b   8.24300200
_cell_length_c   8.24300200
_cell_angle_alpha   90.00000000
_cell_angle_beta   90.00000000
_cell_angle_gamma   90.00000000
_symmetry_Int_Tables_number   1
_chemical_formula_structural   Mn3CoO8
_chemical_formula_sum   'Mn12 Co4 O32'
_cell_volume   560.08793259
_cell_formula_units_Z   4
loop_
 _symmetry_equiv_pos_site_id
 _symmetry_equiv_pos_as_xyz
  1  'x, y, z'
loop_
 _atom_site_type_symbol
 _atom_site_label
 _atom_site_symmetry_multiplicity
 _atom_site_fract_x
 _atom_site_fract_y
 _atom_site_fract_z
 _atom_site_occupancy
  Mn  Mn0  1  0.12718700  0.12281300  0.62500000  1
  Mn  Mn1  1  0.12500000  0.37281300  0.87718700  1
  Mn  Mn2  1  0.12281300  0.62500000  0.12718700  1
  Mn  Mn3  1  0.37718700  0.37500000  0.62718700  1
  Mn  Mn4  1  0.37500000  0.62718700  0.37718700  1
  Mn  Mn5  1  0.37281300  0.87718700  0.12500000  1
  Mn  Mn6  1  0.62718700  0.37718700  0.37500000  1
  Mn  Mn7  1  0.62500000  0.12718700  0.12281300  1
  Mn  Mn8  1  0.62281300  0.87500000  0.87281300  1
  Mn  Mn9  1  0.87718700  0.12500000  0.37281300  1
  Mn  Mn10  1  0.87500000  0.87281300  0.62281300  1
  Mn  Mn11  1  0.87281300  0.62281300  0.87500000  1
  Co  Co0  1  0.12500000  0.87500000  0.37500000  1
  Co  Co1  1  0.37500000  0.12500000  0.87500000  1
  Co  Co2  1  0.62500000  0.62500000  0.62500000  1
  Co  Co3  1  0.87500000  0.37500000  0.12500000  1
  O  O0  1  0.11241700  0.11286700  0.39006800  1
  O  O1  1  0.10993200  0.88758300  0.61286700  1
  O  O2  1  0.10740900  0.60740900  0.89259100  1
  O  O3  1  0.13713300  0.13758300  0.85993200  1
  O  O4  1  0.11286700  0.39006800  0.11241700  1
  O  O5  1  0.14259100  0.35740900  0.64259100  1
  O  O6  1  0.14006800  0.63713300  0.36241700  1
  O  O7  1  0.13758300  0.85993200  0.13713300  1
  O  O8  1  0.36241700  0.14006800  0.63713300  1
  O  O9  1  0.35993200  0.36286700  0.86241700  1
  O  O10  1  0.35740900  0.64259100  0.14259100  1
  O  O11  1  0.38713300  0.60993200  0.61241700  1
  O  O12  1  0.36286700  0.86241700  0.35993200  1
  O  O13  1  0.39259100  0.39259100  0.39259100  1
  O  O14  1  0.39006800  0.11241700  0.11286700  1
  O  O15  1  0.38758300  0.88713300  0.89006800  1
  O  O16  1  0.61241700  0.38713300  0.60993200  1
  O  O17  1  0.60993200  0.61241700  0.38713300  1
  O  O18  1  0.60740900  0.89259100  0.10740900  1
  O  O19  1  0.63713300  0.36241700  0.14006800  1
  O  O20  1  0.61286700  0.10993200  0.88758300  1
  O  O21  1  0.64259100  0.14259100  0.35740900  1
  O  O22  1  0.64006800  0.86286700  0.63758300  1
  O  O23  1  0.63758300  0.64006800  0.86286700  1
  O  O24  1  0.86241700  0.35993200  0.36286700  1
  O  O25  1  0.85993200  0.13713300  0.13758300  1
  O  O26  1  0.85740900  0.85740900  0.85740900  1
  O  O27  1  0.88713300  0.89006800  0.38758300  1
  O  O28  1  0.86286700  0.63758300  0.64006800  1
  O  O29  1  0.89259100  0.10740900  0.60740900  1
  O  O30  1  0.89006800  0.38758300  0.88713300  1
  O  O31  1  0.88758300  0.61286700  0.10993200  1
loop_
_geom_bond_atom_site_label_1
_geom_bond_atom_site_label_2
_geom_bond_distance
_geom_bond_site_symmetry_2
Mn0 O3 1.942100 1_555
Mn0 O0 1.942100 1_555
Mn0 O29 1.943357 1_455
Mn0 O5 1.943357 1_555
Mn0 O1 1.946782 1_545
Mn0 O8 1.946782 1_555
Mn1 O9 1.942100 1_555
Mn1 O30 1.942100 1_455
Mn1 O5 1.943357 1_555
Mn1 O2 1.943357 1_555
Mn1 O4 1.946782 1_556
Mn1 O3 1.946782 1_555
Mn2 O7 1.942100 1_555
Mn2 O4 1.942100 1_555
Mn2 O10 1.943357 1_555
Mn2 O2 1.943357 1_554
Mn2 O31 1.946782 1_455
Mn2 O6 1.946782 1_555
Mn3 O11 1.942100 1_555
Mn3 O8 1.942100 1_555
Mn3 O13 1.943357 1_555
Mn3 O5 1.943357 1_555
Mn3 O16 1.946782 1_555
Mn3 O9 1.946782 1_555
Mn4 O17 1.942100 1_555
Mn4 O6 1.942100 1_555
Mn4 O13 1.943357 1_555
Mn4 O10 1.943357 1_555
Mn4 O11 1.946782 1_555
Mn4 O12 1.946782 1_555
Mn5 O12 1.942100 1_555
Mn5 O15 1.942100 1_554
Mn5 O10 1.943357 1_555
Mn5 O18 1.943357 1_555
Mn5 O14 1.946782 1_565
Mn5 O7 1.946782 1_555
Mn6 O16 1.942100 1_555
Mn6 O19 1.942100 1_555
Mn6 O13 1.943357 1_555
Mn6 O21 1.943357 1_555
Mn6 O17 1.946782 1_555
Mn6 O24 1.946782 1_555
Mn7 O25 1.942100 1_555
Mn7 O14 1.942100 1_555
Mn7 O18 1.943357 1_545
Mn7 O21 1.943357 1_555
Mn7 O20 1.946782 1_554
Mn7 O19 1.946782 1_555
Mn8 O20 1.942100 1_565
Mn8 O23 1.942100 1_555
Mn8 O18 1.943357 1_556
Mn8 O26 1.943357 1_555
Mn8 O22 1.946782 1_555
Mn8 O15 1.946782 1_555
Mn9 O24 1.942100 1_555
Mn9 O27 1.942100 1_545
Mn9 O21 1.943357 1_555
Mn9 O29 1.943357 1_555
Mn9 O0 1.946782 1_655
Mn9 O25 1.946782 1_555
Mn10 O1 1.942100 1_655
Mn10 O22 1.942100 1_555
Mn10 O29 1.943357 1_565
Mn10 O26 1.943357 1_555
Mn10 O28 1.946782 1_555
Mn10 O27 1.946782 1_555
Mn11 O31 1.942100 1_556
Mn11 O28 1.942100 1_555
Mn11 O2 1.943357 1_655
Mn11 O26 1.943357 1_555
Mn11 O23 1.946782 1_555
Mn11 O30 1.946782 1_555
Co0 O1 1.967404 1_555
Co0 O12 1.967404 1_555
Co0 O27 1.967404 1_455
Co0 O7 1.967404 1_555
Co0 O0 1.967404 1_565
Co0 O6 1.967404 1_555
Co1 O20 1.967404 1_555
Co1 O9 1.967404 1_555
Co1 O3 1.967404 1_555
Co1 O15 1.967404 1_545
Co1 O14 1.967404 1_556
Co1 O8 1.967404 1_555
Co2 O22 1.967404 1_555
Co2 O23 1.967404 1_555
Co2 O28 1.967404 1_555
Co2 O11 1.967404 1_555
Co2 O16 1.967404 1_555
Co2 O17 1.967404 1_555
Co3 O31 1.967404 1_555
Co3 O30 1.967404 1_554
Co3 O25 1.967404 1_555
Co3 O24 1.967404 1_555
Co3 O4 1.967404 1_655
Co3 O19 1.967404 1_555
