# generated using pymatgen
data_SrLaCl5
_symmetry_space_group_name_H-M   'P 1'
_cell_length_a   4.39112300
_cell_length_b   7.67307900
_cell_length_c   12.86186251
_cell_angle_alpha   87.60143969
_cell_angle_beta   90.00000000
_cell_angle_gamma   90.00000000
_symmetry_Int_Tables_number   1
_chemical_formula_structural   SrLaCl5
_chemical_formula_sum   'Sr2 La2 Cl10'
_cell_volume   432.98063666
_cell_formula_units_Z   2
loop_
 _symmetry_equiv_pos_site_id
 _symmetry_equiv_pos_as_xyz
  1  'x, y, z'
loop_
 _atom_site_type_symbol
 _atom_site_label
 _atom_site_symmetry_multiplicity
 _atom_site_fract_x
 _atom_site_fract_y
 _atom_site_fract_z
 _atom_site_occupancy
  Sr  Sr0  1  0.25000000  0.94379900  0.85095100  1
  Sr  Sr1  1  0.75000000  0.05620100  0.14904900  1
  La  La0  1  0.75000000  0.56848800  0.65788600  1
  La  La1  1  0.25000000  0.43151200  0.34211400  1
  Cl  Cl0  1  0.75000000  0.93134100  0.67054700  1
  Cl  Cl1  1  0.25000000  0.85289200  0.07477600  1
  Cl  Cl2  1  0.25000000  0.67666500  0.51960600  1
  Cl  Cl3  1  0.75000000  0.64707500  0.86658500  1
  Cl  Cl4  1  0.75000000  0.64516500  0.28046500  1
  Cl  Cl5  1  0.25000000  0.35483500  0.71953500  1
  Cl  Cl6  1  0.25000000  0.35292500  0.13341500  1
  Cl  Cl7  1  0.75000000  0.32333500  0.48039400  1
  Cl  Cl8  1  0.75000000  0.14710800  0.92522400  1
  Cl  Cl9  1  0.25000000  0.06865900  0.32945300  1
loop_
_geom_bond_atom_site_label_1
_geom_bond_atom_site_label_2
_geom_bond_distance
_geom_bond_site_symmetry_2
Cl0 La0 2.795753 1_555
Cl0 Sr0 3.198770 1_655
Cl0 Sr0 3.198770 1_555
Cl1 Sr1 2.879483 1_465
Cl1 Sr1 2.879483 1_565
Cl1 Sr0 2.933599 1_554
Cl2 La0 2.923886 1_455
Cl2 La0 2.923886 1_555
Cl2 La1 3.018182 1_555
Cl3 La0 2.775668 1_555
Cl3 Sr0 3.163283 1_555
Cl3 Sr0 3.163283 1_655
Cl4 La1 2.833367 1_655
Cl4 La1 2.833367 1_555
Cl4 Sr1 3.515383 1_565
Cl5 La0 2.833367 1_455
Cl5 La0 2.833367 1_555
Cl5 Sr0 3.515383 1_545
Cl6 La1 2.775668 1_555
Cl6 Sr1 3.163283 1_455
Cl6 Sr1 3.163283 1_555
Cl7 La1 2.923886 1_655
Cl7 La1 2.923886 1_555
Cl7 La0 3.018182 1_555
Cl8 Sr0 2.879483 1_545
Cl8 Sr0 2.879483 1_645
Cl8 Sr1 2.933599 1_556
Cl9 La1 2.795753 1_555
Cl9 Sr1 3.198770 1_555
Cl9 Sr1 3.198770 1_455
