# generated using pymatgen
data_LiVP2HO8
_symmetry_space_group_name_H-M   'P 1'
_cell_length_a   7.94483500
_cell_length_b   7.47108700
_cell_length_c   9.73893594
_cell_angle_alpha   75.03138369
_cell_angle_beta   90.00000000
_cell_angle_gamma   90.00000000
_symmetry_Int_Tables_number   1
_chemical_formula_structural   LiVP2HO8
_chemical_formula_sum   'Li4 V4 P8 H4 O32'
_cell_volume   558.45429342
_cell_formula_units_Z   4
loop_
 _symmetry_equiv_pos_site_id
 _symmetry_equiv_pos_as_xyz
  1  'x, y, z'
loop_
 _atom_site_type_symbol
 _atom_site_label
 _atom_site_symmetry_multiplicity
 _atom_site_fract_x
 _atom_site_fract_y
 _atom_site_fract_z
 _atom_site_occupancy
  Li  Li0  1  0.13023800  0.39420300  0.33209700  1
  Li  Li1  1  0.36905500  0.89713200  0.07441700  1
  Li  Li2  1  0.86905500  0.10286800  0.92558300  1
  Li  Li3  1  0.63023800  0.60579700  0.66790300  1
  V  V0  1  0.50659600  0.24819700  0.37610000  1
  V  V1  1  0.99233300  0.74181100  0.12599100  1
  V  V2  1  0.49233300  0.25818900  0.87400900  1
  V  V3  1  0.00659600  0.75180300  0.62390000  1
  P  P0  1  0.34745100  0.52019200  0.55573900  1
  P  P1  1  0.84745100  0.47980800  0.44426100  1
  P  P2  1  0.15555800  0.01053700  0.31217900  1
  P  P3  1  0.65231700  0.98612300  0.19161400  1
  P  P4  1  0.35278800  0.51676900  0.06464800  1
  P  P5  1  0.85278800  0.48323100  0.93535200  1
  P  P6  1  0.15231700  0.01387700  0.80838600  1
  P  P7  1  0.65555800  0.98946300  0.68782100  1
  H  H0  1  0.50771700  0.75679600  0.36437600  1
  H  H1  1  0.00746800  0.23517600  0.14306900  1
  H  H2  1  0.50746800  0.76482400  0.85693100  1
  H  H3  1  0.00771700  0.24320400  0.63562400  1
  O  O0  1  0.55265000  0.10108500  0.55858400  1
  O  O1  1  0.17315700  0.56800100  0.60299200  1
  O  O2  1  0.82738900  0.60774600  0.54640800  1
  O  O3  1  0.45624500  0.69022200  0.49680400  1
  O  O4  1  0.05265000  0.89891500  0.44141600  1
  O  O5  1  0.32777800  0.06604700  0.35754100  1
  O  O6  1  0.95624500  0.30977800  0.50319600  1
  O  O7  1  0.32738900  0.39225400  0.45359200  1
  O  O8  1  0.67468600  0.10889600  0.29463400  1
  O  O9  1  0.05880000  0.19506200  0.24717600  1
  O  O10  1  0.67315700  0.43199900  0.39700800  1
  O  O11  1  0.94917300  0.59603600  0.30996700  1
  O  O12  1  0.54778700  0.80872100  0.25195300  1
  O  O13  1  0.16981400  0.89245000  0.20318400  1
  O  O14  1  0.82484700  0.93518600  0.13765500  1
  O  O15  1  0.55051200  0.09406200  0.05772100  1
  O  O16  1  0.45164300  0.40050400  0.19592800  1
  O  O17  1  0.17583200  0.55693900  0.11898600  1
  O  O18  1  0.83652900  0.61064900  0.03887200  1
  O  O19  1  0.43948500  0.69872000  0.99438400  1
  O  O20  1  0.05051200  0.90593800  0.94227900  1
  O  O21  1  0.32484700  0.06481400  0.86234500  1
  O  O22  1  0.93948500  0.30128000  0.00561600  1
  O  O23  1  0.33652900  0.38935100  0.96112800  1
  O  O24  1  0.66981400  0.10755000  0.79681600  1
  O  O25  1  0.04778700  0.19127900  0.74804700  1
  O  O26  1  0.67583200  0.44306100  0.88101400  1
  O  O27  1  0.95164300  0.59949600  0.80407200  1
  O  O28  1  0.55880000  0.80493800  0.75282400  1
  O  O29  1  0.17468600  0.89110400  0.70536600  1
  O  O30  1  0.82777800  0.93395300  0.64245900  1
  O  O31  1  0.44917300  0.40396400  0.69003300  1
loop_
_geom_bond_atom_site_label_1
_geom_bond_atom_site_label_2
_geom_bond_distance
_geom_bond_site_symmetry_2
Li0 O7 1.960802 1_555
Li0 O9 1.963494 1_555
Li0 O11 2.054687 1_455
Li0 O6 2.131293 1_455
Li0 O17 2.147902 1_555
Li1 O19 1.927395 1_554
Li1 O13 2.014175 1_555
Li1 O15 2.036140 1_565
Li1 O21 2.149855 1_564
Li1 O12 2.202771 1_555
Li2 O22 1.927395 1_556
Li2 O24 2.014175 1_555
Li2 O20 2.036140 1_645
Li2 O14 2.149855 1_546
Li2 O25 2.202771 1_655
Li3 O2 1.960802 1_555
Li3 O28 1.963494 1_555
Li3 O31 2.054687 1_555
Li3 O3 2.131293 1_555
Li3 O26 2.147902 1_555
H0 O12 1.109590 1_555
H0 O3 1.321586 1_555
H1 O9 1.061672 1_555
H1 O22 1.409285 1_455
H2 O28 1.061672 1_555
H2 O19 1.409285 1_555
H3 O25 1.109590 1_555
H3 O6 1.321586 1_455
O0 P7 1.551077 1_545
O0 V0 1.868495 1_555
O1 P0 1.530284 1_555
O1 V3 1.955174 1_555
O2 P1 1.555590 1_555
O2 V3 2.043186 1_655
O3 P0 1.521045 1_555
O4 P2 1.551077 1_565
O4 V3 1.868495 1_555
O5 P2 1.527723 1_555
O5 V0 2.007485 1_555
O6 P1 1.521045 1_555
O7 P0 1.555590 1_555
O7 V0 2.043186 1_555
O8 P3 1.534583 1_545
O8 V0 1.980544 1_555
O9 P2 1.562501 1_555
O10 P1 1.530284 1_555
O10 V0 1.955174 1_555
O11 P1 1.590922 1_555
O11 V1 1.872425 1_555
O12 P3 1.545741 1_555
O13 P2 1.549748 1_565
O13 V1 2.063276 1_455
O14 P3 1.550214 1_555
O14 V1 1.988851 1_555
O15 P3 1.568965 1_545
O15 V2 1.945510 1_554
O16 P4 1.559577 1_555
O16 V0 1.879604 1_555
O17 P4 1.558420 1_555
O17 V1 2.021488 1_455
O18 P5 1.560478 1_554
O18 V1 1.908361 1_555
O19 P4 1.519888 1_556
O20 P6 1.568965 1_565
O20 V1 1.945510 1_456
O21 P6 1.550214 1_555
O21 V2 1.988851 1_555
O22 P5 1.519888 1_554
O23 P4 1.560478 1_556
O23 V2 1.908361 1_555
O24 P7 1.549748 1_545
O24 V2 2.063276 1_555
O25 P6 1.545741 1_555
O26 P5 1.558420 1_555
O26 V2 2.021488 1_555
O27 P5 1.559577 1_555
O27 V3 1.879604 1_655
O28 P7 1.562501 1_555
O29 P6 1.534583 1_565
O29 V3 1.980544 1_555
O30 P7 1.527723 1_555
O30 V3 2.007485 1_655
O31 P0 1.590922 1_555
O31 V2 1.872425 1_555
