# generated using pymatgen
data_Mn6O5F7
_symmetry_space_group_name_H-M   'P 1'
_cell_length_a   4.69259100
_cell_length_b   5.71291418
_cell_length_c   15.66917065
_cell_angle_alpha   89.70569296
_cell_angle_beta   89.85071942
_cell_angle_gamma   89.93068840
_symmetry_Int_Tables_number   1
_chemical_formula_structural   Mn6O5F7
_chemical_formula_sum   'Mn12 O10 F14'
_cell_volume   420.05765099
_cell_formula_units_Z   2
loop_
 _symmetry_equiv_pos_site_id
 _symmetry_equiv_pos_as_xyz
  1  'x, y, z'
loop_
 _atom_site_type_symbol
 _atom_site_label
 _atom_site_symmetry_multiplicity
 _atom_site_fract_x
 _atom_site_fract_y
 _atom_site_fract_z
 _atom_site_occupancy
  Mn  Mn0  1  0.98746200  0.17061500  0.58375100  1
  Mn  Mn1  1  0.99677000  0.83187300  0.76301200  1
  Mn  Mn2  1  0.99748300  0.15422200  0.92411200  1
  Mn  Mn3  1  0.95260100  0.16260300  0.24932200  1
  Mn  Mn4  1  0.97377300  0.85642000  0.42116600  1
  Mn  Mn5  1  0.97467300  0.85965800  0.08683000  1
  Mn  Mn6  1  0.52733100  0.33256100  0.41813900  1
  Mn  Mn7  1  0.50424300  0.33595200  0.07762800  1
  Mn  Mn8  1  0.46705800  0.35654200  0.74418100  1
  Mn  Mn9  1  0.49574800  0.64726400  0.91170500  1
  Mn  Mn10  1  0.51118700  0.65051000  0.57910600  1
  Mn  Mn11  1  0.51346000  0.65496400  0.24157400  1
  O  O0  1  0.77570200  0.10887600  0.36498300  1
  O  O1  1  0.78382100  0.11383800  0.02949200  1
  O  O2  1  0.78267100  0.88297000  0.86819700  1
  O  O3  1  0.77779200  0.89228600  0.53082600  1
  O  O4  1  0.76800000  0.89088900  0.19163300  1
  O  O5  1  0.73295700  0.39608800  0.52272200  1
  O  O6  1  0.70748100  0.39376500  0.18432000  1
  O  O7  1  0.28577300  0.37605300  0.97097300  1
  O  O8  1  0.28065800  0.61916000  0.80610300  1
  O  O9  1  0.27258900  0.39607100  0.63382200  1
  F  F0  1  0.76402400  0.10451000  0.70215800  1
  F  F1  1  0.74066000  0.37945800  0.84838300  1
  F  F2  1  0.74959900  0.61103400  0.69118800  1
  F  F3  1  0.74291600  0.60716300  0.35530400  1
  F  F4  1  0.73093400  0.61416700  0.01821000  1
  F  F5  1  0.26223700  0.61159200  0.46264400  1
  F  F6  1  0.24280300  0.61734700  0.13249000  1
  F  F7  1  0.27352400  0.38033900  0.30669400  1
  F  F8  1  0.23207400  0.11782400  0.81639300  1
  F  F9  1  0.24736700  0.10679500  0.47587000  1
  F  F10  1  0.23668100  0.89221000  0.64481400  1
  F  F11  1  0.23985200  0.87566400  0.98682600  1
  F  F12  1  0.23698300  0.12288300  0.14693400  1
  F  F13  1  0.23111400  0.87583300  0.30849000  1
loop_
_geom_bond_atom_site_label_1
_geom_bond_atom_site_label_2
_geom_bond_distance
_geom_bond_site_symmetry_2
Mn0 O5 1.997393 1_555
Mn0 O9 2.021076 1_655
Mn0 O3 2.050775 1_545
Mn1 O8 1.923448 1_655
Mn1 O2 1.951060 1_555
Mn2 O1 1.942428 1_556
Mn2 O7 1.998558 1_655
Mn2 O2 2.051207 1_545
Mn3 O4 1.999706 1_545
Mn3 O0 2.013663 1_555
Mn3 O6 2.023138 1_555
Mn4 O0 1.925356 1_565
Mn4 O3 1.958360 1_555
Mn5 O4 1.914012 1_555
Mn5 O1 1.924977 1_565
Mn6 O0 1.920266 1_555
Mn6 O5 1.939951 1_555
Mn7 O6 1.956586 1_555
Mn7 O7 1.975049 1_554
Mn7 O1 1.975069 1_555
Mn8 O9 1.969196 1_555
Mn8 O8 1.991184 1_555
Mn9 O8 1.947913 1_555
Mn9 O2 2.020150 1_555
Mn9 O7 2.053805 1_555
Mn10 O5 1.995229 1_555
Mn10 O3 2.008439 1_555
Mn10 O9 2.021808 1_555
Mn11 O4 1.960582 1_555
Mn11 O6 1.966383 1_555
F0 Mn8 2.109210 1_555
F0 Mn1 2.124642 1_545
F0 Mn0 2.160529 1_555
F1 Mn8 2.084460 1_555
F1 Mn2 2.122314 1_555
F1 Mn9 2.156721 1_555
F2 Mn1 2.056339 1_555
F2 Mn10 2.095809 1_555
F2 Mn8 2.132532 1_555
F3 Mn4 2.071471 1_555
F3 Mn11 2.100942 1_555
F3 Mn6 2.106340 1_555
F4 Mn9 2.011131 1_554
F4 Mn5 2.111161 1_555
F4 Mn7 2.123299 1_555
F5 Mn4 2.049812 1_455
F5 Mn6 2.139388 1_555
F5 Mn10 2.181789 1_555
F6 Mn5 2.000399 1_455
F6 Mn11 2.143967 1_555
F6 Mn7 2.198263 1_555
F7 Mn6 2.132501 1_555
F7 Mn3 2.155562 1_455
F7 Mn11 2.179950 1_555
F8 Mn2 2.024192 1_455
F8 Mn8 2.082637 1_555
F8 Mn1 2.147268 1_445
F9 Mn6 2.047855 1_555
F9 Mn4 2.109923 1_445
F9 Mn0 2.114807 1_455
F10 Mn10 2.151605 1_555
F10 Mn0 2.190563 1_465
F10 Mn1 2.190870 1_455
F11 Mn5 2.000226 1_456
F11 Mn9 2.129480 1_555
F11 Mn2 2.185648 1_465
F12 Mn7 2.053509 1_555
F12 Mn3 2.097163 1_455
F12 Mn5 2.165300 1_445
F13 Mn11 2.109337 1_555
F13 Mn4 2.138906 1_455
F13 Mn3 2.288489 1_465
