# generated using pymatgen
data_La2SiO5
_symmetry_space_group_name_H-M   'P 1'
_cell_length_a   8.21145929
_cell_length_b   8.21145929
_cell_length_c   11.05377836
_cell_angle_alpha   61.78258474
_cell_angle_beta   61.78258474
_cell_angle_gamma   50.82784599
_symmetry_Int_Tables_number   1
_chemical_formula_structural   La2SiO5
_chemical_formula_sum   'La8 Si4 O20'
_cell_volume   492.32817397
_cell_formula_units_Z   4
loop_
 _symmetry_equiv_pos_site_id
 _symmetry_equiv_pos_as_xyz
  1  'x, y, z'
loop_
 _atom_site_type_symbol
 _atom_site_label
 _atom_site_symmetry_multiplicity
 _atom_site_fract_x
 _atom_site_fract_y
 _atom_site_fract_z
 _atom_site_occupancy
  La  La0  1  0.76880209  0.52333518  0.66836806  1
  La  La1  1  0.21348663  0.71267622  0.96310156  1
  La  La2  1  0.28732378  0.78651337  0.53689844  1
  La  La3  1  0.52333518  0.76880209  0.16836806  1
  La  La4  1  0.47666482  0.23119791  0.83163194  1
  La  La5  1  0.71267622  0.21348663  0.46310156  1
  La  La6  1  0.78651337  0.28732378  0.03689844  1
  La  La7  1  0.23119791  0.47666482  0.33163194  1
  Si  Si0  1  0.73674276  0.90589215  0.31237988  1
  Si  Si1  1  0.09410785  0.26325724  0.18762012  1
  Si  Si2  1  0.90589215  0.73674276  0.81237988  1
  Si  Si3  1  0.26325724  0.09410785  0.68762012  1
  O  O0  1  0.91771667  0.88981290  0.15826472  1
  O  O1  1  0.13542191  0.24783191  0.56150073  1
  O  O2  1  0.39743282  0.83857396  0.68725103  1
  O  O3  1  0.16256412  0.42417864  0.16527781  1
  O  O4  1  0.57582136  0.83743588  0.33472219  1
  O  O5  1  0.57211801  0.39483278  0.89465571  1
  O  O6  1  0.60516722  0.42788199  0.60534429  1
  O  O7  1  0.11018710  0.08228333  0.34173528  1
  O  O8  1  0.24783191  0.13542191  0.06150073  1
  O  O9  1  0.16142604  0.60256718  0.81274897  1
  O  O10  1  0.83857396  0.39743282  0.18725103  1
  O  O11  1  0.75216809  0.86457809  0.93849927  1
  O  O12  1  0.88981290  0.91771667  0.65826472  1
  O  O13  1  0.39483278  0.57211801  0.39465571  1
  O  O14  1  0.42788199  0.60516722  0.10534429  1
  O  O15  1  0.42417864  0.16256412  0.66527781  1
  O  O16  1  0.83743588  0.57582136  0.83472219  1
  O  O17  1  0.60256718  0.16142604  0.31274897  1
  O  O18  1  0.86457809  0.75216809  0.43849927  1
  O  O19  1  0.08228333  0.11018710  0.84173528  1
loop_
_geom_bond_atom_site_label_1
_geom_bond_atom_site_label_2
_geom_bond_distance
_geom_bond_site_symmetry_2
La0 O6 2.374280 1_555
La0 O5 2.411505 1_555
La0 O16 2.433312 1_555
La0 O2 2.445477 1_555
La0 O18 2.463306 1_555
La0 O1 2.477249 1_655
La1 O14 2.385892 1_556
La1 O5 2.471282 1_555
La1 O3 2.478433 1_556
La1 O0 2.493610 1_456
La1 O9 2.518632 1_555
La1 O19 2.529483 1_565
La1 O2 2.698942 1_555
La2 O13 2.385892 1_555
La2 O6 2.471282 1_555
La2 O4 2.478433 1_555
La2 O7 2.493610 1_565
La2 O2 2.518632 1_555
La2 O12 2.529483 1_455
La2 O9 2.698942 1_555
La3 O14 2.374280 1_555
La3 O13 2.411505 1_555
La3 O4 2.433312 1_555
La3 O10 2.445477 1_555
La3 O11 2.463306 1_554
La3 O8 2.477249 1_565
La4 O5 2.374280 1_555
La4 O6 2.411505 1_555
La4 O15 2.433312 1_555
La4 O9 2.445477 1_555
La4 O8 2.463306 1_556
La4 O11 2.477249 1_545
La5 O6 2.385892 1_555
La5 O13 2.471282 1_555
La5 O15 2.478433 1_555
La5 O12 2.493610 1_545
La5 O17 2.518632 1_555
La5 O7 2.529483 1_655
La5 O10 2.698942 1_555
La6 O5 2.385892 1_554
La6 O14 2.471282 1_555
La6 O16 2.478433 1_554
La6 O19 2.493610 1_654
La6 O10 2.518632 1_555
La6 O0 2.529483 1_545
La6 O17 2.698942 1_555
La7 O13 2.374280 1_555
La7 O14 2.411505 1_555
La7 O3 2.433312 1_555
La7 O17 2.445477 1_555
La7 O1 2.463306 1_555
La7 O18 2.477249 1_455
O0 Si0 1.642794 1_555
O1 Si3 1.638476 1_555
O2 Si3 1.643189 1_565
O3 Si1 1.619126 1_555
O4 Si0 1.619126 1_555
O7 Si1 1.642794 1_555
O8 Si1 1.638476 1_555
O9 Si2 1.643189 1_455
O10 Si1 1.643189 1_655
O11 Si2 1.638476 1_555
O12 Si2 1.642794 1_555
O15 Si3 1.619126 1_555
O16 Si2 1.619126 1_555
O17 Si0 1.643189 1_545
O18 Si0 1.638476 1_555
O19 Si3 1.642794 1_555
