# generated using pymatgen
data_Cr2Fe3Ni(PO4)6
_symmetry_space_group_name_H-M   'P 1'
_cell_length_a   8.39784236
_cell_length_b   8.39784236
_cell_length_c   8.39784175
_cell_angle_alpha   61.82177579
_cell_angle_beta   61.82177579
_cell_angle_gamma   61.82177996
_symmetry_Int_Tables_number   1
_chemical_formula_structural   Cr2Fe3Ni(PO4)6
_chemical_formula_sum   'Cr2 Fe3 Ni1 P6 O24'
_cell_volume   435.86888353
_cell_formula_units_Z   1
loop_
 _symmetry_equiv_pos_site_id
 _symmetry_equiv_pos_as_xyz
  1  'x, y, z'
loop_
 _atom_site_type_symbol
 _atom_site_label
 _atom_site_symmetry_multiplicity
 _atom_site_fract_x
 _atom_site_fract_y
 _atom_site_fract_z
 _atom_site_occupancy
  Cr  Cr0  1  0.99902900  0.99902900  0.99902900  1
  Cr  Cr1  1  0.49944800  0.49944800  0.49944800  1
  Fe  Fe0  1  0.14577100  0.14577100  0.14577100  1
  Fe  Fe1  1  0.35307000  0.35307000  0.35307000  1
  Fe  Fe2  1  0.64677400  0.64677400  0.64677400  1
  Ni  Ni0  1  0.85656800  0.85656800  0.85656800  1
  P  P0  1  0.75080900  0.04906800  0.45210300  1
  P  P1  1  0.04906800  0.45210300  0.75080900  1
  P  P2  1  0.45210300  0.75080900  0.04906800  1
  P  P3  1  0.54972300  0.24902800  0.95017500  1
  P  P4  1  0.95017500  0.54972300  0.24902800  1
  P  P5  1  0.24902800  0.95017500  0.54972300  1
  O  O0  1  0.32660600  0.10422100  0.50255400  1
  O  O1  1  0.50255400  0.32660600  0.10422100  1
  O  O2  1  0.90317100  0.06340600  0.24686300  1
  O  O3  1  0.10422100  0.50255400  0.32660600  1
  O  O4  1  0.82336100  0.01186500  0.60373100  1
  O  O5  1  0.59534400  0.25360400  0.43365100  1
  O  O6  1  0.06340600  0.24686300  0.90317100  1
  O  O7  1  0.25360400  0.43365100  0.59534400  1
  O  O8  1  0.39477000  0.17387100  0.99499400  1
  O  O9  1  0.43365100  0.59534400  0.25360400  1
  O  O10  1  0.75200300  0.09807500  0.93736200  1
  O  O11  1  0.99499400  0.39477000  0.17387100  1
  O  O12  1  0.01186500  0.60373100  0.82336100  1
  O  O13  1  0.24686300  0.90317100  0.06340600  1
  O  O14  1  0.56182300  0.40454400  0.74690500  1
  O  O15  1  0.60373100  0.82336100  0.01186500  1
  O  O16  1  0.74690500  0.56182300  0.40454400  1
  O  O17  1  0.93736200  0.75200300  0.09807500  1
  O  O18  1  0.40454400  0.74690500  0.56182300  1
  O  O19  1  0.17387100  0.99499400  0.39477000  1
  O  O20  1  0.89460800  0.49572800  0.67537400  1
  O  O21  1  0.09807500  0.93736200  0.75200300  1
  O  O22  1  0.49572800  0.67537400  0.89460800  1
  O  O23  1  0.67537400  0.89460800  0.49572800  1
loop_
_geom_bond_atom_site_label_1
_geom_bond_atom_site_label_2
_geom_bond_distance
_geom_bond_site_symmetry_2
Cr0 O21 2.059541 1_655
Cr0 O17 2.059541 1_556
Cr0 O10 2.059541 1_565
Cr0 O2 2.083582 1_566
Cr0 O6 2.083582 1_665
Cr0 O13 2.083582 1_656
Cr1 O14 2.073084 1_555
Cr1 O16 2.073084 1_555
Cr1 O18 2.073085 1_555
Cr1 O9 2.074404 1_555
Cr1 O7 2.074404 1_555
Cr1 O5 2.074404 1_555
Fe0 O19 1.927362 1_545
Fe0 O8 1.927362 1_554
Fe0 O11 1.927362 1_455
Fe0 O6 2.119584 1_554
Fe0 O2 2.119584 1_455
Fe0 O13 2.119584 1_545
Fe1 O1 1.920946 1_555
Fe1 O0 1.920946 1_555
Fe1 O3 1.920946 1_555
Fe1 O7 2.111063 1_555
Fe1 O9 2.111063 1_555
Fe1 O5 2.111063 1_555
Fe2 O22 1.920788 1_555
Fe2 O23 1.920789 1_555
Fe2 O20 1.920789 1_555
Fe2 O16 2.131332 1_555
Fe2 O14 2.131332 1_555
Fe2 O18 2.131332 1_555
Ni0 O4 1.971660 1_565
Ni0 O15 1.971661 1_556
Ni0 O12 1.971661 1_655
Ni0 O17 2.097554 1_556
Ni0 O21 2.097554 1_655
Ni0 O10 2.097554 1_565
O0 P5 1.524193 1_545
O1 P3 1.524193 1_554
O2 P0 1.577679 1_555
O3 P4 1.524193 1_455
O4 P0 1.505811 1_555
O5 P0 1.581349 1_555
O6 P1 1.577679 1_555
O7 P1 1.581349 1_555
O8 P3 1.523837 1_555
O9 P2 1.581349 1_555
O10 P3 1.557773 1_555
O11 P4 1.523837 1_555
O12 P1 1.505811 1_555
O13 P2 1.577679 1_555
O14 P3 1.576682 1_555
O15 P2 1.505811 1_555
O16 P4 1.576682 1_555
O17 P4 1.557773 1_555
O18 P5 1.576682 1_555
O19 P5 1.523837 1_555
O20 P1 1.525170 1_655
O21 P5 1.557773 1_555
O22 P2 1.525170 1_556
O23 P0 1.525170 1_565
