# generated using pymatgen
data_VFeP2(O4F)2
_symmetry_space_group_name_H-M   'P 1'
_cell_length_a   7.05181091
_cell_length_b   7.63564959
_cell_length_c   7.38247467
_cell_angle_alpha   91.71745767
_cell_angle_beta   117.43802545
_cell_angle_gamma   88.14406318
_symmetry_Int_Tables_number   1
_chemical_formula_structural   VFeP2(O4F)2
_chemical_formula_sum   'V2 Fe2 P4 O16 F4'
_cell_volume   352.55865211
_cell_formula_units_Z   2
loop_
 _symmetry_equiv_pos_site_id
 _symmetry_equiv_pos_as_xyz
  1  'x, y, z'
loop_
 _atom_site_type_symbol
 _atom_site_label
 _atom_site_symmetry_multiplicity
 _atom_site_fract_x
 _atom_site_fract_y
 _atom_site_fract_z
 _atom_site_occupancy
  V  V0  1  0.49996100  0.50005500  0.00006600  1
  V  V1  1  0.00015300  0.99993100  0.00009700  1
  Fe  Fe0  1  0.00008300  0.49988900  0.50018800  1
  Fe  Fe1  1  0.50015000  0.00001600  0.49992100  1
  P  P0  1  0.26642600  0.84878500  0.75153800  1
  P  P1  1  0.76643000  0.34877300  0.75165900  1
  P  P2  1  0.73347500  0.15124700  0.24828200  1
  P  P3  1  0.23361900  0.65119800  0.24847800  1
  O  O0  1  0.19396300  0.94045900  0.90393900  1
  O  O1  1  0.69388200  0.44047100  0.90392400  1
  O  O2  1  0.80612500  0.05953800  0.09611000  1
  O  O3  1  0.30597800  0.55956700  0.09605400  1
  O  O4  1  0.58180500  0.24324000  0.59359500  1
  O  O5  1  0.08172700  0.74326800  0.59357900  1
  O  O6  1  0.41830800  0.75669500  0.40643200  1
  O  O7  1  0.91805600  0.25680200  0.40633400  1
  O  O8  1  0.34588600  0.99076300  0.66545300  1
  O  O9  1  0.84589600  0.49078700  0.66553200  1
  O  O10  1  0.65400000  0.00924600  0.33438300  1
  O  O11  1  0.15411500  0.50922900  0.33453600  1
  O  O12  1  0.54204600  0.27921000  0.11732000  1
  O  O13  1  0.04224400  0.77930100  0.11755600  1
  O  O14  1  0.45778900  0.72073100  0.88243600  1
  O  O15  1  0.95785100  0.22076300  0.88257200  1
  F  F0  1  0.22529000  0.08523100  0.24642200  1
  F  F1  1  0.72514000  0.58520200  0.24641300  1
  F  F2  1  0.77485200  0.91484000  0.75360000  1
  F  F3  1  0.27475100  0.41476500  0.75358000  1
loop_
_geom_bond_atom_site_label_1
_geom_bond_atom_site_label_2
_geom_bond_distance
_geom_bond_site_symmetry_2
Fe0 O7 1.970527 1_455
Fe0 O5 1.971547 1_555
Fe0 O9 1.977405 1_455
Fe0 O11 1.978606 1_555
Fe1 O4 1.970837 1_555
Fe1 O6 1.971492 1_545
Fe1 O10 1.976740 1_555
Fe1 O8 1.979152 1_545
O0 P0 1.573659 1_555
O0 V1 1.847335 1_556
O1 P1 1.573263 1_555
O1 V0 1.848142 1_556
O2 P2 1.573174 1_555
O2 V1 1.848181 1_645
O3 P3 1.573199 1_555
O3 V0 1.847608 1_555
O4 P1 1.522348 1_555
O5 P0 1.522277 1_555
O6 P3 1.522146 1_555
O7 P2 1.522245 1_555
O8 P0 1.517217 1_555
O9 P1 1.517634 1_555
O10 P2 1.517481 1_555
O11 P3 1.517226 1_555
O12 P2 1.574842 1_555
O12 V0 1.870643 1_555
O13 P3 1.575215 1_555
O13 V1 1.869777 1_555
O14 P0 1.574897 1_555
O14 V0 1.870575 1_556
O15 P1 1.574944 1_555
O15 V1 1.871259 1_646
F0 V1 1.893934 1_545
F0 Fe1 2.081096 1_555
F1 V0 1.893746 1_555
F1 Fe0 2.082602 1_655
F2 V1 1.894575 1_656
F2 Fe1 2.081078 1_565
F3 V0 1.894787 1_556
F3 Fe0 2.079816 1_555
