# generated using pymatgen
data_Y2Zr2O7
_symmetry_space_group_name_H-M   'P 1'
_cell_length_a   5.54618900
_cell_length_b   7.89282600
_cell_length_c   13.86062718
_cell_angle_alpha   81.55675978
_cell_angle_beta   90.00000000
_cell_angle_gamma   90.00000000
_symmetry_Int_Tables_number   1
_chemical_formula_structural   Y2Zr2O7
_chemical_formula_sum   'Y8 Zr8 O28'
_cell_volume   600.17432735
_cell_formula_units_Z   4
loop_
 _symmetry_equiv_pos_site_id
 _symmetry_equiv_pos_as_xyz
  1  'x, y, z'
loop_
 _atom_site_type_symbol
 _atom_site_label
 _atom_site_symmetry_multiplicity
 _atom_site_fract_x
 _atom_site_fract_y
 _atom_site_fract_z
 _atom_site_occupancy
  Y  Y0  1  0.32692300  0.86245400  0.55921100  1
  Y  Y1  1  0.77926700  0.76274900  0.92765900  1
  Y  Y2  1  0.24343300  0.71329600  0.13395300  1
  Y  Y3  1  0.75918000  0.63819800  0.39871100  1
  Y  Y4  1  0.25918000  0.36180200  0.60128900  1
  Y  Y5  1  0.74343300  0.28670400  0.86604700  1
  Y  Y6  1  0.27926700  0.23725100  0.07234100  1
  Y  Y7  1  0.82692300  0.13754600  0.44078900  1
  Zr  Zr0  1  0.26496400  0.92576400  0.31970300  1
  Zr  Zr1  1  0.76323100  0.97318500  0.11857800  1
  Zr  Zr2  1  0.77666800  0.58934200  0.67308400  1
  Zr  Zr3  1  0.26505000  0.53227800  0.87492300  1
  Zr  Zr4  1  0.76505000  0.46772200  0.12507700  1
  Zr  Zr5  1  0.27666800  0.41065800  0.32691600  1
  Zr  Zr6  1  0.26323100  0.02681500  0.88142200  1
  Zr  Zr7  1  0.76496400  0.07423600  0.68029700  1
  O  O0  1  0.55125500  0.92251800  0.41693300  1
  O  O1  1  0.42051700  0.00400100  0.17450100  1
  O  O2  1  0.63433100  0.83032700  0.67408700  1
  O  O3  1  0.38507500  0.77804100  0.88330900  1
  O  O4  1  0.04369700  0.84602300  0.43428600  1
  O  O5  1  0.05077100  0.92552800  0.02155900  1
  O  O6  1  0.96659200  0.86173100  0.22950800  1
  O  O7  1  0.11079500  0.63433900  0.62248100  1
  O  O8  1  0.91542600  0.58466600  0.82683800  1
  O  O9  1  0.63548800  0.72850900  0.08470900  1
  O  O10  1  0.40243400  0.67650800  0.29853600  1
  O  O11  1  0.57622500  0.57776100  0.54754800  1
  O  O12  1  0.54656800  0.43957600  0.97680600  1
  O  O13  1  0.47459700  0.47449100  0.76654300  1
  O  O14  1  0.97459700  0.52550900  0.23345700  1
  O  O15  1  0.04656800  0.56042400  0.02319400  1
  O  O16  1  0.07622500  0.42223900  0.45245200  1
  O  O17  1  0.90243400  0.32349200  0.70146400  1
  O  O18  1  0.13548800  0.27149100  0.91529100  1
  O  O19  1  0.41542600  0.41533400  0.17316200  1
  O  O20  1  0.61079500  0.36566100  0.37751900  1
  O  O21  1  0.46659200  0.13826900  0.77049200  1
  O  O22  1  0.55077100  0.07447200  0.97844100  1
  O  O23  1  0.54369700  0.15397700  0.56571400  1
  O  O24  1  0.88507500  0.22195900  0.11669100  1
  O  O25  1  0.13433100  0.16967300  0.32591300  1
  O  O26  1  0.92051700  0.99599900  0.82549900  1
  O  O27  1  0.05125500  0.07748200  0.58306700  1
loop_
_geom_bond_atom_site_label_1
_geom_bond_atom_site_label_2
_geom_bond_distance
_geom_bond_site_symmetry_2
O0 Zr0 2.080364 1_555
O0 Y0 2.321042 1_555
O0 Y7 2.343524 1_565
O0 Y3 2.568271 1_555
O1 Zr1 2.080438 1_545
O1 Zr0 2.193440 1_545
O1 Y6 2.289658 1_555
O1 Y2 2.631314 1_545
O2 Zr2 2.061300 1_555
O2 Zr7 2.070537 1_565
O2 Y0 2.321171 1_555
O3 Zr3 2.070155 1_555
O3 Zr6 2.073094 1_565
O3 Y1 2.269451 1_555
O4 Zr0 2.032470 1_555
O4 Y0 2.355521 1_555
O4 Y3 2.379363 1_455
O4 Y7 2.609369 1_465
O5 Zr1 2.154436 1_455
O5 Zr6 2.311810 1_564
O5 Y2 2.368195 1_555
O5 Y1 2.470451 1_454
O5 Y6 2.943372 1_565
O6 Zr1 2.003211 1_555
O6 Zr0 2.177688 1_655
O6 Y2 2.437194 1_655
O6 Y3 2.953173 1_555
O7 Zr2 1.994750 1_455
O7 Y0 2.232474 1_555
O7 Y4 2.361416 1_555
O8 Zr3 2.072266 1_655
O8 Y1 2.252904 1_555
O8 Zr2 2.261021 1_555
O8 Y5 2.522052 1_555
O9 Zr1 2.172104 1_555
O9 Zr4 2.174397 1_555
O9 Y2 2.276904 1_555
O9 Y1 2.296666 1_554
O10 Zr0 2.169628 1_555
O10 Zr5 2.191297 1_555
O10 Y3 2.410564 1_555
O10 Y2 2.423105 1_555
O11 Zr2 2.078113 1_555
O11 Y3 2.285618 1_555
O11 Y4 2.485830 1_555
O11 Y0 2.663410 1_555
O12 Zr3 2.159619 1_555
O12 Y5 2.355582 1_555
O12 Zr4 2.423901 1_556
O12 Y6 2.424958 1_556
O12 Y1 2.850567 1_555
O13 Zr3 2.004136 1_555
O13 Zr2 2.227496 1_555
O13 Y5 2.392032 1_555
O13 Y4 2.839590 1_555
O14 Zr4 2.004136 1_555
O14 Zr5 2.227496 1_655
O14 Y2 2.392032 1_655
O14 Y3 2.839590 1_555
O15 Zr4 2.159619 1_455
O15 Y2 2.355582 1_555
O15 Zr3 2.423901 1_554
O15 Y1 2.424958 1_454
O15 Y6 2.850567 1_555
O16 Zr5 2.078113 1_555
O16 Y4 2.285618 1_555
O16 Y3 2.485830 1_455
O16 Y7 2.663410 1_455
O17 Zr7 2.169628 1_555
O17 Zr2 2.191297 1_555
O17 Y4 2.410564 1_655
O17 Y5 2.423105 1_555
O18 Zr6 2.172104 1_555
O18 Zr3 2.174397 1_555
O18 Y5 2.276904 1_455
O18 Y6 2.296666 1_556
O19 Zr4 2.072266 1_555
O19 Y6 2.252904 1_555
O19 Zr5 2.261021 1_555
O19 Y2 2.522052 1_555
O20 Zr5 1.994750 1_555
O20 Y7 2.232474 1_555
O20 Y3 2.361416 1_555
O21 Zr6 2.003211 1_555
O21 Zr7 2.177688 1_555
O21 Y5 2.437194 1_555
O21 Y4 2.953173 1_555
O22 Zr6 2.154436 1_555
O22 Zr1 2.311810 1_546
O22 Y5 2.368195 1_555
O22 Y6 2.470451 1_556
O22 Y1 2.943372 1_545
O23 Zr7 2.032470 1_555
O23 Y7 2.355521 1_555
O23 Y4 2.379363 1_555
O23 Y0 2.609369 1_545
O24 Zr4 2.070155 1_555
O24 Zr1 2.073094 1_545
O24 Y6 2.269451 1_655
O25 Zr5 2.061300 1_555
O25 Zr0 2.070537 1_545
O25 Y7 2.321171 1_455
O26 Zr6 2.080438 1_665
O26 Zr7 2.193440 1_565
O26 Y1 2.289658 1_555
O26 Y5 2.631314 1_565
O27 Zr7 2.080364 1_455
O27 Y7 2.321042 1_455
O27 Y0 2.343524 1_545
O27 Y4 2.568271 1_555
