# generated using pymatgen
data_Li4Ti2V3Cr3O16
_symmetry_space_group_name_H-M   'P 1'
_cell_length_a   5.90161096
_cell_length_b   5.90161096
_cell_length_c   9.54883008
_cell_angle_alpha   89.75855853
_cell_angle_beta   89.75855853
_cell_angle_gamma   60.03404934
_symmetry_Int_Tables_number   1
_chemical_formula_structural   Li4Ti2V3Cr3O16
_chemical_formula_sum   'Li4 Ti2 V3 Cr3 O16'
_cell_volume   288.11489705
_cell_formula_units_Z   1
loop_
 _symmetry_equiv_pos_site_id
 _symmetry_equiv_pos_as_xyz
  1  'x, y, z'
loop_
 _atom_site_type_symbol
 _atom_site_label
 _atom_site_symmetry_multiplicity
 _atom_site_fract_x
 _atom_site_fract_y
 _atom_site_fract_z
 _atom_site_occupancy
  Li  Li0  1  0.67071500  0.67071500  0.10612200  1
  Li  Li1  1  0.99832300  0.99832300  0.00612900  1
  Li  Li2  1  0.99742100  0.99742100  0.50490200  1
  Li  Li3  1  0.33581300  0.33581300  0.60909700  1
  Ti  Ti0  1  0.66589600  0.66589600  0.50356300  1
  Ti  Ti1  1  0.33095900  0.33095900  0.00226300  1
  V  V0  1  0.18030600  0.64685900  0.28277900  1
  V  V1  1  0.82547900  0.82547900  0.77980400  1
  V  V2  1  0.64685900  0.18030600  0.28277900  1
  Cr  Cr0  1  0.34046600  0.82850900  0.78584900  1
  Cr  Cr1  1  0.82850900  0.34046600  0.78584900  1
  Cr  Cr2  1  0.16801700  0.16801700  0.28698200  1
  O  O0  1  0.33534100  0.82853400  0.40500100  1
  O  O1  1  0.52174100  0.52174100  0.65977900  1
  O  O2  1  0.67572600  0.67572600  0.89455200  1
  O  O3  1  0.99291100  0.99291100  0.69361600  1
  O  O4  1  0.99474200  0.99474200  0.19500600  1
  O  O5  1  0.82853400  0.33534100  0.40500100  1
  O  O6  1  0.52359400  0.96119000  0.65764200  1
  O  O7  1  0.96119000  0.52359400  0.65764200  1
  O  O8  1  0.16681900  0.16681900  0.90505100  1
  O  O9  1  0.82904500  0.82904500  0.40464100  1
  O  O10  1  0.04331000  0.48024000  0.15890600  1
  O  O11  1  0.48024000  0.04331000  0.15890600  1
  O  O12  1  0.33433700  0.33433700  0.39922200  1
  O  O13  1  0.16659700  0.66207700  0.90403500  1
  O  O14  1  0.48418700  0.48418700  0.15281700  1
  O  O15  1  0.66207700  0.16659700  0.90403500  1
loop_
_geom_bond_atom_site_label_1
_geom_bond_atom_site_label_2
_geom_bond_distance
_geom_bond_site_symmetry_2
Li0 O14 1.955678 1_555
Li0 O10 1.971843 1_655
Li0 O11 1.971843 1_565
Li0 O2 2.020646 1_554
Li1 O4 1.803748 1_555
Li1 O8 1.969988 1_664
Li1 O15 1.978364 1_564
Li1 O13 1.978364 1_654
Li2 O3 1.802363 1_555
Li2 O5 1.971513 1_565
Li2 O0 1.971513 1_655
Li2 O9 1.973282 1_555
Li3 O1 1.963150 1_555
Li3 O7 1.969540 1_455
Li3 O6 1.969540 1_545
Li3 O12 2.004191 1_555
Cr0 O1 1.985955 1_555
Cr0 O3 1.985991 1_455
Cr0 O2 2.008088 1_555
Cr0 O6 2.026339 1_555
Cr0 O13 2.068566 1_555
Cr0 O8 2.073030 1_565
Cr1 O1 1.985955 1_555
Cr1 O3 1.985991 1_545
Cr1 O2 2.008088 1_555
Cr1 O7 2.026339 1_555
Cr1 O15 2.068566 1_555
Cr1 O8 2.073030 1_655
Cr2 O4 1.980543 1_445
Cr2 O12 2.013894 1_555
Cr2 O10 2.016542 1_555
Cr2 O11 2.016542 1_555
Cr2 O5 2.067146 1_455
Cr2 O0 2.067146 1_545
O0 Ti0 1.936500 1_555
O0 V0 2.085258 1_555
O1 Ti0 2.091479 1_555
O2 V1 1.877944 1_555
O3 V1 1.895189 1_555
O4 V0 1.965715 1_655
O4 V2 1.965715 1_565
O5 Ti0 1.936500 1_555
O5 V2 2.085258 1_555
O6 V1 1.939205 1_555
O6 Ti0 2.110953 1_555
O7 V1 1.939205 1_555
O7 Ti0 2.110953 1_555
O8 Ti1 1.921183 1_556
O9 Ti0 1.912370 1_555
O9 V0 2.138008 1_655
O9 V2 2.138008 1_565
O10 V0 1.957488 1_555
O10 Ti1 2.095457 1_555
O11 V2 1.957488 1_555
O11 Ti1 2.095457 1_555
O12 V0 1.944417 1_555
O12 V2 1.944417 1_555
O13 Ti1 1.933381 1_556
O13 V1 2.112120 1_455
O14 V2 1.987282 1_555
O14 V0 1.987282 1_555
O14 Ti1 2.130971 1_555
O15 Ti1 1.933381 1_556
O15 V1 2.112120 1_545
