# generated using pymatgen
data_LiV8F33
_symmetry_space_group_name_H-M   'P 1'
_cell_length_a   8.88540126
_cell_length_b   8.88540126
_cell_length_c   18.44490700
_cell_angle_alpha   90.00000000
_cell_angle_beta   90.00000000
_cell_angle_gamma   119.99999449
_symmetry_Int_Tables_number   1
_chemical_formula_structural   LiV8F33
_chemical_formula_sum   'Li2 V16 F66'
_cell_volume   1261.13394611
_cell_formula_units_Z   2
loop_
 _symmetry_equiv_pos_site_id
 _symmetry_equiv_pos_as_xyz
  1  'x, y, z'
loop_
 _atom_site_type_symbol
 _atom_site_label
 _atom_site_symmetry_multiplicity
 _atom_site_fract_x
 _atom_site_fract_y
 _atom_site_fract_z
 _atom_site_occupancy
  Li  Li0  1  0.33333300  0.66666700  0.13400700  1
  Li  Li1  1  0.66666700  0.33333300  0.63400700  1
  V  V0  1  0.00552500  0.67330800  0.24652500  1
  V  V1  1  0.00364000  0.33862900  0.87950200  1
  V  V2  1  0.33498900  0.99636000  0.87950200  1
  V  V3  1  0.00000000  0.00000000  0.00633200  1
  V  V4  1  0.00000000  0.00000000  0.50633200  1
  V  V5  1  0.33333300  0.66666700  0.61979600  1
  V  V6  1  0.32669200  0.33221700  0.24652500  1
  V  V7  1  0.33221700  0.32669200  0.74652500  1
  V  V8  1  0.66778300  0.99447500  0.24652500  1
  V  V9  1  0.66137100  0.66501100  0.87950200  1
  V  V10  1  0.66501100  0.66137100  0.37950200  1
  V  V11  1  0.33862900  0.00364000  0.37950200  1
  V  V12  1  0.66666700  0.33333300  0.11979600  1
  V  V13  1  0.99447500  0.66778300  0.74652500  1
  V  V14  1  0.67330800  0.00552500  0.74652500  1
  V  V15  1  0.99636000  0.33498900  0.37950200  1
  F  F0  1  0.06917900  0.86527600  0.05064500  1
  F  F1  1  0.06958400  0.86485100  0.19860600  1
  F  F2  1  0.13157500  0.92907400  0.43317800  1
  F  F3  1  0.14204500  0.87021600  0.81075000  1
  F  F4  1  0.20293800  0.79847700  0.31161800  1
  F  F5  1  0.06419900  0.53972200  0.81072800  1
  F  F6  1  0.12679200  0.60349500  0.18731100  1
  F  F7  1  0.20079800  0.73376000  0.69240700  1
  F  F8  1  0.25137900  0.79670900  0.92784200  1
  F  F9  1  0.13147600  0.52668300  0.42648200  1
  F  F10  1  0.13255500  0.52975200  0.57620900  1
  F  F11  1  0.39520700  0.86852400  0.42648200  1
  F  F12  1  0.07092600  0.20250000  0.43317800  1
  F  F13  1  0.39719800  0.86744500  0.57620900  1
  F  F14  1  0.20329100  0.45467000  0.92784200  1
  F  F15  1  0.12978400  0.27182900  0.81075000  1
  F  F16  1  0.47552400  0.93580100  0.81072800  1
  F  F17  1  0.20152300  0.40446100  0.31161800  1
  F  F18  1  0.47670300  0.87320800  0.18731100  1
  F  F19  1  0.13472400  0.20390400  0.05064500  1
  F  F20  1  0.13514900  0.20473300  0.19860600  1
  F  F21  1  0.26624000  0.46703800  0.69240700  1
  F  F22  1  0.53296200  0.79920200  0.69240700  1
  F  F23  1  0.20390400  0.13472400  0.55064500  1
  F  F24  1  0.20473300  0.13514900  0.69860600  1
  F  F25  1  0.39650500  0.52329700  0.18731100  1
  F  F26  1  0.20250000  0.07092600  0.93317800  1
  F  F27  1  0.47024800  0.60280200  0.57620900  1
  F  F28  1  0.54533000  0.74862100  0.92784200  1
  F  F29  1  0.47331700  0.60479300  0.42648200  1
  F  F30  1  0.46027800  0.52447600  0.81072800  1
  F  F31  1  0.59553900  0.79706200  0.31161800  1
  F  F32  1  0.27182900  0.12978400  0.31075000  1
  F  F33  1  0.40446100  0.20152300  0.81161800  1
  F  F34  1  0.72817100  0.85795500  0.81075000  1
  F  F35  1  0.52447600  0.46027800  0.31072800  1
  F  F36  1  0.79526700  0.93041600  0.19860600  1
  F  F37  1  0.52329700  0.39650500  0.68731100  1
  F  F38  1  0.79609600  0.93082100  0.05064500  1
  F  F39  1  0.46703800  0.26624000  0.19240700  1
  F  F40  1  0.45467000  0.20329100  0.42784200  1
  F  F41  1  0.60479300  0.47331700  0.92648200  1
  F  F42  1  0.60280200  0.47024800  0.07620900  1
  F  F43  1  0.79750000  0.86842500  0.43317800  1
  F  F44  1  0.52668300  0.13147600  0.92648200  1
  F  F45  1  0.86842500  0.79750000  0.93317800  1
  F  F46  1  0.52975200  0.13255500  0.07620900  1
  F  F47  1  0.74862100  0.54533000  0.42784200  1
  F  F48  1  0.85795500  0.72817100  0.31075000  1
  F  F49  1  0.53972200  0.06419900  0.31072800  1
  F  F50  1  0.79706200  0.59553900  0.81161800  1
  F  F51  1  0.60349500  0.12679200  0.68731100  1
  F  F52  1  0.93082100  0.79609600  0.55064500  1
  F  F53  1  0.93041600  0.79526700  0.69860600  1
  F  F54  1  0.79920200  0.53296200  0.19240700  1
  F  F55  1  0.73376000  0.20079800  0.19240700  1
  F  F56  1  0.87320800  0.47670300  0.68731100  1
  F  F57  1  0.86744500  0.39719800  0.07620900  1
  F  F58  1  0.79670900  0.25137900  0.42784200  1
  F  F59  1  0.86852400  0.39520700  0.92648200  1
  F  F60  1  0.93580100  0.47552400  0.31072800  1
  F  F61  1  0.79847700  0.20293800  0.81161800  1
  F  F62  1  0.87021600  0.14204500  0.31075000  1
  F  F63  1  0.86485100  0.06958400  0.69860600  1
  F  F64  1  0.86527600  0.06917900  0.55064500  1
  F  F65  1  0.92907400  0.13157500  0.93317800  1
loop_
_geom_bond_atom_site_label_1
_geom_bond_atom_site_label_2
_geom_bond_distance
_geom_bond_site_symmetry_2
F0 V3 1.792961 1_565
F1 V0 1.741566 1_555
F2 V11 1.893396 1_565
F2 V4 2.078793 1_565
F3 V2 1.970276 1_555
F3 V13 1.999865 1_455
F4 V0 1.950498 1_555
F4 V11 2.036348 1_565
F5 V13 1.945735 1_455
F5 V1 2.032210 1_555
F6 V0 1.845833 1_555
F6 Li0 1.902517 1_555
F7 V13 1.904261 1_455
F7 V5 2.058633 1_555
F8 V2 1.782136 1_555
F9 V15 1.745998 1_455
F10 V5 1.771625 1_555
F11 V11 1.745998 1_565
F12 V15 1.893403 1_455
F12 V4 2.078786 1_555
F13 V5 1.771621 1_555
F14 V1 1.782136 1_555
F15 V1 1.970276 1_555
F15 V7 1.999864 1_555
F16 V14 1.945728 1_565
F16 V2 2.032217 1_555
F17 V6 1.950498 1_555
F17 V15 2.036348 1_455
F18 V8 1.845833 1_555
F18 Li0 1.902518 1_555
F19 V3 1.792968 1_555
F20 V6 1.741566 1_555
F21 V7 1.904261 1_555
F21 V5 2.058640 1_555
F22 V14 1.904261 1_565
F22 V5 2.058638 1_555
F23 V4 1.792968 1_555
F24 V7 1.741566 1_555
F25 V6 1.845833 1_555
F25 Li0 1.902524 1_555
F26 V2 1.893403 1_545
F26 V3 2.078786 1_556
F27 V5 1.771636 1_555
F28 V9 1.782136 1_555
F29 V10 1.745998 1_555
F30 V7 1.945729 1_555
F30 V9 2.032212 1_555
F31 V8 1.950498 1_555
F31 V10 2.036348 1_555
F32 V11 1.970276 1_555
F32 V6 1.999864 1_555
F33 V7 1.950498 1_555
F33 V2 2.036348 1_545
F34 V9 1.970276 1_555
F34 V14 1.999864 1_565
F35 V6 1.945729 1_555
F35 V10 2.032212 1_555
F36 V8 1.741566 1_555
F37 V7 1.845833 1_555
F37 Li1 1.902524 1_555
F38 V3 1.792969 1_665
F39 V6 1.904261 1_555
F39 V12 2.058640 1_555
F40 V11 1.782136 1_555
F41 V9 1.745998 1_555
F42 V12 1.771636 1_555
F43 V10 1.893397 1_555
F43 V4 2.078788 1_665
F44 V2 1.745998 1_545
F45 V9 1.893397 1_555
F45 V3 2.078788 1_666
F46 V12 1.771625 1_555
F47 V10 1.782136 1_555
F48 V10 1.970276 1_555
F48 V0 1.999864 1_655
F49 V8 1.945735 1_545
F49 V11 2.032210 1_555
F50 V13 1.950498 1_555
F50 V9 2.036348 1_555
F51 V14 1.845833 1_555
F51 Li1 1.902517 1_555
F52 V4 1.792969 1_665
F53 V13 1.741566 1_555
F54 V0 1.904261 1_655
F54 V12 2.058638 1_555
F55 V8 1.904261 1_545
F55 V12 2.058633 1_555
F56 V13 1.845833 1_555
F56 Li1 1.902518 1_555
F57 V12 1.771621 1_555
F58 V15 1.782136 1_555
F59 V1 1.745998 1_655
F60 V0 1.945728 1_655
F60 V15 2.032217 1_555
F61 V14 1.950498 1_555
F61 V1 2.036348 1_655
F62 V15 1.970276 1_555
F62 V8 1.999865 1_545
F63 V14 1.741566 1_555
F64 V4 1.792961 1_655
F65 V1 1.893396 1_655
F65 V3 2.078793 1_656
