# generated using pymatgen
data_Cr11Ni40Mo9
_symmetry_space_group_name_H-M   'P 1'
_cell_length_a   6.24319100
_cell_length_b   9.18292861
_cell_length_c   12.58445597
_cell_angle_alpha   87.45481584
_cell_angle_beta   80.19384543
_cell_angle_gamma   77.46480642
_symmetry_Int_Tables_number   1
_chemical_formula_structural   Cr11Ni40Mo9
_chemical_formula_sum   'Cr11 Ni40 Mo9'
_cell_volume   693.96815535
_cell_formula_units_Z   1
loop_
 _symmetry_equiv_pos_site_id
 _symmetry_equiv_pos_as_xyz
  1  'x, y, z'
loop_
 _atom_site_type_symbol
 _atom_site_label
 _atom_site_symmetry_multiplicity
 _atom_site_fract_x
 _atom_site_fract_y
 _atom_site_fract_z
 _atom_site_occupancy
  Cr  Cr0  1  0.08875000  0.54529700  0.15461100  1
  Cr  Cr1  1  0.50392700  0.25377800  0.25104900  1
  Cr  Cr2  1  0.79787400  0.39993200  0.20280200  1
  Cr  Cr3  1  0.11104600  0.05489400  0.64606900  1
  Cr  Cr4  1  0.01019100  0.50564200  0.49562200  1
  Cr  Cr5  1  0.39433900  0.19411200  0.59997600  1
  Cr  Cr6  1  0.29995800  0.64845600  0.44949900  1
  Cr  Cr7  1  0.60226400  0.80155900  0.40009900  1
  Cr  Cr8  1  0.89069200  0.94447200  0.35265400  1
  Cr  Cr9  1  0.29815700  0.15036300  0.95015600  1
  Cr  Cr10  1  0.50314300  0.75262800  0.74686100  1
  Ni  Ni0  1  0.30021300  0.98552800  0.11769100  1
  Ni  Ni1  1  0.50405500  0.08264100  0.41836600  1
  Ni  Ni2  1  0.39989000  0.53035700  0.27090700  1
  Ni  Ni3  1  0.79651900  0.23477600  0.36493600  1
  Ni  Ni4  1  0.70227500  0.68127200  0.22154900  1
  Ni  Ni5  1  0.09471400  0.38667100  0.31714700  1
  Ni  Ni6  1  0.99791900  0.83441800  0.17315200  1
  Ni  Ni7  1  0.39944500  0.03419800  0.76487900  1
  Ni  Ni8  1  0.29704300  0.48333900  0.61229900  1
  Ni  Ni9  1  0.70482700  0.18351000  0.71349100  1
  Ni  Ni10  1  0.59819700  0.63810700  0.56292800  1
  Ni  Ni11  1  0.00495400  0.33229800  0.66412600  1
  Ni  Ni12  1  0.90293700  0.78085300  0.51117500  1
  Ni  Ni13  1  0.20071800  0.93092400  0.46708500  1
  Ni  Ni14  1  0.59340200  0.13472900  0.07231200  1
  Ni  Ni15  1  0.50407600  0.58512500  0.91763700  1
  Ni  Ni16  1  0.89964200  0.28444300  0.02057200  1
  Ni  Ni17  1  0.79930300  0.73315200  0.86589200  1
  Ni  Ni18  1  0.20097200  0.43364400  0.96996300  1
  Ni  Ni19  1  0.10173700  0.88526100  0.81326300  1
  Ni  Ni20  1  0.89257900  0.11807600  0.18584500  1
  Ni  Ni21  1  0.10358300  0.21667300  0.48320400  1
  Ni  Ni22  1  0.00233500  0.66625200  0.33449700  1
  Ni  Ni23  1  0.39526300  0.36628400  0.43187400  1
  Ni  Ni24  1  0.30253200  0.81372900  0.28879200  1
  Ni  Ni25  1  0.69720800  0.51951000  0.38364600  1
  Ni  Ni26  1  0.60129800  0.96563800  0.23827200  1
  Ni  Ni27  1  0.00121800  0.16622500  0.82957800  1
  Ni  Ni28  1  0.89882200  0.61508100  0.67693500  1
  Ni  Ni29  1  0.30302600  0.31348200  0.77957900  1
  Ni  Ni30  1  0.20313600  0.76656900  0.62863900  1
  Ni  Ni31  1  0.60174900  0.46857700  0.73059600  1
  Ni  Ni32  1  0.49840700  0.91838200  0.58106700  1
  Ni  Ni33  1  0.80502000  0.06455200  0.52900600  1
  Ni  Ni34  1  0.19640000  0.26927000  0.13482500  1
  Ni  Ni35  1  0.09534600  0.71448000  0.98475900  1
  Ni  Ni36  1  0.50160500  0.41484000  0.08836800  1
  Ni  Ni37  1  0.40109600  0.86707200  0.92908200  1
  Ni  Ni38  1  0.80125400  0.56317000  0.03825200  1
  Ni  Ni39  1  0.69643500  0.01663400  0.88393700  1
  Mo  Mo0  1  0.00303400  0.00315700  0.00011800  1
  Mo  Mo1  1  0.19885400  0.10106900  0.30204900  1
  Mo  Mo2  1  0.39174400  0.69660300  0.10460700  1
  Mo  Mo3  1  0.69884500  0.84941800  0.05304200  1
  Mo  Mo4  1  0.70146800  0.35182400  0.54636100  1
  Mo  Mo5  1  0.20429200  0.60193700  0.79657500  1
  Mo  Mo6  1  0.59496200  0.29839800  0.90169100  1
  Mo  Mo7  1  0.90288800  0.44828400  0.84973100  1
  Mo  Mo8  1  0.80242200  0.89843800  0.69630800  1
loop_
_geom_bond_atom_site_label_1
_geom_bond_atom_site_label_2
_geom_bond_distance
_geom_bond_site_symmetry_2
Cr0 Ni5 2.458611 1_555
Cr0 Cr2 2.460232 1_455
Cr0 Ni38 2.477670 1_455
Cr0 Ni4 2.486725 1_455
Cr0 Ni22 2.489296 1_555
Cr0 Ni34 2.489610 1_555
Cr0 Ni18 2.507368 1_554
Cr0 Mo2 2.561760 1_555
Cr0 Ni35 2.585941 1_554
Cr0 Ni2 2.601714 1_555
Cr0 Ni6 2.604099 1_455
Cr0 Ni36 2.605799 1_555
Cr1 Ni23 2.466697 1_555
Cr1 Ni14 2.468171 1_555
Cr1 Ni36 2.472010 1_555
Cr1 Ni3 2.480444 1_555
Cr1 Cr2 2.480927 1_555
Cr1 Ni20 2.492757 1_555
Cr1 Ni2 2.493981 1_555
Cr1 Ni1 2.570875 1_555
Cr1 Ni34 2.581703 1_555
Cr1 Mo1 2.582455 1_555
Cr1 Ni26 2.588983 1_545
Cr1 Ni5 2.592502 1_555
Cr2 Ni3 2.487600 1_555
Cr2 Ni16 2.492923 1_555
Cr2 Ni25 2.493052 1_555
Cr2 Ni38 2.501741 1_555
Cr2 Ni36 2.508737 1_555
Cr2 Ni5 2.512920 1_655
Cr2 Ni2 2.533122 1_555
Cr2 Ni4 2.534427 1_555
Cr2 Ni34 2.536189 1_655
Cr2 Ni20 2.536932 1_555
Cr3 Cr5 2.380157 1_555
Cr3 Ni21 2.478301 1_555
Cr3 Ni32 2.488047 1_545
Cr3 Ni13 2.490848 1_545
Cr3 Ni27 2.492892 1_555
Cr3 Ni11 2.499447 1_555
Cr3 Ni7 2.501351 1_555
Cr3 Ni19 2.561924 1_545
Cr3 Ni9 2.569528 1_455
Cr3 Ni33 2.588823 1_455
Cr3 Ni30 2.595508 1_545
Cr3 Mo8 2.623446 1_445
Cr4 Cr6 2.436004 1_555
Cr4 Ni22 2.454784 1_555
Cr4 Ni28 2.461629 1_455
Cr4 Ni5 2.465877 1_555
Cr4 Ni8 2.472835 1_555
Cr4 Ni12 2.477570 1_455
Cr4 Ni23 2.481856 1_555
Cr4 Ni25 2.575671 1_455
Cr4 Ni11 2.594369 1_555
Cr4 Ni21 2.596163 1_555
Cr4 Mo4 2.607729 1_455
Cr4 Ni10 2.608511 1_455
Cr5 Ni1 2.471946 1_555
Cr5 Ni29 2.478908 1_555
Cr5 Ni32 2.485272 1_545
Cr5 Ni7 2.489080 1_555
Cr5 Ni21 2.493162 1_555
Cr5 Ni11 2.501034 1_555
Cr5 Ni9 2.580051 1_555
Cr5 Ni23 2.584125 1_555
Cr5 Ni8 2.598324 1_555
Cr5 Ni33 2.603316 1_555
Cr5 Mo4 2.628178 1_555
Cr6 Ni2 2.462051 1_555
Cr6 Ni30 2.468281 1_555
Cr6 Ni24 2.474004 1_555
Cr6 Ni8 2.494018 1_555
Cr6 Ni10 2.515952 1_555
Cr6 Ni22 2.517338 1_555
Cr6 Ni12 2.518886 1_455
Cr6 Ni25 2.520338 1_555
Cr6 Ni23 2.540514 1_555
Cr6 Ni13 2.543177 1_555
Cr6 Cr7 2.569000 1_555
Cr7 Cr8 2.431322 1_555
Cr7 Ni4 2.470210 1_555
Cr7 Ni26 2.478977 1_555
Cr7 Ni32 2.483908 1_555
Cr7 Ni10 2.485574 1_555
Cr7 Ni12 2.495810 1_555
Cr7 Ni24 2.502885 1_555
Cr7 Ni1 2.531573 1_565
Cr7 Ni25 2.538093 1_555
Cr7 Ni13 2.546152 1_555
Cr7 Ni22 2.550603 1_655
Cr8 Ni6 2.442593 1_555
Cr8 Ni12 2.445172 1_555
Cr8 Ni33 2.446274 1_565
Cr8 Ni26 2.466305 1_555
Cr8 Ni1 2.490814 1_565
Cr8 Ni22 2.507991 1_655
Cr8 Ni20 2.578903 1_565
Cr8 Ni13 2.581586 1_655
Cr8 Ni24 2.596191 1_655
Cr8 Ni3 2.607979 1_565
Cr8 Mo1 2.622433 1_665
Cr9 Mo0 2.495702 1_556
Cr9 Mo6 2.507671 1_555
Cr9 Ni7 2.529835 1_555
Cr9 Ni34 2.533380 1_556
Cr9 Ni39 2.538680 1_555
Cr9 Ni0 2.540431 1_546
Cr9 Ni16 2.550993 1_456
Cr9 Ni18 2.553082 1_555
Cr9 Ni37 2.555063 1_545
Cr9 Ni29 2.562146 1_555
Cr9 Ni27 2.565513 1_555
Cr9 Ni14 2.571417 1_556
Cr10 Ni37 2.488905 1_555
Cr10 Ni10 2.508650 1_555
Cr10 Mo8 2.508804 1_555
Cr10 Ni32 2.527902 1_555
Cr10 Ni7 2.536042 1_565
Cr10 Mo5 2.536462 1_555
Cr10 Ni17 2.543747 1_555
Cr10 Ni28 2.544792 1_555
Cr10 Ni19 2.552284 1_555
Cr10 Ni31 2.555816 1_555
Cr10 Ni30 2.562449 1_555
Cr10 Ni15 2.586794 1_555
Ni0 Ni14 2.493363 1_565
Ni0 Ni34 2.554382 1_565
Ni0 Ni6 2.564480 1_455
Ni0 Ni37 2.576108 1_554
Ni0 Ni26 2.582123 1_555
Ni0 Ni20 2.588133 1_465
Ni0 Ni24 2.612359 1_555
Ni1 Ni26 2.474655 1_545
Ni1 Ni32 2.488558 1_545
Ni1 Ni33 2.496381 1_555
Ni1 Ni3 2.518618 1_555
Ni1 Ni21 2.547602 1_555
Ni1 Ni23 2.550805 1_555
Ni1 Ni13 2.564622 1_545
Ni2 Ni23 2.470258 1_555
Ni2 Ni36 2.496509 1_555
Ni2 Ni25 2.504511 1_555
Ni2 Ni5 2.520921 1_555
Ni2 Ni22 2.534897 1_555
Ni2 Ni24 2.551533 1_555
Ni2 Ni4 2.555410 1_555
Ni3 Ni33 2.534572 1_555
Ni3 Ni5 2.538595 1_655
Ni4 Ni6 2.534424 1_555
Ni7 Ni9 2.563035 1_555
Ni10 Ni25 2.471722 1_555
Ni10 Ni30 2.507522 1_555
Ni10 Ni28 2.518680 1_555
Ni10 Ni12 2.519283 1_555
Ni10 Ni32 2.524306 1_555
Ni10 Ni31 2.566207 1_555
Ni10 Ni8 2.573808 1_555
Ni11 Ni21 2.478653 1_555
Ni11 Ni8 2.507385 1_555
Ni11 Ni29 2.522489 1_555
Ni11 Ni27 2.525550 1_555
Ni11 Ni9 2.530430 1_455
Ni11 Ni28 2.542081 1_455
Ni11 Ni31 2.571149 1_455
Ni12 Ni22 2.427019 1_655
Ni12 Ni13 2.521130 1_655
Ni12 Ni28 2.527066 1_555
Ni12 Ni33 2.554397 1_565
Ni12 Ni30 2.556314 1_655
Ni12 Ni32 2.589302 1_555
Ni13 Ni24 2.455244 1_555
Ni13 Ni30 2.477803 1_555
Ni13 Ni32 2.515034 1_555
Ni13 Ni33 2.515802 1_465
Ni13 Ni21 2.570793 1_565
Ni14 Ni20 2.513781 1_555
Ni14 Ni36 2.520417 1_555
Ni14 Ni34 2.526154 1_555
Ni14 Ni26 2.547388 1_545
Ni14 Ni16 2.570393 1_555
Ni14 Ni39 2.572090 1_554
Ni15 Ni17 2.503824 1_555
Ni15 Ni37 2.533090 1_555
Ni15 Ni31 2.551319 1_555
Ni15 Ni38 2.560585 1_556
Ni15 Ni18 2.566391 1_555
Ni15 Ni35 2.583646 1_555
Ni15 Ni36 2.600486 1_556
Ni16 Ni34 2.509347 1_655
Ni16 Ni38 2.509895 1_555
Ni16 Ni20 2.525387 1_555
Ni16 Ni36 2.532579 1_555
Ni16 Ni18 2.540702 1_654
Ni16 Ni27 2.602199 1_654
Ni17 Ni37 2.532122 1_555
Ni17 Ni35 2.542539 1_655
Ni17 Ni39 2.552991 1_565
Ni17 Ni19 2.567399 1_655
Ni17 Ni28 2.578646 1_555
Ni17 Ni38 2.615628 1_556
Ni18 Ni34 2.510773 1_556
Ni18 Ni35 2.526432 1_555
Ni18 Ni38 2.540215 1_456
Ni18 Ni36 2.561641 1_556
Ni18 Ni29 2.602577 1_555
Ni19 Ni7 2.517905 1_565
Ni19 Ni27 2.528454 1_565
Ni19 Ni30 2.532048 1_555
Ni19 Ni37 2.532986 1_555
Ni19 Ni39 2.579309 1_465
Ni19 Ni35 2.610756 1_555
Ni20 Ni3 2.462248 1_555
Ni20 Ni26 2.513189 1_545
Ni20 Ni6 2.549634 1_545
Ni20 Ni34 2.566506 1_655
Ni21 Ni23 2.495467 1_555
Ni21 Ni33 2.539849 1_455
Ni21 Ni5 2.553271 1_555
Ni21 Ni3 2.594126 1_455
Ni22 Ni6 2.496053 1_455
Ni22 Ni4 2.515190 1_455
Ni22 Ni5 2.517112 1_555
Ni22 Ni24 2.518499 1_555
Ni22 Ni25 2.542866 1_455
Ni23 Ni8 2.478553 1_555
Ni23 Ni5 2.527185 1_555
Ni23 Ni3 2.549886 1_555
Ni23 Ni25 2.566631 1_555
Ni24 Ni26 2.544810 1_555
Ni24 Ni4 2.545253 1_555
Ni24 Ni6 2.555759 1_455
Ni25 Ni4 2.469424 1_555
Ni25 Ni5 2.533055 1_655
Ni25 Ni3 2.564706 1_555
Ni26 Ni6 2.521178 1_555
Ni26 Ni4 2.559238 1_555
Ni27 Ni9 2.521151 1_455
Ni27 Ni29 2.530113 1_555
Ni27 Ni7 2.530566 1_555
Ni27 Ni39 2.565826 1_455
Ni28 Ni31 2.506310 1_555
Ni28 Ni8 2.529664 1_655
Ni28 Ni30 2.567678 1_655
Ni29 Ni7 2.511583 1_555
Ni29 Ni9 2.546910 1_555
Ni29 Ni31 2.563197 1_555
Ni29 Ni8 2.564323 1_555
Ni30 Ni32 2.523019 1_555
Ni30 Ni8 2.548553 1_555
Ni31 Ni9 2.566066 1_555
Ni31 Ni8 2.586177 1_555
Ni32 Ni7 2.511980 1_565
Ni32 Ni33 2.550545 1_565
Ni33 Ni9 2.531514 1_555
Ni34 Ni5 2.501221 1_555
Ni34 Ni36 2.533034 1_555
Ni35 Ni38 2.521561 1_456
Ni35 Ni6 2.579481 1_456
Ni35 Ni37 2.591605 1_555
Ni36 Ni38 2.526018 1_555
Ni37 Ni39 2.506388 1_565
Ni37 Ni7 2.518767 1_565
Ni38 Ni4 2.514879 1_555
Ni39 Ni7 2.550255 1_555
Ni39 Ni9 2.580032 1_555
Mo0 Ni20 2.531044 1_455
Mo0 Ni16 2.536466 1_455
Mo0 Ni0 2.537940 1_545
Mo0 Ni19 2.554241 1_544
Mo0 Ni37 2.555637 1_544
Mo0 Ni27 2.562016 1_554
Mo0 Ni39 2.579026 1_454
Mo0 Mo3 2.587038 1_445
Mo0 Ni35 2.596376 1_544
Mo0 Ni14 2.605827 1_455
Mo0 Ni6 2.615688 1_445
Mo1 Ni21 2.481312 1_555
Mo1 Ni0 2.517115 1_545
Mo1 Ni13 2.543015 1_545
Mo1 Ni3 2.552194 1_455
Mo1 Ni34 2.554716 1_555
Mo1 Ni26 2.559110 1_545
Mo1 Ni1 2.567112 1_555
Mo1 Ni5 2.568887 1_555
Mo1 Ni20 2.573271 1_455
Mo1 Ni24 2.582648 1_545
Mo2 Ni24 2.522139 1_555
Mo2 Ni6 2.532752 1_455
Mo2 Ni15 2.533023 1_554
Mo2 Ni2 2.536091 1_555
Mo2 Ni36 2.536880 1_555
Mo2 Ni35 2.553965 1_554
Mo2 Mo3 2.594134 1_555
Mo2 Ni38 2.595949 1_555
Mo2 Ni0 2.596466 1_555
Mo2 Ni4 2.603676 1_555
Mo2 Ni37 2.649853 1_554
Mo3 Ni26 2.529584 1_555
Mo3 Ni35 2.537738 1_654
Mo3 Ni0 2.543281 1_555
Mo3 Ni17 2.551400 1_554
Mo3 Ni4 2.567439 1_555
Mo3 Ni39 2.568565 1_564
Mo3 Ni14 2.570972 1_565
Mo3 Ni6 2.573175 1_555
Mo3 Ni38 2.574166 1_555
Mo3 Ni37 2.598039 1_554
Mo4 Ni3 2.489923 1_555
Mo4 Ni25 2.507103 1_555
Mo4 Ni31 2.520288 1_555
Mo4 Ni9 2.554451 1_555
Mo4 Ni21 2.555382 1_655
Mo4 Ni23 2.561056 1_555
Mo4 Ni8 2.563963 1_555
Mo4 Ni11 2.569802 1_655
Mo4 Ni10 2.576335 1_555
Mo4 Ni33 2.586013 1_555
Mo5 Ni8 2.528313 1_555
Mo5 Ni31 2.532964 1_555
Mo5 Ni30 2.543361 1_555
Mo5 Ni35 2.550020 1_555
Mo5 Ni19 2.550049 1_555
Mo5 Mo7 2.572771 1_455
Mo5 Ni17 2.573973 1_455
Mo5 Ni15 2.583169 1_555
Mo5 Ni29 2.595925 1_555
Mo5 Ni28 2.603936 1_455
Mo5 Ni18 2.617034 1_555
Mo6 Ni18 2.525835 1_555
Mo6 Ni39 2.537242 1_555
Mo6 Ni36 2.547176 1_556
Mo6 Ni29 2.555024 1_555
Mo6 Ni9 2.558760 1_555
Mo6 Ni14 2.565531 1_556
Mo6 Ni15 2.579634 1_555
Mo6 Mo7 2.580361 1_555
Mo6 Ni27 2.589828 1_655
Mo6 Ni16 2.592177 1_556
Mo6 Ni31 2.603609 1_555
Mo7 Ni11 2.532883 1_655
Mo7 Ni27 2.542645 1_655
Mo7 Ni15 2.553663 1_555
Mo7 Ni29 2.560449 1_655
Mo7 Ni38 2.561837 1_556
Mo7 Ni17 2.563347 1_555
Mo7 Ni16 2.568542 1_556
Mo7 Ni31 2.569119 1_555
Mo7 Ni18 2.569667 1_655
Mo7 Ni28 2.604122 1_555
Mo8 Ni12 2.533566 1_555
Mo8 Ni33 2.544356 1_565
Mo8 Ni19 2.548673 1_655
Mo8 Ni30 2.549729 1_655
Mo8 Ni32 2.549978 1_555
Mo8 Ni28 2.553211 1_555
Mo8 Ni17 2.563121 1_555
Mo8 Ni39 2.564151 1_565
Mo8 Ni9 2.565909 1_565
Mo8 Ni7 2.573513 1_565
