# generated using pymatgen
data_Ca2FeP2(H2O3)4
_symmetry_space_group_name_H-M   'P 1'
_cell_length_a   8.16650863
_cell_length_b   10.02728747
_cell_length_c   12.49944462
_cell_angle_alpha   86.88820862
_cell_angle_beta   106.56467063
_cell_angle_gamma   98.33388273
_symmetry_Int_Tables_number   1
_chemical_formula_structural   Ca2FeP2(H2O3)4
_chemical_formula_sum   'Ca8 Fe4 P8 H32 O48'
_cell_volume   970.62410986
_cell_formula_units_Z   4
loop_
 _symmetry_equiv_pos_site_id
 _symmetry_equiv_pos_as_xyz
  1  'x, y, z'
loop_
 _atom_site_type_symbol
 _atom_site_label
 _atom_site_symmetry_multiplicity
 _atom_site_fract_x
 _atom_site_fract_y
 _atom_site_fract_z
 _atom_site_occupancy
  Ca  Ca0  1  0.54367000  0.16358900  0.16991400  1
  Ca  Ca1  1  0.04361500  0.66355200  0.16994400  1
  Ca  Ca2  1  0.79363600  0.91356100  0.66989300  1
  Ca  Ca3  1  0.29365300  0.41352500  0.66982800  1
  Ca  Ca4  1  0.70631800  0.58644700  0.33011200  1
  Ca  Ca5  1  0.20630900  0.08642000  0.33008500  1
  Ca  Ca6  1  0.95638700  0.33642900  0.83010700  1
  Ca  Ca7  1  0.45638700  0.83649400  0.83015800  1
  Fe  Fe0  1  0.49993600  0.50009500  0.99971500  1
  Fe  Fe1  1  0.25008500  0.74992300  0.50015400  1
  Fe  Fe2  1  0.99996500  0.99989100  0.99979000  1
  Fe  Fe3  1  0.75010500  0.24999800  0.50018400  1
  P  P0  1  0.85296600  0.91949200  0.21629000  1
  P  P1  1  0.35304900  0.41955300  0.21624800  1
  P  P2  1  0.10302800  0.66950200  0.71633100  1
  P  P3  1  0.60303400  0.16946900  0.71630900  1
  P  P4  1  0.39687300  0.83047000  0.28376000  1
  P  P5  1  0.89698400  0.33052700  0.28370900  1
  P  P6  1  0.64706300  0.58047800  0.78365700  1
  P  P7  1  0.14698600  0.08053100  0.78370600  1
  H  H0  1  0.69149300  0.98707600  0.02669400  1
  H  H1  1  0.19148100  0.48703400  0.02671900  1
  H  H2  1  0.94153200  0.73704500  0.52666200  1
  H  H3  1  0.44149000  0.23707300  0.52667300  1
  H  H4  1  0.55846700  0.76298200  0.47329900  1
  H  H5  1  0.05850500  0.26290800  0.47331900  1
  H  H6  1  0.80851600  0.51295000  0.97330100  1
  H  H7  1  0.30856300  0.01294000  0.97334100  1
  H  H8  1  0.30661400  0.92851400  0.08921100  1
  H  H9  1  0.80646500  0.42851400  0.08917000  1
  H  H10  1  0.55664500  0.67852700  0.58917600  1
  H  H11  1  0.05652100  0.17851200  0.58920100  1
  H  H12  1  0.94355700  0.82144400  0.41079700  1
  H  H13  1  0.44342900  0.32148900  0.41080100  1
  H  H14  1  0.19336000  0.57151100  0.91083900  1
  H  H15  1  0.69348500  0.07147100  0.91081600  1
  H  H16  1  0.43764500  0.74276200  0.07223000  1
  H  H17  1  0.93767900  0.24274900  0.07219700  1
  H  H18  1  0.68769300  0.49277700  0.57220700  1
  H  H19  1  0.18762700  0.99274600  0.57220000  1
  H  H20  1  0.81230400  0.00723400  0.42778400  1
  H  H21  1  0.31234900  0.50720600  0.42778700  1
  H  H22  1  0.06230900  0.75719700  0.92780000  1
  H  H23  1  0.56234400  0.25728800  0.92778700  1
  H  H24  1  0.63131200  0.74242300  0.08251900  1
  H  H25  1  0.13136300  0.24244400  0.08247200  1
  H  H26  1  0.88136900  0.49245400  0.58246600  1
  H  H27  1  0.38129500  0.99245000  0.58245400  1
  H  H28  1  0.61862500  0.00756300  0.41751300  1
  H  H29  1  0.11869800  0.50756700  0.41755400  1
  H  H30  1  0.86862800  0.75751800  0.91752100  1
  H  H31  1  0.36867600  0.25761700  0.91750500  1
  O  O0  1  0.29038800  0.01950300  0.04989500  1
  O  O1  1  0.79025100  0.51950400  0.04983200  1
  O  O2  1  0.54041500  0.76953200  0.54992000  1
  O  O3  1  0.04031600  0.26949900  0.54989300  1
  O  O4  1  0.95974800  0.73045200  0.45012100  1
  O  O5  1  0.45965800  0.23050000  0.45011500  1
  O  O6  1  0.20959800  0.48051900  0.95011200  1
  O  O7  1  0.70968800  0.98048400  0.95012000  1
  O  O8  1  0.51506800  0.72298900  0.02685500  1
  O  O9  1  0.01511900  0.22292300  0.02684900  1
  O  O10  1  0.76512500  0.47294400  0.52685700  1
  O  O11  1  0.26505600  0.97291200  0.52686000  1
  O  O12  1  0.73487000  0.02708600  0.47313600  1
  O  O13  1  0.23496000  0.52700400  0.47318700  1
  O  O14  1  0.98487000  0.77703900  0.97313100  1
  O  O15  1  0.48491200  0.27712400  0.97312000  1
  O  O16  1  0.69426200  0.98793900  0.15500500  1
  O  O17  1  0.19418500  0.48785400  0.15504900  1
  O  O18  1  0.94432900  0.73792000  0.65502500  1
  O  O19  1  0.44433700  0.23789700  0.65505500  1
  O  O20  1  0.55566000  0.76210700  0.34497500  1
  O  O21  1  0.05569900  0.26209500  0.34498600  1
  O  O22  1  0.80581800  0.51211800  0.84495400  1
  O  O23  1  0.30568800  0.01210700  0.84494500  1
  O  O24  1  0.00794500  0.96971700  0.16594200  1
  O  O25  1  0.50791500  0.46994300  0.16582300  1
  O  O26  1  0.25814100  0.71976800  0.66609700  1
  O  O27  1  0.75797400  0.21973500  0.66594800  1
  O  O28  1  0.24196400  0.78017800  0.33419500  1
  O  O29  1  0.74199200  0.28027600  0.33405300  1
  O  O30  1  0.49199900  0.53012200  0.83391400  1
  O  O31  1  0.99205200  0.03026700  0.83406500  1
  O  O32  1  0.32677300  0.79298400  0.15805800  1
  O  O33  1  0.82679700  0.29301600  0.15800000  1
  O  O34  1  0.57689500  0.54296100  0.65797100  1
  O  O35  1  0.07679300  0.04300600  0.65804700  1
  O  O36  1  0.92316000  0.95700100  0.34199600  1
  O  O37  1  0.42312300  0.45701800  0.34196100  1
  O  O38  1  0.17319600  0.70703700  0.84202200  1
  O  O39  1  0.67319900  0.20698500  0.84197900  1
  O  O40  1  0.43919600  0.98678800  0.29917400  1
  O  O41  1  0.93925500  0.48687400  0.29916900  1
  O  O42  1  0.68922800  0.73680400  0.79914500  1
  O  O43  1  0.18923300  0.23684300  0.79916200  1
  O  O44  1  0.81068900  0.76313700  0.20084400  1
  O  O45  1  0.31081300  0.26322600  0.20083600  1
  O  O46  1  0.06077100  0.51317800  0.70084700  1
  O  O47  1  0.56078400  0.01315500  0.70084700  1
loop_
_geom_bond_atom_site_label_1
_geom_bond_atom_site_label_2
_geom_bond_distance
_geom_bond_site_symmetry_2
Ca0 O16 2.333138 1_545
Ca0 O45 2.403231 1_555
Ca0 O29 2.453161 1_555
Ca0 O0 2.493199 1_555
Ca0 O33 2.521515 1_555
Ca0 O40 2.553007 1_545
Ca0 O15 2.599676 1_554
Ca1 O17 2.333374 1_555
Ca1 O44 2.403343 1_455
Ca1 O28 2.453922 1_555
Ca1 O1 2.493857 1_455
Ca1 O32 2.521649 1_555
Ca1 O41 2.551566 1_455
Ca1 O14 2.599686 1_454
Ca2 O18 2.333467 1_555
Ca2 O47 2.403126 1_565
Ca2 O31 2.453791 1_565
Ca2 O2 2.492403 1_555
Ca2 O35 2.521545 1_665
Ca2 O42 2.552445 1_555
Ca2 O12 2.599231 1_565
Ca3 O19 2.332988 1_555
Ca3 O46 2.403997 1_555
Ca3 O30 2.452399 1_555
Ca3 O3 2.492744 1_555
Ca3 O34 2.522147 1_555
Ca3 O43 2.552734 1_555
Ca3 O13 2.597792 1_555
Ca4 O20 2.333421 1_555
Ca4 O41 2.403579 1_555
Ca4 O25 2.453877 1_555
Ca4 O4 2.493444 1_555
Ca4 O37 2.521762 1_555
Ca4 O44 2.552048 1_555
Ca4 O10 2.599002 1_555
Ca5 O21 2.333417 1_555
Ca5 O40 2.403368 1_545
Ca5 O24 2.453384 1_545
Ca5 O5 2.493538 1_555
Ca5 O36 2.521628 1_445
Ca5 O45 2.553044 1_555
Ca5 O11 2.599359 1_545
Ca6 O22 2.333131 1_555
Ca6 O43 2.402992 1_655
Ca6 O27 2.453622 1_555
Ca6 O6 2.492816 1_655
Ca6 O39 2.521854 1_555
Ca6 O46 2.552384 1_655
Ca6 O9 2.598995 1_656
Ca7 O23 2.332991 1_565
Ca7 O42 2.403866 1_555
Ca7 O26 2.452452 1_555
Ca7 O7 2.492532 1_555
Ca7 O38 2.521895 1_555
Ca7 O47 2.552329 1_565
Ca7 O8 2.598511 1_556
Fe0 O30 2.061820 1_555
Fe0 O25 2.065652 1_556
Fe0 O1 2.254752 1_556
Fe0 O6 2.254968 1_555
Fe0 O15 2.258816 1_555
Fe0 O8 2.259209 1_556
Fe1 O26 2.063470 1_555
Fe1 O28 2.063641 1_555
Fe1 O2 2.254848 1_555
Fe1 O4 2.254911 1_455
Fe1 O13 2.259058 1_555
Fe1 O11 2.259309 1_555
Fe2 O31 2.061266 1_565
Fe2 O24 2.066215 1_656
Fe2 O7 2.254558 1_555
Fe2 O0 2.255498 1_666
Fe2 O14 2.257707 1_555
Fe2 O9 2.260364 1_666
Fe3 O27 2.061721 1_555
Fe3 O29 2.065803 1_555
Fe3 O3 2.253983 1_655
Fe3 O5 2.255752 1_555
Fe3 O10 2.258753 1_555
Fe3 O12 2.259061 1_555
H0 O7 1.016543 1_554
H0 O16 1.597994 1_555
H1 O6 1.016574 1_554
H1 O17 1.598351 1_555
H2 O4 1.016210 1_555
H2 O18 1.598588 1_555
H3 O5 1.016226 1_555
H3 O19 1.598685 1_555
H4 O2 1.016570 1_555
H4 O20 1.598078 1_555
H5 O3 1.016521 1_555
H5 O21 1.598157 1_555
H6 O1 1.016203 1_556
H6 O22 1.598584 1_555
H7 O0 1.016187 1_556
H7 O23 1.598803 1_555
H8 O0 1.020158 1_565
H8 O32 1.572142 1_555
H9 O1 1.020264 1_555
H9 O33 1.571874 1_555
H10 O2 1.020007 1_555
H10 O34 1.572198 1_555
H11 O3 1.020080 1_555
H11 O35 1.572000 1_555
H12 O4 1.020189 1_555
H12 O36 1.572247 1_555
H13 O5 1.020151 1_555
H13 O37 1.572181 1_555
H14 O6 1.019984 1_555
H14 O38 1.571934 1_555
H15 O7 1.020058 1_545
H15 O39 1.572024 1_555
H16 O8 1.006866 1_555
H16 O32 1.723084 1_555
H17 O9 1.006894 1_655
H17 O33 1.723080 1_555
H18 O10 1.006882 1_555
H18 O34 1.721850 1_555
H19 O11 1.006771 1_555
H19 O35 1.723193 1_565
H20 O12 1.006975 1_555
H20 O36 1.722637 1_545
H21 O13 1.006954 1_555
H21 O37 1.722331 1_555
H22 O14 1.006779 1_455
H22 O38 1.722433 1_555
H23 O15 1.006732 1_555
H23 O39 1.723110 1_555
H24 O8 1.003860 1_555
H24 O44 1.756772 1_555
H25 O9 1.003721 1_555
H25 O45 1.757443 1_555
H26 O10 1.003634 1_555
H26 O46 1.757322 1_655
H27 O11 1.003551 1_555
H27 O47 1.757815 1_565
H28 O12 1.003729 1_555
H28 O40 1.757150 1_545
H29 O13 1.003801 1_555
H29 O41 1.757532 1_455
H30 O14 1.003639 1_555
H30 O42 1.757270 1_555
H31 O15 1.003617 1_555
H31 O43 1.757246 1_555
O16 P0 1.540229 1_555
O17 P1 1.540187 1_555
O18 P2 1.540102 1_655
O19 P3 1.539992 1_555
O20 P4 1.540088 1_555
O21 P5 1.540193 1_455
O22 P6 1.540111 1_555
O23 P7 1.539958 1_555
O24 P0 1.576862 1_455
O25 P1 1.576948 1_555
O26 P2 1.577019 1_555
O27 P3 1.576758 1_555
O28 P4 1.577151 1_555
O29 P5 1.576971 1_555
O30 P6 1.577010 1_555
O31 P7 1.576697 1_655
O32 P4 1.557744 1_555
O33 P5 1.557917 1_555
O34 P6 1.557661 1_555
O35 P7 1.557380 1_555
O36 P0 1.557880 1_555
O37 P1 1.557809 1_555
O38 P2 1.557762 1_555
O39 P3 1.557474 1_555
O40 P4 1.565643 1_555
O41 P5 1.565975 1_555
O42 P6 1.565776 1_555
O43 P7 1.565619 1_555
O44 P0 1.566036 1_555
O45 P1 1.565699 1_555
O46 P2 1.565780 1_555
O47 P3 1.565648 1_555
