# generated using pymatgen
data_Ti5Pb5O14
_symmetry_space_group_name_H-M   'P 1'
_cell_length_a   6.02632900
_cell_length_b   7.14360945
_cell_length_c   8.61570269
_cell_angle_alpha   77.50986522
_cell_angle_beta   72.32465006
_cell_angle_gamma   83.51281525
_symmetry_Int_Tables_number   1
_chemical_formula_structural   Ti5Pb5O14
_chemical_formula_sum   'Ti5 Pb5 O14'
_cell_volume   344.58391351
_cell_formula_units_Z   1
loop_
 _symmetry_equiv_pos_site_id
 _symmetry_equiv_pos_as_xyz
  1  'x, y, z'
loop_
 _atom_site_type_symbol
 _atom_site_label
 _atom_site_symmetry_multiplicity
 _atom_site_fract_x
 _atom_site_fract_y
 _atom_site_fract_z
 _atom_site_occupancy
  Ti  Ti0  1  0.77668900  0.69764100  0.40115100  1
  Ti  Ti1  1  0.16362000  0.31024000  0.59674300  1
  Ti  Ti2  1  0.38485700  0.08840700  0.20509900  1
  Ti  Ti3  1  0.98698300  0.48056000  0.01019500  1
  Ti  Ti4  1  0.60745800  0.86818700  0.81405300  1
  Pb  Pb0  1  0.35827000  0.57066700  0.20825400  1
  Pb  Pb1  1  0.17403100  0.78343400  0.61520400  1
  Pb  Pb2  1  0.55125900  0.34733600  0.79993300  1
  Pb  Pb3  1  0.73112100  0.17405600  0.43736000  1
  Pb  Pb4  1  0.97179100  0.97424200  0.01687800  1
  O  O0  1  0.15361100  0.93184400  0.28152700  1
  O  O1  1  0.24026600  0.32292600  0.08534800  1
  O  O2  1  0.63301000  0.92668600  0.28839000  1
  O  O3  1  0.02621900  0.52919000  0.48554200  1
  O  O4  1  0.53671900  0.54806000  0.47612500  1
  O  O5  1  0.75052700  0.33135900  0.08707600  1
  O  O6  1  0.14782600  0.42582900  0.78360100  1
  O  O7  1  0.34677800  0.74339900  0.87883200  1
  O  O8  1  0.34411600  0.23141400  0.38741100  1
  O  O9  1  0.94766300  0.63368900  0.18315400  1
  O  O10  1  0.74027100  0.83563700  0.58566700  1
  O  O11  1  0.85144900  0.72207100  0.88812300  1
  O  O12  1  0.96959800  0.12057100  0.68907500  1
  O  O13  1  0.54396600  0.02795400  0.98255800  1
loop_
_geom_bond_atom_site_label_1
_geom_bond_atom_site_label_2
_geom_bond_distance
_geom_bond_site_symmetry_2
O0 Ti2 1.761504 1_565
O0 Pb4 2.763106 1_455
O0 Pb0 2.844171 1_555
O0 Pb1 2.875930 1_555
O1 Ti3 1.978252 1_455
O1 Ti2 2.024557 1_555
O1 Pb0 2.512240 1_555
O1 Pb2 2.584485 1_554
O2 Ti0 1.968208 1_555
O2 Ti2 1.997169 1_565
O2 Pb4 2.582361 1_555
O2 Pb3 2.607207 1_565
O3 Ti1 1.894949 1_555
O3 Ti0 2.028440 1_455
O3 Pb0 2.593119 1_555
O3 Pb1 2.680958 1_555
O4 Ti0 1.770235 1_555
O4 Pb1 2.736945 1_555
O4 Pb0 2.795640 1_555
O5 Ti3 1.752119 1_555
O5 Pb0 2.821447 1_555
O5 Pb4 2.839176 1_545
O6 Ti1 1.935688 1_555
O6 Ti3 1.999789 1_456
O6 Pb2 2.471965 1_555
O6 Pb1 2.646645 1_555
O7 Ti4 1.772805 1_555
O7 Pb1 2.722522 1_555
O7 Pb4 2.759498 1_456
O7 Pb0 2.857970 1_556
O8 Ti1 1.965352 1_555
O8 Ti2 1.993586 1_555
O8 Pb3 2.471761 1_555
O8 Pb0 2.571356 1_555
O9 Ti0 1.971697 1_555
O9 Ti3 1.976216 1_555
O9 Pb0 2.530509 1_655
O9 Pb4 2.537283 1_555
O10 Ti4 1.940627 1_555
O10 Ti0 1.991058 1_555
O10 Pb3 2.481273 1_565
O10 Pb1 2.679432 1_655
O11 Ti4 1.895688 1_555
O11 Ti3 2.041607 1_556
O11 Pb1 2.543858 1_655
O11 Pb4 2.578701 1_556
O12 Ti1 1.778399 1_655
O12 Pb1 2.690639 1_645
O12 Pb4 2.794967 1_546
O13 Ti4 1.958927 1_545
O13 Ti2 1.982498 1_556
O13 Pb2 2.472038 1_555
O13 Pb4 2.659356 1_546
