# generated using pymatgen
data_LiCuS
_symmetry_space_group_name_H-M   'P 1'
_cell_length_a   7.57352667
_cell_length_b   7.57352667
_cell_length_c   7.57352667
_cell_angle_alpha   95.67815663
_cell_angle_beta   95.67815663
_cell_angle_gamma   143.33295239
_symmetry_Int_Tables_number   1
_chemical_formula_structural   LiCuS
_chemical_formula_sum   'Li4 Cu4 S4'
_cell_volume   246.24351585
_cell_formula_units_Z   4
loop_
 _symmetry_equiv_pos_site_id
 _symmetry_equiv_pos_as_xyz
  1  'x, y, z'
loop_
 _atom_site_type_symbol
 _atom_site_label
 _atom_site_symmetry_multiplicity
 _atom_site_fract_x
 _atom_site_fract_y
 _atom_site_fract_z
 _atom_site_occupancy
  Li  Li0  1  0.15591200  0.50000000  0.65591200  1
  Li  Li1  1  0.50000000  0.15591200  0.65591200  1
  Li  Li2  1  0.50000000  0.84408800  0.34408800  1
  Li  Li3  1  0.84408800  0.50000000  0.34408800  1
  Cu  Cu0  1  0.85483400  0.14516600  0.00000000  1
  Cu  Cu1  1  0.85483400  0.85483400  0.70966800  1
  Cu  Cu2  1  0.14516600  0.14516600  0.29033200  1
  Cu  Cu3  1  0.14516600  0.85483400  0.00000000  1
  S  S0  1  0.70205400  0.00000000  0.70205400  1
  S  S1  1  0.00000000  0.70205400  0.70205400  1
  S  S2  1  0.00000000  0.29794600  0.29794600  1
  S  S3  1  0.29794600  0.00000000  0.29794600  1
loop_
_geom_bond_atom_site_label_1
_geom_bond_atom_site_label_2
_geom_bond_distance
_geom_bond_site_symmetry_2
Li0 S0 2.427989 1_565
Li0 S0 2.427989 1_455
Li0 S2 2.594747 1_555
Li0 S1 2.594747 1_555
Li1 S1 2.427989 1_655
Li1 S1 2.427989 1_545
Li1 S3 2.594747 1_555
Li1 S0 2.594747 1_555
Li2 S2 2.427989 1_555
Li2 S2 2.427989 1_665
Li2 S0 2.594747 1_565
Li2 S3 2.594747 1_565
Li3 S3 2.427989 1_555
Li3 S3 2.427989 1_665
Li3 S1 2.594747 1_655
Li3 S2 2.594747 1_655
Cu0 S2 2.142665 1_655
Cu0 S0 2.142665 1_554
Cu1 S1 2.142665 1_655
Cu1 S0 2.142665 1_565
Cu2 S3 2.142665 1_555
Cu2 S2 2.142665 1_555
Cu3 S3 2.142665 1_565
Cu3 S1 2.142665 1_554
