# generated using pymatgen
data_Li10Si(PS6)2
_symmetry_space_group_name_H-M   'P 1'
_cell_length_a   8.57466800
_cell_length_b   8.84720924
_cell_length_c   12.94378733
_cell_angle_alpha   91.77043338
_cell_angle_beta   90.58858100
_cell_angle_gamma   90.30607686
_symmetry_Int_Tables_number   1
_chemical_formula_structural   Li10Si(PS6)2
_chemical_formula_sum   'Li20 Si2 P4 S24'
_cell_volume   981.40380455
_cell_formula_units_Z   2
loop_
 _symmetry_equiv_pos_site_id
 _symmetry_equiv_pos_as_xyz
  1  'x, y, z'
loop_
 _atom_site_type_symbol
 _atom_site_label
 _atom_site_symmetry_multiplicity
 _atom_site_fract_x
 _atom_site_fract_y
 _atom_site_fract_z
 _atom_site_occupancy
  Li  Li0  1  0.98850700  0.51689500  0.95293500  1
  Li  Li1  1  0.96506500  0.51670300  0.42492900  1
  Li  Li2  1  0.51086300  0.96529300  0.55031000  1
  Li  Li3  1  0.49623600  0.99633400  0.04876700  1
  Li  Li4  1  0.25889700  0.29031900  0.15746600  1
  Li  Li5  1  0.74564900  0.74644600  0.28174400  1
  Li  Li6  1  0.21742400  0.81874500  0.75336400  1
  Li  Li7  1  0.22808100  0.75560800  0.25137500  1
  Li  Li8  1  0.75461100  0.22143400  0.35067700  1
  Li  Li9  1  0.46239100  0.51859100  0.75122000  1
  Li  Li10  1  0.22930100  0.22915400  0.36534100  1
  Li  Li11  1  0.73171800  0.25459000  0.85706400  1
  Li  Li12  1  0.24488400  0.76120300  0.00548500  1
  Li  Li13  1  0.74197100  0.26498100  0.13185200  1
  Li  Li14  1  0.76377600  0.72968600  0.69038400  1
  Li  Li15  1  0.22257400  0.25787200  0.91948400  1
  Li  Li16  1  0.74773300  0.76128800  0.00821600  1
  Li  Li17  1  0.24387200  0.72074900  0.48539400  1
  Li  Li18  1  0.78327500  0.21397100  0.62628300  1
  Li  Li19  1  0.24175100  0.21117700  0.65082100  1
  Si  Si0  1  0.99721500  0.48675300  0.18291400  1
  Si  Si1  1  0.50747100  0.99140100  0.81535400  1
  P  P0  1  0.99326700  0.96519800  0.50150800  1
  P  P1  1  0.49222800  0.51517900  0.99320400  1
  P  P2  1  0.00869100  0.48329900  0.68479300  1
  P  P3  1  0.48778000  0.00872600  0.31021300  1
  S  S0  1  0.98892500  0.17729600  0.44311100  1
  S  S1  1  0.00502500  0.79374200  0.38971700  1
  S  S2  1  0.29529300  0.53049100  0.90095700  1
  S  S3  1  0.68401500  0.52961800  0.89921700  1
  S  S4  1  0.49534900  0.69500400  0.09723000  1
  S  S5  1  0.48670800  0.30964300  0.06061300  1
  S  S6  1  0.19629700  0.94794700  0.58838600  1
  S  S7  1  0.80119400  0.94611600  0.59046700  1
  S  S8  1  0.00710000  0.30302600  0.06999700  1
  S  S9  1  0.00062300  0.70020600  0.10682400  1
  S  S10  1  0.21311100  0.48649400  0.60138800  1
  S  S11  1  0.81480900  0.49124200  0.58958800  1
  S  S12  1  0.48482900  0.79960900  0.37535100  1
  S  S13  1  0.49581000  0.17902400  0.42194000  1
  S  S14  1  0.29295700  0.98934400  0.90223400  1
  S  S15  1  0.70509300  0.99575200  0.91613900  1
  S  S16  1  0.99354800  0.66409200  0.78775200  1
  S  S17  1  0.00274200  0.28090800  0.76098300  1
  S  S18  1  0.78744600  0.46641900  0.26902000  1
  S  S19  1  0.19277300  0.47830600  0.28730500  1
  S  S20  1  0.51611400  0.19366400  0.72532700  1
  S  S21  1  0.49443800  0.80008200  0.70850600  1
  S  S22  1  0.68636000  0.01627400  0.22110100  1
  S  S23  1  0.29161600  0.03120500  0.21895700  1
loop_
_geom_bond_atom_site_label_1
_geom_bond_atom_site_label_2
_geom_bond_distance
_geom_bond_site_symmetry_2
Li0 S8 2.465147 1_656
Li0 S9 2.530421 1_656
Li0 S16 2.538227 1_555
Li0 S3 2.698834 1_555
Li0 S2 2.724902 1_655
Li1 S11 2.517175 1_555
Li1 S1 2.529013 1_655
Li1 S18 2.542478 1_555
Li1 S19 2.672488 1_655
Li2 S7 2.545566 1_555
Li2 S21 2.556918 1_555
Li2 S13 2.558415 1_565
Li2 S12 2.666099 1_555
Li2 S6 2.751261 1_555
Li2 S20 2.988361 1_565
Li3 S15 2.493407 1_554
Li3 S14 2.561868 1_554
Li3 S22 2.750010 1_565
Li3 S4 2.757526 1_555
Li3 S5 2.773101 1_565
Li3 S23 2.840704 1_565
Li4 S5 2.340219 1_555
Li4 S19 2.401868 1_555
Li4 S8 2.432348 1_555
Li4 S23 2.466272 1_555
Li5 S18 2.505764 1_555
Li5 S22 2.587276 1_565
Li5 S12 2.592808 1_555
Li5 S1 2.639098 1_655
Li6 S16 2.404673 1_455
Li6 S21 2.456230 1_555
Li6 S6 2.458585 1_555
Li6 S14 2.488945 1_555
Li7 S19 2.528306 1_555
Li7 S23 2.543959 1_565
Li7 S1 2.649228 1_555
Li7 S9 2.720872 1_555
Li7 S12 2.730029 1_555
Li8 S0 2.368244 1_555
Li8 S13 2.443506 1_555
Li8 S18 2.456691 1_555
Li8 S22 2.496087 1_555
Li9 S2 2.422099 1_555
Li9 S21 2.581515 1_555
Li9 S3 2.683695 1_555
Li9 S10 2.878382 1_555
Li9 S20 2.923389 1_555
Li10 S0 2.352274 1_455
Li10 S13 2.439709 1_555
Li10 S19 2.473006 1_555
Li10 S23 2.601622 1_555
Li11 S15 2.446853 1_545
Li11 S3 2.513724 1_555
Li11 S20 2.546326 1_555
Li11 S17 2.659526 1_655
Li12 S2 2.456528 1_554
Li12 S14 2.489806 1_554
Li12 S4 2.523821 1_555
Li12 S9 2.546894 1_555
Li13 S5 2.405726 1_555
Li13 S8 2.443052 1_655
Li13 S18 2.502659 1_555
Li13 S22 2.561383 1_555
Li14 S7 2.365803 1_555
Li14 S21 2.407093 1_555
Li14 S16 2.411081 1_555
Li14 S11 2.489070 1_555
Li15 S14 2.458343 1_545
Li15 S2 2.507270 1_555
Li15 S8 2.720762 1_556
Li15 S17 2.784650 1_555
Li15 S5 2.920376 1_556
Li16 S15 2.451321 1_554
Li16 S3 2.506701 1_554
Li16 S4 2.536572 1_555
Li16 S9 2.573243 1_655
Li17 S6 2.416262 1_555
Li17 S1 2.481251 1_555
Li17 S10 2.610290 1_555
Li17 S12 2.625063 1_555
Li18 S7 2.406617 1_545
Li18 S11 2.526625 1_555
Li18 S17 2.605545 1_655
Li18 S20 2.644584 1_555
Li19 S6 2.469027 1_545
Li19 S20 2.540701 1_555
Li19 S10 2.549949 1_555
Li19 S17 2.575490 1_555
P0 S7 2.028513 1_555
P0 S0 2.044923 1_565
P0 S1 2.067361 1_655
P0 S6 2.071683 1_655
P1 S5 2.041608 1_556
P1 S4 2.052148 1_556
P1 S3 2.061354 1_555
P1 S2 2.065577 1_555
P2 S16 2.055577 1_455
P2 S11 2.062004 1_455
P2 S10 2.068561 1_555
P2 S17 2.071369 1_555
P3 S13 2.056306 1_555
P3 S12 2.056870 1_545
P3 S23 2.059445 1_555
P3 S22 2.068376 1_555
S8 Si0 2.154706 1_455
S9 Si0 2.156870 1_455
S14 Si1 2.166034 1_555
S15 Si1 2.127338 1_555
S18 Si0 2.135415 1_555
S19 Si0 2.145741 1_455
S20 Si1 2.166743 1_545
S21 Si1 2.154161 1_555
