# generated using pymatgen
data_Li2MnV(PO4)3
_symmetry_space_group_name_H-M   'P 1'
_cell_length_a   9.19031254
_cell_length_b   8.32259319
_cell_length_c   8.32148852
_cell_angle_alpha   61.14886184
_cell_angle_beta   62.22263812
_cell_angle_gamma   92.49859870
_symmetry_Int_Tables_number   1
_chemical_formula_structural   Li2MnV(PO4)3
_chemical_formula_sum   'Li4 Mn2 V2 P6 O24'
_cell_volume   462.69676595
_cell_formula_units_Z   2
loop_
 _symmetry_equiv_pos_site_id
 _symmetry_equiv_pos_as_xyz
  1  'x, y, z'
loop_
 _atom_site_type_symbol
 _atom_site_label
 _atom_site_symmetry_multiplicity
 _atom_site_fract_x
 _atom_site_fract_y
 _atom_site_fract_z
 _atom_site_occupancy
  Li  Li0  1  0.13979200  0.74884300  0.17232500  1
  Li  Li1  1  0.36277400  0.18947900  0.37546300  1
  Li  Li2  1  0.86130400  0.92467000  0.40774200  1
  Li  Li3  1  0.87779200  0.24257100  0.82040900  1
  Mn  Mn0  1  0.56910400  0.85402600  0.28585400  1
  Mn  Mn1  1  0.43813000  0.14465100  0.71055100  1
  V  V0  1  0.04657500  0.35213600  0.29956700  1
  V  V1  1  0.95746500  0.64719800  0.70427400  1
  P  P0  1  0.24996600  0.04843800  0.20679700  1
  P  P1  1  0.24617800  0.46504200  0.49387700  1
  P  P2  1  0.25988300  0.74843900  0.77775000  1
  P  P3  1  0.75005100  0.24890300  0.21540500  1
  P  P4  1  0.75914500  0.53596500  0.50246700  1
  P  P5  1  0.74764000  0.95687900  0.78892400  1
  O  O0  1  0.09441400  0.84462700  0.37101200  1
  O  O1  1  0.27279200  0.11821700  0.98651300  1
  O  O2  1  0.18794500  0.18861100  0.27961000  1
  O  O3  1  0.19512000  0.50530200  0.32414100  1
  O  O4  1  0.08942300  0.46383600  0.68578600  1
  O  O5  1  0.12411700  0.77758300  0.70971700  1
  O  O6  1  0.41003900  0.03711400  0.21659600  1
  O  O7  1  0.26755700  0.26606800  0.58466200  1
  O  O8  1  0.41633000  0.62937000  0.36747700  1
  O  O9  1  0.18758200  0.53768400  0.98351700  1
  O  O10  1  0.26626600  0.88934700  0.84739700  1
  O  O11  1  0.43722500  0.79205500  0.58626500  1
  O  O12  1  0.56739200  0.20362300  0.40534400  1
  O  O13  1  0.74015700  0.11335400  0.14024900  1
  O  O14  1  0.81611200  0.46303800  0.02117500  1
  O  O15  1  0.58718600  0.37556400  0.62789000  1
  O  O16  1  0.74974100  0.73979100  0.39265600  1
  O  O17  1  0.58133900  0.96752400  0.79770600  1
  O  O18  1  0.88056500  0.20518700  0.28816700  1
  O  O19  1  0.91324400  0.52741200  0.31812000  1
  O  O20  1  0.81029900  0.50512900  0.67111200  1
  O  O21  1  0.82176400  0.82740100  0.70647700  1
  O  O22  1  0.73339000  0.89062400  0.00459900  1
  O  O23  1  0.89627900  0.17025200  0.61809600  1
loop_
_geom_bond_atom_site_label_1
_geom_bond_atom_site_label_2
_geom_bond_distance
_geom_bond_site_symmetry_2
Li0 O10 1.982472 1_554
Li0 O3 2.044570 1_555
Li0 O0 2.049714 1_555
Li0 O19 2.087186 1_455
Li1 O7 1.975408 1_555
Li1 O12 2.014140 1_555
Li1 O2 2.101657 1_555
Li1 O6 2.162182 1_555
Li2 O16 1.898248 1_555
Li2 O18 2.007440 1_565
Li2 O21 2.038974 1_555
Li2 O0 2.199428 1_655
Li3 O13 1.954867 1_556
Li3 O23 1.986369 1_555
Li3 O4 2.023588 1_655
Li3 O20 2.218033 1_555
Li3 O22 2.474384 1_546
Mn0 O8 1.893452 1_555
Mn0 O22 1.956624 1_555
Mn0 O11 1.965058 1_555
Mn0 O13 2.000655 1_565
Mn0 O6 2.218790 1_565
Mn0 O16 2.268723 1_555
Mn1 O15 1.912963 1_555
Mn1 O1 1.965125 1_555
Mn1 O10 2.000518 1_545
Mn1 O12 2.009122 1_555
Mn1 O17 2.111496 1_545
Mn1 O7 2.285421 1_555
O0 P0 1.587143 1_565
O0 V1 2.035568 1_455
O1 P0 1.531364 1_556
O2 P0 1.572013 1_555
O2 V0 1.933639 1_555
O3 P1 1.581840 1_555
O3 V0 1.972440 1_555
O4 P1 1.569944 1_555
O4 V1 2.009292 1_455
O5 P2 1.577481 1_555
O5 V1 1.868828 1_455
O6 P0 1.515325 1_555
O7 P1 1.520192 1_555
O8 P1 1.521271 1_555
O9 P2 1.545791 1_555
O9 V0 1.926204 1_556
O10 P2 1.547976 1_555
O11 P2 1.515498 1_555
O12 P3 1.534660 1_555
O13 P3 1.548229 1_555
O14 P3 1.538906 1_555
O14 V1 1.929670 1_554
O15 P4 1.517558 1_555
O16 P4 1.520047 1_555
O17 P5 1.504333 1_555
O18 P3 1.562076 1_555
O18 V0 1.979043 1_655
O19 P4 1.566279 1_555
O19 V0 1.962180 1_655
O20 P4 1.591926 1_555
O20 V1 1.956216 1_555
O21 P5 1.561361 1_555
O21 V1 1.993302 1_555
O22 P5 1.536828 1_554
O23 P5 1.607065 1_545
O23 V0 1.938583 1_655
