# generated using pymatgen
data_Li7Cr3Fe(PO4)6
_symmetry_space_group_name_H-M   'P 1'
_cell_length_a   8.71904132
_cell_length_b   8.71904132
_cell_length_c   8.71904105
_cell_angle_alpha   61.03661219
_cell_angle_beta   61.03661219
_cell_angle_gamma   61.03661200
_symmetry_Int_Tables_number   1
_chemical_formula_structural   Li7Cr3Fe(PO4)6
_chemical_formula_sum   'Li7 Cr3 Fe1 P6 O24'
_cell_volume   479.63707291
_cell_formula_units_Z   1
loop_
 _symmetry_equiv_pos_site_id
 _symmetry_equiv_pos_as_xyz
  1  'x, y, z'
loop_
 _atom_site_type_symbol
 _atom_site_label
 _atom_site_symmetry_multiplicity
 _atom_site_fract_x
 _atom_site_fract_y
 _atom_site_fract_z
 _atom_site_occupancy
  Li  Li0  1  0.21238400  0.72839500  0.39227200  1
  Li  Li1  1  0.39227200  0.21238400  0.72839500  1
  Li  Li2  1  0.23803600  0.64243100  0.81356200  1
  Li  Li3  1  0.98163600  0.98163600  0.98163600  1
  Li  Li4  1  0.72839500  0.39227200  0.21238400  1
  Li  Li5  1  0.64243100  0.81356200  0.23803600  1
  Li  Li6  1  0.81356200  0.23803600  0.64243100  1
  Cr  Cr0  1  0.14204400  0.14204400  0.14204400  1
  Cr  Cr1  1  0.64454600  0.64454600  0.64454600  1
  Cr  Cr2  1  0.35462500  0.35462500  0.35462500  1
  Fe  Fe0  1  0.84844100  0.84844100  0.84844100  1
  P  P0  1  0.04602100  0.45319300  0.74838200  1
  P  P1  1  0.45319300  0.74838200  0.04602100  1
  P  P2  1  0.74838200  0.04602100  0.45319300  1
  P  P3  1  0.25147600  0.95932300  0.54168900  1
  P  P4  1  0.54168900  0.25147600  0.95932300  1
  P  P5  1  0.95932300  0.54168900  0.25147600  1
  O  O0  1  0.48994900  0.71020700  0.87588300  1
  O  O1  1  0.71020700  0.87588300  0.48994900  1
  O  O2  1  0.87588300  0.48994900  0.71020700  1
  O  O3  1  0.07857700  0.26255900  0.90542700  1
  O  O4  1  0.22966000  0.43617100  0.57875800  1
  O  O5  1  0.03467200  0.61138900  0.79040300  1
  O  O6  1  0.26255900  0.90542700  0.07857700  1
  O  O7  1  0.43617100  0.57875800  0.22966000  1
  O  O8  1  0.57875800  0.22966000  0.43617100  1
  O  O9  1  0.20943000  0.97413600  0.37859300  1
  O  O10  1  0.08722400  0.94003400  0.72564600  1
  O  O11  1  0.37859300  0.20943000  0.97413600  1
  O  O12  1  0.61138900  0.79040300  0.03467200  1
  O  O13  1  0.90542700  0.07857700  0.26255900  1
  O  O14  1  0.79040300  0.03467200  0.61138900  1
  O  O15  1  0.41302300  0.77006700  0.56889300  1
  O  O16  1  0.56889300  0.41302300  0.77006700  1
  O  O17  1  0.72564600  0.08722400  0.94003400  1
  O  O18  1  0.97413600  0.37859300  0.20943000  1
  O  O19  1  0.77006700  0.56889300  0.41302300  1
  O  O20  1  0.94003400  0.72564600  0.08722400  1
  O  O21  1  0.12273100  0.50169100  0.30033500  1
  O  O22  1  0.30033500  0.12273100  0.50169100  1
  O  O23  1  0.50169100  0.30033500  0.12273100  1
loop_
_geom_bond_atom_site_label_1
_geom_bond_atom_site_label_2
_geom_bond_distance
_geom_bond_site_symmetry_2
Li0 O7 2.041161 1_555
Li0 O9 2.075516 1_555
Li0 O4 2.238639 1_555
Li0 O6 2.336907 1_555
Li1 O4 2.041161 1_555
Li1 O11 2.075516 1_555
Li1 O8 2.238639 1_555
Li1 O3 2.336907 1_555
Li2 O5 2.030403 1_555
Li2 O15 2.076070 1_555
Li2 O10 2.189745 1_555
Li2 O16 2.559929 1_555
Li2 O20 2.611002 1_456
Li3 O10 2.105108 1_655
Li3 O17 2.105108 1_565
Li3 O20 2.105108 1_556
Li3 O13 2.653350 1_566
Li3 O6 2.653350 1_656
Li3 O3 2.653350 1_665
Li4 O8 2.041161 1_555
Li4 O18 2.075516 1_555
Li4 O7 2.238639 1_555
Li4 O13 2.336907 1_555
Li5 O12 2.030403 1_555
Li5 O19 2.076070 1_555
Li5 O20 2.189745 1_555
Li5 O15 2.559929 1_555
Li5 O17 2.611002 1_564
Li6 O14 2.030403 1_555
Li6 O16 2.076070 1_555
Li6 O17 2.189745 1_555
Li6 O19 2.559929 1_555
Li6 O10 2.611002 1_645
Cr0 O3 2.027217 1_554
Cr0 O6 2.027217 1_545
Cr0 O13 2.027217 1_455
Cr0 O9 2.039245 1_545
Cr0 O18 2.039245 1_455
Cr0 O11 2.039245 1_554
Cr1 O0 1.987693 1_555
Cr1 O2 1.987693 1_555
Cr1 O1 1.987693 1_555
Cr1 O19 2.039267 1_555
Cr1 O15 2.039267 1_555
Cr1 O16 2.039267 1_555
Cr2 O23 1.945370 1_555
Cr2 O21 1.945370 1_555
Cr2 O22 1.945370 1_555
Cr2 O4 2.011192 1_555
Cr2 O8 2.011192 1_555
Cr2 O7 2.011192 1_555
Fe0 O14 2.032581 1_565
Fe0 O5 2.032581 1_655
Fe0 O12 2.032581 1_556
Fe0 O20 2.177605 1_556
Fe0 O17 2.177606 1_565
Fe0 O10 2.177606 1_655
O0 P1 1.525960 1_556
O1 P2 1.525960 1_565
O2 P0 1.525960 1_655
O3 P0 1.559957 1_555
O4 P0 1.569085 1_555
O5 P0 1.539053 1_555
O6 P1 1.559957 1_555
O7 P1 1.569085 1_555
O8 P2 1.569085 1_555
O9 P3 1.566666 1_555
O10 P3 1.548932 1_555
O11 P4 1.566666 1_555
O12 P1 1.539053 1_555
O13 P2 1.559957 1_555
O14 P2 1.539053 1_555
O15 P3 1.567357 1_555
O16 P4 1.567357 1_555
O17 P4 1.548932 1_555
O18 P5 1.566666 1_555
O19 P5 1.567357 1_555
O20 P5 1.548932 1_555
O21 P5 1.515179 1_455
O22 P3 1.515179 1_545
O23 P4 1.515179 1_554
