# generated using pymatgen
data_Li6V3P8O29
_symmetry_space_group_name_H-M   'P 1'
_cell_length_a   9.80951200
_cell_length_b   9.81121218
_cell_length_c   13.88622351
_cell_angle_alpha   89.71054456
_cell_angle_beta   89.72870045
_cell_angle_gamma   60.05900000
_symmetry_Int_Tables_number   1
_chemical_formula_structural   Li6V3P8O29
_chemical_formula_sum   'Li12 V6 P16 O58'
_cell_volume   1158.07259835
_cell_formula_units_Z   2
loop_
 _symmetry_equiv_pos_site_id
 _symmetry_equiv_pos_as_xyz
  1  'x, y, z'
loop_
 _atom_site_type_symbol
 _atom_site_label
 _atom_site_symmetry_multiplicity
 _atom_site_fract_x
 _atom_site_fract_y
 _atom_site_fract_z
 _atom_site_occupancy
  Li  Li0  1  0.22732000  0.09325200  0.55791800  1
  Li  Li1  1  0.09255800  0.67679300  0.56035500  1
  Li  Li2  1  0.32540000  0.33571800  0.88508000  1
  Li  Li3  1  0.23213900  0.66882800  0.06327600  1
  Li  Li4  1  0.66974900  0.09535400  0.06322500  1
  Li  Li5  1  0.32463300  0.77074400  0.43751900  1
  Li  Li6  1  0.67820200  0.22761600  0.55931700  1
  Li  Li7  1  0.33165600  0.90392900  0.94172200  1
  Li  Li8  1  0.76576800  0.33665800  0.94165200  1
  Li  Li9  1  0.90478100  0.32557800  0.43696900  1
  Li  Li10  1  0.77227400  0.90331300  0.43891800  1
  Li  Li11  1  0.00146700  0.99964300  0.00379300  1
  V  V0  1  0.43245400  0.56708300  0.25087400  1
  V  V1  1  0.56912100  0.43346000  0.74681600  1
  V  V2  1  0.43606100  0.99922400  0.75036900  1
  V  V3  1  0.56800700  0.99814500  0.24987200  1
  V  V4  1  0.00253100  0.43101500  0.24465000  1
  V  V5  1  0.99457000  0.56856800  0.75512800  1
  P  P0  1  0.08632800  0.22287300  0.84338600  1
  P  P1  1  0.23081700  0.08751300  0.34036800  1
  P  P2  1  0.08549500  0.68019600  0.34304000  1
  P  P3  1  0.33476100  0.33351500  0.12633900  1
  P  P4  1  0.33211600  0.33402500  0.62757800  1
  P  P5  1  0.22676900  0.68265300  0.84304100  1
  P  P6  1  0.31717700  0.77042500  0.65709400  1
  P  P7  1  0.68434800  0.09096200  0.84341200  1
  P  P8  1  0.31559000  0.91181600  0.15621100  1
  P  P9  1  0.68065100  0.23062800  0.34204400  1
  P  P10  1  0.77216100  0.31667000  0.15810600  1
  P  P11  1  0.66802000  0.66459100  0.37232300  1
  P  P12  1  0.66561400  0.66627800  0.87382900  1
  P  P13  1  0.91505100  0.31930400  0.65579700  1
  P  P14  1  0.77066100  0.91219800  0.65796600  1
  P  P15  1  0.91482800  0.77466400  0.15715300  1
  O  O0  1  0.00226600  0.24071400  0.56465600  1
  O  O1  1  0.08366000  0.25185200  0.34102100  1
  O  O2  1  0.22779600  0.98770200  0.06513800  1
  O  O3  1  0.25342400  0.07815500  0.84404000  1
  O  O4  1  0.10379500  0.37179800  0.83254800  1
  O  O5  1  0.19317200  0.32451000  0.16929400  1
  O  O6  1  0.09343700  0.52217600  0.32416900  1
  O  O7  1  0.00514100  0.78736700  0.07303200  1
  O  O8  1  0.08386800  0.66085900  0.84180200  1
  O  O9  1  0.33100300  0.18345600  0.67132600  1
  O  O10  1  0.38189700  0.09667900  0.32222900  1
  O  O11  1  0.18508100  0.48281800  0.67130900  1
  O  O12  1  0.33749000  0.33616700  0.01757600  1
  O  O13  1  0.33111000  0.33105000  0.52024000  1
  O  O14  1  0.32433400  0.48909700  0.16480800  1
  O  O15  1  0.51898200  0.10804200  0.83054100  1
  O  O16  1  0.49022600  0.18808700  0.16401800  1
  O  O17  1  0.25162800  0.66225500  0.34275600  1
  O  O18  1  0.20989800  0.79063400  0.74990300  1
  O  O19  1  0.24275400  0.75357300  0.56700900  1
  O  O20  1  0.23102100  0.77045400  0.93153500  1
  O  O21  1  0.37628300  0.51971700  0.82984800  1
  O  O22  1  0.48707500  0.32638300  0.66640800  1
  O  O23  1  0.33810500  0.74291000  0.16253400  1
  O  O24  1  0.52058100  0.37977300  0.32366600  1
  O  O25  1  0.66392100  0.08245800  0.34305900  1
  O  O26  1  0.20768000  0.99965800  0.24944600  1
  O  O27  1  0.24484500  0.99696400  0.43135400  1
  O  O28  1  0.75761600  0.00324400  0.56753300  1
  O  O29  1  0.33561800  0.91648100  0.65592500  1
  O  O30  1  0.47715200  0.61909400  0.67705000  1
  O  O31  1  0.66160100  0.26040600  0.83810000  1
  O  O32  1  0.51203300  0.67425200  0.33231300  1
  O  O33  1  0.61937200  0.47246900  0.17021700  1
  O  O34  1  0.77571700  0.22672100  0.06854500  1
  O  O35  1  0.75764200  0.24404700  0.43218900  1
  O  O36  1  0.79197500  0.20662100  0.25044000  1
  O  O37  1  0.74978500  0.33366600  0.65715000  1
  O  O38  1  0.51419100  0.81754900  0.83141800  1
  O  O39  1  0.47219200  0.90708200  0.16988100  1
  O  O40  1  0.67237300  0.51492500  0.83288200  1
  O  O41  1  0.66038400  0.66990700  0.98084200  1
  O  O42  1  0.66459700  0.66681300  0.48014300  1
  O  O43  1  0.81410400  0.51252000  0.33178800  1
  O  O44  1  0.62182400  0.90032800  0.67475800  1
  O  O45  1  0.67492500  0.81292600  0.33218900  1
  O  O46  1  0.91598800  0.33976200  0.16199600  1
  O  O47  1  0.00665000  0.20570400  0.74545900  1
  O  O48  1  0.98955400  0.22130800  0.92663700  1
  O  O49  1  0.90328900  0.47854300  0.67286900  1
  O  O50  1  0.81260000  0.66874600  0.82834500  1
  O  O51  1  0.90775500  0.62382400  0.16874800  1
  O  O52  1  0.74533500  0.91971900  0.16013200  1
  O  O53  1  0.76694200  0.01340300  0.93492900  1
  O  O54  1  0.78963700  0.00259200  0.75074400  1
  O  O55  1  0.91972700  0.74961300  0.65900100  1
  O  O56  1  0.99872200  0.75704200  0.43470800  1
  O  O57  1  0.99475300  0.79545500  0.25450100  1
loop_
_geom_bond_atom_site_label_1
_geom_bond_atom_site_label_2
_geom_bond_distance
_geom_bond_site_symmetry_2
Li0 O0 1.945978 1_555
Li0 O27 1.965351 1_545
Li0 O29 2.034539 1_545
Li0 O9 2.285933 1_555
Li1 O56 1.946607 1_455
Li1 O19 1.963838 1_555
Li1 O55 2.009968 1_455
Li1 O11 2.253644 1_555
Li2 O12 1.844417 1_556
Li2 O4 2.151109 1_555
Li2 O15 2.222283 1_555
Li2 O21 2.231179 1_555
Li3 O7 1.934670 1_555
Li3 O23 2.070369 1_555
Li3 O14 2.076115 1_555
Li3 O20 2.076481 1_554
Li4 O53 1.990618 1_554
Li4 O52 2.010127 1_545
Li4 O34 2.021451 1_555
Li4 O16 2.068368 1_555
Li5 O27 1.952108 1_555
Li5 O19 2.006264 1_555
Li5 O17 2.039952 1_555
Li5 O32 2.158979 1_555
Li6 O28 1.937097 1_555
Li6 O35 1.964466 1_555
Li6 O37 2.043015 1_555
Li6 O22 2.200037 1_555
Li7 O2 1.952534 1_556
Li7 O20 2.000778 1_555
Li7 O3 2.006927 1_565
Li7 O38 2.177817 1_555
Li8 O48 1.913478 1_555
Li8 O34 2.038419 1_556
Li8 O31 2.111726 1_555
Li8 O40 2.136965 1_555
Li9 O35 1.970158 1_555
Li9 O0 1.989452 1_655
Li9 O1 2.024358 1_655
Li9 O43 2.155268 1_555
Li10 O56 1.953139 1_555
Li10 O28 2.011515 1_565
Li10 O25 2.028744 1_565
Li10 O45 2.183319 1_555
Li11 O7 2.273426 1_555
Li11 O2 2.329339 1_555
Li11 O48 2.369658 1_464
Li11 O34 2.398449 1_465
Li11 O53 2.436147 1_464
Li11 O20 2.465910 1_554
O0 P13 1.506435 1_455
O1 P1 1.536317 1_555
O1 V4 2.025829 1_555
O2 P8 1.502042 1_555
O3 P0 1.542614 1_555
O3 V2 2.025969 1_545
O4 P0 1.560245 1_555
O4 V5 1.988958 1_455
O5 P3 1.551389 1_555
O5 V4 1.930284 1_555
O6 P2 1.536789 1_555
O6 V4 1.905233 1_555
O7 P15 1.504612 1_455
O8 P5 1.520033 1_555
O8 V5 1.961780 1_455
O9 P4 1.599515 1_555
O9 V2 1.914474 1_545
O10 P1 1.548287 1_555
O10 V3 1.872911 1_545
O11 P4 1.574508 1_555
O11 V5 1.993706 1_455
O12 P3 1.510741 1_555
O13 P4 1.491128 1_555
O14 P3 1.574082 1_555
O14 V0 1.992476 1_555
O15 P7 1.556445 1_555
O15 V2 1.982010 1_545
O16 P3 1.569477 1_555
O16 V3 2.010758 1_545
O17 P2 1.549343 1_555
O17 V0 1.995864 1_555
O18 P6 1.609080 1_555
O18 P5 1.623468 1_555
O19 P6 1.502130 1_555
O20 P5 1.516879 1_555
O21 P5 1.549248 1_555
O21 V1 2.003778 1_555
O22 P4 1.581318 1_555
O22 V1 1.965326 1_555
O23 P8 1.560792 1_555
O23 V0 1.932075 1_555
O24 P9 1.542192 1_555
O24 V0 1.884141 1_555
O25 P9 1.542198 1_555
O25 V3 2.010783 1_545
O26 P1 1.611693 1_565
O26 P8 1.620836 1_555
O27 P1 1.507570 1_565
O28 P14 1.505775 1_545
O29 P6 1.531318 1_555
O29 V2 2.042361 1_555
O30 P6 1.555000 1_555
O30 V1 1.849280 1_555
O31 P7 1.564480 1_555
O31 V1 1.940139 1_555
O32 P11 1.588012 1_555
O32 V0 1.957945 1_555
O33 P10 1.524624 1_555
O33 V0 1.941692 1_555
O34 P10 1.518778 1_555
O35 P9 1.504838 1_555
O36 P9 1.612204 1_555
O36 P10 1.620620 1_555
O37 P13 1.555679 1_555
O37 V1 1.977139 1_555
O38 P12 1.598362 1_555
O38 V2 1.911919 1_555
O39 P8 1.526276 1_555
O39 V3 1.942579 1_555
O40 P12 1.562911 1_555
O40 V1 1.980468 1_555
O41 P12 1.486642 1_555
O42 P11 1.497455 1_555
O43 P11 1.569404 1_555
O43 V4 2.008297 1_655
O44 P14 1.538122 1_555
O44 V2 1.895167 1_555
O45 P11 1.588415 1_555
O45 V3 1.948528 1_555
O46 P10 1.537769 1_555
O46 V4 1.902084 1_655
O47 P13 1.611423 1_455
O47 P0 1.622417 1_555
O48 P0 1.497274 1_655
O49 P13 1.527719 1_555
O49 V5 1.922511 1_555
O50 P12 1.582574 1_555
O50 V5 1.851395 1_555
O51 P15 1.523449 1_555
O51 V4 1.946099 1_655
O52 P15 1.558667 1_555
O52 V3 1.955478 1_555
O53 P7 1.495001 1_555
O54 P7 1.605970 1_555
O54 P14 1.630833 1_545
O55 P14 1.534450 1_555
O55 V5 2.039488 1_555
O56 P2 1.507360 1_655
O57 P2 1.604444 1_655
O57 P15 1.629762 1_555
