# generated using pymatgen
data_CsMgP(H6O5)2
_symmetry_space_group_name_H-M   'P 1'
_cell_length_a   7.16684967
_cell_length_b   7.16684967
_cell_length_c   7.16684967
_cell_angle_alpha   60.00000000
_cell_angle_beta   60.00000000
_cell_angle_gamma   60.00000000
_symmetry_Int_Tables_number   1
_chemical_formula_structural   CsMgP(H6O5)2
_chemical_formula_sum   'Cs1 Mg1 P1 H12 O10'
_cell_volume   260.29743381
_cell_formula_units_Z   1
loop_
 _symmetry_equiv_pos_site_id
 _symmetry_equiv_pos_as_xyz
  1  'x, y, z'
loop_
 _atom_site_type_symbol
 _atom_site_label
 _atom_site_symmetry_multiplicity
 _atom_site_fract_x
 _atom_site_fract_y
 _atom_site_fract_z
 _atom_site_occupancy
  Cs  Cs0  1  0.75000000  0.75000000  0.75000000  1
  Mg  Mg0  1  0.00000000  0.00000000  0.00000000  1
  P  P0  1  0.25000000  0.25000000  0.25000000  1
  H  H0  1  0.85544100  0.26093000  0.26093000  1
  H  H1  1  0.85544100  0.26093000  0.62269900  1
  H  H2  1  0.85544100  0.62269900  0.26093000  1
  H  H3  1  0.62269900  0.85544100  0.26093000  1
  H  H4  1  0.26093000  0.85544100  0.26093000  1
  H  H5  1  0.26093000  0.85544100  0.62269900  1
  H  H6  1  0.62269900  0.26093000  0.26093000  1
  H  H7  1  0.26093000  0.62269900  0.26093000  1
  H  H8  1  0.26093000  0.26093000  0.62269900  1
  H  H9  1  0.62269900  0.26093000  0.85544100  1
  H  H10  1  0.26093000  0.26093000  0.85544100  1
  H  H11  1  0.26093000  0.62269900  0.85544100  1
  O  O0  1  0.79446000  0.20554000  0.20554000  1
  O  O1  1  0.98272400  0.33909200  0.33909200  1
  O  O2  1  0.79446000  0.79446000  0.20554000  1
  O  O3  1  0.20554000  0.79446000  0.20554000  1
  O  O4  1  0.79446000  0.20554000  0.79446000  1
  O  O5  1  0.33909200  0.98272400  0.33909200  1
  O  O6  1  0.20554000  0.79446000  0.79446000  1
  O  O7  1  0.33909200  0.33909200  0.33909200  1
  O  O8  1  0.20554000  0.20554000  0.79446000  1
  O  O9  1  0.33909200  0.33909200  0.98272400  1
loop_
_geom_bond_atom_site_label_1
_geom_bond_atom_site_label_2
_geom_bond_distance
_geom_bond_site_symmetry_2
Cs0 O6 3.611647 1_555
Cs0 O4 3.611647 1_555
Cs0 O2 3.611647 1_555
Cs0 O3 3.611647 1_556
Cs0 O8 3.611647 1_655
Cs0 O8 3.611647 1_565
Cs0 O3 3.611647 1_655
Cs0 O0 3.611647 1_556
Cs0 O0 3.611647 1_565
Cs0 O2 3.611647 1_556
Cs0 O6 3.611647 1_655
Cs0 O4 3.611647 1_565
Mg0 O6 2.083242 1_544
Mg0 O2 2.083242 1_445
Mg0 O4 2.083242 1_454
Mg0 O8 2.083242 1_554
Mg0 O3 2.083242 1_545
Mg0 O0 2.083242 1_455
H0 O0 1.005361 1_555
H0 O1 1.671985 1_555
H1 O4 1.005361 1_555
H1 O1 1.671985 1_555
H2 O2 1.005361 1_555
H2 O1 1.671985 1_555
H3 O2 1.005361 1_555
H3 O5 1.671985 1_555
H4 O3 1.005361 1_555
H4 O5 1.671985 1_555
H5 O6 1.005361 1_555
H5 O5 1.671985 1_555
H6 O0 1.005361 1_555
H6 O7 1.671985 1_555
H7 O3 1.005361 1_555
H7 O7 1.671985 1_555
H8 O8 1.005361 1_555
H8 O7 1.671985 1_555
H9 O4 1.005361 1_555
H9 O9 1.671985 1_555
H10 O8 1.005361 1_555
H10 O9 1.671985 1_555
H11 O6 1.005361 1_555
H11 O9 1.671985 1_555
O1 P0 1.564021 1_655
O5 P0 1.564021 1_565
O7 P0 1.564021 1_555
O9 P0 1.564021 1_556
