# generated using pymatgen
data_LiSiBiO4
_symmetry_space_group_name_H-M   'P 1'
_cell_length_a   8.67523773
_cell_length_b   8.67523773
_cell_length_c   8.67523803
_cell_angle_alpha   103.17524579
_cell_angle_beta   103.17524579
_cell_angle_gamma   103.17524922
_symmetry_Int_Tables_number   1
_chemical_formula_structural   LiSiBiO4
_chemical_formula_sum   'Li6 Si6 Bi6 O24'
_cell_volume   591.38866795
_cell_formula_units_Z   6
loop_
 _symmetry_equiv_pos_site_id
 _symmetry_equiv_pos_as_xyz
  1  'x, y, z'
loop_
 _atom_site_type_symbol
 _atom_site_label
 _atom_site_symmetry_multiplicity
 _atom_site_fract_x
 _atom_site_fract_y
 _atom_site_fract_z
 _atom_site_occupancy
  Li  Li0  1  0.44014700  0.03578200  0.18939400  1
  Li  Li1  1  0.81060600  0.55985300  0.96421800  1
  Li  Li2  1  0.96421800  0.81060600  0.55985300  1
  Li  Li3  1  0.03578200  0.18939400  0.44014700  1
  Li  Li4  1  0.18939400  0.44014700  0.03578200  1
  Li  Li5  1  0.55985300  0.96421800  0.81060600  1
  Si  Si0  1  0.91294000  0.14506700  0.74580400  1
  Si  Si1  1  0.85493300  0.25419600  0.08706000  1
  Si  Si2  1  0.25419600  0.08706000  0.85493300  1
  Si  Si3  1  0.74580400  0.91294000  0.14506700  1
  Si  Si4  1  0.14506700  0.74580400  0.91294000  1
  Si  Si5  1  0.08706000  0.85493300  0.25419600  1
  Bi  Bi0  1  0.81146900  0.45616700  0.55562200  1
  Bi  Bi1  1  0.44437800  0.18853100  0.54383300  1
  Bi  Bi2  1  0.54383300  0.44437800  0.18853100  1
  Bi  Bi3  1  0.45616700  0.55562200  0.81146900  1
  Bi  Bi4  1  0.55562200  0.81146900  0.45616700  1
  Bi  Bi5  1  0.18853100  0.54383300  0.44437800  1
  O  O0  1  0.95492900  0.26167000  0.94203200  1
  O  O1  1  0.73833000  0.05796800  0.04507100  1
  O  O2  1  0.92999500  0.25733100  0.62068800  1
  O  O3  1  0.74266900  0.37931200  0.07000500  1
  O  O4  1  0.01041100  0.69343800  0.73205400  1
  O  O5  1  0.55780300  0.27991800  0.33472900  1
  O  O6  1  0.37931200  0.07000500  0.74266900  1
  O  O7  1  0.66527100  0.44219700  0.72008200  1
  O  O8  1  0.26794600  0.98958900  0.30656200  1
  O  O9  1  0.30656200  0.26794600  0.98958900  1
  O  O10  1  0.72008200  0.66527100  0.44219700  1
  O  O11  1  0.05796800  0.04507100  0.73833000  1
  O  O12  1  0.94203200  0.95492900  0.26167000  1
  O  O13  1  0.27991800  0.33472900  0.55780300  1
  O  O14  1  0.69343800  0.73205400  0.01041100  1
  O  O15  1  0.73205400  0.01041100  0.69343800  1
  O  O16  1  0.33472900  0.55780300  0.27991800  1
  O  O17  1  0.62068800  0.92999500  0.25733100  1
  O  O18  1  0.44219700  0.72008200  0.66527100  1
  O  O19  1  0.98958900  0.30656200  0.26794600  1
  O  O20  1  0.25733100  0.62068800  0.92999500  1
  O  O21  1  0.07000500  0.74266900  0.37931200  1
  O  O22  1  0.26167000  0.94203200  0.95492900  1
  O  O23  1  0.04507100  0.73833000  0.05796800  1
loop_
_geom_bond_atom_site_label_1
_geom_bond_atom_site_label_2
_geom_bond_distance
_geom_bond_site_symmetry_2
Li0 O8 2.007603 1_545
Li0 O17 2.030686 1_545
Li0 O5 2.080318 1_555
Li0 O22 2.105294 1_544
Li1 O14 2.007603 1_556
Li1 O3 2.030686 1_556
Li1 O7 2.080318 1_555
Li1 O23 2.105294 1_656
Li2 O4 2.007603 1_655
Li2 O21 2.030686 1_655
Li2 O10 2.080318 1_555
Li2 O11 2.105294 1_665
Li3 O19 2.007603 1_455
Li3 O2 2.030686 1_455
Li3 O13 2.080318 1_555
Li3 O12 2.105294 1_445
Li4 O9 2.007603 1_554
Li4 O20 2.030686 1_554
Li4 O16 2.080318 1_555
Li4 O0 2.105294 1_454
Li5 O15 2.007603 1_565
Li5 O6 2.030686 1_565
Li5 O18 2.080318 1_555
Li5 O1 2.105294 1_566
Bi0 O7 2.119547 1_555
Bi0 O4 2.301829 1_655
Bi0 O2 2.310664 1_555
Bi0 O10 2.449725 1_555
Bi0 O5 2.461876 1_555
Bi1 O13 2.119547 1_555
Bi1 O8 2.301829 1_545
Bi1 O6 2.310664 1_555
Bi1 O5 2.449725 1_555
Bi1 O7 2.461876 1_555
Bi2 O5 2.119547 1_555
Bi2 O9 2.301829 1_554
Bi2 O3 2.310664 1_555
Bi2 O16 2.449725 1_555
Bi2 O10 2.461876 1_555
Bi3 O18 2.119547 1_555
Bi3 O14 2.301829 1_556
Bi3 O20 2.310664 1_555
Bi3 O7 2.449725 1_555
Bi3 O13 2.461876 1_555
Bi4 O10 2.119547 1_555
Bi4 O15 2.301829 1_565
Bi4 O17 2.310664 1_555
Bi4 O18 2.449725 1_555
Bi4 O16 2.461876 1_555
Bi5 O16 2.119547 1_555
Bi5 O19 2.301829 1_455
Bi5 O21 2.310664 1_555
Bi5 O13 2.449725 1_555
Bi5 O18 2.461876 1_555
O0 Si0 1.678751 1_555
O0 Si1 1.687832 1_556
O1 Si1 1.678751 1_555
O1 Si3 1.687832 1_545
O2 Si0 1.624171 1_555
O3 Si1 1.624171 1_555
O4 Si4 1.622017 1_555
O6 Si2 1.624171 1_555
O8 Si5 1.622017 1_555
O9 Si2 1.622017 1_555
O11 Si2 1.678751 1_555
O11 Si0 1.687832 1_455
O12 Si3 1.678751 1_555
O12 Si5 1.687832 1_655
O14 Si3 1.622017 1_555
O15 Si0 1.622017 1_555
O17 Si3 1.624171 1_555
O19 Si1 1.622017 1_555
O20 Si4 1.624171 1_555
O21 Si5 1.624171 1_555
O22 Si4 1.678751 1_555
O22 Si2 1.687832 1_565
O23 Si5 1.678751 1_555
O23 Si4 1.687832 1_554
