# generated using pymatgen
data_H10S(NO2)2
_symmetry_space_group_name_H-M   'P 1'
_cell_length_a   8.39452300
_cell_length_b   6.52054400
_cell_length_c   13.52350429
_cell_angle_alpha   80.25969695
_cell_angle_beta   90.00000000
_cell_angle_gamma   90.00000000
_symmetry_Int_Tables_number   1
_chemical_formula_structural   H10S(NO2)2
_chemical_formula_sum   'H40 S4 N8 O16'
_cell_volume   729.56342241
_cell_formula_units_Z   4
loop_
 _symmetry_equiv_pos_site_id
 _symmetry_equiv_pos_as_xyz
  1  'x, y, z'
loop_
 _atom_site_type_symbol
 _atom_site_label
 _atom_site_symmetry_multiplicity
 _atom_site_fract_x
 _atom_site_fract_y
 _atom_site_fract_z
 _atom_site_occupancy
  H  H0  1  0.35924800  0.62659500  0.10824000  1
  H  H1  1  0.85924800  0.37340500  0.39176000  1
  H  H2  1  0.64075200  0.37340500  0.89176000  1
  H  H3  1  0.14075200  0.62659500  0.60824000  1
  H  H4  1  0.40156100  0.77459900  0.19447400  1
  H  H5  1  0.90156100  0.22540100  0.30552600  1
  H  H6  1  0.59843900  0.22540100  0.80552600  1
  H  H7  1  0.09843900  0.77459900  0.69447400  1
  H  H8  1  0.21780400  0.64316500  0.19787400  1
  H  H9  1  0.71780400  0.35683500  0.30212600  1
  H  H10  1  0.78219600  0.35683500  0.80212600  1
  H  H11  1  0.28219600  0.64316500  0.69787400  1
  H  H12  1  0.40980200  0.51027300  0.22444100  1
  H  H13  1  0.90980200  0.48972700  0.27555900  1
  H  H14  1  0.59019800  0.48972700  0.77555900  1
  H  H15  1  0.09019800  0.51027300  0.72444100  1
  H  H16  1  0.71108000  0.58981700  0.11243200  1
  H  H17  1  0.21108000  0.41018300  0.38756800  1
  H  H18  1  0.28892000  0.41018300  0.88756800  1
  H  H19  1  0.78892000  0.58981700  0.61243200  1
  H  H20  1  0.67862300  0.82289500  0.14446400  1
  H  H21  1  0.17862300  0.17710500  0.35553600  1
  H  H22  1  0.32137700  0.17710500  0.85553600  1
  H  H23  1  0.82137700  0.82289500  0.64446400  1
  H  H24  1  0.95086900  0.71526700  0.16941100  1
  H  H25  1  0.45086900  0.28473300  0.33058900  1
  H  H26  1  0.04913100  0.28473300  0.83058900  1
  H  H27  1  0.54913100  0.71526700  0.66941100  1
  H  H28  1  0.74284900  0.80021100  0.03025400  1
  H  H29  1  0.24284900  0.19978900  0.46974600  1
  H  H30  1  0.25715100  0.19978900  0.96974600  1
  H  H31  1  0.75715100  0.80021100  0.53025400  1
  H  H32  1  0.07092700  0.13072700  0.21122900  1
  H  H33  1  0.57092700  0.86927300  0.28877100  1
  H  H34  1  0.92907300  0.86927300  0.78877100  1
  H  H35  1  0.42907300  0.13072700  0.71122900  1
  H  H36  1  0.04214800  0.89050000  0.25416700  1
  H  H37  1  0.54214800  0.10950000  0.24583300  1
  H  H38  1  0.95785200  0.10950000  0.74583300  1
  H  H39  1  0.45785200  0.89050000  0.75416700  1
  S  S0  1  0.10838800  0.78936200  0.97733300  1
  S  S1  1  0.60838800  0.21063800  0.52266700  1
  S  S2  1  0.89161200  0.21063800  0.02266700  1
  S  S3  1  0.39161200  0.78936200  0.47733300  1
  N  N0  1  0.34651600  0.63616300  0.18270400  1
  N  N1  1  0.84651600  0.36383700  0.31729600  1
  N  N2  1  0.65348400  0.36383700  0.81729600  1
  N  N3  1  0.15348400  0.63616300  0.68270400  1
  N  N4  1  0.75210500  0.74000100  0.10471900  1
  N  N5  1  0.25210500  0.25999900  0.39528100  1
  N  N6  1  0.24789500  0.25999900  0.89528100  1
  N  N7  1  0.74789500  0.74000100  0.60471900  1
  O  O0  1  0.23426200  0.70059600  0.46425500  1
  O  O1  1  0.73426200  0.29940400  0.03574500  1
  O  O2  1  0.76573800  0.29940400  0.53574500  1
  O  O3  1  0.26573800  0.70059600  0.96425500  1
  O  O4  1  0.03828400  0.04192500  0.27337400  1
  O  O5  1  0.53828400  0.95807500  0.22662600  1
  O  O6  1  0.96171600  0.95807500  0.72662600  1
  O  O7  1  0.46171600  0.04192500  0.77337400  1
  O  O8  1  0.04313300  0.69045700  0.21600200  1
  O  O9  1  0.54313300  0.30954300  0.28399800  1
  O  O10  1  0.95686700  0.30954300  0.78399800  1
  O  O11  1  0.45686700  0.69045700  0.71600200  1
  O  O12  1  0.02409200  0.29337400  0.07275600  1
  O  O13  1  0.52409200  0.70662600  0.42724400  1
  O  O14  1  0.97590800  0.70662600  0.92724400  1
  O  O15  1  0.47590800  0.29337400  0.57275600  1
loop_
_geom_bond_atom_site_label_1
_geom_bond_atom_site_label_2
_geom_bond_distance
_geom_bond_site_symmetry_2
H0 N0 1.025013 1_555
H1 N1 1.025013 1_555
H2 N2 1.025013 1_555
H3 N3 1.025013 1_555
H4 N0 1.049902 1_555
H5 N1 1.049902 1_555
H6 N2 1.049902 1_555
H7 N3 1.049902 1_555
H8 N0 1.102166 1_555
H8 O8 1.526679 1_555
H9 N1 1.102166 1_555
H9 O9 1.526679 1_555
H10 N2 1.102166 1_555
H10 O10 1.526679 1_555
H11 N3 1.102166 1_555
H11 O11 1.526679 1_555
H12 N0 1.057294 1_555
H13 N1 1.057294 1_555
H14 N2 1.057294 1_555
H15 N3 1.057294 1_555
H16 N4 1.026601 1_555
H17 N5 1.026601 1_555
H18 N6 1.026601 1_555
H19 N7 1.026601 1_555
H20 N4 1.029492 1_555
H21 N5 1.029492 1_555
H22 N6 1.029492 1_555
H23 N7 1.029492 1_555
H24 O8 0.994255 1_655
H25 O9 0.994255 1_555
H26 O10 0.994255 1_455
H27 O11 0.994255 1_555
H28 N4 1.020050 1_555
H29 N5 1.020050 1_555
H30 N6 1.020050 1_555
H31 N7 1.020050 1_555
H32 O4 0.975713 1_555
H33 O5 0.975713 1_555
H34 O6 0.975713 1_555
H35 O7 0.975713 1_555
H36 O4 1.063111 1_565
H36 O8 1.481783 1_555
H37 O5 1.063111 1_545
H37 O9 1.481783 1_555
H38 O6 1.063111 1_545
H38 O10 1.481783 1_555
H39 O7 1.063111 1_565
H39 O11 1.481783 1_555
O0 S3 1.464803 1_555
O1 S2 1.464803 1_555
O2 S1 1.464803 1_555
O3 S0 1.464803 1_555
O12 S2 1.452693 1_455
O13 S3 1.452693 1_555
O14 S0 1.452693 1_655
O15 S1 1.452693 1_555
