# generated using pymatgen
data_Li3Ni2(CO3)4
_symmetry_space_group_name_H-M   'P 1'
_cell_length_a   5.22867200
_cell_length_b   6.26995556
_cell_length_c   7.70789441
_cell_angle_alpha   90.27420145
_cell_angle_beta   90.24060465
_cell_angle_gamma   114.52032532
_symmetry_Int_Tables_number   1
_chemical_formula_structural   Li3Ni2(CO3)4
_chemical_formula_sum   'Li3 Ni2 C4 O12'
_cell_volume   229.89486581
_cell_formula_units_Z   1
loop_
 _symmetry_equiv_pos_site_id
 _symmetry_equiv_pos_as_xyz
  1  'x, y, z'
loop_
 _atom_site_type_symbol
 _atom_site_label
 _atom_site_symmetry_multiplicity
 _atom_site_fract_x
 _atom_site_fract_y
 _atom_site_fract_z
 _atom_site_occupancy
  Li  Li0  1  0.30303700  0.68825500  0.06102800  1
  Li  Li1  1  0.69488200  0.31525100  0.93433800  1
  Li  Li2  1  0.80544500  0.18984700  0.44408300  1
  Ni  Ni0  1  0.99450600  0.99833500  0.00384300  1
  Ni  Ni1  1  0.49872900  0.50769900  0.49918800  1
  C  C0  1  0.73804900  0.88291100  0.74102700  1
  C  C1  1  0.22665000  0.37417000  0.76313100  1
  C  C2  1  0.76522600  0.61547700  0.23309200  1
  C  C3  1  0.27232500  0.12226800  0.26151800  1
  O  O0  1  0.62010600  0.91571600  0.88240500  1
  O  O1  1  0.62244300  0.84809400  0.59315900  1
  O  O2  1  0.51686300  0.61493200  0.24300900  1
  O  O3  1  0.99131600  0.90138900  0.76623500  1
  O  O4  1  0.90031400  0.65571500  0.08627000  1
  O  O5  1  0.86820300  0.56944800  0.37146000  1
  O  O6  1  0.11026500  0.39244500  0.62007300  1
  O  O7  1  0.09561100  0.34068900  0.91101000  1
  O  O8  1  0.01478500  0.10328100  0.24732500  1
  O  O9  1  0.48601600  0.40092200  0.75555700  1
  O  O10  1  0.41056700  0.17293000  0.40118900  1
  O  O11  1  0.37369700  0.08046900  0.11628200  1
loop_
_geom_bond_atom_site_label_1
_geom_bond_atom_site_label_2
_geom_bond_distance
_geom_bond_site_symmetry_2
Li0 O2 1.961761 1_555
Li0 O4 2.039781 1_455
Li0 O0 2.180248 1_554
Li0 O7 2.294763 1_554
Li0 O11 2.366410 1_565
Li1 O9 1.965073 1_555
Li1 O7 2.043043 1_655
Li1 O11 2.222970 1_556
Li1 O4 2.268125 1_556
Li1 O0 2.400956 1_545
Li2 O10 2.048329 1_555
Li2 O6 2.068534 1_655
Li2 O8 2.071691 1_655
Li2 O1 2.271204 1_545
Li2 O5 2.334919 1_555
Ni0 O3 1.924751 1_554
Ni0 O8 1.973561 1_665
Ni0 O11 2.020170 1_665
Ni0 O0 2.028547 1_554
Ni0 O4 2.097272 1_555
Ni0 O7 2.115447 1_664
Ni1 O5 2.061563 1_555
Ni1 O6 2.078462 1_555
Ni1 O2 2.078810 1_555
Ni1 O1 2.081704 1_555
Ni1 O9 2.081896 1_555
Ni1 O10 2.089881 1_555
C0 O1 1.262684 1_555
C0 O3 1.294253 1_555
C0 O0 1.311066 1_555
C1 O6 1.285610 1_555
C1 O9 1.297154 1_555
C1 O7 1.304685 1_555
C2 O5 1.279758 1_555
C2 O2 1.299766 1_555
C2 O4 1.305682 1_555
C3 O10 1.257771 1_555
C3 O8 1.305767 1_555
C3 O11 1.311604 1_555
