# generated using pymatgen
data_Na5LiMn2P2(CO7)2
_symmetry_space_group_name_H-M   'P 1'
_cell_length_a   6.81677400
_cell_length_b   8.96649388
_cell_length_c   10.33163327
_cell_angle_alpha   90.21896242
_cell_angle_beta   90.11111302
_cell_angle_gamma   90.29750635
_symmetry_Int_Tables_number   1
_chemical_formula_structural   Na5LiMn2P2(CO7)2
_chemical_formula_sum   'Na10 Li2 Mn4 P4 C4 O28'
_cell_volume   631.48156229
_cell_formula_units_Z   2
loop_
 _symmetry_equiv_pos_site_id
 _symmetry_equiv_pos_as_xyz
  1  'x, y, z'
loop_
 _atom_site_type_symbol
 _atom_site_label
 _atom_site_symmetry_multiplicity
 _atom_site_fract_x
 _atom_site_fract_y
 _atom_site_fract_z
 _atom_site_occupancy
  Na  Na0  1  0.25234900  0.08307200  0.12128800  1
  Na  Na1  1  0.25190600  0.08372500  0.61888100  1
  Na  Na2  1  0.00129000  0.25760600  0.37599600  1
  Na  Na3  1  0.00176700  0.25958200  0.87629600  1
  Na  Na4  1  0.49834200  0.25913100  0.87640700  1
  Na  Na5  1  0.50180100  0.74184600  0.12489300  1
  Na  Na6  1  0.99831600  0.74145100  0.12471000  1
  Na  Na7  1  0.50190800  0.74114600  0.62296100  1
  Na  Na8  1  0.99822400  0.74104200  0.62260900  1
  Na  Na9  1  0.75029800  0.91676700  0.87940100  1
  Li  Li0  1  0.49073700  0.26665000  0.37955600  1
  Li  Li1  1  0.74592000  0.91785500  0.37784100  1
  Mn  Mn0  1  0.74902200  0.36062600  0.11318700  1
  Mn  Mn1  1  0.74768500  0.36035300  0.60883400  1
  Mn  Mn2  1  0.24968400  0.63990700  0.38793800  1
  Mn  Mn3  1  0.25013200  0.63787500  0.88960000  1
  P  P0  1  0.25310000  0.40927200  0.15048600  1
  P  P1  1  0.24978400  0.41050300  0.64625800  1
  P  P2  1  0.74630400  0.59145900  0.35054500  1
  P  P3  1  0.75002300  0.58845800  0.85128500  1
  C  C0  1  0.74832400  0.05938400  0.13788000  1
  C  C1  1  0.74917200  0.05536600  0.62755000  1
  C  C2  1  0.25610000  0.94394100  0.36840300  1
  C  C3  1  0.25006700  0.93985200  0.86784700  1
  O  O0  1  0.26764400  0.08854200  0.35880600  1
  O  O1  1  0.24911600  0.08395700  0.85717000  1
  O  O2  1  0.74962400  0.11759600  0.02240400  1
  O  O3  1  0.74842200  0.10889500  0.51060800  1
  O  O4  1  0.74485900  0.14653700  0.23889200  1
  O  O5  1  0.74815300  0.14585200  0.72732100  1
  O  O6  1  0.06709900  0.31808200  0.11123000  1
  O  O7  1  0.43350500  0.31810100  0.10485000  1
  O  O8  1  0.06476900  0.31870900  0.60621100  1
  O  O9  1  0.43120700  0.31832300  0.60182600  1
  O  O10  1  0.26201600  0.42419500  0.30184400  1
  O  O11  1  0.73656700  0.43153500  0.40956600  1
  O  O12  1  0.25289000  0.42741100  0.79707100  1
  O  O13  1  0.75041500  0.43071500  0.91242500  1
  O  O14  1  0.25016700  0.56810800  0.09122800  1
  O  O15  1  0.74871600  0.57292000  0.20018000  1
  O  O16  1  0.24984500  0.56894200  0.58680800  1
  O  O17  1  0.74940300  0.57020800  0.70070700  1
  O  O18  1  0.56797800  0.68943800  0.39063500  1
  O  O19  1  0.93166300  0.68143800  0.39317900  1
  O  O20  1  0.56735600  0.68071200  0.89244400  1
  O  O21  1  0.93364600  0.68125800  0.89249500  1
  O  O22  1  0.24966600  0.86022900  0.26486400  1
  O  O23  1  0.25044100  0.85543800  0.76487200  1
  O  O24  1  0.25014100  0.88017700  0.48119500  1
  O  O25  1  0.25074400  0.87766000  0.98150000  1
  O  O26  1  0.75082200  0.91563300  0.15350200  1
  O  O27  1  0.75086400  0.91251900  0.64551900  1
loop_
_geom_bond_atom_site_label_1
_geom_bond_atom_site_label_2
_geom_bond_distance
_geom_bond_site_symmetry_2
Na0 O25 2.336164 1_544
Na0 O7 2.443649 1_555
Na0 O0 2.456252 1_555
Na0 O6 2.464678 1_555
Na0 O22 2.493110 1_545
Na0 O1 2.728859 1_554
Na1 O24 2.309677 1_545
Na1 O9 2.434487 1_555
Na1 O1 2.462018 1_555
Na1 O8 2.472493 1_555
Na1 O23 2.547259 1_545
Na1 O0 2.689851 1_555
Na2 O0 2.377810 1_555
Na2 O11 2.415860 1_455
Na2 O10 2.442010 1_555
Na2 O4 2.452644 1_455
Na2 O8 2.475531 1_555
Na2 O3 2.585172 1_455
Na2 O6 2.826947 1_555
Na3 O1 2.321282 1_555
Na3 O13 2.335613 1_455
Na3 O12 2.419306 1_555
Na3 O6 2.519659 1_556
Na3 O5 2.521335 1_455
Na3 O2 2.618363 1_456
Na3 O8 2.874986 1_555
Na4 O1 2.315492 1_555
Na4 O13 2.328907 1_555
Na4 O12 2.403852 1_555
Na4 O7 2.458120 1_556
Na4 O5 2.514015 1_555
Na4 O2 2.616697 1_556
Na4 O9 2.923689 1_555
Na5 O26 2.316070 1_555
Na5 O14 2.335795 1_555
Na5 O15 2.400565 1_555
Na5 O22 2.487765 1_555
Na5 O20 2.502877 1_554
Na5 O25 2.575317 1_554
Na5 O18 2.823052 1_555
Na6 O26 2.323750 1_555
Na6 O14 2.347082 1_655
Na6 O15 2.402902 1_555
Na6 O22 2.475156 1_655
Na6 O21 2.495023 1_554
Na6 O25 2.577525 1_654
Na6 O19 2.864140 1_555
Na7 O27 2.294389 1_555
Na7 O16 2.332726 1_555
Na7 O17 2.423177 1_555
Na7 O23 2.480895 1_555
Na7 O18 2.485385 1_555
Na7 O24 2.582873 1_555
Na7 O20 2.872920 1_555
Na8 O27 2.299789 1_555
Na8 O16 2.342161 1_655
Na8 O17 2.421184 1_555
Na8 O19 2.468574 1_555
Na8 O23 2.475649 1_655
Na8 O24 2.577095 1_655
Na8 O21 2.875734 1_555
Na9 O2 2.324931 1_566
Na9 O27 2.416549 1_555
Na9 O20 2.455343 1_555
Na9 O21 2.463448 1_555
Na9 O5 2.590978 1_565
Na9 O26 2.831964 1_556
Li0 O0 2.209080 1_555
Li0 O11 2.249193 1_555
Li0 O10 2.257820 1_555
Li0 O9 2.377034 1_555
Li0 O4 2.507982 1_555
Li0 O3 2.636455 1_555
Li1 O3 2.190371 1_565
Li1 O26 2.318105 1_555
Li1 O18 2.379164 1_555
Li1 O19 2.480250 1_555
Li1 O4 2.507584 1_565
Mn0 O15 2.101956 1_555
Mn0 O13 2.169637 1_554
Mn0 O7 2.183872 1_555
Mn0 O6 2.203628 1_655
Mn0 O4 2.321880 1_555
Mn0 O2 2.369140 1_555
Mn1 O17 2.104245 1_555
Mn1 O11 2.159065 1_555
Mn1 O9 2.189111 1_555
Mn1 O8 2.195617 1_655
Mn1 O5 2.283813 1_555
Mn1 O3 2.469053 1_555
Mn2 O10 2.127944 1_555
Mn2 O16 2.153247 1_555
Mn2 O19 2.202267 1_455
Mn2 O18 2.212566 1_555
Mn2 O22 2.353448 1_555
Mn2 O24 2.356638 1_555
Mn3 O12 2.112375 1_555
Mn3 O14 2.177336 1_556
Mn3 O21 2.194429 1_455
Mn3 O20 2.194448 1_555
Mn3 O23 2.342076 1_555
Mn3 O25 2.347008 1_555
C0 O26 1.299815 1_545
C0 O4 1.301702 1_555
C0 O2 1.304091 1_555
C1 O27 1.295030 1_545
C1 O3 1.301761 1_555
C1 O5 1.309413 1_555
C2 O24 1.300598 1_555
C2 O0 1.302711 1_565
C2 O22 1.304984 1_555
C3 O1 1.297285 1_565
C3 O25 1.301843 1_555
C3 O23 1.303326 1_555
O6 P0 1.557368 1_555
O7 P0 1.553284 1_555
O8 P1 1.556877 1_555
O9 P1 1.559897 1_555
O10 P0 1.570013 1_555
O11 P2 1.561514 1_555
O12 P1 1.565018 1_555
O13 P3 1.551262 1_555
O14 P0 1.552576 1_555
O15 P2 1.561880 1_555
O16 P1 1.549887 1_555
O17 P3 1.563672 1_555
O18 P2 1.559274 1_555
O19 P2 1.557575 1_555
O20 P3 1.557454 1_555
O21 P3 1.557195 1_555
