# generated using pymatgen
data_Rb2ZrO3
_symmetry_space_group_name_H-M   'P 1'
_cell_length_a   7.35007398
_cell_length_b   7.35007398
_cell_length_c   5.95713242
_cell_angle_alpha   85.91426267
_cell_angle_beta   85.91426267
_cell_angle_gamma   125.03626549
_symmetry_Int_Tables_number   1
_chemical_formula_structural   Rb2ZrO3
_chemical_formula_sum   'Rb4 Zr2 O6'
_cell_volume   260.34752514
_cell_formula_units_Z   2
loop_
 _symmetry_equiv_pos_site_id
 _symmetry_equiv_pos_as_xyz
  1  'x, y, z'
loop_
 _atom_site_type_symbol
 _atom_site_label
 _atom_site_symmetry_multiplicity
 _atom_site_fract_x
 _atom_site_fract_y
 _atom_site_fract_z
 _atom_site_occupancy
  Rb  Rb0  1  0.43877800  0.61538700  0.48278400  1
  Rb  Rb1  1  0.75189000  0.23725400  0.47808500  1
  Rb  Rb2  1  0.61538700  0.43877800  0.98278400  1
  Rb  Rb3  1  0.23725400  0.75189000  0.97808500  1
  Zr  Zr0  1  0.08837600  0.98804800  0.46277600  1
  Zr  Zr1  1  0.98804800  0.08837600  0.96277600  1
  O  O0  1  0.19164400  0.25908500  0.22740300  1
  O  O1  1  0.25908500  0.19164400  0.72740300  1
  O  O2  1  0.27143200  0.87123500  0.43171300  1
  O  O3  1  0.86567700  0.81879300  0.21943800  1
  O  O4  1  0.87123500  0.27143200  0.93171300  1
  O  O5  1  0.81879300  0.86567700  0.71943800  1
loop_
_geom_bond_atom_site_label_1
_geom_bond_atom_site_label_2
_geom_bond_distance
_geom_bond_site_symmetry_2
O0 Zr0 2.055459 1_545
O0 Zr1 2.181953 1_454
O0 Rb2 2.814986 1_554
O0 Rb0 2.823455 1_555
O0 Rb1 3.374262 1_455
O1 Zr1 2.055459 1_455
O1 Zr0 2.181953 1_545
O1 Rb0 2.814986 1_555
O1 Rb2 2.823455 1_555
O1 Rb3 3.374262 1_545
O2 Zr0 1.973643 1_555
O2 Rb0 2.787356 1_555
O2 Rb3 2.883856 1_554
O2 Rb1 3.020146 1_565
O2 Rb3 3.263433 1_555
O3 Zr1 2.097362 1_564
O3 Zr0 2.141325 1_655
O3 Rb0 2.849521 1_555
O3 Rb2 2.864305 1_554
O3 Rb3 3.294120 1_654
O4 Zr1 1.973643 1_555
O4 Rb2 2.787356 1_555
O4 Rb1 2.883856 1_555
O4 Rb3 3.020146 1_655
O4 Rb1 3.263433 1_556
O5 Zr0 2.097362 1_655
O5 Zr1 2.141325 1_565
O5 Rb2 2.849521 1_555
O5 Rb0 2.864305 1_555
O5 Rb1 3.294120 1_565
