# generated using pymatgen
data_Li6V5(P2O7)4
_symmetry_space_group_name_H-M   'P 1'
_cell_length_a   9.18197200
_cell_length_b   10.52497670
_cell_length_c   13.20451080
_cell_angle_alpha   87.86025920
_cell_angle_beta   106.23093137
_cell_angle_gamma   113.82080892
_symmetry_Int_Tables_number   1
_chemical_formula_structural   Li6V5(P2O7)4
_chemical_formula_sum   'Li12 V10 P16 O56'
_cell_volume   1116.69644712
_cell_formula_units_Z   2
loop_
 _symmetry_equiv_pos_site_id
 _symmetry_equiv_pos_as_xyz
  1  'x, y, z'
loop_
 _atom_site_type_symbol
 _atom_site_label
 _atom_site_symmetry_multiplicity
 _atom_site_fract_x
 _atom_site_fract_y
 _atom_site_fract_z
 _atom_site_occupancy
  Li  Li0  1  0.08426200  0.12782400  0.06063300  1
  Li  Li1  1  0.87855900  0.40871300  0.17162900  1
  Li  Li2  1  0.50000000  0.50000000  0.00000000  1
  Li  Li3  1  0.12144100  0.59128700  0.82837100  1
  Li  Li4  1  0.91573800  0.87217600  0.93936700  1
  Li  Li5  1  0.82260900  0.98868200  0.72225200  1
  Li  Li6  1  0.10830200  0.13906700  0.55607600  1
  Li  Li7  1  0.88899300  0.40475300  0.67949700  1
  Li  Li8  1  0.50000000  0.50000000  0.50000000  1
  Li  Li9  1  0.11100700  0.59524700  0.32050300  1
  Li  Li10  1  0.89169800  0.86093300  0.44392400  1
  Li  Li11  1  0.17739100  0.01131800  0.27774800  1
  V  V0  1  0.10171500  0.72178800  0.11149800  1
  V  V1  1  0.80440400  0.01031800  0.24141100  1
  V  V2  1  0.49122700  0.75662300  0.06572600  1
  V  V3  1  0.50877300  0.24337700  0.93427400  1
  V  V4  1  0.19559600  0.98968200  0.75858900  1
  V  V5  1  0.89828500  0.27821200  0.88850200  1
  V  V6  1  0.10065700  0.71781000  0.60758600  1
  V  V7  1  0.50126500  0.75878300  0.56754900  1
  V  V8  1  0.49873500  0.24121700  0.43245100  1
  V  V9  1  0.89934300  0.28219000  0.39241400  1
  P  P0  1  0.19366500  0.44500100  0.09924200  1
  P  P1  1  0.55079900  0.19189300  0.18682200  1
  P  P2  1  0.80845800  0.69719900  0.21110700  1
  P  P3  1  0.28452800  0.96104300  0.02759500  1
  P  P4  1  0.71547200  0.03895700  0.97240500  1
  P  P5  1  0.19154200  0.30280100  0.78889300  1
  P  P6  1  0.44920100  0.80810700  0.81317800  1
  P  P7  1  0.80633500  0.55499900  0.90075800  1
  P  P8  1  0.20224300  0.44873800  0.60060800  1
  P  P9  1  0.53697500  0.19368600  0.68250100  1
  P  P10  1  0.82069200  0.69518500  0.71000000  1
  P  P11  1  0.28966100  0.96024200  0.52951300  1
  P  P12  1  0.71033900  0.03975800  0.47048700  1
  P  P13  1  0.17930800  0.30481500  0.29000000  1
  P  P14  1  0.46302500  0.80631400  0.31749900  1
  P  P15  1  0.79775700  0.55126200  0.39939200  1
  O  O0  1  0.07334500  0.15137600  0.23861700  1
  O  O1  1  0.27911800  0.39589900  0.21024600  1
  O  O2  1  0.56252400  0.83283600  0.23609800  1
  O  O3  1  0.08434600  0.51337900  0.12067900  1
  O  O4  1  0.72482200  0.18951400  0.23829500  1
  O  O5  1  0.13695000  0.95537800  0.06630800  1
  O  O6  1  0.45308800  0.03964600  0.11846100  1
  O  O7  1  0.93359700  0.63777500  0.20303600  1
  O  O8  1  0.08868500  0.30724500  0.03005200  1
  O  O9  1  0.33590300  0.54229400  0.05965800  1
  O  O10  1  0.27562200  0.81270200  0.01750400  1
  O  O11  1  0.67876900  0.67947500  0.10593900  1
  O  O12  1  0.56240700  0.30074900  0.10632400  1
  O  O13  1  0.70487200  0.96050500  0.07172000  1
  O  O14  1  0.29512800  0.03949500  0.92828000  1
  O  O15  1  0.43759300  0.69925100  0.89367600  1
  O  O16  1  0.32123100  0.32052500  0.89406100  1
  O  O17  1  0.72437800  0.18729800  0.98249600  1
  O  O18  1  0.66409700  0.45770600  0.94034200  1
  O  O19  1  0.91131500  0.69275500  0.96994800  1
  O  O20  1  0.06640300  0.36222500  0.79696400  1
  O  O21  1  0.54691200  0.96035400  0.88153900  1
  O  O22  1  0.86305000  0.04462200  0.93369200  1
  O  O23  1  0.27517800  0.81048600  0.76170500  1
  O  O24  1  0.09962400  0.15093900  0.73477500  1
  O  O25  1  0.91565400  0.48662100  0.87932100  1
  O  O26  1  0.43747600  0.16716400  0.76390200  1
  O  O27  1  0.29128900  0.40221100  0.71139000  1
  O  O28  1  0.72088200  0.60410100  0.78975400  1
  O  O29  1  0.54410200  0.81137600  0.73508300  1
  O  O30  1  0.09578700  0.51768200  0.62525100  1
  O  O31  1  0.92665500  0.84862400  0.76138300  1
  O  O32  1  0.72140600  0.22762300  0.73323000  1
  O  O33  1  0.14570900  0.95463100  0.57630000  1
  O  O34  1  0.46289500  0.03826200  0.61857500  1
  O  O35  1  0.93478300  0.62504400  0.69963800  1
  O  O36  1  0.09079700  0.31058000  0.53259100  1
  O  O37  1  0.33920400  0.54437600  0.55607500  1
  O  O38  1  0.27836600  0.81153500  0.51744100  1
  O  O39  1  0.68926900  0.68245200  0.60717000  1
  O  O40  1  0.50579500  0.28830800  0.59725100  1
  O  O41  1  0.71338700  0.96192500  0.56932900  1
  O  O42  1  0.28661300  0.03807500  0.43067100  1
  O  O43  1  0.49420500  0.71169200  0.40274900  1
  O  O44  1  0.31073100  0.31754800  0.39283000  1
  O  O45  1  0.72163400  0.18846500  0.48255900  1
  O  O46  1  0.66079600  0.45562400  0.44392500  1
  O  O47  1  0.90920300  0.68942000  0.46740900  1
  O  O48  1  0.06521700  0.37495600  0.30036200  1
  O  O49  1  0.53710500  0.96173800  0.38142500  1
  O  O50  1  0.85429100  0.04536900  0.42370000  1
  O  O51  1  0.27859400  0.77237700  0.26677000  1
  O  O52  1  0.90421300  0.48231800  0.37474900  1
  O  O53  1  0.45589800  0.18862400  0.26491700  1
  O  O54  1  0.70871100  0.59778900  0.28861000  1
  O  O55  1  0.90037600  0.84906100  0.26522500  1
loop_
_geom_bond_atom_site_label_1
_geom_bond_atom_site_label_2
_geom_bond_distance
_geom_bond_site_symmetry_2
Li0 O8 1.902905 1_555
Li0 O5 2.052481 1_545
Li0 O22 2.114642 1_454
Li0 O0 2.406276 1_555
Li1 O3 2.051930 1_655
Li1 O48 2.184330 1_655
Li1 O7 2.283211 1_555
Li1 O4 2.450001 1_555
Li1 O12 2.543812 1_555
Li2 O9 2.078566 1_555
Li2 O18 2.078566 1_554
Li2 O11 2.151409 1_555
Li2 O16 2.151409 1_554
Li2 O12 2.645450 1_555
Li2 O15 2.645450 1_554
Li3 O25 2.051930 1_455
Li3 O35 2.184330 1_455
Li3 O20 2.283211 1_555
Li3 O23 2.450001 1_555
Li3 O15 2.543812 1_555
Li4 O19 1.902905 1_555
Li4 O22 2.052481 1_565
Li4 O5 2.114642 1_656
Li4 O31 2.406276 1_555
Li5 O41 1.960818 1_555
Li5 O31 2.038967 1_555
Li5 O24 2.385510 1_665
Li5 O29 2.532692 1_555
Li6 O36 1.882908 1_555
Li6 O33 2.099062 1_545
Li6 O50 2.336545 1_455
Li6 O24 2.392696 1_555
Li7 O20 2.093908 1_655
Li7 O30 2.098785 1_655
Li7 O32 2.130999 1_555
Li7 O35 2.195298 1_555
Li8 O46 2.034743 1_555
Li8 O37 2.034743 1_555
Li8 O44 2.200633 1_555
Li8 O39 2.200633 1_555
Li8 O40 2.541655 1_555
Li8 O43 2.541655 1_555
Li9 O7 2.093908 1_455
Li9 O52 2.098785 1_455
Li9 O51 2.130999 1_555
Li9 O48 2.195298 1_555
Li10 O47 1.882908 1_555
Li10 O50 2.099062 1_565
Li10 O33 2.336545 1_655
Li10 O55 2.392696 1_555
Li11 O42 1.960818 1_555
Li11 O0 2.038967 1_555
Li11 O55 2.385510 1_445
Li11 O53 2.532692 1_555
O0 P13 1.567998 1_555
O0 V1 2.321411 1_455
O1 P13 1.619391 1_555
O1 P0 1.630710 1_555
O2 P14 1.545462 1_555
O2 V1 2.235718 1_565
O2 V2 2.240611 1_555
O3 P0 1.537257 1_555
O3 V0 2.135405 1_555
O4 P1 1.561960 1_555
O4 V9 2.173343 1_555
O4 V1 2.276704 1_555
O5 P3 1.555871 1_555
O5 V0 2.420947 1_555
O6 P3 1.587831 1_545
O6 P1 1.637513 1_555
O7 P2 1.541655 1_555
O7 V0 2.118115 1_655
O8 P0 1.530919 1_555
O8 V5 2.104217 1_454
O9 P0 1.512898 1_555
O9 V2 2.116600 1_555
O10 P3 1.538951 1_555
O10 V0 2.188803 1_555
O10 V2 2.209987 1_555
O11 P2 1.515506 1_555
O11 V2 2.119588 1_555
O12 P1 1.525646 1_555
O12 V3 2.237228 1_554
O13 P4 1.528602 1_564
O13 V1 2.164883 1_565
O13 V2 2.232668 1_555
O14 P3 1.528602 1_546
O14 V4 2.164883 1_545
O14 V3 2.232668 1_555
O15 P6 1.525646 1_555
O15 V2 2.237228 1_556
O16 P5 1.515506 1_555
O16 V3 2.119588 1_555
O17 P4 1.538951 1_555
O17 V5 2.188803 1_555
O17 V3 2.209987 1_555
O18 P7 1.512898 1_555
O18 V3 2.116600 1_555
O19 P7 1.530919 1_555
O19 V0 2.104217 1_656
O20 P5 1.541655 1_555
O20 V5 2.118115 1_455
O21 P4 1.587831 1_565
O21 P6 1.637513 1_555
O22 P4 1.555871 1_555
O22 V5 2.420947 1_555
O23 P6 1.561960 1_555
O23 V6 2.173343 1_555
O23 V4 2.276704 1_555
O24 P5 1.560822 1_555
O24 V4 2.183879 1_545
O25 P7 1.537257 1_555
O25 V5 2.135405 1_555
O26 P9 1.545462 1_555
O26 V4 2.235718 1_545
O26 V3 2.240611 1_555
O27 P8 1.627718 1_555
O27 P5 1.628138 1_555
O28 P10 1.619391 1_555
O28 P7 1.630710 1_555
O29 P6 1.516352 1_555
O29 V7 2.187264 1_555
O30 P8 1.535011 1_555
O30 V6 2.094314 1_555
O31 P10 1.567998 1_555
O31 V4 2.321411 1_655
O32 P9 1.529436 1_555
O32 V5 2.155560 1_555
O33 P11 1.588374 1_555
O33 V4 2.335208 1_555
O33 V6 2.395892 1_555
O34 P11 1.599617 1_545
O34 P9 1.653634 1_555
O35 P10 1.540612 1_555
O35 V6 2.120262 1_655
O36 P8 1.532982 1_555
O36 V9 2.098501 1_455
O37 P8 1.512344 1_555
O37 V7 2.125250 1_555
O38 P11 1.537561 1_555
O38 V6 2.179534 1_555
O38 V7 2.251281 1_555
O39 P10 1.511560 1_555
O39 V7 2.117318 1_555
O40 P9 1.519003 1_555
O40 V8 2.227332 1_555
O41 P12 1.514450 1_565
O41 V7 2.231552 1_555
O42 P11 1.514450 1_545
O42 V8 2.231552 1_555
O43 P14 1.519003 1_555
O43 V7 2.227332 1_555
O44 P13 1.511560 1_555
O44 V8 2.117318 1_555
O45 P12 1.537561 1_555
O45 V9 2.179534 1_555
O45 V8 2.251281 1_555
O46 P15 1.512344 1_555
O46 V8 2.125250 1_555
O47 P15 1.532982 1_555
O47 V6 2.098501 1_655
O48 P13 1.540612 1_555
O48 V9 2.120262 1_455
O49 P12 1.599617 1_565
O49 P14 1.653634 1_555
O50 P12 1.588374 1_555
O50 V1 2.335208 1_555
O50 V9 2.395892 1_555
O51 P14 1.529436 1_555
O51 V0 2.155560 1_555
O52 P15 1.535011 1_555
O52 V9 2.094314 1_555
O53 P1 1.516352 1_555
O53 V8 2.187264 1_555
O54 P15 1.627718 1_555
O54 P2 1.628138 1_555
O55 P2 1.560822 1_555
O55 V1 2.183879 1_565
