# generated using pymatgen
data_LiAlFeO3
_symmetry_space_group_name_H-M   'P 1'
_cell_length_a   5.50282416
_cell_length_b   5.95823459
_cell_length_c   7.88432159
_cell_angle_alpha   90.85271041
_cell_angle_beta   97.62529586
_cell_angle_gamma   91.53888493
_symmetry_Int_Tables_number   1
_chemical_formula_structural   LiAlFeO3
_chemical_formula_sum   'Li4 Al4 Fe4 O12'
_cell_volume   256.08143825
_cell_formula_units_Z   4
loop_
 _symmetry_equiv_pos_site_id
 _symmetry_equiv_pos_as_xyz
  1  'x, y, z'
loop_
 _atom_site_type_symbol
 _atom_site_label
 _atom_site_symmetry_multiplicity
 _atom_site_fract_x
 _atom_site_fract_y
 _atom_site_fract_z
 _atom_site_occupancy
  Li  Li0  1  0.49653200  0.82191600  0.24743300  1
  Li  Li1  1  0.99650600  0.32192400  0.74742600  1
  Li  Li2  1  0.00345500  0.67808400  0.25255500  1
  Li  Li3  1  0.50349500  0.17807800  0.75258600  1
  Al  Al0  1  0.33312800  0.33732300  0.41821500  1
  Al  Al1  1  0.83306700  0.83733000  0.91817000  1
  Al  Al2  1  0.16684500  0.16267600  0.08177700  1
  Al  Al3  1  0.66695600  0.66267600  0.58183400  1
  Fe  Fe0  1  0.17420600  0.84864400  0.58441900  1
  Fe  Fe1  1  0.32581800  0.65134100  0.91556400  1
  Fe  Fe2  1  0.67411900  0.34861700  0.08451400  1
  Fe  Fe3  1  0.82586400  0.15139200  0.41552300  1
  O  O0  1  0.68001400  0.68243300  0.06955200  1
  O  O1  1  0.17996100  0.18249900  0.56959400  1
  O  O2  1  0.81999900  0.81756400  0.43043500  1
  O  O3  1  0.32003000  0.31750100  0.93040900  1
  O  O4  1  0.46502200  0.17382400  0.25393600  1
  O  O5  1  0.96500900  0.67380400  0.75393100  1
  O  O6  1  0.03498400  0.32617500  0.24606200  1
  O  O7  1  0.53498100  0.82619800  0.74606700  1
  O  O8  1  0.35255300  0.64285100  0.43118500  1
  O  O9  1  0.85256500  0.14285300  0.93115100  1
  O  O10  1  0.14745400  0.85714200  0.06882100  1
  O  O11  1  0.64743600  0.35715400  0.56884200  1
loop_
_geom_bond_atom_site_label_1
_geom_bond_atom_site_label_2
_geom_bond_distance
_geom_bond_site_symmetry_2
Li0 O0 2.015741 1_555
Li0 O8 2.042096 1_555
Li0 O4 2.108967 1_565
Li0 O2 2.138417 1_555
Li0 O10 2.242686 1_555
Li1 O1 2.015216 1_655
Li1 O9 2.041853 1_555
Li1 O5 2.108794 1_555
Li1 O3 2.138584 1_655
Li1 O11 2.242541 1_555
Li2 O2 2.015642 1_455
Li2 O10 2.042017 1_555
Li2 O6 2.108983 1_555
Li2 O0 2.138314 1_455
Li2 O8 2.242850 1_555
Li3 O3 2.015191 1_555
Li3 O11 2.041984 1_555
Li3 O7 2.108789 1_545
Li3 O1 2.138665 1_555
Li3 O9 2.242460 1_555
Al0 O1 1.801065 1_555
Al0 O8 1.821229 1_555
Al0 O4 1.844800 1_555
Al0 O11 1.963547 1_555
Al0 O6 1.984658 1_555
Al1 O0 1.800964 1_556
Al1 O9 1.821212 1_565
Al1 O5 1.844782 1_555
Al1 O10 1.963984 1_656
Al1 O7 1.984197 1_555
Al2 O3 1.801058 1_554
Al2 O10 1.821256 1_545
Al2 O6 1.844744 1_555
Al2 O9 1.963419 1_454
Al2 O4 1.984818 1_555
Al3 O2 1.801005 1_555
Al3 O11 1.821212 1_555
Al3 O7 1.844825 1_555
Al3 O8 1.964049 1_555
Al3 O5 1.984036 1_555
Fe0 O1 1.994003 1_565
Fe0 O8 2.064333 1_555
Fe0 O5 2.140550 1_455
Fe0 O2 2.157149 1_455
Fe0 O7 2.220672 1_555
Fe1 O3 1.993925 1_555
Fe1 O10 2.064531 1_556
Fe1 O7 2.140402 1_555
Fe1 O0 2.157116 1_556
Fe1 O5 2.220781 1_455
Fe2 O0 1.993851 1_555
Fe2 O9 2.065191 1_554
Fe2 O4 2.139582 1_555
Fe2 O3 2.157045 1_554
Fe2 O6 2.220717 1_655
Fe3 O2 1.993892 1_545
Fe3 O11 2.064905 1_555
Fe3 O6 2.139846 1_655
Fe3 O1 2.156960 1_655
Fe3 O4 2.220748 1_555
