# generated using pymatgen
data_Ti17(NO4)6
_symmetry_space_group_name_H-M   'P 1'
_cell_length_a   10.03128300
_cell_length_b   10.39700200
_cell_length_c   10.71706770
_cell_angle_alpha   84.74469589
_cell_angle_beta   90.00000000
_cell_angle_gamma   90.00000000
_symmetry_Int_Tables_number   1
_chemical_formula_structural   Ti17(NO4)6
_chemical_formula_sum   'Ti34 N12 O48'
_cell_volume   1113.04099250
_cell_formula_units_Z   2
loop_
 _symmetry_equiv_pos_site_id
 _symmetry_equiv_pos_as_xyz
  1  'x, y, z'
loop_
 _atom_site_type_symbol
 _atom_site_label
 _atom_site_symmetry_multiplicity
 _atom_site_fract_x
 _atom_site_fract_y
 _atom_site_fract_z
 _atom_site_occupancy
  Ti  Ti0  1  0.75000000  0.49679100  0.90059300  1
  Ti  Ti1  1  0.42922100  0.44594900  0.87867500  1
  Ti  Ti2  1  0.07077900  0.44594900  0.87867500  1
  Ti  Ti3  1  0.92900000  0.71946900  0.78917400  1
  Ti  Ti4  1  0.42290800  0.95609400  0.87661100  1
  Ti  Ti5  1  0.25000000  0.66943300  0.76897800  1
  Ti  Ti6  1  0.57100000  0.71946900  0.78917400  1
  Ti  Ti7  1  0.75000000  0.00185300  0.89438600  1
  Ti  Ti8  1  0.07709200  0.95609400  0.87661100  1
  Ti  Ti9  1  0.92822000  0.38297000  0.45240700  1
  Ti  Ti10  1  0.94179300  0.21886600  0.78718100  1
  Ti  Ti11  1  0.55820700  0.21886600  0.78718100  1
  Ti  Ti12  1  0.42822000  0.61703000  0.54759300  1
  Ti  Ti13  1  0.25000000  0.33499500  0.43334400  1
  Ti  Ti14  1  0.07178000  0.61703000  0.54759300  1
  Ti  Ti15  1  0.75000000  0.66500500  0.56665600  1
  Ti  Ti16  1  0.57178000  0.38297000  0.45240700  1
  Ti  Ti17  1  0.92331000  0.88496900  0.44868000  1
  Ti  Ti18  1  0.42900000  0.28053100  0.21082600  1
  Ti  Ti19  1  0.25000000  0.83838700  0.43149300  1
  Ti  Ti20  1  0.57669000  0.88496900  0.44868000  1
  Ti  Ti21  1  0.42331000  0.11503100  0.55132000  1
  Ti  Ti22  1  0.07100000  0.28053100  0.21082600  1
  Ti  Ti23  1  0.75000000  0.33056700  0.23102200  1
  Ti  Ti24  1  0.07669000  0.11503100  0.55132000  1
  Ti  Ti25  1  0.75000000  0.16161300  0.56850700  1
  Ti  Ti26  1  0.57077900  0.55405100  0.12132500  1
  Ti  Ti27  1  0.25000000  0.50320900  0.09940700  1
  Ti  Ti28  1  0.92922100  0.55405100  0.12132500  1
  Ti  Ti29  1  0.44179300  0.78113400  0.21281900  1
  Ti  Ti30  1  0.05820700  0.78113400  0.21281900  1
  Ti  Ti31  1  0.25000000  0.99814700  0.10561400  1
  Ti  Ti32  1  0.92290800  0.04390600  0.12338900  1
  Ti  Ti33  1  0.57709200  0.04390600  0.12338900  1
  N  N0  1  0.25000000  0.52922100  0.91113600  1
  N  N1  1  0.75000000  0.64368100  0.75650100  1
  N  N2  1  0.25000000  0.00948000  0.92100800  1
  N  N3  1  0.75000000  0.14240500  0.75594200  1
  N  N4  1  0.75000000  0.30759000  0.42479400  1
  N  N5  1  0.25000000  0.69241000  0.57520600  1
  N  N6  1  0.25000000  0.18999800  0.56058700  1
  N  N7  1  0.75000000  0.81000200  0.43941300  1
  N  N8  1  0.25000000  0.35631900  0.24349900  1
  N  N9  1  0.75000000  0.47077900  0.08886400  1
  N  N10  1  0.25000000  0.85759500  0.24405800  1
  N  N11  1  0.75000000  0.99052000  0.07899200  1
  O  O0  1  0.39033900  0.29672400  0.81866400  1
  O  O1  1  0.87843800  0.37471700  0.85001100  1
  O  O2  1  0.56583600  0.59573600  0.93761600  1
  O  O3  1  0.93416400  0.59573600  0.93761600  1
  O  O4  1  0.10966100  0.29672400  0.81866400  1
  O  O5  1  0.62156200  0.37471700  0.85001100  1
  O  O6  1  0.56348700  0.25936200  0.60412000  1
  O  O7  1  0.93651300  0.25936200  0.60412000  1
  O  O8  1  0.43530200  0.57303500  0.72928800  1
  O  O9  1  0.06469800  0.57303500  0.72928800  1
  O  O10  1  0.56137400  0.09193500  0.93501200  1
  O  O11  1  0.11838900  0.79364700  0.81602400  1
  O  O12  1  0.38161100  0.79364700  0.81602400  1
  O  O13  1  0.93862600  0.09193500  0.93501200  1
  O  O14  1  0.87991400  0.87198700  0.85052500  1
  O  O15  1  0.62008600  0.87198700  0.85052500  1
  O  O16  1  0.88140200  0.53950700  0.51513200  1
  O  O17  1  0.93752000  0.75748000  0.60448600  1
  O  O18  1  0.61859800  0.53950700  0.51513200  1
  O  O19  1  0.05108800  0.06401300  0.72512200  1
  O  O20  1  0.44891200  0.06401300  0.72512200  1
  O  O21  1  0.11859800  0.46049300  0.48486800  1
  O  O22  1  0.56248000  0.75748000  0.60448600  1
  O  O23  1  0.38140200  0.46049300  0.48486800  1
  O  O24  1  0.93530200  0.42696500  0.27071200  1
  O  O25  1  0.11992300  0.95896600  0.48613200  1
  O  O26  1  0.06348700  0.74063800  0.39588000  1
  O  O27  1  0.61992300  0.04103400  0.51386800  1
  O  O28  1  0.88007700  0.04103400  0.51386800  1
  O  O29  1  0.43651300  0.74063800  0.39588000  1
  O  O30  1  0.56469800  0.42696500  0.27071200  1
  O  O31  1  0.38007700  0.95896600  0.48613200  1
  O  O32  1  0.43416400  0.40426400  0.06238400  1
  O  O33  1  0.37843800  0.62528300  0.14998900  1
  O  O34  1  0.60966100  0.70327600  0.18133600  1
  O  O35  1  0.94891200  0.93598700  0.27487800  1
  O  O36  1  0.12156200  0.62528300  0.14998900  1
  O  O37  1  0.06583600  0.40426400  0.06238400  1
  O  O38  1  0.89033900  0.70327600  0.18133600  1
  O  O39  1  0.55108800  0.93598700  0.27487800  1
  O  O40  1  0.06248000  0.24252000  0.39551400  1
  O  O41  1  0.43752000  0.24252000  0.39551400  1
  O  O42  1  0.12008600  0.12801300  0.14947500  1
  O  O43  1  0.88161100  0.20635300  0.18397600  1
  O  O44  1  0.43862600  0.90806500  0.06498800  1
  O  O45  1  0.06137400  0.90806500  0.06498800  1
  O  O46  1  0.37991400  0.12801300  0.14947500  1
  O  O47  1  0.61838900  0.20635300  0.18397600  1
loop_
_geom_bond_atom_site_label_1
_geom_bond_atom_site_label_2
_geom_bond_distance
_geom_bond_site_symmetry_2
N0 Ti5 2.009823 1_555
N0 Ti27 2.011056 1_556
N0 Ti2 2.039097 1_555
N0 Ti1 2.039097 1_555
N1 Ti6 2.004552 1_555
N1 Ti3 2.004552 1_555
N1 Ti15 2.026338 1_555
N1 Ti0 2.070036 1_555
N2 Ti4 1.895075 1_545
N2 Ti8 1.895075 1_545
N2 Ti31 1.971138 1_546
N3 Ti7 1.984862 1_555
N3 Ti25 2.000371 1_555
N3 Ti11 2.119980 1_555
N3 Ti10 2.119980 1_555
N4 Ti16 1.985051 1_555
N4 Ti9 1.985051 1_555
N4 Ti25 2.060929 1_555
N4 Ti23 2.068511 1_555
N5 Ti12 1.985051 1_555
N5 Ti14 1.985051 1_555
N5 Ti19 2.060929 1_555
N5 Ti5 2.068511 1_555
N6 Ti21 1.911548 1_555
N6 Ti24 1.911548 1_555
N6 Ti13 1.937954 1_555
N7 Ti17 1.911548 1_555
N7 Ti20 1.911548 1_555
N7 Ti15 1.937954 1_555
N8 Ti22 2.004552 1_555
N8 Ti18 2.004552 1_555
N8 Ti13 2.026338 1_555
N8 Ti27 2.070036 1_555
N9 Ti23 2.009823 1_555
N9 Ti0 2.011056 1_554
N9 Ti26 2.039097 1_555
N9 Ti28 2.039097 1_555
N10 Ti31 1.984862 1_555
N10 Ti19 2.000371 1_555
N10 Ti30 2.119980 1_555
N10 Ti29 2.119980 1_555
N11 Ti33 1.895075 1_565
N11 Ti32 1.895075 1_565
N11 Ti7 1.971138 1_564
O0 Ti1 1.776423 1_555
O0 Ti11 1.911746 1_555
O1 Ti10 1.919068 1_555
O1 Ti0 1.921132 1_555
O1 Ti2 2.099338 1_655
O2 Ti6 1.952839 1_555
O2 Ti26 1.977433 1_556
O2 Ti0 2.168729 1_555
O2 Ti1 2.209655 1_555
O3 Ti3 1.952839 1_555
O3 Ti28 1.977433 1_556
O3 Ti0 2.168729 1_555
O3 Ti2 2.209655 1_655
O4 Ti2 1.776423 1_555
O4 Ti10 1.911746 1_455
O5 Ti11 1.919068 1_555
O5 Ti0 1.921132 1_555
O5 Ti1 2.099338 1_555
O6 Ti11 1.969193 1_555
O6 Ti16 1.979739 1_555
O6 Ti21 2.169067 1_555
O6 Ti25 2.179471 1_555
O7 Ti10 1.969193 1_555
O7 Ti9 1.979739 1_555
O7 Ti24 2.169067 1_655
O7 Ti25 2.179471 1_555
O8 Ti12 1.960318 1_555
O8 Ti1 1.981223 1_555
O8 Ti5 2.172264 1_555
O8 Ti6 2.182148 1_555
O9 Ti14 1.960318 1_555
O9 Ti2 1.981223 1_555
O9 Ti5 2.172264 1_555
O9 Ti3 2.182148 1_455
O10 Ti11 1.967146 1_555
O10 Ti33 2.040905 1_556
O10 Ti4 2.116050 1_545
O10 Ti7 2.172953 1_555
O11 Ti8 1.909636 1_555
O11 Ti5 1.945339 1_555
O11 Ti3 2.080275 1_455
O12 Ti4 1.909636 1_555
O12 Ti5 1.945339 1_555
O12 Ti6 2.080275 1_555
O13 Ti10 1.967146 1_555
O13 Ti32 2.040905 1_556
O13 Ti8 2.116050 1_645
O13 Ti7 2.172953 1_555
O14 Ti3 1.838559 1_555
O14 Ti7 1.964345 1_565
O14 Ti8 2.190868 1_655
O15 Ti6 1.838559 1_555
O15 Ti7 1.964345 1_565
O15 Ti4 2.190868 1_555
O16 Ti9 1.876614 1_555
O16 Ti15 1.968978 1_555
O16 Ti14 2.114031 1_655
O17 Ti3 1.984408 1_555
O17 Ti17 2.039609 1_555
O17 Ti14 2.116860 1_655
O17 Ti15 2.167625 1_555
O18 Ti16 1.876614 1_555
O18 Ti15 1.968978 1_555
O18 Ti12 2.114031 1_555
O19 Ti8 1.905023 1_545
O19 Ti24 1.906773 1_555
O19 Ti10 2.105386 1_455
O20 Ti4 1.905023 1_545
O20 Ti21 1.906773 1_555
O20 Ti11 2.105386 1_555
O21 Ti14 1.876614 1_555
O21 Ti13 1.968978 1_555
O21 Ti9 2.114031 1_455
O22 Ti6 1.984408 1_555
O22 Ti20 2.039609 1_555
O22 Ti12 2.116860 1_555
O22 Ti15 2.167625 1_555
O23 Ti12 1.876614 1_555
O23 Ti13 1.968978 1_555
O23 Ti16 2.114031 1_555
O24 Ti9 1.960318 1_555
O24 Ti28 1.981223 1_555
O24 Ti23 2.172264 1_555
O24 Ti22 2.182148 1_655
O25 Ti24 1.875280 1_565
O25 Ti19 1.936915 1_555
O25 Ti17 2.167823 1_455
O26 Ti30 1.969193 1_555
O26 Ti14 1.979739 1_555
O26 Ti17 2.169067 1_455
O26 Ti19 2.179471 1_555
O27 Ti20 1.875280 1_545
O27 Ti25 1.936915 1_555
O27 Ti21 2.167823 1_555
O28 Ti17 1.875280 1_545
O28 Ti25 1.936915 1_555
O28 Ti24 2.167823 1_655
O29 Ti29 1.969193 1_555
O29 Ti12 1.979739 1_555
O29 Ti20 2.169067 1_555
O29 Ti19 2.179471 1_555
O30 Ti16 1.960318 1_555
O30 Ti26 1.981223 1_555
O30 Ti23 2.172264 1_555
O30 Ti18 2.182148 1_555
O31 Ti21 1.875280 1_565
O31 Ti19 1.936915 1_555
O31 Ti20 2.167823 1_555
O32 Ti18 1.952839 1_555
O32 Ti1 1.977433 1_554
O32 Ti27 2.168729 1_555
O32 Ti26 2.209655 1_555
O33 Ti29 1.919068 1_555
O33 Ti27 1.921132 1_555
O33 Ti26 2.099338 1_555
O34 Ti26 1.776423 1_555
O34 Ti29 1.911746 1_555
O35 Ti32 1.905023 1_565
O35 Ti17 1.906773 1_555
O35 Ti30 2.105386 1_655
O36 Ti30 1.919068 1_555
O36 Ti27 1.921132 1_555
O36 Ti28 2.099338 1_455
O37 Ti22 1.952839 1_555
O37 Ti2 1.977433 1_554
O37 Ti27 2.168729 1_555
O37 Ti28 2.209655 1_455
O38 Ti28 1.776423 1_555
O38 Ti30 1.911746 1_655
O39 Ti33 1.905023 1_565
O39 Ti20 1.906773 1_555
O39 Ti29 2.105386 1_555
O40 Ti22 1.984408 1_555
O40 Ti24 2.039609 1_555
O40 Ti9 2.116860 1_455
O40 Ti13 2.167625 1_555
O41 Ti18 1.984408 1_555
O41 Ti21 2.039609 1_555
O41 Ti16 2.116860 1_555
O41 Ti13 2.167625 1_555
O42 Ti22 1.838559 1_555
O42 Ti31 1.964345 1_545
O42 Ti32 2.190868 1_455
O43 Ti32 1.909636 1_555
O43 Ti23 1.945339 1_555
O43 Ti22 2.080275 1_655
O44 Ti29 1.967146 1_555
O44 Ti4 2.040905 1_554
O44 Ti33 2.116050 1_565
O44 Ti31 2.172953 1_555
O45 Ti30 1.967146 1_555
O45 Ti8 2.040905 1_554
O45 Ti32 2.116050 1_465
O45 Ti31 2.172953 1_555
O46 Ti18 1.838559 1_555
O46 Ti31 1.964345 1_545
O46 Ti33 2.190868 1_555
O47 Ti33 1.909636 1_555
O47 Ti23 1.945339 1_555
O47 Ti18 2.080275 1_555
