# generated using pymatgen
data_Li4VP2O9
_symmetry_space_group_name_H-M   'P 1'
_cell_length_a   8.07432219
_cell_length_b   8.07432219
_cell_length_c   7.23506900
_cell_angle_alpha   90.00000000
_cell_angle_beta   90.00000000
_cell_angle_gamma   130.25825788
_symmetry_Int_Tables_number   1
_chemical_formula_structural   Li4VP2O9
_chemical_formula_sum   'Li8 V2 P4 O18'
_cell_volume   359.96366803
_cell_formula_units_Z   2
loop_
 _symmetry_equiv_pos_site_id
 _symmetry_equiv_pos_as_xyz
  1  'x, y, z'
loop_
 _atom_site_type_symbol
 _atom_site_label
 _atom_site_symmetry_multiplicity
 _atom_site_fract_x
 _atom_site_fract_y
 _atom_site_fract_z
 _atom_site_occupancy
  Li  Li0  1  0.38531200  0.61468800  0.22761800  1
  Li  Li1  1  0.88531200  0.11468800  0.77238200  1
  Li  Li2  1  0.50000000  0.00000000  0.00000000  1
  Li  Li3  1  0.00000000  0.50000000  0.00000000  1
  Li  Li4  1  0.61468800  0.38531200  0.77238200  1
  Li  Li5  1  0.11468800  0.88531200  0.22761800  1
  Li  Li6  1  0.75000000  0.75000000  0.50000000  1
  Li  Li7  1  0.25000000  0.25000000  0.50000000  1
  V  V0  1  0.50000000  0.00000000  0.50000000  1
  V  V1  1  0.00000000  0.50000000  0.50000000  1
  P  P0  1  0.38816600  0.61183400  0.77148700  1
  P  P1  1  0.88816600  0.11183400  0.22851300  1
  P  P2  1  0.61183400  0.38816600  0.22851300  1
  P  P3  1  0.11183400  0.88816600  0.77148700  1
  O  O0  1  0.98896300  0.01103700  0.28282900  1
  O  O1  1  0.48896300  0.51103700  0.71717100  1
  O  O2  1  0.85654300  0.14345700  0.02572600  1
  O  O3  1  0.35654300  0.64345700  0.97427400  1
  O  O4  1  0.04019300  0.34529700  0.31757900  1
  O  O5  1  0.15470300  0.45980700  0.68242100  1
  O  O6  1  0.65470300  0.95980700  0.31757900  1
  O  O7  1  0.54019300  0.84529700  0.68242100  1
  O  O8  1  0.75000000  0.25000000  0.59832600  1
  O  O9  1  0.25000000  0.75000000  0.40167400  1
  O  O10  1  0.84529700  0.54019300  0.31757900  1
  O  O11  1  0.95980700  0.65470300  0.68242100  1
  O  O12  1  0.34529700  0.04019300  0.68242100  1
  O  O13  1  0.45980700  0.15470300  0.31757900  1
  O  O14  1  0.14345700  0.85654300  0.97427400  1
  O  O15  1  0.64345700  0.35654300  0.02572600  1
  O  O16  1  0.51103700  0.48896300  0.28282900  1
  O  O17  1  0.01103700  0.98896300  0.71717100  1
loop_
_geom_bond_atom_site_label_1
_geom_bond_atom_site_label_2
_geom_bond_distance
_geom_bond_site_symmetry_2
Li0 O3 1.880799 1_554
Li0 O16 1.884811 1_555
Li0 O4 2.255229 1_555
Li0 O6 2.255229 1_555
Li0 O9 2.348612 1_555
Li1 O2 1.880799 1_556
Li1 O17 1.884811 1_645
Li1 O7 2.255229 1_545
Li1 O5 2.255229 1_655
Li1 O8 2.348612 1_555
Li2 O15 2.313914 1_555
Li2 O14 2.313914 1_544
Li2 O3 2.313914 1_544
Li2 O2 2.313914 1_555
Li3 O3 2.313914 1_554
Li3 O2 2.313914 1_455
Li3 O15 2.313914 1_455
Li3 O14 2.313914 1_554
Li4 O15 1.880799 1_556
Li4 O1 1.884811 1_555
Li4 O12 2.255229 1_555
Li4 O11 2.255229 1_555
Li4 O8 2.348612 1_555
Li5 O14 1.880799 1_554
Li5 O0 1.884811 1_465
Li5 O13 2.255229 1_565
Li5 O10 2.255229 1_455
Li5 O9 2.348612 1_555
Li6 O17 2.319035 1_655
Li6 O0 2.319035 1_565
Li6 O16 2.319035 1_555
Li6 O1 2.319035 1_555
Li6 O6 2.624605 1_555
Li6 O10 2.624605 1_555
Li6 O7 2.624605 1_555
Li6 O11 2.624605 1_555
Li7 O0 2.319035 1_455
Li7 O17 2.319035 1_545
Li7 O16 2.319035 1_555
Li7 O1 2.319035 1_555
Li7 O4 2.624605 1_555
Li7 O13 2.624605 1_555
Li7 O5 2.624605 1_555
Li7 O12 2.624605 1_555
O0 P1 1.528169 1_555
O1 P0 1.528169 1_555
O2 P1 1.538592 1_555
O3 P0 1.538592 1_555
O4 P1 1.576322 1_455
O4 V1 1.982804 1_555
O5 P0 1.576322 1_555
O5 V1 1.982804 1_555
O6 P1 1.576322 1_565
O6 V0 1.982804 1_565
O7 P0 1.576322 1_555
O7 V0 1.982804 1_565
O8 V0 1.840935 1_555
O8 V1 1.840935 1_655
O9 V0 1.840935 1_565
O9 V1 1.840935 1_555
O10 P2 1.576322 1_555
O10 V1 1.982804 1_655
O11 P3 1.576322 1_655
O11 V1 1.982804 1_655
O12 P3 1.576322 1_545
O12 V0 1.982804 1_555
O13 P2 1.576322 1_555
O13 V0 1.982804 1_555
O14 P3 1.538592 1_555
O15 P2 1.538592 1_555
O16 P2 1.528169 1_555
O17 P3 1.528169 1_555
