# generated using pymatgen
data_Li4Nb3V3(SnO8)2
_symmetry_space_group_name_H-M   'P 1'
_cell_length_a   6.09485684
_cell_length_b   6.05321984
_cell_length_c   10.14553016
_cell_angle_alpha   90.00024086
_cell_angle_beta   89.74074279
_cell_angle_gamma   119.76995183
_symmetry_Int_Tables_number   1
_chemical_formula_structural   Li4Nb3V3(SnO8)2
_chemical_formula_sum   'Li4 Nb3 V3 Sn2 O16'
_cell_volume   324.90135607
_cell_formula_units_Z   1
loop_
 _symmetry_equiv_pos_site_id
 _symmetry_equiv_pos_as_xyz
  1  'x, y, z'
loop_
 _atom_site_type_symbol
 _atom_site_label
 _atom_site_symmetry_multiplicity
 _atom_site_fract_x
 _atom_site_fract_y
 _atom_site_fract_z
 _atom_site_occupancy
  Li  Li0  1  0.33459100  0.66733900  0.90347700  1
  Li  Li1  1  0.00751800  0.00376000  0.99075800  1
  Li  Li2  1  0.01101800  0.00549700  0.49097000  1
  Li  Li3  1  0.67231700  0.33614700  0.39088400  1
  Nb  Nb0  1  0.66273300  0.83143900  0.21719500  1
  Nb  Nb1  1  0.82130300  0.64045200  0.71347100  1
  Nb  Nb2  1  0.82129700  0.18087300  0.71347700  1
  V  V0  1  0.17160100  0.82048900  0.21275900  1
  V  V1  1  0.17159800  0.35110500  0.21278600  1
  V  V2  1  0.34877900  0.17440200  0.71323200  1
  Sn  Sn0  1  0.32384100  0.66190900  0.49010000  1
  Sn  Sn1  1  0.64888000  0.32450600  0.99637900  1
  O  O0  1  0.15435900  0.83181800  0.59893200  1
  O  O1  1  0.03988200  0.51982600  0.34440200  1
  O  O2  1  0.35506400  0.67741300  0.10005900  1
  O  O3  1  0.99804600  0.99907300  0.30746900  1
  O  O4  1  0.99605300  0.99803400  0.80674200  1
  O  O5  1  0.15434600  0.32252000  0.59892200  1
  O  O6  1  0.49289100  0.96642300  0.34099600  1
  O  O7  1  0.49293500  0.52652200  0.34095600  1
  O  O8  1  0.31280800  0.15647000  0.09814600  1
  O  O9  1  0.66921300  0.83460800  0.59691100  1
  O  O10  1  0.52599400  0.49584100  0.84398900  1
  O  O11  1  0.52600400  0.03022600  0.84401700  1
  O  O12  1  0.66472700  0.33238400  0.58543200  1
  O  O13  1  0.82704100  0.67063900  0.10211900  1
  O  O14  1  0.96812100  0.48407700  0.85111600  1
  O  O15  1  0.82704000  0.15650800  0.10214600  1
loop_
_geom_bond_atom_site_label_1
_geom_bond_atom_site_label_2
_geom_bond_distance
_geom_bond_site_symmetry_2
Li0 O2 1.997931 1_556
Li0 O11 1.999742 1_565
Li0 O10 1.999766 1_555
Li0 O14 2.012936 1_455
Li1 O4 1.868241 1_445
Li1 O8 1.952953 1_556
Li1 O13 2.082951 1_446
Li1 O15 2.083440 1_456
Li2 O3 1.863337 1_445
Li2 O0 1.997254 1_545
Li2 O5 1.997292 1_555
Li2 O9 2.098812 1_445
Li3 O12 1.973992 1_555
Li3 O1 1.998576 1_655
Li3 O6 2.008835 1_545
Li3 O7 2.008991 1_555
Nb0 O3 2.000684 1_555
Nb0 O2 2.020383 1_555
Nb0 O6 2.035916 1_555
Nb0 O7 2.036107 1_555
Nb0 O15 2.066356 1_565
Nb0 O13 2.066578 1_555
Nb1 O10 2.042814 1_555
Nb1 O12 2.078377 1_555
Nb1 O4 2.105890 1_555
Nb1 O0 2.111029 1_655
Nb1 O14 2.121164 1_555
Nb1 O9 2.175031 1_555
Nb2 O11 2.042894 1_555
Nb2 O12 2.078391 1_555
Nb2 O4 2.105821 1_545
Nb2 O5 2.111084 1_655
Nb2 O14 2.121236 1_555
Nb2 O9 2.175237 1_545
O0 Sn0 2.094916 1_555
O0 V2 2.149766 1_565
O1 V1 2.067625 1_555
O1 V0 2.068820 1_555
O1 Sn0 2.113060 1_555
O2 V1 2.062759 1_555
O2 V0 2.063462 1_555
O3 V1 2.082062 1_665
O3 V0 2.082574 1_655
O4 V2 2.088997 1_665
O5 Sn0 2.094960 1_555
O5 V2 2.149588 1_555
O6 V0 2.147766 1_555
O6 Sn0 2.201732 1_555
O7 V1 2.147569 1_555
O7 Sn0 2.201813 1_555
O8 Sn1 2.051371 1_554
O8 V1 2.116468 1_555
O8 V0 2.117037 1_545
O9 Sn0 2.129215 1_555
O10 V2 2.153688 1_555
O10 Sn1 2.192901 1_555
O11 V2 2.153631 1_555
O11 Sn1 2.192988 1_555
O12 V2 2.110110 1_555
O13 Sn1 2.114512 1_554
O13 V0 2.150039 1_655
O14 Sn1 2.235752 1_555
O15 Sn1 2.114664 1_554
O15 V1 2.150004 1_655
