# generated using pymatgen
data_Na3Mn(BO3)2
_symmetry_space_group_name_H-M   'P 1'
_cell_length_a   9.68658400
_cell_length_b   5.57957300
_cell_length_c   11.29769443
_cell_angle_alpha   65.56373947
_cell_angle_beta   90.00000000
_cell_angle_gamma   90.00000000
_symmetry_Int_Tables_number   1
_chemical_formula_structural   Na3Mn(BO3)2
_chemical_formula_sum   'Na12 Mn4 B8 O24'
_cell_volume   555.90963270
_cell_formula_units_Z   4
loop_
 _symmetry_equiv_pos_site_id
 _symmetry_equiv_pos_as_xyz
  1  'x, y, z'
loop_
 _atom_site_type_symbol
 _atom_site_label
 _atom_site_symmetry_multiplicity
 _atom_site_fract_x
 _atom_site_fract_y
 _atom_site_fract_z
 _atom_site_occupancy
  Na  Na0  1  0.96833300  0.48458900  0.35755700  1
  Na  Na1  1  0.65568400  0.45939400  0.37390600  1
  Na  Na2  1  0.98738500  0.93227700  0.88123500  1
  Na  Na3  1  0.15568400  0.54060600  0.12609400  1
  Na  Na4  1  0.46833300  0.51541100  0.14244300  1
  Na  Na5  1  0.48738500  0.06772300  0.61876500  1
  Na  Na6  1  0.51261500  0.93227700  0.38123500  1
  Na  Na7  1  0.53166700  0.48458900  0.85755700  1
  Na  Na8  1  0.84431600  0.45939400  0.87390600  1
  Na  Na9  1  0.01261500  0.06772300  0.11876500  1
  Na  Na10  1  0.34431600  0.54060600  0.62609400  1
  Na  Na11  1  0.03166700  0.51541100  0.64244300  1
  Mn  Mn0  1  0.30474500  0.98900000  0.87433000  1
  Mn  Mn1  1  0.80474500  0.01100000  0.62567000  1
  Mn  Mn2  1  0.19525500  0.98900000  0.37433000  1
  Mn  Mn3  1  0.69525500  0.01100000  0.12567000  1
  B  B0  1  0.31036100  0.44811500  0.38165300  1
  B  B1  1  0.65207100  0.97279400  0.86771800  1
  B  B2  1  0.81036100  0.55188500  0.11834700  1
  B  B3  1  0.15207100  0.02720600  0.63228200  1
  B  B4  1  0.84792900  0.97279400  0.36771800  1
  B  B5  1  0.18963900  0.44811500  0.88165300  1
  B  B6  1  0.34792900  0.02720600  0.13228200  1
  B  B7  1  0.68963900  0.55188500  0.61834700  1
  O  O0  1  0.31542600  0.87341400  0.06439000  1
  O  O1  1  0.69441000  0.32781300  0.59316500  1
  O  O2  1  0.93269700  0.67777000  0.11341700  1
  O  O3  1  0.68613300  0.64347400  0.14848700  1
  O  O4  1  0.26470200  0.10731600  0.68698300  1
  O  O5  1  0.01951400  0.09478400  0.64839700  1
  O  O6  1  0.18613300  0.35652600  0.35151300  1
  O  O7  1  0.43269700  0.32223000  0.38658300  1
  O  O8  1  0.51951400  0.90521600  0.85160300  1
  O  O9  1  0.76470200  0.89268400  0.81301700  1
  O  O10  1  0.81542600  0.12658600  0.43561000  1
  O  O11  1  0.19441000  0.67218700  0.90683500  1
  O  O12  1  0.80559000  0.32781300  0.09316500  1
  O  O13  1  0.18457400  0.87341400  0.56439000  1
  O  O14  1  0.23529800  0.10731600  0.18698300  1
  O  O15  1  0.48048600  0.09478400  0.14839700  1
  O  O16  1  0.56730300  0.67777000  0.61341700  1
  O  O17  1  0.81386700  0.64347400  0.64848700  1
  O  O18  1  0.98048600  0.90521600  0.35160300  1
  O  O19  1  0.73529800  0.89268400  0.31301700  1
  O  O20  1  0.31386700  0.35652600  0.85151300  1
  O  O21  1  0.06730300  0.32223000  0.88658300  1
  O  O22  1  0.30559000  0.67218700  0.40683500  1
  O  O23  1  0.68457400  0.12658600  0.93561000  1
loop_
_geom_bond_atom_site_label_1
_geom_bond_atom_site_label_2
_geom_bond_distance
_geom_bond_site_symmetry_2
Na0 O6 2.237541 1_655
Na0 O18 2.322886 1_555
Na0 O10 2.346077 1_555
Na0 O2 2.535545 1_555
Na1 O7 2.276194 1_555
Na1 O10 2.292911 1_555
Na1 O1 2.304602 1_555
Na1 O3 2.337420 1_555
Na1 O19 2.353009 1_555
Na2 O9 2.331623 1_555
Na2 O21 2.333597 1_665
Na2 O11 2.421536 1_655
Na2 O5 2.421841 1_665
Na2 O2 2.469015 1_556
Na3 O2 2.276194 1_455
Na3 O0 2.292911 1_555
Na3 O11 2.304602 1_554
Na3 O6 2.337420 1_555
Na3 O14 2.353009 1_555
Na4 O3 2.237541 1_555
Na4 O15 2.322886 1_555
Na4 O0 2.346077 1_555
Na4 O7 2.535545 1_555
Na5 O4 2.331623 1_555
Na5 O16 2.333597 1_545
Na5 O1 2.421536 1_555
Na5 O8 2.421841 1_545
Na5 O7 2.469015 1_555
Na6 O19 2.331623 1_555
Na6 O7 2.333597 1_565
Na6 O22 2.421536 1_555
Na6 O15 2.421841 1_565
Na6 O16 2.469015 1_555
Na7 O20 2.237541 1_555
Na7 O8 2.322886 1_555
Na7 O23 2.346077 1_555
Na7 O16 2.535545 1_555
Na8 O21 2.276194 1_655
Na8 O23 2.292911 1_555
Na8 O12 2.304602 1_556
Na8 O17 2.337420 1_555
Na8 O9 2.353009 1_555
Na9 O14 2.331623 1_555
Na9 O2 2.333597 1_445
Na9 O12 2.421536 1_455
Na9 O18 2.421841 1_445
Na9 O21 2.469015 1_554
Na10 O16 2.276194 1_555
Na10 O13 2.292911 1_555
Na10 O22 2.304602 1_555
Na10 O20 2.337420 1_555
Na10 O4 2.353009 1_555
Na11 O17 2.237541 1_455
Na11 O5 2.322886 1_555
Na11 O13 2.346077 1_555
Na11 O21 2.535545 1_555
Mn0 O20 1.960107 1_565
Mn0 O11 1.965895 1_555
Mn0 O0 1.972698 1_556
Mn0 O4 1.977411 1_565
Mn0 O8 2.170655 1_555
Mn1 O17 1.960107 1_545
Mn1 O1 1.965895 1_555
Mn1 O10 1.972698 1_555
Mn1 O9 1.977411 1_545
Mn1 O5 2.170655 1_655
Mn2 O6 1.960107 1_565
Mn2 O22 1.965895 1_555
Mn2 O13 1.972698 1_555
Mn2 O14 1.977411 1_565
Mn2 O18 2.170655 1_455
Mn3 O3 1.960107 1_545
Mn3 O12 1.965895 1_555
Mn3 O23 1.972698 1_554
Mn3 O19 1.977411 1_545
Mn3 O15 2.170655 1_555
B0 O7 1.366875 1_555
B0 O22 1.392991 1_555
B0 O6 1.403249 1_555
B1 O8 1.371435 1_555
B1 O23 1.402970 1_565
B1 O9 1.414409 1_555
B2 O2 1.366875 1_555
B2 O12 1.392991 1_555
B2 O3 1.403249 1_555
B3 O5 1.371435 1_555
B3 O13 1.402970 1_545
B3 O4 1.414409 1_555
B4 O18 1.371435 1_555
B4 O10 1.402970 1_565
B4 O19 1.414409 1_555
B5 O21 1.366875 1_555
B5 O11 1.392991 1_555
B5 O20 1.403249 1_555
B6 O15 1.371435 1_555
B6 O0 1.402970 1_545
B6 O14 1.414409 1_555
B7 O16 1.366875 1_555
B7 O1 1.392991 1_555
B7 O17 1.403249 1_555
