# generated using pymatgen
data_LiV6O7F5
_symmetry_space_group_name_H-M   'P 1'
_cell_length_a   4.85289300
_cell_length_b   5.69700046
_cell_length_c   7.76435751
_cell_angle_alpha   85.38713253
_cell_angle_beta   89.12769225
_cell_angle_gamma   88.87535363
_symmetry_Int_Tables_number   1
_chemical_formula_structural   LiV6O7F5
_chemical_formula_sum   'Li1 V6 O7 F5'
_cell_volume   213.90408439
_cell_formula_units_Z   1
loop_
 _symmetry_equiv_pos_site_id
 _symmetry_equiv_pos_as_xyz
  1  'x, y, z'
loop_
 _atom_site_type_symbol
 _atom_site_label
 _atom_site_symmetry_multiplicity
 _atom_site_fract_x
 _atom_site_fract_y
 _atom_site_fract_z
 _atom_site_occupancy
  Li  Li0  1  0.49685400  0.91061600  0.08835100  1
  V  V0  1  0.99876900  0.00062400  0.99561600  1
  V  V1  1  0.02611700  0.32502900  0.66259800  1
  V  V2  1  0.48484100  0.84634400  0.66163200  1
  V  V3  1  0.49072000  0.47968900  0.99427300  1
  V  V4  1  0.54469900  0.18575900  0.35568900  1
  V  V5  1  0.95224300  0.67018800  0.32879700  1
  O  O0  1  0.18826500  0.29019000  0.89902400  1
  O  O1  1  0.31087600  0.13376500  0.56664800  1
  O  O2  1  0.31337100  0.79259500  0.90025300  1
  O  O3  1  0.68255700  0.19169000  0.10486000  1
  O  O4  1  0.69584400  0.86362900  0.43992900  1
  O  O5  1  0.79603000  0.70327500  0.09492700  1
  O  O6  1  0.81612400  0.37200100  0.44373300  1
  F  F0  1  0.20041800  0.96661600  0.23337300  1
  F  F1  1  0.19691100  0.63660500  0.55893200  1
  F  F2  1  0.30069000  0.47637600  0.24001700  1
  F  F3  1  0.69942300  0.53258700  0.75729400  1
  F  F4  1  0.80124600  0.03492100  0.76246700  1
loop_
_geom_bond_atom_site_label_1
_geom_bond_atom_site_label_2
_geom_bond_distance
_geom_bond_site_symmetry_2
Li0 O5 1.852310 1_555
Li0 O3 1.867046 1_565
Li0 O2 1.897081 1_554
O0 V0 1.992249 1_455
O0 V1 2.001902 1_555
O0 V3 2.022491 1_555
O1 V1 1.921479 1_555
O1 V2 1.925689 1_545
O1 V4 1.984138 1_555
O2 V2 2.022535 1_555
O2 V3 2.049629 1_555
O2 V0 2.078317 1_465
O3 V3 2.008415 1_554
O3 V4 2.047488 1_555
O3 V0 2.074229 1_554
O4 V5 1.890417 1_555
O4 V2 1.986051 1_555
O4 V4 2.025433 1_565
O5 V5 1.972001 1_555
O5 V0 2.065049 1_564
O5 V3 2.167477 1_554
O6 V4 1.878039 1_555
O6 V5 1.975051 1_555
O6 V1 1.991677 1_655
F0 Li0 1.851917 1_555
F0 V0 2.095953 1_464
F0 V5 2.168580 1_455
F0 V4 2.360704 1_565
F1 V2 2.066093 1_555
F1 V1 2.072023 1_555
F1 V5 2.154049 1_455
F2 V3 2.105409 1_554
F2 V5 2.137134 1_455
F2 V4 2.160148 1_555
F3 V3 2.090029 1_555
F3 V1 2.117331 1_655
F3 V2 2.137306 1_555
F4 V0 2.054900 1_555
F4 V2 2.088415 1_545
F4 V1 2.088689 1_655
