# generated using pymatgen
data_Li2Cr(SiO3)2
_symmetry_space_group_name_H-M   'P 1'
_cell_length_a   7.02806600
_cell_length_b   10.12839000
_cell_length_c   10.28575100
_cell_angle_alpha   90.00000000
_cell_angle_beta   90.00000000
_cell_angle_gamma   90.00000000
_symmetry_Int_Tables_number   1
_chemical_formula_structural   Li2Cr(SiO3)2
_chemical_formula_sum   'Li12 Cr6 Si12 O36'
_cell_volume   732.17054548
_cell_formula_units_Z   6
loop_
 _symmetry_equiv_pos_site_id
 _symmetry_equiv_pos_as_xyz
  1  'x, y, z'
loop_
 _atom_site_type_symbol
 _atom_site_label
 _atom_site_symmetry_multiplicity
 _atom_site_fract_x
 _atom_site_fract_y
 _atom_site_fract_z
 _atom_site_occupancy
  Li  Li0  1  0.49486100  0.50305600  0.00000000  1
  Li  Li1  1  0.73329200  0.73575400  0.00000000  1
  Li  Li2  1  0.29904800  0.45695300  0.20746400  1
  Li  Li3  1  0.76968100  0.50742200  0.23249600  1
  Li  Li4  1  0.23031900  0.00742200  0.26750400  1
  Li  Li5  1  0.70095200  0.95695300  0.29253600  1
  Li  Li6  1  0.26670800  0.23575400  0.50000000  1
  Li  Li7  1  0.50513900  0.00305600  0.50000000  1
  Li  Li8  1  0.70095200  0.95695300  0.70746400  1
  Li  Li9  1  0.23031900  0.00742200  0.73249600  1
  Li  Li10  1  0.76968100  0.50742200  0.76750400  1
  Li  Li11  1  0.29904800  0.45695300  0.79253600  1
  Cr  Cr0  1  0.98543400  0.99964000  0.00000000  1
  Cr  Cr1  1  0.24844800  0.24444500  0.00000000  1
  Cr  Cr2  1  0.73899700  0.25274700  0.00000000  1
  Cr  Cr3  1  0.01456600  0.49964000  0.50000000  1
  Cr  Cr4  1  0.26100300  0.75274700  0.50000000  1
  Cr  Cr5  1  0.75155200  0.74444500  0.50000000  1
  Si  Si0  1  0.98879900  0.54526700  0.00000000  1
  Si  Si1  1  0.51042600  0.94914400  0.00000000  1
  Si  Si2  1  0.01709900  0.76085700  0.22936800  1
  Si  Si3  1  0.47412000  0.73682500  0.22530400  1
  Si  Si4  1  0.52588000  0.23682500  0.27469600  1
  Si  Si5  1  0.98290100  0.26085700  0.27063200  1
  Si  Si6  1  0.48957400  0.44914400  0.50000000  1
  Si  Si7  1  0.01120100  0.04526700  0.50000000  1
  Si  Si8  1  0.98290100  0.26085700  0.72936800  1
  Si  Si9  1  0.52588000  0.23682500  0.72530400  1
  Si  Si10  1  0.47412000  0.73682500  0.77469600  1
  Si  Si11  1  0.01709900  0.76085700  0.77063200  1
  O  O0  1  0.29337400  0.00003300  0.00000000  1
  O  O1  1  0.20131700  0.48901500  0.00000000  1
  O  O2  1  0.68839600  0.05396100  0.00000000  1
  O  O3  1  0.80575100  0.44712600  0.00000000  1
  O  O4  1  0.56671000  0.84661900  0.12190900  1
  O  O5  1  0.93536200  0.64873900  0.12372100  1
  O  O6  1  0.02988700  0.20283900  0.12748000  1
  O  O7  1  0.45864600  0.28895800  0.13227900  1
  O  O8  1  0.52324600  0.58855000  0.18145400  1
  O  O9  1  0.94473400  0.90846600  0.19469700  1
  O  O10  1  0.24754400  0.76967900  0.21698200  1
  O  O11  1  0.75245600  0.26967900  0.28301800  1
  O  O12  1  0.05526600  0.40846600  0.30530300  1
  O  O13  1  0.47675400  0.08855000  0.31854600  1
  O  O14  1  0.54135400  0.78895800  0.36772100  1
  O  O15  1  0.97011300  0.70283900  0.37252000  1
  O  O16  1  0.06463800  0.14873900  0.37627900  1
  O  O17  1  0.43329000  0.34661900  0.37809100  1
  O  O18  1  0.70662600  0.50003300  0.50000000  1
  O  O19  1  0.31160400  0.55396100  0.50000000  1
  O  O20  1  0.79868300  0.98901500  0.50000000  1
  O  O21  1  0.19424900  0.94712600  0.50000000  1
  O  O22  1  0.43329000  0.34661900  0.62190900  1
  O  O23  1  0.06463800  0.14873900  0.62372100  1
  O  O24  1  0.97011300  0.70283900  0.62748000  1
  O  O25  1  0.54135400  0.78895800  0.63227900  1
  O  O26  1  0.47675400  0.08855000  0.68145400  1
  O  O27  1  0.05526600  0.40846600  0.69469700  1
  O  O28  1  0.75245600  0.26967900  0.71698200  1
  O  O29  1  0.24754400  0.76967900  0.78301800  1
  O  O30  1  0.94473400  0.90846600  0.80530300  1
  O  O31  1  0.52324600  0.58855000  0.81854600  1
  O  O32  1  0.45864600  0.28895800  0.86772100  1
  O  O33  1  0.02988700  0.20283900  0.87252000  1
  O  O34  1  0.93536200  0.64873900  0.87627900  1
  O  O35  1  0.56671000  0.84661900  0.87809100  1
loop_
_geom_bond_atom_site_label_1
_geom_bond_atom_site_label_2
_geom_bond_distance
_geom_bond_site_symmetry_2
Li0 O8 2.067129 1_555
Li0 O31 2.067129 1_554
Li0 O1 2.067942 1_555
Li0 O3 2.257195 1_555
Li0 O32 2.572593 1_554
Li0 O7 2.572593 1_555
Li1 O4 2.050330 1_555
Li1 O35 2.050330 1_554
Li1 O5 2.100715 1_555
Li1 O34 2.100715 1_554
Li2 O12 2.046793 1_555
Li2 O8 2.081073 1_555
Li2 O7 2.179758 1_555
Li2 O1 2.265140 1_555
Li2 O17 2.284526 1_555
Li3 O8 1.987588 1_555
Li3 O5 2.157849 1_555
Li3 O12 2.365130 1_655
Li3 O11 2.466362 1_555
Li3 O3 2.481128 1_555
Li4 O13 1.987588 1_555
Li4 O16 2.157849 1_555
Li4 O9 2.365130 1_445
Li4 O10 2.466362 1_545
Li4 O21 2.481128 1_545
Li5 O9 2.046793 1_555
Li5 O13 2.081073 1_565
Li5 O14 2.179758 1_555
Li5 O20 2.265140 1_555
Li5 O4 2.284526 1_555
Li6 O22 2.050330 1_555
Li6 O17 2.050330 1_555
Li6 O16 2.100715 1_555
Li6 O23 2.100715 1_555
Li7 O13 2.067129 1_555
Li7 O26 2.067129 1_555
Li7 O20 2.067942 1_545
Li7 O21 2.257195 1_545
Li7 O25 2.572593 1_545
Li7 O14 2.572593 1_545
Li8 O30 2.046793 1_555
Li8 O26 2.081073 1_565
Li8 O25 2.179758 1_555
Li8 O20 2.265140 1_555
Li8 O35 2.284526 1_555
Li9 O26 1.987588 1_555
Li9 O23 2.157849 1_555
Li9 O30 2.365130 1_445
Li9 O29 2.466362 1_545
Li9 O21 2.481128 1_545
Li10 O31 1.987588 1_555
Li10 O34 2.157849 1_555
Li10 O27 2.365130 1_655
Li10 O28 2.466362 1_555
Li10 O3 2.481128 1_556
Li11 O27 2.046793 1_555
Li11 O31 2.081073 1_555
Li11 O32 2.179758 1_555
Li11 O1 2.265140 1_556
Li11 O22 2.284526 1_555
Cr0 O2 2.158886 1_565
Cr0 O0 2.164226 1_665
Cr0 O9 2.223735 1_555
Cr0 O30 2.223735 1_554
Cr0 O33 2.460205 1_664
Cr0 O6 2.460205 1_665
Cr1 O7 2.058357 1_555
Cr1 O32 2.058357 1_554
Cr1 O33 2.063100 1_554
Cr1 O6 2.063100 1_555
Cr1 O0 2.495555 1_555
Cr1 O1 2.499149 1_555
Cr2 O3 2.023874 1_555
Cr2 O2 2.044548 1_555
Cr2 O7 2.422374 1_555
Cr2 O32 2.422374 1_554
Cr2 O33 2.480803 1_654
Cr2 O6 2.480803 1_655
Cr3 O19 2.158886 1_555
Cr3 O18 2.164226 1_455
Cr3 O27 2.223735 1_555
Cr3 O12 2.223735 1_555
Cr3 O15 2.460205 1_455
Cr3 O24 2.460205 1_455
Cr4 O21 2.023874 1_555
Cr4 O19 2.044548 1_555
Cr4 O25 2.422374 1_555
Cr4 O14 2.422374 1_555
Cr4 O15 2.480803 1_455
Cr4 O24 2.480803 1_455
Cr5 O25 2.058357 1_555
Cr5 O14 2.058357 1_555
Cr5 O15 2.063100 1_555
Cr5 O24 2.063100 1_555
Cr5 O18 2.495555 1_555
Cr5 O20 2.499149 1_555
O0 Si1 1.610179 1_545
O1 Si0 1.598568 1_455
O2 Si1 1.640584 1_545
O3 Si0 1.625752 1_555
O4 Si3 1.670657 1_555
O4 Si1 1.675442 1_555
O5 Si2 1.673426 1_655
O5 Si0 1.690792 1_555
O6 Si5 1.619380 1_455
O7 Si4 1.627243 1_555
O8 Si3 1.605614 1_555
O9 Si2 1.618946 1_655
O10 Si2 1.627041 1_555
O10 Si3 1.629038 1_555
O11 Si5 1.627041 1_555
O11 Si4 1.629038 1_555
O12 Si5 1.618946 1_455
O13 Si4 1.605614 1_555
O14 Si3 1.627243 1_555
O15 Si2 1.619380 1_655
O16 Si5 1.673426 1_455
O16 Si7 1.690792 1_555
O17 Si4 1.670657 1_555
O17 Si6 1.675442 1_555
O18 Si6 1.610179 1_555
O19 Si6 1.640584 1_555
O20 Si7 1.598568 1_665
O21 Si7 1.625752 1_565
O22 Si9 1.670657 1_555
O22 Si6 1.675442 1_555
O23 Si8 1.673426 1_455
O23 Si7 1.690792 1_555
O24 Si11 1.619380 1_655
O25 Si10 1.627243 1_555
O26 Si9 1.605614 1_555
O27 Si8 1.618946 1_455
O28 Si8 1.627041 1_555
O28 Si9 1.629038 1_555
O29 Si11 1.627041 1_555
O29 Si10 1.629038 1_555
O30 Si11 1.618946 1_655
O31 Si10 1.605614 1_555
O32 Si9 1.627243 1_555
O33 Si8 1.619380 1_455
O34 Si11 1.673426 1_655
O34 Si0 1.690792 1_556
O35 Si10 1.670657 1_555
O35 Si1 1.675442 1_556
