# generated using pymatgen
data_AlSi2HC6NCl3
_symmetry_space_group_name_H-M   'P 1'
_cell_length_a   9.52008100
_cell_length_b   16.67259300
_cell_length_c   17.84070500
_cell_angle_alpha   90.00000000
_cell_angle_beta   90.00000000
_cell_angle_gamma   90.00000000
_symmetry_Int_Tables_number   1
_chemical_formula_structural   AlSi2HC6NCl3
_chemical_formula_sum   'Al8 Si16 H8 C48 N8 Cl24'
_cell_volume   2831.75583611
_cell_formula_units_Z   8
loop_
 _symmetry_equiv_pos_site_id
 _symmetry_equiv_pos_as_xyz
  1  'x, y, z'
loop_
 _atom_site_type_symbol
 _atom_site_label
 _atom_site_symmetry_multiplicity
 _atom_site_fract_x
 _atom_site_fract_y
 _atom_site_fract_z
 _atom_site_occupancy
  Al  Al0  1  0.02933800  0.90377200  0.86559600  1
  Al  Al1  1  0.47066200  0.09622800  0.36559600  1
  Al  Al2  1  0.52933800  0.59622800  0.13440400  1
  Al  Al3  1  0.97066200  0.40377200  0.63440400  1
  Al  Al4  1  0.97066200  0.09622800  0.13440400  1
  Al  Al5  1  0.52933800  0.90377200  0.63440400  1
  Al  Al6  1  0.47066200  0.40377200  0.86559600  1
  Al  Al7  1  0.02933800  0.59622800  0.36559600  1
  Si  Si0  1  0.16205900  0.81589200  0.11795500  1
  Si  Si1  1  0.33794100  0.18410800  0.61795500  1
  Si  Si2  1  0.66205900  0.68410800  0.88204500  1
  Si  Si3  1  0.83794100  0.31589200  0.38204500  1
  Si  Si4  1  0.83794100  0.18410800  0.88204500  1
  Si  Si5  1  0.66205900  0.81589200  0.38204500  1
  Si  Si6  1  0.33794100  0.31589200  0.11795500  1
  Si  Si7  1  0.16205900  0.68410800  0.61795500  1
  Si  Si8  1  0.35928800  0.93259700  0.90255900  1
  Si  Si9  1  0.14071200  0.06740300  0.40255900  1
  Si  Si10  1  0.85928800  0.56740300  0.09744100  1
  Si  Si11  1  0.64071200  0.43259700  0.59744100  1
  Si  Si12  1  0.64071200  0.06740300  0.09744100  1
  Si  Si13  1  0.85928800  0.93259700  0.59744100  1
  Si  Si14  1  0.14071200  0.43259700  0.90255900  1
  Si  Si15  1  0.35928800  0.56740300  0.40255900  1
  H  H0  1  0.16627100  0.98190200  0.95978200  1
  H  H1  1  0.33372900  0.01809800  0.45978200  1
  H  H2  1  0.66627100  0.51809800  0.04021800  1
  H  H3  1  0.83372900  0.48190200  0.54021800  1
  H  H4  1  0.83372900  0.01809800  0.04021800  1
  H  H5  1  0.66627100  0.98190200  0.54021800  1
  H  H6  1  0.33372900  0.48190200  0.95978200  1
  H  H7  1  0.16627100  0.51809800  0.45978200  1
  C  C0  1  0.00445400  0.77705400  0.17934500  1
  C  C1  1  0.49554600  0.22294600  0.67934500  1
  C  C2  1  0.50445400  0.72294600  0.82065500  1
  C  C3  1  0.99554600  0.27705400  0.32065500  1
  C  C4  1  0.99554600  0.22294600  0.82065500  1
  C  C5  1  0.50445400  0.77705400  0.32065500  1
  C  C6  1  0.49554600  0.27705400  0.17934500  1
  C  C7  1  0.00445400  0.72294600  0.67934500  1
  C  C8  1  0.01679100  0.72962300  0.11622200  1
  C  C9  1  0.48320900  0.27037700  0.61622200  1
  C  C10  1  0.51679100  0.77037700  0.88377800  1
  C  C11  1  0.98320900  0.22962300  0.38377800  1
  C  C12  1  0.98320900  0.27037700  0.88377800  1
  C  C13  1  0.51679100  0.72962300  0.38377800  1
  C  C14  1  0.48320900  0.22962300  0.11622200  1
  C  C15  1  0.01679100  0.77037700  0.61622200  1
  C  C16  1  0.48522400  0.96707800  0.97740900  1
  C  C17  1  0.01477600  0.03292200  0.47740900  1
  C  C18  1  0.98522400  0.53292200  0.02259100  1
  C  C19  1  0.51477600  0.46707800  0.52259100  1
  C  C20  1  0.51477600  0.03292200  0.02259100  1
  C  C21  1  0.98522400  0.96707800  0.52259100  1
  C  C22  1  0.01477600  0.46707800  0.97740900  1
  C  C23  1  0.48522400  0.53292200  0.47740900  1
  C  C24  1  0.47482300  0.83955900  0.91418400  1
  C  C25  1  0.02517700  0.16044100  0.41418400  1
  C  C26  1  0.97482300  0.66044100  0.08581600  1
  C  C27  1  0.52517700  0.33955900  0.58581600  1
  C  C28  1  0.52517700  0.16044100  0.08581600  1
  C  C29  1  0.97482300  0.83955900  0.58581600  1
  C  C30  1  0.02517700  0.33955900  0.91418400  1
  C  C31  1  0.47482300  0.66044100  0.41418400  1
  C  C32  1  0.06797400  0.83600000  0.21407500  1
  C  C33  1  0.43202600  0.16400000  0.71407500  1
  C  C34  1  0.56797400  0.66400000  0.78592500  1
  C  C35  1  0.93202600  0.33600000  0.28592500  1
  C  C36  1  0.93202600  0.16400000  0.78592500  1
  C  C37  1  0.56797400  0.83600000  0.28592500  1
  C  C38  1  0.43202600  0.33600000  0.21407500  1
  C  C39  1  0.06797400  0.66400000  0.71407500  1
  C  C40  1  0.52132700  0.88903600  0.97240600  1
  C  C41  1  0.97867300  0.11096400  0.47240600  1
  C  C42  1  0.02132700  0.61096400  0.02759400  1
  C  C43  1  0.47867300  0.38903600  0.52759400  1
  C  C44  1  0.47867300  0.11096400  0.02759400  1
  C  C45  1  0.02132700  0.88903600  0.52759400  1
  C  C46  1  0.97867300  0.38903600  0.97240600  1
  C  C47  1  0.52132700  0.61096400  0.47240600  1
  N  N0  1  0.18716200  0.94014500  0.91852200  1
  N  N1  1  0.31283800  0.05985500  0.41852200  1
  N  N2  1  0.68716200  0.55985500  0.08147800  1
  N  N3  1  0.81283800  0.44014500  0.58147800  1
  N  N4  1  0.81283800  0.05985500  0.08147800  1
  N  N5  1  0.68716200  0.94014500  0.58147800  1
  N  N6  1  0.31283800  0.44014500  0.91852200  1
  N  N7  1  0.18716200  0.55985500  0.41852200  1
  Cl  Cl0  1  0.84959900  0.96803200  0.90943000  1
  Cl  Cl1  1  0.65040100  0.03196800  0.40943000  1
  Cl  Cl2  1  0.34959900  0.53196800  0.09057000  1
  Cl  Cl3  1  0.15040100  0.46803200  0.59057000  1
  Cl  Cl4  1  0.15040100  0.03196800  0.09057000  1
  Cl  Cl5  1  0.34959900  0.96803200  0.59057000  1
  Cl  Cl6  1  0.65040100  0.46803200  0.90943000  1
  Cl  Cl7  1  0.84959900  0.53196800  0.40943000  1
  Cl  Cl8  1  0.00442400  0.77729200  0.88596300  1
  Cl  Cl9  1  0.49557600  0.22270800  0.38596300  1
  Cl  Cl10  1  0.50442400  0.72270800  0.11403700  1
  Cl  Cl11  1  0.99557600  0.27729200  0.61403700  1
  Cl  Cl12  1  0.99557600  0.22270800  0.11403700  1
  Cl  Cl13  1  0.50442400  0.77729200  0.61403700  1
  Cl  Cl14  1  0.49557600  0.27729200  0.88596300  1
  Cl  Cl15  1  0.00442400  0.72270800  0.38596300  1
  Cl  Cl16  1  0.06268600  0.93215700  0.74867300  1
  Cl  Cl17  1  0.43731400  0.06784300  0.24867300  1
  Cl  Cl18  1  0.56268600  0.56784300  0.25132700  1
  Cl  Cl19  1  0.93731400  0.43215700  0.75132700  1
  Cl  Cl20  1  0.93731400  0.06784300  0.25132700  1
  Cl  Cl21  1  0.56268600  0.93215700  0.75132700  1
  Cl  Cl22  1  0.43731400  0.43215700  0.74867300  1
  Cl  Cl23  1  0.06268600  0.56784300  0.24867300  1
loop_
_geom_bond_atom_site_label_1
_geom_bond_atom_site_label_2
_geom_bond_distance
_geom_bond_site_symmetry_2
Al0 N0 1.875324 1_555
Al0 Cl8 2.152931 1_555
Al0 Cl16 2.162431 1_555
Al0 Cl0 2.165039 1_455
Al1 N1 1.875324 1_555
Al1 Cl9 2.152931 1_555
Al1 Cl17 2.162431 1_555
Al1 Cl1 2.165039 1_555
Al2 N2 1.875324 1_555
Al2 Cl10 2.152931 1_555
Al2 Cl18 2.162431 1_555
Al2 Cl2 2.165039 1_555
Al3 N3 1.875324 1_555
Al3 Cl11 2.152931 1_555
Al3 Cl19 2.162431 1_555
Al3 Cl3 2.165039 1_655
Al4 N4 1.875324 1_555
Al4 Cl12 2.152931 1_555
Al4 Cl20 2.162431 1_555
Al4 Cl4 2.165039 1_655
Al5 N5 1.875324 1_555
Al5 Cl13 2.152931 1_555
Al5 Cl21 2.162431 1_555
Al5 Cl5 2.165039 1_555
Al6 N6 1.875324 1_555
Al6 Cl14 2.152931 1_555
Al6 Cl22 2.162431 1_555
Al6 Cl6 2.165039 1_555
Al7 N7 1.875324 1_555
Al7 Cl15 2.152931 1_555
Al7 Cl23 2.162431 1_555
Al7 Cl7 2.165039 1_455
H0 N0 1.032521 1_555
H1 N1 1.032521 1_555
H2 N2 1.032521 1_555
H3 N3 1.032521 1_555
H4 N4 1.032521 1_555
H5 N5 1.032521 1_555
H6 N6 1.032521 1_555
H7 N7 1.032521 1_555
C0 C32 1.309754 1_555
C0 C8 1.381083 1_555
C0 Si0 1.967253 1_555
C1 C33 1.309754 1_555
C1 C9 1.381083 1_555
C1 Si1 1.967253 1_555
C2 C34 1.309754 1_555
C2 Si2 1.967253 1_555
C3 C35 1.309754 1_555
C3 Si3 1.967253 1_555
C4 Si4 1.967253 1_555
C5 Si5 1.967253 1_555
C6 Si6 1.967253 1_555
C7 Si7 1.967253 1_555
C8 Si0 1.995578 1_555
C9 Si1 1.995578 1_555
C10 C24 1.335788 1_555
C10 C2 1.381083 1_555
C10 Si2 1.995578 1_555
C11 C25 1.335788 1_655
C11 C3 1.381083 1_555
C11 Si3 1.995578 1_555
C12 C30 1.335788 1_655
C12 C4 1.381083 1_555
C12 Si4 1.995578 1_555
C13 C31 1.335788 1_555
C13 C5 1.381083 1_555
C13 Si5 1.995578 1_555
C14 C28 1.335788 1_555
C14 C6 1.381083 1_555
C14 Si6 1.995578 1_555
C15 C29 1.335788 1_455
C15 C7 1.381083 1_555
C15 Si7 1.995578 1_555
C16 C40 1.348749 1_555
C16 C20 1.390704 1_566
C16 Si8 1.884446 1_555
C17 C41 1.348749 1_455
C17 C21 1.390704 1_445
C17 Si9 1.884446 1_555
C18 C42 1.348749 1_655
C18 C22 1.390704 1_654
C18 Si10 1.884446 1_555
C19 C43 1.348749 1_555
C19 C23 1.390704 1_555
C19 Si11 1.884446 1_555
C20 C44 1.348749 1_555
C20 Si12 1.884446 1_555
C21 C45 1.348749 1_655
C21 Si13 1.884446 1_555
C22 C46 1.348749 1_455
C22 Si14 1.884446 1_555
C23 C47 1.348749 1_555
C23 Si15 1.884446 1_555
C24 C40 1.398364 1_555
C24 Si8 1.912844 1_555
C25 C41 1.398364 1_455
C25 Si9 1.912844 1_555
C26 C8 1.335788 1_655
C26 C42 1.398364 1_655
C26 Si10 1.912844 1_555
C27 C9 1.335788 1_555
C27 C43 1.398364 1_555
C27 Si11 1.912844 1_555
C28 C44 1.398364 1_555
C28 Si12 1.912844 1_555
C29 C45 1.398364 1_655
C29 Si13 1.912844 1_555
C30 C46 1.398364 1_455
C30 Si14 1.912844 1_555
C31 C47 1.398364 1_555
C31 Si15 1.912844 1_555
C32 Si0 1.963510 1_555
C33 Si1 1.963510 1_555
C34 Si2 1.963510 1_555
C35 Si3 1.963510 1_555
C36 C4 1.309754 1_555
C36 Si4 1.963510 1_555
C37 C5 1.309754 1_555
C37 Si5 1.963510 1_555
C38 C6 1.309754 1_555
C38 Si6 1.963510 1_555
C39 C7 1.309754 1_555
C39 Si7 1.963510 1_555
C40 Si8 2.111866 1_555
C41 Si9 2.111866 1_655
C42 Si10 2.111866 1_455
C43 Si11 2.111866 1_555
C44 Si12 2.111866 1_555
C45 Si13 2.111866 1_455
C46 Si14 2.111866 1_655
C47 Si15 2.111866 1_555
N0 Si8 1.667971 1_555
N1 Si9 1.667971 1_555
N2 Si10 1.667971 1_555
N3 Si11 1.667971 1_555
N4 Si12 1.667971 1_555
N5 Si13 1.667971 1_555
N6 Si14 1.667971 1_555
N7 Si15 1.667971 1_555
