# generated using pymatgen
data_Sr3YI9
_symmetry_space_group_name_H-M   'P 1'
_cell_length_a   7.71417000
_cell_length_b   8.35583800
_cell_length_c   32.98526343
_cell_angle_alpha   88.29834368
_cell_angle_beta   90.00000000
_cell_angle_gamma   90.00000000
_symmetry_Int_Tables_number   1
_chemical_formula_structural   Sr3YI9
_chemical_formula_sum   'Sr12 Y4 I36'
_cell_volume   2125.23817520
_cell_formula_units_Z   4
loop_
 _symmetry_equiv_pos_site_id
 _symmetry_equiv_pos_as_xyz
  1  'x, y, z'
loop_
 _atom_site_type_symbol
 _atom_site_label
 _atom_site_symmetry_multiplicity
 _atom_site_fract_x
 _atom_site_fract_y
 _atom_site_fract_z
 _atom_site_occupancy
  Sr  Sr0  1  0.96711800  0.67058600  0.93288300  1
  Sr  Sr1  1  0.00126400  0.70092500  0.69167600  1
  Sr  Sr2  1  0.03288200  0.67058600  0.43288300  1
  Sr  Sr3  1  0.99873600  0.70092500  0.19167600  1
  Sr  Sr4  1  0.98471100  0.32320100  0.56928300  1
  Sr  Sr5  1  0.97973200  0.28877500  0.80971800  1
  Sr  Sr6  1  0.01528900  0.32320100  0.06928300  1
  Sr  Sr7  1  0.02026800  0.28877500  0.30971800  1
  Sr  Sr8  1  0.52701000  0.21007800  0.69176300  1
  Sr  Sr9  1  0.51801500  0.16896600  0.93149500  1
  Sr  Sr10  1  0.47299000  0.21007800  0.19176300  1
  Sr  Sr11  1  0.48198500  0.16896600  0.43149500  1
  Y  Y0  1  0.51931600  0.80113800  0.80683800  1
  Y  Y1  1  0.54672800  0.82883900  0.56655200  1
  Y  Y2  1  0.48068400  0.80113800  0.30683800  1
  Y  Y3  1  0.45327200  0.82883900  0.06655200  1
  I  I0  1  0.79862800  0.98205600  0.86857900  1
  I  I1  1  0.82027700  0.98520300  0.75263100  1
  I  I2  1  0.81588200  0.99148500  0.62742800  1
  I  I3  1  0.20137200  0.98205600  0.36857900  1
  I  I4  1  0.17972300  0.98520300  0.25263100  1
  I  I5  1  0.70526700  0.88682900  0.99302800  1
  I  I6  1  0.18411800  0.99148500  0.12742800  1
  I  I7  1  0.32743000  0.84562600  0.89382100  1
  I  I8  1  0.29473300  0.88682900  0.49302800  1
  I  I9  1  0.39228900  0.84312200  0.70663100  1
  I  I10  1  0.67257000  0.84562600  0.39382100  1
  I  I11  1  0.60771100  0.84312200  0.20663100  1
  I  I12  1  0.16713100  0.64179200  0.79644800  1
  I  I13  1  0.21575700  0.65070400  0.59824200  1
  I  I14  1  0.83286900  0.64179200  0.29644800  1
  I  I15  1  0.78424300  0.65070400  0.09824200  1
  I  I16  1  0.74474700  0.59491900  0.51177300  1
  I  I17  1  0.67720600  0.51170900  0.86679700  1
  I  I18  1  0.69085500  0.51324900  0.75202100  1
  I  I19  1  0.70113800  0.52295000  0.62870900  1
  I  I20  1  0.25525300  0.59491900  0.01177300  1
  I  I21  1  0.32279400  0.51170900  0.36679700  1
  I  I22  1  0.30914500  0.51324900  0.25202100  1
  I  I23  1  0.29886200  0.52295000  0.12870900  1
  I  I24  1  0.76564400  0.38968100  0.98909000  1
  I  I25  1  0.23435600  0.38968100  0.48909000  1
  I  I26  1  0.15786700  0.34228200  0.90083000  1
  I  I27  1  0.11946100  0.32588500  0.69866500  1
  I  I28  1  0.84213300  0.34228200  0.40083000  1
  I  I29  1  0.88053900  0.32588500  0.19866500  1
  I  I30  1  0.38437300  0.14496300  0.79775300  1
  I  I31  1  0.35201800  0.12800200  0.59847600  1
  I  I32  1  0.61562700  0.14496300  0.29775300  1
  I  I33  1  0.64798200  0.12800200  0.09847600  1
  I  I34  1  0.75391900  0.07630100  0.51068600  1
  I  I35  1  0.24608100  0.07630100  0.01068600  1
loop_
_geom_bond_atom_site_label_1
_geom_bond_atom_site_label_2
_geom_bond_distance
_geom_bond_site_symmetry_2
I0 Y0 3.355326 1_555
I0 Sr9 3.409467 1_565
I0 Sr5 3.463279 1_565
I0 Sr0 3.554436 1_555
I1 Y0 3.284716 1_555
I1 Sr5 3.431744 1_565
I1 Sr1 3.452236 1_655
I1 Sr8 3.529272 1_565
I2 Y1 3.217484 1_555
I2 Sr1 3.482133 1_655
I2 Sr4 3.569537 1_565
I2 Sr8 3.610477 1_565
I3 Y2 3.355326 1_555
I3 Sr11 3.409467 1_565
I3 Sr7 3.463279 1_565
I3 Sr2 3.554436 1_555
I4 Y2 3.284716 1_555
I4 Sr7 3.431744 1_565
I4 Sr3 3.452236 1_455
I4 Sr10 3.529272 1_565
I5 Y3 3.134567 1_556
I5 Sr9 3.388179 1_565
I5 Sr0 3.390259 1_555
I6 Y3 3.217484 1_555
I6 Sr3 3.482133 1_455
I6 Sr6 3.569537 1_565
I6 Sr10 3.610477 1_565
I7 Y0 3.259556 1_555
I7 Sr9 3.347353 1_565
I7 Sr0 3.378330 1_455
I8 Y1 3.134567 1_555
I8 Sr11 3.388179 1_565
I8 Sr2 3.390259 1_555
I9 Sr8 3.260829 1_565
I9 Sr1 3.284628 1_555
I9 Y0 3.455400 1_555
I10 Y2 3.259556 1_555
I10 Sr11 3.347353 1_565
I10 Sr2 3.378330 1_655
I11 Sr10 3.260829 1_565
I11 Sr3 3.284628 1_555
I11 Y2 3.455400 1_555
I12 Y0 3.049336 1_555
I12 Sr5 3.302392 1_455
I12 Sr1 3.704508 1_555
I13 Y1 3.120008 1_555
I13 Sr4 3.425370 1_455
I13 Sr1 3.533994 1_555
I14 Y2 3.049336 1_555
I14 Sr7 3.302392 1_655
I14 Sr3 3.704508 1_555
I15 Y3 3.120008 1_555
I15 Sr6 3.425370 1_655
I15 Sr3 3.533994 1_555
I16 Y1 3.102984 1_555
I16 Sr4 3.453153 1_555
I16 Sr2 3.466125 1_655
I17 Y0 3.310551 1_555
I17 Sr0 3.418726 1_555
I17 Sr5 3.559418 1_555
I17 Sr9 3.728447 1_555
I18 Y0 3.326485 1_555
I18 Sr5 3.448780 1_555
I18 Sr1 3.459735 1_655
I18 Sr8 3.502079 1_555
I19 Sr4 3.407008 1_555
I19 Y1 3.441527 1_555
I19 Sr1 3.474063 1_655
I19 Sr8 3.555530 1_555
I20 Y3 3.102984 1_555
I20 Sr6 3.453153 1_555
I20 Sr0 3.466125 1_454
I21 Y2 3.310551 1_555
I21 Sr2 3.418726 1_555
I21 Sr7 3.559418 1_555
I21 Sr11 3.728447 1_555
I22 Y2 3.326485 1_555
I22 Sr7 3.448780 1_555
I22 Sr3 3.459735 1_455
I22 Sr10 3.502079 1_555
I23 Sr6 3.407008 1_555
I23 Y3 3.441527 1_555
I23 Sr3 3.474063 1_455
I23 Sr10 3.555530 1_555
I24 Sr9 3.296608 1_555
I24 Sr6 3.305608 1_656
I24 Sr0 3.332231 1_555
I25 Sr11 3.296608 1_555
I25 Sr4 3.305608 1_455
I25 Sr2 3.332231 1_555
I26 Sr9 3.279030 1_555
I26 Sr0 3.313723 1_455
I26 Sr5 3.346666 1_455
I27 Sr1 3.265293 1_555
I27 Sr8 3.299305 1_555
I27 Sr5 3.822164 1_455
I28 Sr11 3.279030 1_555
I28 Sr2 3.313723 1_655
I28 Sr7 3.346666 1_655
I29 Sr3 3.265293 1_555
I29 Sr10 3.299305 1_555
I29 Sr7 3.822164 1_655
I30 Y0 3.062044 1_545
I30 Sr5 3.372167 1_455
I30 Sr8 3.690061 1_555
I31 Y1 3.125709 1_545
I31 Sr4 3.394532 1_455
I31 Sr8 3.447676 1_555
I32 Y2 3.062044 1_545
I32 Sr7 3.372167 1_655
I32 Sr10 3.690061 1_555
I33 Y3 3.125709 1_545
I33 Sr6 3.394532 1_655
I33 Sr10 3.447676 1_555
I34 Y1 3.162219 1_545
I34 Sr4 3.376181 1_555
I34 Sr11 3.420994 1_555
I35 Y3 3.162219 1_545
I35 Sr6 3.376181 1_555
I35 Sr9 3.420994 1_554
