# generated using pymatgen
data_Cr3Sn3(SbO8)2
_symmetry_space_group_name_H-M   'P 1'
_cell_length_a   6.17828197
_cell_length_b   6.17828197
_cell_length_c   9.35623011
_cell_angle_alpha   89.17964264
_cell_angle_beta   89.17964264
_cell_angle_gamma   59.87584316
_symmetry_Int_Tables_number   1
_chemical_formula_structural   Cr3Sn3(SbO8)2
_chemical_formula_sum   'Cr3 Sn3 Sb2 O16'
_cell_volume   308.86094200
_cell_formula_units_Z   1
loop_
 _symmetry_equiv_pos_site_id
 _symmetry_equiv_pos_as_xyz
  1  'x, y, z'
loop_
 _atom_site_type_symbol
 _atom_site_label
 _atom_site_symmetry_multiplicity
 _atom_site_fract_x
 _atom_site_fract_y
 _atom_site_fract_z
 _atom_site_occupancy
  Cr  Cr0  1  0.82771200  0.82771200  0.21313800  1
  Cr  Cr1  1  0.16877600  0.65838100  0.71598900  1
  Cr  Cr2  1  0.65838100  0.16877600  0.71598900  1
  Sn  Sn0  1  0.33520100  0.82931200  0.21163500  1
  Sn  Sn1  1  0.82931200  0.33520100  0.21163500  1
  Sn  Sn2  1  0.16769500  0.16769500  0.70344900  1
  Sb  Sb0  1  0.67285300  0.67285300  0.49476000  1
  Sb  Sb1  1  0.33851900  0.33851900  0.98801800  1
  O  O0  1  0.34354500  0.82396200  0.60034100  1
  O  O1  1  0.52276100  0.52276100  0.35333600  1
  O  O2  1  0.67188400  0.67188400  0.09999500  1
  O  O3  1  0.99276100  0.99276100  0.30877600  1
  O  O4  1  0.98858100  0.98858100  0.79355300  1
  O  O5  1  0.82396200  0.34354500  0.60034100  1
  O  O6  1  0.53214900  0.95568600  0.34219700  1
  O  O7  1  0.95568600  0.53214900  0.34219700  1
  O  O8  1  0.17230100  0.17230100  0.09458800  1
  O  O9  1  0.83063500  0.83063500  0.60667700  1
  O  O10  1  0.04934200  0.48750800  0.84241700  1
  O  O11  1  0.48750800  0.04934200  0.84241700  1
  O  O12  1  0.34428900  0.34428900  0.60670500  1
  O  O13  1  0.16669500  0.65785100  0.10015300  1
  O  O14  1  0.47697000  0.47697000  0.83413100  1
  O  O15  1  0.65785100  0.16669500  0.10015300  1
loop_
_geom_bond_atom_site_label_1
_geom_bond_atom_site_label_2
_geom_bond_distance
_geom_bond_site_symmetry_2
Cr0 O6 1.983112 1_555
Cr0 O7 1.983112 1_555
Cr0 O2 1.990758 1_555
Cr0 O3 1.994073 1_555
Cr0 O15 2.089807 1_565
Cr0 O13 2.089807 1_655
Cr1 O4 1.915071 1_455
Cr1 O10 1.944066 1_555
Cr1 O12 1.974834 1_555
Cr1 O14 1.996577 1_555
Cr1 O9 2.083609 1_455
Cr1 O0 2.104006 1_555
Cr2 O4 1.915071 1_545
Cr2 O11 1.944066 1_555
Cr2 O12 1.974834 1_555
Cr2 O14 1.996577 1_555
Cr2 O9 2.083609 1_545
Cr2 O5 2.104006 1_555
O0 Sb0 2.012246 1_555
O0 Sn2 2.081770 1_565
O1 Sb0 2.098585 1_555
O1 Sn1 2.111101 1_555
O1 Sn0 2.111101 1_555
O2 Sn1 2.073658 1_555
O2 Sn0 2.073658 1_555
O3 Sn1 2.036829 1_565
O3 Sn0 2.036829 1_655
O4 Sn2 2.082228 1_665
O5 Sb0 2.012246 1_555
O5 Sn2 2.081770 1_655
O6 Sb0 2.070279 1_555
O6 Sn0 2.146142 1_555
O7 Sb0 2.070279 1_555
O7 Sn1 2.146142 1_555
O8 Sb1 2.025669 1_554
O8 Sn0 2.127698 1_545
O8 Sn1 2.127698 1_455
O9 Sb0 2.002328 1_555
O10 Sb1 2.068370 1_555
O10 Sn2 2.173825 1_555
O11 Sb1 2.068370 1_555
O11 Sn2 2.173825 1_555
O12 Sn2 2.082876 1_555
O13 Sb1 2.011274 1_554
O13 Sn0 2.112749 1_555
O14 Sb1 2.049467 1_555
O15 Sb1 2.011274 1_554
O15 Sn1 2.112749 1_555
