# generated using pymatgen
data_Li2V3FeO8
_symmetry_space_group_name_H-M   'P 1'
_cell_length_a   8.42309400
_cell_length_b   8.42309400
_cell_length_c   8.51480000
_cell_angle_alpha   90.00000000
_cell_angle_beta   90.00000000
_cell_angle_gamma   90.00000000
_symmetry_Int_Tables_number   1
_chemical_formula_structural   Li2V3FeO8
_chemical_formula_sum   'Li8 V12 Fe4 O32'
_cell_volume   604.11239451
_cell_formula_units_Z   4
loop_
 _symmetry_equiv_pos_site_id
 _symmetry_equiv_pos_as_xyz
  1  'x, y, z'
loop_
 _atom_site_type_symbol
 _atom_site_label
 _atom_site_symmetry_multiplicity
 _atom_site_fract_x
 _atom_site_fract_y
 _atom_site_fract_z
 _atom_site_occupancy
  Li  Li0  1  0.75233400  0.50568700  0.00213200  1
  Li  Li1  1  0.99743100  0.74885700  0.24745000  1
  Li  Li2  1  0.50568700  0.24766600  0.25213200  1
  Li  Li3  1  0.74885700  0.00256900  0.49745000  1
  Li  Li4  1  0.24766600  0.49431300  0.50213200  1
  Li  Li5  1  0.00256900  0.25114300  0.74745000  1
  Li  Li6  1  0.49431300  0.75233400  0.75213200  1
  Li  Li7  1  0.25114300  0.99743100  0.99745000  1
  V  V0  1  0.87812200  0.12956100  0.12310300  1
  V  V1  1  0.13080400  0.37412700  0.12676200  1
  V  V2  1  0.37638700  0.62393300  0.12632900  1
  V  V3  1  0.12956100  0.12187800  0.37310300  1
  V  V4  1  0.37412700  0.86919600  0.37676200  1
  V  V5  1  0.62393300  0.62361300  0.37632900  1
  V  V6  1  0.12187800  0.87043900  0.62310300  1
  V  V7  1  0.86919600  0.62587300  0.62676200  1
  V  V8  1  0.62361300  0.37606700  0.62632900  1
  V  V9  1  0.87043900  0.87812200  0.87310300  1
  V  V10  1  0.62587300  0.13080400  0.87676200  1
  V  V11  1  0.37606700  0.37638700  0.87632900  1
  Fe  Fe0  1  0.62846900  0.87498600  0.12773000  1
  Fe  Fe1  1  0.87498600  0.37153100  0.37773000  1
  Fe  Fe2  1  0.37153100  0.12501400  0.62773000  1
  Fe  Fe3  1  0.12501400  0.62846900  0.87773000  1
  O  O0  1  0.87146800  0.89886400  0.10945900  1
  O  O1  1  0.64073400  0.11304000  0.11245100  1
  O  O2  1  0.37786500  0.39606400  0.11330800  1
  O  O3  1  0.88150000  0.35232700  0.13472800  1
  O  O4  1  0.13975600  0.61246800  0.11472000  1
  O  O5  1  0.11569800  0.13506900  0.13863100  1
  O  O6  1  0.38241500  0.85041800  0.13523900  1
  O  O7  1  0.61513200  0.63592000  0.14234600  1
  O  O8  1  0.89886400  0.12853200  0.35945900  1
  O  O9  1  0.11304000  0.35926600  0.36245100  1
  O  O10  1  0.39606400  0.62213500  0.36330800  1
  O  O11  1  0.35232700  0.11850000  0.38472800  1
  O  O12  1  0.61246800  0.86024400  0.36472000  1
  O  O13  1  0.13506900  0.88430200  0.38863100  1
  O  O14  1  0.85041800  0.61758500  0.38523900  1
  O  O15  1  0.63592000  0.38486800  0.39234600  1
  O  O16  1  0.12853200  0.10113600  0.60945900  1
  O  O17  1  0.35926600  0.88696000  0.61245100  1
  O  O18  1  0.62213500  0.60393600  0.61330800  1
  O  O19  1  0.11850000  0.64767300  0.63472800  1
  O  O20  1  0.86024400  0.38753200  0.61472000  1
  O  O21  1  0.88430200  0.86493100  0.63863100  1
  O  O22  1  0.61758500  0.14958200  0.63523900  1
  O  O23  1  0.38486800  0.36408000  0.64234600  1
  O  O24  1  0.10113600  0.87146800  0.85945900  1
  O  O25  1  0.88696000  0.64073400  0.86245100  1
  O  O26  1  0.60393600  0.37786500  0.86330800  1
  O  O27  1  0.64767300  0.88150000  0.88472800  1
  O  O28  1  0.38753200  0.13975600  0.86472000  1
  O  O29  1  0.86493100  0.11569800  0.88863100  1
  O  O30  1  0.14958200  0.38241500  0.88523900  1
  O  O31  1  0.36408000  0.61513200  0.89234600  1
loop_
_geom_bond_atom_site_label_1
_geom_bond_atom_site_label_2
_geom_bond_distance
_geom_bond_site_symmetry_2
Li0 O7 1.991049 1_555
Li0 O25 1.998596 1_554
Li0 O26 2.029502 1_554
Li0 O3 2.031516 1_555
Li1 O4 2.008538 1_655
Li1 O13 2.022561 1_655
Li1 O0 2.025525 1_555
Li1 O14 2.032858 1_555
Li2 O15 1.991049 1_555
Li2 O1 1.998596 1_555
Li2 O2 2.029502 1_555
Li2 O11 2.031516 1_555
Li3 O12 2.008538 1_545
Li3 O21 2.022561 1_545
Li3 O8 2.025525 1_555
Li3 O22 2.032858 1_555
Li4 O23 1.991049 1_555
Li4 O9 1.998596 1_555
Li4 O10 2.029502 1_555
Li4 O19 2.031516 1_555
Li5 O20 2.008538 1_455
Li5 O29 2.022561 1_455
Li5 O16 2.025525 1_555
Li5 O30 2.032858 1_555
Li6 O31 1.991049 1_555
Li6 O17 1.998596 1_555
Li6 O18 2.029502 1_555
Li6 O27 2.031516 1_555
Li7 O28 2.008538 1_565
Li7 O5 2.022561 1_566
Li7 O24 2.025525 1_555
Li7 O6 2.032858 1_556
Fe0 O1 2.012021 1_565
Fe0 O7 2.020643 1_555
Fe0 O12 2.026227 1_555
Fe0 O0 2.062537 1_555
Fe0 O27 2.076152 1_554
Fe0 O6 2.083823 1_555
Fe1 O9 2.012021 1_655
Fe1 O15 2.020643 1_555
Fe1 O20 2.026227 1_555
Fe1 O8 2.062537 1_555
Fe1 O3 2.076152 1_555
Fe1 O14 2.083823 1_555
Fe2 O17 2.012021 1_545
Fe2 O23 2.020643 1_555
Fe2 O28 2.026227 1_555
Fe2 O16 2.062537 1_555
Fe2 O11 2.076152 1_555
Fe2 O22 2.083823 1_555
Fe3 O25 2.012021 1_455
Fe3 O31 2.020643 1_555
Fe3 O4 2.026227 1_556
Fe3 O24 2.062537 1_555
Fe3 O19 2.076152 1_555
Fe3 O30 2.083823 1_555
O0 V0 1.947459 1_565
O0 V9 2.020112 1_554
O1 V0 2.006429 1_555
O1 V10 2.016304 1_554
O2 V2 1.922602 1_555
O2 V11 2.024681 1_554
O2 V1 2.092344 1_555
O3 V0 1.879203 1_555
O3 V1 2.109015 1_655
O4 V2 1.997950 1_555
O4 V1 2.011599 1_555
O5 V3 2.002978 1_555
O5 V0 2.006025 1_455
O5 V1 2.020154 1_555
O6 V2 1.909887 1_555
O6 V4 2.063775 1_555
O7 V5 1.996390 1_555
O7 V2 2.018118 1_555
O8 V3 1.947459 1_655
O8 V0 2.020112 1_555
O9 V3 2.006429 1_555
O9 V1 2.016304 1_555
O10 V5 1.922602 1_555
O10 V2 2.024681 1_555
O10 V4 2.092344 1_555
O11 V3 1.879203 1_555
O11 V4 2.109015 1_545
O12 V5 1.997950 1_555
O12 V4 2.011599 1_555
O13 V6 2.002978 1_555
O13 V3 2.006025 1_565
O13 V4 2.020154 1_555
O14 V5 1.909887 1_555
O14 V7 2.063775 1_555
O15 V8 1.996390 1_555
O15 V5 2.018118 1_555
O16 V6 1.947459 1_545
O16 V3 2.020112 1_555
O17 V6 2.006429 1_555
O17 V4 2.016304 1_555
O18 V8 1.922602 1_555
O18 V5 2.024681 1_555
O18 V7 2.092344 1_555
O19 V6 1.879203 1_555
O19 V7 2.109015 1_455
O20 V8 1.997950 1_555
O20 V7 2.011599 1_555
O21 V9 2.002978 1_555
O21 V6 2.006025 1_655
O21 V7 2.020154 1_555
O22 V8 1.909887 1_555
O22 V10 2.063775 1_555
O23 V11 1.996390 1_555
O23 V8 2.018118 1_555
O24 V9 1.947459 1_455
O24 V6 2.020112 1_555
O25 V9 2.006429 1_555
O25 V7 2.016304 1_555
O26 V11 1.922602 1_555
O26 V8 2.024681 1_555
O26 V10 2.092344 1_555
O27 V9 1.879203 1_555
O27 V10 2.109015 1_565
O28 V11 1.997950 1_555
O28 V10 2.011599 1_555
O29 V0 2.002978 1_556
O29 V9 2.006025 1_545
O29 V10 2.020154 1_555
O30 V11 1.909887 1_555
O30 V1 2.063775 1_556
O31 V2 1.996390 1_556
O31 V11 2.018118 1_555
