# generated using pymatgen
data_NdSeO
_symmetry_space_group_name_H-M   'P 1'
_cell_length_a   7.29024555
_cell_length_b   7.29024555
_cell_length_c   5.99489048
_cell_angle_alpha   90.00000000
_cell_angle_beta   90.00000000
_cell_angle_gamma   131.38329437
_symmetry_Int_Tables_number   1
_chemical_formula_structural   NdSeO
_chemical_formula_sum   'Nd4 Se4 O4'
_cell_volume   239.05770398
_cell_formula_units_Z   4
loop_
 _symmetry_equiv_pos_site_id
 _symmetry_equiv_pos_as_xyz
  1  'x, y, z'
loop_
 _atom_site_type_symbol
 _atom_site_label
 _atom_site_symmetry_multiplicity
 _atom_site_fract_x
 _atom_site_fract_y
 _atom_site_fract_z
 _atom_site_occupancy
  Nd  Nd0  1  0.33247303  0.66752697  0.00000000  1
  Nd  Nd1  1  0.16752697  0.83247303  0.50000000  1
  Nd  Nd2  1  0.83247303  0.16752697  0.50000000  1
  Nd  Nd3  1  0.66752697  0.33247303  0.00000000  1
  Se  Se0  1  0.85974136  0.85974136  0.85943304  1
  Se  Se1  1  0.35974136  0.35974136  0.64056696  1
  Se  Se2  1  0.14025864  0.14025864  0.14056696  1
  Se  Se3  1  0.64025864  0.64025864  0.35943304  1
  O  O0  1  0.49388684  0.99388684  0.75000000  1
  O  O1  1  0.00611316  0.50611316  0.25000000  1
  O  O2  1  0.50611316  0.00611316  0.25000000  1
  O  O3  1  0.99388684  0.49388684  0.75000000  1
loop_
_geom_bond_atom_site_label_1
_geom_bond_atom_site_label_2
_geom_bond_distance
_geom_bond_site_symmetry_2
Nd0 O0 2.364295 1_554
Nd0 O1 2.364295 1_555
Nd0 O2 2.410417 1_565
Nd0 O3 2.410417 1_454
Nd0 Se3 3.210463 1_555
Nd0 Se1 3.210463 1_554
Nd0 Se2 3.213649 1_555
Nd0 Se0 3.213649 1_554
Nd1 O0 2.364295 1_555
Nd1 O1 2.364295 1_555
Nd1 O3 2.410417 1_455
Nd1 O2 2.410417 1_565
Nd1 Se2 3.210463 1_565
Nd1 Se0 3.210463 1_455
Nd1 Se3 3.213649 1_455
Nd1 Se1 3.213649 1_565
Nd2 O2 2.364295 1_555
Nd2 O3 2.364295 1_555
Nd2 O0 2.410417 1_545
Nd2 O1 2.410417 1_655
Nd2 Se2 3.210463 1_655
Nd2 Se0 3.210463 1_545
Nd2 Se3 3.213649 1_545
Nd2 Se1 3.213649 1_655
Nd3 O2 2.364295 1_555
Nd3 O3 2.364295 1_554
Nd3 O1 2.410417 1_655
Nd3 O0 2.410417 1_544
Nd3 Se3 3.210463 1_555
Nd3 Se1 3.210463 1_554
Nd3 Se2 3.213649 1_555
Nd3 Se0 3.213649 1_554
Se0 Se2 2.382269 1_666
Se1 Se3 2.382269 1_555
