# generated using pymatgen
data_Li4Co15O28
_symmetry_space_group_name_H-M   'P 1'
_cell_length_a   8.17327362
_cell_length_b   8.72043617
_cell_length_c   7.69778328
_cell_angle_alpha   107.06780432
_cell_angle_beta   78.10015103
_cell_angle_gamma   74.07329723
_symmetry_Int_Tables_number   1
_chemical_formula_structural   Li4Co15O28
_chemical_formula_sum   'Li4 Co15 O28'
_cell_volume   479.19436831
_cell_formula_units_Z   1
loop_
 _symmetry_equiv_pos_site_id
 _symmetry_equiv_pos_as_xyz
  1  'x, y, z'
loop_
 _atom_site_type_symbol
 _atom_site_label
 _atom_site_symmetry_multiplicity
 _atom_site_fract_x
 _atom_site_fract_y
 _atom_site_fract_z
 _atom_site_occupancy
  Li  Li0  1  0.27288800  0.28439000  0.55708100  1
  Li  Li1  1  0.43032700  0.42457500  0.85286500  1
  Li  Li2  1  0.56967300  0.57542500  0.14713500  1
  Li  Li3  1  0.72711200  0.71561000  0.44291900  1
  Co  Co0  1  0.00000000  0.00000000  0.00000000  1
  Co  Co1  1  0.07155300  0.07194600  0.64015900  1
  Co  Co2  1  0.07428300  0.57195000  0.13893600  1
  Co  Co3  1  0.21432900  0.21524200  0.92913600  1
  Co  Co4  1  0.50000000  0.00000000  0.00000000  1
  Co  Co5  1  0.35479800  0.35687400  0.21654300  1
  Co  Co6  1  0.21102900  0.71173100  0.43159700  1
  Co  Co7  1  0.63907200  0.14398600  0.29055200  1
  Co  Co8  1  0.50000000  0.50000000  0.50000000  1
  Co  Co9  1  0.36092800  0.85601400  0.70944800  1
  Co  Co10  1  0.78897100  0.28826900  0.56840300  1
  Co  Co11  1  0.64520200  0.64312600  0.78345700  1
  Co  Co12  1  0.78567100  0.78475800  0.07086400  1
  Co  Co13  1  0.92571700  0.42805000  0.86106400  1
  Co  Co14  1  0.92844700  0.92805400  0.35984100  1
  O  O0  1  0.01718100  0.27851600  0.59991300  1
  O  O1  1  0.01219200  0.78828800  0.09273800  1
  O  O2  1  0.13034100  0.36554700  0.18429900  1
  O  O3  1  0.26706600  0.00575200  0.97193100  1
  O  O4  1  0.16256500  0.41603800  0.87501800  1
  O  O5  1  0.29882600  0.06645600  0.66736600  1
  O  O6  1  0.15295400  0.91978000  0.38615200  1
  O  O7  1  0.30661600  0.56104600  0.16509300  1
  O  O8  1  0.12696600  0.86818200  0.69914900  1
  O  O9  1  0.27368800  0.49997700  0.47346500  1
  O  O10  1  0.41456600  0.15077600  0.26389500  1
  O  O11  1  0.43905200  0.21023400  0.95392600  1
  O  O12  1  0.58283600  0.34923200  0.24066000  1
  O  O13  1  0.44573700  0.70521900  0.44912100  1
  O  O14  1  0.55426300  0.29478100  0.55087900  1
  O  O15  1  0.41716400  0.65076800  0.75934000  1
  O  O16  1  0.56094800  0.78976600  0.04607400  1
  O  O17  1  0.58543400  0.84922400  0.73610500  1
  O  O18  1  0.72631200  0.50002300  0.52653500  1
  O  O19  1  0.87303400  0.13181800  0.30085100  1
  O  O20  1  0.69338400  0.43895400  0.83490700  1
  O  O21  1  0.84704600  0.08022000  0.61384800  1
  O  O22  1  0.70117400  0.93354400  0.33263400  1
  O  O23  1  0.83743500  0.58396200  0.12498200  1
  O  O24  1  0.73293400  0.99424800  0.02806900  1
  O  O25  1  0.86965900  0.63445300  0.81570100  1
  O  O26  1  0.98780800  0.21171200  0.90726200  1
  O  O27  1  0.98281900  0.72148400  0.40008700  1
loop_
_geom_bond_atom_site_label_1
_geom_bond_atom_site_label_2
_geom_bond_distance
_geom_bond_site_symmetry_2
Li0 O0 2.064889 1_555
Li0 O10 2.104795 1_555
Li0 O9 2.159658 1_555
Li0 O4 2.234573 1_555
Li0 O5 2.275450 1_555
Li0 O14 2.317540 1_555
Li1 O14 2.136874 1_555
Li1 O20 2.166345 1_555
Li1 O4 2.183364 1_555
Li1 O7 2.207636 1_556
Li1 O11 2.215239 1_555
Li1 O15 2.273700 1_555
Li2 O13 2.136874 1_555
Li2 O7 2.166345 1_555
Li2 O23 2.183364 1_555
Li2 O20 2.207636 1_554
Li2 O16 2.215239 1_555
Li2 O12 2.273700 1_555
Li3 O27 2.064889 1_555
Li3 O17 2.104795 1_555
Li3 O18 2.159658 1_555
Li3 O23 2.234573 1_555
Li3 O22 2.275450 1_555
Li3 O13 2.317540 1_555
Co0 O19 2.133801 1_455
Co0 O8 2.133801 1_544
Co0 O26 2.151769 1_454
Co0 O1 2.151769 1_545
Co0 O3 2.164666 1_554
Co0 O24 2.164666 1_445
Co1 O6 1.866165 1_545
Co1 O0 1.866406 1_555
Co1 O21 1.871491 1_455
Co1 O5 1.901110 1_555
Co1 O26 1.916321 1_455
Co1 O8 1.919772 1_545
Co2 O2 1.885184 1_555
Co2 O27 1.899201 1_455
Co2 O7 1.930106 1_555
Co2 O4 1.931883 1_554
Co2 O23 1.936748 1_455
Co2 O1 1.971279 1_555
Co3 O2 1.867124 1_556
Co3 O4 1.874287 1_555
Co3 O11 1.875444 1_555
Co3 O3 1.900353 1_555
Co3 O26 1.901013 1_455
Co3 O5 1.902741 1_555
Co4 O17 1.919962 1_544
Co4 O10 1.919962 1_555
Co4 O11 1.920515 1_554
Co4 O16 1.920515 1_545
Co4 O24 1.948687 1_545
Co4 O3 1.948687 1_554
Co5 O9 1.861373 1_555
Co5 O2 1.885617 1_555
Co5 O7 1.890887 1_555
Co5 O10 1.891509 1_555
Co5 O12 1.895920 1_555
Co5 O11 1.902976 1_554
Co6 O6 1.899396 1_555
Co6 O27 1.912263 1_455
Co6 O9 1.916883 1_555
Co6 O7 1.933615 1_555
Co6 O13 1.937228 1_555
Co6 O8 1.956466 1_555
Co7 O10 1.874950 1_555
Co7 O12 1.893961 1_555
Co7 O14 1.898817 1_555
Co7 O19 1.905332 1_555
Co7 O22 1.906801 1_545
Co7 O24 1.907458 1_545
Co8 O15 1.893598 1_555
Co8 O12 1.893598 1_555
Co8 O14 1.897429 1_555
Co8 O13 1.897429 1_555
Co8 O18 1.902405 1_555
Co8 O9 1.902405 1_555
Co9 O17 1.874950 1_555
Co9 O15 1.893961 1_555
Co9 O13 1.898817 1_555
Co9 O8 1.905332 1_555
Co9 O5 1.906801 1_565
Co9 O3 1.907458 1_565
Co10 O21 1.899396 1_555
Co10 O0 1.912263 1_655
Co10 O18 1.916883 1_555
Co10 O20 1.933615 1_555
Co10 O14 1.937228 1_555
Co10 O19 1.956466 1_555
Co11 O18 1.861373 1_555
Co11 O25 1.885617 1_555
Co11 O20 1.890887 1_555
Co11 O17 1.891509 1_555
Co11 O15 1.895920 1_555
Co11 O16 1.902976 1_556
Co12 O25 1.867124 1_554
Co12 O23 1.874287 1_555
Co12 O16 1.875444 1_555
Co12 O24 1.900353 1_555
Co12 O1 1.901013 1_655
Co12 O22 1.902741 1_555
Co13 O25 1.885184 1_555
Co13 O0 1.899201 1_655
Co13 O20 1.930106 1_555
Co13 O23 1.931883 1_556
Co13 O4 1.936748 1_655
Co13 O26 1.971279 1_555
Co14 O21 1.866165 1_565
Co14 O27 1.866406 1_555
Co14 O6 1.871491 1_655
Co14 O22 1.901110 1_555
Co14 O1 1.916321 1_655
Co14 O19 1.919772 1_565
