# generated using pymatgen
data_Li3Mn(OF)2
_symmetry_space_group_name_H-M   'P 1'
_cell_length_a   5.70404727
_cell_length_b   9.32956965
_cell_length_c   5.80889564
_cell_angle_alpha   89.99987728
_cell_angle_beta   90.00019695
_cell_angle_gamma   72.19664534
_symmetry_Int_Tables_number   1
_chemical_formula_structural   Li3Mn(OF)2
_chemical_formula_sum   'Li12 Mn4 O8 F8'
_cell_volume   294.32429258
_cell_formula_units_Z   4
loop_
 _symmetry_equiv_pos_site_id
 _symmetry_equiv_pos_as_xyz
  1  'x, y, z'
loop_
 _atom_site_type_symbol
 _atom_site_label
 _atom_site_symmetry_multiplicity
 _atom_site_fract_x
 _atom_site_fract_y
 _atom_site_fract_z
 _atom_site_occupancy
  Li  Li0  1  0.75010100  0.50032300  0.00000200  1
  Li  Li1  1  0.00010700  0.00030900  0.50000400  1
  Li  Li2  1  0.25010100  0.50031900  0.00000200  1
  Li  Li3  1  0.50010900  0.00030500  0.50000400  1
  Li  Li4  1  0.37549600  0.75019000  0.75016000  1
  Li  Li5  1  0.62550100  0.25018800  0.25016100  1
  Li  Li6  1  0.87549200  0.75018900  0.75015900  1
  Li  Li7  1  0.12549600  0.25018800  0.25016100  1
  Li  Li8  1  0.37549600  0.75019100  0.24984800  1
  Li  Li9  1  0.62550000  0.25018900  0.74984700  1
  Li  Li10  1  0.87549100  0.75019000  0.24984800  1
  Li  Li11  1  0.12549500  0.25018900  0.74984700  1
  Mn  Mn0  1  0.50007000  0.00069500  0.99990400  1
  Mn  Mn1  1  0.75007500  0.50072800  0.49993100  1
  Mn  Mn2  1  0.00009700  0.00068400  0.99990600  1
  Mn  Mn3  1  0.24983400  0.50086400  0.50016400  1
  O  O0  1  0.49999300  0.50092100  0.27285400  1
  O  O1  1  0.74997700  0.00095300  0.77285200  1
  O  O2  1  0.00000700  0.50092200  0.27285500  1
  O  O3  1  0.24996500  0.00095300  0.77285400  1
  O  O4  1  0.49998900  0.50092100  0.72714200  1
  O  O5  1  0.74997300  0.00095400  0.22715600  1
  O  O6  1  0.00000200  0.50092200  0.72714000  1
  O  O7  1  0.24996300  0.00095300  0.22715600  1
  F  F0  1  0.37017900  0.26098200  0.00000500  1
  F  F1  1  0.62019300  0.76098000  0.50000300  1
  F  F2  1  0.87018600  0.26096200  0.00000500  1
  F  F3  1  0.12020200  0.76095900  0.50000400  1
  F  F4  1  0.63026200  0.74070100  0.00000600  1
  F  F5  1  0.88025100  0.24069400  0.50000300  1
  F  F6  1  0.13025300  0.74072400  0.00000400  1
  F  F7  1  0.38024800  0.24070900  0.50000400  1
loop_
_geom_bond_atom_site_label_1
_geom_bond_atom_site_label_2
_geom_bond_distance
_geom_bond_site_symmetry_2
Li0 O0 2.131331 1_555
Li0 O4 2.131374 1_554
Li0 O2 2.132841 1_655
Li0 O6 2.132868 1_654
Li1 O1 2.131311 1_455
Li1 O5 2.131317 1_455
Li1 O7 2.132723 1_555
Li1 O3 2.132732 1_555
Li2 O2 2.131273 1_555
Li2 O6 2.131323 1_554
Li2 O0 2.132789 1_555
Li2 O4 2.132816 1_554
Li3 O7 2.131357 1_555
Li3 O3 2.131366 1_555
Li3 O5 2.132763 1_555
Li3 O1 2.132769 1_555
Li4 O4 2.218238 1_555
Li4 O3 2.231373 1_565
Li5 O5 2.217924 1_555
Li5 O0 2.231107 1_555
Li6 O6 2.218221 1_655
Li6 O1 2.231382 1_565
Li7 O7 2.217932 1_555
Li7 O2 2.231116 1_555
Li8 O0 2.218242 1_555
Li8 O7 2.231363 1_565
Li9 O1 2.217940 1_555
Li9 O4 2.231101 1_555
Li10 O2 2.218225 1_655
Li10 O5 2.231381 1_565
Li11 O3 2.217941 1_555
Li11 O6 2.231111 1_555
Mn0 O3 1.942327 1_555
Mn0 O1 1.942593 1_555
Mn0 O7 1.943139 1_556
Mn0 O5 1.943361 1_556
Mn1 O0 1.942473 1_555
Mn1 O2 1.942658 1_655
Mn1 O4 1.943025 1_555
Mn1 O6 1.943155 1_655
Mn2 O1 1.942383 1_455
Mn2 O3 1.942453 1_555
Mn2 O5 1.943177 1_456
Mn2 O7 1.943219 1_556
Mn3 O6 1.941316 1_555
Mn3 O2 1.942603 1_555
Mn3 O4 1.942911 1_555
Mn3 O0 1.944244 1_555
F0 Li5 2.037901 1_555
F0 Li9 2.037914 1_554
F0 Li7 2.038534 1_555
F0 Li11 2.038537 1_554
F0 Li2 2.125982 1_555
F0 Mn0 2.312075 1_554
F1 Li6 2.037814 1_555
F1 Li10 2.037815 1_555
F1 Li8 2.038567 1_555
F1 Li4 2.038584 1_555
F1 Li3 2.125875 1_565
F1 Mn1 2.311765 1_555
F2 Li7 2.037884 1_655
F2 Li11 2.037898 1_654
F2 Li5 2.038494 1_555
F2 Li9 2.038497 1_554
F2 Li0 2.126195 1_555
F2 Mn2 2.311995 1_654
F3 Li4 2.037828 1_555
F3 Li8 2.037837 1_555
F3 Li10 2.038579 1_455
F3 Li6 2.038580 1_455
F3 Li1 2.126097 1_565
F3 Mn3 2.310371 1_555
F4 Li10 2.036289 1_555
F4 Li6 2.036318 1_554
F4 Li8 2.036479 1_555
F4 Li4 2.036490 1_554
F4 Li0 2.135228 1_555
F4 Mn0 2.309473 1_564
F5 Li7 2.036371 1_655
F5 Li11 2.036371 1_655
F5 Li5 2.036402 1_555
F5 Li9 2.036420 1_555
F5 Li1 2.135291 1_655
F5 Mn1 2.309828 1_555
F6 Li8 2.036301 1_555
F6 Li4 2.036305 1_554
F6 Li6 2.036505 1_454
F6 Li10 2.036511 1_455
F6 Li2 2.135468 1_555
F6 Mn2 2.309170 1_564
F7 Li9 2.036364 1_555
F7 Li5 2.036372 1_555
F7 Li7 2.036438 1_555
F7 Li11 2.036448 1_555
F7 Li3 2.135459 1_555
F7 Mn3 2.310903 1_555
