# generated using pymatgen
data_Li4Mn3Co(PO4)4
_symmetry_space_group_name_H-M   'P 1'
_cell_length_a   6.11880000
_cell_length_b   4.77475900
_cell_length_c   10.52859778
_cell_angle_alpha   89.80057502
_cell_angle_beta   90.00000000
_cell_angle_gamma   90.00000000
_symmetry_Int_Tables_number   1
_chemical_formula_structural   Li4Mn3Co(PO4)4
_chemical_formula_sum   'Li4 Mn3 Co1 P4 O16'
_cell_volume   307.59949488
_cell_formula_units_Z   1
loop_
 _symmetry_equiv_pos_site_id
 _symmetry_equiv_pos_as_xyz
  1  'x, y, z'
loop_
 _atom_site_type_symbol
 _atom_site_label
 _atom_site_symmetry_multiplicity
 _atom_site_fract_x
 _atom_site_fract_y
 _atom_site_fract_z
 _atom_site_occupancy
  Li  Li0  1  0.25045500  0.99928500  0.00085000  1
  Li  Li1  1  0.74954500  0.99928500  0.00085000  1
  Li  Li2  1  0.74896100  0.49980200  0.49930400  1
  Li  Li3  1  0.25103900  0.49980200  0.49930400  1
  Mn  Mn0  1  0.50000000  0.52136900  0.78061700  1
  Mn  Mn1  1  0.00000000  0.47767600  0.21971900  1
  Mn  Mn2  1  0.00000000  0.02279300  0.71776700  1
  Co  Co0  1  0.50000000  0.97499900  0.27864900  1
  P  P0  1  0.00000000  0.91932500  0.40601800  1
  P  P1  1  0.00000000  0.58548100  0.90726800  1
  P  P2  1  0.50000000  0.41195100  0.09589100  1
  P  P3  1  0.50000000  0.08464900  0.59071600  1
  O  O0  1  0.00000000  0.78945800  0.54195900  1
  O  O1  1  0.20381600  0.79071100  0.33554000  1
  O  O2  1  0.79618400  0.79071100  0.33554000  1
  O  O3  1  0.50000000  0.76254500  0.59591400  1
  O  O4  1  0.50000000  0.73430400  0.09912600  1
  O  O5  1  0.20180300  0.71838800  0.83733700  1
  O  O6  1  0.79819700  0.71838800  0.83733700  1
  O  O7  1  0.00000000  0.70858300  0.04371000  1
  O  O8  1  0.50000000  0.29184300  0.95855900  1
  O  O9  1  0.70054100  0.27596600  0.16599300  1
  O  O10  1  0.29945900  0.27596600  0.16599300  1
  O  O11  1  0.00000000  0.26347800  0.90451100  1
  O  O12  1  0.00000000  0.24082600  0.40483900  1
  O  O13  1  0.70116700  0.21788600  0.66144200  1
  O  O14  1  0.29883300  0.21788600  0.66144200  1
  O  O15  1  0.50000000  0.20664500  0.45380700  1
loop_
_geom_bond_atom_site_label_1
_geom_bond_atom_site_label_2
_geom_bond_distance
_geom_bond_site_symmetry_2
Li0 O7 2.115281 1_555
Li0 O8 2.115825 1_564
Li0 O5 2.206203 1_554
Li0 O10 2.207787 1_565
Li0 O11 2.227041 1_564
Li0 O4 2.234673 1_555
Li1 O7 2.115281 1_655
Li1 O8 2.115825 1_564
Li1 O6 2.206203 1_554
Li1 O9 2.207787 1_565
Li1 O11 2.227041 1_664
Li1 O4 2.234673 1_555
Li2 O0 2.116194 1_655
Li2 O15 2.124620 1_555
Li2 O13 2.189886 1_555
Li2 O12 2.210494 1_655
Li2 O3 2.222148 1_555
Li2 O2 2.229143 1_555
Li3 O0 2.116194 1_555
Li3 O15 2.124620 1_555
Li3 O14 2.189886 1_555
Li3 O12 2.210494 1_555
Li3 O3 2.222148 1_555
Li3 O1 2.229143 1_555
Mn0 O5 2.138851 1_555
Mn0 O6 2.138851 1_555
Mn0 O8 2.167187 1_555
Mn0 O3 2.256593 1_555
Mn0 O14 2.280774 1_555
Mn0 O13 2.280774 1_555
Mn1 O10 2.146809 1_555
Mn1 O9 2.146809 1_455
Mn1 O7 2.153003 1_555
Mn1 O12 2.249979 1_555
Mn1 O2 2.299786 1_455
Mn1 O1 2.299786 1_555
Mn2 O13 2.135175 1_455
Mn2 O14 2.135175 1_555
Mn2 O0 2.163761 1_545
Mn2 O11 2.280828 1_555
Mn2 O6 2.282403 1_445
Mn2 O5 2.282403 1_545
Co0 O2 2.100901 1_555
Co0 O1 2.100901 1_555
Co0 O15 2.153720 1_565
Co0 O4 2.215513 1_555
Co0 O9 2.228405 1_565
Co0 O10 2.228405 1_565
O0 P0 1.557836 1_555
O1 P0 1.576765 1_555
O2 P0 1.576765 1_655
O3 P3 1.538752 1_565
O4 P2 1.539653 1_555
O5 P1 1.570438 1_555
O6 P1 1.570438 1_655
O7 P1 1.554034 1_554
O8 P2 1.557345 1_556
O9 P2 1.571212 1_555
O10 P2 1.571212 1_555
O11 P1 1.537862 1_555
O12 P0 1.535097 1_545
O13 P3 1.574049 1_555
O14 P3 1.574049 1_555
O15 P3 1.552826 1_555
