# generated using pymatgen
data_Fe10O19F
_symmetry_space_group_name_H-M   'P 1'
_cell_length_a   4.61243500
_cell_length_b   7.52357397
_cell_length_c   9.68626779
_cell_angle_alpha   70.06008156
_cell_angle_beta   89.29635091
_cell_angle_gamma   89.47571880
_symmetry_Int_Tables_number   1
_chemical_formula_structural   Fe10O19F
_chemical_formula_sum   'Fe10 O19 F1'
_cell_volume   315.95368494
_cell_formula_units_Z   1
loop_
 _symmetry_equiv_pos_site_id
 _symmetry_equiv_pos_as_xyz
  1  'x, y, z'
loop_
 _atom_site_type_symbol
 _atom_site_label
 _atom_site_symmetry_multiplicity
 _atom_site_fract_x
 _atom_site_fract_y
 _atom_site_fract_z
 _atom_site_occupancy
  Fe  Fe0  1  0.49967600  0.69953600  0.90158900  1
  Fe  Fe1  1  0.50469400  0.90151000  0.30173300  1
  Fe  Fe2  1  0.50080200  0.09907500  0.70081800  1
  Fe  Fe3  1  0.47991700  0.29644100  0.09312600  1
  Fe  Fe4  1  0.50088800  0.50095400  0.49761600  1
  Fe  Fe5  1  0.99296200  0.40064500  0.79615800  1
  Fe  Fe6  1  0.00183500  0.79855300  0.60197900  1
  Fe  Fe7  1  0.01528900  0.19636000  0.40911200  1
  Fe  Fe8  1  0.01114800  0.60935400  0.20063400  1
  Fe  Fe9  1  0.99500200  0.99870900  0.99833600  1
  O  O0  1  0.17878300  0.23638100  0.97141700  1
  O  O1  1  0.19804400  0.03047500  0.58393800  1
  O  O2  1  0.19156700  0.44068700  0.37479300  1
  O  O3  1  0.18632000  0.63640300  0.77596500  1
  O  O4  1  0.19673300  0.84729500  0.17442700  1
  O  O5  1  0.31020800  0.93710200  0.87859900  1
  O  O6  1  0.30787600  0.33831200  0.67482300  1
  O  O7  1  0.30653800  0.53659100  0.07693000  1
  O  O8  1  0.30900900  0.14192200  0.27691100  1
  O  O9  1  0.31129900  0.73802000  0.47609800  1
  O  O10  1  0.69363800  0.86020200  0.72653100  1
  O  O11  1  0.69231800  0.26108100  0.52152900  1
  O  O12  1  0.69456600  0.66147500  0.32268500  1
  O  O13  1  0.69079600  0.06332500  0.12356600  1
  O  O14  1  0.68595900  0.46117900  0.92336800  1
  O  O15  1  0.80869700  0.56302100  0.62244900  1
  O  O16  1  0.81499200  0.95944800  0.42844400  1
  O  O17  1  0.80438000  0.16114100  0.82197200  1
  O  O18  1  0.81186900  0.76305200  0.02371100  1
  F  F0  1  0.80419000  0.36174800  0.22074200  1
loop_
_geom_bond_atom_site_label_1
_geom_bond_atom_site_label_2
_geom_bond_distance
_geom_bond_site_symmetry_2
Fe0 O5 1.926818 1_555
Fe0 O14 1.927924 1_555
Fe0 O10 1.929066 1_555
Fe0 O7 1.934872 1_556
Fe0 O18 2.034975 1_556
Fe0 O3 2.060401 1_555
Fe1 O9 1.930628 1_555
Fe1 O13 1.935705 1_565
Fe1 O12 1.948064 1_555
Fe1 O8 1.955224 1_565
Fe1 O4 2.025174 1_555
Fe1 O16 2.040663 1_555
Fe2 O10 1.937493 1_545
Fe2 O6 1.939593 1_555
Fe2 O5 1.942769 1_545
Fe2 O11 1.954517 1_555
Fe2 O1 1.987143 1_555
Fe2 O17 1.995487 1_555
Fe3 O7 1.926633 1_555
Fe3 O8 1.926843 1_555
Fe3 O13 1.931882 1_555
Fe3 O14 1.932936 1_554
Fe3 O0 1.984505 1_554
Fe4 O9 1.926572 1_555
Fe4 O12 1.927292 1_555
Fe4 O11 1.944469 1_555
Fe4 O6 1.945756 1_555
Fe4 O2 2.019398 1_555
Fe4 O15 2.033531 1_555
Fe5 O15 1.913111 1_555
Fe5 O0 1.931107 1_655
Fe5 O3 1.941095 1_655
Fe5 O17 1.944757 1_555
Fe5 O6 2.008128 1_655
Fe5 O14 2.014686 1_555
Fe6 O16 1.913667 1_455
Fe6 O3 1.914791 1_555
Fe6 O1 1.926452 1_565
Fe6 O15 1.938541 1_455
Fe6 O10 2.004716 1_455
Fe6 O9 2.013872 1_555
Fe7 O1 1.926163 1_555
Fe7 O2 1.937663 1_555
Fe7 O16 1.965667 1_445
Fe7 O8 1.986922 1_555
Fe7 O11 1.987586 1_455
Fe8 O2 1.924491 1_555
Fe8 O4 1.927336 1_555
Fe8 O18 1.945884 1_455
Fe8 O12 1.986695 1_455
Fe8 O7 1.996352 1_555
Fe9 O18 1.908522 1_556
Fe9 O0 1.920494 1_665
Fe9 O4 1.940895 1_656
Fe9 O17 1.943737 1_565
Fe9 O5 1.996654 1_655
Fe9 O13 2.006099 1_566
F0 Fe8 2.049387 1_655
F0 Fe7 2.073269 1_655
F0 Fe3 2.116511 1_555
