# generated using pymatgen
data_Li7VO5F
_symmetry_space_group_name_H-M   'P 1'
_cell_length_a   5.56891200
_cell_length_b   5.99959793
_cell_length_c   9.40073951
_cell_angle_alpha   93.66976915
_cell_angle_beta   103.06923986
_cell_angle_gamma   116.04631807
_symmetry_Int_Tables_number   1
_chemical_formula_structural   Li7VO5F
_chemical_formula_sum   'Li14 V2 O10 F2'
_cell_volume   270.05408977
_cell_formula_units_Z   2
loop_
 _symmetry_equiv_pos_site_id
 _symmetry_equiv_pos_as_xyz
  1  'x, y, z'
loop_
 _atom_site_type_symbol
 _atom_site_label
 _atom_site_symmetry_multiplicity
 _atom_site_fract_x
 _atom_site_fract_y
 _atom_site_fract_z
 _atom_site_occupancy
  Li  Li0  1  0.77435200  0.87623000  0.52932200  1
  Li  Li1  1  0.75520700  0.34967400  0.99136900  1
  Li  Li2  1  0.03857700  0.60319900  0.39013500  1
  Li  Li3  1  0.96142300  0.39680100  0.60986500  1
  Li  Li4  1  0.50291600  0.98808200  0.31723900  1
  Li  Li5  1  0.50403500  0.45250300  0.77014300  1
  Li  Li6  1  0.35152500  0.13980900  0.09816200  1
  Li  Li7  1  0.49708400  0.01191800  0.68276100  1
  Li  Li8  1  0.49596500  0.54749700  0.22985700  1
  Li  Li9  1  0.11937000  0.26567800  0.86872900  1
  Li  Li10  1  0.88063000  0.73432200  0.13127100  1
  Li  Li11  1  0.22564800  0.12377000  0.47067800  1
  Li  Li12  1  0.24479300  0.65032600  0.00863100  1
  Li  Li13  1  0.64847500  0.86019100  0.90183800  1
  V  V0  1  0.06362500  0.81804800  0.77597000  1
  V  V1  1  0.93637500  0.18195200  0.22403000  1
  O  O0  1  0.92398600  0.20737400  0.42142700  1
  O  O1  1  0.88948300  0.67407700  0.92157100  1
  O  O2  1  0.82170200  0.97879600  0.73561100  1
  O  O3  1  0.74229800  0.41008600  0.19420400  1
  O  O4  1  0.38923500  0.11899800  0.86609200  1
  O  O5  1  0.17829800  0.02120400  0.26438900  1
  O  O6  1  0.25770200  0.58991400  0.80579600  1
  O  O7  1  0.11051700  0.32592300  0.07842900  1
  O  O8  1  0.07601400  0.79262600  0.57857300  1
  O  O9  1  0.61076500  0.88100200  0.13390800  1
  F  F0  1  0.42231000  0.68406000  0.39103200  1
  F  F1  1  0.57769000  0.31594000  0.60896800  1
loop_
_geom_bond_atom_site_label_1
_geom_bond_atom_site_label_2
_geom_bond_distance
_geom_bond_site_symmetry_2
Li0 O2 1.918966 1_555
Li0 O8 1.925119 1_655
Li0 O0 2.203769 1_565
Li1 O4 1.919591 1_555
Li1 O3 1.941346 1_556
Li1 O1 1.971042 1_555
Li1 O7 2.033592 1_656
Li2 O8 1.959669 1_555
Li2 O3 2.032457 1_455
Li2 O0 2.230885 1_455
Li3 O0 1.959669 1_555
Li3 O6 2.032457 1_655
Li3 O8 2.230885 1_655
Li4 O5 1.864479 1_565
Li4 O0 2.067817 1_565
Li4 O9 2.099754 1_555
Li5 O6 1.959487 1_555
Li5 O1 2.066663 1_555
Li5 O4 2.143441 1_555
Li6 O3 2.001346 1_555
Li6 O5 2.024878 1_555
Li6 O7 2.076688 1_555
Li6 O4 2.239321 1_554
Li6 O9 2.534591 1_545
Li7 O2 1.864479 1_545
Li7 O8 2.067817 1_545
Li7 O4 2.099754 1_555
Li8 O3 1.959487 1_555
Li8 O7 2.066663 1_555
Li8 O9 2.143441 1_555
Li9 O2 1.885961 1_445
Li9 O6 1.940363 1_555
Li9 O7 1.996905 1_556
Li9 O4 2.051617 1_555
Li10 O5 1.885961 1_665
Li10 O3 1.940363 1_555
Li10 O1 1.996905 1_554
Li10 O9 2.051617 1_555
Li11 O5 1.918966 1_555
Li11 O0 1.925119 1_455
Li11 O8 2.203769 1_545
Li12 O9 1.919591 1_555
Li12 O6 1.941346 1_554
Li12 O7 1.971042 1_555
Li12 O1 2.033592 1_454
Li13 O6 2.001346 1_555
Li13 O2 2.024878 1_555
Li13 O1 2.076688 1_555
Li13 O9 2.239321 1_556
Li13 O4 2.534591 1_565
O0 V1 1.871490 1_555
O1 V0 1.891059 1_655
O2 V0 1.961086 1_655
O3 V1 2.081178 1_555
O4 V0 1.870848 1_545
O5 V1 1.961086 1_455
O6 V0 2.081178 1_555
O7 V1 1.891059 1_455
O8 V0 1.871490 1_555
O9 V1 1.870848 1_565
F0 Li0 1.879714 1_555
F0 Li8 1.884821 1_555
F0 Li4 1.895655 1_555
F0 Li2 1.970527 1_555
F1 Li11 1.879714 1_555
F1 Li5 1.884821 1_555
F1 Li7 1.895655 1_555
F1 Li3 1.970527 1_555
