# generated using pymatgen
data_Li3MnVP2(O4F)2
_symmetry_space_group_name_H-M   'P 1'
_cell_length_a   5.43624433
_cell_length_b   10.55817939
_cell_length_c   7.44527853
_cell_angle_alpha   107.47129809
_cell_angle_beta   73.03507751
_cell_angle_gamma   83.26355124
_symmetry_Int_Tables_number   1
_chemical_formula_structural   Li3MnVP2(O4F)2
_chemical_formula_sum   'Li6 Mn2 V2 P4 O16 F4'
_cell_volume   379.92314480
_cell_formula_units_Z   2
loop_
 _symmetry_equiv_pos_site_id
 _symmetry_equiv_pos_as_xyz
  1  'x, y, z'
loop_
 _atom_site_type_symbol
 _atom_site_label
 _atom_site_symmetry_multiplicity
 _atom_site_fract_x
 _atom_site_fract_y
 _atom_site_fract_z
 _atom_site_occupancy
  Li  Li0  1  0.59797600  0.86815900  0.84521700  1
  Li  Li1  1  0.59801600  0.36817000  0.84524800  1
  Li  Li2  1  0.04343100  0.25431300  0.48660700  1
  Li  Li3  1  0.04338000  0.75431900  0.48661900  1
  Li  Li4  1  0.41639300  0.12267600  0.13926300  1
  Li  Li5  1  0.41642000  0.62269400  0.13929300  1
  Mn  Mn0  1  0.99132600  0.50566400  0.50219200  1
  Mn  Mn1  1  0.99104400  0.00541500  0.50223600  1
  V  V0  1  0.99968200  0.00007400  0.00090300  1
  V  V1  1  0.99967800  0.50004900  0.00087000  1
  P  P0  1  0.35439300  0.67268300  0.76322500  1
  P  P1  1  0.35438100  0.17270000  0.76321500  1
  P  P2  1  0.64171800  0.32811700  0.24003400  1
  P  P3  1  0.64168900  0.82813000  0.24002500  1
  O  O0  1  0.24127600  0.82113600  0.92324300  1
  O  O1  1  0.24131100  0.32115100  0.92327300  1
  O  O2  1  0.20979400  0.64319400  0.61233300  1
  O  O3  1  0.20981400  0.14317200  0.61228800  1
  O  O4  1  0.64838700  0.67016600  0.66681900  1
  O  O5  1  0.64841700  0.17017100  0.66690600  1
  O  O6  1  0.67000800  0.42981400  0.11965500  1
  O  O7  1  0.66997400  0.92981300  0.11965500  1
  O  O8  1  0.32655600  0.56932000  0.88009400  1
  O  O9  1  0.32655200  0.06931500  0.88008600  1
  O  O10  1  0.34655600  0.33097100  0.33786700  1
  O  O11  1  0.34654000  0.83097600  0.33794500  1
  O  O12  1  0.78921400  0.35881900  0.38893500  1
  O  O13  1  0.78917900  0.85881000  0.38890000  1
  O  O14  1  0.75558600  0.17914600  0.08071200  1
  O  O15  1  0.75560400  0.67917400  0.08075800  1
  F  F0  1  0.08968500  0.57828300  0.25579400  1
  F  F1  1  0.08966600  0.07823800  0.25579000  1
  F  F2  1  0.91712500  0.42417100  0.74287800  1
  F  F3  1  0.91711200  0.92412000  0.74287300  1
loop_
_geom_bond_atom_site_label_1
_geom_bond_atom_site_label_2
_geom_bond_distance
_geom_bond_site_symmetry_2
Li0 O0 2.021328 1_555
Li0 O4 2.048221 1_555
Li0 O7 2.116530 1_556
Li0 O9 2.337832 1_565
Li1 O1 2.021333 1_555
Li1 O5 2.048156 1_555
Li1 O6 2.116296 1_556
Li1 O8 2.337937 1_555
Li2 O3 1.993719 1_555
Li2 O12 2.089665 1_455
Li2 O10 2.093570 1_555
Li3 O2 1.993884 1_555
Li3 O13 2.089761 1_455
Li3 O11 2.093489 1_555
Li4 O14 1.972438 1_555
Li4 O9 2.059423 1_554
Li4 O10 2.165877 1_555
Li4 O7 2.261328 1_545
Li5 O15 1.972439 1_555
Li5 O8 2.059645 1_554
Li5 O11 2.165852 1_555
Li5 O6 2.261406 1_555
Mn0 O2 2.109358 1_655
Mn0 O12 2.115973 1_555
Mn0 O4 2.150149 1_555
Mn0 O10 2.249142 1_655
Mn1 O3 2.111901 1_655
Mn1 O13 2.113491 1_545
Mn1 O5 2.150582 1_555
Mn1 O11 2.248514 1_645
O0 P0 1.574587 1_555
O0 V0 1.986792 1_466
O1 P1 1.574660 1_555
O1 V1 1.986646 1_456
O2 P0 1.529608 1_555
O3 P1 1.529709 1_555
O4 P0 1.542514 1_555
O5 P1 1.542575 1_555
O6 P2 1.586184 1_555
O6 V1 2.079553 1_555
O7 P3 1.586007 1_555
O7 V0 2.079805 1_565
O8 P0 1.582116 1_555
O8 V1 2.066034 1_456
O9 P1 1.582327 1_555
O9 V0 2.065904 1_456
O10 P2 1.549045 1_555
O11 P3 1.549107 1_555
O12 P2 1.530018 1_555
O13 P3 1.529822 1_555
O14 P2 1.577002 1_555
O14 V0 1.991295 1_555
O15 P3 1.576763 1_555
O15 V1 1.991570 1_555
F0 Li5 1.915116 1_555
F0 Li3 2.047220 1_555
F0 V1 2.054128 1_455
F0 Mn0 2.146507 1_455
F1 Li4 1.915270 1_555
F1 Li2 2.047539 1_555
F1 V0 2.053706 1_455
F1 Mn1 2.148270 1_455
F2 Li1 1.918208 1_555
F2 V1 2.048456 1_556
F2 Li2 2.054298 1_655
F2 Mn0 2.167858 1_555
F3 Li0 1.918060 1_555
F3 V0 2.048865 1_566
F3 Li3 2.053900 1_655
F3 Mn1 2.166152 1_565
