# generated using pymatgen
data_SiH10(O2F3)2
_symmetry_space_group_name_H-M   'P 1'
_cell_length_a   9.80075754
_cell_length_b   5.93697961
_cell_length_c   6.44622678
_cell_angle_alpha   75.53119788
_cell_angle_beta   90.00000000
_cell_angle_gamma   90.00000000
_symmetry_Int_Tables_number   1
_chemical_formula_structural   SiH10(O2F3)2
_chemical_formula_sum   'Si2 H20 O8 F12'
_cell_volume   363.18964863
_cell_formula_units_Z   2
loop_
 _symmetry_equiv_pos_site_id
 _symmetry_equiv_pos_as_xyz
  1  'x, y, z'
loop_
 _atom_site_type_symbol
 _atom_site_label
 _atom_site_symmetry_multiplicity
 _atom_site_fract_x
 _atom_site_fract_y
 _atom_site_fract_z
 _atom_site_occupancy
  Si  Si0  1  0.50000000  0.00000000  0.50000000  1
  Si  Si1  1  0.00000000  0.00000000  -0.00000000  1
  H  H0  1  0.62264176  0.78699529  0.91352972  1
  H  H1  1  0.12264176  0.21300471  0.58647028  1
  H  H2  1  0.37735824  0.21300471  0.08647028  1
  H  H3  1  0.87735824  0.78699529  0.41352972  1
  H  H4  1  0.61787293  0.82811946  0.15032561  1
  H  H5  1  0.11787293  0.17188054  0.34967439  1
  H  H6  1  0.38212707  0.17188054  0.84967439  1
  H  H7  1  0.88212707  0.82811946  0.65032561  1
  H  H8  1  0.69418592  0.56711531  0.12839152  1
  H  H9  1  0.19418592  0.43288469  0.37160848  1
  H  H10  1  0.30581408  0.43288469  0.87160848  1
  H  H11  1  0.80581408  0.56711531  0.62839152  1
  H  H12  1  0.72506266  0.25658688  0.23733560  1
  H  H13  1  0.22506266  0.74341312  0.26266440  1
  H  H14  1  0.27493734  0.74341312  0.76266440  1
  H  H15  1  0.77493734  0.25658688  0.73733560  1
  H  H16  1  0.85652281  0.38987713  0.12973659  1
  H  H17  1  0.35652281  0.61012287  0.37026341  1
  H  H18  1  0.14347719  0.61012287  0.87026341  1
  H  H19  1  0.64347719  0.38987713  0.62973659  1
  O  O0  1  0.61420249  0.70907443  0.06779960  1
  O  O1  1  0.11420249  0.29092557  0.43220040  1
  O  O2  1  0.38579751  0.29092557  0.93220040  1
  O  O3  1  0.88579751  0.70907443  0.56779960  1
  O  O4  1  0.77487049  0.40394223  0.21384483  1
  O  O5  1  0.27487049  0.59605777  0.28615517  1
  O  O6  1  0.22512951  0.59605777  0.78615517  1
  O  O7  1  0.72512951  0.40394223  0.71384483  1
  F  F0  1  0.63393707  0.93640637  0.67173138  1
  F  F1  1  0.13393707  0.06359363  0.82826862  1
  F  F2  1  0.36606293  0.06359363  0.32826862  1
  F  F3  1  0.86606293  0.93640637  0.17173138  1
  F  F4  1  0.48087161  0.71620827  0.51151938  1
  F  F5  1  0.98087161  0.28379173  -0.01151938  1
  F  F6  1  0.51912839  0.28379173  0.48848062  1
  F  F7  1  0.01912839  0.71620827  0.01151938  1
  F  F8  1  0.39069633  0.97165454  0.71308128  1
  F  F9  1  0.89069633  0.02834546  0.78691872  1
  F  F10  1  0.60930367  0.02834546  0.28691872  1
  F  F11  1  0.10930367  0.97165454  0.21308128  1
loop_
_geom_bond_atom_site_label_1
_geom_bond_atom_site_label_2
_geom_bond_distance
_geom_bond_site_symmetry_2
H0 O0 0.989905 1_556
H1 O1 0.989905 1_555
H2 O2 0.989905 1_554
H3 O3 0.989905 1_555
H4 O0 0.985750 1_555
H5 O1 0.985750 1_555
H6 O2 0.985750 1_555
H7 O3 0.985750 1_555
H8 O0 1.145811 1_555
H8 O4 1.265140 1_555
H9 O1 1.145811 1_555
H9 O5 1.265140 1_555
H10 O2 1.145811 1_555
H10 O6 1.265140 1_555
H11 O3 1.145811 1_555
H11 O7 1.265140 1_555
H12 O4 0.979990 1_555
H13 O5 0.979990 1_555
H14 O6 0.979990 1_555
H15 O7 0.979990 1_555
H16 O4 0.981817 1_555
H17 O5 0.981817 1_555
H18 O6 0.981817 1_555
H19 O7 0.981817 1_555
F0 H0 1.593019 1_555
F0 Si0 1.697741 1_565
F1 H1 1.593019 1_555
F1 Si1 1.697741 1_556
F2 H2 1.593019 1_555
F2 Si0 1.697741 1_555
F3 H3 1.593019 1_555
F3 Si1 1.697741 1_665
F4 Si0 1.678366 1_565
F5 Si1 1.678366 1_655
F6 Si0 1.678366 1_555
F7 Si1 1.678366 1_565
F8 Si0 1.716713 1_565
F9 Si1 1.716713 1_656
F10 Si0 1.716713 1_555
F11 Si1 1.716713 1_565
