# generated using pymatgen
data_Cs3HoO3
_symmetry_space_group_name_H-M   'P 1'
_cell_length_a   7.48778485
_cell_length_b   7.48778485
_cell_length_c   7.61765008
_cell_angle_alpha   84.07632078
_cell_angle_beta   84.07632078
_cell_angle_gamma   116.21402440
_symmetry_Int_Tables_number   1
_chemical_formula_structural   Cs3HoO3
_chemical_formula_sum   'Cs6 Ho2 O6'
_cell_volume   375.78986706
_cell_formula_units_Z   2
loop_
 _symmetry_equiv_pos_site_id
 _symmetry_equiv_pos_as_xyz
  1  'x, y, z'
loop_
 _atom_site_type_symbol
 _atom_site_label
 _atom_site_symmetry_multiplicity
 _atom_site_fract_x
 _atom_site_fract_y
 _atom_site_fract_z
 _atom_site_occupancy
  Cs  Cs0  1  0.64374480  0.64374480  0.64761913  1
  Cs  Cs1  1  0.78963911  0.21036089  0.50000000  1
  Cs  Cs2  1  0.21036089  0.78963911  0.50000000  1
  Cs  Cs3  1  0.73685000  0.26315000  0.00000000  1
  Cs  Cs4  1  0.26315000  0.73685000  0.00000000  1
  Cs  Cs5  1  0.35625520  0.35625520  0.35238087  1
  Ho  Ho0  1  0.82887485  0.82887485  0.15155319  1
  Ho  Ho1  1  0.17112515  0.17112515  0.84844681  1
  O  O0  1  0.89578729  0.89578729  0.86092617  1
  O  O1  1  0.83754952  0.56632744  0.26754009  1
  O  O2  1  0.56632744  0.83754952  0.26754009  1
  O  O3  1  0.43367256  0.16245048  0.73245991  1
  O  O4  1  0.16245048  0.43367256  0.73245991  1
  O  O5  1  0.10421271  0.10421271  0.13907383  1
loop_
_geom_bond_atom_site_label_1
_geom_bond_atom_site_label_2
_geom_bond_distance
_geom_bond_site_symmetry_2
Cs0 O0 2.807669 1_555
Cs0 O4 3.190751 1_555
Cs0 O3 3.190751 1_555
Cs0 O2 3.323718 1_555
Cs0 O1 3.323718 1_555
Cs1 O1 2.901499 1_555
Cs1 O3 2.901499 1_555
Cs1 O2 3.351430 1_545
Cs1 O4 3.351430 1_655
Cs2 O2 2.901499 1_555
Cs2 O4 2.901499 1_555
Cs2 O1 3.351430 1_455
Cs2 O3 3.351430 1_565
Cs3 O1 3.104111 1_555
Cs3 O3 3.104111 1_554
Cs3 O4 3.235292 1_654
Cs3 O2 3.235292 1_545
Cs4 O4 3.104111 1_554
Cs4 O2 3.104111 1_555
Cs4 O1 3.235292 1_455
Cs4 O3 3.235292 1_564
Cs5 O5 2.807669 1_555
Cs5 O2 3.190751 1_555
Cs5 O1 3.190751 1_555
Cs5 O4 3.323718 1_555
Cs5 O3 3.323718 1_555
Ho0 O1 2.101373 1_555
Ho0 O2 2.101373 1_555
Ho0 O5 2.161945 1_665
Ho0 O0 2.173411 1_554
Ho1 O3 2.101373 1_555
Ho1 O4 2.101373 1_555
Ho1 O0 2.161945 1_445
Ho1 O5 2.173411 1_556
