# generated using pymatgen
data_Ca6Si6O19
_symmetry_space_group_name_H-M   'P 1'
_cell_length_a   7.08056200
_cell_length_b   7.43247663
_cell_length_c   8.88818125
_cell_angle_alpha   101.99037414
_cell_angle_beta   89.99448842
_cell_angle_gamma   90.40385410
_symmetry_Int_Tables_number   1
_chemical_formula_structural   Ca6Si6O19
_chemical_formula_sum   'Ca6 Si6 O19'
_cell_volume   457.53346798
_cell_formula_units_Z   1
loop_
 _symmetry_equiv_pos_site_id
 _symmetry_equiv_pos_as_xyz
  1  'x, y, z'
loop_
 _atom_site_type_symbol
 _atom_site_label
 _atom_site_symmetry_multiplicity
 _atom_site_fract_x
 _atom_site_fract_y
 _atom_site_fract_z
 _atom_site_occupancy
  Ca  Ca0  1  0.00000000  0.50000000  0.50000000  1
  Ca  Ca1  1  0.00000000  0.00000000  0.50000000  1
  Ca  Ca2  1  0.83838000  0.84315400  0.86848200  1
  Ca  Ca3  1  0.16162000  0.15684600  0.13151800  1
  Ca  Ca4  1  0.83612800  0.34411100  0.86902400  1
  Ca  Ca5  1  0.16387200  0.65588900  0.13097600  1
  Si  Si0  1  0.26482900  0.78539100  0.79148100  1
  Si  Si1  1  0.73517100  0.21460900  0.20851900  1
  Si  Si2  1  0.26744800  0.36355700  0.78756200  1
  Si  Si3  1  0.73255200  0.63644300  0.21243800  1
  Si  Si4  1  0.55266100  0.04880000  0.68131300  1
  Si  Si5  1  0.44733900  0.95120000  0.31868700  1
  O  O0  1  0.50000000  0.00000000  0.50000000  1
  O  O1  1  0.33880000  0.57704400  0.79567200  1
  O  O2  1  0.66120000  0.42295600  0.20432800  1
  O  O3  1  0.12036500  0.29034700  0.64819000  1
  O  O4  1  0.87963500  0.70965300  0.35181000  1
  O  O5  1  0.11236300  0.78801500  0.65540900  1
  O  O6  1  0.88763700  0.21198500  0.34459100  1
  O  O7  1  0.46622700  0.89416500  0.77058100  1
  O  O8  1  0.53377300  0.10583500  0.22941900  1
  O  O9  1  0.47172700  0.25057100  0.76819600  1
  O  O10  1  0.52827300  0.74942900  0.23180400  1
  O  O11  1  0.16466000  0.35785000  0.95163100  1
  O  O12  1  0.83534000  0.64215000  0.04836900  1
  O  O13  1  0.16696400  0.86943000  0.95717900  1
  O  O14  1  0.83303600  0.13057000  0.04282100  1
  O  O15  1  0.77820600  0.05489000  0.70488500  1
  O  O16  1  0.22179400  0.94511000  0.29511500  1
  O  O17  1  0.80033900  0.55288400  0.70959700  1
  O  O18  1  0.19966100  0.44711600  0.29040300  1
loop_
_geom_bond_atom_site_label_1
_geom_bond_atom_site_label_2
_geom_bond_distance
_geom_bond_site_symmetry_2
Ca0 O17 2.307963 1_455
Ca0 O18 2.307963 1_555
Ca0 O4 2.400211 1_455
Ca0 O3 2.400211 1_555
Ca0 O5 2.423022 1_555
Ca0 O6 2.423022 1_455
Ca1 O15 2.376703 1_455
Ca1 O16 2.376703 1_545
Ca1 O3 2.431345 1_555
Ca1 O4 2.431345 1_445
Ca1 O6 2.438348 1_455
Ca1 O5 2.438348 1_545
Ca2 O17 2.333951 1_555
Ca2 O14 2.364683 1_566
Ca2 O15 2.394335 1_565
Ca2 O12 2.404321 1_556
Ca2 O13 2.450000 1_655
Ca2 O5 2.684398 1_655
Ca2 O7 2.827725 1_555
Ca3 O18 2.333951 1_555
Ca3 O13 2.364683 1_544
Ca3 O16 2.394335 1_545
Ca3 O11 2.404321 1_554
Ca3 O14 2.450000 1_455
Ca3 O6 2.684398 1_455
Ca3 O8 2.827725 1_555
Ca4 O17 2.323600 1_555
Ca4 O15 2.366884 1_555
Ca4 O14 2.433903 1_556
Ca4 O11 2.434442 1_655
Ca4 O12 2.445613 1_556
Ca4 O9 2.767673 1_555
Ca4 O3 2.783413 1_655
Ca5 O18 2.323600 1_555
Ca5 O16 2.366884 1_555
Ca5 O13 2.433903 1_554
Ca5 O12 2.434442 1_455
Ca5 O11 2.445613 1_554
Ca5 O10 2.767673 1_555
Ca5 O4 2.783413 1_455
O0 Si4 1.619569 1_555
O0 Si5 1.619569 1_545
O1 Si0 1.645926 1_555
O1 Si2 1.649046 1_555
O2 Si1 1.645926 1_555
O2 Si3 1.649046 1_555
O3 Si2 1.620922 1_555
O4 Si3 1.620922 1_555
O5 Si0 1.624461 1_555
O6 Si1 1.624461 1_555
O7 Si4 1.641310 1_565
O7 Si0 1.663647 1_555
O8 Si5 1.641310 1_545
O8 Si1 1.663647 1_555
O9 Si4 1.644556 1_555
O9 Si2 1.668518 1_555
O10 Si5 1.644556 1_555
O10 Si3 1.668518 1_555
O11 Si2 1.638022 1_555
O12 Si3 1.638022 1_555
O13 Si0 1.631871 1_555
O14 Si1 1.631871 1_555
O15 Si4 1.609786 1_555
O16 Si5 1.609786 1_555
