# generated using pymatgen
data_LiMnSiO4
_symmetry_space_group_name_H-M   'P 1'
_cell_length_a   5.55631200
_cell_length_b   8.15525800
_cell_length_c   19.07208600
_cell_angle_alpha   90.00000000
_cell_angle_beta   90.00000000
_cell_angle_gamma   90.00000000
_symmetry_Int_Tables_number   1
_chemical_formula_structural   LiMnSiO4
_chemical_formula_sum   'Li12 Mn12 Si12 O48'
_cell_volume   864.21644418
_cell_formula_units_Z   12
loop_
 _symmetry_equiv_pos_site_id
 _symmetry_equiv_pos_as_xyz
  1  'x, y, z'
loop_
 _atom_site_type_symbol
 _atom_site_label
 _atom_site_symmetry_multiplicity
 _atom_site_fract_x
 _atom_site_fract_y
 _atom_site_fract_z
 _atom_site_occupancy
  Li  Li0  1  0.03668500  0.56259300  0.08318700  1
  Li  Li1  1  0.48301100  0.07341100  0.08394500  1
  Li  Li2  1  0.99802500  0.93015000  0.25022900  1
  Li  Li3  1  0.49802500  0.43015000  0.24977100  1
  Li  Li4  1  0.98301100  0.57341100  0.41605500  1
  Li  Li5  1  0.53668500  0.06259300  0.41681300  1
  Li  Li6  1  0.03668500  0.93740700  0.58318700  1
  Li  Li7  1  0.48301100  0.42658900  0.58394500  1
  Li  Li8  1  0.99802500  0.56985000  0.75022900  1
  Li  Li9  1  0.49802500  0.06985000  0.74977100  1
  Li  Li10  1  0.98301100  0.92658900  0.91605500  1
  Li  Li11  1  0.53668500  0.43740700  0.91681300  1
  Mn  Mn0  1  0.98516700  0.24807800  0.99912600  1
  Mn  Mn1  1  0.48516700  0.75192200  0.00087400  1
  Mn  Mn2  1  0.50981900  0.75071000  0.16696500  1
  Mn  Mn3  1  0.02236500  0.24847000  0.16687500  1
  Mn  Mn4  1  0.52236500  0.74847000  0.33312500  1
  Mn  Mn5  1  0.00981900  0.25071000  0.33303500  1
  Mn  Mn6  1  0.98516700  0.25192200  0.49912600  1
  Mn  Mn7  1  0.48516700  0.74807800  0.50087400  1
  Mn  Mn8  1  0.50981900  0.74929000  0.66696500  1
  Mn  Mn9  1  0.02236500  0.25153000  0.66687500  1
  Mn  Mn10  1  0.52236500  0.75153000  0.83312500  1
  Mn  Mn11  1  0.00981900  0.24929000  0.83303500  1
  Si  Si0  1  0.98504600  0.90318300  0.08287700  1
  Si  Si1  1  0.51106900  0.40450300  0.08332400  1
  Si  Si2  1  0.02211900  0.59612600  0.24964900  1
  Si  Si3  1  0.52211900  0.09612600  0.25035100  1
  Si  Si4  1  0.01106900  0.90450300  0.41667600  1
  Si  Si5  1  0.48504600  0.40318300  0.41712300  1
  Si  Si6  1  0.98504600  0.59681700  0.58287700  1
  Si  Si7  1  0.51106900  0.09549700  0.58332400  1
  Si  Si8  1  0.02211900  0.90387400  0.74964900  1
  Si  Si9  1  0.52211900  0.40387400  0.75035100  1
  Si  Si10  1  0.01106900  0.59549700  0.91667600  1
  Si  Si11  1  0.48504600  0.09681700  0.91712300  1
  O  O0  1  0.48091600  0.98394000  0.98802200  1
  O  O1  1  0.98091600  0.01606000  0.01197800  1
  O  O2  1  0.49695000  0.51883700  0.01285800  1
  O  O3  1  0.74873400  0.28015000  0.08039400  1
  O  O4  1  0.27315300  0.27954200  0.08660400  1
  O  O5  1  0.21120700  0.77258900  0.08301300  1
  O  O6  1  0.73207600  0.78778000  0.08296300  1
  O  O7  1  0.00740700  0.01703400  0.15341900  1
  O  O8  1  0.52004000  0.51828600  0.15392400  1
  O  O9  1  0.02310800  0.48059000  0.17951500  1
  O  O10  1  0.50934600  0.98351900  0.17953900  1
  O  O11  1  0.29605700  0.22641400  0.25126700  1
  O  O12  1  0.77369900  0.21366400  0.24982700  1
  O  O13  1  0.79605700  0.72641400  0.24873300  1
  O  O14  1  0.27369900  0.71366400  0.25017300  1
  O  O15  1  0.00934600  0.48351900  0.32046100  1
  O  O16  1  0.52310800  0.98059000  0.32048500  1
  O  O17  1  0.02004000  0.01828600  0.34607600  1
  O  O18  1  0.50740700  0.51703400  0.34658100  1
  O  O19  1  0.23207600  0.28778000  0.41703700  1
  O  O20  1  0.71120700  0.27258900  0.41698700  1
  O  O21  1  0.77315300  0.77954200  0.41339600  1
  O  O22  1  0.24873400  0.78015000  0.41960600  1
  O  O23  1  0.99695000  0.01883700  0.48714200  1
  O  O24  1  0.48091600  0.51606000  0.48802200  1
  O  O25  1  0.98091600  0.48394000  0.51197800  1
  O  O26  1  0.49695000  0.98116300  0.51285800  1
  O  O27  1  0.74873400  0.21985000  0.58039400  1
  O  O28  1  0.27315300  0.22045800  0.58660400  1
  O  O29  1  0.21120700  0.72741100  0.58301300  1
  O  O30  1  0.73207600  0.71222000  0.58296300  1
  O  O31  1  0.00740700  0.48296600  0.65341900  1
  O  O32  1  0.52004000  0.98171400  0.65392400  1
  O  O33  1  0.02310800  0.01941000  0.67951500  1
  O  O34  1  0.50934600  0.51648100  0.67953900  1
  O  O35  1  0.77369900  0.28633600  0.74982700  1
  O  O36  1  0.29605700  0.27358600  0.75126700  1
  O  O37  1  0.27369900  0.78633600  0.75017300  1
  O  O38  1  0.79605700  0.77358600  0.74873300  1
  O  O39  1  0.00934600  0.01648100  0.82046100  1
  O  O40  1  0.52310800  0.51941000  0.82048500  1
  O  O41  1  0.02004000  0.48171400  0.84607600  1
  O  O42  1  0.50740700  0.98296600  0.84658100  1
  O  O43  1  0.23207600  0.21222000  0.91703700  1
  O  O44  1  0.71120700  0.22741100  0.91698700  1
  O  O45  1  0.77315300  0.72045800  0.91339600  1
  O  O46  1  0.24873400  0.71985000  0.91960600  1
  O  O47  1  0.99695000  0.48116300  0.98714200  1
loop_
_geom_bond_atom_site_label_1
_geom_bond_atom_site_label_2
_geom_bond_distance
_geom_bond_site_symmetry_2
Li0 O9 1.956563 1_555
Li0 O47 1.960908 1_454
Li0 O5 1.968052 1_555
Li0 O6 2.497431 1_455
Li1 O0 1.969627 1_544
Li1 O10 1.970485 1_545
Li1 O4 2.046496 1_555
Li1 O3 2.242117 1_555
Li2 O17 1.968042 1_665
Li2 O7 1.978346 1_665
Li2 O13 2.005190 1_555
Li2 O14 2.337346 1_655
Li3 O8 1.968042 1_555
Li3 O18 1.978346 1_555
Li3 O11 2.005190 1_555
Li3 O12 2.337346 1_555
Li4 O25 1.969627 1_555
Li4 O15 1.970485 1_655
Li4 O21 2.046496 1_555
Li4 O22 2.242117 1_655
Li5 O16 1.956563 1_545
Li5 O26 1.960908 1_545
Li5 O20 1.968052 1_555
Li5 O19 2.497431 1_555
Li6 O33 1.956563 1_565
Li6 O23 1.960908 1_465
Li6 O29 1.968052 1_555
Li6 O30 2.497431 1_455
Li7 O24 1.969627 1_555
Li7 O34 1.970485 1_555
Li7 O28 2.046496 1_555
Li7 O27 2.242117 1_555
Li8 O41 1.968042 1_655
Li8 O31 1.978346 1_655
Li8 O38 2.005190 1_555
Li8 O37 2.337346 1_655
Li9 O32 1.968042 1_545
Li9 O42 1.978346 1_545
Li9 O36 2.005190 1_555
Li9 O35 2.337346 1_555
Li10 O1 1.969627 1_566
Li10 O39 1.970485 1_665
Li10 O45 2.046496 1_555
Li10 O46 2.242117 1_655
Li11 O40 1.956563 1_555
Li11 O2 1.960908 1_556
Li11 O44 1.968052 1_555
Li11 O43 2.497431 1_555
Mn0 O1 1.908123 1_556
Mn0 O47 1.915679 1_555
Mn0 O3 2.048549 1_556
Mn0 O43 2.102086 1_655
Mn0 O44 2.190808 1_555
Mn0 O4 2.325900 1_656
Mn1 O0 1.908123 1_554
Mn1 O2 1.915679 1_555
Mn1 O46 2.048549 1_554
Mn1 O6 2.102086 1_555
Mn1 O5 2.190808 1_555
Mn1 O45 2.325900 1_554
Mn2 O8 1.912569 1_555
Mn2 O10 1.913705 1_555
Mn2 O6 2.045275 1_555
Mn2 O14 2.081085 1_555
Mn2 O13 2.236228 1_555
Mn2 O5 2.312654 1_555
Mn3 O7 1.906600 1_555
Mn3 O9 1.908291 1_555
Mn3 O4 2.085592 1_555
Mn3 O12 2.119554 1_455
Mn3 O11 2.221605 1_555
Mn3 O3 2.258038 1_455
Mn4 O18 1.906600 1_555
Mn4 O16 1.908291 1_555
Mn4 O21 2.085592 1_555
Mn4 O14 2.119554 1_555
Mn4 O13 2.221605 1_555
Mn4 O22 2.258038 1_555
Mn5 O17 1.912569 1_555
Mn5 O15 1.913705 1_555
Mn5 O19 2.045275 1_555
Mn5 O12 2.081085 1_455
Mn5 O11 2.236228 1_555
Mn5 O20 2.312654 1_455
Mn6 O25 1.908123 1_555
Mn6 O23 1.915679 1_555
Mn6 O27 2.048549 1_555
Mn6 O19 2.102086 1_655
Mn6 O20 2.190808 1_555
Mn6 O28 2.325900 1_655
Mn7 O24 1.908123 1_555
Mn7 O26 1.915679 1_555
Mn7 O22 2.048549 1_555
Mn7 O30 2.102086 1_555
Mn7 O29 2.190808 1_555
Mn7 O21 2.325900 1_555
Mn8 O32 1.912569 1_555
Mn8 O34 1.913705 1_555
Mn8 O30 2.045275 1_555
Mn8 O37 2.081085 1_555
Mn8 O38 2.236228 1_555
Mn8 O29 2.312654 1_555
Mn9 O31 1.906600 1_555
Mn9 O33 1.908291 1_555
Mn9 O28 2.085592 1_555
Mn9 O35 2.119554 1_455
Mn9 O36 2.221605 1_555
Mn9 O27 2.258038 1_455
Mn10 O42 1.906600 1_555
Mn10 O40 1.908291 1_555
Mn10 O45 2.085592 1_555
Mn10 O37 2.119554 1_555
Mn10 O38 2.221605 1_555
Mn10 O46 2.258038 1_555
Mn11 O41 1.912569 1_555
Mn11 O39 1.913705 1_555
Mn11 O43 2.045275 1_555
Mn11 O35 2.081085 1_455
Mn11 O36 2.236228 1_555
Mn11 O44 2.312654 1_455
O0 Si11 1.635954 1_565
O1 Si0 1.635954 1_545
O2 Si1 1.637597 1_555
O3 Si1 1.665957 1_555
O4 Si1 1.670320 1_555
O5 Si0 1.647236 1_455
O6 Si0 1.691569 1_555
O7 Si0 1.639383 1_445
O8 Si1 1.636023 1_555
O9 Si2 1.636153 1_555
O10 Si3 1.634724 1_565
O11 Si3 1.645295 1_555
O12 Si3 1.694971 1_555
O13 Si2 1.645295 1_655
O14 Si2 1.694971 1_555
O15 Si2 1.634724 1_555
O16 Si3 1.636153 1_565
O17 Si4 1.636023 1_545
O18 Si5 1.639383 1_555
O19 Si5 1.691569 1_555
O20 Si5 1.647236 1_555
O21 Si4 1.670320 1_655
O22 Si4 1.665957 1_555
O23 Si4 1.637597 1_645
O24 Si5 1.635954 1_555
O25 Si6 1.635954 1_555
O26 Si7 1.637597 1_565
O27 Si7 1.665957 1_555
O28 Si7 1.670320 1_555
O29 Si6 1.647236 1_455
O30 Si6 1.691569 1_555
O31 Si6 1.639383 1_455
O32 Si7 1.636023 1_565
O33 Si8 1.636153 1_545
O34 Si9 1.634724 1_555
O35 Si9 1.694971 1_555
O36 Si9 1.645295 1_555
O37 Si8 1.694971 1_555
O38 Si8 1.645295 1_655
O39 Si8 1.634724 1_545
O40 Si9 1.636153 1_555
O41 Si10 1.636023 1_555
O42 Si11 1.639383 1_565
O43 Si11 1.691569 1_555
O44 Si11 1.647236 1_555
O45 Si10 1.670320 1_655
O46 Si10 1.665957 1_555
O47 Si10 1.637597 1_655
