# generated using pymatgen
data_NaB5(H2O5)2
_symmetry_space_group_name_H-M   'P 1'
_cell_length_a   8.18790100
_cell_length_b   8.77510800
_cell_length_c   13.09771070
_cell_angle_alpha   73.46520342
_cell_angle_beta   90.00000000
_cell_angle_gamma   90.00000000
_symmetry_Int_Tables_number   1
_chemical_formula_structural   NaB5(H2O5)2
_chemical_formula_sum   'Na4 B20 H16 O40'
_cell_volume   902.15092035
_cell_formula_units_Z   4
loop_
 _symmetry_equiv_pos_site_id
 _symmetry_equiv_pos_as_xyz
  1  'x, y, z'
loop_
 _atom_site_type_symbol
 _atom_site_label
 _atom_site_symmetry_multiplicity
 _atom_site_fract_x
 _atom_site_fract_y
 _atom_site_fract_z
 _atom_site_occupancy
  Na  Na0  1  0.26077000  0.92137800  0.73602100  1
  Na  Na1  1  0.76077000  0.07862200  0.76397900  1
  Na  Na2  1  0.73923000  0.07862200  0.26397900  1
  Na  Na3  1  0.23923000  0.92137800  0.23602100  1
  B  B0  1  0.90659200  0.72120700  0.81071900  1
  B  B1  1  0.40659200  0.27879300  0.68928100  1
  B  B2  1  0.09340800  0.27879300  0.18928100  1
  B  B3  1  0.59340800  0.72120700  0.31071900  1
  B  B4  1  0.68588200  0.54866000  0.89489100  1
  B  B5  1  0.18588200  0.45134000  0.60510900  1
  B  B6  1  0.31411800  0.45134000  0.10510900  1
  B  B7  1  0.81411800  0.54866000  0.39489100  1
  B  B8  1  0.77969100  0.76485000  0.97022800  1
  B  B9  1  0.27969100  0.23515000  0.52977200  1
  B  B10  1  0.22030900  0.23515000  0.02977200  1
  B  B11  1  0.72030900  0.76485000  0.47022800  1
  B  B12  1  0.93816900  0.77057100  0.13058600  1
  B  B13  1  0.43816900  0.22942900  0.36941400  1
  B  B14  1  0.06183100  0.22942900  0.86941400  1
  B  B15  1  0.56183100  0.77057100  0.63058600  1
  B  B16  1  0.72295200  0.96161200  0.07082400  1
  B  B17  1  0.22295200  0.03838800  0.42917600  1
  B  B18  1  0.27704800  0.03838800  0.92917600  1
  B  B19  1  0.77704800  0.96161200  0.57082400  1
  H  H0  1  0.10628000  0.61556200  0.20329600  1
  H  H1  1  0.60628000  0.38443800  0.29670400  1
  H  H2  1  0.89372000  0.38443800  0.79670400  1
  H  H3  1  0.39372000  0.61556200  0.70329600  1
  H  H4  1  0.52963300  0.10411600  0.05726300  1
  H  H5  1  0.02963300  0.89588400  0.44273700  1
  H  H6  1  0.47036700  0.89588400  0.94273700  1
  H  H7  1  0.97036700  0.10411600  0.55726300  1
  H  H8  1  0.04709700  0.68321000  0.69441600  1
  H  H9  1  0.54709700  0.31679000  0.80558400  1
  H  H10  1  0.95290300  0.31679000  0.30558400  1
  H  H11  1  0.45290300  0.68321000  0.19441600  1
  H  H12  1  0.49524900  0.40321100  0.94763700  1
  H  H13  1  0.99524900  0.59678900  0.55236300  1
  H  H14  1  0.50475100  0.59678900  0.05236300  1
  H  H15  1  0.00475100  0.40321100  0.44763700  1
  O  O0  1  0.81694900  0.58039400  0.82315700  1
  O  O1  1  0.31694900  0.41960600  0.67684300  1
  O  O2  1  0.18305100  0.41960600  0.17684300  1
  O  O3  1  0.68305100  0.58039400  0.32315700  1
  O  O4  1  0.66067200  0.63908600  0.96333500  1
  O  O5  1  0.16067200  0.36091400  0.53666500  1
  O  O6  1  0.33932800  0.36091400  0.03666500  1
  O  O7  1  0.83932800  0.63908600  0.46333500  1
  O  O8  1  0.86721800  0.82442300  0.86775800  1
  O  O9  1  0.36721800  0.17557700  0.63224200  1
  O  O10  1  0.13278200  0.17557700  0.13224200  1
  O  O11  1  0.63278200  0.82442300  0.36775800  1
  O  O12  1  0.68569300  0.90044900  0.98803000  1
  O  O13  1  0.18569300  0.09955100  0.51197000  1
  O  O14  1  0.31430700  0.09955100  0.01197000  1
  O  O15  1  0.81430700  0.90044900  0.48803000  1
  O  O16  1  0.89767500  0.69874700  0.05538800  1
  O  O17  1  0.39767500  0.30125300  0.44461200  1
  O  O18  1  0.10232500  0.30125300  0.94461200  1
  O  O19  1  0.60232500  0.69874700  0.55538800  1
  O  O20  1  0.85226800  0.90373100  0.14027300  1
  O  O21  1  0.35226800  0.09626900  0.35972700  1
  O  O22  1  0.14773200  0.09626900  0.85972700  1
  O  O23  1  0.64773200  0.90373100  0.64027300  1
  O  O24  1  0.06412400  0.72074300  0.20274500  1
  O  O25  1  0.56412400  0.27925700  0.29725500  1
  O  O26  1  0.93587600  0.27925700  0.79725500  1
  O  O27  1  0.43587600  0.72074300  0.70274500  1
  O  O28  1  0.63628200  0.08151500  0.09351600  1
  O  O29  1  0.13628200  0.91848500  0.40648400  1
  O  O30  1  0.36371800  0.91848500  0.90648400  1
  O  O31  1  0.86371800  0.08151500  0.59351600  1
  O  O32  1  0.03123300  0.75845300  0.73804100  1
  O  O33  1  0.53123300  0.24154700  0.76195900  1
  O  O34  1  0.96876700  0.24154700  0.26195900  1
  O  O35  1  0.46876700  0.75845300  0.23804100  1
  O  O36  1  0.58546600  0.42381900  0.89369600  1
  O  O37  1  0.08546600  0.57618100  0.60630400  1
  O  O38  1  0.41453400  0.57618100  0.10630400  1
  O  O39  1  0.91453400  0.42381900  0.39369600  1
loop_
_geom_bond_atom_site_label_1
_geom_bond_atom_site_label_2
_geom_bond_distance
_geom_bond_site_symmetry_2
Na0 O32 2.356992 1_555
Na0 O30 2.379863 1_555
Na0 O27 2.404590 1_555
Na0 O9 2.420154 1_565
Na0 O22 2.693050 1_565
Na0 O13 2.970260 1_565
Na1 O33 2.356992 1_555
Na1 O31 2.379863 1_555
Na1 O26 2.404590 1_555
Na1 O8 2.420154 1_545
Na1 O23 2.693050 1_545
Na1 O12 2.970260 1_545
Na2 O34 2.356992 1_555
Na2 O28 2.379863 1_555
Na2 O25 2.404590 1_555
Na2 O11 2.420154 1_545
Na2 O20 2.693050 1_545
Na2 O15 2.970260 1_545
Na3 O35 2.356992 1_555
Na3 O29 2.379863 1_555
Na3 O24 2.404590 1_555
Na3 O10 2.420154 1_565
Na3 O21 2.693050 1_565
Na3 O14 2.970260 1_565
B0 O8 1.366588 1_555
B0 O32 1.370181 1_655
B0 O0 1.406246 1_555
B1 O9 1.366588 1_555
B1 O33 1.370181 1_555
B1 O1 1.406246 1_555
B2 O10 1.366588 1_555
B2 O34 1.370181 1_455
B2 O2 1.406246 1_555
B3 O11 1.366588 1_555
B3 O35 1.370181 1_555
B3 O3 1.406246 1_555
B4 O4 1.371414 1_555
B4 O36 1.373360 1_555
B4 O0 1.401092 1_555
B5 O5 1.371414 1_555
B5 O37 1.373360 1_555
B5 O1 1.401092 1_555
B6 O6 1.371414 1_555
B6 O38 1.373360 1_555
B6 O2 1.401092 1_555
B7 O7 1.371414 1_555
B7 O39 1.373360 1_555
B7 O3 1.401092 1_555
B8 O16 1.464772 1_556
B8 O8 1.479467 1_555
B8 O12 1.490132 1_555
B8 O4 1.494142 1_555
B9 O17 1.464772 1_555
B9 O9 1.479467 1_555
B9 O13 1.490132 1_555
B9 O5 1.494142 1_555
B10 O18 1.464772 1_554
B10 O10 1.479467 1_555
B10 O14 1.490132 1_555
B10 O6 1.494142 1_555
B11 O19 1.464772 1_555
B11 O11 1.479467 1_555
B11 O15 1.490132 1_555
B11 O7 1.494142 1_555
B12 O16 1.352985 1_555
B12 O24 1.383042 1_655
B12 O20 1.400200 1_555
B13 O17 1.352985 1_555
B13 O25 1.383042 1_555
B13 O21 1.400200 1_555
B14 O18 1.352985 1_555
B14 O26 1.383042 1_455
B14 O22 1.400200 1_555
B15 O19 1.352985 1_555
B15 O27 1.383042 1_555
B15 O23 1.400200 1_555
B16 O28 1.370027 1_565
B16 O12 1.374176 1_554
B16 O20 1.394105 1_555
B17 O29 1.370027 1_545
B17 O13 1.374176 1_555
B17 O21 1.394105 1_555
B18 O30 1.370027 1_545
B18 O14 1.374176 1_556
B18 O22 1.394105 1_555
B19 O31 1.370027 1_565
B19 O15 1.374176 1_555
B19 O23 1.394105 1_555
H0 O24 0.983506 1_555
H1 O25 0.983506 1_555
H2 O26 0.983506 1_555
H3 O27 0.983506 1_555
H4 O28 0.986777 1_555
H5 O29 0.986777 1_555
H6 O30 0.986777 1_555
H7 O31 0.986777 1_555
H8 O32 0.997018 1_555
H9 O33 0.997018 1_555
H10 O34 0.997018 1_555
H11 O35 0.997018 1_555
H12 O36 1.002391 1_555
H12 O6 1.697349 1_556
H13 O37 1.002391 1_655
H13 O7 1.697349 1_555
H14 O38 1.002391 1_555
H14 O4 1.697349 1_554
H15 O39 1.002391 1_455
H15 O5 1.697349 1_555
