# generated using pymatgen
data_K2Co3P4(HO4)4
_symmetry_space_group_name_H-M   'P 1'
_cell_length_a   8.17749000
_cell_length_b   9.21384800
_cell_length_c   9.30804578
_cell_angle_alpha   80.73154638
_cell_angle_beta   90.00000000
_cell_angle_gamma   90.00000000
_symmetry_Int_Tables_number   1
_chemical_formula_structural   K2Co3P4(HO4)4
_chemical_formula_sum   'K4 Co6 P8 H8 O32'
_cell_volume   692.16928954
_cell_formula_units_Z   2
loop_
 _symmetry_equiv_pos_site_id
 _symmetry_equiv_pos_as_xyz
  1  'x, y, z'
loop_
 _atom_site_type_symbol
 _atom_site_label
 _atom_site_symmetry_multiplicity
 _atom_site_fract_x
 _atom_site_fract_y
 _atom_site_fract_z
 _atom_site_occupancy
  K  K0  1  0.27455200  0.07441100  0.02234200  1
  K  K1  1  0.77455200  0.92558900  0.47765800  1
  K  K2  1  0.72544800  0.92558900  0.97765800  1
  K  K3  1  0.22544800  0.07441100  0.52234200  1
  Co  Co0  1  0.50000000  0.50000000  0.00000000  1
  Co  Co1  1  0.00000000  0.50000000  0.50000000  1
  Co  Co2  1  0.35724900  0.63280200  0.50466500  1
  Co  Co3  1  0.85724900  0.36719800  0.99533500  1
  Co  Co4  1  0.64275100  0.36719800  0.49533500  1
  Co  Co5  1  0.14275100  0.63280200  0.00466500  1
  P  P0  1  0.30174800  0.39834600  0.29082500  1
  P  P1  1  0.80174800  0.60165400  0.20917500  1
  P  P2  1  0.69825200  0.60165400  0.70917500  1
  P  P3  1  0.19825200  0.39834600  0.79082500  1
  P  P4  1  0.43117900  0.80232500  0.76516800  1
  P  P5  1  0.93117900  0.19767500  0.73483200  1
  P  P6  1  0.56882100  0.19767500  0.23483200  1
  P  P7  1  0.06882100  0.80232500  0.26516800  1
  H  H0  1  0.47320300  0.27942900  0.73477400  1
  H  H1  1  0.97320300  0.72057100  0.76522600  1
  H  H2  1  0.52679700  0.72057100  0.26522600  1
  H  H3  1  0.02679700  0.27942900  0.23477400  1
  H  H4  1  0.51079600  0.12081700  0.70069400  1
  H  H5  1  0.01079600  0.87918300  0.79930600  1
  H  H6  1  0.48920400  0.87918300  0.29930600  1
  H  H7  1  0.98920400  0.12081700  0.20069400  1
  O  O0  1  0.37343700  0.68046300  0.88878500  1
  O  O1  1  0.87343700  0.31953700  0.61121500  1
  O  O2  1  0.62656300  0.31953700  0.11121500  1
  O  O3  1  0.12656300  0.68046300  0.38878500  1
  O  O4  1  0.36477200  0.36214500  0.86221500  1
  O  O5  1  0.86477200  0.63785500  0.63778500  1
  O  O6  1  0.63522800  0.63785500  0.13778500  1
  O  O7  1  0.13522800  0.36214500  0.36221500  1
  O  O8  1  0.42444800  0.46126600  0.38901100  1
  O  O9  1  0.92444800  0.53873400  0.11098900  1
  O  O10  1  0.57555200  0.53873400  0.61098900  1
  O  O11  1  0.07555200  0.46126600  0.88901100  1
  O  O12  1  0.29551900  0.48983300  0.13705100  1
  O  O13  1  0.79551900  0.51016700  0.36294900  1
  O  O14  1  0.70448100  0.51016700  0.86294900  1
  O  O15  1  0.20448100  0.48983300  0.63705100  1
  O  O16  1  0.37483900  0.23843400  0.26596300  1
  O  O17  1  0.87483900  0.76156600  0.23403700  1
  O  O18  1  0.62516100  0.76156600  0.73403700  1
  O  O19  1  0.12516100  0.23843400  0.76596300  1
  O  O20  1  0.44243200  0.95352800  0.80907200  1
  O  O21  1  0.94243200  0.04647200  0.69092800  1
  O  O22  1  0.55756800  0.04647200  0.19092800  1
  O  O23  1  0.05756800  0.95352800  0.30907200  1
  O  O24  1  0.49509500  0.77439900  0.34573100  1
  O  O25  1  0.99509500  0.22560100  0.15426900  1
  O  O26  1  0.50490500  0.22560100  0.65426900  1
  O  O27  1  0.00490500  0.77439900  0.84573100  1
  O  O28  1  0.34120200  0.80262000  0.62090600  1
  O  O29  1  0.84120200  0.19738000  0.87909400  1
  O  O30  1  0.65879800  0.19738000  0.37909400  1
  O  O31  1  0.15879800  0.80262000  0.12090600  1
loop_
_geom_bond_atom_site_label_1
_geom_bond_atom_site_label_2
_geom_bond_distance
_geom_bond_site_symmetry_2
K0 O31 2.696082 1_545
K0 O22 2.784748 1_555
K0 O20 2.788938 1_544
K0 O19 2.882621 1_554
K0 O4 2.919160 1_554
K0 O16 3.033583 1_555
K0 O25 3.036764 1_455
K0 O23 3.248762 1_545
K1 O30 2.696082 1_565
K1 O23 2.784748 1_655
K1 O21 2.788938 1_565
K1 O18 2.882621 1_555
K1 O5 2.919160 1_555
K1 O17 3.033583 1_555
K1 O24 3.036764 1_555
K1 O22 3.248762 1_565
K2 O29 2.696082 1_565
K2 O20 2.784748 1_555
K2 O22 2.788938 1_566
K2 O17 2.882621 1_556
K2 O6 2.919160 1_556
K2 O18 3.033583 1_555
K2 O27 3.036764 1_655
K2 O21 3.248762 1_565
K3 O28 2.696082 1_545
K3 O21 2.784748 1_455
K3 O23 2.788938 1_545
K3 O16 2.882621 1_555
K3 O7 2.919160 1_555
K3 O19 3.033583 1_555
K3 O26 3.036764 1_555
K3 O20 3.248762 1_545
Co0 O2 2.086406 1_555
Co0 O0 2.086406 1_554
Co0 O12 2.096113 1_555
Co0 O14 2.096113 1_554
Co0 O6 2.237356 1_555
Co0 O4 2.237356 1_554
Co1 O1 2.086406 1_455
Co1 O3 2.086406 1_555
Co1 O13 2.096113 1_455
Co1 O15 2.096113 1_555
Co1 O7 2.237356 1_555
Co1 O5 2.237356 1_455
Co2 O28 2.044857 1_555
Co2 O15 2.071590 1_555
Co2 O8 2.122951 1_555
Co2 O24 2.130630 1_555
Co2 O10 2.154342 1_555
Co2 O3 2.182271 1_555
Co3 O29 2.044857 1_555
Co3 O14 2.071590 1_555
Co3 O9 2.122951 1_556
Co3 O25 2.130630 1_556
Co3 O11 2.154342 1_655
Co3 O2 2.182271 1_556
Co4 O30 2.044857 1_555
Co4 O13 2.071590 1_555
Co4 O10 2.122951 1_555
Co4 O26 2.130630 1_555
Co4 O8 2.154342 1_555
Co4 O1 2.182271 1_555
Co5 O31 2.044857 1_555
Co5 O12 2.071590 1_555
Co5 O11 2.122951 1_554
Co5 O27 2.130630 1_554
Co5 O9 2.154342 1_455
Co5 O0 2.182271 1_554
H0 O26 0.997205 1_555
H0 O4 1.750835 1_555
H1 O27 0.997205 1_655
H1 O5 1.750835 1_555
H2 O24 0.997205 1_555
H2 O6 1.750835 1_555
H3 O25 0.997205 1_455
H3 O7 1.750835 1_555
H4 O26 0.993370 1_555
H4 K3 2.934677 1_555
H5 O27 0.993370 1_555
H5 K2 2.934677 1_455
H6 O24 0.993370 1_555
H6 K1 2.934677 1_555
H7 O25 0.993370 1_555
H7 K0 2.934677 1_655
O0 P4 1.546438 1_555
O1 P5 1.546438 1_555
O2 P6 1.546438 1_555
O3 P7 1.546438 1_555
O4 P3 1.528297 1_555
O5 P2 1.528297 1_555
O6 P1 1.528297 1_555
O7 P0 1.528297 1_555
O8 P0 1.532573 1_555
O9 P1 1.532573 1_555
O10 P2 1.532573 1_555
O11 P3 1.532573 1_555
O12 P0 1.540527 1_555
O13 P1 1.540527 1_555
O14 P2 1.540527 1_555
O15 P3 1.540527 1_555
O16 P0 1.640596 1_555
O16 P6 1.666241 1_555
O17 P1 1.640596 1_555
O17 P7 1.666241 1_655
O18 P2 1.640596 1_555
O18 P4 1.666241 1_555
O19 P3 1.640596 1_555
O19 P5 1.666241 1_455
O20 P4 1.516497 1_555
O21 P5 1.516497 1_555
O22 P6 1.516497 1_555
O23 P7 1.516497 1_555
O28 P4 1.530790 1_555
O29 P5 1.530790 1_555
O30 P6 1.530790 1_555
O31 P7 1.530790 1_555
