# generated using pymatgen
data_LiMnPO4
_symmetry_space_group_name_H-M   'P 1'
_cell_length_a   7.72862200
_cell_length_b   8.49363700
_cell_length_c   17.19110727
_cell_angle_alpha   61.02002376
_cell_angle_beta   90.00000000
_cell_angle_gamma   90.00000000
_symmetry_Int_Tables_number   1
_chemical_formula_structural   LiMnPO4
_chemical_formula_sum   'Li12 Mn12 P12 O48'
_cell_volume   987.19504980
_cell_formula_units_Z   12
loop_
 _symmetry_equiv_pos_site_id
 _symmetry_equiv_pos_as_xyz
  1  'x, y, z'
loop_
 _atom_site_type_symbol
 _atom_site_label
 _atom_site_symmetry_multiplicity
 _atom_site_fract_x
 _atom_site_fract_y
 _atom_site_fract_z
 _atom_site_occupancy
  Li  Li0  1  0.76983700  0.84979900  0.59359500  1
  Li  Li1  1  0.72415500  0.18030500  0.23232500  1
  Li  Li2  1  0.77686400  0.46453900  0.92247600  1
  Li  Li3  1  0.27686400  0.53546100  0.57752400  1
  Li  Li4  1  0.22415500  0.81969500  0.26767500  1
  Li  Li5  1  0.26983700  0.15020100  0.90640500  1
  Li  Li6  1  0.73016300  0.84979900  0.09359500  1
  Li  Li7  1  0.77584500  0.18030500  0.73232500  1
  Li  Li8  1  0.72313600  0.46453900  0.42247600  1
  Li  Li9  1  0.22313600  0.53546100  0.07752400  1
  Li  Li10  1  0.27584500  0.81969500  0.76767500  1
  Li  Li11  1  0.23016300  0.15020100  0.40640500  1
  Mn  Mn0  1  0.47402100  0.20163900  0.06667300  1
  Mn  Mn1  1  0.52428300  0.85014100  0.40851700  1
  Mn  Mn2  1  0.43103400  0.50991200  0.75200800  1
  Mn  Mn3  1  0.93103400  0.49008800  0.74799200  1
  Mn  Mn4  1  0.02428300  0.14985900  0.09148300  1
  Mn  Mn5  1  0.97402100  0.79836100  0.43332700  1
  Mn  Mn6  1  0.02597900  0.20163900  0.56667300  1
  Mn  Mn7  1  0.97571700  0.85014100  0.90851700  1
  Mn  Mn8  1  0.06896600  0.50991200  0.25200800  1
  Mn  Mn9  1  0.56896600  0.49008800  0.24799200  1
  Mn  Mn10  1  0.47571700  0.14985900  0.59148300  1
  Mn  Mn11  1  0.52597900  0.79836100  0.93332700  1
  P  P0  1  0.17801800  0.85624100  0.59080900  1
  P  P1  1  0.32054400  0.18870300  0.23103800  1
  P  P2  1  0.17742900  0.47386300  0.92431000  1
  P  P3  1  0.67742900  0.52613700  0.57569000  1
  P  P4  1  0.82054400  0.81129700  0.26896200  1
  P  P5  1  0.67801800  0.14375900  0.90919100  1
  P  P6  1  0.32198200  0.85624100  0.09080900  1
  P  P7  1  0.17945600  0.18870300  0.73103800  1
  P  P8  1  0.32257100  0.47386300  0.42431000  1
  P  P9  1  0.82257100  0.52613700  0.07569000  1
  P  P10  1  0.67945600  0.81129700  0.76896200  1
  P  P11  1  0.82198200  0.14375900  0.40919100  1
  O  O0  1  0.99578600  0.08526600  0.38537700  1
  O  O1  1  0.85995000  0.32175800  0.12465900  1
  O  O2  1  0.71305200  0.97014900  0.46507400  1
  O  O3  1  0.77623500  0.63433300  0.79050500  1
  O  O4  1  0.29355900  0.41906900  0.00799300  1
  O  O5  1  0.49494300  0.24801800  0.17844000  1
  O  O6  1  0.35816400  0.07594500  0.33193000  1
  O  O7  1  0.27195100  0.72921800  0.67962600  1
  O  O8  1  0.00679600  0.36377600  0.95499200  1
  O  O9  1  0.14342400  0.75293700  0.53849000  1
  O  O10  1  0.26896000  0.41686500  0.86073400  1
  O  O11  1  0.21628600  0.08030700  0.19566900  1
  O  O12  1  0.76896000  0.58313500  0.63926600  1
  O  O13  1  0.71628600  0.91969300  0.30433100  1
  O  O14  1  0.64342400  0.24706300  0.96151000  1
  O  O15  1  0.50679600  0.63622400  0.54500800  1
  O  O16  1  0.77195100  0.27078200  0.82037400  1
  O  O17  1  0.85816400  0.92405500  0.16807000  1
  O  O18  1  0.99494300  0.75198200  0.32156000  1
  O  O19  1  0.27623500  0.36566700  0.70949500  1
  O  O20  1  0.79355900  0.58093100  0.49200700  1
  O  O21  1  0.21305200  0.02985100  0.03492600  1
  O  O22  1  0.35995000  0.67824200  0.37534100  1
  O  O23  1  0.49578600  0.91473400  0.11462300  1
  O  O24  1  0.50421400  0.08526600  0.88537700  1
  O  O25  1  0.64005000  0.32175800  0.62465900  1
  O  O26  1  0.78694800  0.97014900  0.96507400  1
  O  O27  1  0.20644100  0.41906900  0.50799300  1
  O  O28  1  0.72376500  0.63433300  0.29050500  1
  O  O29  1  0.00505700  0.24801800  0.67844000  1
  O  O30  1  0.14183600  0.07594500  0.83193000  1
  O  O31  1  0.22804900  0.72921800  0.17962600  1
  O  O32  1  0.49320400  0.36377600  0.45499200  1
  O  O33  1  0.35657600  0.75293700  0.03849000  1
  O  O34  1  0.28371400  0.08030700  0.69566900  1
  O  O35  1  0.23104000  0.41686500  0.36073400  1
  O  O36  1  0.78371400  0.91969300  0.80433100  1
  O  O37  1  0.73104000  0.58313500  0.13926600  1
  O  O38  1  0.85657600  0.24706300  0.46151000  1
  O  O39  1  0.99320400  0.63622400  0.04500800  1
  O  O40  1  0.72804900  0.27078200  0.32037400  1
  O  O41  1  0.64183600  0.92405500  0.66807000  1
  O  O42  1  0.50505700  0.75198200  0.82156000  1
  O  O43  1  0.70644100  0.58093100  0.99200700  1
  O  O44  1  0.22376500  0.36566700  0.20949500  1
  O  O45  1  0.28694800  0.02985100  0.53492600  1
  O  O46  1  0.14005000  0.67824200  0.87534100  1
  O  O47  1  0.00421400  0.91473400  0.61462300  1
loop_
_geom_bond_atom_site_label_1
_geom_bond_atom_site_label_2
_geom_bond_distance
_geom_bond_site_symmetry_2
Li0 O41 1.948872 1_555
Li0 O47 1.977189 1_655
Li0 O2 1.982563 1_555
Li0 O12 2.005815 1_555
Li1 O13 1.944386 1_545
Li1 O5 1.952131 1_555
Li1 O1 1.953441 1_555
Li1 O40 2.002448 1_555
Li2 O14 1.929973 1_555
Li2 O8 1.933724 1_655
Li2 O43 1.961474 1_555
Li2 O3 2.014079 1_555
Li3 O9 1.929973 1_555
Li3 O15 1.933724 1_555
Li3 O27 1.961474 1_555
Li3 O19 2.014079 1_555
Li4 O11 1.944386 1_565
Li4 O18 1.952131 1_455
Li4 O22 1.953441 1_555
Li4 O31 2.002448 1_555
Li5 O30 1.948872 1_555
Li5 O24 1.977189 1_555
Li5 O21 1.982563 1_556
Li5 O10 2.005815 1_555
Li6 O17 1.948872 1_555
Li6 O23 1.977189 1_555
Li6 O26 1.982563 1_554
Li6 O37 2.005815 1_555
Li7 O36 1.944386 1_545
Li7 O29 1.952131 1_655
Li7 O25 1.953441 1_555
Li7 O16 2.002448 1_555
Li8 O38 1.929973 1_555
Li8 O32 1.933724 1_555
Li8 O20 1.961474 1_555
Li8 O28 2.014079 1_555
Li9 O33 1.929973 1_555
Li9 O39 1.933724 1_455
Li9 O4 1.961474 1_555
Li9 O44 2.014079 1_555
Li10 O34 1.944386 1_565
Li10 O42 1.952131 1_555
Li10 O46 1.953441 1_555
Li10 O7 2.002448 1_555
Li11 O6 1.948872 1_555
Li11 O0 1.977189 1_455
Li11 O45 1.982563 1_555
Li11 O35 2.005815 1_555
Mn0 O14 2.110805 1_554
Mn0 O4 2.137336 1_555
Mn0 O5 2.146282 1_555
Mn0 O23 2.167861 1_545
Mn0 O21 2.695646 1_555
Mn1 O6 2.147849 1_565
Mn1 O15 2.166581 1_555
Mn1 O13 2.175697 1_555
Mn1 O22 2.208392 1_555
Mn1 O2 2.252354 1_555
Mn2 O10 2.062965 1_555
Mn2 O7 2.069708 1_555
Mn2 O19 2.081862 1_555
Mn3 O12 2.062965 1_555
Mn3 O16 2.069708 1_555
Mn3 O3 2.081862 1_555
Mn4 O17 2.147849 1_445
Mn4 O8 2.166581 1_554
Mn4 O11 2.175697 1_555
Mn4 O1 2.208392 1_455
Mn4 O21 2.252354 1_555
Mn5 O9 2.110805 1_655
Mn5 O20 2.137336 1_555
Mn5 O18 2.146282 1_555
Mn5 O0 2.167861 1_565
Mn5 O2 2.695646 1_555
Mn6 O38 2.110805 1_455
Mn6 O27 2.137336 1_555
Mn6 O29 2.146282 1_555
Mn6 O47 2.167861 1_545
Mn6 O45 2.695646 1_555
Mn7 O30 2.147849 1_665
Mn7 O39 2.166581 1_556
Mn7 O36 2.175697 1_555
Mn7 O46 2.208392 1_655
Mn7 O26 2.252354 1_555
Mn8 O35 2.062965 1_555
Mn8 O31 2.069708 1_555
Mn8 O44 2.081862 1_555
Mn9 O37 2.062965 1_555
Mn9 O40 2.069708 1_555
Mn9 O28 2.081862 1_555
Mn10 O41 2.147849 1_545
Mn10 O32 2.166581 1_555
Mn10 O34 2.175697 1_555
Mn10 O25 2.208392 1_555
Mn10 O45 2.252354 1_555
Mn11 O33 2.110805 1_556
Mn11 O43 2.137336 1_555
Mn11 O42 2.146282 1_555
Mn11 O24 2.167861 1_565
Mn11 O26 2.695646 1_555
O0 P11 1.554310 1_555
O1 P9 1.545799 1_555
O2 P11 1.559924 1_565
O3 P10 1.554484 1_555
O4 P2 1.562994 1_554
O5 P1 1.564204 1_555
O6 P1 1.549333 1_555
O7 P0 1.557589 1_555
O8 P2 1.553616 1_555
O9 P0 1.554039 1_555
O10 P2 1.562702 1_555
O11 P1 1.552117 1_555
O12 P3 1.562702 1_555
O13 P4 1.552117 1_555
O14 P5 1.554039 1_555
O15 P3 1.553616 1_555
O16 P5 1.557589 1_555
O17 P4 1.549333 1_555
O18 P4 1.564204 1_555
O19 P7 1.554484 1_555
O20 P3 1.562994 1_555
O21 P6 1.559924 1_545
O22 P8 1.545799 1_555
O23 P6 1.554310 1_555
O24 P5 1.554310 1_555
O25 P3 1.545799 1_555
O26 P5 1.559924 1_565
O27 P8 1.562994 1_555
O28 P4 1.554484 1_555
O29 P7 1.564204 1_555
O30 P7 1.549333 1_555
O31 P6 1.557589 1_555
O32 P8 1.553616 1_555
O33 P6 1.554039 1_555
O34 P7 1.552117 1_555
O35 P8 1.562702 1_555
O36 P10 1.552117 1_555
O37 P9 1.562702 1_555
O38 P11 1.554039 1_555
O39 P9 1.553616 1_555
O40 P11 1.557589 1_555
O41 P10 1.549333 1_555
O42 P10 1.564204 1_555
O43 P9 1.562994 1_556
O44 P1 1.554484 1_555
O45 P0 1.559924 1_545
O46 P2 1.545799 1_555
O47 P0 1.554310 1_555
