# generated using pymatgen
data_Li3V2(O2F)2
_symmetry_space_group_name_H-M   'P 1'
_cell_length_a   5.99745000
_cell_length_b   5.19394900
_cell_length_c   14.80286167
_cell_angle_alpha   89.94986427
_cell_angle_beta   90.00000000
_cell_angle_gamma   90.00000000
_symmetry_Int_Tables_number   1
_chemical_formula_structural   Li3V2(O2F)2
_chemical_formula_sum   'Li12 V8 O16 F8'
_cell_volume   461.11561725
_cell_formula_units_Z   4
loop_
 _symmetry_equiv_pos_site_id
 _symmetry_equiv_pos_as_xyz
  1  'x, y, z'
loop_
 _atom_site_type_symbol
 _atom_site_label
 _atom_site_symmetry_multiplicity
 _atom_site_fract_x
 _atom_site_fract_y
 _atom_site_fract_z
 _atom_site_occupancy
  Li  Li0  1  0.97740900  0.50000000  0.00000000  1
  Li  Li1  1  0.00164200  0.15563100  0.87134700  1
  Li  Li2  1  0.00164200  0.84436900  0.12865300  1
  Li  Li3  1  0.75844100  0.00000000  0.50000000  1
  Li  Li4  1  0.74873700  0.00000000  0.00000000  1
  Li  Li5  1  0.52186900  0.50000000  0.00000000  1
  Li  Li6  1  0.49837600  0.50000000  0.50000000  1
  Li  Li7  1  0.49616300  0.15656400  0.86985200  1
  Li  Li8  1  0.49616300  0.84343600  0.13014800  1
  Li  Li9  1  0.24300100  0.00000000  0.50000000  1
  Li  Li10  1  0.25034400  0.69266500  0.87189200  1
  Li  Li11  1  0.25034400  0.30733500  0.12810800  1
  V  V0  1  0.00142400  0.16827100  0.33332700  1
  V  V1  1  0.00142400  0.83172900  0.66667300  1
  V  V2  1  0.74873700  0.66828800  0.33671400  1
  V  V3  1  0.74873700  0.33171200  0.66328600  1
  V  V4  1  0.50128200  0.16734200  0.32772400  1
  V  V5  1  0.50128200  0.83265800  0.67227600  1
  V  V6  1  0.24860700  0.65996600  0.33505900  1
  V  V7  1  0.24860700  0.34003400  0.66494100  1
  O  O0  1  0.01547200  0.51583800  0.27064600  1
  O  O1  1  0.01547200  0.48416200  0.72935400  1
  O  O2  1  0.00386200  0.15459300  0.59179300  1
  O  O3  1  0.00386200  0.84540700  0.40820700  1
  O  O4  1  0.74685100  0.99813600  0.26751200  1
  O  O5  1  0.74685100  0.00186400  0.73248800  1
  O  O6  1  0.73140200  0.68145400  0.59438800  1
  O  O7  1  0.73140200  0.31854600  0.40561200  1
  O  O8  1  0.49186100  0.50119300  0.26777000  1
  O  O9  1  0.49186100  0.49880700  0.73223000  1
  O  O10  1  0.48784400  0.17138800  0.59055100  1
  O  O11  1  0.48784400  0.82861200  0.40944900  1
  O  O12  1  0.26299400  0.99807100  0.26576200  1
  O  O13  1  0.26299400  0.00192900  0.73423800  1
  O  O14  1  0.26549800  0.67069900  0.59445800  1
  O  O15  1  0.26549800  0.32930100  0.40554200  1
  F  F0  1  0.99528100  0.17149000  0.08173900  1
  F  F1  1  0.99528100  0.82851000  0.91826100  1
  F  F2  1  0.74935600  0.69034400  0.07657400  1
  F  F3  1  0.74935600  0.30965600  0.92342600  1
  F  F4  1  0.50420200  0.17090200  0.08192900  1
  F  F5  1  0.50420200  0.82909800  0.91807100  1
  F  F6  1  0.24826200  0.64649900  0.09068300  1
  F  F7  1  0.24826200  0.35350100  0.90931700  1
loop_
_geom_bond_atom_site_label_1
_geom_bond_atom_site_label_2
_geom_bond_distance
_geom_bond_site_symmetry_2
Li3 O3 2.158578 1_645
Li3 O2 2.158578 1_655
Li3 O6 2.170683 1_545
Li3 O7 2.170683 1_555
Li3 O11 2.285825 1_545
Li3 O10 2.285825 1_555
Li6 O15 2.166571 1_555
Li6 O14 2.166571 1_555
Li6 O11 2.170217 1_555
Li6 O10 2.170217 1_555
Li6 O7 2.189959 1_555
Li6 O6 2.189959 1_555
Li9 O3 2.133066 1_545
Li9 O2 2.133066 1_555
Li9 O11 2.178880 1_545
Li9 O10 2.178880 1_555
Li9 O14 2.212350 1_545
Li9 O15 2.212350 1_555
O0 V6 1.850893 1_555
O0 V0 2.030763 1_555
O0 V2 2.035667 1_455
O1 V7 1.850893 1_555
O1 V1 2.030763 1_555
O1 V3 2.035667 1_455
O2 V1 2.009408 1_545
O2 V7 2.063141 1_555
O2 V3 2.075864 1_455
O3 V0 2.009408 1_565
O3 V6 2.063141 1_555
O3 V2 2.075864 1_455
O4 V4 1.933205 1_565
O4 V2 1.995377 1_555
O4 V0 2.015597 1_665
O5 V5 1.933205 1_545
O5 V3 1.995377 1_555
O5 V1 2.015597 1_645
O6 V5 1.962766 1_555
O6 V3 2.085081 1_555
O6 V1 2.092421 1_655
O7 V4 1.962766 1_555
O7 V2 2.085081 1_555
O7 V0 2.092421 1_655
O8 V4 1.948054 1_555
O8 V6 1.949886 1_555
O8 V2 2.042004 1_555
O9 V5 1.948054 1_555
O9 V7 1.949886 1_555
O9 V3 2.042004 1_555
O10 V7 2.010037 1_555
O10 V3 2.074247 1_555
O10 V5 2.135790 1_545
O11 V6 2.010037 1_555
O11 V2 2.074247 1_555
O11 V4 2.135790 1_565
O12 V4 1.912602 1_565
O12 V6 2.034805 1_555
O12 V0 2.060174 1_565
O13 V5 1.912602 1_545
O13 V7 2.034805 1_555
O13 V1 2.060174 1_545
O14 V5 2.008968 1_555
O14 V7 2.011309 1_555
O14 V1 2.086184 1_555
O15 V4 2.008968 1_555
O15 V6 2.011309 1_555
O15 V0 2.086184 1_555
F0 Li11 1.819308 1_655
F0 Li2 1.835330 1_645
F0 Li0 2.093620 1_555
F0 Li4 2.108469 1_555
F1 Li10 1.819308 1_655
F1 Li1 1.835330 1_665
F1 Li0 2.093620 1_556
F1 Li4 2.108469 1_566
F2 Li2 1.877440 1_655
F2 Li8 1.888962 1_555
F2 Li4 1.966832 1_565
F2 Li5 2.031169 1_555
F2 Li0 2.033451 1_555
F3 Li1 1.877440 1_655
F3 Li7 1.888962 1_555
F3 Li4 1.966832 1_556
F3 Li5 2.031169 1_556
F3 Li0 2.033451 1_556
F4 Li11 1.813364 1_555
F4 Li8 1.844598 1_545
F4 Li5 2.097668 1_555
F4 Li4 2.100366 1_555
F5 Li10 1.813364 1_555
F5 Li7 1.844598 1_565
F5 Li5 2.097668 1_556
F5 Li4 2.100366 1_566
F6 Li11 1.846239 1_555
F6 Li2 1.887024 1_555
F6 Li8 1.897132 1_555
F6 Li0 2.240867 1_455
F6 Li5 2.252869 1_555
F7 Li10 1.846239 1_555
F7 Li1 1.887024 1_555
F7 Li7 1.897132 1_555
F7 Li0 2.240867 1_456
F7 Li5 2.252869 1_556
