# generated using pymatgen
data_Mn3NbNi2(PO4)6
_symmetry_space_group_name_H-M   'P 1'
_cell_length_a   8.56259063
_cell_length_b   8.56259063
_cell_length_c   8.56259070
_cell_angle_alpha   61.09517259
_cell_angle_beta   61.09517259
_cell_angle_gamma   61.09516863
_symmetry_Int_Tables_number   1
_chemical_formula_structural   Mn3NbNi2(PO4)6
_chemical_formula_sum   'Mn3 Nb1 Ni2 P6 O24'
_cell_volume   454.85944851
_cell_formula_units_Z   1
loop_
 _symmetry_equiv_pos_site_id
 _symmetry_equiv_pos_as_xyz
  1  'x, y, z'
loop_
 _atom_site_type_symbol
 _atom_site_label
 _atom_site_symmetry_multiplicity
 _atom_site_fract_x
 _atom_site_fract_y
 _atom_site_fract_z
 _atom_site_occupancy
  Mn  Mn0  1  0.14506900  0.14506900  0.14506900  1
  Mn  Mn1  1  0.35747300  0.35747300  0.35747300  1
  Mn  Mn2  1  0.64316000  0.64316000  0.64316000  1
  Nb  Nb0  1  0.85725700  0.85725700  0.85725700  1
  Ni  Ni0  1  0.00445600  0.00445600  0.00445600  1
  Ni  Ni1  1  0.50088700  0.50088700  0.50088700  1
  P  P0  1  0.74826700  0.04787700  0.44697000  1
  P  P1  1  0.04787700  0.44697000  0.74826700  1
  P  P2  1  0.44697000  0.74826700  0.04787700  1
  P  P3  1  0.54036700  0.25705400  0.95438400  1
  P  P4  1  0.95438400  0.54036700  0.25705400  1
  P  P5  1  0.25705400  0.95438400  0.54036700  1
  O  O0  1  0.31806700  0.10834800  0.51023700  1
  O  O1  1  0.51023700  0.31806700  0.10834800  1
  O  O2  1  0.91050500  0.06282500  0.25416300  1
  O  O3  1  0.10834800  0.51023700  0.31806700  1
  O  O4  1  0.82239000  0.99075300  0.61105400  1
  O  O5  1  0.59483600  0.24274900  0.44623500  1
  O  O6  1  0.06282500  0.25416300  0.91050500  1
  O  O7  1  0.24274900  0.44623500  0.59483600  1
  O  O8  1  0.38916800  0.18606000  0.99092200  1
  O  O9  1  0.44623500  0.59483600  0.24274900  1
  O  O10  1  0.74266200  0.09345800  0.93486000  1
  O  O11  1  0.99092200  0.38916800  0.18606000  1
  O  O12  1  0.99075300  0.61105400  0.82239000  1
  O  O13  1  0.25416300  0.91050500  0.06282500  1
  O  O14  1  0.56045400  0.40954600  0.75456700  1
  O  O15  1  0.61105400  0.82239000  0.99075300  1
  O  O16  1  0.75456700  0.56045400  0.40954600  1
  O  O17  1  0.93486000  0.74266200  0.09345800  1
  O  O18  1  0.40954600  0.75456700  0.56045400  1
  O  O19  1  0.18606000  0.99092200  0.38916800  1
  O  O20  1  0.89111800  0.48733300  0.68447000  1
  O  O21  1  0.09345800  0.93486000  0.74266200  1
  O  O22  1  0.48733300  0.68447000  0.89111800  1
  O  O23  1  0.68447000  0.89111800  0.48733300  1
loop_
_geom_bond_atom_site_label_1
_geom_bond_atom_site_label_2
_geom_bond_distance
_geom_bond_site_symmetry_2
Mn0 O11 1.956618 1_455
Mn0 O19 1.956618 1_545
Mn0 O8 1.956618 1_554
Mn0 O13 2.078502 1_545
Mn0 O6 2.078502 1_554
Mn0 O2 2.078502 1_455
Mn1 O3 1.986692 1_555
Mn1 O1 1.986692 1_555
Mn1 O0 1.986692 1_555
Mn1 O5 2.124835 1_555
Mn1 O7 2.124835 1_555
Mn1 O9 2.124835 1_555
Mn2 O20 1.986052 1_555
Mn2 O22 1.986053 1_555
Mn2 O23 1.986053 1_555
Mn2 O18 2.069921 1_555
Mn2 O16 2.069921 1_555
Mn2 O14 2.069921 1_555
Nb0 O12 1.946529 1_555
Nb0 O4 1.946530 1_555
Nb0 O15 1.946530 1_555
Nb0 O10 2.060394 1_565
Nb0 O17 2.060394 1_556
Nb0 O21 2.060394 1_655
Ni0 O13 2.109540 1_545
Ni0 O2 2.109540 1_455
Ni0 O6 2.109540 1_554
Ni0 O10 2.271941 1_454
Ni0 O21 2.271941 1_544
Ni0 O17 2.271941 1_445
Ni1 O18 2.152483 1_555
Ni1 O14 2.152483 1_555
Ni1 O16 2.152483 1_555
Ni1 O5 2.160736 1_555
Ni1 O9 2.160736 1_555
Ni1 O7 2.160736 1_555
O0 P5 1.511359 1_545
O1 P3 1.511359 1_554
O2 P0 1.556368 1_555
O3 P4 1.511359 1_455
O4 P0 1.585446 1_565
O5 P0 1.545616 1_555
O6 P1 1.556368 1_555
O7 P1 1.545616 1_555
O8 P3 1.526088 1_555
O9 P2 1.545616 1_555
O10 P3 1.609783 1_555
O11 P4 1.526087 1_555
O12 P1 1.585446 1_655
O13 P2 1.556368 1_555
O14 P3 1.560389 1_555
O15 P2 1.585446 1_556
O16 P4 1.560389 1_555
O17 P4 1.609783 1_555
O18 P5 1.560389 1_555
O19 P5 1.526087 1_555
O20 P1 1.515712 1_655
O21 P5 1.609783 1_555
O22 P2 1.515712 1_556
O23 P0 1.515712 1_565
