# generated using pymatgen
data_Li2Nb4O11
_symmetry_space_group_name_H-M   'P 1'
_cell_length_a   8.20559805
_cell_length_b   8.20559805
_cell_length_c   9.93105310
_cell_angle_alpha   54.35223211
_cell_angle_beta   54.35223211
_cell_angle_gamma   26.72401828
_symmetry_Int_Tables_number   1
_chemical_formula_structural   Li2Nb4O11
_chemical_formula_sum   'Li2 Nb4 O11'
_cell_volume   240.78093907
_cell_formula_units_Z   1
loop_
 _symmetry_equiv_pos_site_id
 _symmetry_equiv_pos_as_xyz
  1  'x, y, z'
loop_
 _atom_site_type_symbol
 _atom_site_label
 _atom_site_symmetry_multiplicity
 _atom_site_fract_x
 _atom_site_fract_y
 _atom_site_fract_z
 _atom_site_occupancy
  Li  Li0  1  0.88500500  0.88500500  0.75930200  1
  Li  Li1  1  0.11499500  0.11499500  0.24069800  1
  Nb  Nb0  1  0.84783800  0.84783800  0.14634400  1
  Nb  Nb1  1  0.37133300  0.37133300  0.42176800  1
  Nb  Nb2  1  0.62866700  0.62866700  0.57823200  1
  Nb  Nb3  1  0.15216200  0.15216200  0.85365600  1
  O  O0  1  0.83586300  0.83586300  0.40876800  1
  O  O1  1  0.65295900  0.65295900  0.78176400  1
  O  O2  1  0.82403600  0.82403600  0.99406500  1
  O  O3  1  0.68359000  0.68359000  0.34874500  1
  O  O4  1  0.51025500  0.51025500  0.31328900  1
  O  O5  1  0.48974500  0.48974500  0.68671100  1
  O  O6  1  0.31641000  0.31641000  0.65125500  1
  O  O7  1  0.00000000  0.00000000  0.00000000  1
  O  O8  1  0.17596400  0.17596400  0.00593500  1
  O  O9  1  0.34704100  0.34704100  0.21823600  1
  O  O10  1  0.16413700  0.16413700  0.59123200  1
loop_
_geom_bond_atom_site_label_1
_geom_bond_atom_site_label_2
_geom_bond_distance
_geom_bond_site_symmetry_2
Li0 O2 1.914214 1_555
Li0 O5 2.338432 1_565
Li0 O5 2.338432 1_655
Li1 O8 1.914214 1_555
Li1 O4 2.338432 1_545
Li1 O4 2.338432 1_455
Nb0 O2 1.766356 1_554
Nb0 O7 1.945439 1_665
Nb0 O9 2.023639 1_655
Nb0 O9 2.023639 1_565
Nb0 O3 2.145381 1_555
Nb0 O0 2.496312 1_555
Nb1 O4 1.793865 1_555
Nb1 O6 1.889099 1_555
Nb1 O0 2.005270 1_455
Nb1 O0 2.005270 1_545
Nb1 O9 2.274927 1_555
Nb1 O10 2.665859 1_555
Nb2 O5 1.793865 1_555
Nb2 O3 1.889099 1_555
Nb2 O10 2.005270 1_655
Nb2 O10 2.005270 1_565
Nb2 O1 2.274927 1_555
Nb2 O0 2.665859 1_555
Nb3 O8 1.766356 1_556
Nb3 O7 1.945439 1_556
Nb3 O1 2.023639 1_545
Nb3 O1 2.023639 1_455
Nb3 O6 2.145381 1_555
Nb3 O10 2.496312 1_555
