# generated using pymatgen
data_Li2FePCO7
_symmetry_space_group_name_H-M   'P 1'
_cell_length_a   5.06367900
_cell_length_b   6.42583796
_cell_length_c   8.50557620
_cell_angle_alpha   96.27595007
_cell_angle_beta   95.97305750
_cell_angle_gamma   92.85018309
_symmetry_Int_Tables_number   1
_chemical_formula_structural   Li2FePCO7
_chemical_formula_sum   'Li4 Fe2 P2 C2 O14'
_cell_volume   273.08246678
_cell_formula_units_Z   2
loop_
 _symmetry_equiv_pos_site_id
 _symmetry_equiv_pos_as_xyz
  1  'x, y, z'
loop_
 _atom_site_type_symbol
 _atom_site_label
 _atom_site_symmetry_multiplicity
 _atom_site_fract_x
 _atom_site_fract_y
 _atom_site_fract_z
 _atom_site_occupancy
  Li  Li0  1  0.30763800  0.01794900  0.72182500  1
  Li  Li1  1  0.64480300  0.57471700  0.22067500  1
  Li  Li2  1  0.80190700  0.74507900  0.88944400  1
  Li  Li3  1  0.75509700  0.13946000  0.22193800  1
  Fe  Fe0  1  0.21713400  0.84561600  0.31592100  1
  Fe  Fe1  1  0.84209300  0.35972300  0.63894100  1
  P  P0  1  0.29719200  0.35402500  0.39917500  1
  P  P1  1  0.76113200  0.84792000  0.55072300  1
  C  C0  1  0.33379600  0.84970000  0.03033900  1
  C  C1  1  0.71391200  0.33576700  0.91768800  1
  O  O0  1  0.08767200  0.83875800  0.06185500  1
  O  O1  1  0.18128500  0.41552600  0.55630200  1
  O  O2  1  0.14160400  0.15215700  0.31045900  1
  O  O3  1  0.28041900  0.53372700  0.29043100  1
  O  O4  1  0.41037900  0.84183700  0.89323200  1
  O  O5  1  0.46426000  0.89940100  0.51613900  1
  O  O6  1  0.55223000  0.25884300  0.79379600  1
  O  O7  1  0.51090300  0.86587600  0.15948300  1
  O  O8  1  0.60017500  0.31145100  0.42792700  1
  O  O9  1  0.66732300  0.33049600  0.06188900  1
  O  O10  1  0.77828900  0.67326200  0.66102100  1
  O  O11  1  0.86904700  0.77355600  0.39003500  1
  O  O12  1  0.93349600  0.42920600  0.88108900  1
  O  O13  1  0.92950200  0.04451000  0.63483800  1
loop_
_geom_bond_atom_site_label_1
_geom_bond_atom_site_label_2
_geom_bond_distance
_geom_bond_site_symmetry_2
Li0 O6 1.936288 1_555
Li0 O4 1.984505 1_545
Li0 O13 2.002028 1_455
Li0 O5 2.080246 1_545
Li1 O9 1.971363 1_555
Li1 O3 2.009864 1_555
Li1 O11 2.027273 1_555
Li1 O7 2.120529 1_555
Li2 O10 1.937043 1_555
Li2 O0 1.971159 1_656
Li2 O4 2.109433 1_555
Li2 O12 2.163733 1_555
Li3 O9 1.962478 1_555
Li3 O2 2.016923 1_655
Li3 O7 2.084392 1_545
Li3 O8 2.203510 1_555
Fe0 O11 1.983041 1_455
Fe0 O5 1.992552 1_555
Fe0 O2 2.029707 1_565
Fe0 O3 2.037066 1_555
Fe0 O7 2.104946 1_555
Fe0 O0 2.187005 1_555
Fe1 O1 1.953909 1_655
Fe1 O10 2.047806 1_555
Fe1 O8 2.049642 1_555
Fe1 O12 2.058046 1_555
Fe1 O13 2.092061 1_555
Fe1 O6 2.191759 1_555
C0 O4 1.263362 1_554
C0 O0 1.301915 1_555
C0 O7 1.335067 1_555
C1 O9 1.276574 1_556
C1 O6 1.300526 1_555
C1 O12 1.319185 1_555
O1 P0 1.535449 1_555
O2 P0 1.559931 1_555
O3 P0 1.556612 1_555
O5 P1 1.560278 1_555
O8 P0 1.570582 1_555
O10 P1 1.539551 1_555
O11 P1 1.559984 1_555
O13 P1 1.550129 1_545
