# generated using pymatgen
data_Li3Mn2Fe(BO3)3
_symmetry_space_group_name_H-M   'P 1'
_cell_length_a   6.34106400
_cell_length_b   8.25338400
_cell_length_c   8.26642585
_cell_angle_alpha   60.12689225
_cell_angle_beta   90.00000000
_cell_angle_gamma   90.00000000
_symmetry_Int_Tables_number   1
_chemical_formula_structural   Li3Mn2Fe(BO3)3
_chemical_formula_sum   'Li6 Mn4 Fe2 B6 O18'
_cell_volume   375.14268860
_cell_formula_units_Z   2
loop_
 _symmetry_equiv_pos_site_id
 _symmetry_equiv_pos_as_xyz
  1  'x, y, z'
loop_
 _atom_site_type_symbol
 _atom_site_label
 _atom_site_symmetry_multiplicity
 _atom_site_fract_x
 _atom_site_fract_y
 _atom_site_fract_z
 _atom_site_occupancy
  Li  Li0  1  0.75055300  0.71617900  0.30179900  1
  Li  Li1  1  0.24944700  0.71617900  0.30179900  1
  Li  Li2  1  0.75001400  0.98325000  0.71557200  1
  Li  Li3  1  0.24998600  0.98325000  0.71557200  1
  Li  Li4  1  0.25033100  0.30168100  0.98302500  1
  Li  Li5  1  0.74966900  0.30168100  0.98302500  1
  Mn  Mn0  1  0.00000000  0.62747300  0.01217900  1
  Mn  Mn1  1  0.50000000  0.62729700  0.01227700  1
  Mn  Mn2  1  0.50000000  0.35951400  0.62806900  1
  Mn  Mn3  1  0.00000000  0.01230700  0.36012400  1
  Fe  Fe0  1  0.00000000  0.35940700  0.63297800  1
  Fe  Fe1  1  0.50000000  0.00697100  0.36015500  1
  B  B0  1  0.00000000  0.00036700  0.99695800  1
  B  B1  1  0.50000000  0.00225100  0.00060000  1
  B  B2  1  0.75012100  0.66661800  0.66577400  1
  B  B3  1  0.24987900  0.66661800  0.66577400  1
  B  B4  1  0.75000100  0.33209600  0.33478800  1
  B  B5  1  0.24999900  0.33209600  0.33478800  1
  O  O0  1  0.50000000  0.88879600  0.19511300  1
  O  O1  1  0.00000000  0.88818600  0.19033600  1
  O  O2  1  0.74613000  0.86044900  0.55795300  1
  O  O3  1  0.25387000  0.86044900  0.55795300  1
  O  O4  1  0.00000000  0.92039200  0.88325800  1
  O  O5  1  0.50000000  0.92080800  0.88818200  1
  O  O6  1  0.75435100  0.55851400  0.58007600  1
  O  O7  1  0.24564900  0.55851400  0.58007600  1
  O  O8  1  0.74972000  0.58113700  0.85906100  1
  O  O9  1  0.25028000  0.58113700  0.85906100  1
  O  O10  1  0.75037300  0.52623000  0.22233200  1
  O  O11  1  0.24962700  0.52623000  0.22233200  1
  O  O12  1  0.00000000  0.19516700  0.91584900  1
  O  O13  1  0.50000000  0.19571200  0.92104400  1
  O  O14  1  0.74753200  0.21968500  0.25310500  1
  O  O15  1  0.25246800  0.21968500  0.25310500  1
  O  O16  1  0.24791900  0.25183600  0.52795800  1
  O  O17  1  0.75208100  0.25183600  0.52795800  1
loop_
_geom_bond_atom_site_label_1
_geom_bond_atom_site_label_2
_geom_bond_distance
_geom_bond_site_symmetry_2
Li0 O10 1.978681 1_555
Li0 O6 2.000907 1_555
Li0 O1 2.015759 1_655
Li0 O0 2.019913 1_555
Li1 O11 1.978681 1_555
Li1 O7 2.000907 1_555
Li1 O1 2.015759 1_555
Li1 O0 2.019913 1_555
Li2 O17 1.973489 1_565
Li2 O4 1.996750 1_655
Li2 O2 2.010224 1_555
Li2 O5 2.020488 1_555
Li3 O16 1.973489 1_565
Li3 O4 1.996750 1_555
Li3 O3 2.010224 1_555
Li3 O5 2.020488 1_555
Li4 O15 1.984327 1_556
Li4 O13 1.995058 1_555
Li4 O9 2.003844 1_555
Li4 O12 2.021684 1_555
Li5 O14 1.984327 1_556
Li5 O13 1.995058 1_555
Li5 O8 2.003844 1_555
Li5 O12 2.021684 1_655
Mn0 O4 2.100917 1_554
Mn0 O8 2.179276 1_454
Mn0 O9 2.179276 1_554
Mn0 O11 2.185331 1_555
Mn0 O10 2.185331 1_455
Mn1 O5 2.108351 1_554
Mn1 O9 2.176558 1_554
Mn1 O8 2.176558 1_554
Mn1 O10 2.188291 1_555
Mn1 O11 2.188291 1_555
Mn2 O13 2.105110 1_555
Mn2 O17 2.182286 1_555
Mn2 O16 2.182286 1_555
Mn2 O6 2.192523 1_555
Mn2 O7 2.192523 1_555
Mn3 O1 2.109893 1_545
Mn3 O14 2.183273 1_455
Mn3 O15 2.183273 1_555
Mn3 O3 2.189727 1_545
Mn3 O2 2.189727 1_445
Fe0 O12 2.036602 1_555
Fe0 O7 2.145268 1_555
Fe0 O6 2.145268 1_455
Fe0 O16 2.186573 1_555
Fe0 O17 2.186573 1_455
Fe1 O0 2.034254 1_545
Fe1 O2 2.145240 1_545
Fe1 O3 2.145240 1_545
Fe1 O15 2.186626 1_555
Fe1 O14 2.186626 1_555
B0 O4 1.391794 1_545
B0 O1 1.392199 1_546
B0 O12 1.400214 1_555
B1 O13 1.391380 1_554
B1 O5 1.392003 1_544
B1 O0 1.400853 1_545
B2 O8 1.388438 1_555
B2 O6 1.388624 1_555
B2 O2 1.390647 1_555
B3 O9 1.388438 1_555
B3 O7 1.388624 1_555
B3 O3 1.390647 1_555
B4 O17 1.391085 1_555
B4 O14 1.393193 1_555
B4 O10 1.395587 1_555
B5 O16 1.391085 1_555
B5 O15 1.393193 1_555
B5 O11 1.395587 1_555
