# generated using pymatgen
data_Cr2Ni3Sb(PO4)6
_symmetry_space_group_name_H-M   'P 1'
_cell_length_a   8.41683188
_cell_length_b   8.41683188
_cell_length_c   8.41683218
_cell_angle_alpha   61.86728098
_cell_angle_beta   61.86728098
_cell_angle_gamma   61.86728017
_symmetry_Int_Tables_number   1
_chemical_formula_structural   Cr2Ni3Sb(PO4)6
_chemical_formula_sum   'Cr2 Ni3 Sb1 P6 O24'
_cell_volume   439.25636314
_cell_formula_units_Z   1
loop_
 _symmetry_equiv_pos_site_id
 _symmetry_equiv_pos_as_xyz
  1  'x, y, z'
loop_
 _atom_site_type_symbol
 _atom_site_label
 _atom_site_symmetry_multiplicity
 _atom_site_fract_x
 _atom_site_fract_y
 _atom_site_fract_z
 _atom_site_occupancy
  Cr  Cr0  1  0.99465200  0.99465200  0.99465200  1
  Cr  Cr1  1  0.50019200  0.50019200  0.50019200  1
  Ni  Ni0  1  0.85485500  0.85485500  0.85485500  1
  Ni  Ni1  1  0.64378800  0.64378800  0.64378800  1
  Ni  Ni2  1  0.35754400  0.35754400  0.35754400  1
  Sb  Sb0  1  0.14399700  0.14399700  0.14399700  1
  P  P0  1  0.25526900  0.55165800  0.94932900  1
  P  P1  1  0.74401200  0.45823600  0.05004200  1
  P  P2  1  0.45823600  0.05004200  0.74401200  1
  P  P3  1  0.05004200  0.74401200  0.45823600  1
  P  P4  1  0.94932900  0.25526900  0.55165800  1
  P  P5  1  0.55165800  0.94932900  0.25526900  1
  O  O0  1  0.89796200  0.67907200  0.48587400  1
  O  O1  1  0.67907200  0.48587400  0.89796200  1
  O  O2  1  0.93587300  0.09622600  0.74959000  1
  O  O3  1  0.48587400  0.89796200  0.67907200  1
  O  O4  1  0.98873700  0.17874800  0.39272300  1
  O  O5  1  0.74742000  0.40207000  0.56153900  1
  O  O6  1  0.74959000  0.93587300  0.09622600  1
  O  O7  1  0.56153900  0.74742000  0.40207000  1
  O  O8  1  0.82486300  0.60310400  0.01148700  1
  O  O9  1  0.40207000  0.56153900  0.74742000  1
  O  O10  1  0.90844300  0.24579700  0.06474000  1
  O  O11  1  0.60310400  0.01148700  0.82486300  1
  O  O12  1  0.39272300  0.98873700  0.17874800  1
  O  O13  1  0.09622600  0.74959000  0.93587300  1
  O  O14  1  0.59973200  0.43269600  0.25516000  1
  O  O15  1  0.17874800  0.39272300  0.98873700  1
  O  O16  1  0.43269600  0.25516000  0.59973200  1
  O  O17  1  0.24579700  0.06474000  0.90844300  1
  O  O18  1  0.25516000  0.59973200  0.43269600  1
  O  O19  1  0.01148700  0.82486300  0.60310400  1
  O  O20  1  0.50435300  0.10407000  0.32614700  1
  O  O21  1  0.06474000  0.90844300  0.24579700  1
  O  O22  1  0.32614700  0.50435300  0.10407000  1
  O  O23  1  0.10407000  0.32614700  0.50435300  1
loop_
_geom_bond_atom_site_label_1
_geom_bond_atom_site_label_2
_geom_bond_distance
_geom_bond_site_symmetry_2
Cr0 O13 2.032406 1_655
Cr0 O6 2.032406 1_556
Cr0 O2 2.032406 1_565
Cr0 O17 2.160719 1_665
Cr0 O10 2.160719 1_566
Cr0 O21 2.160719 1_656
Cr1 O5 2.066202 1_555
Cr1 O7 2.066202 1_555
Cr1 O9 2.066202 1_555
Cr1 O16 2.074784 1_555
Cr1 O18 2.074784 1_555
Cr1 O14 2.074784 1_555
Ni0 O11 1.961611 1_565
Ni0 O8 1.961611 1_556
Ni0 O19 1.961611 1_655
Ni0 O2 2.101563 1_565
Ni0 O13 2.101563 1_655
Ni0 O6 2.101563 1_556
Ni1 O3 1.994241 1_555
Ni1 O0 1.994241 1_555
Ni1 O1 1.994241 1_555
Ni1 O9 2.112941 1_555
Ni1 O5 2.112941 1_555
Ni1 O7 2.112941 1_555
Ni2 O20 1.971293 1_555
Ni2 O23 1.971293 1_555
Ni2 O22 1.971293 1_555
Ni2 O14 2.084076 1_555
Ni2 O18 2.084076 1_555
Ni2 O16 2.084076 1_555
O0 P3 1.500146 1_655
O1 P1 1.500146 1_556
O2 P4 1.562745 1_555
O3 P2 1.500146 1_565
O4 P4 1.583339 1_555
O4 Sb0 1.952700 1_655
O5 P4 1.550847 1_555
O6 P5 1.562745 1_555
O7 P5 1.550847 1_555
O8 P1 1.502086 1_555
O9 P0 1.550847 1_555
O10 P1 1.657431 1_555
O10 Sb0 2.053333 1_655
O11 P2 1.502086 1_555
O12 P5 1.583339 1_555
O12 Sb0 1.952700 1_565
O13 P0 1.562745 1_555
O14 P1 1.555832 1_555
O15 P0 1.583339 1_555
O15 Sb0 1.952700 1_556
O16 P2 1.555832 1_555
O17 P2 1.657431 1_555
O17 Sb0 2.053333 1_556
O18 P3 1.555832 1_555
O19 P3 1.502086 1_555
O20 P5 1.493466 1_545
O21 P3 1.657431 1_555
O21 Sb0 2.053333 1_565
O22 P0 1.493466 1_554
O23 P4 1.493466 1_455
