# generated using pymatgen
data_Mn2PO5
_symmetry_space_group_name_H-M   'P 1'
_cell_length_a   7.32119205
_cell_length_b   7.32119205
_cell_length_c   7.32119205
_cell_angle_alpha   135.25666396
_cell_angle_beta   135.25666396
_cell_angle_gamma   65.13166227
_symmetry_Int_Tables_number   1
_chemical_formula_structural   Mn2PO5
_chemical_formula_sum   'Mn4 P2 O10'
_cell_volume   191.63899006
_cell_formula_units_Z   2
loop_
 _symmetry_equiv_pos_site_id
 _symmetry_equiv_pos_as_xyz
  1  'x, y, z'
loop_
 _atom_site_type_symbol
 _atom_site_label
 _atom_site_symmetry_multiplicity
 _atom_site_fract_x
 _atom_site_fract_y
 _atom_site_fract_z
 _atom_site_occupancy
  Mn  Mn0  1  0.37500000  0.62500000  0.25000000  1
  Mn  Mn1  1  0.37500000  0.62500000  0.75000000  1
  Mn  Mn2  1  0.87500000  0.62500000  0.25000000  1
  Mn  Mn3  1  0.37500000  0.12500000  0.75000000  1
  P  P0  1  0.00000000  0.00000000  0.00000000  1
  P  P1  1  0.75000000  0.25000000  0.50000000  1
  O  O0  1  0.68156700  0.41528200  0.73371600  1
  O  O1  1  0.16528200  0.93156700  0.23371600  1
  O  O2  1  0.25000000  0.75000000  0.50000000  1
  O  O3  1  0.69785100  0.93156700  0.76628400  1
  O  O4  1  0.06843300  0.30214900  0.23371600  1
  O  O5  1  0.68156700  0.94785100  0.26628400  1
  O  O6  1  0.58471800  0.31843300  0.26628400  1
  O  O7  1  0.05214900  0.31843300  0.73371600  1
  O  O8  1  0.50000000  0.50000000  0.00000000  1
  O  O9  1  0.06843300  0.83471800  0.76628400  1
loop_
_geom_bond_atom_site_label_1
_geom_bond_atom_site_label_2
_geom_bond_distance
_geom_bond_site_symmetry_2
Mn0 O8 2.078604 1_555
Mn0 O2 2.078604 1_555
Mn0 O3 2.151930 1_555
Mn0 O7 2.151930 1_554
Mn0 O6 2.151931 1_555
Mn0 O1 2.151931 1_555
Mn1 O8 2.078604 1_556
Mn1 O2 2.078604 1_555
Mn1 O4 2.151930 1_555
Mn1 O5 2.151930 1_556
Mn1 O0 2.151931 1_555
Mn1 O9 2.151931 1_555
Mn2 O8 2.078604 1_555
Mn2 O2 2.078604 1_655
Mn2 O0 2.151928 1_554
Mn2 O9 2.151928 1_655
Mn2 O5 2.151930 1_555
Mn2 O4 2.151930 1_655
Mn3 O8 2.078604 1_556
Mn3 O2 2.078604 1_545
Mn3 O1 2.151928 1_545
Mn3 O6 2.151928 1_556
Mn3 O7 2.151930 1_555
Mn3 O3 2.151930 1_545
O0 P1 1.552321 1_555
O1 P0 1.552321 1_565
O3 P0 1.552320 1_666
O4 P0 1.552320 1_555
O5 P1 1.552320 1_565
O6 P1 1.552321 1_555
O7 P1 1.552320 1_455
O9 P0 1.552321 1_566
