# generated using pymatgen
data_Li4Ti3Fe5O16
_symmetry_space_group_name_H-M   'P 1'
_cell_length_a   5.94536400
_cell_length_b   5.94678478
_cell_length_c   9.62622044
_cell_angle_alpha   89.52696818
_cell_angle_beta   89.47927147
_cell_angle_gamma   60.09695807
_symmetry_Int_Tables_number   1
_chemical_formula_structural   Li4Ti3Fe5O16
_chemical_formula_sum   'Li4 Ti3 Fe5 O16'
_cell_volume   295.01808610
_cell_formula_units_Z   1
loop_
 _symmetry_equiv_pos_site_id
 _symmetry_equiv_pos_as_xyz
  1  'x, y, z'
loop_
 _atom_site_type_symbol
 _atom_site_label
 _atom_site_symmetry_multiplicity
 _atom_site_fract_x
 _atom_site_fract_y
 _atom_site_fract_z
 _atom_site_occupancy
  Li  Li0  1  0.33645600  0.32793400  0.10792500  1
  Li  Li1  1  0.99155700  0.00390100  0.00416600  1
  Li  Li2  1  0.99648500  0.00317900  0.50296400  1
  Li  Li3  1  0.66654300  0.66603100  0.60452400  1
  Ti  Ti0  1  0.17093000  0.16800600  0.78613500  1
  Ti  Ti1  1  0.17255300  0.65989400  0.78409700  1
  Ti  Ti2  1  0.34104500  0.82944900  0.28438900  1
  Fe  Fe0  1  0.33513700  0.33559300  0.50850800  1
  Fe  Fe1  1  0.66088000  0.16794600  0.78679200  1
  Fe  Fe2  1  0.67153100  0.66326100  0.01040500  1
  Fe  Fe3  1  0.83155700  0.33938700  0.28594800  1
  Fe  Fe4  1  0.83093300  0.83044300  0.28619500  1
  O  O0  1  0.16709600  0.16327800  0.39864300  1
  O  O1  1  0.03829400  0.48254500  0.66539300  1
  O  O2  1  0.32014000  0.33801200  0.89693100  1
  O  O3  1  0.00678100  0.99702000  0.68945300  1
  O  O4  1  0.00817600  0.99585000  0.18962000  1
  O  O5  1  0.17019800  0.67333300  0.40042400  1
  O  O6  1  0.47264800  0.04104400  0.66153000  1
  O  O7  1  0.47289600  0.48833300  0.66274600  1
  O  O8  1  0.32669700  0.83529800  0.89695100  1
  O  O9  1  0.67404000  0.17105600  0.39912400  1
  O  O10  1  0.51811100  0.51907100  0.16255900  1
  O  O11  1  0.51477900  0.95840000  0.15975400  1
  O  O12  1  0.65590000  0.67426100  0.39760600  1
  O  O13  1  0.84260700  0.32620500  0.89727100  1
  O  O14  1  0.96313400  0.51144800  0.16252800  1
  O  O15  1  0.84289700  0.82952000  0.89958300  1
loop_
_geom_bond_atom_site_label_1
_geom_bond_atom_site_label_2
_geom_bond_distance
_geom_bond_site_symmetry_2
Li0 O11 1.967393 1_545
Li0 O14 1.991667 1_455
Li0 O10 1.994783 1_555
Li0 O2 2.033234 1_554
Li1 O4 1.787777 1_645
Li1 O13 1.951494 1_554
Li1 O15 1.953802 1_544
Li1 O8 2.007091 1_644
Li2 O3 1.796233 1_645
Li2 O9 1.944490 1_555
Li2 O0 1.967839 1_655
Li2 O5 1.970299 1_645
Li3 O7 1.986915 1_555
Li3 O12 1.992840 1_555
Li3 O1 2.006812 1_655
Li3 O6 2.012183 1_565
Fe0 O5 2.024437 1_555
Fe0 O9 2.034368 1_555
Fe0 O0 2.055365 1_555
Fe0 O6 2.111352 1_555
Fe0 O7 2.118107 1_555
Fe0 O1 2.143518 1_555
Fe1 O3 2.009196 1_645
Fe1 O6 2.038991 1_555
Fe1 O7 2.041707 1_555
Fe1 O2 2.046147 1_555
Fe1 O15 2.052811 1_545
Fe1 O13 2.057996 1_555
Fe2 O15 2.029980 1_554
Fe2 O13 2.054595 1_554
Fe2 O8 2.091300 1_554
Fe2 O11 2.098167 1_555
Fe2 O14 2.104478 1_555
Fe2 O10 2.108865 1_555
Fe3 O14 1.957430 1_555
Fe3 O9 1.991019 1_555
Fe3 O4 2.002681 1_645
Fe3 O10 2.014754 1_555
Fe3 O12 2.037896 1_555
Fe3 O0 2.047135 1_655
Fe4 O4 1.985656 1_655
Fe4 O12 2.005665 1_555
Fe4 O14 2.041364 1_555
Fe4 O11 2.047866 1_555
Fe4 O9 2.070931 1_565
Fe4 O5 2.072408 1_655
O0 Ti2 2.046596 1_545
O1 Ti1 1.982676 1_555
O1 Ti0 1.995391 1_555
O2 Ti0 1.968707 1_555
O2 Ti1 1.980411 1_555
O3 Ti1 1.958760 1_555
O3 Ti0 1.968268 1_565
O4 Ti2 1.947639 1_555
O5 Ti2 2.010917 1_555
O6 Ti0 1.962662 1_555
O7 Ti1 1.938897 1_555
O8 Ti0 2.016526 1_565
O8 Ti1 2.024354 1_555
O10 Ti2 1.991564 1_555
O11 Ti2 1.961232 1_555
O12 Ti2 1.959993 1_555
O13 Ti0 1.996879 1_655
O15 Ti1 2.025433 1_655
