# generated using pymatgen
data_KAlP2H4O9
_symmetry_space_group_name_H-M   'P 1'
_cell_length_a   9.20816300
_cell_length_b   10.11100200
_cell_length_c   16.38954732
_cell_angle_alpha   79.93871761
_cell_angle_beta   90.00000000
_cell_angle_gamma   90.00000000
_symmetry_Int_Tables_number   1
_chemical_formula_structural   KAlP2H4O9
_chemical_formula_sum   'K8 Al8 P16 H32 O72'
_cell_volume   1502.46183839
_cell_formula_units_Z   8
loop_
 _symmetry_equiv_pos_site_id
 _symmetry_equiv_pos_as_xyz
  1  'x, y, z'
loop_
 _atom_site_type_symbol
 _atom_site_label
 _atom_site_symmetry_multiplicity
 _atom_site_fract_x
 _atom_site_fract_y
 _atom_site_fract_z
 _atom_site_occupancy
  K  K0  1  0.94695700  0.89082500  0.88897900  1
  K  K1  1  0.44695700  0.10917500  0.61102100  1
  K  K2  1  0.05304300  0.10917500  0.11102100  1
  K  K3  1  0.55304300  0.89082500  0.38897900  1
  K  K4  1  0.15554000  0.22827700  0.77072800  1
  K  K5  1  0.65554000  0.77172300  0.72927200  1
  K  K6  1  0.84446000  0.77172300  0.22927200  1
  K  K7  1  0.34446000  0.22827700  0.27072800  1
  Al  Al0  1  0.31211000  0.58988700  0.80432700  1
  Al  Al1  1  0.81211000  0.41011300  0.69567300  1
  Al  Al2  1  0.68789000  0.41011300  0.19567300  1
  Al  Al3  1  0.18789000  0.58988700  0.30432700  1
  Al  Al4  1  0.58275100  0.07288000  0.85094000  1
  Al  Al5  1  0.08275100  0.92712000  0.64906000  1
  Al  Al6  1  0.41724900  0.92712000  0.14906000  1
  Al  Al7  1  0.91724900  0.07288000  0.35094000  1
  P  P0  1  0.83009400  0.28632300  0.89096200  1
  P  P1  1  0.33009400  0.71367700  0.60903800  1
  P  P2  1  0.16990600  0.71367700  0.10903800  1
  P  P3  1  0.66990600  0.28632300  0.39096200  1
  P  P4  1  0.98400200  0.64206000  0.76111100  1
  P  P5  1  0.48400200  0.35794000  0.73888900  1
  P  P6  1  0.01599800  0.35794000  0.23888900  1
  P  P7  1  0.51599800  0.64206000  0.26111100  1
  P  P8  1  0.30591700  0.90266800  0.80328100  1
  P  P9  1  0.80591700  0.09733200  0.69671900  1
  P  P10  1  0.69408300  0.09733200  0.19671900  1
  P  P11  1  0.19408300  0.90266800  0.30328100  1
  P  P12  1  0.63796300  0.83134700  0.00832300  1
  P  P13  1  0.13796300  0.16865300  0.49167700  1
  P  P14  1  0.36203700  0.16865300  0.99167700  1
  P  P15  1  0.86203700  0.83134700  0.50832300  1
  H  H0  1  0.57422900  0.52421500  0.86235900  1
  H  H1  1  0.07422900  0.47578500  0.63764100  1
  H  H2  1  0.42577100  0.47578500  0.13764100  1
  H  H3  1  0.92577100  0.52421500  0.36235900  1
  H  H4  1  0.51379700  0.64000600  0.90888100  1
  H  H5  1  0.01379700  0.35999400  0.59111900  1
  H  H6  1  0.48620300  0.35999400  0.09111900  1
  H  H7  1  0.98620300  0.64000600  0.40888100  1
  H  H8  1  0.22271700  0.55475100  0.96242700  1
  H  H9  1  0.72271700  0.44524900  0.53757300  1
  H  H10  1  0.77728300  0.44524900  0.03757300  1
  H  H11  1  0.27728300  0.55475100  0.46242700  1
  H  H12  1  0.75972800  0.59003800  0.06664900  1
  H  H13  1  0.25972800  0.40996200  0.43335100  1
  H  H14  1  0.24027200  0.40996200  0.93335100  1
  H  H15  1  0.74027200  0.59003800  0.56664900  1
  H  H16  1  0.04818600  0.21045900  0.94155100  1
  H  H17  1  0.54818600  0.78954100  0.55844900  1
  H  H18  1  0.95181400  0.78954100  0.05844900  1
  H  H19  1  0.45181400  0.21045900  0.44155100  1
  H  H20  1  0.89121300  0.54100100  0.88372600  1
  H  H21  1  0.39121300  0.45899900  0.61627400  1
  H  H22  1  0.10878700  0.45899900  0.11627400  1
  H  H23  1  0.60878700  0.54100100  0.38372600  1
  H  H24  1  0.70330300  0.97943400  0.10071600  1
  H  H25  1  0.20330300  0.02056600  0.39928400  1
  H  H26  1  0.29669700  0.02056600  0.89928400  1
  H  H27  1  0.79669700  0.97943400  0.60071600  1
  H  H28  1  0.42852800  0.73516100  0.02966900  1
  H  H29  1  0.92852800  0.26483900  0.47033100  1
  H  H30  1  0.57147200  0.26483900  0.97033100  1
  H  H31  1  0.07147200  0.73516100  0.52966900  1
  O  O0  1  0.82165000  0.40671100  0.93568600  1
  O  O1  1  0.32165000  0.59328900  0.56431400  1
  O  O2  1  0.17835000  0.59328900  0.06431400  1
  O  O3  1  0.67835000  0.40671100  0.43568600  1
  O  O4  1  0.94695900  0.17660800  0.93461700  1
  O  O5  1  0.44695900  0.82339200  0.56538300  1
  O  O6  1  0.05304100  0.82339200  0.06538300  1
  O  O7  1  0.55304100  0.17660800  0.43461700  1
  O  O8  1  0.88372000  0.32565300  0.80074400  1
  O  O9  1  0.38372000  0.67434700  0.69925600  1
  O  O10  1  0.11628000  0.67434700  0.19925600  1
  O  O11  1  0.61628000  0.32565300  0.30074400  1
  O  O12  1  0.68439100  0.20864000  0.89916700  1
  O  O13  1  0.18439100  0.79136000  0.60083300  1
  O  O14  1  0.31560900  0.79136000  0.10083300  1
  O  O15  1  0.81560900  0.20864000  0.39916700  1
  O  O16  1  0.12839500  0.56660900  0.76113400  1
  O  O17  1  0.62839500  0.43339100  0.73886600  1
  O  O18  1  0.87160500  0.43339100  0.23886600  1
  O  O19  1  0.37160500  0.56660900  0.26113400  1
  O  O20  1  0.87139200  0.58012000  0.70924400  1
  O  O21  1  0.37139200  0.41988000  0.79075600  1
  O  O22  1  0.12860800  0.41988000  0.29075600  1
  O  O23  1  0.62860800  0.58012000  0.20924400  1
  O  O24  1  0.99375700  0.79390700  0.73122700  1
  O  O25  1  0.49375700  0.20609300  0.76877300  1
  O  O26  1  0.00624300  0.20609300  0.26877300  1
  O  O27  1  0.50624300  0.79390700  0.23122700  1
  O  O28  1  0.92144200  0.63364600  0.85260700  1
  O  O29  1  0.42144200  0.36635400  0.64739300  1
  O  O30  1  0.07855800  0.36635400  0.14739300  1
  O  O31  1  0.57855800  0.63364600  0.35260700  1
  O  O32  1  0.21965200  0.97918300  0.86618400  1
  O  O33  1  0.71965200  0.02081700  0.63381600  1
  O  O34  1  0.78034800  0.02081700  0.13381600  1
  O  O35  1  0.28034800  0.97918300  0.36618400  1
  O  O36  1  0.27907700  0.75350900  0.83530800  1
  O  O37  1  0.77907700  0.24649100  0.66469200  1
  O  O38  1  0.72092300  0.24649100  0.16469200  1
  O  O39  1  0.22092300  0.75350900  0.33530800  1
  O  O40  1  0.46649500  0.94236300  0.80504600  1
  O  O41  1  0.96649500  0.05763700  0.69495400  1
  O  O42  1  0.53350500  0.05763700  0.19495400  1
  O  O43  1  0.03350500  0.94236300  0.30504600  1
  O  O44  1  0.23982300  0.95372400  0.71758600  1
  O  O45  1  0.73982300  0.04627600  0.78241400  1
  O  O46  1  0.76017700  0.04627600  0.28241400  1
  O  O47  1  0.26017700  0.95372400  0.21758600  1
  O  O48  1  0.51678200  0.72189800  0.99542000  1
  O  O49  1  0.01678200  0.27810200  0.50458000  1
  O  O50  1  0.48321800  0.27810200  0.00458000  1
  O  O51  1  0.98321800  0.72189800  0.49542000  1
  O  O52  1  0.77789900  0.75648000  0.03827000  1
  O  O53  1  0.27789900  0.24352000  0.46173000  1
  O  O54  1  0.22210100  0.24352000  0.96173000  1
  O  O55  1  0.72210100  0.75648000  0.53827000  1
  O  O56  1  0.57351200  0.90837800  0.07374400  1
  O  O57  1  0.07351200  0.09162200  0.42625600  1
  O  O58  1  0.42648800  0.09162200  0.92625600  1
  O  O59  1  0.92648800  0.90837800  0.57374400  1
  O  O60  1  0.66562100  0.92639800  0.92669800  1
  O  O61  1  0.16562100  0.07360200  0.57330200  1
  O  O62  1  0.33437900  0.07360200  0.07330200  1
  O  O63  1  0.83437900  0.92639800  0.42669800  1
  O  O64  1  0.51651400  0.60640000  0.85528800  1
  O  O65  1  0.01651400  0.39360000  0.64471200  1
  O  O66  1  0.48348600  0.39360000  0.14471200  1
  O  O67  1  0.98348600  0.60640000  0.35528800  1
  O  O68  1  0.25002400  0.50950800  0.91564000  1
  O  O69  1  0.75002400  0.49049200  0.58436000  1
  O  O70  1  0.74997600  0.49049200  0.08436000  1
  O  O71  1  0.24997600  0.50950800  0.41564000  1
loop_
_geom_bond_atom_site_label_1
_geom_bond_atom_site_label_2
_geom_bond_distance
_geom_bond_site_symmetry_2
K0 O32 2.669517 1_655
K0 O60 2.701920 1_555
K0 O28 2.777396 1_555
K0 O45 2.863495 1_565
K0 O24 2.952282 1_555
K0 O6 3.014839 1_656
K0 O52 3.015642 1_556
K0 O4 3.108726 1_565
K0 O41 3.333974 1_565
K1 O33 2.669517 1_555
K1 O61 2.701920 1_555
K1 O29 2.777396 1_555
K1 O44 2.863495 1_545
K1 O25 2.952282 1_555
K1 O7 3.014839 1_555
K1 O53 3.015642 1_555
K1 O5 3.108726 1_545
K1 O40 3.333974 1_545
K2 O34 2.669517 1_455
K2 O62 2.701920 1_555
K2 O30 2.777396 1_555
K2 O47 2.863495 1_545
K2 O26 2.952282 1_555
K2 O4 3.014839 1_454
K2 O54 3.015642 1_554
K2 O6 3.108726 1_545
K2 O43 3.333974 1_545
K3 O35 2.669517 1_555
K3 O63 2.701920 1_555
K3 O31 2.777396 1_555
K3 O46 2.863495 1_565
K3 O27 2.952282 1_555
K3 O5 3.014839 1_555
K3 O55 3.015642 1_555
K3 O7 3.108726 1_565
K3 O42 3.333974 1_565
K4 O65 2.737226 1_555
K4 O8 2.765040 1_455
K4 O32 2.786156 1_545
K4 O21 2.834364 1_555
K4 O41 2.880629 1_455
K5 O64 2.737226 1_555
K5 O9 2.765040 1_555
K5 O33 2.786156 1_565
K5 O20 2.834364 1_555
K5 O40 2.880629 1_555
K6 O67 2.737226 1_555
K6 O10 2.765040 1_655
K6 O34 2.786156 1_565
K6 O23 2.834364 1_555
K6 O43 2.880629 1_655
K7 O66 2.737226 1_555
K7 O11 2.765040 1_555
K7 O35 2.786156 1_545
K7 O22 2.834364 1_555
K7 O42 2.880629 1_555
Al0 O36 1.838706 1_555
Al0 O21 1.853591 1_555
Al0 O16 1.864545 1_555
Al0 O9 1.901514 1_555
Al0 O68 1.948746 1_555
Al0 O64 2.077698 1_555
Al1 O37 1.838706 1_555
Al1 O20 1.853591 1_555
Al1 O17 1.864545 1_555
Al1 O8 1.901514 1_555
Al1 O69 1.948746 1_555
Al1 O65 2.077698 1_655
Al2 O38 1.838706 1_555
Al2 O23 1.853591 1_555
Al2 O18 1.864545 1_555
Al2 O11 1.901514 1_555
Al2 O70 1.948746 1_555
Al2 O66 2.077698 1_555
Al3 O39 1.838706 1_555
Al3 O22 1.853591 1_555
Al3 O19 1.864545 1_555
Al3 O10 1.901514 1_555
Al3 O71 1.948746 1_555
Al3 O67 2.077698 1_455
Al4 O45 1.879150 1_555
Al4 O25 1.914548 1_555
Al4 O60 1.917033 1_545
Al4 O58 1.926601 1_555
Al4 O12 1.940109 1_555
Al4 O40 1.949379 1_545
Al5 O44 1.879150 1_555
Al5 O24 1.914548 1_455
Al5 O61 1.917033 1_565
Al5 O59 1.926601 1_455
Al5 O13 1.940109 1_555
Al5 O41 1.949379 1_465
Al6 O47 1.879150 1_555
Al6 O27 1.914548 1_555
Al6 O62 1.917033 1_565
Al6 O56 1.926601 1_555
Al6 O14 1.940109 1_555
Al6 O42 1.949379 1_565
Al7 O46 1.879150 1_555
Al7 O26 1.914548 1_655
Al7 O63 1.917033 1_545
Al7 O57 1.926601 1_655
Al7 O15 1.940109 1_555
Al7 O43 1.949379 1_645
H0 O64 0.976082 1_555
H1 O65 0.976082 1_555
H2 O66 0.976082 1_555
H3 O67 0.976082 1_555
H4 O64 0.995937 1_555
H5 O65 0.995937 1_555
H6 O66 0.995937 1_555
H7 O67 0.995937 1_555
H8 O68 0.991495 1_555
H9 O69 0.991495 1_555
H10 O70 0.991495 1_555
H11 O71 0.991495 1_555
H12 O70 1.001650 1_555
H12 O52 1.674209 1_555
H13 O71 1.001650 1_555
H13 O53 1.674209 1_555
H14 O68 1.001650 1_555
H14 O54 1.674209 1_555
H15 O69 1.001650 1_555
H15 O55 1.674209 1_555
H16 O4 1.006226 1_455
H16 O54 1.680581 1_555
H16 K2 2.787760 1_556
H17 O5 1.006226 1_555
H17 O55 1.680581 1_555
H17 K3 2.787760 1_555
H18 O6 1.006226 1_655
H18 O52 1.680581 1_555
H18 K0 2.787760 1_554
H19 O7 1.006226 1_555
H19 O53 1.680581 1_555
H19 K1 2.787760 1_555
H20 O28 1.023791 1_555
H20 O0 1.604726 1_555
H21 O29 1.023791 1_555
H21 O1 1.604726 1_555
H22 O30 1.023791 1_555
H22 O2 1.604726 1_555
H23 O31 1.023791 1_555
H23 O3 1.604726 1_555
H24 O34 1.025670 1_565
H24 O56 1.500301 1_555
H25 O35 1.025670 1_545
H25 O57 1.500301 1_555
H26 O32 1.025670 1_545
H26 O58 1.500301 1_555
H27 O33 1.025670 1_565
H27 O59 1.500301 1_555
H28 O48 1.009843 1_554
H28 O14 1.730881 1_555
H29 O49 1.009843 1_655
H29 O15 1.730881 1_555
H30 O50 1.009843 1_556
H30 O12 1.730881 1_555
H31 O51 1.009843 1_455
H31 O13 1.730881 1_555
O0 P0 1.528652 1_555
O1 P1 1.528652 1_555
O2 P2 1.528652 1_555
O3 P3 1.528652 1_555
O4 P0 1.619637 1_555
O5 P1 1.619637 1_555
O6 P2 1.619637 1_555
O7 P3 1.619637 1_555
O8 P0 1.543657 1_555
O9 P1 1.543657 1_555
O10 P2 1.543657 1_555
O11 P3 1.543657 1_555
O12 P0 1.548599 1_555
O13 P1 1.548599 1_555
O14 P2 1.548599 1_555
O15 P3 1.548599 1_555
O16 P4 1.532878 1_455
O17 P5 1.532878 1_555
O18 P6 1.532878 1_655
O19 P7 1.532878 1_555
O20 P4 1.541458 1_555
O21 P5 1.541458 1_555
O22 P6 1.541458 1_555
O23 P7 1.541458 1_555
O24 P4 1.530503 1_555
O25 P5 1.530503 1_555
O26 P6 1.530503 1_555
O27 P7 1.530503 1_555
O28 P4 1.594755 1_555
O29 P5 1.594755 1_555
O30 P6 1.594755 1_555
O31 P7 1.594755 1_555
O32 P8 1.603448 1_555
O33 P9 1.603448 1_555
O34 P10 1.603448 1_555
O35 P11 1.603448 1_555
O36 P8 1.527913 1_555
O37 P9 1.527913 1_555
O38 P10 1.527913 1_555
O39 P11 1.527913 1_555
O40 P8 1.533728 1_555
O41 P9 1.533728 1_555
O42 P10 1.533728 1_555
O43 P11 1.533728 1_555
O44 P8 1.534987 1_555
O45 P9 1.534987 1_555
O46 P10 1.534987 1_555
O47 P11 1.534987 1_555
O48 P12 1.611295 1_556
O49 P13 1.611295 1_555
O50 P14 1.611295 1_554
O51 P15 1.611295 1_555
O52 P12 1.531168 1_555
O53 P13 1.531168 1_555
O54 P14 1.531168 1_555
O55 P15 1.531168 1_555
O56 P12 1.549285 1_555
O57 P13 1.549285 1_555
O58 P14 1.549285 1_555
O59 P15 1.549285 1_555
O60 P12 1.526097 1_556
O61 P13 1.526097 1_555
O62 P14 1.526097 1_554
O63 P15 1.526097 1_555
