# generated using pymatgen
data_Sr2CrCO3F5
_symmetry_space_group_name_H-M   'P 1'
_cell_length_a   8.97886500
_cell_length_b   5.59325500
_cell_length_c   13.85508264
_cell_angle_alpha   74.51555067
_cell_angle_beta   90.00000000
_cell_angle_gamma   90.00000000
_symmetry_Int_Tables_number   1
_chemical_formula_structural   Sr2CrCO3F5
_chemical_formula_sum   'Sr8 Cr4 C4 O12 F20'
_cell_volume   670.56112161
_cell_formula_units_Z   4
loop_
 _symmetry_equiv_pos_site_id
 _symmetry_equiv_pos_as_xyz
  1  'x, y, z'
loop_
 _atom_site_type_symbol
 _atom_site_label
 _atom_site_symmetry_multiplicity
 _atom_site_fract_x
 _atom_site_fract_y
 _atom_site_fract_z
 _atom_site_occupancy
  Sr  Sr0  1  0.89183900  0.69146600  0.09721300  1
  Sr  Sr1  1  0.35810100  0.69349000  0.08785900  1
  Sr  Sr2  1  0.85810100  0.30651000  0.41214100  1
  Sr  Sr3  1  0.39183900  0.30853400  0.40278700  1
  Sr  Sr4  1  0.60816100  0.69146600  0.59721300  1
  Sr  Sr5  1  0.14189900  0.69349000  0.58785900  1
  Sr  Sr6  1  0.64189900  0.30651000  0.91214100  1
  Sr  Sr7  1  0.10816100  0.30853400  0.90278700  1
  Cr  Cr0  1  0.87176400  0.19678900  0.66977000  1
  Cr  Cr1  1  0.37176400  0.80321100  0.83023000  1
  Cr  Cr2  1  0.62823600  0.19678900  0.16977000  1
  Cr  Cr3  1  0.12823600  0.80321100  0.33023000  1
  C  C0  1  0.37559900  0.17860900  0.63702400  1
  C  C1  1  0.87559900  0.82139100  0.86297600  1
  C  C2  1  0.12440100  0.17860900  0.13702400  1
  C  C3  1  0.62440100  0.82139100  0.36297600  1
  O  O0  1  0.37917800  0.41057600  0.58515400  1
  O  O1  1  0.37073000  0.13206800  0.73374100  1
  O  O2  1  0.87703900  0.99446300  0.90931000  1
  O  O3  1  0.12082200  0.41057600  0.08515400  1
  O  O4  1  0.37703900  0.00553700  0.59069000  1
  O  O5  1  0.87073000  0.86793200  0.76625900  1
  O  O6  1  0.12927000  0.13206800  0.23374100  1
  O  O7  1  0.62296100  0.99446300  0.40931000  1
  O  O8  1  0.87917800  0.58942400  0.91484600  1
  O  O9  1  0.12296100  0.00553700  0.09069000  1
  O  O10  1  0.62927000  0.86793200  0.26625900  1
  O  O11  1  0.62082200  0.58942400  0.41484600  1
  F  F0  1  0.96442300  0.66900600  0.27114200  1
  F  F1  1  0.28091900  0.66431000  0.26294300  1
  F  F2  1  0.12916000  0.47715200  0.43341500  1
  F  F3  1  0.62916000  0.52284800  0.06658500  1
  F  F4  1  0.51243000  0.91807300  0.91500600  1
  F  F5  1  0.71720400  0.10393700  0.58664800  1
  F  F6  1  0.78091900  0.33569000  0.23705700  1
  F  F7  1  0.46442300  0.33099400  0.22885800  1
  F  F8  1  0.21720400  0.89606300  0.91335200  1
  F  F9  1  0.01243000  0.08192700  0.58499400  1
  F  F10  1  0.98757000  0.91807300  0.41500600  1
  F  F11  1  0.78279600  0.10393700  0.08664800  1
  F  F12  1  0.53557700  0.66900600  0.77114200  1
  F  F13  1  0.21908100  0.66431000  0.76294300  1
  F  F14  1  0.28279600  0.89606300  0.41335200  1
  F  F15  1  0.48757000  0.08192700  0.08499400  1
  F  F16  1  0.37084000  0.47715200  0.93341500  1
  F  F17  1  0.87084000  0.52284800  0.56658500  1
  F  F18  1  0.71908100  0.33569000  0.73705700  1
  F  F19  1  0.03557700  0.33099400  0.72885800  1
loop_
_geom_bond_atom_site_label_1
_geom_bond_atom_site_label_2
_geom_bond_distance
_geom_bond_site_symmetry_2
Cr0 F19 1.930085 1_655
Cr0 F18 1.933615 1_555
Cr0 F9 1.946928 1_655
Cr0 F5 1.959929 1_555
Cr0 O5 1.964082 1_545
Cr0 F17 1.994433 1_555
Cr1 F12 1.930085 1_555
Cr1 F13 1.933615 1_555
Cr1 F4 1.946928 1_555
Cr1 F8 1.959929 1_555
Cr1 O1 1.964082 1_565
Cr1 F16 1.994433 1_555
Cr2 F7 1.930085 1_555
Cr2 F6 1.933615 1_555
Cr2 F15 1.946928 1_555
Cr2 F11 1.959929 1_555
Cr2 O10 1.964082 1_545
Cr2 F3 1.994433 1_555
Cr3 F0 1.930085 1_455
Cr3 F1 1.933615 1_555
Cr3 F10 1.946928 1_455
Cr3 F14 1.959929 1_555
Cr3 O6 1.964082 1_565
Cr3 F2 1.994433 1_555
C0 O1 1.295792 1_555
C0 O4 1.296609 1_555
C0 O0 1.304995 1_555
C1 O5 1.295792 1_555
C1 O2 1.296609 1_555
C1 O8 1.304995 1_555
C2 O6 1.295792 1_555
C2 O9 1.296609 1_555
C2 O3 1.304995 1_555
C3 O10 1.295792 1_555
C3 O7 1.296609 1_555
C3 O11 1.304995 1_555
O0 Sr4 2.619840 1_555
O0 Sr5 2.660095 1_555
O0 Sr3 2.737327 1_555
O2 Sr0 2.704014 1_556
O2 Sr7 2.704779 1_665
O2 Sr6 2.746255 1_565
O3 Sr0 2.619840 1_455
O3 Sr1 2.660095 1_555
O3 Sr7 2.737327 1_554
O4 Sr3 2.704014 1_555
O4 Sr4 2.704779 1_545
O4 Sr5 2.746255 1_545
O7 Sr4 2.704014 1_555
O7 Sr3 2.704779 1_565
O7 Sr2 2.746255 1_565
O8 Sr7 2.619840 1_655
O8 Sr6 2.660095 1_555
O8 Sr0 2.737327 1_556
O9 Sr7 2.704014 1_554
O9 Sr0 2.704779 1_445
O9 Sr1 2.746255 1_545
O11 Sr3 2.619840 1_555
O11 Sr2 2.660095 1_555
O11 Sr4 2.737327 1_555
F0 Sr0 2.466986 1_555
F0 Sr2 2.593006 1_555
F1 Sr1 2.485964 1_555
F1 Sr3 2.578207 1_555
F2 Sr3 2.616497 1_555
F2 Sr2 2.659220 1_455
F2 Sr5 2.727399 1_555
F3 Sr0 2.616497 1_555
F3 Sr1 2.659220 1_555
F3 Sr6 2.727399 1_554
F4 Sr6 2.455037 1_565
F4 Sr1 2.761751 1_556
F5 Sr4 2.474311 1_545
F5 Sr2 2.695792 1_555
F6 Sr2 2.485964 1_555
F6 Sr0 2.578207 1_555
F7 Sr3 2.466986 1_555
F7 Sr1 2.593006 1_555
F8 Sr7 2.474311 1_565
F8 Sr1 2.695792 1_556
F9 Sr5 2.455037 1_545
F9 Sr2 2.761751 1_455
F10 Sr2 2.455037 1_565
F10 Sr5 2.761751 1_655
F11 Sr0 2.474311 1_545
F11 Sr6 2.695792 1_554
F12 Sr4 2.466986 1_555
F12 Sr6 2.593006 1_555
F13 Sr5 2.485964 1_555
F13 Sr7 2.578207 1_555
F14 Sr3 2.474311 1_565
F14 Sr5 2.695792 1_555
F15 Sr1 2.455037 1_545
F15 Sr6 2.761751 1_554
F16 Sr7 2.616497 1_555
F16 Sr6 2.659220 1_555
F16 Sr1 2.727399 1_556
F17 Sr4 2.616497 1_555
F17 Sr5 2.659220 1_655
F17 Sr2 2.727399 1_555
F18 Sr6 2.485964 1_555
F18 Sr4 2.578207 1_555
F19 Sr7 2.466986 1_555
F19 Sr5 2.593006 1_555
