# generated using pymatgen
data_LiMnF4
_symmetry_space_group_name_H-M   'P 1'
_cell_length_a   6.91073800
_cell_length_b   8.42097770
_cell_length_c   9.72133725
_cell_angle_alpha   96.95617722
_cell_angle_beta   106.85968777
_cell_angle_gamma   100.80421231
_symmetry_Int_Tables_number   1
_chemical_formula_structural   LiMnF4
_chemical_formula_sum   'Li6 Mn6 F24'
_cell_volume   522.47322110
_cell_formula_units_Z   6
loop_
 _symmetry_equiv_pos_site_id
 _symmetry_equiv_pos_as_xyz
  1  'x, y, z'
loop_
 _atom_site_type_symbol
 _atom_site_label
 _atom_site_symmetry_multiplicity
 _atom_site_fract_x
 _atom_site_fract_y
 _atom_site_fract_z
 _atom_site_occupancy
  Li  Li0  1  0.00359200  0.01264300  0.26649100  1
  Li  Li1  1  0.18981400  0.59941200  0.34913700  1
  Li  Li2  1  0.47705100  0.68213000  0.86506600  1
  Li  Li3  1  0.52294900  0.31787000  0.13493400  1
  Li  Li4  1  0.81018600  0.40058800  0.65086300  1
  Li  Li5  1  0.99640800  0.98735700  0.73350900  1
  Mn  Mn0  1  0.03640900  0.69578400  0.99079800  1
  Mn  Mn1  1  0.23671400  0.30989600  0.57470000  1
  Mn  Mn2  1  0.46985300  0.90123100  0.23084800  1
  Mn  Mn3  1  0.53014700  0.09876900  0.76915200  1
  Mn  Mn4  1  0.76328600  0.69010400  0.42530000  1
  Mn  Mn5  1  0.96359100  0.30421600  0.00920200  1
  F  F0  1  0.04488000  0.83486800  0.86018100  1
  F  F1  1  0.04535800  0.72336400  0.42875700  1
  F  F2  1  0.04647200  0.55309200  0.13535800  1
  F  F3  1  0.18398700  0.89549800  0.19261200  1
  F  F4  1  0.26216800  0.12620200  0.74487900  1
  F  F5  1  0.32642000  0.49081200  0.72482600  1
  F  F6  1  0.46900100  0.88719300  0.79670200  1
  F  F7  1  0.18184300  0.11112300  0.45063700  1
  F  F8  1  0.27262200  0.42782000  0.42467500  1
  F  F9  1  0.45118600  0.73531300  0.34611400  1
  F  F10  1  0.33488800  0.72133400  0.02710100  1
  F  F11  1  0.23671500  0.30371100  0.02851800  1
  F  F12  1  0.76328500  0.69628900  0.97148200  1
  F  F13  1  0.66511200  0.27866600  0.97289900  1
  F  F14  1  0.54881400  0.26468700  0.65388600  1
  F  F15  1  0.72737800  0.57218000  0.57532500  1
  F  F16  1  0.81815700  0.88887700  0.54936300  1
  F  F17  1  0.53099900  0.11280700  0.20329800  1
  F  F18  1  0.67358000  0.50918800  0.27517400  1
  F  F19  1  0.73783200  0.87379800  0.25512100  1
  F  F20  1  0.81601300  0.10450200  0.80738800  1
  F  F21  1  0.95352800  0.44690800  0.86464200  1
  F  F22  1  0.95464200  0.27663600  0.57124300  1
  F  F23  1  0.95512000  0.16513200  0.13981900  1
loop_
_geom_bond_atom_site_label_1
_geom_bond_atom_site_label_2
_geom_bond_distance
_geom_bond_site_symmetry_2
F0 Mn0 1.834435 1_555
F0 Li5 1.892762 1_455
F1 Li1 1.824385 1_555
F1 Mn4 1.906431 1_455
F2 Mn0 1.951223 1_554
F2 Li1 1.979155 1_555
F2 Mn5 2.178154 1_455
F3 Mn2 1.891355 1_555
F3 Li0 1.962632 1_565
F3 Mn0 2.261576 1_554
F4 Mn3 1.859789 1_555
F4 Li5 1.948908 1_445
F4 Mn1 2.390356 1_555
F5 Mn1 1.848733 1_555
F5 Li2 1.885174 1_555
F6 Mn3 1.823083 1_565
F6 Li2 1.928541 1_555
F7 Li0 1.840674 1_555
F7 Mn1 1.846064 1_555
F8 Li1 1.810509 1_555
F8 Mn1 1.908692 1_555
F9 Mn2 1.902602 1_555
F9 Li1 1.958861 1_555
F9 Mn4 2.192083 1_555
F10 Mn0 1.954118 1_554
F10 Li2 2.109207 1_554
F10 Mn2 2.181720 1_555
F11 Mn5 1.842690 1_455
F11 Li3 1.921446 1_555
F12 Mn0 1.842690 1_655
F12 Li2 1.921446 1_555
F13 Mn5 1.954118 1_556
F13 Li3 2.109207 1_556
F13 Mn3 2.181720 1_555
F14 Mn3 1.902602 1_555
F14 Li4 1.958861 1_555
F14 Mn1 2.192083 1_555
F15 Li4 1.810509 1_555
F15 Mn4 1.908692 1_555
F16 Li5 1.840674 1_555
F16 Mn4 1.846064 1_555
F17 Mn2 1.823083 1_545
F17 Li3 1.928541 1_555
F18 Mn4 1.848733 1_555
F18 Li3 1.885174 1_555
F19 Mn2 1.859789 1_555
F19 Li0 1.948908 1_665
F19 Mn4 2.390356 1_555
F20 Mn3 1.891355 1_555
F20 Li5 1.962632 1_545
F20 Mn5 2.261576 1_556
F21 Mn5 1.951223 1_556
F21 Li4 1.979155 1_555
F21 Mn0 2.178154 1_655
F22 Li4 1.824385 1_555
F22 Mn1 1.906431 1_655
F23 Mn5 1.834435 1_555
F23 Li0 1.892762 1_655
