# generated using pymatgen
data_Na5Mn2P2(CO7)2
_symmetry_space_group_name_H-M   'P 1'
_cell_length_a   5.22799600
_cell_length_b   11.22441386
_cell_length_c   11.24397958
_cell_angle_alpha   73.55802116
_cell_angle_beta   89.48387655
_cell_angle_gamma   89.33462507
_symmetry_Int_Tables_number   1
_chemical_formula_structural   Na5Mn2P2(CO7)2
_chemical_formula_sum   'Na10 Mn4 P4 C4 O28'
_cell_volume   632.77446891
_cell_formula_units_Z   2
loop_
 _symmetry_equiv_pos_site_id
 _symmetry_equiv_pos_as_xyz
  1  'x, y, z'
loop_
 _atom_site_type_symbol
 _atom_site_label
 _atom_site_symmetry_multiplicity
 _atom_site_fract_x
 _atom_site_fract_y
 _atom_site_fract_z
 _atom_site_occupancy
  Na  Na0  1  0.24149100  0.11419800  0.12525400  1
  Na  Na1  1  0.75027300  0.37063000  0.37167800  1
  Na  Na2  1  0.75387700  0.62789700  0.12381900  1
  Na  Na3  1  0.75601500  0.11781000  0.62997100  1
  Na  Na4  1  0.24272700  0.58578600  0.33370100  1
  Na  Na5  1  0.75727300  0.41421400  0.66629900  1
  Na  Na6  1  0.24398500  0.88219000  0.37002900  1
  Na  Na7  1  0.24972700  0.62937000  0.62832200  1
  Na  Na8  1  0.24612300  0.37210300  0.87618100  1
  Na  Na9  1  0.75850900  0.88580200  0.87474600  1
  Mn  Mn0  1  0.77719400  0.29958100  0.05496300  1
  Mn  Mn1  1  0.21919400  0.19136600  0.44718000  1
  Mn  Mn2  1  0.78080600  0.80863400  0.55282000  1
  Mn  Mn3  1  0.22280600  0.70041900  0.94503700  1
  P  P0  1  0.70521700  0.08407600  0.33157400  1
  P  P1  1  0.29887300  0.41622500  0.16388200  1
  P  P2  1  0.70112700  0.58377500  0.83611800  1
  P  P3  1  0.29478300  0.91592400  0.66842600  1
  C  C0  1  0.27609700  0.83743100  0.08840500  1
  C  C1  1  0.26616800  0.34624400  0.59394600  1
  C  C2  1  0.73383200  0.65375600  0.40605400  1
  C  C3  1  0.72390300  0.16256900  0.91159500  1
  O  O0  1  0.79464000  0.13615600  0.19402500  1
  O  O1  1  0.40645100  0.09231800  0.33656500  1
  O  O2  1  0.16512800  0.34081300  0.08773100  1
  O  O3  1  0.81929100  0.16289700  0.41190300  1
  O  O4  1  0.59861600  0.40156400  0.14886200  1
  O  O5  1  0.20702700  0.05259000  0.62048400  1
  O  O6  1  0.23015700  0.55750700  0.11804900  1
  O  O7  1  0.22999400  0.37386300  0.30346200  1
  O  O8  1  0.47155400  0.30380100  0.55316700  1
  O  O9  1  0.48078200  0.79723500  0.04533900  1
  O  O10  1  0.05987400  0.79870100  0.04971100  1
  O  O11  1  0.04312500  0.31743100  0.56027800  1
  O  O12  1  0.72938500  0.09628400  0.83844900  1
  O  O13  1  0.71682400  0.58162000  0.33423500  1
  O  O14  1  0.28317600  0.41838000  0.66576500  1
  O  O15  1  0.27061500  0.90371600  0.16155100  1
  O  O16  1  0.95687500  0.68256900  0.43972200  1
  O  O17  1  0.94012600  0.20129900  0.95028900  1
  O  O18  1  0.52844600  0.69619900  0.44683300  1
  O  O19  1  0.51921800  0.20276500  0.95466100  1
  O  O20  1  0.76984300  0.44249300  0.88195100  1
  O  O21  1  0.79297300  0.94741000  0.37951600  1
  O  O22  1  0.77000600  0.62613700  0.69653800  1
  O  O23  1  0.40138400  0.59843600  0.85113800  1
  O  O24  1  0.18070900  0.83710300  0.58809700  1
  O  O25  1  0.83487200  0.65918700  0.91226900  1
  O  O26  1  0.59354900  0.90768200  0.66343500  1
  O  O27  1  0.20536000  0.86384400  0.80597500  1
loop_
_geom_bond_atom_site_label_1
_geom_bond_atom_site_label_2
_geom_bond_distance
_geom_bond_site_symmetry_2
Na0 O15 2.284353 1_545
Na0 O19 2.383194 1_554
Na0 O1 2.480122 1_555
Na0 O0 2.485593 1_455
Na0 O2 2.485826 1_555
Na0 O17 2.497936 1_454
Na1 O3 2.271102 1_555
Na1 O13 2.289907 1_555
Na1 O8 2.440391 1_555
Na1 O11 2.553048 1_655
Na1 O4 2.561809 1_555
Na1 O7 2.613675 1_655
Na1 O7 2.829781 1_555
Na2 O13 2.281069 1_555
Na2 O9 2.332392 1_555
Na2 O25 2.339462 1_554
Na2 O10 2.464138 1_655
Na2 O6 2.609389 1_655
Na2 O4 2.613597 1_555
Na2 O6 2.864888 1_555
Na3 O12 2.290623 1_555
Na3 O3 2.380010 1_555
Na3 O26 2.442176 1_545
Na3 O5 2.471135 1_655
Na3 O8 2.499224 1_555
Na3 O11 2.636379 1_655
Na4 O16 2.344747 1_455
Na4 O13 2.478505 1_555
Na4 O7 2.498045 1_555
Na4 O18 2.520902 1_555
Na4 O6 2.534505 1_555
Na4 O13 2.750283 1_455
Na5 O11 2.344747 1_655
Na5 O14 2.478505 1_555
Na5 O22 2.498045 1_555
Na5 O8 2.520902 1_555
Na5 O20 2.534505 1_555
Na5 O14 2.750283 1_655
Na6 O15 2.290623 1_555
Na6 O24 2.380010 1_555
Na6 O1 2.442176 1_565
Na6 O21 2.471135 1_455
Na6 O18 2.499224 1_555
Na6 O16 2.636379 1_455
Na7 O24 2.271102 1_555
Na7 O14 2.289907 1_555
Na7 O18 2.440391 1_555
Na7 O16 2.553048 1_455
Na7 O23 2.561809 1_555
Na7 O22 2.613675 1_455
Na7 O22 2.829781 1_555
Na8 O14 2.281069 1_555
Na8 O19 2.332392 1_555
Na8 O2 2.339462 1_556
Na8 O17 2.464138 1_455
Na8 O20 2.609389 1_455
Na8 O23 2.613597 1_555
Na8 O20 2.864888 1_555
Na9 O12 2.284353 1_565
Na9 O9 2.383194 1_556
Na9 O26 2.480122 1_555
Na9 O27 2.485593 1_655
Na9 O25 2.485826 1_555
Na9 O10 2.497936 1_656
Mn0 O4 1.984501 1_555
Mn0 O17 2.005705 1_554
Mn0 O0 2.047696 1_555
Mn0 O20 2.142989 1_554
Mn0 O2 2.143592 1_655
Mn0 O19 2.242109 1_554
Mn1 O1 2.115860 1_555
Mn1 O5 2.123525 1_555
Mn1 O3 2.175464 1_455
Mn1 O7 2.222104 1_555
Mn1 O11 2.331090 1_555
Mn1 O8 2.381575 1_555
Mn2 O26 2.115860 1_555
Mn2 O21 2.123525 1_555
Mn2 O24 2.175464 1_655
Mn2 O22 2.222104 1_555
Mn2 O16 2.331090 1_555
Mn2 O18 2.381575 1_555
Mn3 O23 1.984501 1_555
Mn3 O10 2.005705 1_556
Mn3 O27 2.047696 1_555
Mn3 O6 2.142989 1_556
Mn3 O25 2.143592 1_455
Mn3 O9 2.242109 1_556
C0 O15 1.255499 1_555
C0 O9 1.298563 1_555
C0 O10 1.335458 1_555
C1 O14 1.299501 1_555
C1 O8 1.301174 1_555
C1 O11 1.301397 1_555
C2 O13 1.299501 1_555
C2 O18 1.301174 1_555
C2 O16 1.301397 1_555
C3 O12 1.255499 1_555
C3 O19 1.298563 1_555
C3 O17 1.335458 1_555
O0 P0 1.560054 1_555
O1 P0 1.565053 1_555
O2 P1 1.540570 1_555
O3 P0 1.558369 1_555
O4 P1 1.586266 1_555
O5 P3 1.540850 1_545
O6 P1 1.561057 1_555
O7 P1 1.546040 1_555
O20 P2 1.561057 1_555
O21 P0 1.540850 1_565
O22 P2 1.546040 1_555
O23 P2 1.586266 1_555
O24 P3 1.558369 1_555
O25 P2 1.540570 1_555
O26 P3 1.565053 1_555
O27 P3 1.560054 1_555
