# generated using pymatgen
data_MnV2O4
_symmetry_space_group_name_H-M   'P 1'
_cell_length_a   3.00654400
_cell_length_b   9.26251000
_cell_length_c   10.70964700
_cell_angle_alpha   90.00000000
_cell_angle_beta   90.00000000
_cell_angle_gamma   90.00000000
_symmetry_Int_Tables_number   1
_chemical_formula_structural   MnV2O4
_chemical_formula_sum   'Mn4 V8 O16'
_cell_volume   298.24379040
_cell_formula_units_Z   4
loop_
 _symmetry_equiv_pos_site_id
 _symmetry_equiv_pos_as_xyz
  1  'x, y, z'
loop_
 _atom_site_type_symbol
 _atom_site_label
 _atom_site_symmetry_multiplicity
 _atom_site_fract_x
 _atom_site_fract_y
 _atom_site_fract_z
 _atom_site_occupancy
  Mn  Mn0  1  0.25000000  0.75174900  0.64954300  1
  Mn  Mn1  1  0.25000000  0.25174900  0.85045700  1
  Mn  Mn2  1  0.75000000  0.74825100  0.14954300  1
  Mn  Mn3  1  0.75000000  0.24825100  0.35045700  1
  V  V0  1  0.25000000  0.43374200  0.61784400  1
  V  V1  1  0.75000000  0.08420700  0.60411300  1
  V  V2  1  0.25000000  0.93374200  0.88215600  1
  V  V3  1  0.75000000  0.58420700  0.89588700  1
  V  V4  1  0.25000000  0.41579300  0.10411300  1
  V  V5  1  0.75000000  0.06625800  0.11784400  1
  V  V6  1  0.25000000  0.91579300  0.39588700  1
  V  V7  1  0.75000000  0.56625800  0.38215600  1
  O  O0  1  0.25000000  0.12296100  0.47277200  1
  O  O1  1  0.75000000  0.87703900  0.52722800  1
  O  O2  1  0.75000000  0.58633100  0.57235700  1
  O  O3  1  0.75000000  0.29218800  0.67552900  1
  O  O4  1  0.25000000  0.02579900  0.71647000  1
  O  O5  1  0.25000000  0.52579900  0.78353000  1
  O  O6  1  0.75000000  0.79218800  0.82447100  1
  O  O7  1  0.75000000  0.08633100  0.92764300  1
  O  O8  1  0.75000000  0.37703900  0.97277200  1
  O  O9  1  0.25000000  0.62296100  0.02722800  1
  O  O10  1  0.25000000  0.91366900  0.07235700  1
  O  O11  1  0.25000000  0.20781200  0.17552900  1
  O  O12  1  0.75000000  0.47420100  0.21647000  1
  O  O13  1  0.75000000  0.97420100  0.28353000  1
  O  O14  1  0.25000000  0.70781200  0.32447100  1
  O  O15  1  0.25000000  0.41366900  0.42764300  1
loop_
_geom_bond_atom_site_label_1
_geom_bond_atom_site_label_2
_geom_bond_distance
_geom_bond_site_symmetry_2
Mn0 O2 2.300162 1_455
Mn0 O2 2.300162 1_555
Mn0 O1 2.307067 1_555
Mn0 O1 2.307067 1_455
Mn0 O6 2.431012 1_555
Mn0 O6 2.431012 1_455
Mn0 O5 2.537552 1_555
Mn0 O4 2.637647 1_565
Mn1 O7 2.300162 1_455
Mn1 O7 2.300162 1_555
Mn1 O8 2.307067 1_555
Mn1 O8 2.307067 1_455
Mn1 O3 2.431012 1_455
Mn1 O3 2.431012 1_555
Mn1 O4 2.537552 1_555
Mn1 O5 2.637647 1_555
Mn2 O10 2.300162 1_655
Mn2 O10 2.300162 1_555
Mn2 O9 2.307067 1_555
Mn2 O9 2.307067 1_655
Mn2 O14 2.431012 1_555
Mn2 O14 2.431012 1_655
Mn2 O13 2.537552 1_555
Mn2 O12 2.637647 1_555
Mn3 O15 2.300162 1_655
Mn3 O15 2.300162 1_555
Mn3 O0 2.307067 1_555
Mn3 O0 2.307067 1_655
Mn3 O11 2.431012 1_655
Mn3 O11 2.431012 1_555
Mn3 O12 2.537552 1_555
Mn3 O13 2.637647 1_545
O0 V6 2.088101 1_545
O0 V1 2.089796 1_455
O0 V1 2.089796 1_555
O1 V1 2.088101 1_565
O1 V6 2.089796 1_555
O1 V6 2.089796 1_655
O2 V7 2.045453 1_555
O2 V0 2.120075 1_655
O2 V0 2.120075 1_555
O3 V1 2.072703 1_555
O3 V0 2.088202 1_655
O3 V0 2.088202 1_555
O4 V2 1.968678 1_545
O4 V1 2.000113 1_555
O4 V1 2.000113 1_455
O5 V0 1.968678 1_555
O5 V3 2.000113 1_455
O5 V3 2.000113 1_555
O6 V3 2.072703 1_555
O6 V2 2.088202 1_655
O6 V2 2.088202 1_555
O7 V5 2.045453 1_556
O7 V2 2.120075 1_645
O7 V2 2.120075 1_545
O8 V3 2.088101 1_555
O8 V4 2.089796 1_556
O8 V4 2.089796 1_656
O9 V4 2.088101 1_555
O9 V3 2.089796 1_454
O9 V3 2.089796 1_554
O10 V2 2.045453 1_554
O10 V5 2.120075 1_565
O10 V5 2.120075 1_465
O11 V4 2.072703 1_555
O11 V5 2.088202 1_555
O11 V5 2.088202 1_455
O12 V7 1.968678 1_555
O12 V4 2.000113 1_655
O12 V4 2.000113 1_555
O13 V5 1.968678 1_565
O13 V6 2.000113 1_655
O13 V6 2.000113 1_555
O14 V6 2.072703 1_555
O14 V7 2.088202 1_555
O14 V7 2.088202 1_455
O15 V0 2.045453 1_555
O15 V7 2.120075 1_555
O15 V7 2.120075 1_455
