# generated using pymatgen
data_Ti2Mn3Fe3O16
_symmetry_space_group_name_H-M   'P 1'
_cell_length_a   5.90385740
_cell_length_b   5.90385740
_cell_length_c   9.03491654
_cell_angle_alpha   88.51468109
_cell_angle_beta   88.51468109
_cell_angle_gamma   59.54754659
_symmetry_Int_Tables_number   1
_chemical_formula_structural   Ti2Mn3Fe3O16
_chemical_formula_sum   'Ti2 Mn3 Fe3 O16'
_cell_volume   271.35298493
_cell_formula_units_Z   1
loop_
 _symmetry_equiv_pos_site_id
 _symmetry_equiv_pos_as_xyz
  1  'x, y, z'
loop_
 _atom_site_type_symbol
 _atom_site_label
 _atom_site_symmetry_multiplicity
 _atom_site_fract_x
 _atom_site_fract_y
 _atom_site_fract_z
 _atom_site_occupancy
  Ti  Ti0  1  0.67395200  0.67395200  0.49980800  1
  Ti  Ti1  1  0.33753700  0.33753700  0.00085700  1
  Mn  Mn0  1  0.82849800  0.82849800  0.21303900  1
  Mn  Mn1  1  0.66294900  0.16899400  0.71182300  1
  Mn  Mn2  1  0.16899400  0.66294900  0.71182300  1
  Fe  Fe0  1  0.83365400  0.33095800  0.20988300  1
  Fe  Fe1  1  0.33095800  0.83365400  0.20988300  1
  Fe  Fe2  1  0.16512700  0.16512700  0.70925900  1
  O  O0  1  0.82957200  0.33590200  0.59931900  1
  O  O1  1  0.52379700  0.52379700  0.33936300  1
  O  O2  1  0.67180000  0.67180000  0.10043300  1
  O  O3  1  0.99149500  0.99149500  0.31379000  1
  O  O4  1  0.99280600  0.99280600  0.81457400  1
  O  O5  1  0.33590200  0.82957200  0.59931900  1
  O  O6  1  0.95447500  0.52663100  0.33975400  1
  O  O7  1  0.52663100  0.95447500  0.33975400  1
  O  O8  1  0.16716500  0.16716500  0.09831600  1
  O  O9  1  0.83310900  0.83310900  0.60389300  1
  O  O10  1  0.47745400  0.04754500  0.83608200  1
  O  O11  1  0.04754500  0.47745400  0.83608200  1
  O  O12  1  0.34009200  0.34009200  0.60046900  1
  O  O13  1  0.66017000  0.16333500  0.09791400  1
  O  O14  1  0.47803500  0.47803500  0.83262200  1
  O  O15  1  0.16333500  0.66017000  0.09791400  1
loop_
_geom_bond_atom_site_label_1
_geom_bond_atom_site_label_2
_geom_bond_distance
_geom_bond_site_symmetry_2
Mn0 O6 1.906519 1_555
Mn0 O7 1.906519 1_555
Mn0 O3 1.926186 1_555
Mn0 O2 1.926628 1_555
Mn0 O15 1.983181 1_655
Mn0 O13 1.983181 1_565
Mn1 O10 1.914237 1_555
Mn1 O4 1.930447 1_545
Mn1 O14 1.932446 1_555
Mn1 O12 1.939283 1_555
Mn1 O0 1.962330 1_555
Mn1 O9 1.980558 1_545
Mn2 O11 1.914237 1_555
Mn2 O4 1.930447 1_455
Mn2 O14 1.932446 1_555
Mn2 O12 1.939283 1_555
Mn2 O5 1.962330 1_555
Mn2 O9 1.980558 1_455
Fe0 O3 1.954743 1_545
Fe0 O8 1.961058 1_655
Fe0 O1 1.964230 1_555
Fe0 O2 1.984181 1_555
Fe0 O6 2.041838 1_555
Fe0 O13 2.045685 1_555
Fe1 O3 1.954743 1_455
Fe1 O8 1.961058 1_565
Fe1 O1 1.964230 1_555
Fe1 O2 1.984181 1_555
Fe1 O7 2.041838 1_555
Fe1 O15 2.045685 1_555
Fe2 O4 1.980956 1_445
Fe2 O0 1.988283 1_455
Fe2 O5 1.988283 1_545
Fe2 O11 1.991412 1_555
Fe2 O10 1.991412 1_555
Fe2 O12 2.019027 1_555
O0 Ti0 1.930488 1_555
O1 Ti0 2.145446 1_555
O5 Ti0 1.930488 1_555
O6 Ti0 2.017777 1_555
O7 Ti0 2.017777 1_555
O8 Ti1 1.931976 1_555
O9 Ti0 1.907037 1_555
O10 Ti1 2.112980 1_556
O11 Ti1 2.112980 1_556
O13 Ti1 1.873229 1_555
O14 Ti1 2.062315 1_556
O15 Ti1 1.873229 1_555
