# generated using pymatgen
data_Ba6Ti7(Sb3O14)3
_symmetry_space_group_name_H-M   'P 1'
_cell_length_a   9.13842047
_cell_length_b   9.13842047
_cell_length_c   12.12420748
_cell_angle_alpha   89.91397407
_cell_angle_beta   89.91397407
_cell_angle_gamma   119.88998731
_symmetry_Int_Tables_number   1
_chemical_formula_structural   Ba6Ti7(Sb3O14)3
_chemical_formula_sum   'Ba6 Ti7 Sb9 O42'
_cell_volume   877.81841759
_cell_formula_units_Z   1
loop_
 _symmetry_equiv_pos_site_id
 _symmetry_equiv_pos_as_xyz
  1  'x, y, z'
loop_
 _atom_site_type_symbol
 _atom_site_label
 _atom_site_symmetry_multiplicity
 _atom_site_fract_x
 _atom_site_fract_y
 _atom_site_fract_z
 _atom_site_occupancy
  Ba  Ba0  1  0.40628900  0.40628900  0.24487400  1
  Ba  Ba1  1  0.58831700  0.58831700  0.75077700  1
  Ba  Ba2  1  0.00118100  0.59244600  0.24428000  1
  Ba  Ba3  1  0.00370100  0.40486200  0.75047800  1
  Ba  Ba4  1  0.40486200  0.00370100  0.75047800  1
  Ba  Ba5  1  0.59244600  0.00118100  0.24428000  1
  Ti  Ti0  1  0.24974800  0.24974800  0.91164300  1
  Ti  Ti1  1  0.24823800  0.24823800  0.60530700  1
  Ti  Ti2  1  0.74923900  0.74923900  0.10252500  1
  Ti  Ti3  1  0.99960500  0.74841100  0.60332600  1
  Ti  Ti4  1  0.25239800  0.00832800  0.09698900  1
  Ti  Ti5  1  0.00832800  0.25239800  0.09698900  1
  Ti  Ti6  1  0.74841100  0.99960500  0.60332600  1
  Sb  Sb0  1  0.75758200  0.75758200  0.41344200  1
  Sb  Sb1  1  0.66797200  0.33405100  0.99991500  1
  Sb  Sb2  1  0.66586000  0.33299100  0.50017000  1
  Sb  Sb3  1  0.00271700  0.76096400  0.91424200  1
  Sb  Sb4  1  0.24118200  0.99984500  0.41109600  1
  Sb  Sb5  1  0.99984500  0.24118200  0.41109600  1
  Sb  Sb6  1  0.33405100  0.66797200  0.99991500  1
  Sb  Sb7  1  0.33299100  0.66586000  0.50017000  1
  Sb  Sb8  1  0.76096400  0.00271700  0.91424200  1
  O  O0  1  0.20352900  0.20352900  0.07092100  1
  O  O1  1  0.20278700  0.20278700  0.42181800  1
  O  O2  1  0.21730700  0.21730700  0.75243300  1
  O  O3  1  0.48156800  0.31130900  0.60150000  1
  O  O4  1  0.48135500  0.31200100  0.90043300  1
  O  O5  1  0.78556300  0.78556300  0.25007400  1
  O  O6  1  0.48530100  0.17092600  0.10185300  1
  O  O7  1  0.48668900  0.17191400  0.39425000  1
  O  O8  1  0.79988400  0.79988400  0.57697100  1
  O  O9  1  0.79659300  0.79659300  0.92341500  1
  O  O10  1  0.68697900  0.51718400  0.09965600  1
  O  O11  1  0.68428700  0.51284700  0.39416900  1
  O  O12  1  0.82954500  0.51541400  0.89402000  1
  O  O13  1  0.83057700  0.51827300  0.59940800  1
  O  O14  1  0.99647800  0.79682600  0.07646300  1
  O  O15  1  0.99948900  0.79596300  0.42365100  1
  O  O16  1  0.68773600  0.16912300  0.59979700  1
  O  O17  1  0.68217700  0.17110200  0.89277300  1
  O  O18  1  0.00041000  0.78467500  0.75095400  1
  O  O19  1  0.82809300  0.31541600  0.39411800  1
  O  O20  1  0.83333100  0.31238700  0.09562600  1
  O  O21  1  0.19826100  0.99972200  0.57556200  1
  O  O22  1  0.20083500  0.99718400  0.92576600  1
  O  O23  1  0.21403800  0.99883900  0.24739900  1
  O  O24  1  0.16912300  0.68773600  0.59979700  1
  O  O25  1  0.17110200  0.68217700  0.89277300  1
  O  O26  1  0.99883900  0.21403800  0.24739900  1
  O  O27  1  0.31238700  0.83333100  0.09562600  1
  O  O28  1  0.31541600  0.82809300  0.39411800  1
  O  O29  1  0.99972200  0.19826100  0.57556200  1
  O  O30  1  0.99718400  0.20083500  0.92576600  1
  O  O31  1  0.17092600  0.48530100  0.10185300  1
  O  O32  1  0.17191400  0.48668900  0.39425000  1
  O  O33  1  0.31130900  0.48156800  0.60150000  1
  O  O34  1  0.31200100  0.48135500  0.90043300  1
  O  O35  1  0.51827300  0.83057700  0.59940800  1
  O  O36  1  0.51541400  0.82954500  0.89402000  1
  O  O37  1  0.51284700  0.68428700  0.39416900  1
  O  O38  1  0.51718400  0.68697900  0.09965600  1
  O  O39  1  0.78467500  0.00041000  0.75095400  1
  O  O40  1  0.79596300  0.99948900  0.42365100  1
  O  O41  1  0.79682600  0.99647800  0.07646300  1
loop_
_geom_bond_atom_site_label_1
_geom_bond_atom_site_label_2
_geom_bond_distance
_geom_bond_site_symmetry_2
Ba0 O0 2.813577 1_555
Ba0 O1 2.836956 1_555
Ba0 O38 2.845474 1_555
Ba0 O10 2.845474 1_555
Ba0 O11 2.869161 1_555
Ba0 O37 2.869161 1_555
Ba0 O6 3.116020 1_555
Ba0 O31 3.116020 1_555
Ba0 O32 3.157203 1_555
Ba0 O7 3.157203 1_555
Ba0 O26 3.229745 1_455
Ba0 O23 3.229745 1_545
Ba1 O9 2.835427 1_555
Ba1 O34 2.853898 1_555
Ba1 O4 2.853898 1_555
Ba1 O8 2.857710 1_555
Ba1 O33 2.862368 1_555
Ba1 O3 2.862368 1_555
Ba2 O14 2.774678 1_455
Ba2 O31 2.803148 1_555
Ba2 O32 2.860167 1_555
Ba2 O19 2.863179 1_455
Ba2 O15 2.868684 1_455
Ba2 O20 2.874140 1_455
Ba2 O10 3.137283 1_455
Ba2 O27 3.148839 1_555
Ba2 O28 3.169840 1_555
Ba2 O11 3.177841 1_455
Ba2 O23 3.221503 1_555
Ba2 O5 3.235373 1_455
Ba3 O30 2.805975 1_455
Ba3 O25 2.809986 1_555
Ba3 O29 2.829694 1_455
Ba3 O12 2.860381 1_455
Ba3 O24 2.896177 1_555
Ba3 O13 2.927299 1_455
Ba3 O33 3.110131 1_555
Ba3 O34 3.128579 1_555
Ba3 O17 3.144968 1_455
Ba3 O2 3.175399 1_555
Ba3 O16 3.184916 1_455
Ba3 O39 3.208383 1_455
Ba4 O22 2.805975 1_545
Ba4 O17 2.809986 1_555
Ba4 O21 2.829694 1_545
Ba4 O36 2.860381 1_545
Ba4 O16 2.896177 1_555
Ba4 O35 2.927299 1_545
Ba4 O3 3.110131 1_555
Ba4 O4 3.128579 1_555
Ba4 O25 3.144968 1_545
Ba4 O2 3.175399 1_555
Ba4 O24 3.184916 1_545
Ba4 O18 3.208383 1_545
Ba5 O41 2.774678 1_545
Ba5 O6 2.803148 1_555
Ba5 O7 2.860167 1_555
Ba5 O28 2.863179 1_545
Ba5 O40 2.868684 1_545
Ba5 O27 2.874140 1_545
Ba5 O38 3.137283 1_545
Ba5 O20 3.148839 1_555
Ba5 O19 3.169840 1_555
Ba5 O37 3.177841 1_545
Ba5 O26 3.221503 1_555
Ba5 O5 3.235373 1_545
O0 Ti0 1.975680 1_554
O0 Ti5 2.067386 1_555
O0 Ti4 2.067386 1_555
O1 Sb5 2.056349 1_455
O1 Sb4 2.056349 1_545
O1 Ti1 2.264453 1_555
O2 Ti1 1.805278 1_555
O2 Ti0 1.953882 1_555
O3 Ti1 1.911972 1_555
O3 Sb2 2.011312 1_555
O4 Ti0 1.902791 1_555
O4 Sb1 2.016960 1_555
O5 Ti2 1.820532 1_555
O5 Sb0 1.996437 1_555
O6 Ti4 1.894712 1_555
O6 Sb1 2.011074 1_554
O7 Sb4 2.007321 1_545
O7 Sb2 2.026489 1_555
O8 Sb0 2.021257 1_555
O8 Ti6 2.124013 1_555
O8 Ti3 2.124013 1_555
O9 Sb3 2.068151 1_655
O9 Sb8 2.068151 1_565
O9 Ti2 2.213130 1_556
O10 Ti2 1.902548 1_555
O10 Sb1 2.002568 1_554
O11 Sb0 2.003534 1_555
O11 Sb2 2.024504 1_555
O12 Sb3 2.015762 1_655
O12 Sb1 2.030836 1_555
O13 Ti3 1.890502 1_555
O13 Sb2 2.012877 1_555
O14 Sb3 1.999795 1_654
O14 Ti2 2.100454 1_555
O14 Ti4 2.182925 1_665
O15 Sb0 2.062394 1_555
O15 Sb4 2.066287 1_655
O15 Ti3 2.220801 1_555
O16 Ti6 1.888129 1_545
O16 Sb2 2.008765 1_555
O17 Sb8 2.014332 1_555
O17 Sb1 2.029692 1_555
O18 Ti3 1.820141 1_455
O18 Sb3 1.992523 1_555
O19 Sb5 2.006936 1_555
O19 Sb2 2.027127 1_555
O20 Ti5 1.931852 1_655
O20 Sb1 1.992987 1_554
O21 Sb4 2.031543 1_555
O21 Ti1 2.113167 1_565
O21 Ti3 2.126921 1_455
O22 Sb3 2.015858 1_555
O22 Ti4 2.120776 1_566
O22 Ti0 2.127557 1_565
O23 Ti4 1.850199 1_565
O23 Sb4 1.999974 1_555
O24 Ti3 1.888129 1_455
O24 Sb7 2.008765 1_555
O25 Sb3 2.014332 1_555
O25 Sb6 2.029692 1_555
O26 Ti5 1.850199 1_655
O26 Sb5 1.999974 1_555
O27 Ti4 1.931852 1_565
O27 Sb6 1.992987 1_554
O28 Sb4 2.006936 1_555
O28 Sb7 2.027127 1_555
O29 Sb5 2.031543 1_555
O29 Ti1 2.113167 1_655
O29 Ti6 2.126921 1_545
O30 Sb8 2.015858 1_555
O30 Ti5 2.120776 1_656
O30 Ti0 2.127557 1_655
O31 Ti5 1.894712 1_555
O31 Sb6 2.011074 1_554
O32 Sb5 2.007321 1_455
O32 Sb7 2.026489 1_555
O33 Ti1 1.911972 1_555
O33 Sb7 2.011312 1_555
O34 Ti0 1.902791 1_555
O34 Sb6 2.016960 1_555
O35 Ti6 1.890502 1_555
O35 Sb7 2.012877 1_555
O36 Sb8 2.015762 1_565
O36 Sb6 2.030836 1_555
O37 Sb0 2.003534 1_555
O37 Sb7 2.024504 1_555
O38 Ti2 1.902548 1_555
O38 Sb6 2.002568 1_554
O39 Ti6 1.820141 1_545
O39 Sb8 1.992523 1_555
O40 Sb0 2.062394 1_555
O40 Sb5 2.066287 1_565
O40 Ti6 2.220801 1_555
O41 Sb8 1.999795 1_564
O41 Ti2 2.100454 1_555
O41 Ti5 2.182925 1_665
