# generated using pymatgen
data_LiMnP2(HO4)2
_symmetry_space_group_name_H-M   'P 1'
_cell_length_a   8.74056700
_cell_length_b   5.22199800
_cell_length_c   14.38386783
_cell_angle_alpha   81.20043149
_cell_angle_beta   90.00000000
_cell_angle_gamma   90.00000000
_symmetry_Int_Tables_number   1
_chemical_formula_structural   LiMnP2(HO4)2
_chemical_formula_sum   'Li4 Mn4 P8 H8 O32'
_cell_volume   648.79847444
_cell_formula_units_Z   4
loop_
 _symmetry_equiv_pos_site_id
 _symmetry_equiv_pos_as_xyz
  1  'x, y, z'
loop_
 _atom_site_type_symbol
 _atom_site_label
 _atom_site_symmetry_multiplicity
 _atom_site_fract_x
 _atom_site_fract_y
 _atom_site_fract_z
 _atom_site_occupancy
  Li  Li0  1  0.49530900  0.62457700  0.66933100  1
  Li  Li1  1  0.00469100  0.62457700  0.16933100  1
  Li  Li2  1  0.99530900  0.37542300  0.83066900  1
  Li  Li3  1  0.50469100  0.37542300  0.33066900  1
  Mn  Mn0  1  0.96401900  0.73276000  0.64853500  1
  Mn  Mn1  1  0.53598100  0.73276000  0.14853500  1
  Mn  Mn2  1  0.46401900  0.26724000  0.85146500  1
  Mn  Mn3  1  0.03598100  0.26724000  0.35146500  1
  P  P0  1  0.23624300  0.78023400  0.80829700  1
  P  P1  1  0.66153100  0.73420200  0.94416100  1
  P  P2  1  0.26375700  0.78023400  0.30829700  1
  P  P3  1  0.83846900  0.73420200  0.44416100  1
  P  P4  1  0.16153100  0.26579800  0.55583900  1
  P  P5  1  0.73624300  0.21976600  0.69170300  1
  P  P6  1  0.33846900  0.26579800  0.05583900  1
  P  P7  1  0.76375700  0.21976600  0.19170300  1
  H  H0  1  0.81279500  0.85558800  0.82887500  1
  H  H1  1  0.27812400  0.71259600  0.96384300  1
  H  H2  1  0.68720500  0.85558800  0.32887500  1
  H  H3  1  0.22187600  0.71259600  0.46384300  1
  H  H4  1  0.77812400  0.28740400  0.53615700  1
  H  H5  1  0.31279500  0.14441200  0.67112500  1
  H  H6  1  0.72187600  0.28740400  0.03615700  1
  H  H7  1  0.18720500  0.14441200  0.17112500  1
  O  O0  1  0.77242900  0.93409200  0.72505200  1
  O  O1  1  0.53998100  0.91852600  0.89463500  1
  O  O2  1  0.72757100  0.93409200  0.22505200  1
  O  O3  1  0.96001900  0.91852600  0.39463500  1
  O  O4  1  0.82553700  0.80931700  0.90050600  1
  O  O5  1  0.19419600  0.73403600  0.91599500  1
  O  O6  1  0.08567300  0.69131000  0.76511700  1
  O  O7  1  0.67446300  0.80931700  0.40050600  1
  O  O8  1  0.81722100  0.76215900  0.54909000  1
  O  O9  1  0.30580400  0.73403600  0.41599500  1
  O  O10  1  0.41432700  0.69131000  0.26511700  1
  O  O11  1  0.68277900  0.76215900  0.04909000  1
  O  O12  1  0.36919200  0.60369000  0.78400600  1
  O  O13  1  0.12685900  0.54847600  0.56706200  1
  O  O14  1  0.13080800  0.60369000  0.28400600  1
  O  O15  1  0.62685900  0.45152400  0.93293800  1
  O  O16  1  0.37314100  0.54847600  0.06706200  1
  O  O17  1  0.86919200  0.39631000  0.71599400  1
  O  O18  1  0.87314100  0.45152400  0.43293800  1
  O  O19  1  0.63080800  0.39631000  0.21599400  1
  O  O20  1  0.31722100  0.23784100  0.95091000  1
  O  O21  1  0.58567300  0.30869000  0.73488300  1
  O  O22  1  0.69419600  0.26596400  0.58400500  1
  O  O23  1  0.18277900  0.23784100  0.45091000  1
  O  O24  1  0.32553700  0.19068300  0.59949400  1
  O  O25  1  0.91432700  0.30869000  0.23488300  1
  O  O26  1  0.80580400  0.26596400  0.08400500  1
  O  O27  1  0.17446300  0.19068300  0.09949400  1
  O  O28  1  0.03998100  0.08147400  0.60536500  1
  O  O29  1  0.27242900  0.06590800  0.77494800  1
  O  O30  1  0.46001900  0.08147400  0.10536500  1
  O  O31  1  0.22757100  0.06590800  0.27494800  1
loop_
_geom_bond_atom_site_label_1
_geom_bond_atom_site_label_2
_geom_bond_distance
_geom_bond_site_symmetry_2
Li0 O21 1.938572 1_555
Li0 O12 1.973004 1_555
Li1 O25 1.938572 1_455
Li1 O14 1.973004 1_555
Li2 O6 1.938572 1_655
Li2 O17 1.973004 1_555
Li3 O10 1.938572 1_555
Li3 O19 1.973004 1_555
Mn0 O8 1.910177 1_555
Mn0 O28 1.948444 1_665
Mn0 O6 1.969379 1_655
Mn0 O17 2.047865 1_555
Mn0 O13 2.161085 1_655
Mn0 O0 2.339877 1_555
Mn1 O11 1.910177 1_555
Mn1 O30 1.948444 1_565
Mn1 O10 1.969379 1_555
Mn1 O19 2.047865 1_555
Mn1 O16 2.161085 1_555
Mn1 O2 2.339877 1_555
Mn2 O20 1.910177 1_555
Mn2 O1 1.948444 1_545
Mn2 O21 1.969379 1_555
Mn2 O12 2.047865 1_555
Mn2 O15 2.161085 1_555
Mn2 O29 2.339877 1_555
Mn3 O23 1.910177 1_555
Mn3 O3 1.948444 1_445
Mn3 O25 1.969379 1_455
Mn3 O14 2.047865 1_555
Mn3 O18 2.161085 1_455
Mn3 O31 2.339877 1_555
H0 O4 1.027716 1_555
H0 O0 1.528203 1_555
H1 O5 1.000385 1_555
H2 O7 1.027716 1_555
H2 O2 1.528203 1_555
H3 O9 1.000385 1_555
H4 O22 1.000385 1_555
H5 O24 1.027716 1_555
H5 O29 1.528203 1_555
H6 O26 1.000385 1_555
H7 O27 1.027716 1_555
H7 O31 1.528203 1_555
O0 P5 1.528604 1_565
O1 P1 1.533916 1_555
O2 P7 1.528604 1_565
O3 P3 1.533916 1_555
O4 P1 1.589885 1_555
O5 P0 1.574382 1_555
O6 P0 1.556170 1_555
O7 P3 1.589885 1_555
O8 P3 1.549568 1_555
O9 P2 1.574382 1_555
O10 P2 1.556170 1_555
O11 P1 1.549568 1_554
O12 P0 1.555929 1_555
O13 P4 1.539419 1_555
O14 P2 1.555929 1_555
O15 P1 1.539419 1_555
O16 P6 1.539419 1_555
O17 P5 1.555929 1_555
O18 P3 1.539419 1_555
O19 P7 1.555929 1_555
O20 P6 1.549568 1_556
O21 P5 1.556170 1_555
O22 P5 1.574382 1_555
O23 P4 1.549568 1_555
O24 P4 1.589885 1_555
O25 P7 1.556170 1_555
O26 P7 1.574382 1_555
O27 P6 1.589885 1_555
O28 P4 1.533916 1_555
O29 P0 1.528604 1_545
O30 P6 1.533916 1_555
O31 P2 1.528604 1_545
