# generated using pymatgen
data_Na7(NiO2)10
_symmetry_space_group_name_H-M   'P 1'
_cell_length_a   2.91603609
_cell_length_b   10.87937036
_cell_length_c   12.70218784
_cell_angle_alpha   107.74489942
_cell_angle_beta   91.59498530
_cell_angle_gamma   91.12551700
_symmetry_Int_Tables_number   1
_chemical_formula_structural   Na7(NiO2)10
_chemical_formula_sum   'Na7 Ni10 O20'
_cell_volume   383.48390000
_cell_formula_units_Z   1
loop_
 _symmetry_equiv_pos_site_id
 _symmetry_equiv_pos_as_xyz
  1  'x, y, z'
loop_
 _atom_site_type_symbol
 _atom_site_label
 _atom_site_symmetry_multiplicity
 _atom_site_fract_x
 _atom_site_fract_y
 _atom_site_fract_z
 _atom_site_occupancy
  Na  Na0  1  0.00308778  0.91157864  0.83124923  1
  Na  Na1  1  0.48907632  0.38242598  0.76952127  1
  Na  Na2  1  -0.00000000  0.50000000  0.00000000  1
  Na  Na3  1  0.99691222  0.08842136  0.16875077  1
  Na  Na4  1  0.51092368  0.61757402  0.23047873  1
  Na  Na5  1  0.50932293  0.21094617  0.42081211  1
  Na  Na6  1  0.49067707  0.78905383  0.57918789  1
  Ni  Ni0  1  0.00211089  0.20301141  0.89793874  1
  Ni  Ni1  1  0.99788911  0.79698859  0.10206126  1
  Ni  Ni2  1  0.49535272  0.69286022  0.90184971  1
  Ni  Ni3  1  0.50464728  0.30713978  0.09815029  1
  Ni  Ni4  1  0.00538927  0.39830784  0.30011589  1
  Ni  Ni5  1  -0.00000000  0.00000000  0.50000000  1
  Ni  Ni6  1  0.49878455  0.90576973  0.30095560  1
  Ni  Ni7  1  0.50000000  0.50000000  0.50000000  1
  Ni  Ni8  1  -0.00538927  0.60169216  0.69988411  1
  Ni  Ni9  1  0.50121545  0.09423027  0.69904440  1
  O  O0  1  0.50897878  0.72182225  0.75742511  1
  O  O1  1  0.02340170  0.56928050  0.83778575  1
  O  O2  1  0.03147935  0.18900698  0.03885052  1
  O  O3  1  0.49588446  0.08003678  0.84265587  1
  O  O4  1  0.49263633  0.67244627  0.04988301  1
  O  O5  1  0.02760093  0.78253970  0.24390607  1
  O  O6  1  0.50736367  0.32755373  0.95011699  1
  O  O7  1  0.97239907  0.21746030  0.75609393  1
  O  O8  1  0.96852065  0.81099302  0.96114948  1
  O  O9  1  0.50411554  0.91996322  0.15734413  1
  O  O10  1  0.49102122  0.27817775  0.24257489  1
  O  O11  1  0.03181888  0.37597083  0.43933665  1
  O  O12  1  0.48692429  0.88735909  0.44312771  1
  O  O13  1  0.03077186  0.96769833  0.63790787  1
  O  O14  1  0.51884862  0.51394885  0.35697791  1
  O  O15  1  0.97659830  0.43071950  0.16221425  1
  O  O16  1  0.96922814  0.03230167  0.36209213  1
  O  O17  1  0.51307571  0.11264091  0.55687229  1
  O  O18  1  0.96818112  0.62402917  0.56066335  1
  O  O19  1  0.48115138  0.48605115  0.64302209  1
loop_
_geom_bond_atom_site_label_1
_geom_bond_atom_site_label_2
_geom_bond_distance
_geom_bond_site_symmetry_2
Na0 O8 2.244057 1_455
Na0 O3 2.273310 1_565
Na0 O3 2.350301 1_465
Na0 O0 2.417669 1_455
Na0 O0 2.516750 1_555
Na0 O13 2.708063 1_555
Na1 O19 2.226328 1_555
Na1 O7 2.272148 1_555
Na1 O7 2.283198 1_455
Na1 O1 2.414098 1_555
Na1 O1 2.457232 1_655
Na1 O6 2.539818 1_555
Na2 O6 2.259150 1_454
Na2 O4 2.259150 1_555
Na2 O4 2.355158 1_455
Na2 O6 2.355158 1_554
Na2 O1 2.402249 1_554
Na2 O15 2.402249 1_455
Na3 O2 2.244057 1_655
Na3 O9 2.273310 1_545
Na3 O9 2.350301 1_645
Na3 O10 2.417669 1_655
Na3 O10 2.516750 1_555
Na3 O16 2.708063 1_555
Na4 O14 2.226328 1_555
Na4 O5 2.272148 1_555
Na4 O5 2.283198 1_655
Na4 O15 2.414098 1_555
Na4 O15 2.457232 1_455
Na4 O4 2.539818 1_555
Na5 O11 2.253102 1_555
Na5 O11 2.283676 1_655
Na5 O17 2.292801 1_555
Na5 O16 2.325224 1_555
Na5 O16 2.396834 1_455
Na5 O10 2.582204 1_555
Na6 O18 2.253102 1_555
Na6 O18 2.283676 1_455
Na6 O12 2.292801 1_555
Na6 O13 2.325224 1_555
Na6 O13 2.396834 1_655
Na6 O0 2.582204 1_555
Ni0 O2 1.841862 1_556
Ni0 O7 1.855524 1_455
Ni0 O3 1.937569 1_455
Ni0 O6 1.940535 1_555
Ni0 O3 1.978772 1_555
Ni0 O6 1.984730 1_455
Ni1 O8 1.841862 1_554
Ni1 O5 1.855524 1_655
Ni1 O9 1.937569 1_655
Ni1 O4 1.940535 1_555
Ni1 O9 1.978772 1_555
Ni1 O4 1.984730 1_655
Ni2 O8 1.845344 1_555
Ni2 O1 1.887289 1_555
Ni2 O0 1.955043 1_555
Ni2 O4 1.959696 1_556
Ni2 O8 2.032516 1_455
Ni2 O1 2.079661 1_655
Ni3 O2 1.845344 1_555
Ni3 O15 1.887289 1_555
Ni3 O10 1.955043 1_555
Ni3 O6 1.959696 1_554
Ni3 O2 2.032516 1_655
Ni3 O15 2.079661 1_455
Ni4 O11 1.856709 1_555
Ni4 O15 1.889221 1_455
Ni4 O14 1.912641 1_555
Ni4 O14 1.921112 1_455
Ni4 O10 1.942096 1_455
Ni4 O10 1.948269 1_555
Ni5 O16 1.888874 1_455
Ni5 O13 1.888874 1_545
Ni5 O12 1.894797 1_445
Ni5 O17 1.894797 1_555
Ni5 O12 1.904084 1_545
Ni5 O17 1.904084 1_455
Ni6 O5 1.868250 1_555
Ni6 O9 1.877473 1_555
Ni6 O12 1.877836 1_555
Ni6 O16 1.896009 1_565
Ni6 O5 2.061951 1_655
Ni6 O16 2.093146 1_465
Ni7 O14 1.870750 1_555
Ni7 O19 1.870750 1_555
Ni7 O11 1.874477 1_555
Ni7 O18 1.874477 1_555
Ni7 O11 2.081936 1_655
Ni7 O18 2.081936 1_455
Ni8 O18 1.856709 1_455
Ni8 O1 1.889221 1_555
Ni8 O19 1.912641 1_455
Ni8 O19 1.921112 1_555
Ni8 O0 1.942096 1_555
Ni8 O0 1.948269 1_455
Ni9 O7 1.868250 1_555
Ni9 O3 1.877473 1_555
Ni9 O17 1.877836 1_555
Ni9 O13 1.896009 1_545
Ni9 O7 2.061951 1_455
Ni9 O13 2.093146 1_645
