# generated using pymatgen
data_VSO4F3
_symmetry_space_group_name_H-M   'P 1'
_cell_length_a   7.18476200
_cell_length_b   8.20703600
_cell_length_c   10.64232900
_cell_angle_alpha   90.00000000
_cell_angle_beta   90.00000000
_cell_angle_gamma   90.00000000
_symmetry_Int_Tables_number   1
_chemical_formula_structural   VSO4F3
_chemical_formula_sum   'V4 S4 O16 F12'
_cell_volume   627.53131898
_cell_formula_units_Z   4
loop_
 _symmetry_equiv_pos_site_id
 _symmetry_equiv_pos_as_xyz
  1  'x, y, z'
loop_
 _atom_site_type_symbol
 _atom_site_label
 _atom_site_symmetry_multiplicity
 _atom_site_fract_x
 _atom_site_fract_y
 _atom_site_fract_z
 _atom_site_occupancy
  V  V0  1  0.00000000  0.00000000  0.00000000  1
  V  V1  1  0.00000000  0.50000000  0.50000000  1
  V  V2  1  0.50000000  0.00000000  0.00000000  1
  V  V3  1  0.50000000  0.50000000  0.50000000  1
  S  S0  1  0.25000000  0.17856900  0.50000000  1
  S  S1  1  0.25000000  0.67856900  0.00000000  1
  S  S2  1  0.75000000  0.82143100  0.50000000  1
  S  S3  1  0.75000000  0.32143100  0.00000000  1
  O  O0  1  0.10388800  0.30528500  0.55583100  1
  O  O1  1  0.10388800  0.80528500  0.94416900  1
  O  O2  1  0.16453600  0.09439300  0.39787300  1
  O  O3  1  0.16453600  0.59439300  0.10212700  1
  O  O4  1  0.33546400  0.09439300  0.60212700  1
  O  O5  1  0.33546400  0.59439300  0.89787300  1
  O  O6  1  0.39611200  0.80528500  0.05583100  1
  O  O7  1  0.39611200  0.30528500  0.44416900  1
  O  O8  1  0.60388800  0.19471500  0.94416900  1
  O  O9  1  0.60388800  0.69471500  0.55583100  1
  O  O10  1  0.66453600  0.40560700  0.10212700  1
  O  O11  1  0.66453600  0.90560700  0.39787300  1
  O  O12  1  0.83546400  0.40560700  0.89787300  1
  O  O13  1  0.83546400  0.90560700  0.60212700  1
  O  O14  1  0.89611200  0.69471500  0.44416900  1
  O  O15  1  0.89611200  0.19471500  0.05583100  1
  F  F0  1  0.03246000  0.44117200  0.34183200  1
  F  F1  1  0.03246000  0.94117200  0.15816800  1
  F  F2  1  0.25000000  0.59377000  0.50000000  1
  F  F3  1  0.25000000  0.09377000  0.00000000  1
  F  F4  1  0.46754000  0.94117200  0.84183200  1
  F  F5  1  0.46754000  0.44117200  0.65816800  1
  F  F6  1  0.53246000  0.05882800  0.15816800  1
  F  F7  1  0.53246000  0.55882800  0.34183200  1
  F  F8  1  0.75000000  0.40623000  0.50000000  1
  F  F9  1  0.75000000  0.90623000  0.00000000  1
  F  F10  1  0.96754000  0.05882800  0.84183200  1
  F  F11  1  0.96754000  0.55882800  0.65816800  1
loop_
_geom_bond_atom_site_label_1
_geom_bond_atom_site_label_2
_geom_bond_distance
_geom_bond_site_symmetry_2
O0 S0 1.592671 1_555
O0 V1 1.861150 1_555
O1 S1 1.592671 1_556
O1 V0 1.861150 1_566
O2 S0 1.426738 1_555
O3 S1 1.426738 1_555
O4 S0 1.426738 1_555
O5 S1 1.426738 1_556
O6 S1 1.592671 1_555
O6 V2 1.861150 1_565
O7 S0 1.592671 1_555
O7 V3 1.861150 1_555
O8 S3 1.592671 1_556
O8 V2 1.861150 1_556
O9 S2 1.592671 1_555
O9 V3 1.861150 1_555
O10 S3 1.426738 1_555
O11 S2 1.426738 1_555
O12 S3 1.426738 1_556
O13 S2 1.426738 1_555
O14 S2 1.592671 1_555
O14 V1 1.861150 1_655
O15 S3 1.592671 1_555
O15 V0 1.861150 1_655
F0 V1 1.766609 1_555
F1 V0 1.766609 1_565
F2 V3 1.954110 1_555
F2 V1 1.954110 1_555
F3 V0 1.954110 1_555
F3 V2 1.954110 1_555
F4 V2 1.766609 1_566
F5 V3 1.766609 1_555
F6 V2 1.766609 1_555
F7 V3 1.766609 1_555
F8 V1 1.954110 1_655
F8 V3 1.954110 1_555
F9 V2 1.954110 1_565
F9 V0 1.954110 1_665
F10 V0 1.766609 1_656
F11 V1 1.766609 1_655
