# generated using pymatgen
data_VCoO4
_symmetry_space_group_name_H-M   'P 1'
_cell_length_a   4.62652700
_cell_length_b   5.56178700
_cell_length_c   10.44688000
_cell_angle_alpha   90.00000000
_cell_angle_beta   90.00000000
_cell_angle_gamma   90.00000000
_symmetry_Int_Tables_number   1
_chemical_formula_structural   VCoO4
_chemical_formula_sum   'V4 Co4 O16'
_cell_volume   268.81658513
_cell_formula_units_Z   4
loop_
 _symmetry_equiv_pos_site_id
 _symmetry_equiv_pos_as_xyz
  1  'x, y, z'
loop_
 _atom_site_type_symbol
 _atom_site_label
 _atom_site_symmetry_multiplicity
 _atom_site_fract_x
 _atom_site_fract_y
 _atom_site_fract_z
 _atom_site_occupancy
  V  V0  1  0.41424000  0.25000000  0.41269200  1
  V  V1  1  0.08576000  0.25000000  0.91269200  1
  V  V2  1  0.91424000  0.75000000  0.08730800  1
  V  V3  1  0.58576000  0.75000000  0.58730800  1
  Co  Co0  1  0.98244400  0.25000000  0.23859900  1
  Co  Co1  1  0.51755600  0.25000000  0.73859900  1
  Co  Co2  1  0.48244400  0.75000000  0.26140100  1
  Co  Co3  1  0.01755600  0.75000000  0.76140100  1
  O  O0  1  0.24720500  0.01132500  0.32205400  1
  O  O1  1  0.25279500  0.01132500  0.82205400  1
  O  O2  1  0.16180600  0.25000000  0.07406700  1
  O  O3  1  0.77827700  0.25000000  0.39298200  1
  O  O4  1  0.72172300  0.25000000  0.89298200  1
  O  O5  1  0.33819400  0.25000000  0.57406700  1
  O  O6  1  0.24720500  0.48867500  0.32205400  1
  O  O7  1  0.25279500  0.48867500  0.82205400  1
  O  O8  1  0.75279500  0.51132500  0.67794600  1
  O  O9  1  0.74720500  0.51132500  0.17794600  1
  O  O10  1  0.83819400  0.75000000  0.92593300  1
  O  O11  1  0.66180600  0.75000000  0.42593300  1
  O  O12  1  0.27827700  0.75000000  0.10701800  1
  O  O13  1  0.22172300  0.75000000  0.60701800  1
  O  O14  1  0.74720500  0.98867500  0.17794600  1
  O  O15  1  0.75279500  0.98867500  0.67794600  1
loop_
_geom_bond_atom_site_label_1
_geom_bond_atom_site_label_2
_geom_bond_distance
_geom_bond_site_symmetry_2
Co0 O3 1.869072 1_555
Co0 O2 1.908674 1_655
Co0 O9 1.923134 1_555
Co0 O14 1.923134 1_545
Co0 O6 2.005667 1_655
Co0 O0 2.005667 1_655
Co1 O4 1.869072 1_555
Co1 O5 1.908674 1_555
Co1 O15 1.923134 1_545
Co1 O8 1.923134 1_555
Co1 O7 2.005667 1_555
Co1 O1 2.005667 1_555
Co2 O12 1.869072 1_555
Co2 O11 1.908674 1_555
Co2 O0 1.923134 1_565
Co2 O6 1.923134 1_555
Co2 O14 2.005667 1_555
Co2 O9 2.005667 1_555
Co3 O13 1.869072 1_555
Co3 O10 1.908674 1_455
Co3 O1 1.923134 1_565
Co3 O7 1.923134 1_555
Co3 O8 2.005667 1_455
Co3 O15 2.005667 1_455
O0 V0 1.804424 1_555
O1 V1 1.804424 1_555
O2 V1 1.722186 1_554
O3 V0 1.696767 1_555
O4 V1 1.696767 1_655
O5 V0 1.722186 1_555
O6 V0 1.804424 1_555
O7 V1 1.804424 1_555
O8 V3 1.804424 1_555
O9 V2 1.804424 1_555
O10 V2 1.722186 1_556
O11 V3 1.722186 1_555
O12 V2 1.696767 1_455
O13 V3 1.696767 1_555
O14 V2 1.804424 1_555
O15 V3 1.804424 1_555
