# generated using pymatgen
data_SrI2O7
_symmetry_space_group_name_H-M   'P 1'
_cell_length_a   7.46639109
_cell_length_b   7.46639109
_cell_length_c   8.65686352
_cell_angle_alpha   57.16354772
_cell_angle_beta   57.16354772
_cell_angle_gamma   64.70981906
_symmetry_Int_Tables_number   1
_chemical_formula_structural   SrI2O7
_chemical_formula_sum   'Sr2 I4 O14'
_cell_volume   334.58139013
_cell_formula_units_Z   2
loop_
 _symmetry_equiv_pos_site_id
 _symmetry_equiv_pos_as_xyz
  1  'x, y, z'
loop_
 _atom_site_type_symbol
 _atom_site_label
 _atom_site_symmetry_multiplicity
 _atom_site_fract_x
 _atom_site_fract_y
 _atom_site_fract_z
 _atom_site_occupancy
  Sr  Sr0  1  0.84229700  0.15770300  0.75000000  1
  Sr  Sr1  1  0.15770300  0.84229700  0.25000000  1
  I  I0  1  0.71617800  0.65314000  0.29472100  1
  I  I1  1  0.34686000  0.28382200  0.20527900  1
  I  I2  1  0.28382200  0.34686000  0.70527900  1
  I  I3  1  0.65314000  0.71617800  0.79472100  1
  O  O0  1  0.79676000  0.91842000  0.12632200  1
  O  O1  1  0.08158000  0.20324000  0.37367800  1
  O  O2  1  0.20324000  0.08158000  0.87367800  1
  O  O3  1  0.91842000  0.79676000  0.62632200  1
  O  O4  1  0.78281100  0.59747300  0.49343000  1
  O  O5  1  0.40252700  0.21718900  0.00657000  1
  O  O6  1  0.21718900  0.40252700  0.50657000  1
  O  O7  1  0.59747300  0.78281100  0.99343000  1
  O  O8  1  0.41989400  0.74163400  0.40618500  1
  O  O9  1  0.25836600  0.58010600  0.09381500  1
  O  O10  1  0.58010600  0.25836600  0.59381500  1
  O  O11  1  0.74163400  0.41989400  0.90618500  1
  O  O12  1  0.17017100  0.82982900  0.75000000  1
  O  O13  1  0.82982900  0.17017100  0.25000000  1
loop_
_geom_bond_atom_site_label_1
_geom_bond_atom_site_label_2
_geom_bond_distance
_geom_bond_site_symmetry_2
I0 O0 1.829176 1_555
I0 O4 1.831778 1_555
I0 O8 1.840926 1_555
I1 O1 1.829176 1_555
I1 O5 1.831778 1_555
I1 O9 1.840926 1_555
I2 O2 1.829176 1_555
I2 O6 1.831778 1_555
I2 O10 1.840926 1_555
I3 O3 1.829176 1_555
I3 O7 1.831778 1_555
I3 O11 1.840926 1_555
O0 Sr0 2.631788 1_564
O0 Sr1 3.145247 1_655
O1 Sr0 2.631788 1_455
O1 Sr1 3.145247 1_545
O2 Sr1 2.631788 1_546
O2 Sr0 3.145247 1_455
O3 Sr1 2.631788 1_655
O3 Sr0 3.145247 1_565
O4 Sr0 2.797600 1_555
O4 Sr1 3.068273 1_655
O5 Sr0 2.797600 1_554
O5 Sr1 3.068273 1_545
O6 Sr1 2.797600 1_555
O6 Sr0 3.068273 1_455
O7 Sr1 2.797600 1_556
O7 Sr0 3.068273 1_565
O8 Sr1 2.595489 1_555
O9 Sr1 2.595489 1_555
O10 Sr0 2.595489 1_555
O11 Sr0 2.595489 1_555
O12 Sr0 2.620192 1_465
O13 Sr1 2.620192 1_645
