# generated using pymatgen
data_Fe3(OF2)2
_symmetry_space_group_name_H-M   'P 1'
_cell_length_a   4.79955800
_cell_length_b   4.78472800
_cell_length_c   10.49068595
_cell_angle_alpha   63.98472877
_cell_angle_beta   90.00000000
_cell_angle_gamma   90.00000000
_symmetry_Int_Tables_number   1
_chemical_formula_structural   Fe3(OF2)2
_chemical_formula_sum   'Fe6 O4 F8'
_cell_volume   216.50408521
_cell_formula_units_Z   2
loop_
 _symmetry_equiv_pos_site_id
 _symmetry_equiv_pos_as_xyz
  1  'x, y, z'
loop_
 _atom_site_type_symbol
 _atom_site_label
 _atom_site_symmetry_multiplicity
 _atom_site_fract_x
 _atom_site_fract_y
 _atom_site_fract_z
 _atom_site_occupancy
  Fe  Fe0  1  0.98555300  0.21519900  0.82329400  1
  Fe  Fe1  1  0.00000000  0.50000000  0.50000000  1
  Fe  Fe2  1  0.01444700  0.78480100  0.17670600  1
  Fe  Fe3  1  0.48555300  0.78480100  0.67670600  1
  Fe  Fe4  1  0.50000000  0.50000000  0.00000000  1
  Fe  Fe5  1  0.51444700  0.21519900  0.32329400  1
  O  O0  1  0.81035500  0.47397700  0.33143600  1
  O  O1  1  0.31035500  0.52602300  0.16856400  1
  O  O2  1  0.68964500  0.47397700  0.83143600  1
  O  O3  1  0.18964500  0.52602300  0.66856400  1
  F  F0  1  0.78475100  0.11446500  0.67493300  1
  F  F1  1  0.81788900  0.81829300  0.99798500  1
  F  F2  1  0.28475100  0.88553500  0.82506700  1
  F  F3  1  0.31788900  0.18170700  0.50201500  1
  F  F4  1  0.68211100  0.81829300  0.49798500  1
  F  F5  1  0.71524900  0.11446500  0.17493300  1
  F  F6  1  0.18211100  0.18170700  0.00201500  1
  F  F7  1  0.21524900  0.88553500  0.32506700  1
loop_
_geom_bond_atom_site_label_1
_geom_bond_atom_site_label_2
_geom_bond_distance
_geom_bond_site_symmetry_2
Fe0 O2 1.910553 1_555
Fe0 O3 1.920544 1_655
Fe1 O3 2.040639 1_555
Fe1 O0 2.040639 1_455
Fe2 O1 1.910553 1_555
Fe2 O0 1.920544 1_455
Fe3 O3 1.910553 1_555
Fe3 O2 1.920544 1_555
Fe4 O1 2.040639 1_555
Fe4 O2 2.040639 1_554
Fe5 O0 1.910553 1_555
Fe5 O1 1.920544 1_555
F0 Fe0 2.059518 1_555
F0 Fe3 2.127157 1_545
F0 Fe1 2.206428 1_655
F1 Fe2 2.041415 1_656
F1 Fe0 2.135324 1_565
F1 Fe4 2.149282 1_556
F2 Fe3 2.059518 1_555
F2 Fe0 2.127157 1_465
F2 Fe4 2.206428 1_556
F3 Fe5 2.041415 1_555
F3 Fe3 2.135324 1_545
F3 Fe1 2.149282 1_555
F4 Fe3 2.041415 1_555
F4 Fe5 2.135324 1_565
F4 Fe1 2.149282 1_655
F5 Fe5 2.059518 1_555
F5 Fe2 2.127157 1_645
F5 Fe4 2.206428 1_555
F6 Fe0 2.041415 1_454
F6 Fe2 2.135324 1_545
F6 Fe4 2.149282 1_555
F7 Fe2 2.059518 1_555
F7 Fe5 2.127157 1_565
F7 Fe1 2.206428 1_555
