# generated using pymatgen
data_V2Bi24O41
_symmetry_space_group_name_H-M   'P 1'
_cell_length_a   10.35213700
_cell_length_b   10.35524800
_cell_length_c   10.44411900
_cell_angle_alpha   90.00000000
_cell_angle_beta   90.00000000
_cell_angle_gamma   90.00000000
_symmetry_Int_Tables_number   1
_chemical_formula_structural   V2Bi24O41
_chemical_formula_sum   'V2 Bi24 O41'
_cell_volume   1119.59854833
_cell_formula_units_Z   1
loop_
 _symmetry_equiv_pos_site_id
 _symmetry_equiv_pos_as_xyz
  1  'x, y, z'
loop_
 _atom_site_type_symbol
 _atom_site_label
 _atom_site_symmetry_multiplicity
 _atom_site_fract_x
 _atom_site_fract_y
 _atom_site_fract_z
 _atom_site_occupancy
  V  V0  1  0.50000000  0.50000000  0.50000000  1
  V  V1  1  0.00000000  0.00000000  0.00000000  1
  Bi  Bi0  1  0.97706800  0.32050100  0.17970900  1
  Bi  Bi1  1  0.97706800  0.67949900  0.82029100  1
  Bi  Bi2  1  0.81992900  0.01983000  0.33023200  1
  Bi  Bi3  1  0.81992900  0.98017000  0.66976800  1
  Bi  Bi4  1  0.83540400  0.33277900  0.51838300  1
  Bi  Bi5  1  0.83540400  0.66722100  0.48161700  1
  Bi  Bi6  1  0.67926700  0.17760900  0.02456900  1
  Bi  Bi7  1  0.67926700  0.82239100  0.97543100  1
  Bi  Bi8  1  0.67641900  0.52468900  0.17741000  1
  Bi  Bi9  1  0.67641900  0.47531100  0.82259000  1
  Bi  Bi10  1  0.52604000  0.18056200  0.67849900  1
  Bi  Bi11  1  0.52604000  0.81943800  0.32150100  1
  Bi  Bi12  1  0.47396000  0.81943800  0.67849900  1
  Bi  Bi13  1  0.47396000  0.18056200  0.32150100  1
  Bi  Bi14  1  0.32358100  0.52468900  0.82259000  1
  Bi  Bi15  1  0.32358100  0.47531100  0.17741000  1
  Bi  Bi16  1  0.32073300  0.82239100  0.02456900  1
  Bi  Bi17  1  0.32073300  0.17760900  0.97543100  1
  Bi  Bi18  1  0.16459600  0.66722100  0.51838300  1
  Bi  Bi19  1  0.16459600  0.33277900  0.48161700  1
  Bi  Bi20  1  0.18007100  0.98017000  0.33023200  1
  Bi  Bi21  1  0.18007100  0.01983000  0.66976800  1
  Bi  Bi22  1  0.02293200  0.67949900  0.17970900  1
  Bi  Bi23  1  0.02293200  0.32050100  0.82029100  1
  O  O0  1  0.99611400  0.75356100  0.36870500  1
  O  O1  1  0.99611400  0.24643900  0.63129500  1
  O  O2  1  0.90214200  0.90086900  0.09537100  1
  O  O3  1  0.90214200  0.09913100  0.90462900  1
  O  O4  1  0.86719600  0.49256800  0.24161400  1
  O  O5  1  0.86719600  0.50743200  0.75838600  1
  O  O6  1  0.80030100  0.19894400  0.19928800  1
  O  O7  1  0.80030100  0.80105600  0.80071200  1
  O  O8  1  0.75657900  0.13086900  0.49607600  1
  O  O9  1  0.75657900  0.86913100  0.50392400  1
  O  O10  1  0.74711800  0.63217200  0.00762400  1
  O  O11  1  0.74711800  0.36782800  0.99237600  1
  O  O12  1  0.70124400  0.69747300  0.29858900  1
  O  O13  1  0.70124400  0.30252700  0.70141100  1
  O  O14  1  0.63146100  0.99241100  0.25349200  1
  O  O15  1  0.63146100  0.00758900  0.74650800  1
  O  O16  1  0.59661000  0.40331900  0.40089200  1
  O  O17  1  0.59661000  0.59668100  0.59910800  1
  O  O18  1  0.50706300  0.24679300  0.13127500  1
  O  O19  1  0.50706300  0.75320700  0.86872500  1
  O  O20  1  0.49293700  0.75320700  0.13127500  1
  O  O21  1  0.49293700  0.24679300  0.86872500  1
  O  O22  1  0.40339000  0.59668100  0.40089200  1
  O  O23  1  0.40339000  0.40331900  0.59910800  1
  O  O24  1  0.36853900  0.99241100  0.74650800  1
  O  O25  1  0.36853900  0.00758900  0.25349200  1
  O  O26  1  0.29875600  0.69747300  0.70141100  1
  O  O27  1  0.29875600  0.30252700  0.29858900  1
  O  O28  1  0.25288200  0.63217200  0.99237600  1
  O  O29  1  0.25288200  0.36782800  0.00762400  1
  O  O30  1  0.24342100  0.86913100  0.49607600  1
  O  O31  1  0.24342100  0.13086900  0.50392400  1
  O  O32  1  0.19969900  0.80105600  0.19928800  1
  O  O33  1  0.19969900  0.19894400  0.80071200  1
  O  O34  1  0.13280400  0.49256800  0.75838600  1
  O  O35  1  0.13280400  0.50743200  0.24161400  1
  O  O36  1  0.09785800  0.90086900  0.90462900  1
  O  O37  1  0.09785800  0.09913100  0.09537100  1
  O  O38  1  0.00388600  0.75356100  0.63129500  1
  O  O39  1  0.00388600  0.24643900  0.36870500  1
  O  O40  1  0.00000000  0.50000000  0.50000000  1
loop_
_geom_bond_atom_site_label_1
_geom_bond_atom_site_label_2
_geom_bond_distance
_geom_bond_site_symmetry_2
Bi0 O39 2.135773 1_655
Bi0 O4 2.210547 1_555
Bi0 O6 2.230441 1_555
Bi0 O35 2.600809 1_655
Bi0 O37 2.755773 1_655
Bi1 O38 2.135773 1_655
Bi1 O5 2.210547 1_555
Bi1 O7 2.230441 1_555
Bi1 O34 2.600809 1_655
Bi1 O36 2.755773 1_655
Bi2 O14 2.128279 1_545
Bi2 O8 2.179991 1_555
Bi2 O6 2.313390 1_555
Bi2 O9 2.481156 1_545
Bi3 O15 2.128279 1_565
Bi3 O9 2.179991 1_555
Bi3 O7 2.313390 1_555
Bi3 O8 2.481156 1_565
Bi4 O1 2.226635 1_555
Bi4 O8 2.256481 1_555
Bi4 O13 2.383507 1_555
Bi4 O40 2.436944 1_655
Bi4 O39 2.507027 1_655
Bi5 O0 2.226635 1_555
Bi5 O9 2.256481 1_555
Bi5 O12 2.383507 1_555
Bi5 O40 2.436944 1_655
Bi5 O38 2.507027 1_655
Bi6 O11 2.118111 1_554
Bi6 O18 2.221081 1_555
Bi6 O6 2.224537 1_555
Bi6 O21 2.623589 1_554
Bi6 O3 2.748256 1_554
Bi7 O10 2.118111 1_556
Bi7 O19 2.221081 1_555
Bi7 O7 2.224537 1_555
Bi7 O20 2.623589 1_556
Bi7 O2 2.748256 1_556
Bi8 O4 2.112038 1_555
Bi8 O12 2.206608 1_555
Bi8 O10 2.217865 1_555
Bi8 O11 2.628449 1_554
Bi8 O16 2.776703 1_555
Bi9 O5 2.112038 1_555
Bi9 O13 2.206608 1_555
Bi9 O11 2.217865 1_555
Bi9 O10 2.628449 1_556
Bi9 O17 2.776703 1_555
Bi10 O21 2.129544 1_555
Bi10 O15 2.214463 1_555
Bi10 O13 2.223064 1_555
Bi10 O24 2.637996 1_545
Bi10 O23 2.760528 1_555
Bi11 O20 2.129544 1_555
Bi11 O14 2.214463 1_555
Bi11 O12 2.223064 1_555
Bi11 O25 2.637996 1_565
Bi11 O22 2.760528 1_555
Bi12 O19 2.129544 1_555
Bi12 O24 2.214463 1_555
Bi12 O26 2.223064 1_555
Bi12 O15 2.637996 1_565
Bi12 O17 2.760528 1_555
Bi13 O18 2.129544 1_555
Bi13 O25 2.214463 1_555
Bi13 O27 2.223064 1_555
Bi13 O14 2.637996 1_545
Bi13 O16 2.760528 1_555
Bi14 O34 2.112038 1_555
Bi14 O26 2.206608 1_555
Bi14 O28 2.217865 1_555
Bi14 O29 2.628449 1_556
Bi14 O23 2.776703 1_555
Bi15 O35 2.112038 1_555
Bi15 O27 2.206608 1_555
Bi15 O29 2.217865 1_555
Bi15 O28 2.628449 1_554
Bi15 O22 2.776703 1_555
Bi16 O28 2.118111 1_554
Bi16 O20 2.221081 1_555
Bi16 O32 2.224537 1_555
Bi16 O19 2.623589 1_554
Bi16 O36 2.748256 1_554
Bi17 O29 2.118111 1_556
Bi17 O21 2.221081 1_555
Bi17 O33 2.224537 1_555
Bi17 O18 2.623589 1_556
Bi17 O37 2.748256 1_556
Bi18 O38 2.226635 1_555
Bi18 O30 2.256481 1_555
Bi18 O26 2.383507 1_555
Bi18 O40 2.436944 1_555
Bi18 O0 2.507027 1_455
Bi19 O39 2.226635 1_555
Bi19 O31 2.256481 1_555
Bi19 O27 2.383507 1_555
Bi19 O40 2.436944 1_555
Bi19 O1 2.507027 1_455
Bi20 O25 2.128279 1_565
Bi20 O30 2.179991 1_555
Bi20 O32 2.313390 1_555
Bi20 O31 2.481156 1_565
Bi21 O24 2.128279 1_545
Bi21 O31 2.179991 1_555
Bi21 O33 2.313390 1_555
Bi21 O30 2.481156 1_545
Bi22 O0 2.135773 1_455
Bi22 O35 2.210547 1_555
Bi22 O32 2.230441 1_555
Bi22 O4 2.600809 1_455
Bi22 O2 2.755773 1_455
Bi23 O1 2.135773 1_455
Bi23 O34 2.210547 1_555
Bi23 O33 2.230441 1_555
Bi23 O5 2.600809 1_455
Bi23 O3 2.755773 1_455
O2 V1 1.752756 1_665
O3 V1 1.752756 1_656
O16 V0 1.753276 1_555
O17 V0 1.753276 1_555
O22 V0 1.753276 1_555
O23 V0 1.753276 1_555
O36 V1 1.752756 1_566
O37 V1 1.752756 1_555
