# generated using pymatgen
data_LiCr(PO3)4
_symmetry_space_group_name_H-M   'P 1'
_cell_length_a   7.41253234
_cell_length_b   7.41253234
_cell_length_c   18.09887300
_cell_angle_alpha   90.00000000
_cell_angle_beta   90.00000000
_cell_angle_gamma   101.83079001
_symmetry_Int_Tables_number   1
_chemical_formula_structural   LiCr(PO3)4
_chemical_formula_sum   'Li4 Cr4 P16 O48'
_cell_volume   973.32924664
_cell_formula_units_Z   4
loop_
 _symmetry_equiv_pos_site_id
 _symmetry_equiv_pos_as_xyz
  1  'x, y, z'
loop_
 _atom_site_type_symbol
 _atom_site_label
 _atom_site_symmetry_multiplicity
 _atom_site_fract_x
 _atom_site_fract_y
 _atom_site_fract_z
 _atom_site_occupancy
  Li  Li0  1  0.20225000  0.10109500  0.64287000  1
  Li  Li1  1  0.89890500  0.79775000  0.85713000  1
  Li  Li2  1  0.79775000  0.89890500  0.14287000  1
  Li  Li3  1  0.10109500  0.20225000  0.35713000  1
  Cr  Cr0  1  0.56505900  0.95577900  0.88428600  1
  Cr  Cr1  1  0.04422100  0.43494100  0.61571400  1
  Cr  Cr2  1  0.95577900  0.56505900  0.11571400  1
  Cr  Cr3  1  0.43494100  0.04422100  0.38428600  1
  P  P0  1  0.04428000  0.76781900  0.34608400  1
  P  P1  1  0.23218100  0.95572000  0.15391600  1
  P  P2  1  0.29022100  0.77512900  0.01303700  1
  P  P3  1  0.22487100  0.70977900  0.48696300  1
  P  P4  1  0.37860400  0.62139600  0.75000000  1
  P  P5  1  0.66304400  0.76277700  0.30902600  1
  P  P6  1  0.23722300  0.33695600  0.19097400  1
  P  P7  1  0.36450400  0.36450400  0.50000000  1
  P  P8  1  0.63549600  0.63549600  0.00000000  1
  P  P9  1  0.33695600  0.23722300  0.80902600  1
  P  P10  1  0.76277700  0.66304400  0.69097400  1
  P  P11  1  0.62139600  0.37860400  0.25000000  1
  P  P12  1  0.70977900  0.22487100  0.51303700  1
  P  P13  1  0.77512900  0.29022100  0.98696300  1
  P  P14  1  0.76781900  0.04428000  0.65391600  1
  P  P15  1  0.95572000  0.23218100  0.84608400  1
  O  O0  1  0.03950000  0.83398300  0.14656700  1
  O  O1  1  0.16601700  0.96050000  0.35343300  1
  O  O2  1  0.04913600  0.65006400  0.28173600  1
  O  O3  1  0.34993600  0.95086400  0.21826400  1
  O  O4  1  0.33494100  0.90314700  0.47904200  1
  O  O5  1  0.09685300  0.66505900  0.02095800  1
  O  O6  1  0.08402300  0.65354200  0.42087300  1
  O  O7  1  0.34645800  0.91597700  0.07912700  1
  O  O8  1  0.12689000  0.67110100  0.55989300  1
  O  O9  1  0.32889900  0.87311000  0.94010700  1
  O  O10  1  0.41864000  0.79038900  0.79819600  1
  O  O11  1  0.20961100  0.58136000  0.70180400  1
  O  O12  1  0.50859000  0.81665100  0.35307400  1
  O  O13  1  0.18334900  0.49141000  0.14692600  1
  O  O14  1  0.42823600  0.63229900  0.02227800  1
  O  O15  1  0.36770100  0.57176400  0.47772200  1
  O  O16  1  0.80280100  0.83976000  0.63504800  1
  O  O17  1  0.16024000  0.19719900  0.86495200  1
  O  O18  1  0.54163200  0.61043100  0.69187200  1
  O  O19  1  0.38956900  0.45836800  0.80812800  1
  O  O20  1  0.24861400  0.31526300  0.56887900  1
  O  O21  1  0.68473700  0.75138600  0.93112100  1
  O  O22  1  0.15749600  0.28953600  0.26490100  1
  O  O23  1  0.71046400  0.84250400  0.23509900  1
  O  O24  1  0.28953600  0.15749600  0.73509900  1
  O  O25  1  0.84250400  0.71046400  0.76490100  1
  O  O26  1  0.31526300  0.24861400  0.43112100  1
  O  O27  1  0.75138600  0.68473700  0.06887900  1
  O  O28  1  0.61043100  0.54163200  0.30812800  1
  O  O29  1  0.45836800  0.38956900  0.19187200  1
  O  O30  1  0.19719900  0.16024000  0.13504800  1
  O  O31  1  0.83976000  0.80280100  0.36495200  1
  O  O32  1  0.63229900  0.42823600  0.97772200  1
  O  O33  1  0.57176400  0.36770100  0.52227800  1
  O  O34  1  0.49141000  0.18334900  0.85307400  1
  O  O35  1  0.81665100  0.50859000  0.64692600  1
  O  O36  1  0.79038900  0.41864000  0.20180400  1
  O  O37  1  0.58136000  0.20961100  0.29819600  1
  O  O38  1  0.67110100  0.12689000  0.44010700  1
  O  O39  1  0.87311000  0.32889900  0.05989300  1
  O  O40  1  0.65354200  0.08402300  0.57912700  1
  O  O41  1  0.91597700  0.34645800  0.92087300  1
  O  O42  1  0.66505900  0.09685300  0.97904200  1
  O  O43  1  0.90314700  0.33494100  0.52095800  1
  O  O44  1  0.65006400  0.04913600  0.71826400  1
  O  O45  1  0.95086400  0.34993600  0.78173600  1
  O  O46  1  0.96050000  0.16601700  0.64656700  1
  O  O47  1  0.83398300  0.03950000  0.85343300  1
loop_
_geom_bond_atom_site_label_1
_geom_bond_atom_site_label_2
_geom_bond_distance
_geom_bond_site_symmetry_2
Li0 O24 1.807998 1_555
Li0 O46 1.949581 1_455
Li0 O20 2.051334 1_555
Li1 O25 1.807998 1_555
Li1 O47 1.949581 1_565
Li1 O21 2.051334 1_555
Li2 O23 1.807998 1_555
Li2 O0 1.949581 1_655
Li2 O27 2.051334 1_555
Li3 O22 1.807998 1_555
Li3 O1 1.949581 1_545
Li3 O26 2.051334 1_555
Cr0 O34 1.959666 1_565
Cr0 O9 2.005181 1_555
Cr0 O47 2.040431 1_565
Cr0 O42 2.065498 1_565
Cr0 O21 2.086159 1_555
Cr0 O10 2.136143 1_555
Cr1 O35 1.959666 1_455
Cr1 O8 2.005181 1_555
Cr1 O46 2.040431 1_455
Cr1 O43 2.065498 1_455
Cr1 O20 2.086159 1_555
Cr1 O11 2.136143 1_555
Cr2 O13 1.959666 1_655
Cr2 O39 2.005181 1_555
Cr2 O0 2.040431 1_655
Cr2 O5 2.065498 1_655
Cr2 O27 2.086159 1_555
Cr2 O36 2.136143 1_555
Cr3 O12 1.959666 1_545
Cr3 O38 2.005181 1_555
Cr3 O1 2.040431 1_545
Cr3 O4 2.065498 1_545
Cr3 O26 2.086159 1_555
Cr3 O37 2.136143 1_555
O0 P1 1.530821 1_555
O1 P0 1.530821 1_555
O2 P0 1.460282 1_555
O3 P1 1.460282 1_555
O4 P3 1.503726 1_555
O5 P2 1.503726 1_555
O6 P3 1.586228 1_555
O6 P0 1.654957 1_555
O7 P2 1.586228 1_555
O7 P1 1.654957 1_555
O8 P3 1.505516 1_555
O9 P2 1.505516 1_556
O10 P4 1.505226 1_555
O11 P4 1.505226 1_555
O12 P5 1.514362 1_555
O13 P6 1.514362 1_555
O14 P8 1.583822 1_555
O14 P2 1.624693 1_555
O15 P7 1.583822 1_555
O15 P3 1.624693 1_555
O16 P14 1.625834 1_565
O16 P10 1.633732 1_555
O17 P15 1.625834 1_455
O17 P9 1.633732 1_555
O18 P10 1.605410 1_555
O18 P4 1.616801 1_555
O19 P9 1.605410 1_555
O19 P4 1.616801 1_555
O20 P7 1.515485 1_555
O21 P8 1.515485 1_556
O22 P6 1.475758 1_555
O23 P5 1.475758 1_555
O24 P9 1.475758 1_555
O25 P10 1.475758 1_555
O26 P7 1.515485 1_555
O27 P8 1.515485 1_555
O28 P5 1.605410 1_555
O28 P11 1.616801 1_555
O29 P6 1.605410 1_555
O29 P11 1.616801 1_555
O30 P1 1.625834 1_545
O30 P6 1.633732 1_555
O31 P0 1.625834 1_655
O31 P5 1.633732 1_555
O32 P8 1.583822 1_556
O32 P13 1.624693 1_555
O33 P7 1.583822 1_555
O33 P12 1.624693 1_555
O34 P9 1.514362 1_555
O35 P10 1.514362 1_555
O36 P11 1.505226 1_555
O37 P11 1.505226 1_555
O38 P12 1.505516 1_555
O39 P13 1.505516 1_554
O40 P12 1.586228 1_555
O40 P14 1.654957 1_555
O41 P13 1.586228 1_555
O41 P15 1.654957 1_555
O42 P13 1.503726 1_555
O43 P12 1.503726 1_555
O44 P14 1.460282 1_555
O45 P15 1.460282 1_555
O46 P14 1.530821 1_555
O47 P15 1.530821 1_555
