# generated using pymatgen
data_LiMnP3HO10
_symmetry_space_group_name_H-M   'P 1'
_cell_length_a   4.90900800
_cell_length_b   8.70299500
_cell_length_c   11.56032219
_cell_angle_alpha   53.89234266
_cell_angle_beta   90.00000000
_cell_angle_gamma   90.00000000
_symmetry_Int_Tables_number   1
_chemical_formula_structural   LiMnP3HO10
_chemical_formula_sum   'Li2 Mn2 P6 H2 O20'
_cell_volume   399.02123170
_cell_formula_units_Z   2
loop_
 _symmetry_equiv_pos_site_id
 _symmetry_equiv_pos_as_xyz
  1  'x, y, z'
loop_
 _atom_site_type_symbol
 _atom_site_label
 _atom_site_symmetry_multiplicity
 _atom_site_fract_x
 _atom_site_fract_y
 _atom_site_fract_z
 _atom_site_occupancy
  Li  Li0  1  0.56003500  0.50000000  0.75000000  1
  Li  Li1  1  0.43996500  0.50000000  0.25000000  1
  Mn  Mn0  1  0.50000000  0.00000000  0.00000000  1
  Mn  Mn1  1  0.50000000  0.00000000  0.50000000  1
  P  P0  1  0.99905000  0.72475100  0.53772600  1
  P  P1  1  0.76820700  0.00000000  0.25000000  1
  P  P2  1  0.99905000  0.27524900  0.96227400  1
  P  P3  1  0.00095000  0.72475100  0.03772600  1
  P  P4  1  0.23179300  0.00000000  0.75000000  1
  P  P5  1  0.00095000  0.27524900  0.46227400  1
  H  H0  1  0.00000000  0.50000000  0.50000000  1
  H  H1  1  0.00000000  0.50000000  0.00000000  1
  O  O0  1  0.80928600  0.18297800  0.91336900  1
  O  O1  1  0.29602000  0.27310600  0.92786300  1
  O  O2  1  0.90127600  0.52758100  0.58550500  1
  O  O3  1  0.90127600  0.47241900  0.91449500  1
  O  O4  1  0.59475800  0.91832900  0.18997500  1
  O  O5  1  0.97731100  0.84928800  0.36365000  1
  O  O6  1  0.29602000  0.72689400  0.57213700  1
  O  O7  1  0.80928600  0.81702200  0.58663100  1
  O  O8  1  0.97731100  0.15071200  0.13635000  1
  O  O9  1  0.59475800  0.08167100  0.31002500  1
  O  O10  1  0.40524200  0.91832900  0.68997500  1
  O  O11  1  0.02268900  0.84928800  0.86365000  1
  O  O12  1  0.19071400  0.18297800  0.41336900  1
  O  O13  1  0.70398000  0.27310600  0.42786300  1
  O  O14  1  0.02268900  0.15071200  0.63635000  1
  O  O15  1  0.40524200  0.08167100  0.81002500  1
  O  O16  1  0.09872400  0.52758100  0.08550500  1
  O  O17  1  0.09872400  0.47241900  0.41449500  1
  O  O18  1  0.70398000  0.72689400  0.07213700  1
  O  O19  1  0.19071400  0.81702200  0.08663100  1
loop_
_geom_bond_atom_site_label_1
_geom_bond_atom_site_label_2
_geom_bond_distance
_geom_bond_site_symmetry_2
Li0 O6 2.240849 1_555
Li0 O1 2.240849 1_555
Li0 O3 2.437605 1_555
Li0 O2 2.437605 1_555
Li0 O7 2.556335 1_555
Li0 O0 2.556335 1_555
Li1 O18 2.240849 1_555
Li1 O13 2.240849 1_555
Li1 O17 2.437605 1_555
Li1 O16 2.437605 1_555
Li1 O19 2.556335 1_555
Li1 O12 2.556335 1_555
Mn0 O4 1.924826 1_545
Mn0 O15 1.924826 1_554
Mn0 O0 1.991084 1_554
Mn0 O19 1.991084 1_545
Mn0 O1 2.238605 1_554
Mn0 O18 2.238605 1_545
Mn1 O10 1.924826 1_545
Mn1 O9 1.924826 1_555
Mn1 O12 1.991084 1_555
Mn1 O7 1.991084 1_545
Mn1 O13 2.238605 1_555
Mn1 O6 2.238605 1_545
H0 O2 1.244669 1_455
H0 O17 1.244669 1_555
H1 O16 1.244669 1_555
H1 O3 1.244669 1_454
O0 P2 1.538627 1_555
O1 P2 1.514134 1_455
O2 P0 1.537180 1_555
O3 P2 1.537180 1_555
O4 P1 1.514272 1_565
O5 P1 1.571363 1_565
O5 P0 1.632512 1_555
O6 P0 1.514134 1_455
O7 P0 1.538627 1_555
O8 P1 1.571363 1_555
O8 P2 1.632512 1_554
O9 P1 1.514272 1_555
O10 P4 1.514272 1_565
O11 P4 1.571363 1_565
O11 P3 1.632512 1_556
O12 P5 1.538627 1_555
O13 P5 1.514134 1_655
O14 P4 1.571363 1_555
O14 P5 1.632512 1_555
O15 P4 1.514272 1_555
O16 P3 1.537180 1_555
O17 P5 1.537180 1_555
O18 P3 1.514134 1_655
O19 P3 1.538627 1_555
