# generated using pymatgen
data_Na3Mn2P2(CO7)2
_symmetry_space_group_name_H-M   'P 1'
_cell_length_a   8.34082200
_cell_length_b   8.42943169
_cell_length_c   10.30290951
_cell_angle_alpha   107.29543336
_cell_angle_beta   107.02882701
_cell_angle_gamma   103.22961021
_symmetry_Int_Tables_number   1
_chemical_formula_structural   Na3Mn2P2(CO7)2
_chemical_formula_sum   'Na6 Mn4 P4 C4 O28'
_cell_volume   620.44669418
_cell_formula_units_Z   2
loop_
 _symmetry_equiv_pos_site_id
 _symmetry_equiv_pos_as_xyz
  1  'x, y, z'
loop_
 _atom_site_type_symbol
 _atom_site_label
 _atom_site_symmetry_multiplicity
 _atom_site_fract_x
 _atom_site_fract_y
 _atom_site_fract_z
 _atom_site_occupancy
  Na  Na0  1  0.75314000  0.74185300  0.23477800  1
  Na  Na1  1  0.47074500  0.01935700  0.24569000  1
  Na  Na2  1  0.97942800  0.48022600  0.22957600  1
  Na  Na3  1  0.51625700  0.00499400  0.76259600  1
  Na  Na4  1  0.23406500  0.28264900  0.75252200  1
  Na  Na5  1  0.76437400  0.76290000  0.77269900  1
  Mn  Mn0  1  0.94980100  0.18972800  0.34888000  1
  Mn  Mn1  1  0.44481000  0.68888300  0.35189800  1
  Mn  Mn2  1  0.56208400  0.30717800  0.64954100  1
  Mn  Mn3  1  0.06016000  0.80305100  0.65082400  1
  P  P0  1  0.19799600  0.93746900  0.42676600  1
  P  P1  1  0.69915600  0.45352200  0.42759300  1
  P  P2  1  0.30090800  0.55868000  0.57535500  1
  P  P3  1  0.80495500  0.04204000  0.57023300  1
  C  C0  1  0.77739700  0.03200300  0.08228800  1
  C  C1  1  0.28268800  0.53128300  0.08541500  1
  C  C2  1  0.71757700  0.46590200  0.91711900  1
  C  C3  1  0.22076900  0.97609300  0.91596700  1
  O  O0  1  0.30787000  0.05821100  0.04917300  1
  O  O1  1  0.79354200  0.54316200  0.05427900  1
  O  O2  1  0.42820800  0.67562000  0.15047600  1
  O  O3  1  0.92300000  0.17223000  0.14516300  1
  O  O4  1  0.72857400  0.98692200  0.18116400  1
  O  O5  1  0.23692200  0.48866000  0.18677800  1
  O  O6  1  0.29226500  0.83673300  0.33761300  1
  O  O7  1  0.08131900  0.00144900  0.32486600  1
  O  O8  1  0.77817000  0.35174700  0.32925600  1
  O  O9  1  0.59337100  0.54116300  0.33533700  1
  O  O10  1  0.15048700  0.42022200  0.43024900  1
  O  O11  1  0.57316200  0.32315900  0.46587500  1
  O  O12  1  0.07093100  0.80105500  0.46265200  1
  O  O13  1  0.66070100  0.89963900  0.41897700  1
  O  O14  1  0.33761800  0.08750700  0.57350700  1
  O  O15  1  0.43841900  0.68557000  0.53937000  1
  O  O16  1  0.93745100  0.16803500  0.53379800  1
  O  O17  1  0.84318500  0.59857100  0.57632100  1
  O  O18  1  0.23043300  0.67988100  0.67450400  1
  O  O19  1  0.40205800  0.47618400  0.67016600  1
  O  O20  1  0.71717900  0.13736500  0.66349700  1
  O  O21  1  0.90890200  0.95369700  0.66231500  1
  O  O22  1  0.76697800  0.51686500  0.82246000  1
  O  O23  1  0.26088400  0.01971500  0.81151400  1
  O  O24  1  0.57426800  0.31975600  0.84949600  1
  O  O25  1  0.07758000  0.83224200  0.85412500  1
  O  O26  1  0.69557300  0.94942500  0.94589000  1
  O  O27  1  0.20254400  0.44950100  0.95143700  1
loop_
_geom_bond_atom_site_label_1
_geom_bond_atom_site_label_2
_geom_bond_distance
_geom_bond_site_symmetry_2
Na0 O1 2.269461 1_555
Na0 O4 2.328208 1_555
Na0 O13 2.406372 1_555
Na0 O2 2.460010 1_555
Na0 O9 2.555396 1_555
Na0 O7 2.775841 1_665
Na0 O12 2.799990 1_655
Na1 O0 2.244801 1_555
Na1 O6 2.475204 1_545
Na1 O4 2.477862 1_545
Na1 O11 2.616011 1_555
Na1 O13 2.619641 1_545
Na1 O2 2.668199 1_545
Na2 O1 2.292007 1_555
Na2 O5 2.305554 1_655
Na2 O3 2.361506 1_555
Na2 O10 2.406343 1_655
Na2 O8 2.425793 1_555
Na2 O12 2.789838 1_655
Na3 O26 2.283632 1_545
Na3 O23 2.349247 1_555
Na3 O24 2.412822 1_555
Na3 O20 2.433038 1_555
Na3 O14 2.465581 1_555
Na3 O15 2.757550 1_545
Na3 O18 2.877676 1_545
Na4 O27 2.240152 1_555
Na4 O19 2.412035 1_555
Na4 O23 2.506009 1_555
Na4 O16 2.545267 1_455
Na4 O14 2.575449 1_555
Na4 O24 2.625892 1_555
Na5 O22 2.282726 1_555
Na5 O26 2.308671 1_555
Na5 O25 2.365575 1_655
Na5 O17 2.444137 1_555
Na5 O21 2.517222 1_555
Na5 O15 2.832764 1_555
Mn0 O16 1.996818 1_555
Mn0 O10 2.000176 1_655
Mn0 O3 2.000760 1_555
Mn0 O4 2.060442 1_545
Mn0 O7 2.122672 1_655
Mn0 O8 2.201121 1_555
Mn1 O9 1.954167 1_555
Mn1 O15 1.956026 1_555
Mn1 O6 1.979637 1_555
Mn1 O13 1.988252 1_555
Mn1 O5 1.993698 1_555
Mn1 O2 2.006219 1_555
Mn2 O11 1.963605 1_555
Mn2 O24 2.002056 1_555
Mn2 O22 2.044640 1_555
Mn2 O14 2.058980 1_555
Mn2 O20 2.145715 1_555
Mn2 O19 2.170881 1_555
Mn3 O18 1.943474 1_555
Mn3 O17 1.951224 1_455
Mn3 O12 1.962217 1_555
Mn3 O21 1.987363 1_455
Mn3 O25 1.991959 1_555
Mn3 O23 2.014602 1_565
C0 O26 1.250739 1_544
C0 O3 1.310955 1_555
C0 O4 1.323002 1_545
C1 O27 1.228946 1_554
C1 O5 1.326369 1_555
C1 O2 1.328704 1_555
C2 O1 1.249824 1_556
C2 O22 1.307260 1_555
C2 O24 1.326546 1_555
C3 O0 1.229406 1_566
C3 O25 1.317105 1_555
C3 O23 1.339844 1_565
O6 P0 1.564556 1_555
O7 P0 1.522707 1_545
O8 P1 1.526393 1_555
O9 P1 1.566018 1_555
O10 P2 1.537864 1_555
O11 P1 1.561859 1_555
O12 P0 1.583251 1_555
O13 P3 1.563826 1_565
O14 P0 1.548929 1_545
O15 P2 1.587567 1_555
O16 P3 1.559814 1_555
O17 P1 1.556173 1_555
O18 P2 1.561681 1_555
O19 P2 1.529474 1_555
O20 P3 1.525514 1_555
O21 P3 1.562091 1_565
