# generated using pymatgen
data_Li3Fe8(BO3)8
_symmetry_space_group_name_H-M   'P 1'
_cell_length_a   5.31624500
_cell_length_b   9.02785134
_cell_length_c   10.04298880
_cell_angle_alpha   90.50107491
_cell_angle_beta   91.31270482
_cell_angle_gamma   90.53075117
_symmetry_Int_Tables_number   1
_chemical_formula_structural   Li3Fe8(BO3)8
_chemical_formula_sum   'Li3 Fe8 B8 O24'
_cell_volume   481.83939233
_cell_formula_units_Z   1
loop_
 _symmetry_equiv_pos_site_id
 _symmetry_equiv_pos_as_xyz
  1  'x, y, z'
loop_
 _atom_site_type_symbol
 _atom_site_label
 _atom_site_symmetry_multiplicity
 _atom_site_fract_x
 _atom_site_fract_y
 _atom_site_fract_z
 _atom_site_occupancy
  Li  Li0  1  0.65095900  0.99950700  0.08737100  1
  Li  Li1  1  0.15568800  0.50270600  0.09442300  1
  Li  Li2  1  0.34230700  0.99142600  0.35619300  1
  Fe  Fe0  1  0.15180900  0.15905700  0.11751400  1
  Fe  Fe1  1  0.83825900  0.17049100  0.37429700  1
  Fe  Fe2  1  0.34018300  0.33484600  0.86887600  1
  Fe  Fe3  1  0.66343400  0.33600700  0.62605500  1
  Fe  Fe4  1  0.33492600  0.66053800  0.37242400  1
  Fe  Fe5  1  0.16153800  0.84102000  0.62415400  1
  Fe  Fe6  1  0.66535300  0.65677400  0.12214800  1
  Fe  Fe7  1  0.83823200  0.83290600  0.86299700  1
  B  B0  1  0.17459300  0.17378200  0.61870200  1
  B  B1  1  0.33333300  0.32593000  0.37185600  1
  B  B2  1  0.83152200  0.16733000  0.87259400  1
  B  B3  1  0.66551100  0.33054600  0.12110200  1
  B  B4  1  0.33298700  0.67029700  0.87735100  1
  B  B5  1  0.65714800  0.66877200  0.62084300  1
  B  B6  1  0.16447600  0.83066200  0.12756200  1
  B  B7  1  0.83090700  0.83382000  0.36764800  1
  O  O0  1  0.28630800  0.04226600  0.60702100  1
  O  O1  1  0.08145200  0.19005900  0.91071400  1
  O  O2  1  0.72276000  0.03140500  0.89038400  1
  O  O3  1  0.19733200  0.19685900  0.33565600  1
  O  O4  1  0.30259100  0.30141600  0.66902000  1
  O  O5  1  0.76986200  0.19639800  0.16875300  1
  O  O6  1  0.92396400  0.19540400  0.57396900  1
  O  O7  1  0.41326300  0.32703600  0.07596500  1
  O  O8  1  0.23327400  0.46145400  0.35331000  1
  O  O9  1  0.57632800  0.30733200  0.42373600  1
  O  O10  1  0.69246600  0.28817000  0.82748300  1
  O  O11  1  0.23025900  0.53130500  0.89119100  1
  O  O12  1  0.80764600  0.45576500  0.11816800  1
  O  O13  1  0.27524300  0.69542700  0.16439800  1
  O  O14  1  0.41725200  0.68554200  0.56379700  1
  O  O15  1  0.76469000  0.53267600  0.63163800  1
  O  O16  1  0.58289200  0.69429400  0.91605000  1
  O  O17  1  0.08743700  0.82236700  0.39952800  1
  O  O18  1  0.18921200  0.78868200  0.83506800  1
  O  O19  1  0.68825600  0.70930900  0.33304700  1
  O  O20  1  0.78493600  0.79537200  0.66818700  1
  O  O21  1  0.30288400  0.95997300  0.14289300  1
  O  O22  1  0.91596600  0.83207600  0.07955400  1
  O  O23  1  0.71870800  0.97109300  0.36534900  1
loop_
_geom_bond_atom_site_label_1
_geom_bond_atom_site_label_2
_geom_bond_distance
_geom_bond_site_symmetry_2
Li0 O21 1.975095 1_555
Li0 O5 2.038921 1_565
Li0 O2 2.045723 1_564
Li0 O22 2.078029 1_555
Li1 O12 1.915055 1_455
Li1 O13 1.965349 1_555
Li1 O11 2.105738 1_554
Li1 O7 2.114546 1_555
Li2 O23 2.011214 1_555
Li2 O3 2.025352 1_565
Li2 O17 2.086872 1_555
Li2 O21 2.163592 1_555
Li2 O0 2.581014 1_565
Fe0 O21 1.991402 1_545
Fe0 O7 2.098671 1_555
Fe0 O1 2.123257 1_554
Fe0 O5 2.135181 1_455
Fe0 O3 2.221650 1_555
Fe1 O23 1.904169 1_545
Fe1 O9 1.940242 1_555
Fe1 O3 1.969360 1_655
Fe1 O6 2.056156 1_555
Fe1 O5 2.103279 1_555
Fe2 O11 1.885642 1_555
Fe2 O1 1.944175 1_555
Fe2 O10 1.976126 1_555
Fe2 O4 2.032139 1_555
Fe2 O7 2.108910 1_556
Fe3 O15 1.850534 1_555
Fe3 O6 1.964016 1_555
Fe3 O4 1.998220 1_555
Fe3 O10 2.074806 1_555
Fe3 O9 2.086981 1_555
Fe4 O8 1.878935 1_555
Fe4 O14 1.971919 1_555
Fe4 O19 1.974932 1_555
Fe4 O17 1.996168 1_555
Fe4 O13 2.132519 1_555
Fe5 O0 1.938759 1_565
Fe5 O14 2.060077 1_555
Fe5 O20 2.098165 1_455
Fe5 O18 2.176285 1_555
Fe5 O17 2.285632 1_555
Fe6 O12 1.972928 1_555
Fe6 O22 2.112245 1_555
Fe6 O16 2.136490 1_554
Fe6 O13 2.157335 1_555
Fe6 O19 2.166904 1_555
Fe7 O2 1.919199 1_565
Fe7 O16 1.925048 1_555
Fe7 O18 1.937902 1_655
Fe7 O20 1.996026 1_555
Fe7 O22 2.204563 1_556
B0 O0 1.337910 1_555
B0 O6 1.412148 1_455
B0 O4 1.416209 1_555
B1 O8 1.351326 1_555
B1 O9 1.393978 1_555
B1 O3 1.406283 1_555
B2 O2 1.366553 1_555
B2 O1 1.387211 1_655
B2 O10 1.396464 1_555
B3 O12 1.354825 1_555
B3 O7 1.405673 1_555
B3 O5 1.419112 1_555
B4 O11 1.373291 1_555
B4 O18 1.383835 1_555
B4 O16 1.390174 1_555
B5 O15 1.364079 1_555
B5 O14 1.396164 1_555
B5 O20 1.398280 1_555
B6 O21 1.379746 1_555
B6 O22 1.396163 1_455
B6 O13 1.409045 1_555
B7 O23 1.380470 1_555
B7 O19 1.387337 1_555
B7 O17 1.398668 1_655
