# generated using pymatgen
data_Rb3DyO3
_symmetry_space_group_name_H-M   'P 1'
_cell_length_a   7.30981242
_cell_length_b   7.82027223
_cell_length_c   11.65629476
_cell_angle_alpha   86.42791601
_cell_angle_beta   90.00000000
_cell_angle_gamma   90.00000000
_symmetry_Int_Tables_number   1
_chemical_formula_structural   Rb3DyO3
_chemical_formula_sum   'Rb12 Dy4 O12'
_cell_volume   665.03432059
_cell_formula_units_Z   4
loop_
 _symmetry_equiv_pos_site_id
 _symmetry_equiv_pos_as_xyz
  1  'x, y, z'
loop_
 _atom_site_type_symbol
 _atom_site_label
 _atom_site_symmetry_multiplicity
 _atom_site_fract_x
 _atom_site_fract_y
 _atom_site_fract_z
 _atom_site_occupancy
  Rb  Rb0  1  0.33525158  0.36039392  0.07958810  1
  Rb  Rb1  1  0.62644003  0.92327473  0.15781877  1
  Rb  Rb2  1  0.80025816  0.37436733  0.18985483  1
  Rb  Rb3  1  0.30025816  0.62563267  0.31014517  1
  Rb  Rb4  1  0.12644003  0.07672527  0.34218123  1
  Rb  Rb5  1  0.83525158  0.63960608  0.42041190  1
  Rb  Rb6  1  0.16474842  0.36039392  0.57958810  1
  Rb  Rb7  1  0.87355997  0.92327473  0.65781877  1
  Rb  Rb8  1  0.69974184  0.37436733  0.68985483  1
  Rb  Rb9  1  0.19974184  0.62563267  0.81014517  1
  Rb  Rb10  1  0.37355997  0.07672527  0.84218123  1
  Rb  Rb11  1  0.66474842  0.63960608  0.92041190  1
  Dy  Dy0  1  0.09058480  0.83792557  0.06893790  1
  Dy  Dy1  1  0.59058480  0.16207443  0.43106210  1
  Dy  Dy2  1  0.40941520  0.83792557  0.56893790  1
  Dy  Dy3  1  0.90941520  0.16207443  0.93106210  1
  O  O0  1  0.35743161  0.74137090  0.04750574  1
  O  O1  1  0.04907189  0.11207424  0.09553544  1
  O  O2  1  0.94176719  0.69049141  0.19241034  1
  O  O3  1  0.44176719  0.30950859  0.30758966  1
  O  O4  1  0.54907189  0.88792576  0.40446456  1
  O  O5  1  0.85743161  0.25862910  0.45249426  1
  O  O6  1  0.14256839  0.74137090  0.54750574  1
  O  O7  1  0.45092811  0.11207424  0.59553544  1
  O  O8  1  0.55823281  0.69049141  0.69241034  1
  O  O9  1  0.05823281  0.30950859  0.80758966  1
  O  O10  1  0.95092811  0.88792576  0.90446456  1
  O  O11  1  0.64256839  0.25862910  0.95249426  1
loop_
_geom_bond_atom_site_label_1
_geom_bond_atom_site_label_2
_geom_bond_distance
_geom_bond_site_symmetry_2
Dy0 O2 2.092208 1_455
Dy0 O0 2.112086 1_555
Dy0 O10 2.185660 1_454
Dy0 O1 2.206220 1_565
Dy1 O3 2.092208 1_555
Dy1 O5 2.112086 1_555
Dy1 O7 2.185660 1_555
Dy1 O4 2.206220 1_545
Dy2 O8 2.092208 1_555
Dy2 O6 2.112086 1_555
Dy2 O4 2.185660 1_555
Dy2 O7 2.206220 1_565
Dy3 O9 2.092208 1_655
Dy3 O11 2.112086 1_555
Dy3 O1 2.185660 1_656
Dy3 O10 2.206220 1_545
O0 Rb1 2.787770 1_555
O0 Rb11 2.832202 1_554
O0 Rb0 2.983922 1_555
O0 Rb3 3.165563 1_555
O0 Rb9 3.180379 1_554
O0 Rb10 3.440582 1_564
O1 Rb0 2.852505 1_555
O1 Rb4 2.926212 1_555
O1 Rb2 3.000854 1_455
O2 Rb2 2.681737 1_555
O2 Rb5 2.774153 1_555
O2 Rb1 2.949240 1_555
O2 Rb3 2.986789 1_655
O3 Rb3 2.681737 1_555
O3 Rb0 2.774153 1_555
O3 Rb4 2.949240 1_555
O3 Rb2 2.986789 1_555
O4 Rb5 2.852505 1_555
O4 Rb1 2.926212 1_555
O4 Rb3 3.000854 1_555
O5 Rb4 2.787770 1_655
O5 Rb6 2.832202 1_655
O5 Rb5 2.983922 1_555
O5 Rb2 3.165563 1_555
O5 Rb8 3.180379 1_555
O5 Rb7 3.440582 1_545
O6 Rb7 2.787770 1_455
O6 Rb5 2.832202 1_455
O6 Rb6 2.983922 1_555
O6 Rb9 3.165563 1_555
O6 Rb3 3.180379 1_555
O6 Rb4 3.440582 1_565
O7 Rb6 2.852505 1_555
O7 Rb10 2.926212 1_555
O7 Rb8 3.000854 1_555
O8 Rb8 2.681737 1_555
O8 Rb11 2.774153 1_555
O8 Rb7 2.949240 1_555
O8 Rb9 2.986789 1_555
O9 Rb9 2.681737 1_555
O9 Rb6 2.774153 1_555
O9 Rb10 2.949240 1_555
O9 Rb8 2.986789 1_455
O10 Rb11 2.852505 1_555
O10 Rb7 2.926212 1_555
O10 Rb9 3.000854 1_655
O11 Rb10 2.787770 1_555
O11 Rb0 2.832202 1_556
O11 Rb11 2.983922 1_555
O11 Rb8 3.165563 1_555
O11 Rb2 3.180379 1_556
O11 Rb1 3.440582 1_546
