# generated using pymatgen
data_LiV5(BO5)2
_symmetry_space_group_name_H-M   'P 1'
_cell_length_a   3.05797100
_cell_length_b   9.51926800
_cell_length_c   12.53269300
_cell_angle_alpha   90.00000000
_cell_angle_beta   90.00000000
_cell_angle_gamma   90.00000000
_symmetry_Int_Tables_number   1
_chemical_formula_structural   LiV5(BO5)2
_chemical_formula_sum   'Li2 V10 B4 O20'
_cell_volume   364.82225021
_cell_formula_units_Z   2
loop_
 _symmetry_equiv_pos_site_id
 _symmetry_equiv_pos_as_xyz
  1  'x, y, z'
loop_
 _atom_site_type_symbol
 _atom_site_label
 _atom_site_symmetry_multiplicity
 _atom_site_fract_x
 _atom_site_fract_y
 _atom_site_fract_z
 _atom_site_occupancy
  Li  Li0  1  0.50000000  0.00000000  0.50000000  1
  Li  Li1  1  0.50000000  0.50000000  0.00000000  1
  V  V0  1  0.00000000  0.00000000  0.00000000  1
  V  V1  1  0.00000000  0.00604900  0.28590400  1
  V  V2  1  0.50000000  0.24798300  0.11178100  1
  V  V3  1  0.50000000  0.25201700  0.61178100  1
  V  V4  1  0.00000000  0.49395100  0.78590400  1
  V  V5  1  0.00000000  0.50000000  0.50000000  1
  V  V6  1  0.00000000  0.50604900  0.21409600  1
  V  V7  1  0.50000000  0.74798300  0.38821900  1
  V  V8  1  0.50000000  0.75201700  0.88821900  1
  V  V9  1  0.00000000  0.99395100  0.71409600  1
  B  B0  1  0.50000000  0.22364300  0.85862700  1
  B  B1  1  0.50000000  0.27635700  0.35862700  1
  B  B2  1  0.50000000  0.72364300  0.64137300  1
  B  B3  1  0.50000000  0.77635700  0.14137300  1
  O  O0  1  0.00000000  0.11187400  0.14452300  1
  O  O1  1  0.00000000  0.11774700  0.58087000  1
  O  O2  1  0.50000000  0.13105800  0.35447000  1
  O  O3  1  0.50000000  0.15314300  0.95585300  1
  O  O4  1  0.50000000  0.14544900  0.76437500  1
  O  O5  1  0.50000000  0.35455100  0.26437500  1
  O  O6  1  0.50000000  0.34685700  0.45585300  1
  O  O7  1  0.50000000  0.36894200  0.85447000  1
  O  O8  1  0.00000000  0.38225300  0.08087000  1
  O  O9  1  0.00000000  0.38812600  0.64452300  1
  O  O10  1  0.00000000  0.61187400  0.35547700  1
  O  O11  1  0.00000000  0.61774700  0.91913000  1
  O  O12  1  0.50000000  0.63105800  0.14553000  1
  O  O13  1  0.50000000  0.65314300  0.54414700  1
  O  O14  1  0.50000000  0.64544900  0.73562500  1
  O  O15  1  0.50000000  0.85455100  0.23562500  1
  O  O16  1  0.50000000  0.84685700  0.04414700  1
  O  O17  1  0.50000000  0.86894200  0.64553000  1
  O  O18  1  0.00000000  0.88225300  0.41913000  1
  O  O19  1  0.00000000  0.88812600  0.85547700  1
loop_
_geom_bond_atom_site_label_1
_geom_bond_atom_site_label_2
_geom_bond_distance
_geom_bond_site_symmetry_2
Li0 O1 2.149734 1_655
Li0 O1 2.149734 1_555
Li0 O18 2.149734 1_545
Li0 O18 2.149734 1_645
Li0 O2 2.209750 1_555
Li0 O17 2.209750 1_545
Li1 O11 2.149734 1_654
Li1 O11 2.149734 1_554
Li1 O8 2.149734 1_555
Li1 O8 2.149734 1_655
Li1 O7 2.209750 1_554
Li1 O12 2.209750 1_555
B0 O7 1.384121 1_555
B0 O3 1.391092 1_555
B0 O4 1.396196 1_555
B1 O2 1.384121 1_555
B1 O6 1.391092 1_555
B1 O5 1.396196 1_555
B2 O17 1.384121 1_555
B2 O13 1.391092 1_555
B2 O14 1.396196 1_555
B3 O12 1.384121 1_555
B3 O16 1.391092 1_555
B3 O15 1.396196 1_555
O0 V1 2.038230 1_555
O0 V2 2.045705 1_455
O0 V2 2.045705 1_555
O0 V0 2.101145 1_555
O1 V3 2.030159 1_455
O1 V3 2.030159 1_555
O1 V9 2.043666 1_545
O2 V1 2.119507 1_655
O2 V1 2.119507 1_555
O3 V2 2.152661 1_556
O3 V0 2.183832 1_556
O3 V0 2.183832 1_656
O4 V3 2.164817 1_555
O4 V9 2.194233 1_545
O4 V9 2.194233 1_645
O5 V2 2.164817 1_555
O5 V6 2.194233 1_655
O5 V6 2.194233 1_555
O6 V3 2.152661 1_555
O6 V5 2.183832 1_655
O6 V5 2.183832 1_555
O7 V4 2.119507 1_555
O7 V4 2.119507 1_655
O8 V2 2.030159 1_455
O8 V2 2.030159 1_555
O8 V6 2.043666 1_555
O9 V4 2.038230 1_555
O9 V3 2.045705 1_555
O9 V3 2.045705 1_455
O9 V5 2.101145 1_555
O10 V6 2.038230 1_555
O10 V7 2.045705 1_455
O10 V7 2.045705 1_555
O10 V5 2.101145 1_555
O11 V8 2.030159 1_555
O11 V8 2.030159 1_455
O11 V4 2.043666 1_555
O12 V6 2.119507 1_655
O12 V6 2.119507 1_555
O13 V7 2.152661 1_555
O13 V5 2.183832 1_555
O13 V5 2.183832 1_655
O14 V8 2.164817 1_555
O14 V4 2.194233 1_555
O14 V4 2.194233 1_655
O15 V7 2.164817 1_555
O15 V1 2.194233 1_665
O15 V1 2.194233 1_565
O16 V8 2.152661 1_554
O16 V0 2.183832 1_565
O16 V0 2.183832 1_665
O17 V9 2.119507 1_655
O17 V9 2.119507 1_555
O18 V7 2.030159 1_455
O18 V7 2.030159 1_555
O18 V1 2.043666 1_565
O19 V9 2.038230 1_555
O19 V8 2.045705 1_455
O19 V8 2.045705 1_555
O19 V0 2.101145 1_566
