# generated using pymatgen
data_Li2Cr(SiO3)2
_symmetry_space_group_name_H-M   'P 1'
_cell_length_a   5.86073373
_cell_length_b   5.86029467
_cell_length_c   9.12547521
_cell_angle_alpha   89.67670126
_cell_angle_beta   90.38840726
_cell_angle_gamma   62.00853609
_symmetry_Int_Tables_number   1
_chemical_formula_structural   Li2Cr(SiO3)2
_chemical_formula_sum   'Li4 Cr2 Si4 O12'
_cell_volume   276.73531920
_cell_formula_units_Z   2
loop_
 _symmetry_equiv_pos_site_id
 _symmetry_equiv_pos_as_xyz
  1  'x, y, z'
loop_
 _atom_site_type_symbol
 _atom_site_label
 _atom_site_symmetry_multiplicity
 _atom_site_fract_x
 _atom_site_fract_y
 _atom_site_fract_z
 _atom_site_occupancy
  Li  Li0  1  0.59042400  0.69077600  0.88601200  1
  Li  Li1  1  0.30968000  0.40933500  0.38585700  1
  Li  Li2  1  0.69025400  0.59069800  0.61412800  1
  Li  Li3  1  0.40955200  0.30928800  0.11397600  1
  Cr  Cr0  1  0.24394800  0.24425900  0.74992800  1
  Cr  Cr1  1  0.75611300  0.75580800  0.25015500  1
  Si  Si0  1  0.12826600  0.80117500  0.63839600  1
  Si  Si1  1  0.19885900  0.87166400  0.13843500  1
  Si  Si2  1  0.80113700  0.12831600  0.86155600  1
  Si  Si3  1  0.87173500  0.19882300  0.36159400  1
  O  O0  1  0.35442600  0.85038500  0.71644300  1
  O  O1  1  0.14988000  0.64538900  0.21632400  1
  O  O2  1  0.23532400  0.50269800  0.59151300  1
  O  O3  1  0.49731000  0.76483700  0.09166800  1
  O  O4  1  0.87814600  0.87815100  0.74991900  1
  O  O5  1  0.99997200  0.00000200  0.49999800  1
  O  O6  1  0.12186600  0.12183000  0.25007300  1
  O  O7  1  0.99999700  0.00002400  0.00000200  1
  O  O8  1  0.50271400  0.23505500  0.90834900  1
  O  O9  1  0.76477800  0.49724200  0.40850500  1
  O  O10  1  0.85007900  0.35460600  0.78363900  1
  O  O11  1  0.64554000  0.14963800  0.28352800  1
loop_
_geom_bond_atom_site_label_1
_geom_bond_atom_site_label_2
_geom_bond_distance
_geom_bond_site_symmetry_2
Li0 O3 1.951657 1_556
Li0 O0 1.980561 1_555
Li0 O10 2.072569 1_555
Li1 O2 1.951964 1_555
Li1 O1 1.980977 1_555
Li1 O11 2.071636 1_555
Li2 O9 1.951869 1_555
Li2 O10 1.980947 1_555
Li2 O0 2.071446 1_555
Li3 O8 1.951550 1_554
Li3 O11 1.980447 1_555
Li3 O1 2.072247 1_555
Cr0 O8 2.070126 1_555
Cr0 O2 2.070892 1_555
Cr0 O0 2.109083 1_545
Cr0 O10 2.109979 1_455
Cr1 O9 2.070936 1_555
Cr1 O3 2.071029 1_555
Cr1 O11 2.108567 1_565
Cr1 O1 2.109494 1_655
O0 Si0 1.641827 1_555
O1 Si1 1.641770 1_555
O2 Si0 1.618079 1_555
O3 Si1 1.618273 1_555
O4 Si0 1.671144 1_655
O4 Si2 1.671167 1_565
O5 Si3 1.632830 1_555
O5 Si0 1.632845 1_645
O6 Si3 1.671168 1_455
O6 Si1 1.671190 1_545
O7 Si1 1.632911 1_645
O7 Si2 1.632947 1_554
O8 Si2 1.618252 1_555
O9 Si3 1.617913 1_555
O10 Si2 1.641837 1_555
O11 Si3 1.642001 1_555
