# generated using pymatgen
data_Li8B2O7
_symmetry_space_group_name_H-M   'P 1'
_cell_length_a   9.22735800
_cell_length_b   7.26365500
_cell_length_c   8.41075566
_cell_angle_alpha   72.17208385
_cell_angle_beta   90.00000000
_cell_angle_gamma   90.00000000
_symmetry_Int_Tables_number   1
_chemical_formula_structural   Li8B2O7
_chemical_formula_sum   'Li32 B8 O28'
_cell_volume   536.65548594
_cell_formula_units_Z   4
loop_
 _symmetry_equiv_pos_site_id
 _symmetry_equiv_pos_as_xyz
  1  'x, y, z'
loop_
 _atom_site_type_symbol
 _atom_site_label
 _atom_site_symmetry_multiplicity
 _atom_site_fract_x
 _atom_site_fract_y
 _atom_site_fract_z
 _atom_site_occupancy
  Li  Li0  1  0.52554300  0.87877100  0.93145500  1
  Li  Li1  1  0.54142600  0.91584600  0.64103100  1
  Li  Li2  1  0.26016800  0.89173100  0.53323700  1
  Li  Li3  1  0.97445700  0.87877100  0.43145500  1
  Li  Li4  1  0.05953300  0.74500000  0.71528400  1
  Li  Li5  1  0.95857400  0.91584600  0.14103100  1
  Li  Li6  1  0.75002200  0.71660100  0.56921800  1
  Li  Li7  1  0.23983200  0.89173100  0.03323700  1
  Li  Li8  1  0.53050900  0.57721500  0.85995600  1
  Li  Li9  1  0.49494200  0.65553900  0.52381800  1
  Li  Li10  1  0.44046700  0.74500000  0.21528400  1
  Li  Li11  1  0.76574100  0.49832400  0.87710500  1
  Li  Li12  1  0.74997800  0.71660100  0.06921800  1
  Li  Li13  1  0.26574100  0.50167600  0.62289500  1
  Li  Li14  1  0.96949100  0.57721500  0.35995600  1
  Li  Li15  1  0.99494200  0.34446100  0.97618200  1
  Li  Li16  1  0.00505800  0.65553900  0.02381800  1
  Li  Li17  1  0.03050900  0.42278500  0.64004400  1
  Li  Li18  1  0.73425900  0.49832400  0.37710500  1
  Li  Li19  1  0.25002200  0.28339900  0.93078200  1
  Li  Li20  1  0.23425900  0.50167600  0.12289500  1
  Li  Li21  1  0.55953300  0.25500000  0.78471600  1
  Li  Li22  1  0.50505800  0.34446100  0.47618200  1
  Li  Li23  1  0.46949100  0.42278500  0.14004400  1
  Li  Li24  1  0.76016800  0.10826900  0.96676300  1
  Li  Li25  1  0.24997800  0.28339900  0.43078200  1
  Li  Li26  1  0.04142600  0.08415400  0.85896900  1
  Li  Li27  1  0.94046700  0.25500000  0.28471600  1
  Li  Li28  1  0.02554300  0.12122900  0.56854500  1
  Li  Li29  1  0.73983200  0.10826900  0.46676300  1
  Li  Li30  1  0.45857400  0.08415400  0.35896900  1
  Li  Li31  1  0.47445700  0.12122900  0.06854500  1
  B  B0  1  0.80058500  0.90715500  0.77410400  1
  B  B1  1  0.69941500  0.90715500  0.27410400  1
  B  B2  1  0.28893400  0.69184000  0.84548000  1
  B  B3  1  0.21106600  0.69184000  0.34548000  1
  B  B4  1  0.78893400  0.30816000  0.65452000  1
  B  B5  1  0.71106600  0.30816000  0.15452000  1
  B  B6  1  0.30058500  0.09284500  0.72589600  1
  B  B7  1  0.19941500  0.09284500  0.22589600  1
  O  O0  1  0.88952100  0.89386000  0.92560100  1
  O  O1  1  0.21563300  0.89365300  0.78439500  1
  O  O2  1  0.88995200  0.89354900  0.63217400  1
  O  O3  1  0.61047900  0.89386000  0.42560100  1
  O  O4  1  0.68148000  0.76083200  0.81434000  1
  O  O5  1  0.28436700  0.89365300  0.28439500  1
  O  O6  1  0.61004800  0.89354900  0.13217400  1
  O  O7  1  0.37886500  0.66784900  0.70763500  1
  O  O8  1  0.81852000  0.76083200  0.31434000  1
  O  O9  1  0.16032500  0.55077000  0.89142600  1
  O  O10  1  0.11671200  0.67167400  0.49715900  1
  O  O11  1  0.12113500  0.66784900  0.20763500  1
  O  O12  1  0.33967500  0.55077000  0.39142600  1
  O  O13  1  0.61671200  0.32832600  0.00284100  1
  O  O14  1  0.38328800  0.67167400  0.99715900  1
  O  O15  1  0.66032500  0.44923000  0.60857400  1
  O  O16  1  0.87886500  0.33215100  0.79236500  1
  O  O17  1  0.88328800  0.32832600  0.50284100  1
  O  O18  1  0.83967500  0.44923000  0.10857400  1
  O  O19  1  0.18148000  0.23916800  0.68566000  1
  O  O20  1  0.62113500  0.33215100  0.29236500  1
  O  O21  1  0.38995200  0.10645100  0.86782600  1
  O  O22  1  0.71563300  0.10634700  0.71560500  1
  O  O23  1  0.31852000  0.23916800  0.18566000  1
  O  O24  1  0.38952100  0.10614000  0.57439900  1
  O  O25  1  0.11004800  0.10645100  0.36782600  1
  O  O26  1  0.78436700  0.10634700  0.21560500  1
  O  O27  1  0.11047900  0.10614000  0.07439900  1
loop_
_geom_bond_atom_site_label_1
_geom_bond_atom_site_label_2
_geom_bond_distance
_geom_bond_site_symmetry_2
Li0 O6 1.892226 1_556
Li0 O14 1.944801 1_555
Li0 O21 2.011183 1_565
Li0 O4 2.071533 1_555
Li1 O24 1.927440 1_565
Li1 O3 1.972756 1_555
Li1 O4 2.014374 1_555
Li1 O7 2.278346 1_555
Li1 O22 2.328847 1_565
Li2 O24 2.073674 1_565
Li2 O5 2.100619 1_555
Li2 O7 2.129576 1_555
Li2 O1 2.156265 1_555
Li2 O10 2.167082 1_555
Li2 O25 2.226706 1_565
Li3 O2 1.892226 1_555
Li3 O10 1.944801 1_655
Li3 O25 2.011183 1_665
Li3 O8 2.071533 1_555
Li4 O2 1.907773 1_455
Li4 O9 1.941748 1_555
Li4 O1 1.990682 1_555
Li4 O10 2.127466 1_555
Li5 O27 1.927440 1_665
Li5 O0 1.972756 1_554
Li5 O8 2.014374 1_555
Li5 O11 2.278346 1_655
Li5 O26 2.328847 1_565
Li6 O3 1.955121 1_555
Li6 O2 2.004053 1_555
Li6 O15 2.042715 1_555
Li6 O8 2.162525 1_555
Li6 O4 2.271399 1_555
Li7 O27 2.073674 1_565
Li7 O1 2.100619 1_554
Li7 O11 2.129576 1_555
Li7 O5 2.156265 1_555
Li7 O14 2.167082 1_554
Li7 O21 2.226706 1_564
Li8 O7 1.875163 1_555
Li8 O4 1.885029 1_555
Li8 O13 2.003727 1_556
Li8 O14 2.032894 1_555
Li9 O7 1.905283 1_555
Li9 O3 1.984943 1_555
Li9 O12 2.095368 1_555
Li9 O15 2.104412 1_555
Li10 O6 1.907773 1_555
Li10 O12 1.941748 1_555
Li10 O5 1.990682 1_555
Li10 O14 2.127466 1_554
Li11 O16 1.892417 1_555
Li11 O13 1.932499 1_556
Li11 O4 1.975502 1_555
Li11 O18 1.989379 1_556
Li12 O0 1.955121 1_554
Li12 O6 2.004053 1_555
Li12 O18 2.042715 1_555
Li12 O4 2.162525 1_554
Li12 O8 2.271399 1_555
Li13 O7 1.892417 1_555
Li13 O10 1.932499 1_555
Li13 O19 1.975502 1_555
Li13 O12 1.989379 1_555
Li14 O11 1.875163 1_655
Li14 O8 1.885029 1_555
Li14 O17 2.003727 1_555
Li14 O10 2.032894 1_655
Li15 O16 1.905283 1_555
Li15 O27 1.984943 1_656
Li15 O18 2.095368 1_556
Li15 O9 2.104412 1_655
Li16 O11 1.905283 1_555
Li16 O0 1.984943 1_454
Li16 O9 2.095368 1_554
Li16 O18 2.104412 1_455
Li17 O16 1.875163 1_455
Li17 O19 1.885029 1_555
Li17 O10 2.003727 1_555
Li17 O17 2.032894 1_455
Li18 O20 1.892417 1_555
Li18 O17 1.932499 1_555
Li18 O8 1.975502 1_555
Li18 O15 1.989379 1_555
Li19 O27 1.955121 1_556
Li19 O21 2.004053 1_555
Li19 O9 2.042715 1_555
Li19 O23 2.162525 1_556
Li19 O19 2.271399 1_555
Li20 O11 1.892417 1_555
Li20 O14 1.932499 1_554
Li20 O23 1.975502 1_555
Li20 O9 1.989379 1_554
Li21 O21 1.907773 1_555
Li21 O15 1.941748 1_555
Li21 O22 1.990682 1_555
Li21 O13 2.127466 1_556
Li22 O20 1.905283 1_555
Li22 O24 1.984943 1_555
Li22 O15 2.095368 1_555
Li22 O12 2.104412 1_555
Li23 O20 1.875163 1_555
Li23 O23 1.885029 1_555
Li23 O14 2.003727 1_554
Li23 O13 2.032894 1_555
Li24 O0 2.073674 1_545
Li24 O26 2.100619 1_556
Li24 O16 2.129576 1_555
Li24 O22 2.156265 1_555
Li24 O13 2.167082 1_556
Li24 O6 2.226706 1_546
Li25 O24 1.955121 1_555
Li25 O25 2.004053 1_555
Li25 O12 2.042715 1_555
Li25 O19 2.162525 1_555
Li25 O23 2.271399 1_555
Li26 O0 1.927440 1_445
Li26 O27 1.972756 1_556
Li26 O19 2.014374 1_555
Li26 O16 2.278346 1_455
Li26 O1 2.328847 1_545
Li27 O25 1.907773 1_655
Li27 O18 1.941748 1_555
Li27 O26 1.990682 1_555
Li27 O17 2.127466 1_555
Li28 O25 1.892226 1_555
Li28 O17 1.944801 1_455
Li28 O2 2.011183 1_445
Li28 O19 2.071533 1_555
Li29 O3 2.073674 1_545
Li29 O22 2.100619 1_555
Li29 O20 2.129576 1_555
Li29 O26 2.156265 1_555
Li29 O17 2.167082 1_555
Li29 O2 2.226706 1_545
Li30 O3 1.927440 1_545
Li30 O24 1.972756 1_555
Li30 O23 2.014374 1_555
Li30 O20 2.278346 1_555
Li30 O5 2.328847 1_545
Li31 O21 1.892226 1_554
Li31 O13 1.944801 1_555
Li31 O6 2.011183 1_545
Li31 O23 2.071533 1_555
B0 O2 1.478857 1_555
B0 O0 1.493664 1_555
B0 O4 1.493911 1_555
B0 O22 1.585580 1_565
B1 O6 1.478857 1_555
B1 O3 1.493664 1_555
B1 O8 1.493911 1_555
B1 O26 1.585580 1_565
B2 O7 1.478801 1_555
B2 O14 1.514115 1_555
B2 O9 1.537906 1_555
B2 O1 1.552143 1_555
B3 O11 1.478801 1_555
B3 O10 1.514115 1_555
B3 O12 1.537906 1_555
B3 O5 1.552143 1_555
B4 O16 1.478801 1_555
B4 O17 1.514115 1_555
B4 O15 1.537906 1_555
B4 O22 1.552143 1_555
B5 O20 1.478801 1_555
B5 O13 1.514115 1_555
B5 O18 1.537906 1_555
B5 O26 1.552143 1_555
B6 O21 1.478857 1_555
B6 O24 1.493664 1_555
B6 O19 1.493911 1_555
B6 O1 1.585580 1_545
B7 O25 1.478857 1_555
B7 O27 1.493664 1_555
B7 O23 1.493911 1_555
B7 O5 1.585580 1_545
