# generated using pymatgen
data_Li2FeF5
_symmetry_space_group_name_H-M   'P 1'
_cell_length_a   5.46497700
_cell_length_b   7.42393000
_cell_length_c   9.59847800
_cell_angle_alpha   90.00000000
_cell_angle_beta   90.00000000
_cell_angle_gamma   90.00000000
_symmetry_Int_Tables_number   1
_chemical_formula_structural   Li2FeF5
_chemical_formula_sum   'Li8 Fe4 F20'
_cell_volume   389.42567433
_cell_formula_units_Z   4
loop_
 _symmetry_equiv_pos_site_id
 _symmetry_equiv_pos_as_xyz
  1  'x, y, z'
loop_
 _atom_site_type_symbol
 _atom_site_label
 _atom_site_symmetry_multiplicity
 _atom_site_fract_x
 _atom_site_fract_y
 _atom_site_fract_z
 _atom_site_occupancy
  Li  Li0  1  0.75000000  0.93314500  0.28057400  1
  Li  Li1  1  0.25000000  0.08563600  0.43013500  1
  Li  Li2  1  0.75000000  0.41436400  0.93013500  1
  Li  Li3  1  0.25000000  0.56685500  0.78057400  1
  Li  Li4  1  0.75000000  0.43314500  0.21942600  1
  Li  Li5  1  0.25000000  0.58563600  0.06986500  1
  Li  Li6  1  0.75000000  0.91436400  0.56986500  1
  Li  Li7  1  0.25000000  0.06685500  0.71942600  1
  Fe  Fe0  1  0.25000000  0.18260000  0.04865500  1
  Fe  Fe1  1  0.75000000  0.31740000  0.54865500  1
  Fe  Fe2  1  0.25000000  0.68260000  0.45134500  1
  Fe  Fe3  1  0.75000000  0.81740000  0.95134500  1
  F  F0  1  0.00000000  0.00000000  0.00000000  1
  F  F1  1  0.50000000  0.00000000  0.00000000  1
  F  F2  1  0.25000000  0.11140500  0.23787800  1
  F  F3  1  0.49640500  0.13596900  0.58288000  1
  F  F4  1  0.00359500  0.13596900  0.58288000  1
  F  F5  1  0.75000000  0.23716400  0.35246900  1
  F  F6  1  0.25000000  0.26283600  0.85246900  1
  F  F7  1  0.99640500  0.36403100  0.08288000  1
  F  F8  1  0.50359500  0.36403100  0.08288000  1
  F  F9  1  0.75000000  0.38859500  0.73787800  1
  F  F10  1  0.00000000  0.50000000  0.50000000  1
  F  F11  1  0.50000000  0.50000000  0.50000000  1
  F  F12  1  0.25000000  0.61140500  0.26212200  1
  F  F13  1  0.49640500  0.63596900  0.91712000  1
  F  F14  1  0.00359500  0.63596900  0.91712000  1
  F  F15  1  0.75000000  0.73716400  0.14753100  1
  F  F16  1  0.25000000  0.76283600  0.64753100  1
  F  F17  1  0.99640500  0.86403100  0.41712000  1
  F  F18  1  0.50359500  0.86403100  0.41712000  1
  F  F19  1  0.75000000  0.88859500  0.76212200  1
loop_
_geom_bond_atom_site_label_1
_geom_bond_atom_site_label_2
_geom_bond_distance
_geom_bond_site_symmetry_2
F0 Fe3 1.980506 1_444
F0 Fe0 1.980506 1_555
F1 Fe3 1.980506 1_544
F1 Fe0 1.980506 1_555
F2 Li1 1.855264 1_555
F2 Fe0 1.891596 1_555
F3 Li7 1.947910 1_555
F3 Fe1 1.960315 1_555
F3 Li1 2.025453 1_555
F3 Li6 2.154743 1_545
F4 Li7 1.947910 1_555
F4 Fe1 1.960315 1_455
F4 Li1 2.025453 1_555
F4 Li6 2.154743 1_445
F5 Li4 1.935880 1_555
F5 Fe1 1.975053 1_555
F5 Li0 2.360156 1_545
F6 Li7 1.935880 1_555
F6 Fe0 1.975053 1_556
F6 Li3 2.360156 1_555
F7 Li4 1.947910 1_555
F7 Fe0 1.960315 1_655
F7 Li2 2.025453 1_554
F7 Li5 2.154743 1_655
F8 Li4 1.947910 1_555
F8 Fe0 1.960315 1_555
F8 Li2 2.025453 1_554
F8 Li5 2.154743 1_555
F9 Li2 1.855264 1_555
F9 Fe1 1.891596 1_555
F10 Fe1 1.980506 1_455
F10 Fe2 1.980506 1_555
F11 Fe1 1.980506 1_555
F11 Fe2 1.980506 1_555
F12 Li5 1.855264 1_555
F12 Fe2 1.891596 1_555
F13 Li3 1.947910 1_555
F13 Fe3 1.960315 1_555
F13 Li5 2.025453 1_556
F13 Li2 2.154743 1_555
F14 Li3 1.947910 1_555
F14 Fe3 1.960315 1_455
F14 Li5 2.025453 1_556
F14 Li2 2.154743 1_455
F15 Li0 1.935880 1_555
F15 Fe3 1.975053 1_554
F15 Li4 2.360156 1_555
F16 Li3 1.935880 1_555
F16 Fe2 1.975053 1_555
F16 Li7 2.360156 1_565
F17 Li0 1.947910 1_555
F17 Fe2 1.960315 1_655
F17 Li6 2.025453 1_555
F17 Li1 2.154743 1_665
F18 Li0 1.947910 1_555
F18 Fe2 1.960315 1_555
F18 Li6 2.025453 1_555
F18 Li1 2.154743 1_565
F19 Li6 1.855264 1_555
F19 Fe3 1.891596 1_555
