# generated using pymatgen
data_Ba14LiY7(Cu10O21)2
_symmetry_space_group_name_H-M   'P 1'
_cell_length_a   12.24872826
_cell_length_b   8.65340334
_cell_length_c   12.73221426
_cell_angle_alpha   74.25078323
_cell_angle_beta   84.50167985
_cell_angle_gamma   98.22050648
_symmetry_Int_Tables_number   1
_chemical_formula_structural   Ba14LiY7(Cu10O21)2
_chemical_formula_sum   'Ba14 Li1 Y7 Cu20 O42'
_cell_volume   1272.61633060
_cell_formula_units_Z   1
loop_
 _symmetry_equiv_pos_site_id
 _symmetry_equiv_pos_as_xyz
  1  'x, y, z'
loop_
 _atom_site_type_symbol
 _atom_site_label
 _atom_site_symmetry_multiplicity
 _atom_site_fract_x
 _atom_site_fract_y
 _atom_site_fract_z
 _atom_site_occupancy
  Ba  Ba0  1  0.18608738  0.05816309  0.19745895  1
  Ba  Ba1  1  0.04307580  0.62797250  0.19757006  1
  Ba  Ba2  1  0.32816772  0.48653668  0.19558131  1
  Ba  Ba3  1  0.52845322  0.08401337  0.80447026  1
  Ba  Ba4  1  0.61605300  0.34571151  0.19549999  1
  Ba  Ba5  1  0.24151828  0.22669864  0.80463393  1
  Ba  Ba6  1  0.90033364  0.20241286  0.19750338  1
  Ba  Ba7  1  0.75727191  0.77287956  0.19738734  1
  Ba  Ba8  1  0.38502813  0.65473791  0.80491031  1
  Ba  Ba9  1  0.09954896  0.79907523  0.80349278  1
  Ba  Ba10  1  0.95666416  0.36875435  0.80349724  1
  Ba  Ba11  1  0.47250844  0.91662061  0.19483332  1
  Ba  Ba12  1  0.67076087  0.51240048  0.80336496  1
  Ba  Ba13  1  0.81405533  0.94239210  0.80355750  1
  Li  Li0  1  0.95141545  0.85439334  0.33987557  1
  Y  Y0  1  0.57148875  0.21556530  0.50051372  1
  Y  Y1  1  0.28553268  0.35541202  0.50051432  1
  Y  Y2  1  0.99882415  0.50619644  0.49764122  1
  Y  Y3  1  0.85894096  0.06726955  0.49762319  1
  Y  Y4  1  0.42843630  0.78533268  0.50086844  1
  Y  Y5  1  0.13927464  0.92669537  0.49754655  1
  Y  Y6  1  0.71862233  0.64680177  0.49748743  1
  Cu  Cu0  1  0.99941098  0.99816085  0.00430190  1
  Cu  Cu1  1  0.71401716  0.14276264  0.00026129  1
  Cu  Cu2  1  0.14297637  0.42902714  -0.00063352  1
  Cu  Cu3  1  0.42832585  0.28512175  0.00027178  1
  Cu  Cu4  1  0.33775753  0.01411050  0.63291133  1
  Cu  Cu5  1  0.37684306  0.12769717  0.36689529  1
  Cu  Cu6  1  0.05241215  0.15910941  0.63183193  1
  Cu  Cu7  1  0.08995623  0.26888479  0.37113689  1
  Cu  Cu8  1  0.80404673  0.41300066  0.37132316  1
  Cu  Cu9  1  0.23269217  0.69854082  0.37044949  1
  Cu  Cu10  1  0.76699400  0.29928190  0.63223745  1
  Cu  Cu11  1  0.48144169  0.44335099  0.63276077  1
  Cu  Cu12  1  0.28603486  0.85734042  -0.00054401  1
  Cu  Cu13  1  0.85736445  0.57163978  -0.00108858  1
  Cu  Cu14  1  0.57143819  0.71465031  0.00045818  1
  Cu  Cu15  1  0.51838462  0.55779191  0.36686018  1
  Cu  Cu16  1  0.19519889  0.58562830  0.63377077  1
  Cu  Cu17  1  0.90874282  0.72632852  0.63833497  1
  Cu  Cu18  1  0.62375322  0.87157018  0.63371705  1
  Cu  Cu19  1  0.66144410  0.98408336  0.37054156  1
  O  O0  1  0.01824287  0.05358642  0.38220367  1
  O  O1  1  0.23388307  0.19321533  0.37951729  1
  O  O2  1  0.12143344  0.36458809  0.14847810  1
  O  O3  1  0.02074782  0.06202591  0.85525054  1
  O  O4  1  0.69329032  0.07920761  0.14826107  1
  O  O5  1  0.51788947  0.05056869  0.38179601  1
  O  O6  1  0.19711944  0.09153330  0.61981198  1
  O  O7  1  0.40729880  0.22215220  0.14868218  1
  O  O8  1  0.69673027  0.09094855  0.61888771  1
  O  O9  1  0.44563704  0.33688377  0.38060686  1
  O  O10  1  0.73216860  0.19841385  0.37887002  1
  O  O11  1  0.15960099  0.47674830  0.37885701  1
  O  O12  1  0.41145388  0.23435295  0.62004872  1
  O  O13  1  0.12624595  0.37808577  0.61889562  1
  O  O14  1  0.94584993  0.33779931  0.37841514  1
  O  O15  1  0.37296765  0.62218329  0.38180823  1
  O  O16  1  0.16430488  0.49249106  0.85033404  1
  O  O17  1  0.09218886  0.76260378  0.38210407  1
  O  O18  1  0.65765001  0.48142116  0.37959801  1
  O  O19  1  0.55021622  0.65013056  0.14933761  1
  O  O20  1  0.33991404  0.51970788  0.62054451  1
  O  O21  1  0.83632566  0.50868023  0.14722766  1
  O  O22  1  0.62566371  0.37732647  0.61979825  1
  O  O23  1  0.05329201  0.66294321  0.62119616  1
  O  O24  1  0.91165639  0.23453925  0.61930846  1
  O  O25  1  0.73547068  0.20672255  0.85121050  1
  O  O26  1  0.26436380  0.79377050  0.14795412  1
  O  O27  1  0.44966035  0.34940655  0.85163393  1
  O  O28  1  0.84029673  0.52055290  0.62111040  1
  O  O29  1  0.87242624  0.61847446  0.38227571  1
  O  O30  1  0.30389236  0.91001414  0.37741484  1
  O  O31  1  0.26914273  0.80629670  0.61808074  1
  O  O32  1  0.58812323  0.76590762  0.37743229  1
  O  O33  1  0.55436887  0.66422245  0.61811818  1
  O  O34  1  0.87852460  0.63537067  0.85090050  1
  O  O35  1  0.79880809  0.90984031  0.38218009  1
  O  O36  1  0.97783615  0.93359624  0.15493824  1
  O  O37  1  0.59257618  0.77795383  0.85134552  1
  O  O38  1  0.30705857  0.92102794  0.85109020  1
  O  O39  1  0.48295241  0.94840496  0.62049266  1
  O  O40  1  0.76904071  0.80472051  0.62124127  1
  O  O41  1  0.98238975  0.94746400  0.62111322  1
loop_
_geom_bond_atom_site_label_1
_geom_bond_atom_site_label_2
_geom_bond_distance
_geom_bond_site_symmetry_2
Ba0 O36 2.785105 1_445
Ba0 O7 2.800126 1_555
Ba0 O2 2.800823 1_555
Ba0 O26 2.800955 1_545
Ba0 O30 2.922914 1_545
Ba0 O1 2.935410 1_555
Ba0 O0 2.959821 1_555
Ba0 O17 2.961018 1_545
Ba1 O2 2.791134 1_555
Ba1 O21 2.795052 1_455
Ba1 O36 2.799241 1_455
Ba1 O26 2.805721 1_555
Ba1 O14 2.916475 1_455
Ba1 O11 2.933095 1_555
Ba1 O17 2.965771 1_555
Ba1 O29 2.968224 1_455
Ba2 O2 2.784941 1_555
Ba2 O7 2.791951 1_555
Ba2 O26 2.802953 1_555
Ba2 O19 2.808503 1_555
Ba2 O11 2.938523 1_555
Ba2 O1 2.945748 1_555
Ba2 O9 2.970412 1_555
Ba2 O15 2.979424 1_555
Ba3 O25 2.788135 1_555
Ba3 O37 2.795359 1_545
Ba3 O27 2.799572 1_555
Ba3 O38 2.799772 1_545
Ba3 O39 2.954664 1_545
Ba3 O22 2.957715 1_555
Ba3 O12 2.963020 1_555
Ba3 O8 2.964723 1_555
Ba4 O21 2.787412 1_555
Ba4 O19 2.791577 1_555
Ba4 O4 2.800539 1_555
Ba4 O7 2.809432 1_555
Ba4 O10 2.938989 1_555
Ba4 O18 2.947027 1_555
Ba4 O9 2.971784 1_555
Ba4 O5 2.980182 1_555
Ba5 O16 2.786786 1_555
Ba5 O3 2.797131 1_555
Ba5 O38 2.799954 1_545
Ba5 O27 2.801533 1_555
Ba5 O20 2.955300 1_555
Ba5 O6 2.959529 1_555
Ba5 O13 2.964679 1_555
Ba5 O12 2.966306 1_555
Ba6 O2 2.794110 1_655
Ba6 O21 2.796017 1_555
Ba6 O36 2.797008 1_545
Ba6 O4 2.802767 1_555
Ba6 O14 2.917754 1_555
Ba6 O10 2.932770 1_555
Ba6 O35 2.965251 1_545
Ba6 O0 2.968718 1_655
Ba7 O36 2.786177 1_555
Ba7 O19 2.795428 1_555
Ba7 O4 2.796422 1_565
Ba7 O21 2.807040 1_555
Ba7 O32 2.920653 1_555
Ba7 O18 2.938241 1_555
Ba7 O35 2.961413 1_555
Ba7 O29 2.963784 1_555
Ba8 O16 2.790897 1_555
Ba8 O27 2.792268 1_555
Ba8 O37 2.793614 1_555
Ba8 O38 2.797297 1_555
Ba8 O20 2.955299 1_555
Ba8 O39 2.959608 1_555
Ba8 O33 2.977466 1_555
Ba8 O31 2.979796 1_555
Ba9 O38 2.795823 1_555
Ba9 O34 2.797562 1_455
Ba9 O16 2.802980 1_555
Ba9 O3 2.804211 1_565
Ba9 O23 2.939619 1_555
Ba9 O41 2.940616 1_455
Ba9 O6 2.947697 1_565
Ba9 O31 2.972388 1_555
Ba10 O25 2.794885 1_555
Ba10 O16 2.798066 1_655
Ba10 O3 2.800146 1_655
Ba10 O34 2.807115 1_555
Ba10 O28 2.943378 1_555
Ba10 O23 2.945053 1_655
Ba10 O24 2.948841 1_555
Ba10 O13 2.959539 1_655
Ba11 O4 2.792145 1_565
Ba11 O19 2.794016 1_555
Ba11 O7 2.797120 1_565
Ba11 O26 2.801318 1_555
Ba11 O32 2.936755 1_555
Ba11 O30 2.940572 1_555
Ba11 O5 2.980974 1_565
Ba11 O15 2.984676 1_555
Ba12 O25 2.795267 1_555
Ba12 O27 2.796351 1_555
Ba12 O34 2.800935 1_555
Ba12 O37 2.801805 1_555
Ba12 O40 2.938524 1_555
Ba12 O28 2.940712 1_555
Ba12 O22 2.946126 1_555
Ba12 O33 2.969740 1_555
Ba13 O25 2.792442 1_565
Ba13 O3 2.802536 1_665
Ba13 O37 2.804332 1_555
Ba13 O34 2.804854 1_555
Ba13 O41 2.941118 1_555
Ba13 O40 2.944538 1_555
Ba13 O24 2.949984 1_565
Ba13 O8 2.963302 1_565
Li0 O0 2.029027 1_665
Li0 O29 2.032743 1_555
Li0 O35 2.053836 1_555
Li0 O17 2.056857 1_655
Li0 O36 2.243518 1_555
Cu0 O3 1.808177 1_664
Cu0 O36 1.827405 1_555
Cu1 O4 1.795428 1_555
Cu1 O25 1.808171 1_554
Cu2 O16 1.807950 1_554
Cu2 O2 1.808916 1_555
Cu3 O7 1.800409 1_555
Cu3 O27 1.803168 1_554
Cu4 O31 1.938664 1_545
Cu4 O6 1.941287 1_555
Cu4 O12 1.945297 1_555
Cu4 O39 1.948141 1_545
Cu4 O38 2.646786 1_545
Cu5 O1 1.921712 1_555
Cu5 O30 1.929629 1_545
Cu5 O9 1.944429 1_555
Cu5 O5 1.946791 1_555
Cu5 O7 2.647227 1_555
Cu6 O24 1.934404 1_455
Cu6 O13 1.935871 1_555
Cu6 O6 1.949373 1_555
Cu6 O41 1.953813 1_445
Cu7 O0 1.904791 1_555
Cu7 O11 1.909462 1_555
Cu7 O14 1.944101 1_455
Cu7 O1 1.968823 1_555
Cu8 O29 1.900927 1_555
Cu8 O10 1.910990 1_555
Cu8 O14 1.941613 1_555
Cu8 O18 1.969361 1_555
Cu9 O17 1.886711 1_555
Cu9 O15 1.931349 1_555
Cu9 O30 1.940039 1_555
Cu9 O11 1.968571 1_555
Cu10 O24 1.938752 1_555
Cu10 O8 1.941736 1_555
Cu10 O22 1.951089 1_555
Cu10 O28 1.956841 1_555
Cu10 O25 2.656438 1_555
Cu11 O22 1.938622 1_555
Cu11 O33 1.942198 1_555
Cu11 O12 1.942693 1_555
Cu11 O20 1.946626 1_555
Cu11 O27 2.655209 1_555
Cu12 O38 1.799862 1_554
Cu12 O26 1.801474 1_555
Cu13 O34 1.795557 1_554
Cu13 O21 1.799266 1_555
Cu14 O19 1.806103 1_555
Cu14 O37 1.808927 1_554
Cu15 O18 1.920961 1_555
Cu15 O32 1.924780 1_555
Cu15 O9 1.944287 1_555
Cu15 O15 1.948255 1_555
Cu15 O19 2.638846 1_555
Cu16 O13 1.938083 1_555
Cu16 O31 1.941705 1_555
Cu16 O20 1.944191 1_555
Cu16 O23 1.955056 1_555
Cu16 O16 2.627182 1_555
Cu17 O28 1.934434 1_555
Cu17 O23 1.936993 1_655
Cu17 O40 1.938767 1_555
Cu17 O41 1.940175 1_555
Cu17 O34 2.578683 1_555
Cu18 O8 1.930361 1_565
Cu18 O39 1.941019 1_555
Cu18 O33 1.941863 1_555
Cu18 O40 1.953688 1_555
Cu18 O37 2.640104 1_555
Cu19 O35 1.889667 1_555
Cu19 O5 1.931095 1_565
Cu19 O32 1.946477 1_555
Cu19 O10 1.966334 1_565
O0 Y5 2.359552 1_545
O0 Y3 2.364736 1_455
O1 Y1 2.418711 1_555
O1 Y5 2.437377 1_545
O5 Y4 2.416703 1_545
O5 Y0 2.418266 1_555
O6 Y1 2.406002 1_555
O6 Y5 2.467339 1_545
O8 Y0 2.412790 1_555
O8 Y3 2.464505 1_555
O9 Y1 2.418956 1_555
O9 Y0 2.419274 1_555
O10 Y0 2.432793 1_555
O10 Y3 2.451031 1_555
O11 Y1 2.432937 1_555
O11 Y2 2.452021 1_455
O12 Y0 2.416396 1_555
O12 Y1 2.416406 1_555
O13 Y1 2.413176 1_555
O13 Y2 2.464918 1_455
O14 Y3 2.442554 1_555
O14 Y2 2.442957 1_555
O15 Y4 2.416111 1_555
O15 Y1 2.418500 1_555
O17 Y5 2.360205 1_555
O17 Y2 2.361144 1_455
O18 Y0 2.418299 1_555
O18 Y6 2.435996 1_555
O20 Y4 2.418721 1_555
O20 Y1 2.429870 1_555
O22 Y0 2.405811 1_555
O22 Y6 2.467563 1_555
O23 Y5 2.416847 1_555
O23 Y2 2.420809 1_455
O24 Y2 2.460529 1_555
O24 Y3 2.460543 1_555
O28 Y2 2.418098 1_555
O28 Y6 2.423594 1_555
O29 Y6 2.357679 1_555
O29 Y2 2.364259 1_555
O30 Y4 2.443658 1_555
O30 Y5 2.457256 1_555
O31 Y4 2.399423 1_555
O31 Y5 2.458625 1_555
O32 Y4 2.443842 1_555
O32 Y6 2.457223 1_555
O33 Y4 2.400112 1_555
O33 Y6 2.459612 1_555
O35 Y3 2.359308 1_565
O35 Y6 2.360368 1_555
O39 Y4 2.418498 1_555
O39 Y0 2.429547 1_565
O40 Y6 2.417750 1_555
O40 Y3 2.421323 1_565
O41 Y3 2.419165 1_565
O41 Y5 2.423447 1_655
