# generated using pymatgen
data_Li3Mn2(PO4)3
_symmetry_space_group_name_H-M   'P 1'
_cell_length_a   8.78739900
_cell_length_b   8.55590300
_cell_length_c   14.88030915
_cell_angle_alpha   56.84911757
_cell_angle_beta   90.00000000
_cell_angle_gamma   90.00000000
_symmetry_Int_Tables_number   1
_chemical_formula_structural   Li3Mn2(PO4)3
_chemical_formula_sum   'Li12 Mn8 P12 O48'
_cell_volume   936.66588849
_cell_formula_units_Z   4
loop_
 _symmetry_equiv_pos_site_id
 _symmetry_equiv_pos_as_xyz
  1  'x, y, z'
loop_
 _atom_site_type_symbol
 _atom_site_label
 _atom_site_symmetry_multiplicity
 _atom_site_fract_x
 _atom_site_fract_y
 _atom_site_fract_z
 _atom_site_occupancy
  Li  Li0  1  0.93427500  0.35782800  0.70554200  1
  Li  Li1  1  0.22284500  0.04436500  0.17643700  1
  Li  Li2  1  0.26550600  0.39012100  0.81326400  1
  Li  Li3  1  0.76550600  0.60987900  0.68673600  1
  Li  Li4  1  0.72284500  0.95563500  0.32356300  1
  Li  Li5  1  0.43427500  0.64217200  0.79445800  1
  Li  Li6  1  0.56572500  0.35782800  0.20554200  1
  Li  Li7  1  0.27715500  0.04436500  0.67643700  1
  Li  Li8  1  0.23449400  0.39012100  0.31326400  1
  Li  Li9  1  0.73449400  0.60987900  0.18673600  1
  Li  Li10  1  0.77715500  0.95563500  0.82356300  1
  Li  Li11  1  0.06572500  0.64217200  0.29445800  1
  Mn  Mn0  1  0.45758200  0.64742900  0.60129700  1
  Mn  Mn1  1  0.95758200  0.35257100  0.89870300  1
  Mn  Mn2  1  0.54287900  0.13311100  0.11104700  1
  Mn  Mn3  1  0.04287900  0.86688900  0.38895300  1
  Mn  Mn4  1  0.95712100  0.13311100  0.61104700  1
  Mn  Mn5  1  0.45712100  0.86688900  0.88895300  1
  Mn  Mn6  1  0.04241800  0.64742900  0.10129700  1
  Mn  Mn7  1  0.54241800  0.35257100  0.39870300  1
  P  P0  1  0.75029400  0.53538900  0.50390900  1
  P  P1  1  0.60733900  0.24730900  0.85890600  1
  P  P2  1  0.90374100  0.95277400  0.15329300  1
  P  P3  1  0.40374100  0.04722600  0.34670700  1
  P  P4  1  0.10733900  0.75269100  0.64109400  1
  P  P5  1  0.25029400  0.46461100  0.99609100  1
  P  P6  1  0.74970600  0.53538900  0.00390900  1
  P  P7  1  0.89266100  0.24730900  0.35890600  1
  P  P8  1  0.59625900  0.95277400  0.65329300  1
  P  P9  1  0.09625900  0.04722600  0.84670700  1
  P  P10  1  0.39266100  0.75269100  0.14109400  1
  P  P11  1  0.24970600  0.46461100  0.49609100  1
  O  O0  1  0.13144700  0.62190000  0.42869100  1
  O  O1  1  0.33840900  0.49148200  0.57623300  1
  O  O2  1  0.09272500  0.23129000  0.84731300  1
  O  O3  1  0.40958400  0.90825000  0.16460700  1
  O  O4  1  0.65057400  0.53344200  0.59109900  1
  O  O5  1  0.59955300  0.15692500  0.98075500  1
  O  O6  1  0.77203400  0.33086800  0.81752100  1
  O  O7  1  0.02597000  0.90957300  0.24198000  1
  O  O8  1  0.82661300  0.72668700  0.43435800  1
  O  O9  1  0.74528200  0.96763200  0.18899200  1
  O  O10  1  0.95897900  0.12093700  0.04873900  1
  O  O11  1  0.48675500  0.40270000  0.79949700  1
  O  O12  1  0.98675500  0.59730000  0.70050300  1
  O  O13  1  0.45897900  0.87906300  0.45126100  1
  O  O14  1  0.24528200  0.03236800  0.31100800  1
  O  O15  1  0.32661300  0.27331300  0.06564200  1
  O  O16  1  0.52597000  0.09042700  0.25802000  1
  O  O17  1  0.27203400  0.66913200  0.68247900  1
  O  O18  1  0.09955300  0.84307500  0.51924500  1
  O  O19  1  0.15057400  0.46655800  0.90890100  1
  O  O20  1  0.59272500  0.76871000  0.65268700  1
  O  O21  1  0.90958400  0.09175000  0.33539300  1
  O  O22  1  0.83840900  0.50851800  0.92376700  1
  O  O23  1  0.63144700  0.37810000  0.07130900  1
  O  O24  1  0.36855300  0.62190000  0.92869100  1
  O  O25  1  0.16159100  0.49148200  0.07623300  1
  O  O26  1  0.09041600  0.90825000  0.66460700  1
  O  O27  1  0.40727500  0.23129000  0.34731300  1
  O  O28  1  0.84942600  0.53344200  0.09109900  1
  O  O29  1  0.90044700  0.15692500  0.48075500  1
  O  O30  1  0.72796600  0.33086800  0.31752100  1
  O  O31  1  0.47403000  0.90957300  0.74198000  1
  O  O32  1  0.67338700  0.72668700  0.93435800  1
  O  O33  1  0.75471800  0.96763200  0.68899200  1
  O  O34  1  0.54102100  0.12093700  0.54873900  1
  O  O35  1  0.01324500  0.40270000  0.29949700  1
  O  O36  1  0.51324500  0.59730000  0.20050300  1
  O  O37  1  0.04102100  0.87906300  0.95126100  1
  O  O38  1  0.25471800  0.03236800  0.81100800  1
  O  O39  1  0.17338700  0.27331300  0.56564200  1
  O  O40  1  0.97403000  0.09042700  0.75802000  1
  O  O41  1  0.22796600  0.66913200  0.18247900  1
  O  O42  1  0.40044700  0.84307500  0.01924500  1
  O  O43  1  0.34942600  0.46655800  0.40890100  1
  O  O44  1  0.59041600  0.09175000  0.83539300  1
  O  O45  1  0.90727500  0.76871000  0.15268700  1
  O  O46  1  0.66159100  0.50851800  0.42376700  1
  O  O47  1  0.86855300  0.37810000  0.57130900  1
loop_
_geom_bond_atom_site_label_1
_geom_bond_atom_site_label_2
_geom_bond_distance
_geom_bond_site_symmetry_2
Li0 O47 1.993599 1_555
Li0 O40 2.003040 1_555
Li0 O12 2.061130 1_555
Li0 O6 2.107579 1_555
Li0 O2 2.250169 1_655
Li1 O14 1.958175 1_555
Li1 O15 1.963317 1_555
Li1 O7 2.010979 1_545
Li1 O3 2.074652 1_545
Li2 O2 1.911968 1_555
Li2 O11 1.951759 1_555
Li2 O17 2.099602 1_555
Li2 O19 2.119159 1_555
Li3 O20 1.911968 1_555
Li3 O12 1.951759 1_555
Li3 O6 2.099602 1_555
Li3 O4 2.119159 1_555
Li4 O9 1.958175 1_555
Li4 O8 1.963317 1_555
Li4 O16 2.010979 1_565
Li4 O21 2.074652 1_565
Li5 O24 1.993599 1_555
Li5 O31 2.003040 1_555
Li5 O11 2.061130 1_555
Li5 O17 2.107579 1_555
Li5 O20 2.250169 1_555
Li6 O23 1.993599 1_555
Li6 O16 2.003040 1_555
Li6 O36 2.061130 1_555
Li6 O30 2.107579 1_555
Li6 O27 2.250169 1_555
Li7 O38 1.958175 1_555
Li7 O39 1.963317 1_555
Li7 O31 2.010979 1_545
Li7 O26 2.074652 1_545
Li8 O27 1.911968 1_555
Li8 O35 1.951759 1_555
Li8 O41 2.099602 1_555
Li8 O43 2.119159 1_555
Li9 O45 1.911968 1_555
Li9 O36 1.951759 1_555
Li9 O30 2.099602 1_555
Li9 O28 2.119159 1_555
Li10 O33 1.958175 1_555
Li10 O32 1.963317 1_555
Li10 O40 2.010979 1_565
Li10 O44 2.074652 1_565
Li11 O0 1.993599 1_555
Li11 O7 2.003040 1_555
Li11 O35 2.061130 1_555
Li11 O41 2.107579 1_555
Li11 O45 2.250169 1_455
Mn0 O1 1.886874 1_555
Mn0 O20 1.984857 1_555
Mn0 O4 2.003021 1_555
Mn0 O13 2.018190 1_555
Mn0 O17 2.097042 1_555
Mn0 O11 2.528689 1_555
Mn1 O22 1.886874 1_555
Mn1 O2 1.984857 1_655
Mn1 O19 2.003021 1_655
Mn1 O10 2.018190 1_556
Mn1 O6 2.097042 1_555
Mn1 O12 2.528689 1_555
Mn2 O5 1.901679 1_554
Mn2 O23 1.998359 1_555
Mn2 O3 2.007871 1_545
Mn2 O16 2.016162 1_555
Mn2 O15 2.149558 1_555
Mn2 O9 2.171914 1_545
Mn3 O18 1.901679 1_555
Mn3 O0 1.998359 1_555
Mn3 O21 2.007871 1_465
Mn3 O7 2.016162 1_555
Mn3 O8 2.149558 1_455
Mn3 O14 2.171914 1_565
Mn4 O29 1.901679 1_555
Mn4 O47 1.998359 1_555
Mn4 O26 2.007871 1_645
Mn4 O40 2.016162 1_555
Mn4 O39 2.149558 1_655
Mn4 O33 2.171914 1_545
Mn5 O42 1.901679 1_556
Mn5 O24 1.998359 1_555
Mn5 O44 2.007871 1_565
Mn5 O31 2.016162 1_555
Mn5 O32 2.149558 1_555
Mn5 O38 2.171914 1_565
Mn6 O25 1.886874 1_555
Mn6 O45 1.984857 1_455
Mn6 O28 2.003021 1_455
Mn6 O37 2.018190 1_554
Mn6 O41 2.097042 1_555
Mn6 O35 2.528689 1_555
Mn7 O46 1.886874 1_555
Mn7 O27 1.984857 1_555
Mn7 O43 2.003021 1_555
Mn7 O34 2.018190 1_555
Mn7 O30 2.097042 1_555
Mn7 O36 2.528689 1_555
O0 P11 1.555853 1_555
O1 P11 1.543513 1_555
O2 P9 1.580088 1_555
O3 P10 1.557323 1_555
O4 P0 1.558136 1_555
O5 P1 1.535157 1_555
O6 P1 1.582195 1_555
O7 P2 1.580617 1_455
O8 P0 1.532032 1_555
O9 P2 1.520230 1_555
O10 P2 1.509317 1_545
O11 P1 1.544815 1_555
O12 P4 1.544815 1_655
O13 P3 1.509317 1_565
O14 P3 1.520230 1_555
O15 P5 1.532032 1_554
O16 P3 1.580617 1_555
O17 P4 1.582195 1_555
O18 P4 1.535157 1_555
O19 P5 1.558136 1_555
O20 P8 1.580088 1_555
O21 P7 1.557323 1_555
O22 P6 1.543513 1_556
O23 P6 1.555853 1_555
O24 P5 1.555853 1_555
O25 P5 1.543513 1_554
O26 P4 1.557323 1_555
O27 P3 1.580088 1_555
O28 P6 1.558136 1_555
O29 P7 1.535157 1_555
O30 P7 1.582195 1_555
O31 P8 1.580617 1_555
O32 P6 1.532032 1_556
O33 P8 1.520230 1_555
O34 P8 1.509317 1_545
O35 P7 1.544815 1_455
O36 P10 1.544815 1_555
O37 P9 1.509317 1_565
O38 P9 1.520230 1_555
O39 P11 1.532032 1_555
O40 P9 1.580617 1_655
O41 P10 1.582195 1_555
O42 P10 1.535157 1_555
O43 P11 1.558136 1_555
O44 P1 1.557323 1_555
O45 P2 1.580088 1_555
O46 P0 1.543513 1_555
O47 P0 1.555853 1_555
