# generated using pymatgen
data_V2As3H17C4N8O17
_symmetry_space_group_name_H-M   'P 1'
_cell_length_a   8.67945600
_cell_length_b   11.23498174
_cell_length_c   12.63193398
_cell_angle_alpha   83.13618770
_cell_angle_beta   82.66036416
_cell_angle_gamma   69.91955620
_symmetry_Int_Tables_number   1
_chemical_formula_structural   V2As3H17C4N8O17
_chemical_formula_sum   'V4 As6 H34 C8 N16 O34'
_cell_volume   1143.63690535
_cell_formula_units_Z   2
loop_
 _symmetry_equiv_pos_site_id
 _symmetry_equiv_pos_as_xyz
  1  'x, y, z'
loop_
 _atom_site_type_symbol
 _atom_site_label
 _atom_site_symmetry_multiplicity
 _atom_site_fract_x
 _atom_site_fract_y
 _atom_site_fract_z
 _atom_site_occupancy
  V  V0  1  0.26970100  0.81225700  0.62205900  1
  V  V1  1  0.73029900  0.18774300  0.37794100  1
  V  V2  1  0.22267000  0.11307100  0.59236800  1
  V  V3  1  0.77733000  0.88692900  0.40763200  1
  As  As0  1  0.04227700  0.65426000  0.54321500  1
  As  As1  1  0.95772300  0.34574000  0.45678500  1
  As  As2  1  0.82742000  0.03035100  0.60188500  1
  As  As3  1  0.17258000  0.96964900  0.39811500  1
  As  As4  1  0.12735100  0.98523500  0.82743100  1
  As  As5  1  0.87264900  0.01476500  0.17256900  1
  H  H0  1  0.19582500  0.47271500  0.46754200  1
  H  H1  1  0.80417500  0.52728500  0.53245800  1
  H  H2  1  0.80405300  0.03619800  0.78595500  1
  H  H3  1  0.19594700  0.96380200  0.21404500  1
  H  H4  1  0.17301900  0.97206900  0.00648000  1
  H  H5  1  0.82698100  0.02793100  0.99352000  1
  H  H6  1  0.27891000  0.56567100  0.73236700  1
  H  H7  1  0.72109000  0.43432900  0.26763300  1
  H  H8  1  0.98607300  0.62017500  0.95057300  1
  H  H9  1  0.01392700  0.37982500  0.04942700  1
  H  H10  1  0.08367300  0.68505500  0.83608900  1
  H  H11  1  0.91632700  0.31494500  0.16391100  1
  H  H12  1  0.51347700  0.18363100  0.76889700  1
  H  H13  1  0.48652300  0.81636900  0.23110300  1
  H  H14  1  0.33720900  0.25968800  0.85948400  1
  H  H15  1  0.66279100  0.74031200  0.14051600  1
  H  H16  1  0.59593700  0.31266800  0.62822500  1
  H  H17  1  0.40406300  0.68733200  0.37177500  1
  H  H18  1  0.49436800  0.47696300  0.62179400  1
  H  H19  1  0.50563200  0.52303700  0.37820600  1
  H  H20  1  0.44352000  0.77799900  0.92907400  1
  H  H21  1  0.55648000  0.22200100  0.07092600  1
  H  H22  1  0.50949400  0.61109800  0.95532600  1
  H  H23  1  0.49050600  0.38890200  0.04467400  1
  H  H24  1  0.57695900  0.86865200  0.78338700  1
  H  H25  1  0.42304100  0.13134800  0.21661300  1
  H  H26  1  0.72774300  0.77113100  0.69915900  1
  H  H27  1  0.27225700  0.22886900  0.30084100  1
  H  H28  1  0.81322400  0.56693700  0.72709600  1
  H  H29  1  0.18677600  0.43306300  0.27290400  1
  H  H30  1  0.86047000  0.25547600  0.82872200  1
  H  H31  1  0.13953000  0.74452400  0.17127800  1
  H  H32  1  0.92095200  0.35649900  0.72959200  1
  H  H33  1  0.07904800  0.64350100  0.27040800  1
  C  C0  1  0.40796600  0.37546300  0.74548100  1
  C  C1  1  0.59203400  0.62453700  0.25451900  1
  C  C2  1  0.17167500  0.49060100  0.86880000  1
  C  C3  1  0.82832500  0.50939900  0.13120000  1
  C  C4  1  0.63376900  0.67840700  0.82767800  1
  C  C5  1  0.36623100  0.32159300  0.17232200  1
  C  C6  1  0.73731900  0.44390700  0.84602800  1
  C  C7  1  0.26268100  0.55609300  0.15397200  1
  N  N0  1  0.28583000  0.48288900  0.77825300  1
  N  N1  1  0.71417000  0.51711100  0.22174700  1
  N  N2  1  0.07102900  0.60904400  0.88476600  1
  N  N3  1  0.92897100  0.39095600  0.11523400  1
  N  N4  1  0.42348800  0.26255000  0.79693100  1
  N  N5  1  0.57651200  0.73745000  0.20306900  1
  N  N6  1  0.51075500  0.38982700  0.66164400  1
  N  N7  1  0.48924500  0.61017300  0.33835600  1
  N  N8  1  0.52325300  0.69034200  0.91195600  1
  N  N9  1  0.47674700  0.30965800  0.08804400  1
  N  N10  1  0.65493300  0.78020600  0.76989100  1
  N  N11  1  0.34506700  0.21979400  0.23010900  1
  N  N12  1  0.73528100  0.56298200  0.79692500  1
  N  N13  1  0.26471900  0.43701800  0.20307500  1
  N  N14  1  0.85020600  0.34555200  0.79833300  1
  N  N15  1  0.14979400  0.65444800  0.20166700  1
  O  O0  1  0.22518000  0.08890100  0.44142600  1
  O  O1  1  0.77482000  0.91109900  0.55857400  1
  O  O2  1  0.35649000  0.18454300  0.58017000  1
  O  O3  1  0.64351000  0.81545700  0.41983000  1
  O  O4  1  0.26272600  0.82450300  0.46720200  1
  O  O5  1  0.73727400  0.17549700  0.53279800  1
  O  O6  1  0.01930800  0.25502700  0.57502600  1
  O  O7  1  0.98069200  0.74497300  0.42497400  1
  O  O8  1  0.34852400  0.94146300  0.60972800  1
  O  O9  1  0.65147600  0.05853700  0.39027200  1
  O  O10  1  0.22777300  0.53532000  0.50451200  1
  O  O11  1  0.77222700  0.46468000  0.49548800  1
  O  O12  1  0.42935500  0.68365300  0.63473000  1
  O  O13  1  0.57064500  0.31634700  0.36527000  1
  O  O14  1  0.03118500  0.99718500  0.61285500  1
  O  O15  1  0.96881500  0.00281500  0.38714500  1
  O  O16  1  0.17664800  0.10502300  0.74679000  1
  O  O17  1  0.82335200  0.89497700  0.25321000  1
  O  O18  1  0.09703700  0.73041800  0.63554900  1
  O  O19  1  0.90296300  0.26958200  0.36445100  1
  O  O20  1  0.89719400  0.59281800  0.60295800  1
  O  O21  1  0.10280600  0.40718200  0.39704200  1
  O  O22  1  0.20274700  0.83866000  0.77495600  1
  O  O23  1  0.79725300  0.16134000  0.22504400  1
  O  O24  1  0.72120000  0.04810600  0.73068900  1
  O  O25  1  0.27880000  0.95189400  0.26931100  1
  O  O26  1  0.24606800  0.96323900  0.93641100  1
  O  O27  1  0.75393200  0.03676100  0.06358900  1
  O  O28  1  0.92374800  0.03142900  0.87125600  1
  O  O29  1  0.07625200  0.96857100  0.12874400  1
  O  O30  1  0.16676500  0.39338800  0.92702900  1
  O  O31  1  0.83323500  0.60661200  0.07297100  1
  O  O32  1  0.64318800  0.43189200  0.92663000  1
  O  O33  1  0.35681200  0.56810800  0.07337000  1
loop_
_geom_bond_atom_site_label_1
_geom_bond_atom_site_label_2
_geom_bond_distance
_geom_bond_site_symmetry_2
As0 O20 1.691539 1_455
As0 O18 1.725637 1_555
As0 O7 1.738201 1_455
As0 O10 1.759119 1_555
As1 O21 1.691539 1_655
As1 O19 1.725637 1_555
As1 O6 1.738201 1_655
As1 O11 1.759119 1_555
As2 O14 1.698128 1_645
As2 O1 1.720999 1_545
As2 O5 1.729504 1_555
As2 O24 1.762117 1_555
As3 O15 1.698128 1_465
As3 O0 1.720999 1_565
As3 O4 1.729504 1_555
As3 O25 1.762117 1_555
As4 O28 1.699300 1_465
As4 O16 1.728677 1_565
As4 O22 1.729031 1_555
As4 O26 1.767527 1_555
As5 O29 1.699300 1_645
As5 O17 1.728677 1_545
As5 O23 1.729031 1_555
As5 O27 1.767527 1_555
H0 O10 1.017463 1_555
H0 O21 1.653961 1_555
H1 O11 1.017463 1_555
H1 O20 1.653961 1_555
H2 O24 1.030669 1_555
H2 O28 1.573909 1_555
H3 O25 1.030669 1_555
H3 O29 1.573909 1_555
H4 O26 1.014721 1_554
H4 O29 1.664017 1_555
H5 O27 1.014721 1_556
H5 O28 1.664017 1_555
H6 N0 1.022870 1_555
H7 N1 1.022870 1_555
H8 N2 1.027269 1_655
H9 N3 1.027269 1_455
H10 N2 1.020302 1_555
H11 N3 1.020302 1_555
H12 N4 1.024911 1_555
H13 N5 1.024911 1_555
H14 N4 1.022475 1_555
H15 N5 1.022475 1_555
H16 N6 1.021727 1_555
H17 N7 1.021727 1_555
H18 N6 1.018283 1_555
H19 N7 1.018283 1_555
H20 N8 1.019914 1_555
H21 N9 1.019914 1_555
H22 N8 1.023108 1_555
H23 N9 1.023108 1_555
H24 N10 1.011792 1_555
H25 N11 1.011792 1_555
H26 N10 1.020457 1_555
H27 N11 1.020457 1_555
H28 N12 1.047137 1_555
H28 O20 1.679048 1_555
H29 N13 1.047137 1_555
H29 O21 1.679048 1_555
H30 N14 1.016572 1_555
H31 N15 1.016572 1_555
H32 N14 1.017973 1_555
H33 N15 1.017973 1_555
C0 N4 1.325810 1_555
C0 N6 1.326697 1_555
C0 N0 1.371331 1_555
C1 N5 1.325810 1_555
C1 N7 1.326697 1_555
C1 N1 1.371331 1_555
C2 O30 1.252058 1_555
C2 N2 1.339946 1_555
C2 N0 1.404502 1_555
C3 O31 1.252058 1_555
C3 N3 1.339946 1_555
C3 N1 1.404502 1_555
C4 N8 1.325265 1_555
C4 N10 1.336082 1_555
C4 N12 1.362813 1_555
C5 N9 1.325265 1_555
C5 N11 1.336082 1_555
C5 N13 1.362813 1_555
C6 O32 1.246079 1_555
C6 N14 1.344949 1_555
C6 N12 1.401065 1_555
C7 O33 1.246079 1_555
C7 N15 1.344949 1_555
C7 N13 1.401065 1_555
O0 V2 1.954164 1_555
O1 V3 1.954164 1_555
O2 V2 1.607082 1_555
O3 V3 1.607082 1_555
O4 V0 1.951743 1_555
O5 V1 1.951743 1_555
O6 V2 1.946619 1_555
O7 V3 1.946619 1_555
O8 V0 1.788914 1_555
O8 V2 1.863465 1_565
O9 V1 1.788914 1_555
O9 V3 1.863465 1_545
O12 V0 1.630949 1_555
O13 V1 1.630949 1_555
O14 V0 2.380364 1_555
O14 V2 2.412419 1_565
O15 V1 2.380364 1_555
O15 V3 2.412419 1_545
O16 V2 1.938124 1_555
O17 V3 1.938124 1_555
O18 V0 1.990937 1_555
O19 V1 1.990937 1_555
O22 V0 1.971737 1_555
O23 V1 1.971737 1_555
