# generated using pymatgen
data_LiAgF3
_symmetry_space_group_name_H-M   'P 1'
_cell_length_a   6.79788500
_cell_length_b   6.79788500
_cell_length_c   6.06056383
_cell_angle_alpha   87.76999929
_cell_angle_beta   87.76999929
_cell_angle_gamma   87.05385101
_symmetry_Int_Tables_number   1
_chemical_formula_structural   LiAgF3
_chemical_formula_sum   'Li4 Ag4 F12'
_cell_volume   279.29293651
_cell_formula_units_Z   4
loop_
 _symmetry_equiv_pos_site_id
 _symmetry_equiv_pos_as_xyz
  1  'x, y, z'
loop_
 _atom_site_type_symbol
 _atom_site_label
 _atom_site_symmetry_multiplicity
 _atom_site_fract_x
 _atom_site_fract_y
 _atom_site_fract_z
 _atom_site_occupancy
  Li  Li0  1  0.90227000  0.72860400  0.80543800  1
  Li  Li1  1  0.72860400  0.90227000  0.30543800  1
  Li  Li2  1  0.27139600  0.09773000  0.69456200  1
  Li  Li3  1  0.09773000  0.27139600  0.19456200  1
  Ag  Ag0  1  0.78981400  0.21018600  0.75000000  1
  Ag  Ag1  1  0.59065100  0.40934900  0.25000000  1
  Ag  Ag2  1  0.40934900  0.59065100  0.75000000  1
  Ag  Ag3  1  0.21018600  0.78981400  0.25000000  1
  F  F0  1  0.92524300  0.80196700  0.10473400  1
  F  F1  1  0.87213100  0.37770500  0.35687400  1
  F  F2  1  0.80196700  0.92524300  0.60473400  1
  F  F3  1  0.70591600  0.52366100  0.83571900  1
  F  F4  1  0.62229500  0.12786900  0.14312600  1
  F  F5  1  0.52366100  0.70591600  0.33571900  1
  F  F6  1  0.47633900  0.29408400  0.66428100  1
  F  F7  1  0.37770500  0.87213100  0.85687400  1
  F  F8  1  0.29408400  0.47633900  0.16428100  1
  F  F9  1  0.19803300  0.07475700  0.39526600  1
  F  F10  1  0.12786900  0.62229500  0.64312600  1
  F  F11  1  0.07475700  0.19803300  0.89526600  1
loop_
_geom_bond_atom_site_label_1
_geom_bond_atom_site_label_2
_geom_bond_distance
_geom_bond_site_symmetry_2
Ag0 F2 2.155117 1_545
Ag0 F11 2.155117 1_655
Ag0 F6 2.252631 1_555
Ag0 F3 2.252631 1_555
Ag0 F1 2.652764 1_555
Ag0 F4 2.652764 1_556
Ag1 F1 2.042173 1_555
Ag1 F4 2.042173 1_555
Ag1 F5 2.123760 1_555
Ag1 F8 2.123760 1_555
Ag2 F7 2.042173 1_555
Ag2 F10 2.042173 1_555
Ag2 F3 2.123760 1_555
Ag2 F6 2.123760 1_555
Ag3 F9 2.155117 1_565
Ag3 F0 2.155117 1_455
Ag3 F8 2.252631 1_555
Ag3 F5 2.252631 1_555
Ag3 F7 2.652764 1_554
Ag3 F10 2.652764 1_555
F0 Li1 1.890941 1_555
F0 Li0 1.914104 1_554
F1 Li3 1.914639 1_655
F2 Li0 1.890941 1_555
F2 Li1 1.914104 1_555
F3 Li0 1.976991 1_555
F4 Li1 1.914639 1_545
F5 Li1 1.976991 1_555
F6 Li2 1.976991 1_555
F7 Li2 1.914639 1_565
F8 Li3 1.976991 1_555
F9 Li3 1.890941 1_555
F9 Li2 1.914104 1_555
F10 Li0 1.914639 1_455
F11 Li2 1.890941 1_555
F11 Li3 1.914104 1_556
