# generated using pymatgen
data_YbNdO2
_symmetry_space_group_name_H-M   'P 1'
_cell_length_a   6.02129794
_cell_length_b   6.02129794
_cell_length_c   6.02129794
_cell_angle_alpha   131.90101846
_cell_angle_beta   131.90101846
_cell_angle_gamma   70.38540245
_symmetry_Int_Tables_number   1
_chemical_formula_structural   YbNdO2
_chemical_formula_sum   'Yb2 Nd2 O4'
_cell_volume   118.51633390
_cell_formula_units_Z   2
loop_
 _symmetry_equiv_pos_site_id
 _symmetry_equiv_pos_as_xyz
  1  'x, y, z'
loop_
 _atom_site_type_symbol
 _atom_site_label
 _atom_site_symmetry_multiplicity
 _atom_site_fract_x
 _atom_site_fract_y
 _atom_site_fract_z
 _atom_site_occupancy
  Yb  Yb0  1  0.75000000  0.25000000  0.50000000  1
  Yb  Yb1  1  0.00000000  0.00000000  0.00000000  1
  Nd  Nd0  1  0.50000000  0.50000000  0.00000000  1
  Nd  Nd1  1  0.25000000  0.75000000  0.50000000  1
  O  O0  1  0.99196600  0.49196600  0.50000000  1
  O  O1  1  0.50803400  0.00803400  0.50000000  1
  O  O2  1  0.75803400  0.75803400  0.00000000  1
  O  O3  1  0.24196600  0.24196600  0.00000000  1
loop_
_geom_bond_atom_site_label_1
_geom_bond_atom_site_label_2
_geom_bond_distance
_geom_bond_site_symmetry_2
Nd0 O0 2.455106 1_454
Nd0 O1 2.455106 1_554
Nd0 O0 2.455106 1_555
Nd0 O1 2.455106 1_565
Nd0 O3 2.539424 1_555
Nd0 O2 2.539424 1_555
Nd1 O3 2.455106 1_566
Nd1 O2 2.455106 1_455
Nd1 O2 2.455106 1_556
Nd1 O3 2.455106 1_555
Nd1 O0 2.539424 1_455
Nd1 O1 2.539424 1_565
O0 Yb0 2.381291 1_555
O0 Yb1 2.455106 1_655
O0 Yb1 2.455106 1_666
O1 Yb0 2.381291 1_555
O1 Yb1 2.455106 1_555
O1 Yb1 2.455106 1_656
O2 Yb1 2.381291 1_665
O2 Yb0 2.455106 1_565
O2 Yb0 2.455106 1_554
O3 Yb1 2.381291 1_555
O3 Yb0 2.455106 1_555
O3 Yb0 2.455106 1_454
