# generated using pymatgen
data_Li10Fe3Co3(NiO8)2
_symmetry_space_group_name_H-M   'P 1'
_cell_length_a   5.86622800
_cell_length_b   5.87684888
_cell_length_c   9.71588967
_cell_angle_alpha   90.49092226
_cell_angle_beta   90.24760320
_cell_angle_gamma   119.67888203
_symmetry_Int_Tables_number   1
_chemical_formula_structural   Li10Fe3Co3(NiO8)2
_chemical_formula_sum   'Li10 Fe3 Co3 Ni2 O16'
_cell_volume   290.98850919
_cell_formula_units_Z   1
loop_
 _symmetry_equiv_pos_site_id
 _symmetry_equiv_pos_as_xyz
  1  'x, y, z'
loop_
 _atom_site_type_symbol
 _atom_site_label
 _atom_site_symmetry_multiplicity
 _atom_site_fract_x
 _atom_site_fract_y
 _atom_site_fract_z
 _atom_site_occupancy
  Li  Li0  1  0.99234000  0.98020000  0.51407500  1
  Li  Li1  1  0.98262400  0.98635300  0.01993100  1
  Li  Li2  1  0.18152300  0.80193300  0.94218300  1
  Li  Li3  1  0.36566900  0.18367700  0.44156400  1
  Li  Li4  1  0.57805100  0.77664100  0.94726500  1
  Li  Li5  1  0.17645500  0.36478300  0.94337500  1
  Li  Li6  1  0.77289500  0.58361000  0.44338000  1
  Li  Li7  1  0.31793700  0.64446000  0.71765100  1
  Li  Li8  1  0.64514700  0.31929400  0.21772900  1
  Li  Li9  1  0.79919000  0.18669000  0.43620600  1
  Fe  Fe0  1  0.82026800  0.64612500  0.71574800  1
  Fe  Fe1  1  0.82009700  0.15116900  0.71383800  1
  Fe  Fe2  1  0.64171200  0.81768500  0.21628400  1
  Co  Co0  1  0.32878200  0.15261200  0.71302300  1
  Co  Co1  1  0.15144600  0.82153300  0.21304600  1
  Co  Co2  1  0.15157500  0.32563200  0.21266100  1
  Ni  Ni0  1  0.66099400  0.32320800  0.97272200  1
  Ni  Ni1  1  0.32099800  0.65776800  0.46873300  1
  O  O0  1  0.00708600  0.99450500  0.82575000  1
  O  O1  1  0.99685900  0.99909600  0.32122600  1
  O  O2  1  0.30461200  0.14759100  0.10139300  1
  O  O3  1  0.15778900  0.82667800  0.60016700  1
  O  O4  1  0.49360800  0.47121800  0.83207200  1
  O  O5  1  0.00757200  0.50432900  0.32708200  1
  O  O6  1  0.30459600  0.64810700  0.10071000  1
  O  O7  1  0.64868600  0.31186200  0.59534700  1
  O  O8  1  0.49736700  0.00419500  0.83234600  1
  O  O9  1  0.46898800  0.97366600  0.33073700  1
  O  O10  1  0.15623400  0.30440500  0.59662000  1
  O  O11  1  0.82430900  0.66503200  0.09732000  1
  O  O12  1  0.46844600  0.49065300  0.32939300  1
  O  O13  1  0.97790900  0.47961200  0.83318600  1
  O  O14  1  0.66768800  0.81859400  0.59135900  1
  O  O15  1  0.82537300  0.15312300  0.09849900  1
loop_
_geom_bond_atom_site_label_1
_geom_bond_atom_site_label_2
_geom_bond_distance
_geom_bond_site_symmetry_2
Li0 O14 1.823812 1_555
Li0 O3 1.824482 1_655
Li0 O10 1.830540 1_665
Li0 O1 1.877462 1_555
Li1 O15 1.811850 1_565
Li1 O11 1.813127 1_555
Li1 O2 1.814911 1_665
Li1 O0 1.891926 1_654
Li2 O8 1.960241 1_565
Li2 O13 1.962253 1_455
Li2 O6 2.090783 1_556
Li2 O0 2.183202 1_555
Li2 O2 2.350457 1_566
Li2 O11 2.385140 1_456
Li3 O12 1.941165 1_555
Li3 O9 1.942602 1_545
Li3 O7 2.068111 1_555
Li3 O1 2.203829 1_445
Li3 O10 2.267882 1_555
Li3 O3 2.408621 1_545
Li4 O4 1.949370 1_555
Li4 O8 1.976583 1_565
Li4 O6 2.050988 1_556
Li4 O11 2.362018 1_556
Li4 O15 2.430294 1_566
Li4 O0 2.495607 1_655
Li5 O13 1.933407 1_455
Li5 O4 1.974507 1_555
Li5 O6 2.093137 1_556
Li5 O0 2.198871 1_545
Li5 O2 2.350614 1_556
Li5 O15 2.362733 1_456
Li6 O12 1.928989 1_555
Li6 O5 2.007154 1_655
Li6 O7 2.039313 1_555
Li6 O14 2.274363 1_555
Li6 O1 2.446047 1_555
Li6 O3 2.489596 1_655
Li7 O13 2.074059 1_455
Li7 O3 2.083321 1_555
Li7 O10 2.085483 1_555
Li7 O4 2.093542 1_555
Li7 O8 2.136597 1_565
Li7 O14 2.174048 1_555
Li8 O2 2.061847 1_555
Li8 O12 2.071326 1_555
Li8 O9 2.090128 1_545
Li8 O15 2.104049 1_555
Li8 O5 2.121957 1_655
Li8 O11 2.130325 1_555
Li9 O5 1.971911 1_655
Li9 O9 1.982146 1_545
Li9 O7 2.084901 1_555
Li9 O1 2.250346 1_545
Li9 O10 2.411032 1_655
Li9 O14 2.441415 1_545
Fe0 O13 2.005206 1_555
Fe0 O4 2.023369 1_555
Fe0 O14 2.049174 1_555
Fe0 O7 2.057399 1_555
Fe0 O0 2.065306 1_655
Fe0 O3 2.065529 1_655
Fe1 O8 2.018061 1_555
Fe1 O13 2.027358 1_555
Fe1 O7 2.043842 1_555
Fe1 O0 2.059158 1_645
Fe1 O14 2.063001 1_545
Fe1 O10 2.067546 1_655
Fe2 O9 2.003889 1_555
Fe2 O12 2.011453 1_555
Fe2 O6 2.043267 1_555
Fe2 O11 2.057354 1_555
Fe2 O1 2.068848 1_555
Fe2 O15 2.074264 1_565
Co0 O0 1.980681 1_545
Co0 O3 1.982246 1_545
Co0 O4 1.984705 1_555
Co0 O8 1.986072 1_555
Co0 O10 2.000244 1_555
Co0 O7 2.000616 1_555
Co1 O9 1.972722 1_555
Co1 O5 1.974950 1_555
Co1 O6 1.983263 1_555
Co1 O1 1.985588 1_455
Co1 O2 1.998748 1_565
Co1 O11 2.002174 1_455
Co2 O12 1.964651 1_555
Co2 O5 1.979642 1_555
Co2 O1 1.984221 1_445
Co2 O6 1.984830 1_555
Co2 O15 1.990256 1_455
Co2 O2 1.997161 1_555
Ni0 O15 2.094656 1_556
Ni0 O4 2.107793 1_555
Ni0 O8 2.111673 1_555
Ni0 O11 2.112173 1_556
Ni0 O13 2.118963 1_555
Ni0 O2 2.215118 1_556
Ni1 O12 2.091429 1_555
Ni1 O5 2.098289 1_555
Ni1 O9 2.110573 1_555
Ni1 O3 2.112522 1_555
Ni1 O14 2.122551 1_555
Ni1 O10 2.203986 1_555
