# generated using pymatgen
data_Li2Ta4O11
_symmetry_space_group_name_H-M   'P 1'
_cell_length_a   12.85132166
_cell_length_b   12.85132166
_cell_length_c   12.85132205
_cell_angle_alpha   28.24148427
_cell_angle_beta   28.24148427
_cell_angle_gamma   28.24148500
_symmetry_Int_Tables_number   1
_chemical_formula_structural   Li2Ta4O11
_chemical_formula_sum   'Li4 Ta8 O22'
_cell_volume   419.89249075
_cell_formula_units_Z   2
loop_
 _symmetry_equiv_pos_site_id
 _symmetry_equiv_pos_as_xyz
  1  'x, y, z'
loop_
 _atom_site_type_symbol
 _atom_site_label
 _atom_site_symmetry_multiplicity
 _atom_site_fract_x
 _atom_site_fract_y
 _atom_site_fract_z
 _atom_site_occupancy
  Li  Li0  1  0.64892600  0.64892600  0.64892600  1
  Li  Li1  1  0.85107400  0.85107400  0.85107400  1
  Li  Li2  1  0.14892600  0.14892600  0.14892600  1
  Li  Li3  1  0.35107400  0.35107400  0.35107400  1
  Ta  Ta0  1  0.10802600  0.75000000  0.39197400  1
  Ta  Ta1  1  0.60802600  0.89197400  0.25000000  1
  Ta  Ta2  1  0.50000000  0.50000000  0.50000000  1
  Ta  Ta3  1  0.75000000  0.39197400  0.10802600  1
  Ta  Ta4  1  0.25000000  0.60802600  0.89197400  1
  Ta  Ta5  1  0.39197400  0.10802600  0.75000000  1
  Ta  Ta6  1  0.00000000  0.00000000  0.00000000  1
  Ta  Ta7  1  0.89197400  0.25000000  0.60802600  1
  O  O0  1  0.50230800  0.75000000  0.99769200  1
  O  O1  1  0.00230800  0.49769200  0.25000000  1
  O  O2  1  0.23440200  0.75167600  0.42200200  1
  O  O3  1  0.07799800  0.74832400  0.26559800  1
  O  O4  1  0.09390800  0.09390800  0.09390800  1
  O  O5  1  0.73440200  0.92200200  0.25167600  1
  O  O6  1  0.74832400  0.26559800  0.07799800  1
  O  O7  1  0.57799800  0.76559800  0.24832400  1
  O  O8  1  0.59390800  0.59390800  0.59390800  1
  O  O9  1  0.75000000  0.99769200  0.50230800  1
  O  O10  1  0.75167600  0.42200200  0.23440200  1
  O  O11  1  0.24832400  0.57799800  0.76559800  1
  O  O12  1  0.25000000  0.00230800  0.49769200  1
  O  O13  1  0.40609200  0.40609200  0.40609200  1
  O  O14  1  0.42200200  0.23440200  0.75167600  1
  O  O15  1  0.25167600  0.73440200  0.92200200  1
  O  O16  1  0.26559800  0.07799800  0.74832400  1
  O  O17  1  0.90609200  0.90609200  0.90609200  1
  O  O18  1  0.92200200  0.25167600  0.73440200  1
  O  O19  1  0.76559800  0.24832400  0.57799800  1
  O  O20  1  0.99769200  0.50230800  0.75000000  1
  O  O21  1  0.49769200  0.25000000  0.00230800  1
loop_
_geom_bond_atom_site_label_1
_geom_bond_atom_site_label_2
_geom_bond_distance
_geom_bond_site_symmetry_2
Li0 O8 2.035256 1_555
Li0 O15 2.220380 1_555
Li0 O18 2.220380 1_555
Li0 O5 2.220380 1_555
Li1 O17 2.035256 1_555
Li1 O19 2.220380 1_565
Li1 O11 2.220380 1_655
Li1 O7 2.220380 1_556
Li2 O4 2.035256 1_555
Li2 O2 2.220380 1_545
Li2 O10 2.220380 1_455
Li2 O14 2.220380 1_554
Li3 O13 2.035256 1_555
Li3 O6 2.220380 1_555
Li3 O3 2.220380 1_555
Li3 O16 2.220380 1_555
O0 Ta5 1.991376 1_565
O0 Ta3 1.991376 1_556
O0 Ta0 2.472374 1_556
O1 Ta4 1.991376 1_554
O1 Ta7 1.991376 1_455
O1 Ta1 2.472374 1_455
O2 Ta0 1.991889 1_555
O2 Ta2 1.995268 1_555
O3 Ta0 1.991889 1_555
O3 Ta6 1.995268 1_565
O4 Ta0 2.054814 1_545
O4 Ta3 2.054814 1_455
O4 Ta5 2.054814 1_554
O5 Ta1 1.991889 1_555
O5 Ta6 1.995268 1_665
O6 Ta3 1.991889 1_555
O6 Ta6 1.995268 1_655
O7 Ta1 1.991889 1_555
O7 Ta2 1.995268 1_555
O8 Ta4 2.054814 1_555
O8 Ta7 2.054814 1_555
O8 Ta1 2.054814 1_555
O9 Ta5 1.991376 1_565
O9 Ta0 1.991376 1_655
O9 Ta3 2.472374 1_565
O10 Ta3 1.991889 1_555
O10 Ta2 1.995268 1_555
O11 Ta4 1.991889 1_555
O11 Ta2 1.995268 1_555
O12 Ta1 1.991376 1_545
O12 Ta7 1.991376 1_455
O12 Ta4 2.472374 1_545
O13 Ta3 2.054814 1_555
O13 Ta0 2.054814 1_555
O13 Ta5 2.054814 1_555
O14 Ta5 1.991889 1_555
O14 Ta2 1.995268 1_555
O15 Ta4 1.991889 1_555
O15 Ta6 1.995268 1_566
O16 Ta5 1.991889 1_555
O16 Ta6 1.995268 1_556
O17 Ta7 2.054814 1_565
O17 Ta4 2.054814 1_655
O17 Ta1 2.054814 1_556
O18 Ta7 1.991889 1_555
O18 Ta6 1.995268 1_656
O19 Ta7 1.991889 1_555
O19 Ta2 1.995268 1_555
O20 Ta0 1.991376 1_655
O20 Ta3 1.991376 1_556
O20 Ta5 2.472374 1_655
O21 Ta1 1.991376 1_545
O21 Ta4 1.991376 1_554
O21 Ta7 2.472374 1_554
