# generated using pymatgen
data_NaV3O6
_symmetry_space_group_name_H-M   'P 1'
_cell_length_a   5.06111864
_cell_length_b   5.06111864
_cell_length_c   5.33319930
_cell_angle_alpha   76.63778919
_cell_angle_beta   76.63778919
_cell_angle_gamma   111.59432399
_symmetry_Int_Tables_number   1
_chemical_formula_structural   NaV3O6
_chemical_formula_sum   'Na1 V3 O6'
_cell_volume   115.78962215
_cell_formula_units_Z   1
loop_
 _symmetry_equiv_pos_site_id
 _symmetry_equiv_pos_as_xyz
  1  'x, y, z'
loop_
 _atom_site_type_symbol
 _atom_site_label
 _atom_site_symmetry_multiplicity
 _atom_site_fract_x
 _atom_site_fract_y
 _atom_site_fract_z
 _atom_site_occupancy
  Na  Na0  1  0.37411600  0.62588400  0.00000000  1
  V  V0  1  0.99334500  0.00665500  0.00000000  1
  V  V1  1  0.18068300  0.81931700  0.50000000  1
  V  V2  1  0.80700700  0.19299300  0.50000000  1
  O  O0  1  0.15811000  0.16644400  0.26266400  1
  O  O1  1  0.05034000  0.40280000  0.71595500  1
  O  O2  1  0.83355600  0.84189000  0.73733600  1
  O  O3  1  0.59720000  0.94966000  0.28404500  1
  O  O4  1  0.39019200  0.05121000  0.71633900  1
  O  O5  1  0.94879000  0.60980800  0.28366100  1
loop_
_geom_bond_atom_site_label_1
_geom_bond_atom_site_label_2
_geom_bond_distance
_geom_bond_site_symmetry_2
Na0 O2 2.116570 1_554
Na0 O0 2.116570 1_555
Na0 O4 2.288672 1_564
Na0 O5 2.288672 1_455
Na0 O1 2.613606 1_554
Na0 O3 2.613606 1_555
O0 V0 1.969498 1_455
O0 V1 1.971917 1_545
O0 V2 1.998144 1_455
O1 V1 1.925753 1_555
O1 V2 2.056459 1_455
O1 V0 2.089568 1_456
O2 V0 1.969498 1_566
O2 V1 1.971917 1_655
O2 V2 1.998144 1_565
O3 V1 1.925753 1_555
O3 V2 2.056459 1_565
O3 V0 2.089568 1_565
O4 V2 1.916875 1_555
O4 V1 2.026902 1_545
O4 V0 2.116136 1_456
O5 V2 1.916875 1_555
O5 V1 2.026902 1_655
O5 V0 2.116136 1_565
