# generated using pymatgen
data_Mn12O17F7
_symmetry_space_group_name_H-M   'P 1'
_cell_length_a   4.56980828
_cell_length_b   5.57819130
_cell_length_c   15.10623611
_cell_angle_alpha   90.01769999
_cell_angle_beta   88.81869408
_cell_angle_gamma   89.21422005
_symmetry_Int_Tables_number   1
_chemical_formula_structural   Mn12O17F7
_chemical_formula_sum   'Mn12 O17 F7'
_cell_volume   384.95894919
_cell_formula_units_Z   1
loop_
 _symmetry_equiv_pos_site_id
 _symmetry_equiv_pos_as_xyz
  1  'x, y, z'
loop_
 _atom_site_type_symbol
 _atom_site_label
 _atom_site_symmetry_multiplicity
 _atom_site_fract_x
 _atom_site_fract_y
 _atom_site_fract_z
 _atom_site_occupancy
  Mn  Mn0  1  0.02148000  0.16486400  0.41057500  1
  Mn  Mn1  1  0.01615100  0.83229300  0.24573200  1
  Mn  Mn2  1  0.01402700  0.16510400  0.08221100  1
  Mn  Mn3  1  0.02552400  0.16515200  0.74345800  1
  Mn  Mn4  1  0.01643700  0.83713300  0.57667800  1
  Mn  Mn5  1  0.04177200  0.84456800  0.91549900  1
  Mn  Mn6  1  0.49412100  0.36103800  0.58656900  1
  Mn  Mn7  1  0.48655900  0.35363900  0.92432900  1
  Mn  Mn8  1  0.49128900  0.36383100  0.25505800  1
  Mn  Mn9  1  0.49464500  0.63448400  0.08874800  1
  Mn  Mn10  1  0.49394500  0.63406000  0.42071200  1
  Mn  Mn11  1  0.48268000  0.63659100  0.74878800  1
  O  O0  1  0.22810700  0.10937600  0.30052200  1
  O  O1  1  0.22897400  0.10971500  0.63158900  1
  O  O2  1  0.22250200  0.10994800  0.97225300  1
  O  O3  1  0.22697500  0.88614700  0.13632800  1
  O  O4  1  0.22989400  0.88838800  0.46678900  1
  O  O5  1  0.23803900  0.89360600  0.79862100  1
  O  O6  1  0.27548700  0.40021600  0.14852500  1
  O  O7  1  0.27377000  0.59836000  0.31554100  1
  O  O8  1  0.27608900  0.40017400  0.48053700  1
  O  O9  1  0.26938400  0.59960300  0.64519100  1
  O  O10  1  0.27557400  0.40592600  0.81443700  1
  O  O11  1  0.27765900  0.60491800  0.98171900  1
  O  O12  1  0.72749500  0.38689800  0.02795600  1
  O  O13  1  0.72566600  0.61099000  0.19487800  1
  O  O14  1  0.72666800  0.38405900  0.36056500  1
  O  O15  1  0.72570700  0.61322000  0.52682600  1
  O  O16  1  0.72088200  0.38355100  0.69332900  1
  F  F0  1  0.73943300  0.62900700  0.85729200  1
  F  F1  1  0.75074100  0.12545400  0.19244400  1
  F  F2  1  0.75535000  0.12731500  0.52310500  1
  F  F3  1  0.75550000  0.87026300  0.35797400  1
  F  F4  1  0.74869300  0.87267000  0.02670900  1
  F  F5  1  0.76486200  0.12631200  0.85918300  1
  F  F6  1  0.75792100  0.87112700  0.68933000  1
loop_
_geom_bond_atom_site_label_1
_geom_bond_atom_site_label_2
_geom_bond_distance
_geom_bond_site_symmetry_2
Mn0 O0 1.917865 1_555
Mn0 O14 1.969300 1_455
Mn0 O4 2.000140 1_545
Mn0 O8 2.070118 1_555
Mn1 O3 1.921558 1_555
Mn1 O13 1.990635 1_455
Mn1 O0 2.021261 1_565
Mn1 O7 2.052016 1_555
Mn2 O2 1.920356 1_554
Mn2 O12 1.979236 1_455
Mn2 O3 2.007168 1_545
Mn2 O6 2.059773 1_555
Mn3 O1 1.934647 1_555
Mn3 O5 1.981353 1_545
Mn3 O16 1.998311 1_455
Mn3 O10 2.085901 1_555
Mn4 O4 1.931339 1_555
Mn4 O15 1.994621 1_455
Mn4 O1 2.004074 1_565
Mn4 O9 2.042322 1_555
Mn5 O2 1.915854 1_565
Mn5 O5 1.984513 1_555
Mn5 O11 1.988843 1_555
Mn6 O9 1.879937 1_555
Mn6 O8 1.914690 1_555
Mn6 O16 1.939815 1_555
Mn6 O1 1.977186 1_555
Mn6 O15 1.978786 1_555
Mn7 O11 1.885751 1_555
Mn7 O12 1.942601 1_556
Mn7 O10 1.956793 1_555
Mn7 O2 1.958987 1_555
Mn8 O7 1.860249 1_555
Mn8 O6 1.914098 1_555
Mn8 O14 1.945218 1_555
Mn8 O13 1.968644 1_555
Mn8 O0 1.986506 1_555
Mn9 O6 1.877627 1_555
Mn9 O11 1.922218 1_554
Mn9 O13 1.941179 1_555
Mn9 O12 1.949773 1_555
Mn9 O3 1.974735 1_555
Mn10 O8 1.873303 1_555
Mn10 O7 1.909793 1_555
Mn10 O15 1.942040 1_555
Mn10 O14 1.954495 1_555
Mn10 O4 1.967488 1_555
Mn11 O9 1.873491 1_555
Mn11 O10 1.878908 1_555
Mn11 O5 1.947469 1_555
Mn11 O16 1.949014 1_555
F0 Mn11 2.035445 1_555
F0 Mn5 2.054975 1_655
F0 Mn7 2.172960 1_555
F1 Mn8 1.994564 1_555
F1 Mn2 2.048012 1_655
F1 Mn1 2.186311 1_645
F2 Mn6 1.988292 1_555
F2 Mn0 2.081962 1_655
F2 Mn4 2.164783 1_645
F3 Mn10 2.014976 1_555
F3 Mn1 2.061099 1_655
F3 Mn0 2.214306 1_665
F4 Mn9 1.997404 1_555
F4 Mn5 2.131179 1_654
F4 Mn2 2.220245 1_665
F5 Mn7 2.024186 1_555
F5 Mn3 2.107934 1_655
F5 Mn5 2.187623 1_645
F6 Mn11 2.024769 1_555
F6 Mn4 2.058713 1_655
F6 Mn3 2.224744 1_665
