# generated using pymatgen
data_Fe5P6WO24
_symmetry_space_group_name_H-M   'P 1'
_cell_length_a   8.58177707
_cell_length_b   8.70699460
_cell_length_c   8.70699408
_cell_angle_alpha   60.00000239
_cell_angle_beta   59.51614748
_cell_angle_gamma   59.51614058
_symmetry_Int_Tables_number   1
_chemical_formula_structural   Fe5P6WO24
_chemical_formula_sum   'Fe5 P6 W1 O24'
_cell_volume   456.65007940
_cell_formula_units_Z   1
loop_
 _symmetry_equiv_pos_site_id
 _symmetry_equiv_pos_as_xyz
  1  'x, y, z'
loop_
 _atom_site_type_symbol
 _atom_site_label
 _atom_site_symmetry_multiplicity
 _atom_site_fract_x
 _atom_site_fract_y
 _atom_site_fract_z
 _atom_site_occupancy
  Fe  Fe0  1  0.01633900  0.99455400  0.99455400  1
  Fe  Fe1  1  0.07068700  0.64310500  0.64310500  1
  Fe  Fe2  1  0.50187800  0.49937400  0.49937400  1
  Fe  Fe3  1  0.43426200  0.85524700  0.85524700  1
  Fe  Fe4  1  0.92871300  0.35709500  0.35709500  1
  P  P0  1  0.24375300  0.25380400  0.54730400  1
  P  P1  1  0.24375300  0.95514000  0.25380400  1
  P  P2  1  0.24375300  0.54730400  0.95514000  1
  P  P3  1  0.74957100  0.46180100  0.04332800  1
  P  P4  1  0.74957100  0.04332800  0.74530000  1
  P  P5  1  0.74957100  0.74530000  0.46180100  1
  W  W0  1  0.57320900  0.14226400  0.14226400  1
  O  O0  1  0.06755900  0.11118700  0.32061100  1
  O  O1  1  0.06755900  0.50064300  0.11118700  1
  O  O2  1  0.06755900  0.32061100  0.50064300  1
  O  O3  1  0.22890500  0.09100200  0.73853700  1
  O  O4  1  0.43142800  0.18034700  0.38792400  1
  O  O5  1  0.27612000  0.41009300  0.55275800  1
  O  O6  1  0.22890500  0.94155600  0.09100200  1
  O  O7  1  0.27612000  0.76102900  0.41009300  1
  O  O8  1  0.56657900  0.61153600  0.00265200  1
  O  O9  1  0.27612000  0.55275800  0.76102900  1
  O  O10  1  0.76696100  0.25974400  0.06395400  1
  O  O11  1  0.56657900  0.00265200  0.81923200  1
  O  O12  1  0.43142800  0.00030100  0.18034700  1
  O  O13  1  0.22890500  0.73853700  0.94155600  1
  O  O14  1  0.72809800  0.44071300  0.24005000  1
  O  O15  1  0.43142800  0.38792400  0.00030100  1
  O  O16  1  0.72809800  0.24005000  0.59113800  1
  O  O17  1  0.76696100  0.06395400  0.90934200  1
  O  O18  1  0.72809800  0.59113800  0.44071300  1
  O  O19  1  0.56657900  0.81923200  0.61153600  1
  O  O20  1  0.76696100  0.90934200  0.25974400  1
  O  O21  1  0.93266200  0.68909600  0.49297600  1
  O  O22  1  0.93266200  0.49297600  0.88526600  1
  O  O23  1  0.93266200  0.88526600  0.68909600  1
loop_
_geom_bond_atom_site_label_1
_geom_bond_atom_site_label_2
_geom_bond_distance
_geom_bond_site_symmetry_2
Fe0 O6 2.135069 1_556
Fe0 O3 2.135073 1_565
Fe0 O13 2.135076 1_555
Fe0 O10 2.312202 1_466
Fe0 O17 2.312202 1_465
Fe0 O20 2.312202 1_456
Fe1 O23 1.959152 1_455
Fe1 O22 1.959160 1_455
Fe1 O21 1.959167 1_455
Fe1 O9 2.098320 1_555
Fe1 O7 2.098326 1_555
Fe1 O5 2.098333 1_555
Fe2 O7 2.197030 1_555
Fe2 O9 2.197030 1_555
Fe2 O5 2.197030 1_555
Fe2 O18 2.197227 1_555
Fe2 O16 2.197230 1_555
Fe2 O14 2.197232 1_555
Fe3 O11 1.936463 1_565
Fe3 O8 1.936479 1_556
Fe3 O19 1.936493 1_555
Fe3 O6 2.100653 1_556
Fe3 O3 2.100664 1_565
Fe3 O13 2.100673 1_555
Fe4 O0 1.952625 1_655
Fe4 O1 1.952632 1_655
Fe4 O2 1.952640 1_655
Fe4 O14 2.073426 1_555
Fe4 O16 2.073429 1_555
Fe4 O18 2.073432 1_555
O0 P1 1.511389 1_545
O1 P2 1.511392 1_554
O2 P0 1.511394 1_555
O3 P0 1.551054 1_555
O4 P0 1.582277 1_555
O4 W0 1.955744 1_555
O5 P0 1.546840 1_555
O6 P1 1.551059 1_555
O7 P1 1.546845 1_555
O8 P3 1.522042 1_555
O9 P2 1.546848 1_555
O10 P3 1.610759 1_555
O10 W0 2.038093 1_555
O11 P4 1.522044 1_555
O12 P1 1.582273 1_545
O12 W0 1.955752 1_555
O13 P2 1.551051 1_555
O14 P3 1.549559 1_555
O15 P2 1.582274 1_554
O15 W0 1.955748 1_555
O16 P4 1.549562 1_555
O17 P4 1.610768 1_555
O17 W0 2.038093 1_556
O18 P5 1.549568 1_555
O19 P5 1.522039 1_555
O20 P5 1.610763 1_555
O20 W0 2.038093 1_565
O21 P5 1.517144 1_555
O22 P3 1.517145 1_556
O23 P4 1.517144 1_565
