# generated using pymatgen
data_Li3Bi2(PO4)3
_symmetry_space_group_name_H-M   'P 1'
_cell_length_a   9.23725300
_cell_length_b   9.30885000
_cell_length_c   16.03849043
_cell_angle_alpha   55.04143807
_cell_angle_beta   90.00000000
_cell_angle_gamma   90.00000000
_symmetry_Int_Tables_number   1
_chemical_formula_structural   Li3Bi2(PO4)3
_chemical_formula_sum   'Li12 Bi8 P12 O48'
_cell_volume   1130.28155961
_cell_formula_units_Z   4
loop_
 _symmetry_equiv_pos_site_id
 _symmetry_equiv_pos_as_xyz
  1  'x, y, z'
loop_
 _atom_site_type_symbol
 _atom_site_label
 _atom_site_symmetry_multiplicity
 _atom_site_fract_x
 _atom_site_fract_y
 _atom_site_fract_z
 _atom_site_occupancy
  Li  Li0  1  0.11180100  0.22483000  0.69284300  1
  Li  Li1  1  0.71440300  0.18095800  0.74364700  1
  Li  Li2  1  0.76998000  0.61131600  0.17929900  1
  Li  Li3  1  0.26998000  0.38868400  0.32070100  1
  Li  Li4  1  0.21440300  0.81904200  0.75635300  1
  Li  Li5  1  0.61180100  0.77517000  0.80715700  1
  Li  Li6  1  0.38819900  0.22483000  0.19284300  1
  Li  Li7  1  0.78559700  0.18095800  0.24364700  1
  Li  Li8  1  0.73002000  0.61131600  0.67929900  1
  Li  Li9  1  0.23002000  0.38868400  0.82070100  1
  Li  Li10  1  0.28559700  0.81904200  0.25635300  1
  Li  Li11  1  0.88819900  0.77517000  0.30715700  1
  Bi  Bi0  1  0.44666300  0.65885400  0.10145800  1
  Bi  Bi1  1  0.04041500  0.85352700  0.90002000  1
  Bi  Bi2  1  0.54041500  0.14647300  0.59998000  1
  Bi  Bi3  1  0.94666300  0.34114600  0.39854200  1
  Bi  Bi4  1  0.05333700  0.65885400  0.60145800  1
  Bi  Bi5  1  0.45958500  0.85352700  0.40002000  1
  Bi  Bi6  1  0.95958500  0.14647300  0.09998000  1
  Bi  Bi7  1  0.55333700  0.34114600  0.89854200  1
  P  P0  1  0.24163300  0.46401200  0.48938700  1
  P  P1  1  0.39019800  0.06780900  0.83478000  1
  P  P2  1  0.09222700  0.73445100  0.16802900  1
  P  P3  1  0.59222700  0.26554900  0.33197100  1
  P  P4  1  0.89019800  0.93219100  0.66522000  1
  P  P5  1  0.74163300  0.53598800  0.01061300  1
  P  P6  1  0.25836700  0.46401200  0.98938700  1
  P  P7  1  0.10980200  0.06780900  0.33478000  1
  P  P8  1  0.40777300  0.73445100  0.66802900  1
  P  P9  1  0.90777300  0.26554900  0.83197100  1
  P  P10  1  0.60980200  0.93219100  0.16522000  1
  P  P11  1  0.75836700  0.53598800  0.51061300  1
  O  O0  1  0.87110100  0.54630300  0.43515100  1
  O  O1  1  0.71009000  0.34400400  0.59177500  1
  O  O2  1  0.89922400  0.11517900  0.81515900  1
  O  O3  1  0.61029400  0.75649500  0.17379400  1
  O  O4  1  0.36963100  0.34677200  0.55484200  1
  O  O5  1  0.24538800  0.05401400  0.78963700  1
  O  O6  1  0.17547900  0.39101000  0.43117200  1
  O  O7  1  0.40140800  0.91174900  0.94740500  1
  O  O8  1  0.07192900  0.80816000  0.05539800  1
  O  O9  1  0.23883100  0.63541000  0.20900500  1
  O  O10  1  0.96034400  0.61819700  0.23186300  1
  O  O11  1  0.52313300  0.06537000  0.77466900  1
  O  O12  1  0.02313300  0.93463000  0.72533100  1
  O  O13  1  0.46034400  0.38180300  0.26813700  1
  O  O14  1  0.73883100  0.36459000  0.29099500  1
  O  O15  1  0.57192900  0.19184000  0.44460200  1
  O  O16  1  0.90140800  0.08825100  0.55259500  1
  O  O17  1  0.67547900  0.60899000  0.06882800  1
  O  O18  1  0.74538800  0.94598600  0.71036300  1
  O  O19  1  0.86963100  0.65322800  0.94515800  1
  O  O20  1  0.11029400  0.24350500  0.32620600  1
  O  O21  1  0.39922400  0.88482100  0.68484100  1
  O  O22  1  0.21009000  0.65599600  0.90822500  1
  O  O23  1  0.37110100  0.45369700  0.06484900  1
  O  O24  1  0.62889900  0.54630300  0.93515100  1
  O  O25  1  0.78991000  0.34400400  0.09177500  1
  O  O26  1  0.60077600  0.11517900  0.31515900  1
  O  O27  1  0.88970600  0.75649500  0.67379400  1
  O  O28  1  0.13036900  0.34677200  0.05484200  1
  O  O29  1  0.25461200  0.05401400  0.28963700  1
  O  O30  1  0.32452100  0.39101000  0.93117200  1
  O  O31  1  0.09859200  0.91174900  0.44740500  1
  O  O32  1  0.42807100  0.80816000  0.55539800  1
  O  O33  1  0.26116900  0.63541000  0.70900500  1
  O  O34  1  0.53965600  0.61819700  0.73186300  1
  O  O35  1  0.97686700  0.06537000  0.27466900  1
  O  O36  1  0.47686700  0.93463000  0.22533100  1
  O  O37  1  0.03965600  0.38180300  0.76813700  1
  O  O38  1  0.76116900  0.36459000  0.79099500  1
  O  O39  1  0.92807100  0.19184000  0.94460200  1
  O  O40  1  0.59859200  0.08825100  0.05259500  1
  O  O41  1  0.82452100  0.60899000  0.56882800  1
  O  O42  1  0.75461200  0.94598600  0.21036300  1
  O  O43  1  0.63036900  0.65322800  0.44515800  1
  O  O44  1  0.38970600  0.24350500  0.82620600  1
  O  O45  1  0.10077600  0.88482100  0.18484100  1
  O  O46  1  0.28991000  0.65599600  0.40822500  1
  O  O47  1  0.12889900  0.45369700  0.56484900  1
loop_
_geom_bond_atom_site_label_1
_geom_bond_atom_site_label_2
_geom_bond_distance
_geom_bond_site_symmetry_2
Li0 O5 1.905863 1_555
Li0 O47 1.940648 1_555
Li0 O37 2.461667 1_555
Li0 O2 2.539984 1_455
Li0 O12 2.574294 1_545
Li1 O2 1.949428 1_555
Li1 O11 1.978238 1_555
Li1 O1 2.000426 1_555
Li1 O38 2.274408 1_555
Li1 O18 2.547418 1_545
Li2 O14 1.962649 1_555
Li2 O10 1.966933 1_555
Li2 O3 1.968064 1_555
Li2 O17 1.986371 1_555
Li3 O9 1.962649 1_555
Li3 O13 1.966933 1_555
Li3 O20 1.968064 1_555
Li3 O6 1.986371 1_555
Li4 O21 1.949428 1_555
Li4 O12 1.978238 1_555
Li4 O22 2.000426 1_555
Li4 O33 2.274408 1_555
Li4 O5 2.547418 1_565
Li5 O18 1.905863 1_555
Li5 O24 1.940648 1_555
Li5 O34 2.461667 1_555
Li5 O21 2.539984 1_555
Li5 O11 2.574294 1_565
Li6 O29 1.905863 1_555
Li6 O23 1.940648 1_555
Li6 O13 2.461667 1_555
Li6 O26 2.539984 1_555
Li6 O36 2.574294 1_545
Li7 O26 1.949428 1_555
Li7 O35 1.978238 1_555
Li7 O25 2.000426 1_555
Li7 O14 2.274408 1_555
Li7 O42 2.547418 1_545
Li8 O38 1.962649 1_555
Li8 O34 1.966933 1_555
Li8 O27 1.968064 1_555
Li8 O41 1.986371 1_555
Li9 O33 1.962649 1_555
Li9 O37 1.966933 1_555
Li9 O44 1.968064 1_555
Li9 O30 1.986371 1_555
Li10 O45 1.949428 1_555
Li10 O36 1.978238 1_555
Li10 O46 2.000426 1_555
Li10 O9 2.274408 1_555
Li10 O29 2.547418 1_565
Li11 O42 1.905863 1_555
Li11 O0 1.940648 1_555
Li11 O10 2.461667 1_555
Li11 O45 2.539984 1_655
Li11 O35 2.574294 1_565
Bi0 O7 2.270666 1_554
Bi0 O17 2.288046 1_555
Bi0 O3 2.380163 1_555
Bi0 O23 2.400872 1_555
Bi0 O13 2.431655 1_555
Bi0 O9 2.505417 1_555
Bi1 O19 2.223181 1_455
Bi1 O8 2.295051 1_556
Bi1 O22 2.361712 1_555
Bi1 O2 2.384743 1_465
Bi1 O12 2.453824 1_555
Bi1 O5 2.532961 1_565
Bi2 O4 2.223181 1_555
Bi2 O15 2.295051 1_555
Bi2 O1 2.361712 1_555
Bi2 O21 2.384743 1_545
Bi2 O11 2.453824 1_555
Bi2 O18 2.532961 1_545
Bi3 O16 2.270666 1_555
Bi3 O6 2.288046 1_655
Bi3 O20 2.380163 1_655
Bi3 O0 2.400872 1_555
Bi3 O10 2.431655 1_555
Bi3 O14 2.505417 1_555
Bi4 O31 2.270666 1_555
Bi4 O41 2.288046 1_455
Bi4 O27 2.380163 1_455
Bi4 O47 2.400872 1_555
Bi4 O37 2.431655 1_555
Bi4 O33 2.505417 1_555
Bi5 O43 2.223181 1_555
Bi5 O32 2.295051 1_555
Bi5 O46 2.361712 1_555
Bi5 O26 2.384743 1_565
Bi5 O36 2.453824 1_555
Bi5 O29 2.532961 1_565
Bi6 O28 2.223181 1_655
Bi6 O39 2.295051 1_554
Bi6 O25 2.361712 1_555
Bi6 O45 2.384743 1_645
Bi6 O35 2.453824 1_555
Bi6 O42 2.532961 1_545
Bi7 O40 2.270666 1_556
Bi7 O30 2.288046 1_555
Bi7 O44 2.380163 1_555
Bi7 O24 2.400872 1_555
Bi7 O34 2.431655 1_555
Bi7 O38 2.505417 1_555
O0 P11 1.557330 1_555
O1 P11 1.556054 1_555
O2 P9 1.571887 1_555
O3 P10 1.560815 1_555
O4 P0 1.542129 1_555
O5 P1 1.560945 1_555
O6 P0 1.560160 1_555
O7 P1 1.541703 1_565
O8 P2 1.532562 1_555
O9 P2 1.556107 1_555
O10 P2 1.560043 1_655
O11 P1 1.569376 1_555
O12 P4 1.569376 1_455
O13 P3 1.560043 1_555
O14 P3 1.556107 1_555
O15 P3 1.532562 1_555
O16 P4 1.541703 1_545
O17 P5 1.560160 1_555
O18 P4 1.560945 1_555
O19 P5 1.542129 1_556
O20 P7 1.560815 1_555
O21 P8 1.571887 1_555
O22 P6 1.556054 1_555
O23 P6 1.557330 1_554
O24 P5 1.557330 1_556
O25 P5 1.556054 1_555
O26 P3 1.571887 1_555
O27 P4 1.560815 1_555
O28 P6 1.542129 1_554
O29 P7 1.560945 1_555
O30 P6 1.560160 1_555
O31 P7 1.541703 1_565
O32 P8 1.532562 1_555
O33 P8 1.556107 1_555
O34 P8 1.560043 1_555
O35 P7 1.569376 1_655
O36 P10 1.569376 1_555
O37 P9 1.560043 1_455
O38 P9 1.556107 1_555
O39 P9 1.532562 1_555
O40 P10 1.541703 1_545
O41 P11 1.560160 1_555
O42 P10 1.560945 1_555
O43 P11 1.542129 1_555
O44 P1 1.560815 1_555
O45 P2 1.571887 1_555
O46 P0 1.556054 1_555
O47 P0 1.557330 1_555
