# generated using pymatgen
data_Li3MgNi3O8
_symmetry_space_group_name_H-M   'P 1'
_cell_length_a   4.90359415
_cell_length_b   7.67149114
_cell_length_c   7.75900577
_cell_angle_alpha   97.07387167
_cell_angle_beta   101.16374078
_cell_angle_gamma   102.08244306
_symmetry_Int_Tables_number   1
_chemical_formula_structural   Li3MgNi3O8
_chemical_formula_sum   'Li6 Mg2 Ni6 O16'
_cell_volume   275.90546391
_cell_formula_units_Z   2
loop_
 _symmetry_equiv_pos_site_id
 _symmetry_equiv_pos_as_xyz
  1  'x, y, z'
loop_
 _atom_site_type_symbol
 _atom_site_label
 _atom_site_symmetry_multiplicity
 _atom_site_fract_x
 _atom_site_fract_y
 _atom_site_fract_z
 _atom_site_occupancy
  Li  Li0  1  0.99437700  0.88577000  0.61598600  1
  Li  Li1  1  0.99432900  0.38567300  0.11604800  1
  Li  Li2  1  0.50170200  0.50623700  0.99859700  1
  Li  Li3  1  0.50163500  0.00616100  0.49864400  1
  Li  Li4  1  0.50426200  0.73976700  0.76768500  1
  Li  Li5  1  0.50422800  0.23977800  0.26766200  1
  Mg  Mg0  1  0.49873000  0.12601800  0.87552900  1
  Mg  Mg1  1  0.49894800  0.62612500  0.37553600  1
  Ni  Ni0  1  0.99802300  0.25320700  0.74905500  1
  Ni  Ni1  1  0.50004700  0.87672900  0.12973000  1
  Ni  Ni2  1  0.99808100  0.00177300  0.00340000  1
  Ni  Ni3  1  0.99829600  0.75344900  0.24927800  1
  Ni  Ni4  1  0.49973300  0.37638100  0.62955800  1
  Ni  Ni5  1  0.99805600  0.50158700  0.50339400  1
  O  O0  1  0.20876200  0.24444600  0.97958400  1
  O  O1  1  0.20905200  0.74448700  0.47982000  1
  O  O2  1  0.77268400  0.51976900  0.24776900  1
  O  O3  1  0.77234700  0.01964400  0.74780600  1
  O  O4  1  0.25656200  0.15305500  0.64302100  1
  O  O5  1  0.25720600  0.65376600  0.14334800  1
  O  O6  1  0.74270000  0.86411100  0.34812700  1
  O  O7  1  0.74229000  0.36374900  0.84797800  1
  O  O8  1  0.75760800  0.77069000  0.02750500  1
  O  O9  1  0.75732000  0.27046000  0.52742000  1
  O  O10  1  0.25366700  0.47761200  0.74231600  1
  O  O11  1  0.25381200  0.97776700  0.24240400  1
  O  O12  1  0.26244700  0.38957800  0.40835700  1
  O  O13  1  0.26245000  0.88960300  0.90845500  1
  O  O14  1  0.73595900  0.10193500  0.11162000  1
  O  O15  1  0.73560800  0.60152300  0.61140200  1
loop_
_geom_bond_atom_site_label_1
_geom_bond_atom_site_label_2
_geom_bond_distance
_geom_bond_site_symmetry_2
Li0 O3 1.981618 1_565
Li0 O1 2.006329 1_655
Li0 O4 2.141813 1_665
Li0 O6 2.169327 1_555
Li0 O15 2.274081 1_555
Li0 O13 2.385518 1_655
Li1 O2 1.980730 1_555
Li1 O0 2.006500 1_654
Li1 O5 2.147907 1_655
Li1 O7 2.171027 1_554
Li1 O14 2.270362 1_555
Li1 O12 2.384430 1_655
Li2 O10 2.079835 1_555
Li2 O2 2.100534 1_556
Li2 O8 2.110443 1_556
Li2 O7 2.170603 1_555
Li2 O0 2.180781 1_555
Li2 O5 2.180841 1_556
Li3 O11 2.079418 1_545
Li3 O3 2.099959 1_555
Li3 O9 2.109197 1_555
Li3 O6 2.170055 1_545
Li3 O4 2.178594 1_555
Li3 O1 2.179548 1_545
Li4 O10 2.089880 1_555
Li4 O8 2.110140 1_556
Li4 O15 2.145148 1_555
Li4 O13 2.164052 1_555
Li4 O3 2.310912 1_565
Li4 O1 2.423925 1_555
Li5 O11 2.088761 1_545
Li5 O9 2.109507 1_555
Li5 O14 2.143769 1_555
Li5 O12 2.163458 1_555
Li5 O2 2.312364 1_555
Li5 O0 2.425689 1_554
Mg0 O13 2.011480 1_545
Mg0 O4 2.018270 1_555
Mg0 O7 2.020197 1_555
Mg0 O14 2.022653 1_556
Mg0 O3 2.054812 1_555
Mg0 O0 2.074529 1_555
Mg1 O12 2.012449 1_555
Mg1 O5 2.016952 1_555
Mg1 O15 2.021369 1_555
Mg1 O6 2.021780 1_555
Mg1 O2 2.055421 1_555
Mg1 O1 2.074790 1_555
Ni0 O4 1.878932 1_655
Ni0 O7 1.881062 1_555
Ni0 O3 1.896486 1_555
Ni0 O0 1.901234 1_655
Ni0 O10 1.918835 1_655
Ni0 O9 1.924421 1_555
Ni1 O11 1.859207 1_555
Ni1 O8 1.882832 1_555
Ni1 O5 1.896147 1_555
Ni1 O6 1.898552 1_555
Ni1 O14 1.904954 1_565
Ni1 O13 1.905305 1_554
Ni2 O14 1.902647 1_555
Ni2 O13 1.909029 1_644
Ni2 O8 1.964699 1_545
Ni2 O0 1.980081 1_654
Ni2 O11 2.079825 1_645
Ni2 O3 2.111258 1_554
Ni3 O5 1.878270 1_655
Ni3 O6 1.880719 1_555
Ni3 O2 1.896652 1_555
Ni3 O1 1.901759 1_655
Ni3 O11 1.918306 1_655
Ni3 O8 1.925198 1_555
Ni4 O10 1.859609 1_555
Ni4 O9 1.882132 1_555
Ni4 O7 1.898503 1_555
Ni4 O4 1.898694 1_555
Ni4 O15 1.904596 1_555
Ni4 O12 1.904891 1_555
Ni5 O15 1.902289 1_555
Ni5 O12 1.908777 1_655
Ni5 O9 1.965322 1_555
Ni5 O1 1.981496 1_655
Ni5 O10 2.078983 1_655
Ni5 O2 2.111524 1_555
