# generated using pymatgen
data_K2SIO7
_symmetry_space_group_name_H-M   'P 1'
_cell_length_a   7.25696300
_cell_length_b   7.59955100
_cell_length_c   15.53169652
_cell_angle_alpha   65.55481639
_cell_angle_beta   90.00000000
_cell_angle_gamma   90.00000000
_symmetry_Int_Tables_number   1
_chemical_formula_structural   K2SIO7
_chemical_formula_sum   'K8 S4 I4 O28'
_cell_volume   779.78299829
_cell_formula_units_Z   4
loop_
 _symmetry_equiv_pos_site_id
 _symmetry_equiv_pos_as_xyz
  1  'x, y, z'
loop_
 _atom_site_type_symbol
 _atom_site_label
 _atom_site_symmetry_multiplicity
 _atom_site_fract_x
 _atom_site_fract_y
 _atom_site_fract_z
 _atom_site_occupancy
  K  K0  1  0.33697100  0.07092300  0.82007200  1
  K  K1  1  0.83697100  0.92907700  0.67992800  1
  K  K2  1  0.66302900  0.92907700  0.17992800  1
  K  K3  1  0.16302900  0.07092300  0.32007200  1
  K  K4  1  0.38176900  0.58910500  0.08125700  1
  K  K5  1  0.88176900  0.41089500  0.41874300  1
  K  K6  1  0.61823100  0.41089500  0.91874300  1
  K  K7  1  0.11823100  0.58910500  0.58125700  1
  S  S0  1  0.35129600  0.58080700  0.34302900  1
  S  S1  1  0.85129600  0.41919300  0.15697100  1
  S  S2  1  0.64870400  0.41919300  0.65697100  1
  S  S3  1  0.14870400  0.58080700  0.84302900  1
  I  I0  1  0.35684400  0.12936300  0.55326000  1
  I  I1  1  0.85684400  0.87063700  0.94674000  1
  I  I2  1  0.64315600  0.87063700  0.44674000  1
  I  I3  1  0.14315600  0.12936300  0.05326000  1
  O  O0  1  0.26123000  0.67669500  0.89065600  1
  O  O1  1  0.76123000  0.32330500  0.60934400  1
  O  O2  1  0.73877000  0.32330500  0.10934400  1
  O  O3  1  0.23877000  0.67669500  0.39065600  1
  O  O4  1  0.04925600  0.41675400  0.13169200  1
  O  O5  1  0.54925600  0.58324600  0.36830800  1
  O  O6  1  0.95074400  0.58324600  0.86830800  1
  O  O7  1  0.45074400  0.41675400  0.63169200  1
  O  O8  1  0.28573000  0.37589900  0.37335400  1
  O  O9  1  0.78573000  0.62410100  0.12664600  1
  O  O10  1  0.71427000  0.62410100  0.62664600  1
  O  O11  1  0.21427000  0.37589900  0.87335400  1
  O  O12  1  0.20385600  0.95034300  0.00711300  1
  O  O13  1  0.70385600  0.04965700  0.49288700  1
  O  O14  1  0.79614400  0.04965700  0.99288700  1
  O  O15  1  0.29614400  0.95034300  0.50711300  1
  O  O16  1  0.43951800  0.97361100  0.67212000  1
  O  O17  1  0.93951800  0.02638900  0.82788000  1
  O  O18  1  0.56048200  0.02638900  0.32788000  1
  O  O19  1  0.06048200  0.97361100  0.17212000  1
  O  O20  1  0.13004900  0.20249800  0.57692400  1
  O  O21  1  0.63004900  0.79750200  0.92307600  1
  O  O22  1  0.86995100  0.79750200  0.42307600  1
  O  O23  1  0.36995100  0.20249800  0.07692400  1
  O  O24  1  0.33134800  0.68102500  0.23821900  1
  O  O25  1  0.83134800  0.31897500  0.26178100  1
  O  O26  1  0.66865200  0.31897500  0.76178100  1
  O  O27  1  0.16865200  0.68102500  0.73821900  1
loop_
_geom_bond_atom_site_label_1
_geom_bond_atom_site_label_2
_geom_bond_distance
_geom_bond_site_symmetry_2
K0 O0 2.785924 1_545
K0 O16 2.790655 1_545
K0 O12 2.830023 1_546
K0 O17 2.900771 1_455
K0 O11 2.904620 1_555
K0 O21 2.940959 1_545
K0 O26 2.958771 1_555
K0 O7 3.128146 1_555
K1 O1 2.785924 1_565
K1 O17 2.790655 1_565
K1 O13 2.830023 1_565
K1 O16 2.900771 1_555
K1 O10 2.904620 1_555
K1 O20 2.940959 1_665
K1 O27 2.958771 1_655
K1 O6 3.128146 1_555
K2 O2 2.785924 1_565
K2 O18 2.790655 1_565
K2 O14 2.830023 1_564
K2 O19 2.900771 1_655
K2 O9 2.904620 1_555
K2 O23 2.940959 1_565
K2 O24 2.958771 1_555
K2 O5 3.128146 1_555
K3 O3 2.785924 1_545
K3 O19 2.790655 1_545
K3 O15 2.830023 1_545
K3 O18 2.900771 1_555
K3 O8 2.904620 1_555
K3 O22 2.940959 1_445
K3 O25 2.958771 1_455
K3 O4 3.128146 1_555
K4 O4 2.702357 1_555
K4 O12 2.813002 1_555
K4 O24 2.823936 1_555
K4 O0 2.888090 1_554
K4 O21 2.927486 1_554
K4 O23 2.967762 1_555
K4 O9 3.052336 1_555
K4 O2 3.202060 1_555
K5 O5 2.702357 1_555
K5 O13 2.813002 1_555
K5 O25 2.823936 1_555
K5 O1 2.888090 1_555
K5 O20 2.927486 1_655
K5 O22 2.967762 1_555
K5 O8 3.052336 1_655
K5 O3 3.202060 1_655
K6 O6 2.702357 1_555
K6 O14 2.813002 1_555
K6 O26 2.823936 1_555
K6 O2 2.888090 1_556
K6 O23 2.927486 1_556
K6 O21 2.967762 1_555
K6 O11 3.052336 1_555
K6 O0 3.202060 1_555
K7 O7 2.702357 1_555
K7 O15 2.813002 1_555
K7 O27 2.823936 1_555
K7 O3 2.888090 1_555
K7 O22 2.927486 1_455
K7 O20 2.967762 1_555
K7 O10 3.052336 1_455
K7 O1 3.202060 1_455
I0 O20 1.822597 1_555
I0 O16 1.833177 1_545
I0 O15 1.834579 1_545
I1 O21 1.822597 1_555
I1 O17 1.833177 1_565
I1 O14 1.834579 1_565
I2 O22 1.822597 1_555
I2 O18 1.833177 1_565
I2 O13 1.834579 1_565
I3 O23 1.822597 1_555
I3 O19 1.833177 1_545
I3 O12 1.834579 1_545
O0 S3 1.480263 1_555
O1 S2 1.480263 1_555
O2 S1 1.480263 1_555
O3 S0 1.480263 1_555
O4 S1 1.491411 1_455
O5 S0 1.491411 1_555
O6 S3 1.491411 1_655
O7 S2 1.491411 1_555
O8 S0 1.505358 1_555
O9 S1 1.505358 1_555
O10 S2 1.505358 1_555
O11 S3 1.505358 1_555
O24 S0 1.491600 1_555
O25 S1 1.491600 1_555
O26 S2 1.491600 1_555
O27 S3 1.491600 1_555
