# generated using pymatgen
data_Li2BiO3
_symmetry_space_group_name_H-M   'P 1'
_cell_length_a   5.69595706
_cell_length_b   5.69595706
_cell_length_c   10.38439295
_cell_angle_alpha   85.31995829
_cell_angle_beta   85.31995829
_cell_angle_gamma   119.72072643
_symmetry_Int_Tables_number   1
_chemical_formula_structural   Li2BiO3
_chemical_formula_sum   'Li8 Bi4 O12'
_cell_volume   288.70183942
_cell_formula_units_Z   4
loop_
 _symmetry_equiv_pos_site_id
 _symmetry_equiv_pos_as_xyz
  1  'x, y, z'
loop_
 _atom_site_type_symbol
 _atom_site_label
 _atom_site_symmetry_multiplicity
 _atom_site_fract_x
 _atom_site_fract_y
 _atom_site_fract_z
 _atom_site_occupancy
  Li  Li0  1  0.88029100  0.69242200  0.00485900  1
  Li  Li1  1  0.00000000  0.50000000  0.50000000  1
  Li  Li2  1  0.91113900  0.08886100  0.75000000  1
  Li  Li3  1  0.50000000  0.00000000  0.00000000  1
  Li  Li4  1  0.30757800  0.11970900  0.49514100  1
  Li  Li5  1  0.69242200  0.88029100  0.50485900  1
  Li  Li6  1  0.08886100  0.91113900  0.25000000  1
  Li  Li7  1  0.11970900  0.30757800  0.99514100  1
  Bi  Bi0  1  0.75401200  0.24598800  0.25000000  1
  Bi  Bi1  1  0.57857400  0.42142600  0.75000000  1
  Bi  Bi2  1  0.42142600  0.57857400  0.25000000  1
  Bi  Bi3  1  0.24598800  0.75401200  0.75000000  1
  O  O0  1  0.98140200  0.80344700  0.62625700  1
  O  O1  1  0.72187600  0.51395300  0.37730100  1
  O  O2  1  0.90700400  0.39958300  0.86792100  1
  O  O3  1  0.48604700  0.27812400  0.12269900  1
  O  O4  1  0.80344700  0.98140200  0.12625700  1
  O  O5  1  0.39958300  0.90700400  0.36792100  1
  O  O6  1  0.60041700  0.09299600  0.63207900  1
  O  O7  1  0.19655300  0.01859800  0.87374300  1
  O  O8  1  0.51395300  0.72187600  0.87730100  1
  O  O9  1  0.09299600  0.60041700  0.13207900  1
  O  O10  1  0.27812400  0.48604700  0.62269900  1
  O  O11  1  0.01859800  0.19655300  0.37374300  1
loop_
_geom_bond_atom_site_label_1
_geom_bond_atom_site_label_2
_geom_bond_distance
_geom_bond_site_symmetry_2
Li0 O9 2.065331 1_655
Li0 O7 2.102169 1_664
Li0 O2 2.330430 1_554
Li0 O4 2.335192 1_555
Li0 O3 2.436156 1_555
Li0 O8 2.626542 1_554
Li1 O1 2.139420 1_455
Li1 O10 2.139420 1_555
Li1 O0 2.290487 1_455
Li1 O11 2.290487 1_555
Li1 O6 2.485100 1_455
Li1 O5 2.485100 1_555
Li2 O6 2.241146 1_555
Li2 O2 2.241146 1_555
Li2 O7 2.314392 1_655
Li2 O0 2.314392 1_545
Li2 O10 2.367958 1_655
Li2 O8 2.367958 1_545
Li3 O8 2.139420 1_544
Li3 O3 2.139420 1_555
Li3 O7 2.290487 1_554
Li3 O4 2.290487 1_545
Li3 O2 2.485100 1_554
Li3 O9 2.485100 1_545
Li4 O5 2.065331 1_545
Li4 O0 2.102169 1_445
Li4 O6 2.330430 1_555
Li4 O11 2.335192 1_555
Li4 O1 2.436156 1_555
Li4 O10 2.626542 1_555
Li5 O6 2.065331 1_565
Li5 O11 2.102169 1_665
Li5 O5 2.330430 1_555
Li5 O0 2.335192 1_555
Li5 O10 2.436156 1_555
Li5 O1 2.626542 1_555
Li6 O5 2.241146 1_555
Li6 O9 2.241146 1_555
Li6 O11 2.314392 1_565
Li6 O4 2.314392 1_455
Li6 O3 2.367958 1_565
Li6 O1 2.367958 1_455
Li7 O2 2.065331 1_455
Li7 O4 2.102169 1_446
Li7 O9 2.330430 1_556
Li7 O7 2.335192 1_555
Li7 O8 2.436156 1_555
Li7 O3 2.626542 1_556
Bi0 O5 2.156144 1_545
Bi0 O9 2.156144 1_655
Bi0 O3 2.162747 1_555
Bi0 O1 2.162747 1_555
Bi0 O11 2.163217 1_655
Bi0 O4 2.163217 1_545
Bi1 O6 2.365230 1_555
Bi1 O2 2.365230 1_555
Bi1 O8 2.392925 1_555
Bi1 O10 2.392925 1_555
Bi1 O7 2.400587 1_555
Bi1 O0 2.400587 1_555
Bi2 O5 2.365230 1_555
Bi2 O9 2.365230 1_555
Bi2 O1 2.392925 1_555
Bi2 O3 2.392925 1_555
Bi2 O4 2.400587 1_555
Bi2 O11 2.400587 1_555
Bi3 O6 2.156144 1_565
Bi3 O2 2.156144 1_455
Bi3 O8 2.162747 1_555
Bi3 O10 2.162747 1_555
Bi3 O0 2.163217 1_455
Bi3 O7 2.163217 1_565
