# generated using pymatgen
data_LiFePO4
_symmetry_space_group_name_H-M   'P 1'
_cell_length_a   5.10857600
_cell_length_b   13.70534600
_cell_length_c   18.19259266
_cell_angle_alpha   87.40342807
_cell_angle_beta   90.00000000
_cell_angle_gamma   90.00000000
_symmetry_Int_Tables_number   1
_chemical_formula_structural   LiFePO4
_chemical_formula_sum   'Li16 Fe16 P16 O64'
_cell_volume   1272.44298387
_cell_formula_units_Z   16
loop_
 _symmetry_equiv_pos_site_id
 _symmetry_equiv_pos_as_xyz
  1  'x, y, z'
loop_
 _atom_site_type_symbol
 _atom_site_label
 _atom_site_symmetry_multiplicity
 _atom_site_fract_x
 _atom_site_fract_y
 _atom_site_fract_z
 _atom_site_occupancy
  Li  Li0  1  0.78964800  0.13756300  0.05933200  1
  Li  Li1  1  0.22069100  0.16912300  0.27535900  1
  Li  Li2  1  0.85689000  0.27450400  0.37797700  1
  Li  Li3  1  0.71408800  0.27284100  0.88482200  1
  Li  Li4  1  0.21408800  0.22715900  0.61517800  1
  Li  Li5  1  0.35689000  0.22549600  0.12202300  1
  Li  Li6  1  0.72069100  0.33087700  0.22464100  1
  Li  Li7  1  0.28964800  0.36243700  0.44066800  1
  Li  Li8  1  0.71035200  0.63756300  0.55933200  1
  Li  Li9  1  0.27930900  0.66912300  0.77535900  1
  Li  Li10  1  0.64311000  0.77450400  0.87797700  1
  Li  Li11  1  0.78591200  0.77284100  0.38482200  1
  Li  Li12  1  0.28591200  0.72715900  0.11517800  1
  Li  Li13  1  0.14311000  0.72549600  0.62202300  1
  Li  Li14  1  0.77930900  0.83087700  0.72464100  1
  Li  Li15  1  0.21035200  0.86243700  0.94066800  1
  Fe  Fe0  1  0.75698400  0.00683700  0.87708500  1
  Fe  Fe1  1  0.25038700  0.00468400  0.62448900  1
  Fe  Fe2  1  0.25459700  0.10802500  0.80972600  1
  Fe  Fe3  1  0.70308800  0.11275900  0.55088300  1
  Fe  Fe4  1  0.20308800  0.38724100  0.94911700  1
  Fe  Fe5  1  0.75459700  0.39197500  0.69027400  1
  Fe  Fe6  1  0.75038700  0.49531600  0.87551100  1
  Fe  Fe7  1  0.25698400  0.49316300  0.62291500  1
  Fe  Fe8  1  0.74301600  0.50683700  0.37708500  1
  Fe  Fe9  1  0.24961300  0.50468400  0.12448900  1
  Fe  Fe10  1  0.24540300  0.60802500  0.30972600  1
  Fe  Fe11  1  0.79691200  0.61275900  0.05088300  1
  Fe  Fe12  1  0.29691200  0.88724100  0.44911700  1
  Fe  Fe13  1  0.74540300  0.89197500  0.19027400  1
  Fe  Fe14  1  0.74961300  0.99531600  0.37551100  1
  Fe  Fe15  1  0.24301600  0.99316300  0.12291500  1
  P  P0  1  0.75584100  0.11351200  0.21677700  1
  P  P1  1  0.20006200  0.12181200  0.45570200  1
  P  P2  1  0.30958700  0.13312000  0.96523900  1
  P  P3  1  0.74653700  0.14154600  0.70760200  1
  P  P4  1  0.24653700  0.35845400  0.79239800  1
  P  P5  1  0.80958700  0.36688000  0.53476100  1
  P  P6  1  0.70006200  0.37818800  0.04429800  1
  P  P7  1  0.25584100  0.38648800  0.28322300  1
  P  P8  1  0.74415900  0.61351200  0.71677700  1
  P  P9  1  0.29993800  0.62181200  0.95570200  1
  P  P10  1  0.19041300  0.63312000  0.46523900  1
  P  P11  1  0.75346300  0.64154600  0.20760200  1
  P  P12  1  0.25346300  0.85845400  0.29239800  1
  P  P13  1  0.69041300  0.86688000  0.03476100  1
  P  P14  1  0.79993800  0.87818800  0.54429800  1
  P  P15  1  0.24415900  0.88648800  0.78322300  1
  O  O0  1  0.59089600  0.02657500  0.18888900  1
  O  O1  1  0.36856200  0.04558200  0.41638400  1
  O  O2  1  0.12546900  0.05944600  0.92723800  1
  O  O3  1  0.90917900  0.08610600  0.45639500  1
  O  O4  1  0.37738100  0.09738500  0.04645500  1
  O  O5  1  0.86872500  0.09206800  0.29523900  1
  O  O6  1  0.85419000  0.09288900  0.78086100  1
  O  O7  1  0.46124800  0.10884000  0.69162300  1
  O  O8  1  0.93029900  0.11218800  0.64294000  1
  O  O9  1  0.99707900  0.12881400  0.16462300  1
  O  O10  1  0.29590600  0.12272200  0.53862100  1
  O  O11  1  0.57189200  0.13869800  0.91992900  1
  O  O12  1  0.56213700  0.20027500  0.21868500  1
  O  O13  1  0.21223700  0.22430600  0.41982500  1
  O  O14  1  0.18057300  0.23396900  0.96731400  1
  O  O15  1  0.75668600  0.25213600  0.70942000  1
  O  O16  1  0.25668600  0.24786400  0.79058000  1
  O  O17  1  0.68057300  0.26603100  0.53268600  1
  O  O18  1  0.71223700  0.27569400  0.08017500  1
  O  O19  1  0.06213700  0.29972500  0.28131500  1
  O  O20  1  0.07189200  0.36130200  0.58007100  1
  O  O21  1  0.79590600  0.37727800  0.96137900  1
  O  O22  1  0.49707900  0.37118600  0.33537700  1
  O  O23  1  0.43029900  0.38781200  0.85706000  1
  O  O24  1  0.96124800  0.39116000  0.80837700  1
  O  O25  1  0.36872500  0.40793200  0.20476100  1
  O  O26  1  0.35419000  0.40711100  0.71913900  1
  O  O27  1  0.87738100  0.40261500  0.45354500  1
  O  O28  1  0.40917900  0.41389400  0.04360500  1
  O  O29  1  0.62546900  0.44055400  0.57276200  1
  O  O30  1  0.86856200  0.45441800  0.08361600  1
  O  O31  1  0.09089600  0.47342500  0.31111100  1
  O  O32  1  0.90910400  0.52657500  0.68888900  1
  O  O33  1  0.13143800  0.54558200  0.91638400  1
  O  O34  1  0.37453100  0.55944600  0.42723800  1
  O  O35  1  0.59082100  0.58610600  0.95639500  1
  O  O36  1  0.12261900  0.59738500  0.54645500  1
  O  O37  1  0.64581000  0.59288900  0.28086100  1
  O  O38  1  0.63127500  0.59206800  0.79523900  1
  O  O39  1  0.03875200  0.60884000  0.19162300  1
  O  O40  1  0.56970100  0.61218800  0.14294000  1
  O  O41  1  0.50292100  0.62881400  0.66462300  1
  O  O42  1  0.20409400  0.62272200  0.03862100  1
  O  O43  1  0.92810800  0.63869800  0.41992900  1
  O  O44  1  0.93786300  0.70027500  0.71868500  1
  O  O45  1  0.28776300  0.72430600  0.91982500  1
  O  O46  1  0.31942700  0.73396900  0.46731400  1
  O  O47  1  0.74331400  0.75213600  0.20942000  1
  O  O48  1  0.24331400  0.74786400  0.29058000  1
  O  O49  1  0.81942700  0.76603100  0.03268600  1
  O  O50  1  0.78776300  0.77569400  0.58017500  1
  O  O51  1  0.43786300  0.79972500  0.78131500  1
  O  O52  1  0.42810800  0.86130200  0.08007100  1
  O  O53  1  0.70409400  0.87727800  0.46137900  1
  O  O54  1  0.00292100  0.87118600  0.83537700  1
  O  O55  1  0.06970100  0.88781200  0.35706000  1
  O  O56  1  0.53875200  0.89116000  0.30837700  1
  O  O57  1  0.14581000  0.90711100  0.21913900  1
  O  O58  1  0.13127500  0.90793200  0.70476100  1
  O  O59  1  0.62261900  0.90261500  0.95354500  1
  O  O60  1  0.09082100  0.91389400  0.54360500  1
  O  O61  1  0.87453100  0.94055400  0.07276200  1
  O  O62  1  0.63143800  0.95441800  0.58361600  1
  O  O63  1  0.40910400  0.97342500  0.81111100  1
loop_
_geom_bond_atom_site_label_1
_geom_bond_atom_site_label_2
_geom_bond_distance
_geom_bond_site_symmetry_2
Li0 O18 1.987251 1_555
Li0 O9 2.187621 1_555
Li0 O4 2.192130 1_555
Li1 O19 1.972130 1_555
Li1 O12 2.061080 1_555
Li1 O5 2.108184 1_455
Li1 O9 2.401976 1_455
Li2 O19 2.063065 1_655
Li2 O13 2.073849 1_655
Li2 O27 2.280907 1_555
Li2 O22 2.375303 1_555
Li3 O11 2.051636 1_555
Li3 O21 2.084199 1_555
Li3 O23 2.183498 1_555
Li3 O24 2.440009 1_555
Li4 O20 2.051636 1_555
Li4 O10 2.084199 1_555
Li4 O8 2.183498 1_455
Li4 O7 2.440009 1_555
Li5 O12 2.063065 1_555
Li5 O18 2.073849 1_555
Li5 O4 2.280907 1_555
Li5 O9 2.375303 1_455
Li6 O12 1.972130 1_555
Li6 O19 2.061080 1_655
Li6 O25 2.108184 1_555
Li6 O22 2.401976 1_555
Li7 O13 1.987251 1_555
Li7 O22 2.187621 1_555
Li7 O27 2.192130 1_455
Li8 O50 1.987251 1_555
Li8 O41 2.187621 1_555
Li8 O36 2.192130 1_655
Li9 O51 1.972130 1_555
Li9 O44 2.061080 1_455
Li9 O38 2.108184 1_555
Li9 O41 2.401976 1_555
Li10 O51 2.063065 1_555
Li10 O45 2.073849 1_555
Li10 O59 2.280907 1_555
Li10 O54 2.375303 1_655
Li11 O43 2.051636 1_555
Li11 O53 2.084199 1_555
Li11 O55 2.183498 1_655
Li11 O56 2.440009 1_555
Li12 O52 2.051636 1_555
Li12 O42 2.084199 1_555
Li12 O40 2.183498 1_555
Li12 O39 2.440009 1_555
Li13 O44 2.063065 1_455
Li13 O50 2.073849 1_455
Li13 O36 2.280907 1_555
Li13 O41 2.375303 1_555
Li14 O44 1.972130 1_555
Li14 O51 2.061080 1_555
Li14 O58 2.108184 1_655
Li14 O54 2.401976 1_655
Li15 O45 1.987251 1_555
Li15 O54 2.187621 1_555
Li15 O59 2.192130 1_555
Fe0 O59 2.065516 1_545
Fe0 O6 2.124836 1_555
Fe0 O63 2.204178 1_545
Fe0 O11 2.212513 1_555
Fe0 O2 2.226104 1_655
Fe0 O54 2.395513 1_645
Fe1 O58 2.021330 1_545
Fe1 O60 2.131657 1_545
Fe1 O7 2.201759 1_555
Fe1 O62 2.205288 1_545
Fe1 O10 2.209652 1_555
Fe1 O8 2.236558 1_455
Fe2 O16 1.932378 1_555
Fe2 O63 2.005617 1_545
Fe2 O6 2.124329 1_455
Fe2 O2 2.306482 1_555
Fe2 O7 2.393516 1_555
Fe2 O11 2.626790 1_555
Fe3 O8 2.037391 1_555
Fe3 O3 2.062446 1_555
Fe3 O10 2.095841 1_555
Fe3 O17 2.114835 1_555
Fe3 O62 2.254089 1_545
Fe4 O23 2.037391 1_555
Fe4 O28 2.062446 1_556
Fe4 O21 2.095841 1_455
Fe4 O14 2.114835 1_555
Fe4 O33 2.254089 1_555
Fe5 O15 1.932378 1_555
Fe5 O32 2.005617 1_555
Fe5 O26 2.124329 1_555
Fe5 O29 2.306482 1_555
Fe5 O24 2.393516 1_555
Fe5 O20 2.626790 1_655
Fe6 O38 2.021330 1_555
Fe6 O35 2.131657 1_555
Fe6 O24 2.201759 1_555
Fe6 O33 2.205288 1_655
Fe6 O21 2.209652 1_555
Fe6 O23 2.236558 1_555
Fe7 O36 2.065516 1_555
Fe7 O26 2.124836 1_555
Fe7 O32 2.204178 1_455
Fe7 O20 2.212513 1_555
Fe7 O29 2.226104 1_555
Fe7 O41 2.395513 1_555
Fe8 O27 2.065516 1_555
Fe8 O37 2.124836 1_555
Fe8 O31 2.204178 1_655
Fe8 O43 2.212513 1_555
Fe8 O34 2.226104 1_555
Fe8 O22 2.395513 1_555
Fe9 O25 2.021330 1_555
Fe9 O28 2.131657 1_555
Fe9 O39 2.201759 1_555
Fe9 O30 2.205288 1_455
Fe9 O42 2.209652 1_555
Fe9 O40 2.236558 1_555
Fe10 O48 1.932378 1_555
Fe10 O31 2.005617 1_555
Fe10 O37 2.124329 1_555
Fe10 O34 2.306482 1_555
Fe10 O39 2.393516 1_555
Fe10 O43 2.626790 1_455
Fe11 O40 2.037391 1_555
Fe11 O35 2.062446 1_554
Fe11 O42 2.095841 1_655
Fe11 O49 2.114835 1_555
Fe11 O30 2.254089 1_555
Fe12 O55 2.037391 1_555
Fe12 O60 2.062446 1_555
Fe12 O53 2.095841 1_555
Fe12 O46 2.114835 1_555
Fe12 O1 2.254089 1_565
Fe13 O47 1.932378 1_555
Fe13 O0 2.005617 1_565
Fe13 O57 2.124329 1_655
Fe13 O61 2.306482 1_555
Fe13 O56 2.393516 1_555
Fe13 O52 2.626790 1_555
Fe14 O5 2.021330 1_565
Fe14 O3 2.131657 1_565
Fe14 O56 2.201759 1_555
Fe14 O1 2.205288 1_565
Fe14 O53 2.209652 1_555
Fe14 O55 2.236558 1_655
Fe15 O4 2.065516 1_565
Fe15 O57 2.124836 1_555
Fe15 O0 2.204178 1_565
Fe15 O52 2.212513 1_555
Fe15 O61 2.226104 1_455
Fe15 O9 2.395513 1_465
O0 P0 1.562655 1_555
O1 P1 1.553013 1_555
O2 P2 1.563789 1_555
O3 P1 1.564374 1_655
O4 P2 1.573956 1_554
O5 P0 1.555143 1_555
O6 P3 1.562979 1_555
O7 P3 1.556057 1_555
O8 P3 1.571592 1_555
O9 P0 1.563641 1_555
O10 P1 1.586569 1_555
O11 P2 1.573286 1_555
O12 P0 1.548598 1_555
O13 P1 1.523166 1_555
O14 P2 1.533275 1_555
O15 P3 1.518418 1_555
O16 P4 1.518418 1_555
O17 P5 1.533275 1_555
O18 P6 1.523166 1_555
O19 P7 1.548598 1_555
O20 P5 1.573286 1_455
O21 P6 1.586569 1_556
O22 P7 1.563641 1_555
O23 P4 1.571592 1_555
O24 P4 1.556057 1_655
O25 P7 1.555143 1_555
O26 P4 1.562979 1_555
O27 P5 1.573956 1_555
O28 P6 1.564374 1_555
O29 P5 1.563789 1_555
O30 P6 1.553013 1_555
O31 P7 1.562655 1_555
O32 P8 1.562655 1_555
O33 P9 1.553013 1_555
O34 P10 1.563789 1_555
O35 P9 1.564374 1_555
O36 P10 1.573956 1_555
O37 P11 1.562979 1_555
O38 P8 1.555143 1_555
O39 P11 1.556057 1_455
O40 P11 1.571592 1_555
O41 P8 1.563641 1_555
O42 P9 1.586569 1_554
O43 P10 1.573286 1_655
O44 P8 1.548598 1_555
O45 P9 1.523166 1_555
O46 P10 1.533275 1_555
O47 P11 1.518418 1_555
O48 P12 1.518418 1_555
O49 P13 1.533275 1_555
O50 P14 1.523166 1_555
O51 P15 1.548598 1_555
O52 P13 1.573286 1_555
O53 P14 1.586569 1_555
O54 P15 1.563641 1_555
O55 P12 1.571592 1_555
O56 P12 1.556057 1_555
O57 P12 1.562979 1_555
O58 P15 1.555143 1_555
O59 P13 1.573956 1_556
O60 P14 1.564374 1_455
O61 P13 1.563789 1_555
O62 P14 1.553013 1_555
O63 P15 1.562655 1_555
