# generated using pymatgen
data_Cs3TmO3
_symmetry_space_group_name_H-M   'P 1'
_cell_length_a   7.50596177
_cell_length_b   8.17679439
_cell_length_c   12.06166113
_cell_angle_alpha   84.64509345
_cell_angle_beta   90.00000000
_cell_angle_gamma   90.00000000
_symmetry_Int_Tables_number   1
_chemical_formula_structural   Cs3TmO3
_chemical_formula_sum   'Cs12 Tm4 O12'
_cell_volume   737.05011541
_cell_formula_units_Z   4
loop_
 _symmetry_equiv_pos_site_id
 _symmetry_equiv_pos_as_xyz
  1  'x, y, z'
loop_
 _atom_site_type_symbol
 _atom_site_label
 _atom_site_symmetry_multiplicity
 _atom_site_fract_x
 _atom_site_fract_y
 _atom_site_fract_z
 _atom_site_occupancy
  Cs  Cs0  1  0.33890698  0.35156045  0.07662885  1
  Cs  Cs1  1  0.62155686  0.94216302  0.15596257  1
  Cs  Cs2  1  0.81880434  0.37875733  0.19050827  1
  Cs  Cs3  1  0.31880434  0.62124267  0.30949173  1
  Cs  Cs4  1  0.12155686  0.05783698  0.34403743  1
  Cs  Cs5  1  0.83890698  0.64843955  0.42337115  1
  Cs  Cs6  1  0.16109302  0.35156045  0.57662885  1
  Cs  Cs7  1  0.87844314  0.94216302  0.65596257  1
  Cs  Cs8  1  0.68119566  0.37875733  0.69050827  1
  Cs  Cs9  1  0.18119566  0.62124267  0.80949173  1
  Cs  Cs10  1  0.37844314  0.05783698  0.84403743  1
  Cs  Cs11  1  0.66109302  0.64843955  0.92337115  1
  Tm  Tm0  1  0.08646844  0.84531046  0.06828159  1
  Tm  Tm1  1  0.58646844  0.15468954  0.43171841  1
  Tm  Tm2  1  0.41353156  0.84531046  0.56828159  1
  Tm  Tm3  1  0.91353156  0.15468954  0.93171841  1
  O  O0  1  0.34235261  0.75477061  0.04721610  1
  O  O1  1  0.05364938  0.10385916  0.08629502  1
  O  O2  1  0.94677865  0.70627403  0.19114652  1
  O  O3  1  0.44677865  0.29372597  0.30885348  1
  O  O4  1  0.55364938  0.89614084  0.41370498  1
  O  O5  1  0.84235261  0.24522939  0.45278390  1
  O  O6  1  0.15764739  0.75477061  0.54721610  1
  O  O7  1  0.44635062  0.10385916  0.58629502  1
  O  O8  1  0.55322135  0.70627403  0.69114652  1
  O  O9  1  0.05322135  0.29372597  0.80885348  1
  O  O10  1  0.94635062  0.89614084  0.91370498  1
  O  O11  1  0.65764739  0.24522939  0.95278390  1
loop_
_geom_bond_atom_site_label_1
_geom_bond_atom_site_label_2
_geom_bond_distance
_geom_bond_site_symmetry_2
Cs0 O3 2.911643 1_555
Cs0 O1 2.942146 1_555
Cs0 O11 2.992248 1_554
Cs0 O0 3.283017 1_555
Cs1 O0 2.972437 1_555
Cs1 O2 3.115546 1_555
Cs1 O4 3.138106 1_555
Cs1 O11 3.329667 1_564
Cs2 O2 2.845783 1_555
Cs2 O3 3.183287 1_555
Cs2 O1 3.204241 1_655
Cs2 O5 3.253653 1_555
Cs2 O11 3.385462 1_554
Cs3 O3 2.845783 1_555
Cs3 O2 3.183287 1_455
Cs3 O4 3.204241 1_555
Cs3 O0 3.253653 1_555
Cs3 O6 3.385462 1_555
Cs4 O5 2.972437 1_455
Cs4 O3 3.115546 1_555
Cs4 O1 3.138106 1_555
Cs4 O6 3.329667 1_545
Cs5 O2 2.911643 1_555
Cs5 O4 2.942146 1_555
Cs5 O6 2.992248 1_655
Cs5 O5 3.283017 1_555
Cs6 O9 2.911643 1_555
Cs6 O7 2.942146 1_555
Cs6 O5 2.992248 1_455
Cs6 O6 3.283017 1_555
Cs7 O6 2.972437 1_655
Cs7 O8 3.115546 1_555
Cs7 O10 3.138106 1_555
Cs7 O5 3.329667 1_565
Cs8 O8 2.845783 1_555
Cs8 O9 3.183287 1_655
Cs8 O7 3.204241 1_555
Cs8 O11 3.253653 1_555
Cs8 O5 3.385462 1_555
Cs9 O9 2.845783 1_555
Cs9 O8 3.183287 1_555
Cs9 O10 3.204241 1_455
Cs9 O6 3.253653 1_555
Cs9 O0 3.385462 1_556
Cs10 O11 2.972437 1_555
Cs10 O9 3.115546 1_555
Cs10 O7 3.138106 1_555
Cs10 O0 3.329667 1_546
Cs11 O8 2.911643 1_555
Cs11 O10 2.942146 1_555
Cs11 O0 2.992248 1_556
Cs11 O11 3.283017 1_555
O0 Tm0 2.082468 1_555
O1 Tm3 2.147184 1_454
O1 Tm0 2.159408 1_545
O2 Tm0 2.067261 1_655
O3 Tm1 2.067261 1_555
O4 Tm2 2.147184 1_555
O4 Tm1 2.159408 1_565
O5 Tm1 2.082468 1_555
O6 Tm2 2.082468 1_555
O7 Tm1 2.147184 1_555
O7 Tm2 2.159408 1_545
O8 Tm2 2.067261 1_555
O9 Tm3 2.067261 1_455
O10 Tm0 2.147184 1_656
O10 Tm3 2.159408 1_565
O11 Tm3 2.082468 1_555
