# generated using pymatgen
data_Hg(SbO3)2
_symmetry_space_group_name_H-M   'P 1'
_cell_length_a   4.92532700
_cell_length_b   4.92532700
_cell_length_c   9.80720400
_cell_angle_alpha   90.00000000
_cell_angle_beta   90.00000000
_cell_angle_gamma   90.00000000
_symmetry_Int_Tables_number   1
_chemical_formula_structural   Hg(SbO3)2
_chemical_formula_sum   'Hg2 Sb4 O12'
_cell_volume   237.91145208
_cell_formula_units_Z   2
loop_
 _symmetry_equiv_pos_site_id
 _symmetry_equiv_pos_as_xyz
  1  'x, y, z'
loop_
 _atom_site_type_symbol
 _atom_site_label
 _atom_site_symmetry_multiplicity
 _atom_site_fract_x
 _atom_site_fract_y
 _atom_site_fract_z
 _atom_site_occupancy
  Hg  Hg0  1  0.00000000  0.00000000  0.00000000  1
  Hg  Hg1  1  0.50000000  0.50000000  0.50000000  1
  Sb  Sb0  1  0.00000000  0.00000000  0.33148900  1
  Sb  Sb1  1  0.00000000  0.00000000  0.66851100  1
  Sb  Sb2  1  0.50000000  0.50000000  0.16851100  1
  Sb  Sb3  1  0.50000000  0.50000000  0.83148900  1
  O  O0  1  0.17471000  0.82529000  0.50000000  1
  O  O1  1  0.20990400  0.79009600  0.81273800  1
  O  O2  1  0.20990400  0.79009600  0.18726200  1
  O  O3  1  0.29009600  0.29009600  0.31273800  1
  O  O4  1  0.29009600  0.29009600  0.68726200  1
  O  O5  1  0.32529000  0.32529000  0.00000000  1
  O  O6  1  0.67471000  0.67471000  0.00000000  1
  O  O7  1  0.70990400  0.70990400  0.31273800  1
  O  O8  1  0.70990400  0.70990400  0.68726200  1
  O  O9  1  0.79009600  0.20990400  0.18726200  1
  O  O10  1  0.79009600  0.20990400  0.81273800  1
  O  O11  1  0.82529000  0.17471000  0.50000000  1
loop_
_geom_bond_atom_site_label_1
_geom_bond_atom_site_label_2
_geom_bond_distance
_geom_bond_site_symmetry_2
Hg0 O6 2.265796 1_445
Hg0 O5 2.265796 1_555
Hg0 O9 2.347439 1_455
Hg0 O2 2.347439 1_545
Hg0 O10 2.347439 1_454
Hg0 O1 2.347439 1_544
Hg1 O0 2.265796 1_555
Hg1 O11 2.265796 1_555
Hg1 O8 2.347439 1_555
Hg1 O4 2.347439 1_555
Hg1 O7 2.347439 1_555
Hg1 O3 2.347439 1_555
O0 Sb1 2.052338 1_565
O0 Sb0 2.052338 1_565
O1 Sb3 2.029004 1_555
O1 Sb1 2.034301 1_565
O2 Sb2 2.029004 1_555
O2 Sb0 2.034301 1_565
O3 Sb0 2.029004 1_555
O3 Sb2 2.034301 1_555
O4 Sb1 2.029004 1_555
O4 Sb3 2.034301 1_555
O5 Sb2 2.052338 1_555
O5 Sb3 2.052338 1_554
O6 Sb2 2.052338 1_555
O6 Sb3 2.052338 1_554
O7 Sb0 2.029004 1_665
O7 Sb2 2.034301 1_555
O8 Sb1 2.029004 1_665
O8 Sb3 2.034301 1_555
O9 Sb2 2.029004 1_555
O9 Sb0 2.034301 1_655
O10 Sb3 2.029004 1_555
O10 Sb1 2.034301 1_655
O11 Sb1 2.052338 1_655
O11 Sb0 2.052338 1_655
