# generated using pymatgen
data_Li4Ti3Ni3(TeO8)2
_symmetry_space_group_name_H-M   'P 1'
_cell_length_a   5.98370467
_cell_length_b   10.05379266
_cell_length_c   10.32771434
_cell_angle_alpha   89.58276018
_cell_angle_beta   89.99904751
_cell_angle_gamma   89.99974558
_symmetry_Int_Tables_number   1
_chemical_formula_structural   Li4Ti3Ni3(TeO8)2
_chemical_formula_sum   'Li8 Ti6 Ni6 Te4 O32'
_cell_volume   621.28772957
_cell_formula_units_Z   2
loop_
 _symmetry_equiv_pos_site_id
 _symmetry_equiv_pos_as_xyz
  1  'x, y, z'
loop_
 _atom_site_type_symbol
 _atom_site_label
 _atom_site_symmetry_multiplicity
 _atom_site_fract_x
 _atom_site_fract_y
 _atom_site_fract_z
 _atom_site_occupancy
  Li  Li0  1  0.50001400  0.90925000  0.16251700  1
  Li  Li1  1  0.00001400  0.90924800  0.66252200  1
  Li  Li2  1  0.50001100  0.98353000  0.49727600  1
  Li  Li3  1  0.00001000  0.98353500  0.99727200  1
  Li  Li4  1  0.00003000  0.49091200  0.00351200  1
  Li  Li5  1  0.50002900  0.49091800  0.50350600  1
  Li  Li6  1  0.00001200  0.40371300  0.33144500  1
  Li  Li7  1  0.50001200  0.40371200  0.83144400  1
  Ti  Ti0  1  0.00001400  0.72411400  0.17284700  1
  Ti  Ti1  1  0.50001400  0.72410400  0.67284900  1
  Ti  Ti2  1  0.73916900  0.21851300  0.09277300  1
  Ti  Ti3  1  0.23917300  0.21851300  0.59277700  1
  Ti  Ti4  1  0.26086400  0.21850800  0.09277800  1
  Ti  Ti5  1  0.76086000  0.21850700  0.59278200  1
  Ni  Ni0  1  0.00001800  0.20176700  0.82849200  1
  Ni  Ni1  1  0.24269200  0.72052200  0.41450300  1
  Ni  Ni2  1  0.75729000  0.72052900  0.41451000  1
  Ni  Ni3  1  0.50001700  0.20176500  0.32849300  1
  Ni  Ni4  1  0.74267900  0.72050300  0.91450500  1
  Ni  Ni5  1  0.25730100  0.72051500  0.91451200  1
  Te  Te0  1  0.50001400  0.51058800  0.17443400  1
  Te  Te1  1  0.00001400  0.51057800  0.67442700  1
  Te  Te2  1  0.00000800  0.98530200  0.33718000  1
  Te  Te3  1  0.50000800  0.98529400  0.83717800  1
  O  O0  1  0.50001900  0.31651700  0.01057100  1
  O  O1  1  0.00001900  0.31651700  0.51057300  1
  O  O2  1  0.50002000  0.10371000  0.15543400  1
  O  O3  1  0.00002000  0.10371200  0.65543500  1
  O  O4  1  0.00002000  0.29355700  0.00207700  1
  O  O5  1  0.50002000  0.29355400  0.50207400  1
  O  O6  1  0.99999400  0.80315900  0.00654900  1
  O  O7  1  0.49999900  0.80316100  0.50655300  1
  O  O8  1  0.00001700  0.08806600  0.16884200  1
  O  O9  1  0.50001800  0.08806200  0.66884200  1
  O  O10  1  0.50000300  0.59706500  0.34069300  1
  O  O11  1  0.00000300  0.59704900  0.84069700  1
  O  O12  1  0.00000000  0.61088400  0.32146700  1
  O  O13  1  0.49999700  0.61087100  0.82147200  1
  O  O14  1  0.99999800  0.85539300  0.47888400  1
  O  O15  1  0.49999700  0.85538200  0.97888700  1
  O  O16  1  0.75108900  0.61236000  0.09271500  1
  O  O17  1  0.25109400  0.61235500  0.59271000  1
  O  O18  1  0.24894400  0.61237500  0.09272000  1
  O  O19  1  0.74894000  0.61236900  0.59271600  1
  O  O20  1  0.74620400  0.32252900  0.23483500  1
  O  O21  1  0.24620400  0.32252700  0.73483700  1
  O  O22  1  0.25381500  0.32252000  0.23483700  1
  O  O23  1  0.75381500  0.32251800  0.73483800  1
  O  O24  1  0.21494500  0.85704800  0.25427200  1
  O  O25  1  0.71494400  0.85703900  0.75427400  1
  O  O26  1  0.78507500  0.85705400  0.25427400  1
  O  O27  1  0.28507400  0.85704600  0.75427600  1
  O  O28  1  0.24602400  0.08420500  0.41477800  1
  O  O29  1  0.74602100  0.08420400  0.91477500  1
  O  O30  1  0.75399600  0.08421200  0.41478200  1
  O  O31  1  0.25400000  0.08421100  0.91477900  1
loop_
_geom_bond_atom_site_label_1
_geom_bond_atom_site_label_2
_geom_bond_distance
_geom_bond_site_symmetry_2
Li0 O2 1.955896 1_565
Li0 O15 1.976081 1_554
Li0 O26 2.018834 1_555
Li0 O24 2.018857 1_555
Li1 O3 1.955938 1_565
Li1 O14 1.976123 1_455
Li1 O27 2.018830 1_555
Li1 O25 2.018866 1_455
Li2 O7 1.815225 1_555
Li2 O30 2.011864 1_565
Li2 O28 2.011870 1_565
Li2 O9 2.066683 1_565
Li3 O6 1.815295 1_456
Li3 O29 2.011844 1_465
Li3 O31 2.011852 1_565
Li3 O8 2.066713 1_566
Li4 O4 1.984330 1_555
Li4 O11 1.984941 1_554
Li4 O16 2.138877 1_455
Li4 O18 2.138903 1_555
Li5 O5 1.984420 1_555
Li5 O10 1.984977 1_555
Li5 O17 2.138793 1_555
Li5 O19 2.138830 1_555
Li6 O22 1.994999 1_555
Li6 O20 1.995026 1_455
Li6 O1 2.041405 1_555
Li6 O12 2.084652 1_555
Li7 O23 1.994993 1_555
Li7 O21 1.995015 1_555
Li7 O0 2.041391 1_556
Li7 O13 2.084529 1_555
Ni0 O4 2.022283 1_556
Ni0 O3 2.047411 1_555
Ni0 O31 2.117860 1_555
Ni0 O29 2.117933 1_455
Ni0 O21 2.135998 1_555
Ni0 O23 2.136027 1_455
Ni1 O7 1.994025 1_555
Ni1 O12 2.064609 1_555
Ni1 O14 2.098270 1_455
Ni1 O10 2.122736 1_555
Ni1 O17 2.131512 1_555
Ni1 O24 2.148712 1_555
Ni2 O7 1.993857 1_555
Ni2 O12 2.064727 1_655
Ni2 O14 2.098283 1_555
Ni2 O10 2.122725 1_555
Ni2 O19 2.131459 1_555
Ni2 O26 2.148759 1_555
Ni3 O5 2.022241 1_555
Ni3 O2 2.047429 1_555
Ni3 O30 2.117839 1_555
Ni3 O28 2.117908 1_555
Ni3 O20 2.136039 1_555
Ni3 O22 2.136055 1_555
Ni4 O6 1.994104 1_556
Ni4 O13 2.064520 1_555
Ni4 O15 2.098276 1_555
Ni4 O11 2.122767 1_655
Ni4 O16 2.131419 1_556
Ni4 O25 2.148770 1_555
Ni5 O6 1.993952 1_456
Ni5 O13 2.064648 1_555
Ni5 O15 2.098256 1_555
Ni5 O11 2.122777 1_555
Ni5 O18 2.131377 1_556
Ni5 O27 2.148792 1_555
O0 Ti2 1.930592 1_555
O0 Ti4 1.930648 1_555
O0 Te0 2.592114 1_555
O1 Ti3 1.930619 1_555
O1 Ti5 1.930679 1_455
O1 Te1 2.591977 1_555
O2 Ti4 1.946231 1_555
O2 Ti2 1.946239 1_555
O3 Ti5 1.946221 1_455
O3 Ti3 1.946234 1_555
O4 Ti2 1.967879 1_455
O4 Ti4 1.967909 1_555
O5 Ti3 1.967883 1_555
O5 Ti5 1.967916 1_555
O6 Ti0 1.887168 1_655
O7 Ti1 1.887200 1_555
O8 Te2 2.015892 1_545
O8 Ti4 2.181318 1_555
O8 Ti2 2.181382 1_455
O9 Te3 2.015895 1_545
O9 Ti5 2.181300 1_555
O9 Ti3 2.181378 1_555
O10 Te0 1.930281 1_555
O11 Te1 1.930355 1_555
O12 Ti0 1.904316 1_555
O13 Ti1 1.904358 1_555
O14 Te2 1.954423 1_655
O15 Te3 1.954482 1_555
O16 Te0 2.000922 1_555
O16 Ti0 2.044370 1_655
O17 Te1 2.000962 1_555
O17 Ti1 2.044350 1_555
O18 Te0 2.000969 1_555
O18 Ti0 2.044260 1_555
O19 Te1 2.000994 1_655
O19 Ti1 2.044245 1_555
O20 Ti2 1.808405 1_555
O20 Te0 2.473224 1_555
O21 Ti3 1.808376 1_555
O21 Te1 2.473186 1_555
O22 Ti4 1.808357 1_555
O22 Te0 2.473328 1_555
O23 Ti5 1.808325 1_555
O23 Te1 2.473287 1_655
O24 Te2 2.016420 1_555
O24 Ti0 2.040541 1_555
O25 Te3 2.016405 1_555
O25 Ti1 2.040544 1_555
O26 Te2 2.016383 1_655
O26 Ti0 2.040595 1_655
O27 Te3 2.016369 1_555
O27 Ti1 2.040612 1_555
O28 Te2 1.951842 1_545
O28 Ti3 2.289232 1_555
O29 Te3 1.951861 1_545
O29 Ti2 2.289230 1_556
O30 Te2 1.951851 1_645
O30 Ti5 2.289165 1_555
O31 Te3 1.951865 1_545
O31 Ti4 2.289169 1_556
