# generated using pymatgen
data_Li2CoO2
_symmetry_space_group_name_H-M   'P 1'
_cell_length_a   3.15302050
_cell_length_b   3.15302050
_cell_length_c   5.12425300
_cell_angle_alpha   90.00000000
_cell_angle_beta   90.00000000
_cell_angle_gamma   120.00001056
_symmetry_Int_Tables_number   1
_chemical_formula_structural   Li2CoO2
_chemical_formula_sum   'Li2 Co1 O2'
_cell_volume   44.11789059
_cell_formula_units_Z   1
loop_
 _symmetry_equiv_pos_site_id
 _symmetry_equiv_pos_as_xyz
  1  'x, y, z'
loop_
 _atom_site_type_symbol
 _atom_site_label
 _atom_site_symmetry_multiplicity
 _atom_site_fract_x
 _atom_site_fract_y
 _atom_site_fract_z
 _atom_site_occupancy
  Li  Li0  1  0.33333300  0.66666700  0.64253100  1
  Li  Li1  1  0.66666700  0.33333300  0.35746900  1
  Co  Co0  1  0.00000000  0.00000000  0.00000000  1
  O  O0  1  0.33333300  0.66666700  0.23712700  1
  O  O1  1  0.66666700  0.33333300  0.76287300  1
loop_
_geom_bond_atom_site_label_1
_geom_bond_atom_site_label_2
_geom_bond_distance
_geom_bond_site_symmetry_2
Li0 O1 1.922007 1_455
Li0 O1 1.922007 1_565
Li0 O1 1.922013 1_555
Li0 O0 2.077393 1_555
Li1 O0 1.922007 1_545
Li1 O0 1.922007 1_655
Li1 O0 1.922013 1_555
Li1 O1 2.077393 1_555
Co0 O0 2.188676 1_545
Co0 O1 2.188676 1_454
Co0 O0 2.188679 1_445
Co0 O0 2.188679 1_555
Co0 O1 2.188679 1_444
Co0 O1 2.188679 1_554
