# generated using pymatgen
data_Li2V3TeO8
_symmetry_space_group_name_H-M   'P 1'
_cell_length_a   6.02710521
_cell_length_b   6.02710521
_cell_length_c   9.96151300
_cell_angle_alpha   90.00000000
_cell_angle_beta   90.00000000
_cell_angle_gamma   119.99999137
_symmetry_Int_Tables_number   1
_chemical_formula_structural   Li2V3TeO8
_chemical_formula_sum   'Li4 V6 Te2 O16'
_cell_volume   313.38162009
_cell_formula_units_Z   2
loop_
 _symmetry_equiv_pos_site_id
 _symmetry_equiv_pos_as_xyz
  1  'x, y, z'
loop_
 _atom_site_type_symbol
 _atom_site_label
 _atom_site_symmetry_multiplicity
 _atom_site_fract_x
 _atom_site_fract_y
 _atom_site_fract_z
 _atom_site_occupancy
  Li  Li0  1  0.33333300  0.66666700  0.90297000  1
  Li  Li1  1  0.00000000  0.00000000  0.99161500  1
  Li  Li2  1  0.00000000  0.00000000  0.49161500  1
  Li  Li3  1  0.66666700  0.33333300  0.40297000  1
  V  V0  1  0.16813700  0.82670500  0.21646100  1
  V  V1  1  0.17329500  0.34143200  0.21646100  1
  V  V2  1  0.65856800  0.83186300  0.21646100  1
  V  V3  1  0.34143200  0.17329500  0.71646100  1
  V  V4  1  0.83186300  0.65856800  0.71646100  1
  V  V5  1  0.82670500  0.16813700  0.71646100  1
  Te  Te0  1  0.33333300  0.66666700  0.49255000  1
  Te  Te1  1  0.66666700  0.33333300  0.99255000  1
  O  O0  1  0.16716200  0.84840400  0.59588400  1
  O  O1  1  0.03051300  0.52418400  0.33746600  1
  O  O2  1  0.33333300  0.66666700  0.10942100  1
  O  O3  1  0.00000000  0.00000000  0.30788700  1
  O  O4  1  0.00000000  0.00000000  0.80788700  1
  O  O5  1  0.15159600  0.31875700  0.59588400  1
  O  O6  1  0.49367100  0.96948700  0.33746600  1
  O  O7  1  0.47581600  0.50632900  0.33746600  1
  O  O8  1  0.31875700  0.15159600  0.09588400  1
  O  O9  1  0.68124300  0.83283800  0.59588400  1
  O  O10  1  0.50632900  0.47581600  0.83746600  1
  O  O11  1  0.52418400  0.03051300  0.83746600  1
  O  O12  1  0.66666700  0.33333300  0.60942100  1
  O  O13  1  0.83283800  0.68124300  0.09588400  1
  O  O14  1  0.96948700  0.49367100  0.83746600  1
  O  O15  1  0.84840400  0.16716200  0.09588400  1
loop_
_geom_bond_atom_site_label_1
_geom_bond_atom_site_label_2
_geom_bond_distance
_geom_bond_site_symmetry_2
Li0 O14 2.008833 1_455
Li0 O11 2.008833 1_565
Li0 O10 2.008838 1_555
Li0 O2 2.056564 1_556
Li1 O4 1.830209 1_555
Li1 O8 1.961952 1_556
Li1 O13 1.961952 1_446
Li1 O15 1.961956 1_456
Li2 O3 1.830209 1_555
Li2 O5 1.961952 1_555
Li2 O9 1.961952 1_445
Li2 O0 1.961956 1_545
Li3 O6 2.008833 1_545
Li3 O1 2.008833 1_655
Li3 O7 2.008838 1_555
Li3 O12 2.056564 1_555
O0 V3 2.079318 1_565
O0 Te0 2.087932 1_555
O0 V4 2.126868 1_455
O1 V0 1.988244 1_555
O1 V1 2.086779 1_555
O1 Te0 2.210846 1_555
O2 V0 2.004755 1_555
O2 V2 2.004759 1_555
O2 V1 2.004759 1_555
O3 V0 2.001435 1_545
O3 V2 2.001435 1_445
O3 V1 2.001435 1_555
O4 V5 2.001435 1_455
O4 V4 2.001435 1_445
O4 V3 2.001435 1_555
O5 V5 2.079318 1_455
O5 Te0 2.087942 1_555
O5 V3 2.126864 1_555
O6 V2 1.988244 1_555
O6 V0 2.086779 1_555
O6 Te0 2.210847 1_555
O7 V1 1.988244 1_555
O7 V2 2.086779 1_555
O7 Te0 2.210850 1_555
O8 V0 2.079318 1_545
O8 Te1 2.087942 1_554
O8 V1 2.126864 1_555
O9 V4 2.079313 1_555
O9 Te0 2.087942 1_555
O9 V5 2.126868 1_565
O10 V3 1.988244 1_555
O10 V4 2.086779 1_555
O10 Te1 2.210850 1_555
O11 V5 1.988244 1_555
O11 V3 2.086779 1_555
O11 Te1 2.210846 1_555
O12 V5 2.004755 1_555
O12 V4 2.004759 1_555
O12 V3 2.004759 1_555
O13 V2 2.079313 1_555
O13 Te1 2.087942 1_554
O13 V0 2.126868 1_655
O14 V4 1.988244 1_555
O14 V5 2.086779 1_555
O14 Te1 2.210847 1_555
O15 V1 2.079318 1_655
O15 Te1 2.087932 1_554
O15 V2 2.126868 1_545
