# generated using pymatgen
data_CrFe3Sn2(PO4)6
_symmetry_space_group_name_H-M   'P 1'
_cell_length_a   8.81845529
_cell_length_b   8.81845529
_cell_length_c   8.81845510
_cell_angle_alpha   58.87249117
_cell_angle_beta   58.87249117
_cell_angle_gamma   58.87248986
_symmetry_Int_Tables_number   1
_chemical_formula_structural   CrFe3Sn2(PO4)6
_chemical_formula_sum   'Cr1 Fe3 Sn2 P6 O24'
_cell_volume   472.43087827
_cell_formula_units_Z   1
loop_
 _symmetry_equiv_pos_site_id
 _symmetry_equiv_pos_as_xyz
  1  'x, y, z'
loop_
 _atom_site_type_symbol
 _atom_site_label
 _atom_site_symmetry_multiplicity
 _atom_site_fract_x
 _atom_site_fract_y
 _atom_site_fract_z
 _atom_site_occupancy
  Cr  Cr0  1  0.85512700  0.85512700  0.85512700  1
  Fe  Fe0  1  0.14862000  0.14862000  0.14862000  1
  Fe  Fe1  1  0.35062800  0.35062800  0.35062800  1
  Fe  Fe2  1  0.64816600  0.64816600  0.64816600  1
  Sn  Sn0  1  0.00299600  0.00299600  0.00299600  1
  Sn  Sn1  1  0.49918900  0.49918900  0.49918900  1
  P  P0  1  0.03927300  0.46359400  0.74924300  1
  P  P1  1  0.95721400  0.54076700  0.24881900  1
  P  P2  1  0.24881900  0.95721400  0.54076700  1
  P  P3  1  0.54076700  0.24881900  0.95721400  1
  P  P4  1  0.46359400  0.74924300  0.03927300  1
  P  P5  1  0.74924300  0.03927300  0.46359400  1
  O  O0  1  0.50947500  0.30094800  0.11423500  1
  O  O1  1  0.11423500  0.50947500  0.30094800  1
  O  O2  1  0.26990000  0.91746500  0.05933500  1
  O  O3  1  0.30094800  0.11423500  0.50947500  1
  O  O4  1  0.61983300  0.80145300  0.00640300  1
  O  O5  1  0.44170700  0.58295300  0.23506900  1
  O  O6  1  0.91746500  0.05933500  0.26990000  1
  O  O7  1  0.58295300  0.23506900  0.44170700  1
  O  O8  1  0.99221400  0.38353100  0.19599100  1
  O  O9  1  0.23506900  0.44170700  0.58295300  1
  O  O10  1  0.93645400  0.73333000  0.08175800  1
  O  O11  1  0.19599100  0.99221400  0.38353100  1
  O  O12  1  0.80145300  0.00640300  0.61983300  1
  O  O13  1  0.05933500  0.26990000  0.91746500  1
  O  O14  1  0.76378100  0.56079400  0.41572300  1
  O  O15  1  0.00640300  0.61983300  0.80145300  1
  O  O16  1  0.41572300  0.76378100  0.56079400  1
  O  O17  1  0.08175800  0.93645400  0.73333000  1
  O  O18  1  0.56079400  0.41572300  0.76378100  1
  O  O19  1  0.38353100  0.19599100  0.99221400  1
  O  O20  1  0.69278000  0.88679600  0.49443200  1
  O  O21  1  0.73333000  0.08175800  0.93645400  1
  O  O22  1  0.88679600  0.49443200  0.69278000  1
  O  O23  1  0.49443200  0.69278000  0.88679600  1
loop_
_geom_bond_atom_site_label_1
_geom_bond_atom_site_label_2
_geom_bond_distance
_geom_bond_site_symmetry_2
Cr0 O12 1.951857 1_565
Cr0 O15 1.951857 1_655
Cr0 O4 1.951857 1_556
Cr0 O10 2.031818 1_556
Cr0 O21 2.031818 1_565
Cr0 O17 2.031818 1_655
Fe0 O11 1.926955 1_545
Fe0 O8 1.926955 1_455
Fe0 O19 1.926955 1_554
Fe0 O13 2.110384 1_554
Fe0 O2 2.110384 1_545
Fe0 O6 2.110384 1_455
Fe1 O0 1.946909 1_555
Fe1 O1 1.946909 1_555
Fe1 O3 1.946909 1_555
Fe1 O9 2.139497 1_555
Fe1 O7 2.139497 1_555
Fe1 O5 2.139497 1_555
Fe2 O23 1.943183 1_555
Fe2 O22 1.943183 1_555
Fe2 O20 1.943183 1_555
Fe2 O14 2.120086 1_555
Fe2 O16 2.120086 1_555
Fe2 O18 2.120086 1_555
O0 P3 1.528634 1_554
O1 P1 1.528634 1_455
O2 P4 1.577551 1_555
O2 Sn0 2.311207 1_565
O3 P2 1.528634 1_545
O4 P4 1.516331 1_555
O5 P4 1.580879 1_555
O5 Sn1 2.298304 1_555
O6 P5 1.577551 1_555
O6 Sn0 2.311207 1_655
O7 P5 1.580879 1_555
O7 Sn1 2.298304 1_555
O8 P1 1.520398 1_555
O9 P0 1.580879 1_555
O9 Sn1 2.298304 1_555
O10 P1 1.567939 1_555
O10 Sn0 2.407381 1_665
O11 P2 1.520398 1_555
O12 P5 1.516331 1_555
O13 P0 1.577551 1_555
O13 Sn0 2.311207 1_556
O14 P1 1.571225 1_555
O14 Sn1 2.324365 1_555
O15 P0 1.516331 1_555
O16 P2 1.571225 1_555
O16 Sn1 2.324365 1_555
O17 P2 1.567939 1_555
O17 Sn0 2.407381 1_566
O18 P3 1.571225 1_555
O18 Sn1 2.324365 1_555
O19 P3 1.520398 1_555
O20 P5 1.517894 1_565
O21 P3 1.567939 1_555
O21 Sn0 2.407381 1_656
O22 P0 1.517894 1_655
O23 P4 1.517894 1_556
