# generated using pymatgen
data_Na3FeO4
_symmetry_space_group_name_H-M   'P 1'
_cell_length_a   5.14647548
_cell_length_b   10.69152011
_cell_length_c   6.32356893
_cell_angle_alpha   89.99996555
_cell_angle_beta   90.00003145
_cell_angle_gamma   82.83698818
_symmetry_Int_Tables_number   1
_chemical_formula_structural   Na3FeO4
_chemical_formula_sum   'Na12 Fe4 O16'
_cell_volume   345.23024258
_cell_formula_units_Z   4
loop_
 _symmetry_equiv_pos_site_id
 _symmetry_equiv_pos_as_xyz
  1  'x, y, z'
loop_
 _atom_site_type_symbol
 _atom_site_label
 _atom_site_symmetry_multiplicity
 _atom_site_fract_x
 _atom_site_fract_y
 _atom_site_fract_z
 _atom_site_occupancy
  Na  Na0  1  0.75000045  -0.00000042  0.38096370  1
  Na  Na1  1  0.24999965  0.50000012  0.38095503  1
  Na  Na2  1  0.24999982  -0.00000029  0.61904637  1
  Na  Na3  1  0.74999965  0.49999997  0.61903549  1
  Na  Na4  1  0.49999245  0.25000303  0.11510545  1
  Na  Na5  1  0.00000768  0.74999715  0.11510640  1
  Na  Na6  1  -0.00000575  0.25000139  0.88489261  1
  Na  Na7  1  0.50000680  0.74999779  0.88489446  1
  Na  Na8  1  0.50000027  0.24999864  0.62545281  1
  Na  Na9  1  0.00000007  0.75000161  0.62545430  1
  Na  Na10  1  0.00000173  0.24999971  0.37454441  1
  Na  Na11  1  0.49999936  0.74999960  0.37454594  1
  Fe  Fe0  1  0.24999878  0.50000044  0.87263496  1
  Fe  Fe1  1  0.24999955  0.00000043  0.12736547  1
  Fe  Fe2  1  0.74999896  0.00000057  0.87264442  1
  Fe  Fe3  1  0.74999951  0.50000024  0.12735597  1
  O  O0  1  0.84192317  0.10787982  0.67885913  1
  O  O1  1  0.34192526  0.60788078  0.67884972  1
  O  O2  1  0.34192707  0.10787982  0.32115039  1
  O  O3  1  0.84192499  0.60787972  0.32114172  1
  O  O4  1  0.15807514  0.39211910  0.67885083  1
  O  O5  1  0.65807660  0.89211865  0.67886066  1
  O  O6  1  0.65807631  0.39211946  0.32114003  1
  O  O7  1  0.15807554  0.89211804  0.32114912  1
  O  O8  1  0.41321793  0.09381711  0.90264784  1
  O  O9  1  0.91321802  0.59381759  0.90263732  1
  O  O10  1  0.91321873  0.09381836  0.09736221  1
  O  O11  1  0.41321781  0.59381672  0.09735453  1
  O  O12  1  0.08678233  0.40618350  0.09735212  1
  O  O13  1  0.58678236  0.90618198  0.09736149  1
  O  O14  1  0.58678162  0.40618397  0.90263760  1
  O  O15  1  0.08678214  0.90618338  0.90264851  1
loop_
_geom_bond_atom_site_label_1
_geom_bond_atom_site_label_2
_geom_bond_distance
_geom_bond_site_symmetry_2
Na0 O13 2.266724 1_545
Na0 O10 2.266727 1_555
Na0 O0 2.288839 1_555
Na0 O5 2.288851 1_545
Na0 O2 2.297803 1_555
Na0 O7 2.297818 1_645
Na1 O11 2.266711 1_555
Na1 O12 2.266721 1_555
Na1 O1 2.288841 1_555
Na1 O4 2.288847 1_555
Na1 O3 2.297806 1_455
Na1 O6 2.297821 1_555
Na2 O15 2.266716 1_545
Na2 O8 2.266720 1_555
Na2 O2 2.288846 1_555
Na2 O7 2.288858 1_545
Na2 O0 2.297817 1_455
Na2 O5 2.297822 1_545
Na3 O14 2.266715 1_555
Na3 O9 2.266723 1_555
Na3 O3 2.288830 1_555
Na3 O6 2.288841 1_555
Na3 O1 2.297811 1_555
Na3 O4 2.297817 1_655
Na4 O6 2.230778 1_555
Na4 O2 2.230826 1_555
Na4 O8 2.231329 1_554
Na4 O14 2.231348 1_554
Na4 O12 2.537247 1_555
Na4 O10 2.537332 1_555
Na5 O3 2.230785 1_455
Na5 O7 2.230806 1_555
Na5 O15 2.231331 1_554
Na5 O9 2.231343 1_454
Na5 O11 2.537246 1_555
Na5 O13 2.537329 1_455
Na6 O0 2.230784 1_455
Na6 O4 2.230807 1_555
Na6 O12 2.231325 1_556
Na6 O10 2.231351 1_456
Na6 O14 2.537267 1_455
Na6 O8 2.537323 1_555
Na7 O5 2.230776 1_555
Na7 O1 2.230815 1_555
Na7 O11 2.231319 1_556
Na7 O13 2.231352 1_556
Na7 O9 2.537246 1_555
Na7 O15 2.537334 1_555
Na8 O0 2.202853 1_555
Na8 O4 2.202864 1_555
Na8 O14 2.499237 1_555
Na8 O8 2.499254 1_555
Na8 O2 2.642292 1_555
Na8 O6 2.642358 1_555
Na9 O5 2.202844 1_455
Na9 O1 2.202863 1_555
Na9 O9 2.499219 1_455
Na9 O15 2.499253 1_555
Na9 O7 2.642293 1_555
Na9 O3 2.642363 1_455
Na10 O2 2.202857 1_555
Na10 O6 2.202866 1_455
Na10 O10 2.499198 1_455
Na10 O12 2.499257 1_555
Na10 O4 2.642314 1_555
Na10 O0 2.642365 1_455
Na11 O7 2.202844 1_555
Na11 O3 2.202868 1_555
Na11 O13 2.499215 1_555
Na11 O11 2.499248 1_555
Na11 O1 2.642299 1_555
Na11 O5 2.642358 1_555
Fe0 O4 1.786583 1_555
Fe0 O1 1.786585 1_555
Fe0 O9 1.900694 1_455
Fe0 O14 1.900700 1_555
Fe0 O12 1.985216 1_556
Fe0 O11 1.985230 1_556
Fe1 O2 1.786579 1_555
Fe1 O7 1.786589 1_545
Fe1 O10 1.900698 1_455
Fe1 O13 1.900710 1_545
Fe1 O15 1.985219 1_544
Fe1 O8 1.985222 1_554
Fe2 O0 1.786573 1_555
Fe2 O5 1.786583 1_545
Fe2 O8 1.900694 1_555
Fe2 O15 1.900706 1_645
Fe2 O13 1.985226 1_546
Fe2 O10 1.985233 1_556
Fe3 O6 1.786577 1_555
Fe3 O3 1.786580 1_555
Fe3 O11 1.900695 1_555
Fe3 O12 1.900703 1_655
Fe3 O14 1.985222 1_554
Fe3 O9 1.985231 1_554
