# generated using pymatgen
data_Mn3Sn(PO4)4
_symmetry_space_group_name_H-M   'P 1'
_cell_length_a   4.99842005
_cell_length_b   10.03928174
_cell_length_c   6.07924201
_cell_angle_alpha   90.00574473
_cell_angle_beta   89.99986226
_cell_angle_gamma   89.35078368
_symmetry_Int_Tables_number   1
_chemical_formula_structural   Mn3Sn(PO4)4
_chemical_formula_sum   'Mn3 Sn1 P4 O16'
_cell_volume   305.04010500
_cell_formula_units_Z   1
loop_
 _symmetry_equiv_pos_site_id
 _symmetry_equiv_pos_as_xyz
  1  'x, y, z'
loop_
 _atom_site_type_symbol
 _atom_site_label
 _atom_site_symmetry_multiplicity
 _atom_site_fract_x
 _atom_site_fract_y
 _atom_site_fract_z
 _atom_site_occupancy
  Mn  Mn0  1  0.07573800  0.71144300  0.75006300  1
  Mn  Mn1  1  0.45085600  0.22046400  0.75014500  1
  Mn  Mn2  1  0.58474200  0.78486400  0.24994000  1
  Sn  Sn0  1  0.95366300  0.28155900  0.24996100  1
  P  P0  1  0.09663800  0.60380800  0.25003600  1
  P  P1  1  0.39265700  0.09531800  0.25002800  1
  P  P2  1  0.58774100  0.89311000  0.74996500  1
  P  P3  1  0.91778300  0.41042500  0.74996400  1
  O  O0  1  0.16585900  0.45185800  0.24997400  1
  O  O1  1  0.23379600  0.67102500  0.04980700  1
  O  O2  1  0.23373300  0.67100900  0.45030300  1
  O  O3  1  0.21648900  0.38875900  0.75002100  1
  O  O4  1  0.28144800  0.86998700  0.75002000  1
  O  O5  1  0.23889200  0.16659800  0.05448400  1
  O  O6  1  0.23892100  0.16661000  0.44551000  1
  O  O7  1  0.35865700  0.94466300  0.24999400  1
  O  O8  1  0.64100000  0.04138300  0.74999000  1
  O  O9  1  0.72939400  0.82198800  0.55005800  1
  O  O10  1  0.72943600  0.82199400  0.94987000  1
  O  O11  1  0.69404800  0.12679700  0.24994500  1
  O  O12  1  0.78933400  0.62084400  0.24997000  1
  O  O13  1  0.77331800  0.33807500  0.54905100  1
  O  O14  1  0.77329600  0.33805600  0.95088800  1
  O  O15  1  0.84256800  0.55936400  0.75001100  1
loop_
_geom_bond_atom_site_label_1
_geom_bond_atom_site_label_2
_geom_bond_distance
_geom_bond_site_symmetry_2
Mn0 O4 1.904663 1_555
Mn0 O15 1.931238 1_455
Mn0 O2 2.025303 1_555
Mn0 O1 2.025382 1_556
Mn0 O10 2.378997 1_455
Mn0 O9 2.379853 1_455
Mn1 O8 2.024061 1_555
Mn1 O3 2.045017 1_555
Mn1 O5 2.202539 1_556
Mn1 O6 2.203864 1_555
Mn1 O14 2.350180 1_555
Mn1 O13 2.351581 1_555
Mn2 O12 1.928486 1_555
Mn2 O7 1.951831 1_555
Mn2 O10 1.998991 1_554
Mn2 O9 1.999104 1_555
Mn2 O1 2.430778 1_555
Mn2 O2 2.431894 1_555
O0 P0 1.560387 1_555
O0 Sn0 2.022144 1_455
O1 P0 1.554895 1_555
O2 P0 1.554762 1_555
O3 P3 1.506378 1_455
O4 P2 1.551079 1_555
O5 P1 1.582296 1_555
O5 Sn0 2.176975 1_455
O6 P1 1.581887 1_555
O6 Sn0 2.177375 1_455
O7 P1 1.523898 1_565
O8 P2 1.515138 1_545
O9 P2 1.573663 1_555
O10 P2 1.573833 1_555
O11 P1 1.542770 1_555
O11 Sn0 2.035585 1_555
O12 P0 1.543600 1_655
O13 P3 1.597662 1_555
O13 Sn0 2.104449 1_555
O14 P3 1.597960 1_555
O14 Sn0 2.104459 1_556
O15 P3 1.537644 1_555
