# generated using pymatgen
data_Li5Nb2Co3O10
_symmetry_space_group_name_H-M   'P 1'
_cell_length_a   5.20987000
_cell_length_b   5.30628895
_cell_length_c   7.87624879
_cell_angle_alpha   102.03066319
_cell_angle_beta   109.06347881
_cell_angle_gamma   99.92394519
_symmetry_Int_Tables_number   1
_chemical_formula_structural   Li5Nb2Co3O10
_chemical_formula_sum   'Li5 Nb2 Co3 O10'
_cell_volume   194.35130942
_cell_formula_units_Z   1
loop_
 _symmetry_equiv_pos_site_id
 _symmetry_equiv_pos_as_xyz
  1  'x, y, z'
loop_
 _atom_site_type_symbol
 _atom_site_label
 _atom_site_symmetry_multiplicity
 _atom_site_fract_x
 _atom_site_fract_y
 _atom_site_fract_z
 _atom_site_occupancy
  Li  Li0  1  0.17811000  0.50214100  0.40372500  1
  Li  Li1  1  0.37420500  0.48841800  0.79828400  1
  Li  Li2  1  0.00000000  0.00000000  0.50000000  1
  Li  Li3  1  0.62579500  0.51158200  0.20171600  1
  Li  Li4  1  0.82189000  0.49785900  0.59627500  1
  Nb  Nb0  1  0.59971600  0.98819000  0.71150500  1
  Nb  Nb1  1  0.40028400  0.01181000  0.28849500  1
  Co  Co0  1  0.00000000  0.50000000  0.00000000  1
  Co  Co1  1  0.18415300  0.00507900  0.91099300  1
  Co  Co2  1  0.81584700  0.99492100  0.08900700  1
  O  O0  1  0.78954100  0.73267600  0.83541700  1
  O  O1  1  0.59183500  0.24238200  0.93911300  1
  O  O2  1  0.40484400  0.21551600  0.54296500  1
  O  O3  1  0.02297500  0.75561900  0.24777000  1
  O  O4  1  0.22406600  0.76427500  0.65810600  1
  O  O5  1  0.77593400  0.23572500  0.34189400  1
  O  O6  1  0.97702500  0.24438100  0.75223000  1
  O  O7  1  0.59515600  0.78448400  0.45703500  1
  O  O8  1  0.40816500  0.75761800  0.06088700  1
  O  O9  1  0.21045900  0.26732400  0.16458300  1
loop_
_geom_bond_atom_site_label_1
_geom_bond_atom_site_label_2
_geom_bond_distance
_geom_bond_site_symmetry_2
Li0 O3 2.094296 1_555
Li0 O4 2.101538 1_555
Li0 O9 2.104770 1_555
Li0 O5 2.156700 1_455
Li0 O7 2.271906 1_555
Li0 O2 2.319399 1_555
Li1 O4 2.116057 1_555
Li1 O6 2.116728 1_455
Li1 O1 2.124306 1_555
Li1 O8 2.189053 1_556
Li1 O0 2.215750 1_555
Li1 O2 2.289502 1_555
Li2 O7 2.100480 1_445
Li2 O2 2.100480 1_555
Li2 O5 2.163570 1_455
Li2 O4 2.163570 1_545
Li2 O3 2.185748 1_545
Li2 O6 2.185748 1_455
Li3 O5 2.116057 1_555
Li3 O3 2.116728 1_655
Li3 O8 2.124306 1_555
Li3 O1 2.189053 1_554
Li3 O9 2.215750 1_555
Li3 O7 2.289502 1_555
Li4 O6 2.094296 1_555
Li4 O5 2.101538 1_555
Li4 O0 2.104770 1_555
Li4 O4 2.156700 1_655
Li4 O2 2.271906 1_555
Li4 O7 2.319399 1_555
Nb0 O4 1.967561 1_555
Nb0 O1 2.023345 1_565
Nb0 O0 2.037677 1_555
Nb0 O7 2.059846 1_555
Nb0 O6 2.073712 1_565
Nb0 O2 2.111215 1_565
Nb1 O5 1.967561 1_555
Nb1 O8 2.023345 1_545
Nb1 O9 2.037677 1_555
Nb1 O2 2.059846 1_555
Nb1 O3 2.073712 1_545
Nb1 O7 2.111215 1_545
Co0 O3 2.085776 1_555
Co0 O6 2.085776 1_454
Co0 O9 2.147627 1_555
Co0 O0 2.147627 1_454
Co0 O1 2.163149 1_454
Co0 O8 2.163149 1_555
Co1 O0 2.118471 1_445
Co1 O9 2.131045 1_556
Co1 O6 2.143197 1_455
Co1 O8 2.180489 1_546
Co1 O1 2.191000 1_555
Co1 O4 2.223599 1_545
Co2 O9 2.118471 1_665
Co2 O0 2.131045 1_554
Co2 O3 2.143197 1_655
Co2 O1 2.180489 1_564
Co2 O8 2.191000 1_555
Co2 O5 2.223599 1_565
