# generated using pymatgen
data_Li3Nb3TeO12
_symmetry_space_group_name_H-M   'P 1'
_cell_length_a   5.19909100
_cell_length_b   5.52609290
_cell_length_c   7.62523037
_cell_angle_alpha   85.62649819
_cell_angle_beta   89.77686448
_cell_angle_gamma   89.72661995
_symmetry_Int_Tables_number   1
_chemical_formula_structural   Li3Nb3TeO12
_chemical_formula_sum   'Li3 Nb3 Te1 O12'
_cell_volume   218.43611724
_cell_formula_units_Z   1
loop_
 _symmetry_equiv_pos_site_id
 _symmetry_equiv_pos_as_xyz
  1  'x, y, z'
loop_
 _atom_site_type_symbol
 _atom_site_label
 _atom_site_symmetry_multiplicity
 _atom_site_fract_x
 _atom_site_fract_y
 _atom_site_fract_z
 _atom_site_occupancy
  Li  Li0  1  0.50271800  0.00207900  0.75268000  1
  Li  Li1  1  0.49388900  0.98958700  0.25091100  1
  Li  Li2  1  0.00288800  0.49851100  0.74433400  1
  Nb  Nb0  1  0.49781900  0.55975400  0.52860900  1
  Nb  Nb1  1  0.49127400  0.57017200  0.03381200  1
  Nb  Nb2  1  0.99823800  0.06191900  0.52849500  1
  Te  Te0  1  0.00065300  0.08140600  0.03613000  1
  O  O0  1  0.69629300  0.90396200  0.98383500  1
  O  O1  1  0.32186900  0.91173200  0.49244500  1
  O  O2  1  0.80846900  0.78315300  0.61281600  1
  O  O3  1  0.20755400  0.80164300  0.10872000  1
  O  O4  1  0.37808200  0.60742500  0.79880600  1
  O  O5  1  0.60097300  0.60071100  0.29146000  1
  O  O6  1  0.81678900  0.39057800  0.97939300  1
  O  O7  1  0.18385900  0.39850900  0.50684400  1
  O  O8  1  0.69605600  0.27919200  0.60974200  1
  O  O9  1  0.30210500  0.27244500  0.10954800  1
  O  O10  1  0.12989300  0.10438000  0.79911600  1
  O  O11  1  0.87260700  0.08529200  0.28271700  1
loop_
_geom_bond_atom_site_label_1
_geom_bond_atom_site_label_2
_geom_bond_distance
_geom_bond_site_symmetry_2
Li0 O10 2.053509 1_555
Li0 O0 2.067970 1_545
Li0 O8 2.072434 1_555
Li0 O4 2.279172 1_545
Li0 O1 2.289345 1_545
Li0 O2 2.300692 1_545
Li1 O1 2.060826 1_555
Li1 O11 2.061229 1_565
Li1 O9 2.082292 1_565
Li1 O3 2.160903 1_555
Li1 O5 2.216347 1_555
Li1 O0 2.367316 1_554
Li2 O2 2.062468 1_455
Li2 O6 2.081698 1_455
Li2 O4 2.096549 1_555
Li2 O7 2.145802 1_555
Li2 O10 2.281200 1_555
Li2 O8 2.299542 1_455
Nb0 O7 1.877363 1_555
Nb0 O5 1.881499 1_555
Nb0 O8 1.921506 1_555
Nb0 O1 2.144602 1_555
Nb0 O2 2.166306 1_555
Nb0 O4 2.184732 1_555
Nb1 O4 1.884324 1_554
Nb1 O9 1.968199 1_555
Nb1 O6 2.015595 1_554
Nb1 O3 2.055523 1_555
Nb1 O5 2.067300 1_555
Nb1 O0 2.142934 1_554
Nb2 O1 1.900879 1_645
Nb2 O2 1.902219 1_545
Nb2 O11 1.981773 1_555
Nb2 O8 2.093217 1_555
Nb2 O7 2.094601 1_655
Nb2 O10 2.206397 1_655
O0 Te0 1.924543 1_666
O3 Te0 1.926620 1_565
O6 Te0 1.973546 1_656
O9 Te0 1.999257 1_555
O10 Te0 1.921003 1_556
O11 Te0 1.993836 1_655
