# generated using pymatgen
data_Fe10O11F9
_symmetry_space_group_name_H-M   'P 1'
_cell_length_a   4.75896262
_cell_length_b   4.75896262
_cell_length_c   15.30827395
_cell_angle_alpha   89.87125468
_cell_angle_beta   89.87125468
_cell_angle_gamma   93.91251295
_symmetry_Int_Tables_number   1
_chemical_formula_structural   Fe10O11F9
_chemical_formula_sum   'Fe10 O11 F9'
_cell_volume   345.88769535
_cell_formula_units_Z   1
loop_
 _symmetry_equiv_pos_site_id
 _symmetry_equiv_pos_as_xyz
  1  'x, y, z'
loop_
 _atom_site_type_symbol
 _atom_site_label
 _atom_site_symmetry_multiplicity
 _atom_site_fract_x
 _atom_site_fract_y
 _atom_site_fract_z
 _atom_site_occupancy
  Fe  Fe0  1  0.01427400  0.99626600  0.79445100  1
  Fe  Fe1  1  0.00003800  0.99996200  0.00000000  1
  Fe  Fe2  1  0.00373400  0.98572600  0.20554900  1
  Fe  Fe3  1  0.05144100  0.00562300  0.40113900  1
  Fe  Fe4  1  0.99437700  0.94855900  0.59886100  1
  Fe  Fe5  1  0.50485200  0.49681500  0.90131600  1
  Fe  Fe6  1  0.46190300  0.51659100  0.29198500  1
  Fe  Fe7  1  0.50318500  0.49514800  0.09868400  1
  Fe  Fe8  1  0.47574400  0.52425600  0.50000000  1
  Fe  Fe9  1  0.48340900  0.53809700  0.70801500  1
  O  O0  1  0.19487700  0.81321300  0.29887700  1
  O  O1  1  0.19531300  0.80468700  0.50000000  1
  O  O2  1  0.18678700  0.80512300  0.70112300  1
  O  O3  1  0.70055300  0.70250200  0.80765400  1
  O  O4  1  0.69801400  0.69286600  0.00011000  1
  O  O5  1  0.69322400  0.69421500  0.19428500  1
  O  O6  1  0.67768400  0.67841600  0.60136900  1
  O  O7  1  0.30578500  0.30677600  0.80571500  1
  O  O8  1  0.30713400  0.30198600  0.99989000  1
  O  O9  1  0.29749800  0.29944700  0.19234600  1
  O  O10  1  0.32158400  0.32231600  0.39863100  1
  F  F0  1  0.19610200  0.81011800  0.90257400  1
  F  F1  1  0.18988200  0.80389800  0.09742600  1
  F  F2  1  0.70571800  0.71167800  0.39782800  1
  F  F3  1  0.28832200  0.29428200  0.60217200  1
  F  F4  1  0.81329700  0.19208600  0.90161900  1
  F  F5  1  0.81105000  0.19625600  0.30074800  1
  F  F6  1  0.80791400  0.18670300  0.09838100  1
  F  F7  1  0.80374400  0.18895000  0.69925200  1
  F  F8  1  0.81256100  0.18743900  0.50000000  1
loop_
_geom_bond_atom_site_label_1
_geom_bond_atom_site_label_2
_geom_bond_distance
_geom_bond_site_symmetry_2
Fe0 O2 1.909215 1_555
Fe0 O7 1.964786 1_565
Fe0 O3 1.984146 1_455
Fe1 O4 1.978655 1_455
Fe1 O8 1.978655 1_564
Fe2 O0 1.909215 1_555
Fe2 O5 1.964786 1_455
Fe2 O9 1.984146 1_565
Fe3 O10 1.913319 1_555
Fe3 O1 1.939343 1_545
Fe3 O0 1.960100 1_545
Fe4 O6 1.913319 1_555
Fe4 O1 1.939343 1_655
Fe4 O2 1.960100 1_655
Fe5 O3 1.935102 1_555
Fe5 O7 1.937123 1_555
Fe5 O8 1.972403 1_555
Fe5 O4 1.974413 1_556
Fe6 O0 1.965578 1_555
Fe6 O10 1.967243 1_555
Fe6 O9 1.977037 1_555
Fe6 O5 2.005795 1_555
Fe7 O9 1.935102 1_555
Fe7 O5 1.937123 1_555
Fe7 O4 1.972403 1_555
Fe7 O8 1.974413 1_554
Fe8 O6 1.945620 1_555
Fe8 O10 1.945620 1_555
Fe8 O1 1.950681 1_555
Fe9 O2 1.965578 1_555
Fe9 O6 1.967243 1_555
Fe9 O3 1.977037 1_555
Fe9 O7 2.005795 1_555
F0 Fe1 2.006497 1_556
F0 Fe0 2.092271 1_555
F0 Fe5 2.163641 1_555
F1 Fe1 2.006497 1_555
F1 Fe2 2.092271 1_555
F1 Fe7 2.163641 1_555
F2 Fe8 2.071835 1_555
F2 Fe3 2.086380 1_665
F2 Fe6 2.168351 1_555
F3 Fe8 2.071835 1_555
F3 Fe4 2.086380 1_445
F3 Fe9 2.168351 1_555
F4 Fe1 2.001154 1_646
F4 Fe5 2.132662 1_555
F4 Fe0 2.143852 1_645
F5 Fe2 2.023464 1_645
F5 Fe3 2.153338 1_655
F5 Fe6 2.334218 1_555
F6 Fe1 2.001154 1_645
F6 Fe7 2.132662 1_555
F6 Fe2 2.143852 1_645
F7 Fe0 2.023464 1_645
F7 Fe4 2.153338 1_545
F7 Fe9 2.334218 1_555
F8 Fe4 2.112763 1_545
F8 Fe3 2.112763 1_655
F8 Fe8 2.342903 1_555
