# generated using pymatgen
data_CuH3(NO2)3
_symmetry_space_group_name_H-M   'P 1'
_cell_length_a   8.76791300
_cell_length_b   6.77343400
_cell_length_c   9.96731939
_cell_angle_alpha   77.58211633
_cell_angle_beta   90.00000000
_cell_angle_gamma   90.00000000
_symmetry_Int_Tables_number   1
_chemical_formula_structural   CuH3(NO2)3
_chemical_formula_sum   'Cu4 H12 N12 O24'
_cell_volume   578.09943503
_cell_formula_units_Z   4
loop_
 _symmetry_equiv_pos_site_id
 _symmetry_equiv_pos_as_xyz
  1  'x, y, z'
loop_
 _atom_site_type_symbol
 _atom_site_label
 _atom_site_symmetry_multiplicity
 _atom_site_fract_x
 _atom_site_fract_y
 _atom_site_fract_z
 _atom_site_occupancy
  Cu  Cu0  1  0.08180900  0.06264900  0.83348100  1
  Cu  Cu1  1  0.58180900  0.93735100  0.66651900  1
  Cu  Cu2  1  0.91819100  0.93735100  0.16651900  1
  Cu  Cu3  1  0.41819100  0.06264900  0.33348100  1
  H  H0  1  0.16699500  0.30637100  0.61486900  1
  H  H1  1  0.66699500  0.69362900  0.88513100  1
  H  H2  1  0.83300500  0.69362900  0.38513100  1
  H  H3  1  0.33300500  0.30637100  0.11486900  1
  H  H4  1  0.97888500  0.31269000  0.63240100  1
  H  H5  1  0.47888500  0.68731000  0.86759900  1
  H  H6  1  0.02111500  0.68731000  0.36759900  1
  H  H7  1  0.52111500  0.31269000  0.13240100  1
  H  H8  1  0.08997700  0.43405000  0.72158200  1
  H  H9  1  0.58997700  0.56595000  0.77841800  1
  H  H10  1  0.91002300  0.56595000  0.27841800  1
  H  H11  1  0.41002300  0.43405000  0.22158200  1
  N  N0  1  0.08026000  0.30562500  0.68407000  1
  N  N1  1  0.58026000  0.69437500  0.81593000  1
  N  N2  1  0.91974000  0.69437500  0.31593000  1
  N  N3  1  0.41974000  0.30562500  0.18407000  1
  N  N4  1  0.85305700  0.33415700  0.99403100  1
  N  N5  1  0.35305700  0.66584300  0.50596900  1
  N  N6  1  0.14694300  0.66584300  0.00596900  1
  N  N7  1  0.64694300  0.33415700  0.49403100  1
  N  N8  1  0.40121600  0.12792400  0.84348800  1
  N  N9  1  0.90121600  0.87207600  0.65651200  1
  N  N10  1  0.59878400  0.87207600  0.15651200  1
  N  N11  1  0.09878400  0.12792400  0.34348800  1
  O  O0  1  0.93292100  0.16587800  0.00415400  1
  O  O1  1  0.43292100  0.83412200  0.49584600  1
  O  O2  1  0.06707900  0.83412200  0.99584600  1
  O  O3  1  0.56707900  0.16587800  0.50415400  1
  O  O4  1  0.87009500  0.46679800  0.88770600  1
  O  O5  1  0.37009500  0.53320200  0.61229400  1
  O  O6  1  0.12990500  0.53320200  0.11229400  1
  O  O7  1  0.62990500  0.46679800  0.38770600  1
  O  O8  1  0.76735700  0.34958500  0.09097600  1
  O  O9  1  0.26735700  0.65041500  0.40902400  1
  O  O10  1  0.23264300  0.65041500  0.90902400  1
  O  O11  1  0.73264300  0.34958500  0.59097600  1
  O  O12  1  0.38500500  0.04086400  0.74164900  1
  O  O13  1  0.88500500  0.95913600  0.75835100  1
  O  O14  1  0.61499500  0.95913600  0.25835100  1
  O  O15  1  0.11499500  0.04086400  0.24164900  1
  O  O16  1  0.27960000  0.15575800  0.90915100  1
  O  O17  1  0.77960000  0.84424200  0.59084900  1
  O  O18  1  0.72040000  0.84424200  0.09084900  1
  O  O19  1  0.22040000  0.15575800  0.40915100  1
  O  O20  1  0.52695500  0.18196800  0.87844100  1
  O  O21  1  0.02695500  0.81803200  0.62155900  1
  O  O22  1  0.47304500  0.81803200  0.12155900  1
  O  O23  1  0.97304500  0.18196800  0.37844100  1
loop_
_geom_bond_atom_site_label_1
_geom_bond_atom_site_label_2
_geom_bond_distance
_geom_bond_site_symmetry_2
Cu0 N0 1.967861 1_555
Cu0 O2 1.988561 1_545
Cu0 O16 2.044181 1_555
Cu0 O13 2.062943 1_445
Cu0 O0 2.366126 1_456
Cu1 N1 1.967861 1_555
Cu1 O3 1.988561 1_565
Cu1 O17 2.044181 1_555
Cu1 O12 2.062943 1_565
Cu1 O1 2.366126 1_555
Cu2 N2 1.967861 1_555
Cu2 O0 1.988561 1_565
Cu2 O18 2.044181 1_555
Cu2 O15 2.062943 1_665
Cu2 O2 2.366126 1_654
Cu3 N3 1.967861 1_555
Cu3 O1 1.988561 1_545
Cu3 O19 2.044181 1_555
Cu3 O14 2.062943 1_545
Cu3 O3 2.366126 1_555
H0 N0 1.025971 1_555
H1 N1 1.025971 1_555
H2 N2 1.025971 1_555
H3 N3 1.025971 1_555
H4 N0 1.023214 1_655
H5 N1 1.023214 1_555
H6 N2 1.023214 1_455
H7 N3 1.023214 1_555
H8 N0 1.021579 1_555
H9 N1 1.021579 1_555
H10 N2 1.021579 1_555
H11 N3 1.021579 1_555
N4 O4 1.242228 1_555
N4 O8 1.246060 1_556
N4 O0 1.322974 1_556
N5 O5 1.242228 1_555
N5 O9 1.246060 1_555
N5 O1 1.322974 1_555
N6 O6 1.242228 1_555
N6 O10 1.246060 1_554
N6 O2 1.322974 1_554
N7 O7 1.242228 1_555
N7 O11 1.246060 1_555
N7 O3 1.322974 1_555
N8 O20 1.235177 1_555
N8 O16 1.286078 1_555
N8 O12 1.286752 1_555
N9 O21 1.235177 1_655
N9 O17 1.286078 1_555
N9 O13 1.286752 1_555
N10 O22 1.235177 1_555
N10 O18 1.286078 1_555
N10 O14 1.286752 1_555
N11 O23 1.235177 1_455
N11 O19 1.286078 1_555
N11 O15 1.286752 1_555
