# generated using pymatgen
data_Li2CoP2O7
_symmetry_space_group_name_H-M   'P 1'
_cell_length_a   5.23377470
_cell_length_b   5.23377470
_cell_length_c   11.53629031
_cell_angle_alpha   84.46071738
_cell_angle_beta   84.46071738
_cell_angle_gamma   55.25606360
_symmetry_Int_Tables_number   1
_chemical_formula_structural   Li2CoP2O7
_chemical_formula_sum   'Li4 Co2 P4 O14'
_cell_volume   258.11920063
_cell_formula_units_Z   2
loop_
 _symmetry_equiv_pos_site_id
 _symmetry_equiv_pos_as_xyz
  1  'x, y, z'
loop_
 _atom_site_type_symbol
 _atom_site_label
 _atom_site_symmetry_multiplicity
 _atom_site_fract_x
 _atom_site_fract_y
 _atom_site_fract_z
 _atom_site_occupancy
  Li  Li0  1  0.62385200  0.07954200  0.66085200  1
  Li  Li1  1  0.92045800  0.37614800  0.83914800  1
  Li  Li2  1  0.07954200  0.62385200  0.16085200  1
  Li  Li3  1  0.37614800  0.92045800  0.33914800  1
  Co  Co0  1  0.00000000  0.50000000  0.50000000  1
  Co  Co1  1  0.50000000  0.00000000  0.00000000  1
  P  P0  1  0.65467800  0.24078700  0.37273700  1
  P  P1  1  0.75921300  0.34532200  0.12726300  1
  P  P2  1  0.24078700  0.65467800  0.87273700  1
  P  P3  1  0.34532200  0.75921300  0.62726300  1
  O  O0  1  0.31797900  0.50123500  0.59524500  1
  O  O1  1  0.65012900  0.67196200  0.16044800  1
  O  O2  1  0.04317100  0.19993500  0.04560600  1
  O  O3  1  0.49876500  0.68202100  0.90475500  1
  O  O4  1  0.88778000  0.11222000  0.25000000  1
  O  O5  1  0.80006500  0.95682900  0.45439400  1
  O  O6  1  0.32803800  0.34987100  0.33955200  1
  O  O7  1  0.67196200  0.65012900  0.66044800  1
  O  O8  1  0.19993500  0.04317100  0.54560600  1
  O  O9  1  0.11222000  0.88778000  0.75000000  1
  O  O10  1  0.50123500  0.31797900  0.09524500  1
  O  O11  1  0.95682900  0.80006500  0.95439400  1
  O  O12  1  0.34987100  0.32803800  0.83955200  1
  O  O13  1  0.68202100  0.49876500  0.40475500  1
loop_
_geom_bond_atom_site_label_1
_geom_bond_atom_site_label_2
_geom_bond_distance
_geom_bond_site_symmetry_2
Li0 O0 1.972537 1_555
Li0 O7 2.114528 1_545
Li0 O12 2.412226 1_555
Li0 O9 2.445890 1_645
Li0 O5 2.476274 1_545
Li1 O3 1.972537 1_555
Li1 O12 2.114528 1_655
Li1 O7 2.412226 1_555
Li1 O9 2.445890 1_645
Li1 O2 2.476274 1_656
Li2 O10 1.972537 1_555
Li2 O1 2.114528 1_455
Li2 O6 2.412226 1_555
Li2 O4 2.445890 1_465
Li2 O11 2.476274 1_454
Li3 O13 1.972537 1_555
Li3 O6 2.114528 1_565
Li3 O1 2.412226 1_555
Li3 O4 2.445890 1_465
Li3 O8 2.476274 1_565
Co0 O5 2.024867 1_455
Co0 O8 2.024867 1_555
Co0 O0 2.084147 1_555
Co0 O13 2.084147 1_455
Co0 O7 2.262916 1_455
Co0 O6 2.262916 1_555
Co1 O11 2.024867 1_544
Co1 O2 2.024867 1_555
Co1 O10 2.084147 1_555
Co1 O3 2.084147 1_544
Co1 O1 2.262916 1_545
Co1 O12 2.262916 1_554
O0 P3 1.518774 1_555
O1 P1 1.538431 1_555
O2 P1 1.501411 1_455
O3 P2 1.518774 1_555
O4 P1 1.691384 1_555
O4 P0 1.691384 1_555
O5 P0 1.501411 1_565
O6 P0 1.538431 1_555
O7 P3 1.538431 1_555
O8 P3 1.501411 1_545
O9 P3 1.691384 1_555
O9 P2 1.691384 1_555
O10 P1 1.518774 1_555
O11 P2 1.501411 1_655
O12 P2 1.538431 1_555
O13 P0 1.518774 1_555
