# generated using pymatgen
data_Li3FeNi3O8
_symmetry_space_group_name_H-M   'P 1'
_cell_length_a   5.77578291
_cell_length_b   5.78132240
_cell_length_c   9.42853461
_cell_angle_alpha   89.73996507
_cell_angle_beta   89.92309481
_cell_angle_gamma   60.05036372
_symmetry_Int_Tables_number   1
_chemical_formula_structural   Li3FeNi3O8
_chemical_formula_sum   'Li6 Fe2 Ni6 O16'
_cell_volume   272.78993474
_cell_formula_units_Z   2
loop_
 _symmetry_equiv_pos_site_id
 _symmetry_equiv_pos_as_xyz
  1  'x, y, z'
loop_
 _atom_site_type_symbol
 _atom_site_label
 _atom_site_symmetry_multiplicity
 _atom_site_fract_x
 _atom_site_fract_y
 _atom_site_fract_z
 _atom_site_occupancy
  Li  Li0  1  0.16879700  0.16838500  0.44832300  1
  Li  Li1  1  0.16788300  0.66488000  0.44889200  1
  Li  Li2  1  0.66519900  0.16704300  0.44845700  1
  Li  Li3  1  0.33663100  0.83183400  0.94807100  1
  Li  Li4  1  0.83367400  0.33313600  0.94823800  1
  Li  Li5  1  0.83198000  0.83243500  0.94828200  1
  Fe  Fe0  1  0.33383800  0.33203500  0.98611900  1
  Fe  Fe1  1  0.66646300  0.66844300  0.48512200  1
  Ni  Ni0  1  0.16859400  0.16981200  0.71331400  1
  Ni  Ni1  1  0.16910900  0.66192300  0.71397900  1
  Ni  Ni2  1  0.66190400  0.16906600  0.71320800  1
  Ni  Ni3  1  0.33700800  0.83091000  0.21424900  1
  Ni  Ni4  1  0.83002600  0.33812300  0.21411100  1
  Ni  Ni5  1  0.83002500  0.83132400  0.21388700  1
  O  O0  1  0.99639500  0.99561800  0.31239900  1
  O  O1  1  0.99759900  0.00304200  0.81080800  1
  O  O2  1  0.16653400  0.16379400  0.08875500  1
  O  O3  1  0.03275500  0.48340400  0.85306900  1
  O  O4  1  0.16662800  0.66815000  0.08833200  1
  O  O5  1  0.33533200  0.33073900  0.60633400  1
  O  O6  1  0.48181600  0.03418300  0.85077800  1
  O  O7  1  0.48420800  0.48152200  0.85292300  1
  O  O8  1  0.33073300  0.83538200  0.58772900  1
  O  O9  1  0.67124000  0.16144600  0.08845300  1
  O  O10  1  0.51564600  0.51752000  0.35286800  1
  O  O11  1  0.66817000  0.67236000  0.10749100  1
  O  O12  1  0.51577600  0.96799100  0.35174800  1
  O  O13  1  0.83672400  0.32980300  0.58803100  1
  O  O14  1  0.96504800  0.52099200  0.35125900  1
  O  O15  1  0.83387200  0.83509500  0.58910400  1
loop_
_geom_bond_atom_site_label_1
_geom_bond_atom_site_label_2
_geom_bond_distance
_geom_bond_site_symmetry_2
Li0 O12 1.968265 1_545
Li0 O14 1.992156 1_455
Li0 O8 2.119255 1_545
Li0 O13 2.121764 1_455
Li0 O0 2.153995 1_445
Li0 O5 2.223452 1_555
Li1 O10 1.968119 1_555
Li1 O14 1.973520 1_455
Li1 O0 2.093668 1_455
Li1 O8 2.123837 1_555
Li1 O15 2.132413 1_455
Li1 O5 2.232281 1_555
Li2 O10 1.975331 1_555
Li2 O12 1.975815 1_545
Li2 O0 2.097408 1_545
Li2 O15 2.122301 1_545
Li2 O13 2.131717 1_555
Li2 O5 2.224003 1_555
Li3 O6 1.969998 1_565
Li3 O7 1.980866 1_555
Li3 O4 2.126368 1_556
Li3 O2 2.131868 1_566
Li3 O1 2.132840 1_465
Li3 O11 2.237972 1_556
Li4 O3 1.967128 1_655
Li4 O7 1.971451 1_555
Li4 O1 2.105326 1_555
Li4 O2 2.127348 1_656
Li4 O9 2.127852 1_556
Li4 O11 2.272780 1_556
Li5 O3 1.974752 1_655
Li5 O6 1.983900 1_565
Li5 O9 2.117289 1_566
Li5 O1 2.120168 1_565
Li5 O4 2.131693 1_656
Li5 O11 2.205170 1_556
Fe0 O2 1.934858 1_556
Fe0 O4 1.943742 1_556
Fe0 O9 1.943883 1_556
Fe0 O7 1.953204 1_555
Fe0 O3 1.959590 1_555
Fe0 O6 1.967626 1_555
Fe1 O8 1.939672 1_555
Fe1 O15 1.940536 1_555
Fe1 O13 1.950491 1_555
Fe1 O12 1.953497 1_555
Fe1 O14 1.956993 1_555
Fe1 O10 1.961303 1_555
Ni0 O1 1.921007 1_455
Ni0 O5 1.921963 1_555
Ni0 O6 2.036715 1_555
Ni0 O13 2.037379 1_455
Ni0 O8 2.056014 1_545
Ni0 O3 2.058493 1_555
Ni1 O1 1.940963 1_465
Ni1 O5 1.948699 1_555
Ni1 O15 2.048786 1_455
Ni1 O3 2.049815 1_555
Ni1 O8 2.053027 1_555
Ni1 O7 2.053027 1_555
Ni2 O1 1.914685 1_555
Ni2 O5 1.919124 1_555
Ni2 O6 2.041935 1_555
Ni2 O15 2.046029 1_545
Ni2 O13 2.049333 1_555
Ni2 O7 2.053920 1_555
Ni3 O11 1.940236 1_555
Ni3 O0 1.940633 1_455
Ni3 O2 2.040507 1_565
Ni3 O10 2.042299 1_555
Ni3 O4 2.049672 1_555
Ni3 O12 2.050568 1_555
Ni4 O0 1.946527 1_545
Ni4 O11 1.949262 1_555
Ni4 O10 2.051809 1_555
Ni4 O14 2.058244 1_555
Ni4 O9 2.058478 1_555
Ni4 O2 2.058895 1_655
Ni5 O11 1.895671 1_555
Ni5 O0 1.899998 1_555
Ni5 O14 2.022189 1_555
Ni5 O9 2.029052 1_565
Ni5 O12 2.044326 1_555
Ni5 O4 2.060033 1_655
