# generated using pymatgen
data_LiSn(PO3)4
_symmetry_space_group_name_H-M   'P 1'
_cell_length_a   7.57970908
_cell_length_b   7.59621067
_cell_length_c   10.23179269
_cell_angle_alpha   80.35477484
_cell_angle_beta   71.70125780
_cell_angle_gamma   110.47924445
_symmetry_Int_Tables_number   1
_chemical_formula_structural   LiSn(PO3)4
_chemical_formula_sum   'Li2 Sn2 P8 O24'
_cell_volume   497.84103728
_cell_formula_units_Z   2
loop_
 _symmetry_equiv_pos_site_id
 _symmetry_equiv_pos_as_xyz
  1  'x, y, z'
loop_
 _atom_site_type_symbol
 _atom_site_label
 _atom_site_symmetry_multiplicity
 _atom_site_fract_x
 _atom_site_fract_y
 _atom_site_fract_z
 _atom_site_occupancy
  Li  Li0  1  0.24527200  0.99876900  0.75219100  1
  Li  Li1  1  0.75570300  0.99841000  0.25084000  1
  Sn  Sn0  1  0.99820100  0.49935300  0.00087400  1
  Sn  Sn1  1  0.99744200  0.99865000  0.50075700  1
  P  P0  1  0.99647700  0.68285600  0.30863300  1
  P  P1  1  0.26753500  0.72610400  0.47575800  1
  P  P2  1  0.70024900  0.74364700  0.02375600  1
  P  P3  1  0.50547900  0.69258900  0.81146500  1
  P  P4  1  0.48997900  0.30596600  0.18960100  1
  P  P5  1  0.29673200  0.25431500  0.97803200  1
  P  P6  1  0.73408000  0.27616700  0.52288400  1
  P  P7  1  0.00727300  0.32004600  0.68950500  1
  O  O0  1  0.03818900  0.65810000  0.16140600  1
  O  O1  1  0.13290300  0.80206700  0.57334900  1
  O  O2  1  0.18606600  0.68535400  0.34799800  1
  O  O3  1  0.49331900  0.83617800  0.40856600  1
  O  O4  1  0.30710800  0.71235000  0.82628000  1
  O  O5  1  0.20997600  0.50380000  0.56744000  1
  O  O6  1  0.12271300  0.29070700  0.07647600  1
  O  O7  1  0.74175100  0.90164300  0.09080000  1
  O  O8  1  0.56794200  0.77538900  0.93244900  1
  O  O9  1  0.67826300  0.79525600  0.66443600  1
  O  O10  1  0.52911700  0.53315100  0.14754600  1
  O  O11  1  0.04342400  0.13804300  0.67323600  1
  O  O12  1  0.96231900  0.86628800  0.32333300  1
  O  O13  1  0.46293100  0.46472100  0.85250800  1
  O  O14  1  0.31754000  0.19990800  0.33642500  1
  O  O15  1  0.43124200  0.22246300  0.06762600  1
  O  O16  1  0.25626400  0.09772300  0.90997500  1
  O  O17  1  0.87710000  0.70823900  0.92787300  1
  O  O18  1  0.79422300  0.50002500  0.43167300  1
  O  O19  1  0.69037400  0.29125500  0.17518700  1
  O  O20  1  0.50798800  0.16821400  0.59441500  1
  O  O21  1  0.82178200  0.32036600  0.64684400  1
  O  O22  1  0.86352800  0.19691300  0.42461900  1
  O  O23  1  0.96167600  0.34268200  0.83757600  1
loop_
_geom_bond_atom_site_label_1
_geom_bond_atom_site_label_2
_geom_bond_distance
_geom_bond_site_symmetry_2
Li0 O16 1.904093 1_565
Li0 O20 1.928661 1_565
Li0 O11 2.394779 1_565
Li0 O4 2.431459 1_555
Li1 O3 1.918743 1_555
Li1 O7 1.921088 1_555
Li1 O12 2.364291 1_555
Li1 O19 2.495454 1_565
Li1 O22 2.655518 1_565
Li1 O6 2.661868 1_665
O0 P0 1.497335 1_455
O0 Sn0 2.228114 1_455
O1 P1 1.528609 1_555
O1 Sn1 2.239616 1_455
O2 P0 1.604548 1_455
O2 P1 1.641546 1_555
O3 P1 1.472367 1_555
O4 P3 1.526022 1_555
O4 Sn0 2.246206 1_456
O5 P7 1.605936 1_555
O5 P1 1.618205 1_555
O6 P5 1.531326 1_554
O6 Sn0 2.257275 1_455
O7 P2 1.468721 1_555
O8 P3 1.603952 1_555
O8 P2 1.618231 1_556
O9 P3 1.497172 1_555
O9 Sn1 2.240086 1_555
O10 P4 1.601291 1_555
O10 P2 1.637649 1_555
O11 P7 1.525697 1_555
O11 Sn1 2.260804 1_445
O12 P0 1.526236 1_555
O12 Sn1 2.259462 1_555
O13 P3 1.599142 1_555
O13 P5 1.636549 1_555
O14 P4 1.496281 1_555
O14 Sn1 2.243319 1_445
O15 P4 1.604583 1_555
O15 P5 1.619738 1_554
O16 P5 1.466385 1_555
O17 P2 1.531863 1_556
O17 Sn0 2.229518 1_556
O18 P0 1.605080 1_555
O18 P6 1.621425 1_555
O19 P4 1.524805 1_555
O19 Sn0 2.232732 1_555
O20 P6 1.474067 1_555
O21 P7 1.598339 1_655
O21 P6 1.636843 1_555
O22 P6 1.527328 1_555
O22 Sn1 2.253533 1_545
O23 P7 1.498137 1_655
O23 Sn0 2.238507 1_556
