# generated using pymatgen
data_Li4V2SiO8
_symmetry_space_group_name_H-M   'P 1'
_cell_length_a   10.93360300
_cell_length_b   8.27377000
_cell_length_c   8.27910117
_cell_angle_alpha   76.90208973
_cell_angle_beta   90.00000000
_cell_angle_gamma   90.00000000
_symmetry_Int_Tables_number   1
_chemical_formula_structural   Li4V2SiO8
_chemical_formula_sum   'Li16 V8 Si4 O32'
_cell_volume   729.46063524
_cell_formula_units_Z   4
loop_
 _symmetry_equiv_pos_site_id
 _symmetry_equiv_pos_as_xyz
  1  'x, y, z'
loop_
 _atom_site_type_symbol
 _atom_site_label
 _atom_site_symmetry_multiplicity
 _atom_site_fract_x
 _atom_site_fract_y
 _atom_site_fract_z
 _atom_site_occupancy
  Li  Li0  1  0.66886400  0.39950000  0.09631100  1
  Li  Li1  1  0.16626200  0.33708000  0.16250900  1
  Li  Li2  1  0.33677400  0.85664900  0.15727900  1
  Li  Li3  1  0.42162100  0.53524500  0.21899600  1
  Li  Li4  1  0.92162100  0.46475500  0.28100400  1
  Li  Li5  1  0.83677400  0.14335100  0.34272100  1
  Li  Li6  1  0.66626200  0.66292000  0.33749100  1
  Li  Li7  1  0.16886400  0.60050000  0.40368900  1
  Li  Li8  1  0.83113600  0.39950000  0.59631100  1
  Li  Li9  1  0.33373800  0.33708000  0.66250900  1
  Li  Li10  1  0.16322600  0.85664900  0.65727900  1
  Li  Li11  1  0.07837900  0.53524500  0.71899600  1
  Li  Li12  1  0.57837900  0.46475500  0.78100400  1
  Li  Li13  1  0.66322600  0.14335100  0.84272100  1
  Li  Li14  1  0.83373800  0.66292000  0.83749100  1
  Li  Li15  1  0.33113600  0.60050000  0.90368900  1
  V  V0  1  0.41067000  0.23563200  0.04186400  1
  V  V1  1  0.08695000  0.71219600  0.03095600  1
  V  V2  1  0.58695000  0.28780400  0.46904400  1
  V  V3  1  0.08933000  0.23563200  0.54186400  1
  V  V4  1  0.91067000  0.76436800  0.45813600  1
  V  V5  1  0.41305000  0.71219600  0.53095600  1
  V  V6  1  0.91305000  0.28780400  0.96904400  1
  V  V7  1  0.58933000  0.76436800  0.95813600  1
  Si  Si0  1  0.83412700  0.91026900  0.08624900  1
  Si  Si1  1  0.33412700  0.08973100  0.41375100  1
  Si  Si2  1  0.66587300  0.91026900  0.58624900  1
  Si  Si3  1  0.16587300  0.08973100  0.91375100  1
  O  O0  1  0.08135100  0.22064300  0.99141200  1
  O  O1  1  0.33388300  0.40317700  0.09067200  1
  O  O2  1  0.38579200  0.05786800  0.23625200  1
  O  O3  1  0.43688100  0.74185900  0.02050200  1
  O  O4  1  0.84281400  0.33510700  0.14245400  1
  O  O5  1  0.17281000  0.90879100  0.04860500  1
  O  O6  1  0.69530100  0.83100200  0.11687200  1
  O  O7  1  0.08848700  0.54552800  0.20794800  1
  O  O8  1  0.58848700  0.45447200  0.29205200  1
  O  O9  1  0.19530100  0.16899800  0.38312800  1
  O  O10  1  0.67281000  0.09120900  0.45139500  1
  O  O11  1  0.34281400  0.66489300  0.35754600  1
  O  O12  1  0.93688100  0.25814100  0.47949800  1
  O  O13  1  0.88579200  0.94213200  0.26374800  1
  O  O14  1  0.41864900  0.22064300  0.49141200  1
  O  O15  1  0.83388300  0.59682300  0.40932800  1
  O  O16  1  0.16611700  0.40317700  0.59067200  1
  O  O17  1  0.58135100  0.77935700  0.50858800  1
  O  O18  1  0.11420800  0.05786800  0.73625200  1
  O  O19  1  0.06311900  0.74185900  0.52050200  1
  O  O20  1  0.65718600  0.33510700  0.64245400  1
  O  O21  1  0.32719000  0.90879100  0.54860500  1
  O  O22  1  0.80469900  0.83100200  0.61687200  1
  O  O23  1  0.41151300  0.54552800  0.70794800  1
  O  O24  1  0.91151300  0.45447200  0.79205200  1
  O  O25  1  0.30469900  0.16899800  0.88312800  1
  O  O26  1  0.82719000  0.09120900  0.95139500  1
  O  O27  1  0.15718600  0.66489300  0.85754600  1
  O  O28  1  0.56311900  0.25814100  0.97949800  1
  O  O29  1  0.61420800  0.94213200  0.76374800  1
  O  O30  1  0.66611700  0.59682300  0.90932800  1
  O  O31  1  0.91864900  0.77935700  0.00858800  1
loop_
_geom_bond_atom_site_label_1
_geom_bond_atom_site_label_2
_geom_bond_distance
_geom_bond_site_symmetry_2
Li0 O30 1.979214 1_554
Li0 O8 1.984805 1_555
Li0 O4 1.988659 1_555
Li0 O28 2.037789 1_554
Li1 O1 1.965750 1_555
Li1 O7 2.033006 1_555
Li1 O9 2.054196 1_555
Li1 O0 2.101199 1_554
Li2 O3 1.967172 1_555
Li2 O2 1.994934 1_565
Li2 O5 2.008365 1_555
Li2 O11 2.019482 1_555
Li3 O11 1.940750 1_555
Li3 O1 1.941417 1_555
Li3 O8 1.989436 1_555
Li3 O3 2.092248 1_555
Li4 O4 1.940750 1_555
Li4 O15 1.941417 1_555
Li4 O7 1.989436 1_655
Li4 O12 2.092248 1_555
Li5 O12 1.967172 1_555
Li5 O13 1.994934 1_545
Li5 O10 2.008365 1_555
Li5 O4 2.019482 1_555
Li6 O15 1.965750 1_555
Li6 O8 2.033006 1_555
Li6 O6 2.054196 1_555
Li6 O17 2.101199 1_555
Li7 O16 1.979214 1_555
Li7 O7 1.984805 1_555
Li7 O11 1.988659 1_555
Li7 O19 2.037789 1_555
Li8 O15 1.979214 1_555
Li8 O24 1.984805 1_555
Li8 O20 1.988659 1_555
Li8 O12 2.037789 1_555
Li9 O16 1.965750 1_555
Li9 O23 2.033006 1_555
Li9 O25 2.054196 1_555
Li9 O14 2.101199 1_555
Li10 O19 1.967172 1_555
Li10 O18 1.994934 1_565
Li10 O21 2.008365 1_555
Li10 O27 2.019482 1_555
Li11 O27 1.940750 1_555
Li11 O16 1.941417 1_555
Li11 O24 1.989436 1_455
Li11 O19 2.092248 1_555
Li12 O20 1.940750 1_555
Li12 O30 1.941417 1_555
Li12 O23 1.989436 1_555
Li12 O28 2.092248 1_555
Li13 O28 1.967172 1_555
Li13 O29 1.994934 1_545
Li13 O26 2.008365 1_555
Li13 O20 2.019482 1_555
Li14 O30 1.965750 1_555
Li14 O24 2.033006 1_555
Li14 O22 2.054196 1_555
Li14 O31 2.101199 1_556
Li15 O1 1.979214 1_556
Li15 O23 1.984805 1_555
Li15 O27 1.988659 1_555
Li15 O3 2.037789 1_556
O0 Si3 1.660192 1_555
O0 V6 1.918992 1_455
O1 V0 1.744607 1_555
O2 Si1 1.650365 1_555
O2 V0 1.937629 1_555
O3 V7 1.742407 1_554
O4 V6 1.748923 1_554
O5 Si3 1.654054 1_564
O5 V1 1.912095 1_555
O6 Si0 1.650140 1_555
O6 V7 1.924028 1_554
O7 V1 1.770093 1_555
O8 V2 1.770093 1_555
O9 Si1 1.650140 1_555
O9 V3 1.924028 1_555
O10 Si2 1.654054 1_545
O10 V2 1.912095 1_555
O11 V5 1.748923 1_555
O12 V3 1.742407 1_655
O13 Si0 1.650365 1_555
O13 V4 1.937629 1_555
O14 Si1 1.660192 1_555
O14 V2 1.918992 1_555
O15 V4 1.744607 1_555
O16 V3 1.744607 1_555
O17 Si2 1.660192 1_555
O17 V5 1.918992 1_555
O18 Si3 1.650365 1_555
O18 V3 1.937629 1_555
O19 V4 1.742407 1_455
O20 V2 1.748923 1_555
O21 Si1 1.654054 1_565
O21 V5 1.912095 1_555
O22 Si2 1.650140 1_555
O22 V4 1.924028 1_555
O23 V5 1.770093 1_555
O24 V6 1.770093 1_555
O25 Si3 1.650140 1_555
O25 V0 1.924028 1_556
O26 Si0 1.654054 1_546
O26 V6 1.912095 1_555
O27 V1 1.748923 1_556
O28 V0 1.742407 1_556
O29 Si2 1.650365 1_555
O29 V7 1.937629 1_555
O30 V7 1.744607 1_555
O31 Si0 1.660192 1_555
O31 V1 1.918992 1_655
