# generated using pymatgen
data_BaNiS2
_symmetry_space_group_name_H-M   'P 1'
_cell_length_a   4.42091300
_cell_length_b   4.42091300
_cell_length_c   8.97257100
_cell_angle_alpha   90.00000000
_cell_angle_beta   90.00000000
_cell_angle_gamma   90.00000000
_symmetry_Int_Tables_number   1
_chemical_formula_structural   BaNiS2
_chemical_formula_sum   'Ba2 Ni2 S4'
_cell_volume   175.36416047
_cell_formula_units_Z   2
loop_
 _symmetry_equiv_pos_site_id
 _symmetry_equiv_pos_as_xyz
  1  'x, y, z'
loop_
 _atom_site_type_symbol
 _atom_site_label
 _atom_site_symmetry_multiplicity
 _atom_site_fract_x
 _atom_site_fract_y
 _atom_site_fract_z
 _atom_site_occupancy
  Ba  Ba0  1  0.00000000  0.50000000  0.19783600  1
  Ba  Ba1  1  0.50000000  0.00000000  0.80216400  1
  Ni  Ni0  1  0.50000000  0.00000000  0.41492800  1
  Ni  Ni1  1  0.00000000  0.50000000  0.58507200  1
  S  S0  1  0.50000000  0.50000000  0.50000000  1
  S  S1  1  0.00000000  0.00000000  0.50000000  1
  S  S2  1  0.50000000  0.00000000  0.15763600  1
  S  S3  1  0.00000000  0.50000000  0.84236400  1
loop_
_geom_bond_atom_site_label_1
_geom_bond_atom_site_label_2
_geom_bond_distance
_geom_bond_site_symmetry_2
Ba0 S2 3.146798 1_465
Ba0 S2 3.146798 1_455
Ba0 S2 3.146798 1_555
Ba0 S2 3.146798 1_565
Ba0 S3 3.189498 1_554
Ba1 S3 3.146798 1_545
Ba1 S3 3.146798 1_655
Ba1 S3 3.146798 1_645
Ba1 S3 3.146798 1_555
Ba1 S2 3.189498 1_556
Ni0 S2 2.308571 1_555
Ni0 S1 2.338540 1_655
Ni0 S1 2.338540 1_555
Ni0 S0 2.338540 1_555
Ni0 S0 2.338540 1_545
Ni1 S3 2.308571 1_555
Ni1 S1 2.338540 1_565
Ni1 S0 2.338540 1_455
Ni1 S1 2.338540 1_555
Ni1 S0 2.338540 1_555
