# generated using pymatgen
data_Li4MnCu3O8
_symmetry_space_group_name_H-M   'P 1'
_cell_length_a   10.19519309
_cell_length_b   10.19984168
_cell_length_c   14.40890928
_cell_angle_alpha   19.50716090
_cell_angle_beta   19.51106853
_cell_angle_gamma   33.66641161
_symmetry_Int_Tables_number   1
_chemical_formula_structural   Li4MnCu3O8
_chemical_formula_sum   'Li4 Mn1 Cu3 O8'
_cell_volume   144.34696574
_cell_formula_units_Z   1
loop_
 _symmetry_equiv_pos_site_id
 _symmetry_equiv_pos_as_xyz
  1  'x, y, z'
loop_
 _atom_site_type_symbol
 _atom_site_label
 _atom_site_symmetry_multiplicity
 _atom_site_fract_x
 _atom_site_fract_y
 _atom_site_fract_z
 _atom_site_occupancy
  Li  Li0  1  0.99999700  0.99999900  0.50000300  1
  Li  Li1  1  0.99999900  0.49999900  0.50000100  1
  Li  Li2  1  0.49999900  0.00000000  0.50000000  1
  Li  Li3  1  0.49999800  0.49999900  0.50000200  1
  Mn  Mn0  1  0.00001800  0.00000900  0.99998100  1
  Cu  Cu0  1  0.99999900  0.50000000  0.00000200  1
  Cu  Cu1  1  0.49999900  0.99999800  0.00000300  1
  Cu  Cu2  1  0.50000000  0.50000400  0.99999800  1
  O  O0  1  0.99999300  0.00021000  0.26061500  1
  O  O1  1  0.99737100  0.52993500  0.23842700  1
  O  O2  1  0.52974000  0.99733900  0.23853700  1
  O  O3  1  0.00000500  0.99978900  0.73938600  1
  O  O4  1  0.47013400  0.47021500  0.29505600  1
  O  O5  1  0.00262600  0.47006100  0.76157900  1
  O  O6  1  0.47025800  0.00266000  0.76146500  1
  O  O7  1  0.52986400  0.52978500  0.70494300  1
loop_
_geom_bond_atom_site_label_1
_geom_bond_atom_site_label_2
_geom_bond_distance
_geom_bond_site_symmetry_2
Li0 O4 2.201035 1_556
Li0 O7 2.201068 1_664
Li0 O6 2.225822 1_565
Li0 O2 2.225826 1_655
Li0 O1 2.228478 1_565
Li0 O5 2.228482 1_655
Li1 O4 2.090741 1_655
Li1 O7 2.090759 1_555
Li1 O6 2.096618 1_664
Li1 O2 2.096622 1_546
Li1 O0 2.179882 1_565
Li1 O3 2.179882 1_645
Li2 O4 2.092812 1_555
Li2 O7 2.092821 1_545
Li2 O5 2.096729 1_654
Li2 O1 2.096759 1_446
Li2 O3 2.177224 1_545
Li2 O0 2.177228 1_555
Li3 O5 2.095357 1_555
Li3 O1 2.095374 1_555
Li3 O6 2.096848 1_555
Li3 O2 2.096849 1_555
Li3 O0 2.167274 1_456
Li3 O3 2.167287 1_654
Mn0 O6 1.943245 1_555
Mn0 O2 1.943309 1_446
Mn0 O1 1.944007 1_446
Mn0 O5 1.944027 1_555
Mn0 O4 1.948216 1_555
Mn0 O7 1.948290 1_446
Cu0 O3 2.000059 1_654
Cu0 O0 2.000089 1_555
Cu0 O6 2.062298 1_555
Cu0 O2 2.062317 1_654
Cu0 O7 2.085831 1_654
Cu0 O4 2.085869 1_555
Cu1 O3 1.999413 1_654
Cu1 O0 1.999440 1_465
Cu1 O5 2.062313 1_555
Cu1 O1 2.062317 1_564
Cu1 O7 2.087161 1_564
Cu1 O4 2.087184 1_555
Cu2 O3 1.989780 1_546
Cu2 O0 1.989782 1_565
Cu2 O1 2.083408 1_456
Cu2 O5 2.083418 1_655
Cu2 O6 2.085171 1_565
Cu2 O2 2.085204 1_546
