# generated using pymatgen
data_Li2(TaS2)3
_symmetry_space_group_name_H-M   'P 1'
_cell_length_a   5.79707249
_cell_length_b   5.79707542
_cell_length_c   12.90167431
_cell_angle_alpha   89.99994304
_cell_angle_beta   89.99999380
_cell_angle_gamma   119.99986731
_symmetry_Int_Tables_number   1
_chemical_formula_structural   Li2(TaS2)3
_chemical_formula_sum   'Li4 Ta6 S12'
_cell_volume   375.48705410
_cell_formula_units_Z   2
loop_
 _symmetry_equiv_pos_site_id
 _symmetry_equiv_pos_as_xyz
  1  'x, y, z'
loop_
 _atom_site_type_symbol
 _atom_site_label
 _atom_site_symmetry_multiplicity
 _atom_site_fract_x
 _atom_site_fract_y
 _atom_site_fract_z
 _atom_site_occupancy
  Li  Li0  1  -0.00000092  -0.00000049  0.24999037  1
  Li  Li1  1  -0.00000044  -0.00000090  0.75001046  1
  Li  Li2  1  0.33333729  0.66666841  0.25000680  1
  Li  Li3  1  0.66666804  0.33333702  0.74999304  1
  Ta  Ta0  1  0.00000060  0.00000047  -0.00000344  1
  Ta  Ta1  1  -0.00000121  -0.00000247  0.50000374  1
  Ta  Ta2  1  0.33333190  0.66666491  0.50077482  1
  Ta  Ta3  1  0.33333405  0.66666783  0.99922830  1
  Ta  Ta4  1  0.66666772  0.33333427  0.00084108  1
  Ta  Ta5  1  0.66666407  0.33333096  0.49916050  1
  S  S0  1  0.00036109  0.33406406  0.87944733  1
  S  S1  1  0.99959913  0.33369676  0.12062723  1
  S  S2  1  0.00036999  0.66630076  0.62055750  1
  S  S3  1  0.99958306  0.66589297  0.37936691  1
  S  S4  1  0.33370452  0.99964204  0.87944673  1
  S  S5  1  0.33369636  0.33406751  0.62055759  1
  S  S6  1  0.33410315  0.33368795  0.37936636  1
  S  S7  1  0.33409825  0.00040348  0.12062649  1
  S  S8  1  0.66593936  0.66629988  0.87944680  1
  S  S9  1  0.66630754  0.66590432  0.12062706  1
  S  S10  1  0.66592776  0.99962649  0.62055705  1
  S  S11  1  0.66630771  0.00041277  0.37936627  1
loop_
_geom_bond_atom_site_label_1
_geom_bond_atom_site_label_2
_geom_bond_distance
_geom_bond_site_symmetry_2
Li0 S9 2.555810 1_445
Li0 S1 2.555820 1_455
Li0 S7 2.555826 1_555
Li0 S6 2.555929 1_555
Li0 S11 2.555931 1_455
Li0 S3 2.555939 1_445
Li1 S8 2.556362 1_445
Li1 S4 2.556376 1_545
Li1 S0 2.556386 1_555
Li1 S5 2.556514 1_555
Li1 S2 2.556519 1_545
Li1 S10 2.556530 1_445
Li2 S11 2.553427 1_565
Li2 S6 2.553449 1_555
Li2 S3 2.553468 1_455
Li2 S9 2.553571 1_555
Li2 S7 2.553585 1_565
Li2 S1 2.553586 1_455
Li3 S2 2.553958 1_655
Li3 S5 2.553973 1_555
Li3 S10 2.553995 1_545
Li3 S8 2.554087 1_555
Li3 S4 2.554095 1_545
Li3 S0 2.554100 1_655
S0 Ta3 2.471845 1_555
S0 Ta0 2.482993 1_556
S0 Ta4 2.487335 1_456
S1 Ta4 2.471709 1_555
S1 Ta0 2.483716 1_655
S1 Ta3 2.487490 1_654
S2 Ta2 2.471815 1_555
S2 Ta1 2.483026 1_565
S2 Ta5 2.487409 1_455
S3 Ta5 2.471727 1_555
S3 Ta1 2.483764 1_665
S3 Ta2 2.487606 1_655
S4 Ta3 2.471847 1_555
S4 Ta0 2.482998 1_566
S4 Ta4 2.487342 1_566
S5 Ta2 2.471815 1_555
S5 Ta1 2.483038 1_555
S5 Ta5 2.487396 1_555
S6 Ta5 2.471725 1_555
S6 Ta1 2.483772 1_555
S6 Ta2 2.487611 1_555
S7 Ta4 2.471705 1_555
S7 Ta0 2.483704 1_555
S7 Ta3 2.487487 1_544
S8 Ta3 2.471848 1_555
S8 Ta0 2.482992 1_666
S8 Ta4 2.487345 1_556
S9 Ta4 2.471709 1_555
S9 Ta0 2.483704 1_665
S9 Ta3 2.487497 1_554
S10 Ta2 2.471811 1_555
S10 Ta1 2.483037 1_665
S10 Ta5 2.487393 1_565
S11 Ta5 2.471730 1_555
S11 Ta1 2.483777 1_655
S11 Ta2 2.487608 1_545
