# generated using pymatgen
data_Li3Fe5(PO4)6
_symmetry_space_group_name_H-M   'P 1'
_cell_length_a   7.95909300
_cell_length_b   8.40222406
_cell_length_c   8.85579680
_cell_angle_alpha   105.23321629
_cell_angle_beta   109.74219939
_cell_angle_gamma   108.56112608
_symmetry_Int_Tables_number   1
_chemical_formula_structural   Li3Fe5(PO4)6
_chemical_formula_sum   'Li3 Fe5 P6 O24'
_cell_volume   480.77207380
_cell_formula_units_Z   1
loop_
 _symmetry_equiv_pos_site_id
 _symmetry_equiv_pos_as_xyz
  1  'x, y, z'
loop_
 _atom_site_type_symbol
 _atom_site_label
 _atom_site_symmetry_multiplicity
 _atom_site_fract_x
 _atom_site_fract_y
 _atom_site_fract_z
 _atom_site_occupancy
  Li  Li0  1  0.31853700  0.80073700  0.29986700  1
  Li  Li1  1  0.70615800  0.05598100  0.00319300  1
  Li  Li2  1  0.06483400  0.23635100  0.52596400  1
  Fe  Fe0  1  0.82368400  0.28318800  0.84318800  1
  Fe  Fe1  1  0.55300800  0.59186900  0.23843200  1
  Fe  Fe2  1  0.22706900  0.98498000  0.03734400  1
  Fe  Fe3  1  0.49500100  0.47339700  0.68128100  1
  Fe  Fe4  1  0.99765500  0.68769200  0.45046100  1
  P  P0  1  0.84498400  0.74610400  0.07584100  1
  P  P1  1  0.65566600  0.28363600  0.41049400  1
  P  P2  1  0.72937800  0.84101700  0.61130000  1
  P  P3  1  0.34544900  0.09839700  0.74988300  1
  P  P4  1  0.24474000  0.60633600  0.88548500  1
  P  P5  1  0.14310200  0.40070500  0.25818600  1
  O  O0  1  0.90298700  0.80300400  0.60132200  1
  O  O1  1  0.62734200  0.33929500  0.58095400  1
  O  O2  1  0.82439600  0.70486000  0.23816000  1
  O  O3  1  0.70860200  0.45307500  0.35537900  1
  O  O4  1  0.81229800  0.04387200  0.73443500  1
  O  O5  1  0.45029100  0.12313300  0.25839100  1
  O  O6  1  0.72851000  0.54939400  0.91821400  1
  O  O7  1  0.81412400  0.22011700  0.43901700  1
  O  O8  1  0.27078300  0.10830900  0.89168800  1
  O  O9  1  0.31045200  0.23527200  0.67330900  1
  O  O10  1  0.58401600  0.80420700  0.42105700  1
  O  O11  1  0.40683900  0.67077600  0.07430200  1
  O  O12  1  0.20518500  0.77280000  0.87587600  1
  O  O13  1  0.94135400  0.27997000  0.08534800  1
  O  O14  1  0.57230300  0.15527000  0.84536200  1
  O  O15  1  0.24826200  0.90693300  0.59456700  1
  O  O16  1  0.30928300  0.41817700  0.20007300  1
  O  O17  1  0.76153400  0.87630900  0.04673400  1
  O  O18  1  0.30919700  0.55048200  0.74424700  1
  O  O19  1  0.05078700  0.44493800  0.84584000  1
  O  O20  1  0.61228700  0.70589100  0.66814300  1
  O  O21  1  0.07340300  0.83007600  0.12817000  1
  O  O22  1  0.14286400  0.59180100  0.33597300  1
  O  O23  1  0.18363900  0.32165200  0.39467300  1
loop_
_geom_bond_atom_site_label_1
_geom_bond_atom_site_label_2
_geom_bond_distance
_geom_bond_site_symmetry_2
Li0 O10 2.007400 1_555
Li0 O22 2.042894 1_555
Li0 O21 2.162940 1_555
Li0 O11 2.442809 1_555
Li1 O17 1.799065 1_545
Li1 O13 1.921709 1_555
Li1 O14 1.989266 1_554
Li2 O7 1.823936 1_455
Li2 O23 1.873189 1_555
Li2 O9 1.954111 1_555
Li2 O18 2.448812 1_555
Fe0 O19 1.872273 1_655
Fe0 O4 1.945865 1_555
Fe0 O14 1.956142 1_555
Fe0 O13 2.041213 1_556
Fe0 O1 2.578745 1_555
Fe0 O6 2.579903 1_555
Fe1 O16 1.870879 1_555
Fe1 O11 1.939261 1_555
Fe1 O10 1.947650 1_555
Fe1 O2 2.065462 1_555
Fe1 O3 2.157265 1_555
Fe2 O5 1.865289 1_565
Fe2 O12 1.883555 1_554
Fe2 O8 1.906501 1_564
Fe2 O21 2.009502 1_555
Fe3 O20 1.932060 1_555
Fe3 O18 1.973437 1_555
Fe3 O1 2.007529 1_555
Fe3 O9 2.037244 1_555
Fe3 O6 2.042140 1_555
Fe3 O23 2.499525 1_555
Fe4 O15 1.925162 1_655
Fe4 O0 1.938021 1_555
Fe4 O22 1.991982 1_655
Fe4 O2 1.993690 1_555
Fe4 O3 2.195357 1_555
O0 P2 1.538743 1_555
O1 P1 1.573002 1_555
O2 P0 1.611829 1_555
O3 P1 1.601492 1_555
O4 P2 1.533210 1_545
O5 P1 1.568288 1_555
O6 P0 1.574046 1_556
O7 P1 1.491093 1_555
O8 P3 1.554942 1_555
O9 P3 1.531738 1_555
O10 P2 1.566570 1_555
O11 P4 1.541352 1_554
O12 P4 1.545122 1_555
O13 P5 1.561049 1_655
O14 P3 1.552518 1_555
O15 P3 1.550619 1_565
O16 P5 1.552980 1_555
O17 P0 1.483095 1_555
O18 P4 1.525182 1_555
O19 P4 1.547963 1_555
O20 P2 1.534473 1_555
O21 P0 1.568476 1_455
O22 P5 1.572951 1_555
O23 P5 1.516941 1_555
