# generated using pymatgen
data_Li3V2P4(HO8)2
_symmetry_space_group_name_H-M   'P 1'
_cell_length_a   8.08562200
_cell_length_b   9.97687483
_cell_length_c   10.70573351
_cell_angle_alpha   90.09770849
_cell_angle_beta   90.03429484
_cell_angle_gamma   90.10832186
_symmetry_Int_Tables_number   1
_chemical_formula_structural   Li3V2P4(HO8)2
_chemical_formula_sum   'Li9 V6 P12 H6 O48'
_cell_volume   863.62041516
_cell_formula_units_Z   3
loop_
 _symmetry_equiv_pos_site_id
 _symmetry_equiv_pos_as_xyz
  1  'x, y, z'
loop_
 _atom_site_type_symbol
 _atom_site_label
 _atom_site_symmetry_multiplicity
 _atom_site_fract_x
 _atom_site_fract_y
 _atom_site_fract_z
 _atom_site_occupancy
  Li  Li0  1  0.13178400  0.23218700  0.07568700  1
  Li  Li1  1  0.86672600  0.09512900  0.25306200  1
  Li  Li2  1  0.36216600  0.73661100  0.08128200  1
  Li  Li3  1  0.63580300  0.60272600  0.25827900  1
  Li  Li4  1  0.12803500  0.56586300  0.41494900  1
  Li  Li5  1  0.36394000  0.40390700  0.74536600  1
  Li  Li6  1  0.63331500  0.26760100  0.92377100  1
  Li  Li7  1  0.63314600  0.93585900  0.58432500  1
  Li  Li8  1  0.12860500  0.89795700  0.74586100  1
  V  V0  1  0.49544700  0.16274600  0.17630000  1
  V  V1  1  0.00215500  0.00132400  0.49843200  1
  V  V2  1  0.99812000  0.67106700  0.16257400  1
  V  V3  1  0.50378300  0.49743100  0.50107300  1
  V  V4  1  0.99637600  0.33991600  0.82400300  1
  V  V5  1  0.50564500  0.82718800  0.83537600  1
  P  P0  1  0.84334900  0.36753500  0.12902300  1
  P  P1  1  0.34486800  0.46447500  0.20237600  1
  P  P2  1  0.65031900  0.19905800  0.46781500  1
  P  P3  1  0.14941600  0.30076100  0.53239300  1
  P  P4  1  0.84531100  0.03412400  0.80023500  1
  P  P5  1  0.65152100  0.86560500  0.13145700  1
  P  P6  1  0.34526200  0.13162100  0.87055600  1
  P  P7  1  0.15337900  0.96903100  0.19782800  1
  P  P8  1  0.84655100  0.70092900  0.46460300  1
  P  P9  1  0.34607500  0.79800400  0.53750500  1
  P  P10  1  0.65144000  0.53201400  0.80213400  1
  P  P11  1  0.15022500  0.63644200  0.86606700  1
  H  H0  1  0.49007900  0.50239100  0.01329700  1
  H  H1  1  0.99029200  0.33057100  0.32058000  1
  H  H2  1  0.49156100  0.16926300  0.67835200  1
  H  H3  1  0.48547900  0.83719900  0.35371900  1
  H  H4  1  0.98832600  0.66257900  0.64988400  1
  H  H5  1  0.98772900  0.99619100  0.98629600  1
  O  O0  1  0.05846900  0.04849600  0.09729400  1
  O  O1  1  0.66737200  0.01854700  0.16236400  1
  O  O2  1  0.32699500  0.03411600  0.21299300  1
  O  O3  1  0.95056800  0.35247000  0.00817700  1
  O  O4  1  0.67790300  0.29262500  0.10987000  1
  O  O5  1  0.32540800  0.31432200  0.16521700  1
  O  O6  1  0.94259300  0.28834700  0.23211800  1
  O  O7  1  0.54783600  0.18881600  0.33848600  1
  O  O8  1  0.81468500  0.12928500  0.43690100  1
  O  O9  1  0.43680400  0.54547300  0.09653800  1
  O  O10  1  0.82012100  0.51474000  0.16472100  1
  O  O11  1  0.16601300  0.15057900  0.50761100  1
  O  O12  1  0.56040300  0.12277800  0.57166200  1
  O  O13  1  0.17871100  0.53330500  0.22378800  1
  O  O14  1  0.95019700  0.01990700  0.68142300  1
  O  O15  1  0.45808800  0.47754700  0.31687000  1
  O  O16  1  0.54562300  0.85793200  0.00588600  1
  O  O17  1  0.06009100  0.37650300  0.42859200  1
  O  O18  1  0.82164000  0.80534900  0.11469600  1
  O  O19  1  0.66731500  0.34878400  0.49404100  1
  O  O20  1  0.17707400  0.81954700  0.16510300  1
  O  O21  1  0.31477700  0.37013000  0.56271600  1
  O  O22  1  0.54827100  0.78746200  0.22696900  1
  O  O23  1  0.04693600  0.31135300  0.66196700  1
  O  O24  1  0.95631300  0.68894300  0.34660600  1
  O  O25  1  0.44325300  0.21123000  0.76721400  1
  O  O26  1  0.67830600  0.63436200  0.44071000  1
  O  O27  1  0.82332800  0.18530600  0.83332500  1
  O  O28  1  0.32636600  0.64963100  0.50103100  1
  O  O29  1  0.17863000  0.20404500  0.88859400  1
  O  O30  1  0.94261200  0.62084400  0.56645000  1
  O  O31  1  0.45167000  0.14707800  0.99132600  1
  O  O32  1  0.54698400  0.51588700  0.68261700  1
  O  O33  1  0.04857900  0.98151700  0.31780800  1
  O  O34  1  0.82605700  0.47076300  0.78942900  1
  O  O35  1  0.45024300  0.87727000  0.43850700  1
  O  O36  1  0.82577500  0.85038100  0.50097700  1
  O  O37  1  0.17143400  0.48252400  0.83371300  1
  O  O38  1  0.55852500  0.45409600  0.90523500  1
  O  O39  1  0.18230400  0.86851500  0.56021700  1
  O  O40  1  0.45519300  0.81032700  0.65938100  1
  O  O41  1  0.06815700  0.71208900  0.76007400  1
  O  O42  1  0.66612400  0.68512300  0.82942800  1
  O  O43  1  0.32707300  0.69992400  0.88812300  1
  O  O44  1  0.05475000  0.64137400  0.98882600  1
  O  O45  1  0.67430200  0.96605500  0.78100500  1
  O  O46  1  0.32717100  0.98215300  0.83561100  1
  O  O47  1  0.94267700  0.95598300  0.90162600  1
loop_
_geom_bond_atom_site_label_1
_geom_bond_atom_site_label_2
_geom_bond_distance
_geom_bond_site_symmetry_2
Li0 O0 1.939348 1_555
Li0 O5 2.007953 1_555
Li0 O3 2.029225 1_455
Li0 O29 2.057566 1_554
Li0 O6 2.337040 1_455
Li1 O33 1.983706 1_645
Li1 O1 2.028732 1_555
Li1 O6 2.034653 1_555
Li1 O8 2.041071 1_555
Li1 O0 2.324689 1_655
Li2 O20 1.932213 1_555
Li2 O9 2.008152 1_555
Li2 O16 2.077245 1_555
Li2 O43 2.118267 1_554
Li2 O22 2.223952 1_555
Li3 O10 1.999650 1_555
Li3 O15 2.003733 1_555
Li3 O22 2.004245 1_555
Li3 O26 2.007198 1_555
Li3 O9 2.429683 1_555
Li4 O17 1.972158 1_555
Li4 O24 1.994836 1_455
Li4 O28 2.027295 1_555
Li4 O13 2.112080 1_555
Li4 O30 2.276470 1_455
Li5 O32 1.971652 1_555
Li5 O37 1.984041 1_555
Li5 O21 2.022744 1_555
Li5 O25 2.041391 1_555
Li5 O38 2.376192 1_555
Li6 O38 1.967844 1_555
Li6 O27 1.993988 1_555
Li6 O31 2.030665 1_555
Li6 O4 2.039307 1_556
Li6 O25 2.340420 1_555
Li7 O12 1.961369 1_565
Li7 O36 1.988329 1_555
Li7 O40 2.069428 1_555
Li7 O45 2.152134 1_555
Li7 O35 2.226350 1_555
Li8 O41 1.923121 1_555
Li8 O14 2.011328 1_465
Li8 O46 2.048624 1_555
Li8 O39 2.055312 1_555
Li8 O47 2.319268 1_455
H0 O9 1.079035 1_555
H0 O38 1.369926 1_554
H1 O6 1.104854 1_555
H1 O17 1.364582 1_655
H2 O25 1.110233 1_555
H2 O12 1.352577 1_555
H3 O35 1.031723 1_555
H3 O22 1.531276 1_555
H4 O30 1.051475 1_555
H4 O41 1.431134 1_655
H5 O47 1.055030 1_555
H5 O0 1.416866 1_666
O0 P7 1.542753 1_545
O1 P5 1.565796 1_545
O1 V0 2.007860 1_555
O2 P7 1.553887 1_545
O2 V0 1.911057 1_555
O3 P0 1.564963 1_555
O3 V4 2.010162 1_554
O4 P0 1.544507 1_555
O4 V0 2.087687 1_555
O5 P1 1.556982 1_555
O5 V0 2.049278 1_555
O6 P0 1.578158 1_555
O7 P2 1.616143 1_555
O7 V0 1.805285 1_555
O8 P2 1.537399 1_555
O8 V1 2.090561 1_655
O9 P1 1.578397 1_555
O10 P0 1.528877 1_555
O10 V2 2.120405 1_555
O11 P3 1.527380 1_555
O11 V1 1.993565 1_555
O12 P2 1.531506 1_555
O13 P1 1.527214 1_555
O13 V2 2.111922 1_455
O14 P4 1.535701 1_555
O14 V1 2.012162 1_655
O15 P1 1.534656 1_555
O15 V3 2.015509 1_555
O16 P5 1.595077 1_555
O16 V5 1.878242 1_554
O17 P3 1.526943 1_555
O18 P5 1.512846 1_555
O18 V2 2.025449 1_555
O19 P2 1.525416 1_555
O19 V3 1.990119 1_555
O20 P7 1.543713 1_555
O20 V2 2.068953 1_455
O21 P3 1.538595 1_555
O21 V3 2.093035 1_555
O22 P5 1.533496 1_555
O23 P3 1.619647 1_555
O23 V4 1.804763 1_455
O24 P8 1.548858 1_555
O24 V2 2.006883 1_555
O25 P6 1.576160 1_555
O26 P8 1.533845 1_555
O26 V3 2.066895 1_555
O27 P4 1.559294 1_555
O27 V4 2.083179 1_555
O28 P9 1.538251 1_555
O28 V3 2.090906 1_555
O29 P6 1.542138 1_555
O29 V4 2.120581 1_455
O30 P8 1.560398 1_555
O31 P6 1.559867 1_555
O31 V0 2.017211 1_556
O32 P10 1.540739 1_555
O32 V3 1.982694 1_555
O33 P7 1.544211 1_555
O33 V1 1.979657 1_565
O34 P10 1.545500 1_555
O34 V4 1.935336 1_555
O35 P9 1.568278 1_555
O36 P8 1.549896 1_555
O36 V1 2.072328 1_665
O37 P11 1.583277 1_555
O37 V4 2.007567 1_455
O38 P10 1.545560 1_555
O39 P9 1.520135 1_555
O39 V1 2.079438 1_565
O40 P9 1.579126 1_555
O40 V5 1.934552 1_555
O41 P11 1.517057 1_555
O42 P10 1.559050 1_555
O42 V5 1.924426 1_555
O43 P11 1.580266 1_555
O43 V5 2.003060 1_555
O44 P11 1.525350 1_555
O44 V2 1.938310 1_456
O45 P4 1.552775 1_565
O45 V5 2.028433 1_555
O46 P6 1.543474 1_565
O46 V5 2.116888 1_555
O47 P4 1.552413 1_565
