# generated using pymatgen
data_Mg11Ti25O60
_symmetry_space_group_name_H-M   'P 1'
_cell_length_a   10.51542500
_cell_length_b   11.34068386
_cell_length_c   11.38834627
_cell_angle_alpha   99.54867601
_cell_angle_beta   110.01670622
_cell_angle_gamma   111.07046788
_symmetry_Int_Tables_number   1
_chemical_formula_structural   Mg11Ti25O60
_chemical_formula_sum   'Mg11 Ti25 O60'
_cell_volume   1124.20945428
_cell_formula_units_Z   1
loop_
 _symmetry_equiv_pos_site_id
 _symmetry_equiv_pos_as_xyz
  1  'x, y, z'
loop_
 _atom_site_type_symbol
 _atom_site_label
 _atom_site_symmetry_multiplicity
 _atom_site_fract_x
 _atom_site_fract_y
 _atom_site_fract_z
 _atom_site_occupancy
  Mg  Mg0  1  0.07015400  0.31643800  0.75005700  1
  Mg  Mg1  1  0.07004400  0.64694400  0.74995700  1
  Mg  Mg2  1  0.57117800  0.64808700  0.74979200  1
  Mg  Mg3  1  0.57174500  0.31564800  0.75019700  1
  Mg  Mg4  1  0.57143300  0.98271900  0.75002000  1
  Mg  Mg5  1  0.42879100  0.01746600  0.25071700  1
  Mg  Mg6  1  0.42869100  0.68437100  0.24991600  1
  Mg  Mg7  1  0.42883700  0.35214700  0.25080100  1
  Mg  Mg8  1  0.92878500  0.35134700  0.25031000  1
  Mg  Mg9  1  0.92816200  0.01798400  0.24905900  1
  Mg  Mg10  1  0.92791300  0.68371100  0.24917600  1
  Ti  Ti0  1  0.07268200  0.98255500  0.74993800  1
  Ti  Ti1  1  0.15041400  0.47801900  0.56693200  1
  Ti  Ti2  1  0.33832500  0.27144900  0.93900400  1
  Ti  Ti3  1  0.14843000  0.14502200  0.56094700  1
  Ti  Ti4  1  0.14920300  0.80779700  0.56121700  1
  Ti  Ti5  1  0.33265400  0.59978200  0.93304000  1
  Ti  Ti6  1  0.33806000  0.93374900  0.93880000  1
  Ti  Ti7  1  0.17041600  0.06845700  0.07001900  1
  Ti  Ti8  1  0.16629800  0.40004300  0.06713900  1
  Ti  Ti9  1  0.34991700  0.52140800  0.43312200  1
  Ti  Ti10  1  0.35304600  0.19032100  0.43528100  1
  Ti  Ti11  1  0.16588900  0.73289600  0.06667300  1
  Ti  Ti12  1  0.35234500  0.85708600  0.43324900  1
  Ti  Ti13  1  0.65005300  0.14470200  0.56708100  1
  Ti  Ti14  1  0.64998300  0.47793900  0.56699500  1
  Ti  Ti15  1  0.64591100  0.80927700  0.56591500  1
  Ti  Ti16  1  0.83304500  0.26678700  0.93291100  1
  Ti  Ti17  1  0.83275000  0.59982400  0.93283200  1
  Ti  Ti18  1  0.82994400  0.93199000  0.93380000  1
  Ti  Ti19  1  0.66919600  0.06838300  0.06682800  1
  Ti  Ti20  1  0.84941900  0.18900400  0.43335100  1
  Ti  Ti21  1  0.66530800  0.73176600  0.06510200  1
  Ti  Ti22  1  0.66934400  0.40083400  0.06671600  1
  Ti  Ti23  1  0.85036700  0.85502200  0.42988000  1
  Ti  Ti24  1  0.84935700  0.52174700  0.43320700  1
  O  O0  1  0.15670700  0.51060300  0.75022600  1
  O  O1  1  0.14885300  0.16783100  0.74991100  1
  O  O2  1  0.14891600  0.84810200  0.75002000  1
  O  O3  1  0.27542900  0.08026300  0.93080400  1
  O  O4  1  0.28115700  0.41505100  0.93461500  1
  O  O5  1  0.09654400  0.29203200  0.56546900  1
  O  O6  1  0.09462100  0.95969500  0.56912000  1
  O  O7  1  0.09654800  0.62750200  0.56545000  1
  O  O8  1  0.28111700  0.75061000  0.93456400  1
  O  O9  1  0.14723900  0.44697000  0.38686300  1
  O  O10  1  0.01016800  0.02171000  0.11028400  1
  O  O11  1  0.14679400  0.11302900  0.38639300  1
  O  O12  1  0.01047500  0.35560000  0.11340500  1
  O  O13  1  0.01065300  0.68913800  0.11350200  1
  O  O14  1  0.14689400  0.78048700  0.38656900  1
  O  O15  1  0.35280000  0.55316100  0.61325900  1
  O  O16  1  0.48961300  0.64449900  0.88685200  1
  O  O17  1  0.35217000  0.21963200  0.61330700  1
  O  O18  1  0.48875300  0.31087000  0.88647000  1
  O  O19  1  0.35226300  0.88615500  0.61342700  1
  O  O20  1  0.48886100  0.97721500  0.88659200  1
  O  O21  1  0.40518900  0.04137200  0.43685900  1
  O  O22  1  0.21847600  0.58327000  0.06227300  1
  O  O23  1  0.21834300  0.24952700  0.06289200  1
  O  O24  1  0.21845300  0.91695300  0.06294900  1
  O  O25  1  0.40520100  0.37433100  0.43686500  1
  O  O26  1  0.40836000  0.70932200  0.43894600  1
  O  O27  1  0.34275500  0.15578200  0.24920900  1
  O  O28  1  0.34316500  0.48964200  0.25001000  1
  O  O29  1  0.34330000  0.82259800  0.25052400  1
  O  O30  1  0.65692000  0.17731600  0.74998500  1
  O  O31  1  0.65699800  0.51057100  0.75006000  1
  O  O32  1  0.65817500  0.84447600  0.75005000  1
  O  O33  1  0.59387800  0.29170200  0.56251000  1
  O  O34  1  0.78132400  0.08300200  0.93732400  1
  O  O35  1  0.78179400  0.75042600  0.93677200  1
  O  O36  1  0.59494800  0.62578200  0.56312100  1
  O  O37  1  0.78146000  0.41679100  0.93764700  1
  O  O38  1  0.59407500  0.95832300  0.56274400  1
  O  O39  1  0.64723600  0.11355100  0.38653100  1
  O  O40  1  0.51029900  0.02258400  0.11342800  1
  O  O41  1  0.51063100  0.68913000  0.11351600  1
  O  O42  1  0.64987300  0.78162900  0.38976000  1
  O  O43  1  0.51020600  0.35512800  0.11333300  1
  O  O44  1  0.64724300  0.44682000  0.38651000  1
  O  O45  1  0.85259800  0.21944200  0.61316100  1
  O  O46  1  0.98937100  0.31079900  0.88679000  1
  O  O47  1  0.86061800  0.89029900  0.62064400  1
  O  O48  1  0.98994400  0.97654900  0.87937200  1
  O  O49  1  0.85257100  0.55317200  0.61314200  1
  O  O50  1  0.98947600  0.64457900  0.88689100  1
  O  O51  1  0.71802700  0.24973700  0.06285300  1
  O  O52  1  0.90596100  0.37481600  0.43746100  1
  O  O53  1  0.90577500  0.04115000  0.43728600  1
  O  O54  1  0.71827200  0.58351800  0.06306500  1
  O  O55  1  0.71948600  0.91649900  0.06125300  1
  O  O56  1  0.90555600  0.70837600  0.43712500  1
  O  O57  1  0.84273700  0.15552900  0.24944800  1
  O  O58  1  0.84385800  0.82339500  0.25098900  1
  O  O59  1  0.84278800  0.48923100  0.24962600  1
loop_
_geom_bond_atom_site_label_1
_geom_bond_atom_site_label_2
_geom_bond_distance
_geom_bond_site_symmetry_2
Mg0 O46 2.012452 1_455
Mg0 O45 2.013475 1_455
Mg0 O0 2.057520 1_555
Mg0 O1 2.127894 1_555
Mg0 O5 2.198682 1_555
Mg0 O4 2.198803 1_555
Mg1 O49 2.012594 1_455
Mg1 O50 2.013050 1_455
Mg1 O0 2.057674 1_555
Mg1 O2 2.128538 1_555
Mg1 O7 2.198371 1_555
Mg1 O8 2.199471 1_555
Mg2 O15 2.018057 1_555
Mg2 O16 2.021418 1_555
Mg2 O31 2.063529 1_555
Mg2 O32 2.080442 1_555
Mg2 O36 2.208307 1_555
Mg2 O35 2.211250 1_555
Mg3 O18 2.023383 1_555
Mg3 O17 2.027810 1_555
Mg3 O31 2.065777 1_555
Mg3 O30 2.067314 1_555
Mg3 O37 2.209517 1_555
Mg3 O33 2.211336 1_555
Mg4 O20 2.023513 1_555
Mg4 O19 2.023940 1_555
Mg4 O30 2.062142 1_565
Mg4 O32 2.077996 1_555
Mg4 O38 2.209330 1_555
Mg4 O34 2.209536 1_565
Mg5 O39 2.016164 1_555
Mg5 O40 2.023417 1_555
Mg5 O29 2.064105 1_545
Mg5 O27 2.073157 1_555
Mg5 O21 2.201531 1_555
Mg5 O24 2.214640 1_545
Mg6 O41 2.017162 1_555
Mg6 O42 2.049206 1_555
Mg6 O28 2.063751 1_555
Mg6 O29 2.067944 1_555
Mg6 O22 2.213231 1_555
Mg6 O26 2.217325 1_555
Mg7 O44 2.015544 1_555
Mg7 O43 2.024331 1_555
Mg7 O28 2.062083 1_555
Mg7 O27 2.074801 1_555
Mg7 O25 2.200841 1_555
Mg7 O23 2.216309 1_555
Mg8 O9 2.018656 1_655
Mg8 O12 2.020668 1_655
Mg8 O59 2.068557 1_555
Mg8 O57 2.071776 1_555
Mg8 O52 2.208839 1_555
Mg8 O51 2.214850 1_555
Mg9 O11 2.022555 1_655
Mg9 O10 2.042561 1_655
Mg9 O57 2.061068 1_555
Mg9 O58 2.068573 1_545
Mg9 O55 2.206493 1_545
Mg9 O53 2.218675 1_555
Mg10 O13 2.015306 1_655
Mg10 O14 2.025255 1_655
Mg10 O59 2.062285 1_555
Mg10 O58 2.073516 1_555
Mg10 O54 2.200979 1_555
Mg10 O56 2.215418 1_555
O0 Ti5 2.024708 1_555
O0 Ti1 2.032283 1_555
O1 Ti0 1.961298 1_545
O1 Ti3 2.122715 1_555
O1 Ti2 2.127815 1_555
O2 Ti0 1.961236 1_555
O2 Ti4 2.124021 1_555
O2 Ti6 2.124183 1_555
O3 Ti6 1.999705 1_545
O3 Ti2 2.001651 1_555
O3 Ti0 2.133925 1_545
O3 Ti7 2.216649 1_556
O4 Ti2 1.930388 1_555
O4 Ti5 1.971266 1_555
O4 Ti8 2.225040 1_556
O5 Ti3 1.929941 1_555
O5 Ti1 1.973005 1_555
O5 Ti20 2.222336 1_455
O6 Ti3 1.997995 1_565
O6 Ti4 1.999951 1_555
O6 Ti0 2.133522 1_555
O6 Ti23 2.217095 1_455
O7 Ti4 1.930419 1_555
O7 Ti1 1.971887 1_555
O7 Ti24 2.223119 1_455
O8 Ti6 1.930609 1_555
O8 Ti5 1.970505 1_555
O8 Ti11 2.223795 1_556
O9 Ti9 1.822786 1_555
O9 Ti1 2.008864 1_555
O10 Ti7 1.816067 1_555
O10 Ti18 1.998454 1_444
O11 Ti10 1.851117 1_555
O11 Ti3 1.953566 1_555
O12 Ti8 1.817086 1_555
O12 Ti16 2.014235 1_454
O13 Ti11 1.815662 1_555
O13 Ti17 2.017446 1_454
O14 Ti12 1.848161 1_555
O14 Ti4 1.951820 1_555
O15 Ti1 1.819846 1_555
O15 Ti9 2.010864 1_555
O16 Ti5 1.827287 1_555
O16 Ti21 1.991187 1_556
O17 Ti3 1.821001 1_555
O17 Ti10 2.003101 1_555
O18 Ti2 1.813302 1_555
O18 Ti22 2.025882 1_556
O19 Ti4 1.814872 1_555
O19 Ti12 2.023878 1_555
O20 Ti6 1.814301 1_555
O20 Ti19 2.024744 1_566
O21 Ti12 1.949127 1_545
O21 Ti10 1.955400 1_555
O21 Ti13 2.200488 1_555
O22 Ti11 1.962924 1_555
O22 Ti8 1.964972 1_555
O22 Ti5 2.186799 1_554
O23 Ti7 1.953573 1_555
O23 Ti8 1.969257 1_555
O23 Ti2 2.180280 1_554
O24 Ti7 1.954405 1_565
O24 Ti11 1.969800 1_555
O24 Ti6 2.179807 1_554
O25 Ti10 1.952860 1_555
O25 Ti9 1.955930 1_555
O25 Ti14 2.199653 1_555
O26 Ti12 1.969494 1_555
O26 Ti9 1.976629 1_555
O26 Ti15 2.136126 1_555
O27 Ti7 1.984089 1_555
O27 Ti10 2.047603 1_555
O28 Ti9 2.028419 1_555
O28 Ti8 2.028834 1_555
O29 Ti12 2.014955 1_555
O29 Ti11 2.038071 1_555
O30 Ti13 2.025591 1_555
O30 Ti16 2.026234 1_555
O31 Ti17 2.023624 1_555
O31 Ti14 2.026805 1_555
O32 Ti18 2.015170 1_555
O32 Ti15 2.018289 1_555
O33 Ti13 1.961277 1_555
O33 Ti14 1.964455 1_555
O33 Ti10 2.162486 1_555
O34 Ti18 1.953646 1_545
O34 Ti16 1.969977 1_555
O34 Ti19 2.173446 1_556
O35 Ti18 1.944856 1_555
O35 Ti17 1.963466 1_555
O35 Ti21 2.196085 1_556
O36 Ti15 1.945018 1_555
O36 Ti14 1.962835 1_555
O36 Ti9 2.201366 1_555
O37 Ti16 1.960648 1_555
O37 Ti17 1.963555 1_555
O37 Ti22 2.168963 1_556
O38 Ti15 1.955689 1_555
O38 Ti13 1.966563 1_565
O38 Ti12 2.174355 1_555
O39 Ti20 1.816877 1_555
O39 Ti13 2.015758 1_555
O40 Ti19 1.848703 1_555
O40 Ti6 1.951352 1_544
O41 Ti21 1.822131 1_555
O41 Ti5 2.016389 1_554
O42 Ti23 1.816318 1_555
O42 Ti15 1.995611 1_555
O43 Ti22 1.851108 1_555
O43 Ti2 1.947801 1_554
O44 Ti24 1.816483 1_555
O44 Ti14 2.015350 1_555
O45 Ti13 1.821893 1_555
O45 Ti20 2.005949 1_555
O46 Ti16 1.820798 1_555
O46 Ti8 2.011113 1_656
O47 Ti15 1.919670 1_555
O47 Ti0 1.949074 1_655
O47 Ti23 2.100402 1_555
O48 Ti18 1.917498 1_555
O48 Ti0 1.950135 1_655
O48 Ti7 2.099516 1_666
O49 Ti14 1.822149 1_555
O49 Ti24 2.007201 1_555
O50 Ti17 1.823270 1_555
O50 Ti11 2.004970 1_656
O51 Ti19 1.945018 1_555
O51 Ti22 1.954833 1_555
O51 Ti16 2.200482 1_554
O52 Ti20 1.960484 1_555
O52 Ti24 1.962997 1_555
O52 Ti1 2.195681 1_655
O53 Ti23 1.955795 1_545
O53 Ti20 1.971284 1_555
O53 Ti3 2.170265 1_655
O54 Ti21 1.951008 1_555
O54 Ti22 1.958425 1_555
O54 Ti17 2.199131 1_554
O55 Ti19 1.972874 1_565
O55 Ti21 1.976077 1_555
O55 Ti18 2.139813 1_554
O56 Ti23 1.953483 1_555
O56 Ti24 1.970298 1_555
O56 Ti4 2.179014 1_655
O57 Ti19 2.013774 1_555
O57 Ti20 2.037561 1_555
O58 Ti23 1.981986 1_555
O58 Ti21 2.057360 1_555
O59 Ti22 2.015470 1_555
O59 Ti24 2.034392 1_555
