# generated using pymatgen
data_Ca5Ti3NbAl(SiO5)5
_symmetry_space_group_name_H-M   'P 1'
_cell_length_a   5.48691500
_cell_length_b   7.13056660
_cell_length_c   25.18829871
_cell_angle_alpha   84.54065487
_cell_angle_beta   85.86475808
_cell_angle_gamma   76.00115265
_symmetry_Int_Tables_number   1
_chemical_formula_structural   Ca5Ti3NbAl(SiO5)5
_chemical_formula_sum   'Ca10 Ti6 Nb2 Al2 Si10 O50'
_cell_volume   950.65115788
_cell_formula_units_Z   2
loop_
 _symmetry_equiv_pos_site_id
 _symmetry_equiv_pos_as_xyz
  1  'x, y, z'
loop_
 _atom_site_type_symbol
 _atom_site_label
 _atom_site_symmetry_multiplicity
 _atom_site_fract_x
 _atom_site_fract_y
 _atom_site_fract_z
 _atom_site_occupancy
  Ca  Ca0  1  0.84330600  0.89407300  0.66690700  1
  Ca  Ca1  1  0.24718200  0.69280800  0.46812100  1
  Ca  Ca2  1  0.64267900  0.51246100  0.26680600  1
  Ca  Ca3  1  0.03954600  0.31329500  0.06515100  1
  Ca  Ca4  1  0.75281800  0.30719200  0.53187900  1
  Ca  Ca5  1  0.43766500  0.11736000  0.86587400  1
  Ca  Ca6  1  0.15669400  0.10592700  0.33309300  1
  Ca  Ca7  1  0.56233500  0.88264000  0.13412600  1
  Ca  Ca8  1  0.96045400  0.68670500  0.93484900  1
  Ca  Ca9  1  0.35732100  0.48753900  0.73319400  1
  Ti  Ti0  1  0.10040800  0.20239100  0.19880900  1
  Ti  Ti1  1  0.10388300  0.69987200  0.20039500  1
  Ti  Ti2  1  0.50000000  0.00000000  0.00000000  1
  Ti  Ti3  1  0.50000000  0.50000000  0.00000000  1
  Ti  Ti4  1  0.89959200  0.79760900  0.80119100  1
  Ti  Ti5  1  0.89611700  0.30012800  0.79960500  1
  Nb  Nb0  1  0.29627000  0.10160300  0.59965600  1
  Nb  Nb1  1  0.70373000  0.89839700  0.40034400  1
  Al  Al0  1  0.29998100  0.59907000  0.60096900  1
  Al  Al1  1  0.70001900  0.40093000  0.39903100  1
  Si  Si0  1  0.84631700  0.42198500  0.66372100  1
  Si  Si1  1  0.24676800  0.22396300  0.46165300  1
  Si  Si2  1  0.65415900  0.01526700  0.26233600  1
  Si  Si3  1  0.75323200  0.77603700  0.53834700  1
  Si  Si4  1  0.05384000  0.81236100  0.06409600  1
  Si  Si5  1  0.15368300  0.57801500  0.33627900  1
  Si  Si6  1  0.45267000  0.61245700  0.86425000  1
  Si  Si7  1  0.54733000  0.38754300  0.13575000  1
  Si  Si8  1  0.94616000  0.18763900  0.93590400  1
  Si  Si9  1  0.34584100  0.98473300  0.73766400  1
  O  O0  1  0.02758700  0.63551500  0.55170700  1
  O  O1  1  0.93657100  0.24084500  0.62347000  1
  O  O2  1  0.20337800  0.85770300  0.61325800  1
  O  O3  1  0.42834600  0.43788700  0.35033000  1
  O  O4  1  0.19605400  0.12323000  0.52261300  1
  O  O5  1  0.06389100  0.54672300  0.66178700  1
  O  O6  1  0.33778000  0.04120300  0.42259100  1
  O  O7  1  0.53537900  0.65278800  0.53891500  1
  O  O8  1  0.40252800  0.08205900  0.67704800  1
  O  O9  1  0.60285300  0.65780400  0.41307100  1
  O  O10  1  0.82105900  0.24063200  0.14955700  1
  O  O11  1  0.39714700  0.34219600  0.58692900  1
  O  O12  1  0.59747200  0.91794100  0.32295200  1
  O  O13  1  0.46462100  0.34721200  0.46108500  1
  O  O14  1  0.74278100  0.83873100  0.22227100  1
  O  O15  1  0.66222000  0.95879700  0.57740900  1
  O  O16  1  0.93610900  0.45327700  0.33821300  1
  O  O17  1  0.80394600  0.87677000  0.47738700  1
  O  O18  1  0.00326100  0.46276000  0.21344100  1
  O  O19  1  0.57165400  0.56211300  0.64967000  1
  O  O20  1  0.22036900  0.04247000  0.95012100  1
  O  O21  1  0.79662200  0.14229700  0.38674200  1
  O  O22  1  0.00137700  0.71592400  0.12454500  1
  O  O23  1  0.86501100  0.14554200  0.26237000  1
  O  O24  1  0.14171400  0.63756600  0.02301500  1
  O  O25  1  0.06342900  0.75915500  0.37653000  1
  O  O26  1  0.33691900  0.25570900  0.13667500  1
  O  O27  1  0.20089100  0.67843200  0.27561500  1
  O  O28  1  0.40446400  0.26320900  0.01406200  1
  O  O29  1  0.97241300  0.36448500  0.44829300  1
  O  O30  1  0.61900600  0.83831500  0.75113400  1
  O  O31  1  0.19862400  0.93594300  0.18625500  1
  O  O32  1  0.39858600  0.51515600  0.92458300  1
  O  O33  1  0.26341600  0.94516000  0.06264000  1
  O  O34  1  0.53957100  0.43847700  0.82306100  1
  O  O35  1  0.46042900  0.56152300  0.17693900  1
  O  O36  1  0.73658400  0.05484000  0.93736000  1
  O  O37  1  0.60141400  0.48484400  0.07541700  1
  O  O38  1  0.80137600  0.06405700  0.81374500  1
  O  O39  1  0.38099400  0.16168500  0.24886600  1
  O  O40  1  0.59553600  0.73679100  0.98593800  1
  O  O41  1  0.79910900  0.32156800  0.72438500  1
  O  O42  1  0.66308100  0.74429100  0.86332500  1
  O  O43  1  0.85828600  0.36243400  0.97698500  1
  O  O44  1  0.13498900  0.85445800  0.73763000  1
  O  O45  1  0.99862300  0.28407600  0.87545500  1
  O  O46  1  0.77963100  0.95753000  0.04987900  1
  O  O47  1  0.99673900  0.53724000  0.78655900  1
  O  O48  1  0.25721900  0.16126900  0.77772900  1
  O  O49  1  0.17894100  0.75936800  0.85044300  1
loop_
_geom_bond_atom_site_label_1
_geom_bond_atom_site_label_2
_geom_bond_distance
_geom_bond_site_symmetry_2
Ca0 O2 2.287012 1_655
Ca0 O30 2.423492 1_555
Ca0 O44 2.431309 1_655
Ca0 O8 2.473632 1_565
Ca0 O15 2.487035 1_555
Ca0 O5 2.490788 1_655
Ca0 O1 2.754951 1_565
Ca1 O9 2.287667 1_555
Ca1 O0 2.399994 1_555
Ca1 O7 2.419348 1_555
Ca1 O17 2.474420 1_455
Ca1 O13 2.481483 1_555
Ca1 O25 2.541599 1_555
Ca1 O6 2.776144 1_565
Ca2 O18 2.283563 1_655
Ca2 O3 2.413451 1_555
Ca2 O27 2.431116 1_555
Ca2 O16 2.439222 1_555
Ca2 O35 2.500552 1_555
Ca2 O23 2.614903 1_555
Ca2 O14 2.646763 1_555
Ca3 O28 2.272114 1_555
Ca3 O37 2.426972 1_455
Ca3 O10 2.439059 1_455
Ca3 O26 2.456748 1_555
Ca3 O43 2.458767 1_454
Ca3 O24 2.619441 1_555
Ca3 O33 2.619909 1_545
Ca4 O11 2.287667 1_555
Ca4 O29 2.399994 1_555
Ca4 O13 2.419348 1_555
Ca4 O4 2.474420 1_655
Ca4 O7 2.481483 1_555
Ca4 O1 2.541599 1_555
Ca4 O15 2.776144 1_545
Ca5 O38 2.280622 1_555
Ca5 O45 2.420722 1_455
Ca5 O20 2.436652 1_555
Ca5 O48 2.458146 1_555
Ca5 O36 2.459765 1_555
Ca5 O34 2.604058 1_555
Ca5 O42 2.653250 1_545
Ca6 O21 2.287012 1_455
Ca6 O39 2.423492 1_555
Ca6 O23 2.431309 1_455
Ca6 O12 2.473632 1_545
Ca6 O6 2.487035 1_555
Ca6 O16 2.490788 1_455
Ca6 O25 2.754951 1_545
Ca7 O31 2.280622 1_555
Ca7 O22 2.420722 1_655
Ca7 O46 2.436652 1_555
Ca7 O14 2.458146 1_555
Ca7 O33 2.459765 1_555
Ca7 O35 2.604058 1_555
Ca7 O26 2.653250 1_565
Ca8 O40 2.272114 1_555
Ca8 O32 2.426972 1_655
Ca8 O49 2.439059 1_655
Ca8 O42 2.456748 1_555
Ca8 O24 2.458767 1_656
Ca8 O43 2.619441 1_555
Ca8 O36 2.619909 1_565
Ca9 O47 2.283563 1_455
Ca9 O19 2.413451 1_555
Ca9 O41 2.431116 1_555
Ca9 O5 2.439222 1_555
Ca9 O34 2.500552 1_555
Ca9 O44 2.614903 1_555
Ca9 O48 2.646763 1_555
Nb0 O11 1.918714 1_555
Nb0 O2 1.921480 1_545
Nb0 O4 2.036647 1_555
Nb0 O8 2.057258 1_555
Nb0 O1 2.058004 1_455
Nb0 O15 2.083222 1_545
Nb1 O9 1.918714 1_555
Nb1 O21 1.921480 1_565
Nb1 O17 2.036647 1_555
Nb1 O12 2.057258 1_555
Nb1 O25 2.058004 1_655
Nb1 O6 2.083222 1_565
Al0 O11 1.840620 1_555
Al0 O2 1.841160 1_555
Al0 O19 1.951516 1_555
Al0 O0 1.964489 1_555
Al0 O5 2.000764 1_555
Al0 O7 2.022950 1_555
Al1 O9 1.840620 1_555
Al1 O21 1.841160 1_555
Al1 O3 1.951516 1_555
Al1 O29 1.964489 1_555
Al1 O16 2.000764 1_555
Al1 O13 2.022950 1_555
O0 Si3 1.631719 1_455
O1 Si0 1.675934 1_555
O3 Si5 1.635835 1_555
O4 Si1 1.666215 1_555
O5 Si0 1.647960 1_455
O6 Si1 1.665532 1_555
O7 Si3 1.644621 1_555
O8 Si9 1.656457 1_545
O10 Si7 1.648917 1_555
O10 Ti0 1.992588 1_655
O12 Si2 1.656457 1_565
O13 Si1 1.644621 1_555
O14 Si2 1.647502 1_565
O14 Ti1 2.051079 1_655
O15 Si3 1.665532 1_555
O16 Si5 1.647960 1_655
O17 Si3 1.666215 1_555
O18 Ti0 1.868134 1_555
O18 Ti1 1.895032 1_555
O19 Si0 1.635835 1_555
O20 Si8 1.648372 1_455
O20 Ti2 2.001274 1_556
O22 Si4 1.645415 1_555
O22 Ti1 2.015390 1_555
O23 Si2 1.649741 1_555
O23 Ti0 2.056047 1_655
O24 Si4 1.655111 1_555
O24 Ti3 2.043002 1_555
O25 Si5 1.675934 1_555
O26 Si7 1.653527 1_555
O26 Ti0 2.027450 1_555
O27 Si5 1.655026 1_555
O27 Ti1 1.986807 1_555
O28 Ti3 1.881157 1_555
O28 Ti2 1.883205 1_555
O29 Si1 1.631719 1_655
O30 Si9 1.643320 1_555
O30 Ti4 2.009561 1_555
O31 Ti1 1.874358 1_555
O31 Ti0 1.895919 1_565
O32 Si6 1.647066 1_555
O32 Ti3 2.003544 1_556
O33 Si4 1.653626 1_555
O33 Ti2 2.039670 1_565
O34 Si6 1.652309 1_555
O34 Ti5 2.039610 1_555
O35 Si7 1.652309 1_555
O35 Ti1 2.039610 1_555
O36 Si8 1.653626 1_555
O36 Ti2 2.039670 1_556
O37 Si7 1.647066 1_555
O37 Ti3 2.003544 1_555
O38 Ti5 1.874358 1_555
O38 Ti4 1.895919 1_545
O39 Si2 1.643320 1_555
O39 Ti0 2.009561 1_555
O40 Ti3 1.881157 1_556
O40 Ti2 1.883205 1_566
O41 Si0 1.655026 1_555
O41 Ti5 1.986807 1_555
O42 Si6 1.653527 1_555
O42 Ti4 2.027450 1_555
O43 Si8 1.655111 1_555
O43 Ti3 2.043002 1_556
O44 Si9 1.649741 1_555
O44 Ti4 2.056047 1_455
O45 Si8 1.645415 1_555
O45 Ti5 2.015390 1_555
O46 Si4 1.648372 1_655
O46 Ti2 2.001274 1_565
O47 Ti4 1.868134 1_555
O47 Ti5 1.895032 1_555
O48 Si9 1.647502 1_545
O48 Ti5 2.051079 1_455
O49 Si6 1.648917 1_555
O49 Ti4 1.992588 1_455
