# generated using pymatgen
data_LiFeB2O5
_symmetry_space_group_name_H-M   'P 1'
_cell_length_a   9.59086200
_cell_length_b   5.71753600
_cell_length_c   6.95362293
_cell_angle_alpha   74.05682471
_cell_angle_beta   90.00000000
_cell_angle_gamma   90.00000000
_symmetry_Int_Tables_number   1
_chemical_formula_structural   LiFeB2O5
_chemical_formula_sum   'Li4 Fe4 B8 O20'
_cell_volume   366.64232686
_cell_formula_units_Z   4
loop_
 _symmetry_equiv_pos_site_id
 _symmetry_equiv_pos_as_xyz
  1  'x, y, z'
loop_
 _atom_site_type_symbol
 _atom_site_label
 _atom_site_symmetry_multiplicity
 _atom_site_fract_x
 _atom_site_fract_y
 _atom_site_fract_z
 _atom_site_occupancy
  Li  Li0  1  0.42544700  0.68664800  0.78205200  1
  Li  Li1  1  0.07455300  0.18664800  0.78205200  1
  Li  Li2  1  0.92544700  0.81335200  0.21794800  1
  Li  Li3  1  0.57455300  0.31335200  0.21794800  1
  Fe  Fe0  1  0.82897100  0.78335800  0.75390300  1
  Fe  Fe1  1  0.67102900  0.28335800  0.75390300  1
  Fe  Fe2  1  0.32897100  0.71664200  0.24609700  1
  Fe  Fe3  1  0.17102900  0.21664200  0.24609700  1
  B  B0  1  0.11818300  0.67073600  0.91483000  1
  B  B1  1  0.38181700  0.17073600  0.91483000  1
  B  B2  1  0.09310600  0.74426900  0.54820400  1
  B  B3  1  0.59310600  0.75573100  0.45179600  1
  B  B4  1  0.40689400  0.24426900  0.54820400  1
  B  B5  1  0.90689400  0.25573100  0.45179600  1
  B  B6  1  0.61818300  0.82926400  0.08517000  1
  B  B7  1  0.88181700  0.32926400  0.08517000  1
  O  O0  1  0.70483900  0.92984900  0.92649100  1
  O  O1  1  0.99651100  0.78635600  0.93194700  1
  O  O2  1  0.79516100  0.42984900  0.92649100  1
  O  O3  1  0.50348900  0.28635600  0.93194700  1
  O  O4  1  0.16859200  0.65342300  0.72836900  1
  O  O5  1  0.66788400  0.65815500  0.62341600  1
  O  O6  1  0.33140800  0.15342300  0.72836900  1
  O  O7  1  0.95178900  0.73818700  0.53855800  1
  O  O8  1  0.83211600  0.15815500  0.62341600  1
  O  O9  1  0.45178900  0.76181300  0.46144200  1
  O  O10  1  0.54821100  0.23818700  0.53855800  1
  O  O11  1  0.16788400  0.84184500  0.37658400  1
  O  O12  1  0.04821100  0.26181300  0.46144200  1
  O  O13  1  0.66859200  0.84657700  0.27163100  1
  O  O14  1  0.33211600  0.34184500  0.37658400  1
  O  O15  1  0.83140800  0.34657700  0.27163100  1
  O  O16  1  0.49651100  0.71364400  0.06805300  1
  O  O17  1  0.20483900  0.57015100  0.07350900  1
  O  O18  1  0.00348900  0.21364400  0.06805300  1
  O  O19  1  0.29516100  0.07015100  0.07350900  1
loop_
_geom_bond_atom_site_label_1
_geom_bond_atom_site_label_2
_geom_bond_distance
_geom_bond_site_symmetry_2
Li0 O16 2.147578 1_556
Li0 O9 2.166194 1_555
Li0 O3 2.360974 1_555
Li0 O4 2.506597 1_555
Li1 O18 2.147578 1_556
Li1 O12 2.166194 1_555
Li1 O1 2.360974 1_445
Li1 O6 2.506597 1_555
Li2 O1 2.147578 1_554
Li2 O7 2.166194 1_555
Li2 O18 2.360974 1_665
Li2 O13 2.506597 1_555
Li3 O3 2.147578 1_554
Li3 O10 2.166194 1_555
Li3 O16 2.360974 1_555
Li3 O15 2.506597 1_555
Fe0 O7 1.977112 1_555
Fe0 O5 2.019774 1_555
Fe0 O0 2.027651 1_555
Fe0 O1 2.031428 1_555
Fe0 O2 2.073183 1_555
Fe0 O8 2.085212 1_565
Fe1 O10 1.977112 1_555
Fe1 O8 2.019774 1_555
Fe1 O2 2.027651 1_555
Fe1 O3 2.031428 1_555
Fe1 O0 2.073183 1_545
Fe1 O5 2.085212 1_555
Fe2 O9 1.977112 1_555
Fe2 O11 2.019774 1_555
Fe2 O17 2.027651 1_555
Fe2 O16 2.031428 1_555
Fe2 O19 2.073183 1_565
Fe2 O14 2.085212 1_555
Fe3 O12 1.977112 1_555
Fe3 O14 2.019774 1_555
Fe3 O19 2.027651 1_555
Fe3 O18 2.031428 1_555
Fe3 O17 2.073183 1_555
Fe3 O11 2.085212 1_545
B0 O1 1.362403 1_455
B0 O17 1.374899 1_556
B0 O4 1.412503 1_555
B1 O3 1.362403 1_555
B1 O19 1.374899 1_556
B1 O6 1.412503 1_555
B2 O7 1.357928 1_455
B2 O11 1.372589 1_555
B2 O4 1.416317 1_555
B3 O9 1.357928 1_555
B3 O5 1.372589 1_555
B3 O13 1.416317 1_555
B4 O10 1.357928 1_555
B4 O14 1.372589 1_555
B4 O6 1.416317 1_555
B5 O12 1.357928 1_655
B5 O8 1.372589 1_555
B5 O15 1.416317 1_555
B6 O16 1.362403 1_555
B6 O0 1.374899 1_554
B6 O13 1.412503 1_555
B7 O18 1.362403 1_655
B7 O2 1.374899 1_554
B7 O15 1.412503 1_555
