# generated using pymatgen
data_Li3FeOF3
_symmetry_space_group_name_H-M   'P 1'
_cell_length_a   6.08458500
_cell_length_b   5.13199100
_cell_length_c   9.91296058
_cell_angle_alpha   78.59647654
_cell_angle_beta   90.00000000
_cell_angle_gamma   90.00000000
_symmetry_Int_Tables_number   1
_chemical_formula_structural   Li3FeOF3
_chemical_formula_sum   'Li12 Fe4 O4 F12'
_cell_volume   303.43178636
_cell_formula_units_Z   4
loop_
 _symmetry_equiv_pos_site_id
 _symmetry_equiv_pos_as_xyz
  1  'x, y, z'
loop_
 _atom_site_type_symbol
 _atom_site_label
 _atom_site_symmetry_multiplicity
 _atom_site_fract_x
 _atom_site_fract_y
 _atom_site_fract_z
 _atom_site_occupancy
  Li  Li0  1  0.12318700  0.21764300  0.99617400  1
  Li  Li1  1  0.63177300  0.24944900  0.99281000  1
  Li  Li2  1  0.36822700  0.24944900  0.49281000  1
  Li  Li3  1  0.87681300  0.21764300  0.49617400  1
  Li  Li4  1  0.38435500  0.50000000  0.75000000  1
  Li  Li5  1  0.61564500  0.50000000  0.25000000  1
  Li  Li6  1  0.87681300  0.78235700  0.00382600  1
  Li  Li7  1  0.36822700  0.75055100  0.00719000  1
  Li  Li8  1  0.12318700  0.78235700  0.50382600  1
  Li  Li9  1  0.63177300  0.75055100  0.50719000  1
  Li  Li10  1  0.63495300  0.00000000  0.75000000  1
  Li  Li11  1  0.36504700  0.00000000  0.25000000  1
  Fe  Fe0  1  0.86830700  0.50000000  0.75000000  1
  Fe  Fe1  1  0.13169300  0.50000000  0.25000000  1
  Fe  Fe2  1  0.10242000  0.00000000  0.75000000  1
  Fe  Fe3  1  0.89758000  0.00000000  0.25000000  1
  O  O0  1  0.12696600  0.85955500  0.13086300  1
  O  O1  1  0.87303400  0.85955500  0.63086300  1
  O  O2  1  0.87303400  0.14044500  0.86913700  1
  O  O3  1  0.12696600  0.14044500  0.36913700  1
  F  F0  1  0.85343300  0.38948100  0.11887000  1
  F  F1  1  0.39326800  0.37181200  0.12087600  1
  F  F2  1  0.14656700  0.38948100  0.61887000  1
  F  F3  1  0.60673200  0.62818800  0.87912400  1
  F  F4  1  0.60673200  0.37181200  0.62087600  1
  F  F5  1  0.14656700  0.61051900  0.88113000  1
  F  F6  1  0.39326800  0.62818800  0.37912400  1
  F  F7  1  0.85343300  0.61051900  0.38113000  1
  F  F8  1  0.62574400  0.87765000  0.13003700  1
  F  F9  1  0.37425600  0.12235000  0.86996300  1
  F  F10  1  0.37425600  0.87765000  0.63003700  1
  F  F11  1  0.62574400  0.12235000  0.36996300  1
loop_
_geom_bond_atom_site_label_1
_geom_bond_atom_site_label_2
_geom_bond_distance
_geom_bond_site_symmetry_2
Li0 O0 2.046973 1_546
Li0 O2 2.063210 1_455
Li1 O2 2.059628 1_555
Li2 O3 2.059628 1_555
Li3 O1 2.046973 1_545
Li3 O3 2.063210 1_655
Li6 O2 2.046973 1_564
Li6 O0 2.063210 1_655
Li7 O0 2.059628 1_555
Li8 O3 2.046973 1_565
Li8 O1 2.063210 1_455
Li9 O1 2.059628 1_555
Li10 O2 2.085515 1_555
Li10 O1 2.085515 1_545
Li11 O0 2.085515 1_545
Li11 O3 2.085515 1_555
Fe0 O2 1.984624 1_555
Fe0 O1 1.984624 1_555
Fe1 O0 1.984624 1_555
Fe1 O3 1.984624 1_555
Fe2 O2 2.049120 1_455
Fe2 O1 2.049120 1_445
Fe3 O3 2.049120 1_655
Fe3 O0 2.049120 1_645
F0 Li1 2.062074 1_554
F0 Li5 2.096734 1_555
F0 Li6 2.115837 1_555
F0 Fe3 2.174783 1_555
F0 Fe1 2.273658 1_655
F0 Li0 2.318444 1_654
F1 Li7 2.050607 1_555
F1 Li5 2.057903 1_555
F1 Li11 2.083999 1_555
F1 Li1 2.104101 1_554
F1 Fe1 2.221998 1_555
F1 Li0 2.289407 1_554
F2 Li2 2.062074 1_555
F2 Li4 2.096734 1_555
F2 Li8 2.115837 1_555
F2 Fe2 2.174783 1_555
F2 Fe0 2.273658 1_455
F2 Li3 2.318444 1_455
F3 Li1 2.050607 1_555
F3 Li4 2.057903 1_555
F3 Li10 2.083999 1_565
F3 Li7 2.104101 1_556
F3 Fe0 2.221998 1_555
F3 Li6 2.289407 1_556
F4 Li9 2.050607 1_555
F4 Li4 2.057903 1_555
F4 Li10 2.083999 1_555
F4 Li2 2.104101 1_555
F4 Fe0 2.221998 1_555
F4 Li3 2.289407 1_555
F5 Li7 2.062074 1_556
F5 Li4 2.096734 1_555
F5 Li0 2.115837 1_555
F5 Fe2 2.174783 1_565
F5 Fe0 2.273658 1_455
F5 Li6 2.318444 1_456
F6 Li2 2.050607 1_555
F6 Li5 2.057903 1_555
F6 Li11 2.083999 1_565
F6 Li9 2.104101 1_555
F6 Fe1 2.221998 1_555
F6 Li8 2.289407 1_555
F7 Li9 2.062074 1_555
F7 Li5 2.096734 1_555
F7 Li3 2.115837 1_555
F7 Fe3 2.174783 1_565
F7 Fe1 2.273658 1_655
F7 Li8 2.318444 1_655
F8 Li5 2.064650 1_555
F8 Li6 2.092879 1_555
F8 Li1 2.113331 1_564
F8 Li11 2.149379 1_565
F8 Li7 2.162792 1_555
F8 Fe3 2.199873 1_565
F9 Li4 2.064650 1_555
F9 Li0 2.092879 1_555
F9 Li7 2.113331 1_546
F9 Li10 2.149379 1_555
F9 Li1 2.162792 1_555
F9 Fe2 2.199873 1_555
F10 Li4 2.064650 1_555
F10 Li8 2.092879 1_555
F10 Li2 2.113331 1_565
F10 Li10 2.149379 1_565
F10 Li9 2.162792 1_555
F10 Fe2 2.199873 1_565
F11 Li5 2.064650 1_555
F11 Li3 2.092879 1_555
F11 Li9 2.113331 1_545
F11 Li11 2.149379 1_555
F11 Li2 2.162792 1_555
F11 Fe3 2.199873 1_555
