# generated using pymatgen
data_Na2PtO3
_symmetry_space_group_name_H-M   'P 1'
_cell_length_a   10.55739268
_cell_length_b   10.06295096
_cell_length_c   5.57787202
_cell_angle_alpha   79.26144715
_cell_angle_beta   69.46761865
_cell_angle_gamma   31.27093420
_symmetry_Int_Tables_number   1
_chemical_formula_structural   Na2PtO3
_chemical_formula_sum   'Na8 Pt4 O12'
_cell_volume   280.10602644
_cell_formula_units_Z   4
loop_
 _symmetry_equiv_pos_site_id
 _symmetry_equiv_pos_as_xyz
  1  'x, y, z'
loop_
 _atom_site_type_symbol
 _atom_site_label
 _atom_site_symmetry_multiplicity
 _atom_site_fract_x
 _atom_site_fract_y
 _atom_site_fract_z
 _atom_site_occupancy
  Na  Na0  1  0.61930100  0.61530900  0.12616900  1
  Na  Na1  1  0.28588100  0.30192800  0.46051800  1
  Na  Na2  1  0.38186100  0.37914600  0.87786900  1
  Na  Na3  1  0.86654600  0.86810900  0.38913300  1
  Na  Na4  1  0.54915700  0.54551900  0.70698500  1
  Na  Na5  1  0.69545500  0.71261300  0.54597500  1
  Na  Na6  1  0.13861100  0.12560200  0.61103000  1
  Na  Na7  1  0.45598400  0.44889800  0.29848300  1
  Pt  Pt0  1  0.95542400  0.96012100  0.80122200  1
  Pt  Pt1  1  0.04908600  0.03187900  0.20875200  1
  Pt  Pt2  1  0.78685600  0.79394200  0.96832400  1
  Pt  Pt3  1  0.21107100  0.21013200  0.03351100  1
  O  O0  1  0.08701200  0.66244700  0.67363800  1
  O  O1  1  0.52717000  0.04438200  0.75385900  1
  O  O2  1  0.04627500  0.52591800  0.16178800  1
  O  O3  1  0.76286900  0.16789900  0.52273200  1
  O  O4  1  0.96360000  0.46935100  0.82181800  1
  O  O5  1  0.17000800  0.75437500  0.03756700  1
  O  O6  1  0.47420500  0.95807700  0.24286600  1
  O  O7  1  0.33020600  0.91760200  0.92597900  1
  O  O8  1  0.23542500  0.83027800  0.47066400  1
  O  O9  1  0.83374000  0.24151000  0.95479600  1
  O  O10  1  0.91491400  0.33923100  0.32834000  1
  O  O11  1  0.67276600  0.07999100  0.07477100  1
loop_
_geom_bond_atom_site_label_1
_geom_bond_atom_site_label_2
_geom_bond_distance
_geom_bond_site_symmetry_2
Na0 O7 2.251541 1_554
Na0 O10 2.282463 1_555
Na0 O9 2.335113 1_554
Na0 O4 2.392884 1_554
Na0 O6 2.402635 1_555
Na0 O8 2.428203 1_555
Na1 O4 2.265545 1_455
Na1 O6 2.347686 1_545
Na1 O0 2.412154 1_555
Na1 O1 2.437406 1_555
Na1 O2 2.462974 1_555
Na1 O11 2.516496 1_555
Na2 O11 2.242832 1_556
Na2 O0 2.285178 1_555
Na2 O2 2.287441 1_556
Na2 O1 2.338777 1_555
Na2 O5 2.339357 1_556
Na2 O3 2.446570 1_555
Na3 O0 2.313357 1_655
Na3 O11 2.339370 1_565
Na3 O3 2.339924 1_565
Na3 O1 2.343056 1_565
Na3 O5 2.362366 1_655
Na3 O2 2.415774 1_655
Na4 O5 2.392778 1_556
Na4 O3 2.399841 1_555
Na4 O7 2.404836 1_555
Na4 O10 2.427134 1_555
Na4 O9 2.433427 1_555
Na4 O8 2.519888 1_555
Na5 O1 2.346298 1_565
Na5 O6 2.401435 1_555
Na5 O10 2.409277 1_555
Na5 O2 2.424356 1_655
Na5 O7 2.432230 1_555
Na5 O4 2.485830 1_555
Na6 O10 2.314168 1_455
Na6 O7 2.333160 1_545
Na6 O9 2.341686 1_455
Na6 O6 2.363915 1_545
Na6 O8 2.367010 1_545
Na6 O4 2.414123 1_455
Na7 O8 2.366783 1_555
Na7 O11 2.403207 1_555
Na7 O0 2.412247 1_555
Na7 O9 2.415716 1_554
Na7 O3 2.433335 1_555
Na7 O5 2.496548 1_555
O0 Pt0 2.096784 1_455
O0 Pt2 2.117375 1_455
O1 Pt3 2.038345 1_556
O1 Pt2 2.159800 1_545
O2 Pt3 2.039619 1_555
O2 Pt2 2.073906 1_454
O3 Pt1 2.045054 1_655
O3 Pt0 2.157809 1_545
O4 Pt2 2.079626 1_555
O4 Pt3 2.095398 1_656
O5 Pt0 2.053443 1_454
O5 Pt1 2.093812 1_565
O6 Pt2 2.011340 1_554
O6 Pt3 2.154335 1_565
O7 Pt1 2.043653 1_566
O7 Pt3 2.099233 1_566
O8 Pt1 2.051634 1_565
O8 Pt0 2.077760 1_455
O9 Pt0 2.077430 1_545
O9 Pt1 2.138332 1_656
O10 Pt3 2.100904 1_655
O10 Pt1 2.152696 1_655
O11 Pt0 2.006685 1_544
O11 Pt2 2.073031 1_544
