# generated using pymatgen
data_Li2CoOF2
_symmetry_space_group_name_H-M   'P 1'
_cell_length_a   2.95761272
_cell_length_b   12.91288385
_cell_length_c   5.90738990
_cell_angle_alpha   102.88692932
_cell_angle_beta   89.98977748
_cell_angle_gamma   89.99739749
_symmetry_Int_Tables_number   1
_chemical_formula_structural   Li2CoOF2
_chemical_formula_sum   'Li8 Co4 O4 F8'
_cell_volume   219.92828526
_cell_formula_units_Z   4
loop_
 _symmetry_equiv_pos_site_id
 _symmetry_equiv_pos_as_xyz
  1  'x, y, z'
loop_
 _atom_site_type_symbol
 _atom_site_label
 _atom_site_symmetry_multiplicity
 _atom_site_fract_x
 _atom_site_fract_y
 _atom_site_fract_z
 _atom_site_occupancy
  Li  Li0  1  0.00001800  0.99423300  0.99694600  1
  Li  Li1  1  0.99998300  0.99423100  0.49697200  1
  Li  Li2  1  0.50000300  0.50576400  0.50302500  1
  Li  Li3  1  0.50001200  0.50576400  0.00305400  1
  Li  Li4  1  0.00000100  0.67036300  0.83520500  1
  Li  Li5  1  0.00000300  0.67035400  0.33520500  1
  Li  Li6  1  0.50000300  0.82964100  0.66479400  1
  Li  Li7  1  0.50000000  0.82963300  0.16479500  1
  Co  Co0  1  0.49984300  0.16626500  0.33234800  1
  Co  Co1  1  0.99999500  0.33373800  0.66765600  1
  Co  Co2  1  0.50007400  0.16632500  0.83229700  1
  Co  Co3  1  0.00004700  0.33368100  0.16771600  1
  O  O0  1  0.00028300  0.16116300  0.58052700  1
  O  O1  1  0.99961800  0.16110900  0.08049600  1
  O  O2  1  0.50021000  0.33884200  0.41947100  1
  O  O3  1  0.49978400  0.33888600  0.91950200  1
  F  F0  1  0.50012000  0.98946500  0.74404000  1
  F  F1  1  0.49992500  0.98942400  0.24404600  1
  F  F2  1  0.99999500  0.51057400  0.75595000  1
  F  F3  1  0.00006900  0.51053600  0.25594800  1
  F  F4  1  0.50000600  0.66913900  0.58464300  1
  F  F5  1  0.50000500  0.66913800  0.08466100  1
  F  F6  1  0.00000300  0.83086400  0.41536200  1
  F  F7  1  0.00000100  0.83086600  0.91534300  1
loop_
_geom_bond_atom_site_label_1
_geom_bond_atom_site_label_2
_geom_bond_distance
_geom_bond_site_symmetry_2
Li0 O1 2.100615 1_466
Li1 O0 2.101319 1_665
Li2 O2 2.101193 1_555
Li3 O3 2.100640 1_554
Co0 O1 2.087551 1_555
Co0 O1 2.088874 1_455
Co0 O0 2.092630 1_555
Co0 O0 2.094834 1_655
Co0 O2 2.172409 1_555
Co0 F1 2.226044 1_545
Co1 O3 2.087948 1_655
Co1 O3 2.088452 1_555
Co1 O2 2.093495 1_555
Co1 O2 2.094028 1_655
Co1 O0 2.172383 1_655
Co1 F2 2.225981 1_555
Co2 O0 2.087613 1_555
Co2 O0 2.088108 1_655
Co2 O1 2.093322 1_556
Co2 O1 2.094862 1_456
Co2 O3 2.172211 1_555
Co2 F0 2.226282 1_545
Co3 O2 2.087268 1_455
Co3 O2 2.088331 1_555
Co3 O3 2.093396 1_554
Co3 O3 2.094860 1_454
Co3 O1 2.172351 1_455
Co3 F3 2.226218 1_555
F0 Li6 2.011822 1_555
F0 Li1 2.087817 1_555
F0 Li1 2.088756 1_455
F0 Li0 2.093230 1_655
F0 Li0 2.093276 1_555
F1 Li7 2.011407 1_555
F1 Li0 2.088511 1_554
F1 Li0 2.088535 1_654
F1 Li1 2.092960 1_455
F1 Li1 2.093583 1_555
F2 Li4 2.011382 1_655
F2 Li3 2.088324 1_556
F2 Li3 2.088760 1_656
F2 Li2 2.093088 1_655
F2 Li2 2.093436 1_555
F3 Li5 2.011746 1_555
F3 Li2 2.088294 1_455
F3 Li2 2.088383 1_555
F3 Li3 2.092887 1_555
F3 Li3 2.093505 1_455
F4 Li6 2.020372 1_555
F4 Li2 2.056538 1_555
F4 Li4 2.089698 1_555
F4 Li5 2.089954 1_655
F4 Li4 2.090052 1_655
F4 Li5 2.090338 1_555
F5 Li7 2.020283 1_555
F5 Li3 2.056525 1_555
F5 Li5 2.089632 1_555
F5 Li5 2.089999 1_655
F5 Li4 2.090048 1_654
F5 Li4 2.090436 1_554
F6 Li5 2.020473 1_555
F6 Li1 2.056437 1_455
F6 Li7 2.089689 1_555
F6 Li6 2.089952 1_455
F6 Li7 2.090076 1_455
F6 Li6 2.090323 1_555
F7 Li4 2.020384 1_555
F7 Li0 2.056437 1_555
F7 Li6 2.089636 1_555
F7 Li6 2.090002 1_455
F7 Li7 2.090059 1_456
F7 Li7 2.090426 1_556
