# generated using pymatgen
data_KZnAs
_symmetry_space_group_name_H-M   'P 1'
_cell_length_a   4.20899699
_cell_length_b   4.20899710
_cell_length_c   10.22833453
_cell_angle_alpha   90.00000000
_cell_angle_beta   90.00000000
_cell_angle_gamma   120.00000710
_symmetry_Int_Tables_number   1
_chemical_formula_structural   KZnAs
_chemical_formula_sum   'K2 Zn2 As2'
_cell_volume   156.92522707
_cell_formula_units_Z   2
loop_
 _symmetry_equiv_pos_site_id
 _symmetry_equiv_pos_as_xyz
  1  'x, y, z'
loop_
 _atom_site_type_symbol
 _atom_site_label
 _atom_site_symmetry_multiplicity
 _atom_site_fract_x
 _atom_site_fract_y
 _atom_site_fract_z
 _atom_site_occupancy
  K  K0  1  -0.00000000  -0.00000000  0.00000000  1
  K  K1  1  -0.00000000  -0.00000000  0.50000000  1
  Zn  Zn0  1  0.33333300  0.66666700  0.75000000  1
  Zn  Zn1  1  0.66666700  0.33333300  0.25000000  1
  As  As0  1  0.33333300  0.66666700  0.25000000  1
  As  As1  1  0.66666700  0.33333300  0.75000000  1
loop_
_geom_bond_atom_site_label_1
_geom_bond_atom_site_label_2
_geom_bond_distance
_geom_bond_site_symmetry_2
K0 Zn0 3.527589 1_544
K0 Zn1 3.527589 1_455
K0 Zn1 3.527591 1_555
K0 Zn0 3.527591 1_444
K0 Zn0 3.527591 1_554
K0 Zn1 3.527591 1_445
K1 Zn0 3.527589 1_545
K1 Zn1 3.527589 1_455
K1 Zn1 3.527591 1_555
K1 Zn0 3.527591 1_445
K1 Zn0 3.527591 1_555
K1 Zn1 3.527591 1_445
As0 Zn1 2.430063 1_455
As0 Zn1 2.430063 1_565
As0 Zn1 2.430071 1_555
As0 K0 3.527589 1_565
As0 K1 3.527589 1_565
As0 K0 3.527591 1_665
As0 K1 3.527591 1_665
As0 K0 3.527591 1_555
As0 K1 3.527591 1_555
As1 Zn0 2.430063 1_655
As1 Zn0 2.430063 1_545
As1 Zn0 2.430071 1_555
As1 K0 3.527589 1_656
As1 K1 3.527589 1_655
As1 K1 3.527591 1_555
As1 K0 3.527591 1_556
As1 K0 3.527591 1_666
As1 K1 3.527591 1_665
