# generated using pymatgen
data_Tb2Bi2O7
_symmetry_space_group_name_H-M   'P 1'
_cell_length_a   7.73880147
_cell_length_b   7.73880147
_cell_length_c   7.73880147
_cell_angle_alpha   60.00000000
_cell_angle_beta   60.00000000
_cell_angle_gamma   60.00000000
_symmetry_Int_Tables_number   1
_chemical_formula_structural   Tb2Bi2O7
_chemical_formula_sum   'Tb4 Bi4 O14'
_cell_volume   327.72239434
_cell_formula_units_Z   2
loop_
 _symmetry_equiv_pos_site_id
 _symmetry_equiv_pos_as_xyz
  1  'x, y, z'
loop_
 _atom_site_type_symbol
 _atom_site_label
 _atom_site_symmetry_multiplicity
 _atom_site_fract_x
 _atom_site_fract_y
 _atom_site_fract_z
 _atom_site_occupancy
  Tb  Tb0  1  0.12500000  0.62500000  0.12500000  1
  Tb  Tb1  1  0.12500000  0.12500000  0.62500000  1
  Tb  Tb2  1  0.62500000  0.12500000  0.12500000  1
  Tb  Tb3  1  0.12500000  0.12500000  0.12500000  1
  Bi  Bi0  1  0.62500000  0.62500000  0.62500000  1
  Bi  Bi1  1  0.12500000  0.62500000  0.62500000  1
  Bi  Bi2  1  0.62500000  0.12500000  0.62500000  1
  Bi  Bi3  1  0.62500000  0.62500000  0.12500000  1
  O  O0  1  0.27255400  0.72744600  0.72744600  1
  O  O1  1  0.52255400  0.97744600  0.97744600  1
  O  O2  1  0.72744600  0.27255400  0.72744600  1
  O  O3  1  0.72744600  0.72744600  0.27255400  1
  O  O4  1  0.00000000  0.00000000  0.00000000  1
  O  O5  1  0.27255400  0.72744600  0.27255400  1
  O  O6  1  0.27255400  0.27255400  0.72744600  1
  O  O7  1  0.97744600  0.52255400  0.97744600  1
  O  O8  1  0.97744600  0.97744600  0.52255400  1
  O  O9  1  0.25000000  0.25000000  0.25000000  1
  O  O10  1  0.52255400  0.52255400  0.97744600  1
  O  O11  1  0.52255400  0.97744600  0.52255400  1
  O  O12  1  0.72744600  0.27255400  0.27255400  1
  O  O13  1  0.97744600  0.52255400  0.52255400  1
loop_
_geom_bond_atom_site_label_1
_geom_bond_atom_site_label_2
_geom_bond_distance
_geom_bond_site_symmetry_2
Bi0 O11 2.236103 1_555
Bi0 O13 2.236103 1_555
Bi0 O10 2.236103 1_555
Bi0 O0 2.236103 1_555
Bi0 O2 2.236103 1_555
Bi0 O3 2.236103 1_555
Bi1 O0 2.236103 1_555
Bi1 O7 2.236103 1_455
Bi1 O8 2.236103 1_455
Bi1 O5 2.236103 1_555
Bi1 O6 2.236103 1_555
Bi1 O13 2.236103 1_455
Bi2 O2 2.236103 1_555
Bi2 O1 2.236103 1_545
Bi2 O8 2.236103 1_545
Bi2 O12 2.236103 1_555
Bi2 O6 2.236103 1_555
Bi2 O11 2.236103 1_545
Bi3 O3 2.236103 1_555
Bi3 O1 2.236103 1_554
Bi3 O7 2.236103 1_554
Bi3 O5 2.236103 1_555
Bi3 O12 2.236103 1_555
Bi3 O10 2.236103 1_554
O0 Tb1 2.520098 1_565
O0 Tb0 2.520098 1_556
O1 Tb3 2.520098 1_566
O1 Tb2 2.520098 1_566
O2 Tb1 2.520098 1_655
O2 Tb2 2.520098 1_556
O3 Tb2 2.520098 1_565
O3 Tb0 2.520098 1_655
O4 Tb1 2.369514 1_554
O4 Tb3 2.369514 1_555
O4 Tb0 2.369514 1_545
O4 Tb2 2.369514 1_455
O5 Tb0 2.520098 1_555
O5 Tb3 2.520098 1_565
O6 Tb1 2.520098 1_555
O6 Tb3 2.520098 1_556
O7 Tb3 2.520098 1_656
O7 Tb0 2.520098 1_656
O8 Tb3 2.520098 1_665
O8 Tb1 2.520098 1_665
O9 Tb3 2.369514 1_555
O9 Tb0 2.369514 1_555
O9 Tb2 2.369514 1_555
O9 Tb1 2.369514 1_555
O10 Tb2 2.520098 1_556
O10 Tb0 2.520098 1_556
O11 Tb2 2.520098 1_565
O11 Tb1 2.520098 1_565
O12 Tb2 2.520098 1_555
O12 Tb3 2.520098 1_655
O13 Tb1 2.520098 1_655
O13 Tb0 2.520098 1_655
