# generated using pymatgen
data_Mn2FeO4
_symmetry_space_group_name_H-M   'P 1'
_cell_length_a   5.81652479
_cell_length_b   5.81651558
_cell_length_c   6.30562613
_cell_angle_alpha   62.75311285
_cell_angle_beta   62.75495972
_cell_angle_gamma   90.42330759
_symmetry_Int_Tables_number   1
_chemical_formula_structural   Mn2FeO4
_chemical_formula_sum   'Mn4 Fe2 O8'
_cell_volume   162.14111294
_cell_formula_units_Z   2
loop_
 _symmetry_equiv_pos_site_id
 _symmetry_equiv_pos_as_xyz
  1  'x, y, z'
loop_
 _atom_site_type_symbol
 _atom_site_label
 _atom_site_symmetry_multiplicity
 _atom_site_fract_x
 _atom_site_fract_y
 _atom_site_fract_z
 _atom_site_occupancy
  Mn  Mn0  1  0.37488100  0.62518400  0.74962500  1
  Mn  Mn1  1  0.37481000  0.12449500  0.25039000  1
  Mn  Mn2  1  0.37520100  0.62483200  0.24961500  1
  Mn  Mn3  1  0.87445500  0.62482000  0.75036700  1
  Fe  Fe0  1  0.74879000  0.24881100  0.50000200  1
  Fe  Fe1  1  0.99873900  0.99876300  0.99999900  1
  O  O0  1  0.61755500  0.84337500  0.76650800  1
  O  O1  1  0.60989200  0.38405900  0.23349000  1
  O  O2  1  0.14183400  0.86678500  0.26545100  1
  O  O3  1  0.15733800  0.38225200  0.23453600  1
  O  O4  1  0.13406300  0.85993400  0.73347500  1
  O  O5  1  0.61679300  0.39187400  0.76546700  1
  O  O6  1  0.13224500  0.40728000  0.73454800  1
  O  O7  1  0.59340500  0.86753500  0.26652800  1
loop_
_geom_bond_atom_site_label_1
_geom_bond_atom_site_label_2
_geom_bond_distance
_geom_bond_site_symmetry_2
Mn0 O6 1.952936 1_555
Mn0 O0 1.961935 1_555
Mn0 O5 1.965768 1_555
Mn0 O4 1.966808 1_555
Mn0 O7 2.319204 1_555
Mn0 O3 2.328537 1_556
Mn1 O2 1.952965 1_545
Mn1 O1 1.961929 1_555
Mn1 O3 1.965796 1_555
Mn1 O7 1.966753 1_545
Mn1 O4 2.319144 1_545
Mn1 O5 2.328596 1_554
Mn2 O3 1.952545 1_555
Mn2 O7 1.962239 1_555
Mn2 O2 1.966170 1_555
Mn2 O1 1.966376 1_555
Mn2 O0 2.319253 1_554
Mn2 O6 2.328649 1_555
Mn3 O5 1.952491 1_555
Mn3 O4 1.962274 1_655
Mn3 O6 1.966210 1_655
Mn3 O0 1.966342 1_555
Mn3 O1 2.319325 1_556
Mn3 O2 2.328569 1_655
Fe0 O1 2.034136 1_555
Fe0 O0 2.034244 1_545
Fe0 O5 2.047458 1_555
Fe0 O3 2.047547 1_655
Fe1 O7 2.033841 1_556
Fe1 O4 2.033928 1_655
Fe1 O6 2.047353 1_665
Fe1 O2 2.047499 1_656
