# generated using pymatgen
data_Li2Mn5O12
_symmetry_space_group_name_H-M   'P 1'
_cell_length_a   5.82600699
_cell_length_b   5.82600699
_cell_length_c   13.05433654
_cell_angle_alpha   77.15690656
_cell_angle_beta   77.15690656
_cell_angle_gamma   89.98175262
_symmetry_Int_Tables_number   1
_chemical_formula_structural   Li2Mn5O12
_chemical_formula_sum   'Li4 Mn10 O24'
_cell_volume   420.63994402
_cell_formula_units_Z   2
loop_
 _symmetry_equiv_pos_site_id
 _symmetry_equiv_pos_as_xyz
  1  'x, y, z'
loop_
 _atom_site_type_symbol
 _atom_site_label
 _atom_site_symmetry_multiplicity
 _atom_site_fract_x
 _atom_site_fract_y
 _atom_site_fract_z
 _atom_site_occupancy
  Li  Li0  1  0.65962300  0.92097200  0.67018900  1
  Li  Li1  1  0.92097200  0.65962300  0.17018900  1
  Li  Li2  1  0.99977600  0.25343200  0.99649500  1
  Li  Li3  1  0.25343200  0.99977600  0.49649500  1
  Mn  Mn0  1  0.46531600  0.45602600  0.58046000  1
  Mn  Mn1  1  0.79174500  0.79182000  0.41612100  1
  Mn  Mn2  1  0.12140400  0.12674100  0.25289000  1
  Mn  Mn3  1  0.95673700  0.45610900  0.58076200  1
  Mn  Mn4  1  0.79182000  0.79174500  0.91612100  1
  Mn  Mn5  1  0.45602600  0.46531600  0.08046000  1
  Mn  Mn6  1  0.45610900  0.95673700  0.08076200  1
  Mn  Mn7  1  0.12713200  0.62424300  0.75249500  1
  Mn  Mn8  1  0.12674100  0.12140400  0.75289000  1
  Mn  Mn9  1  0.62424300  0.12713200  0.25249500  1
  O  O0  1  0.33505300  0.87945200  0.74162100  1
  O  O1  1  0.34827100  0.37872600  0.74202000  1
  O  O2  1  0.87945200  0.33505300  0.24162100  1
  O  O3  1  0.87063400  0.89281400  0.25893400  1
  O  O4  1  0.71257700  0.69084800  0.57485300  1
  O  O5  1  0.70406300  0.24622600  0.59145400  1
  O  O6  1  0.55712800  0.55119200  0.93167100  1
  O  O7  1  0.55738300  0.01655500  0.93076900  1
  O  O8  1  0.03671400  0.02234700  0.40206400  1
  O  O9  1  0.01655500  0.55738300  0.43076900  1
  O  O10  1  0.23236100  0.20578600  0.08893300  1
  O  O11  1  0.89281400  0.87063400  0.75893400  1
  O  O12  1  0.91414100  0.38126500  0.73764200  1
  O  O13  1  0.24622600  0.70406300  0.09145400  1
  O  O14  1  0.02260600  0.56247100  0.90244400  1
  O  O15  1  0.02234700  0.03671400  0.90206400  1
  O  O16  1  0.37872600  0.34827100  0.24202000  1
  O  O17  1  0.38126500  0.91414100  0.23764200  1
  O  O18  1  0.20383800  0.67528600  0.59241300  1
  O  O19  1  0.20578600  0.23236100  0.58893300  1
  O  O20  1  0.67528600  0.20383800  0.09241300  1
  O  O21  1  0.69084800  0.71257700  0.07485300  1
  O  O22  1  0.56247100  0.02260600  0.40244400  1
  O  O23  1  0.55119200  0.55712800  0.43167100  1
loop_
_geom_bond_atom_site_label_1
_geom_bond_atom_site_label_2
_geom_bond_distance
_geom_bond_site_symmetry_2
Li0 O0 1.902592 1_555
Li0 O5 1.931420 1_565
Li0 O11 1.955064 1_555
Li0 O4 2.003097 1_555
Li1 O2 1.902592 1_555
Li1 O13 1.931420 1_655
Li1 O3 1.955064 1_555
Li1 O21 2.003097 1_555
Li2 O14 1.926553 1_655
Li2 O15 1.936713 1_655
Li2 O10 1.986739 1_656
Li2 O20 2.003105 1_556
Li3 O22 1.926553 1_565
Li3 O8 1.936713 1_565
Li3 O19 1.986739 1_565
Li3 O18 2.003105 1_555
Mn0 O23 1.851892 1_555
Mn0 O5 1.859839 1_555
Mn0 O19 1.964505 1_555
Mn0 O4 1.965201 1_555
Mn0 O18 1.989595 1_555
Mn0 O1 2.013584 1_555
Mn1 O9 1.900417 1_655
Mn1 O22 1.903185 1_565
Mn1 O23 1.904263 1_555
Mn1 O8 1.910383 1_665
Mn1 O3 1.952482 1_555
Mn1 O4 1.971278 1_555
Mn2 O8 1.857982 1_555
Mn2 O2 1.869030 1_455
Mn2 O16 1.938710 1_555
Mn2 O17 1.959659 1_545
Mn2 O3 1.974922 1_445
Mn2 O10 2.039106 1_555
Mn3 O9 1.867281 1_655
Mn3 O5 1.874999 1_555
Mn3 O19 1.954920 1_655
Mn3 O12 1.955252 1_555
Mn3 O4 1.974928 1_555
Mn3 O18 1.977628 1_655
Mn4 O7 1.900417 1_565
Mn4 O14 1.903185 1_655
Mn4 O6 1.904263 1_555
Mn4 O15 1.910383 1_665
Mn4 O11 1.952482 1_555
Mn4 O21 1.971278 1_556
Mn5 O6 1.851892 1_554
Mn5 O13 1.859839 1_555
Mn5 O10 1.964505 1_555
Mn5 O21 1.965201 1_555
Mn5 O20 1.989595 1_555
Mn5 O16 2.013584 1_555
Mn6 O7 1.867281 1_564
Mn6 O13 1.874999 1_555
Mn6 O10 1.954920 1_565
Mn6 O17 1.955252 1_555
Mn6 O21 1.974928 1_555
Mn6 O20 1.977628 1_565
Mn7 O14 1.867920 1_555
Mn7 O0 1.878593 1_555
Mn7 O1 1.931844 1_555
Mn7 O12 1.952281 1_455
Mn7 O11 1.983088 1_455
Mn7 O18 1.990953 1_555
Mn8 O15 1.857982 1_555
Mn8 O0 1.869030 1_545
Mn8 O1 1.938710 1_555
Mn8 O12 1.959659 1_455
Mn8 O11 1.974922 1_445
Mn8 O19 2.039106 1_555
Mn9 O22 1.867920 1_555
Mn9 O2 1.878593 1_555
Mn9 O16 1.931844 1_555
Mn9 O17 1.952281 1_545
Mn9 O3 1.983088 1_545
Mn9 O20 1.990953 1_555
