# generated using pymatgen
data_Li2Sn2(SO4)3
_symmetry_space_group_name_H-M   'P 1'
_cell_length_a   9.20909900
_cell_length_b   9.36440600
_cell_length_c   26.61450000
_cell_angle_alpha   90.00000000
_cell_angle_beta   90.00000000
_cell_angle_gamma   90.00000000
_symmetry_Int_Tables_number   1
_chemical_formula_structural   Li2Sn2(SO4)3
_chemical_formula_sum   'Li16 Sn16 S24 O96'
_cell_volume   2295.17438260
_cell_formula_units_Z   8
loop_
 _symmetry_equiv_pos_site_id
 _symmetry_equiv_pos_as_xyz
  1  'x, y, z'
loop_
 _atom_site_type_symbol
 _atom_site_label
 _atom_site_symmetry_multiplicity
 _atom_site_fract_x
 _atom_site_fract_y
 _atom_site_fract_z
 _atom_site_occupancy
  Li  Li0  1  0.04490000  0.62087800  0.28940700  1
  Li  Li1  1  0.04490000  0.87912200  0.78940700  1
  Li  Li2  1  0.12777100  0.92561700  0.01215800  1
  Li  Li3  1  0.12777100  0.57438300  0.51215800  1
  Li  Li4  1  0.37222900  0.07438300  0.51215800  1
  Li  Li5  1  0.37222900  0.42561700  0.01215800  1
  Li  Li6  1  0.45510000  0.12087800  0.28940700  1
  Li  Li7  1  0.45510000  0.37912200  0.78940700  1
  Li  Li8  1  0.54490000  0.62087800  0.21059300  1
  Li  Li9  1  0.54490000  0.87912200  0.71059300  1
  Li  Li10  1  0.62777100  0.57438300  0.98784200  1
  Li  Li11  1  0.62777100  0.92561700  0.48784200  1
  Li  Li12  1  0.87222900  0.42561700  0.48784200  1
  Li  Li13  1  0.87222900  0.07438300  0.98784200  1
  Li  Li14  1  0.95510000  0.12087800  0.21059300  1
  Li  Li15  1  0.95510000  0.37912200  0.71059300  1
  Sn  Sn0  1  0.00001700  0.40753100  0.07005500  1
  Sn  Sn1  1  0.00001700  0.09246900  0.57005500  1
  Sn  Sn2  1  0.99740700  0.78589400  0.17367300  1
  Sn  Sn3  1  0.99740700  0.71410600  0.67367300  1
  Sn  Sn4  1  0.50259300  0.28589400  0.17367300  1
  Sn  Sn5  1  0.50259300  0.21410600  0.67367300  1
  Sn  Sn6  1  0.49998300  0.59246900  0.57005500  1
  Sn  Sn7  1  0.49998300  0.90753100  0.07005500  1
  Sn  Sn8  1  0.50001700  0.40753100  0.42994500  1
  Sn  Sn9  1  0.50001700  0.09246900  0.92994500  1
  Sn  Sn10  1  0.49740700  0.71410600  0.82632700  1
  Sn  Sn11  1  0.49740700  0.78589400  0.32632700  1
  Sn  Sn12  1  0.00259300  0.28589400  0.32632700  1
  Sn  Sn13  1  0.00259300  0.21410600  0.82632700  1
  Sn  Sn14  1  0.99998300  0.90753100  0.42994500  1
  Sn  Sn15  1  0.99998300  0.59246900  0.92994500  1
  S  S0  1  0.14780000  0.94266000  0.29306200  1
  S  S1  1  0.14780000  0.55734000  0.79306200  1
  S  S2  1  0.15426400  0.26105200  0.45689800  1
  S  S3  1  0.15426400  0.23894800  0.95689800  1
  S  S4  1  0.17537600  0.08696400  0.11343700  1
  S  S5  1  0.17537600  0.41303600  0.61343700  1
  S  S6  1  0.32462400  0.58696400  0.11343700  1
  S  S7  1  0.32462400  0.91303600  0.61343700  1
  S  S8  1  0.34573600  0.76105200  0.45689800  1
  S  S9  1  0.34573600  0.73894800  0.95689800  1
  S  S10  1  0.35220000  0.44266000  0.29306200  1
  S  S11  1  0.35220000  0.05734000  0.79306200  1
  S  S12  1  0.64780000  0.55734000  0.70693800  1
  S  S13  1  0.64780000  0.94266000  0.20693800  1
  S  S14  1  0.65426400  0.26105200  0.04310200  1
  S  S15  1  0.65426400  0.23894800  0.54310200  1
  S  S16  1  0.67537600  0.08696400  0.38656300  1
  S  S17  1  0.67537600  0.41303600  0.88656300  1
  S  S18  1  0.82462400  0.58696400  0.38656300  1
  S  S19  1  0.82462400  0.91303600  0.88656300  1
  S  S20  1  0.84573600  0.76105200  0.04310200  1
  S  S21  1  0.84573600  0.73894800  0.54310200  1
  S  S22  1  0.85220000  0.44266000  0.20693800  1
  S  S23  1  0.85220000  0.05734000  0.70693800  1
  O  O0  1  0.08378900  0.39854100  0.47053200  1
  O  O1  1  0.08378900  0.10145900  0.97053200  1
  O  O2  1  0.07206500  0.06603500  0.26911100  1
  O  O3  1  0.07206500  0.43396500  0.76911100  1
  O  O4  1  0.08131900  0.13895600  0.48369400  1
  O  O5  1  0.08131900  0.36104400  0.98369400  1
  O  O6  1  0.09803100  0.92704800  0.34555600  1
  O  O7  1  0.09803100  0.57295200  0.84555600  1
  O  O8  1  0.08209800  0.18355000  0.08279600  1
  O  O9  1  0.08209800  0.31645000  0.58279600  1
  O  O10  1  0.11542100  0.80814200  0.26455700  1
  O  O11  1  0.11542100  0.69185800  0.76455700  1
  O  O12  1  0.08556500  0.03025400  0.15621600  1
  O  O13  1  0.08556500  0.46974600  0.65621600  1
  O  O14  1  0.14685200  0.23681900  0.40194900  1
  O  O15  1  0.14685200  0.26318100  0.90194900  1
  O  O16  1  0.19195200  0.46924500  0.29209700  1
  O  O17  1  0.19195200  0.03075500  0.79209700  1
  O  O18  1  0.19627800  0.66244500  0.13351900  1
  O  O19  1  0.19627800  0.83755500  0.63351900  1
  O  O20  1  0.19015800  0.76029700  0.47385900  1
  O  O21  1  0.19015800  0.73970300  0.97385900  1
  O  O22  1  0.27768400  0.03354900  0.58022900  1
  O  O23  1  0.27768400  0.46645100  0.08022900  1
  O  O24  1  0.22231600  0.53354900  0.58022900  1
  O  O25  1  0.22231600  0.96645100  0.08022900  1
  O  O26  1  0.30984200  0.23970300  0.97385900  1
  O  O27  1  0.30984200  0.26029700  0.47385900  1
  O  O28  1  0.30372200  0.16244500  0.13351900  1
  O  O29  1  0.30372200  0.33755500  0.63351900  1
  O  O30  1  0.30804800  0.96924500  0.29209700  1
  O  O31  1  0.30804800  0.53075500  0.79209700  1
  O  O32  1  0.35314800  0.73681900  0.40194900  1
  O  O33  1  0.35314800  0.76318100  0.90194900  1
  O  O34  1  0.41443500  0.96974600  0.65621600  1
  O  O35  1  0.41443500  0.53025400  0.15621600  1
  O  O36  1  0.38457900  0.30814200  0.26455700  1
  O  O37  1  0.38457900  0.19185800  0.76455700  1
  O  O38  1  0.41790200  0.68355000  0.08279600  1
  O  O39  1  0.41790200  0.81645000  0.58279600  1
  O  O40  1  0.40196900  0.07295200  0.84555600  1
  O  O41  1  0.40196900  0.42704800  0.34555600  1
  O  O42  1  0.41868100  0.86104400  0.98369400  1
  O  O43  1  0.41868100  0.63895600  0.48369400  1
  O  O44  1  0.42793500  0.56603500  0.26911100  1
  O  O45  1  0.42793500  0.93396500  0.76911100  1
  O  O46  1  0.41621100  0.60145900  0.97053200  1
  O  O47  1  0.41621100  0.89854100  0.47053200  1
  O  O48  1  0.58378900  0.39854100  0.02946800  1
  O  O49  1  0.58378900  0.10145900  0.52946800  1
  O  O50  1  0.57206500  0.06603500  0.23088900  1
  O  O51  1  0.57206500  0.43396500  0.73088900  1
  O  O52  1  0.58131900  0.13895600  0.01630600  1
  O  O53  1  0.58131900  0.36104400  0.51630600  1
  O  O54  1  0.59803100  0.57295200  0.65444400  1
  O  O55  1  0.59803100  0.92704800  0.15444400  1
  O  O56  1  0.58209800  0.18355000  0.41720400  1
  O  O57  1  0.58209800  0.31645000  0.91720400  1
  O  O58  1  0.61542100  0.80814200  0.23544300  1
  O  O59  1  0.61542100  0.69185800  0.73544300  1
  O  O60  1  0.58556500  0.03025400  0.34378400  1
  O  O61  1  0.58556500  0.46974600  0.84378400  1
  O  O62  1  0.64685200  0.23681900  0.09805100  1
  O  O63  1  0.64685200  0.26318100  0.59805100  1
  O  O64  1  0.69195200  0.46924500  0.20790300  1
  O  O65  1  0.69195200  0.03075500  0.70790300  1
  O  O66  1  0.69627800  0.66244500  0.36648100  1
  O  O67  1  0.69627800  0.83755500  0.86648100  1
  O  O68  1  0.69015800  0.76029700  0.02614100  1
  O  O69  1  0.69015800  0.73970300  0.52614100  1
  O  O70  1  0.77768400  0.46645100  0.41977100  1
  O  O71  1  0.77768400  0.03354900  0.91977100  1
  O  O72  1  0.72231600  0.96645100  0.41977100  1
  O  O73  1  0.72231600  0.53354900  0.91977100  1
  O  O74  1  0.80984200  0.26029700  0.02614100  1
  O  O75  1  0.80984200  0.23970300  0.52614100  1
  O  O76  1  0.80372200  0.16244500  0.36648100  1
  O  O77  1  0.80372200  0.33755500  0.86648100  1
  O  O78  1  0.80804800  0.53075500  0.70790300  1
  O  O79  1  0.80804800  0.96924500  0.20790300  1
  O  O80  1  0.85314800  0.73681900  0.09805100  1
  O  O81  1  0.85314800  0.76318100  0.59805100  1
  O  O82  1  0.91443500  0.53025400  0.34378400  1
  O  O83  1  0.91443500  0.96974600  0.84378400  1
  O  O84  1  0.88457900  0.30814200  0.23544300  1
  O  O85  1  0.88457900  0.19185800  0.73544300  1
  O  O86  1  0.91790200  0.68355000  0.41720400  1
  O  O87  1  0.91790200  0.81645000  0.91720400  1
  O  O88  1  0.90196900  0.42704800  0.15444400  1
  O  O89  1  0.90196900  0.07295200  0.65444400  1
  O  O90  1  0.91868100  0.63895600  0.01630600  1
  O  O91  1  0.91868100  0.86104400  0.51630600  1
  O  O92  1  0.92793500  0.56603500  0.23088900  1
  O  O93  1  0.92793500  0.93396500  0.73088900  1
  O  O94  1  0.91621100  0.60145900  0.52946800  1
  O  O95  1  0.91621100  0.89854100  0.02946800  1
loop_
_geom_bond_atom_site_label_1
_geom_bond_atom_site_label_2
_geom_bond_distance
_geom_bond_site_symmetry_2
Li0 O92 1.962033 1_455
Li0 O16 1.963490 1_555
Li0 O10 1.983519 1_555
Li0 O82 2.063527 1_455
Li1 O93 1.962033 1_455
Li1 O17 1.963490 1_565
Li1 O11 1.983519 1_555
Li1 O83 2.063527 1_455
Li2 O95 2.017997 1_455
Li2 O1 2.025555 1_564
Li2 O25 2.046084 1_555
Li2 O21 2.097633 1_554
Li3 O94 2.017997 1_455
Li3 O0 2.025555 1_555
Li3 O24 2.046084 1_555
Li3 O20 2.097633 1_555
Li4 O49 2.017997 1_555
Li4 O47 2.025555 1_545
Li4 O22 2.046084 1_555
Li4 O27 2.097633 1_555
Li5 O48 2.017997 1_555
Li5 O46 2.025555 1_554
Li5 O23 2.046084 1_555
Li5 O26 2.097633 1_554
Li6 O50 1.962033 1_555
Li6 O30 1.963490 1_545
Li6 O36 1.983519 1_555
Li6 O60 2.063527 1_555
Li7 O51 1.962033 1_555
Li7 O31 1.963490 1_555
Li7 O37 1.983519 1_555
Li7 O61 2.063527 1_555
Li8 O44 1.962033 1_555
Li8 O64 1.963490 1_555
Li8 O58 1.983519 1_555
Li8 O35 2.063527 1_555
Li9 O45 1.962033 1_555
Li9 O65 1.963490 1_565
Li9 O59 1.983519 1_555
Li9 O34 2.063527 1_555
Li10 O46 2.017997 1_555
Li10 O48 2.025555 1_556
Li10 O73 2.046084 1_555
Li10 O68 2.097633 1_556
Li11 O47 2.017997 1_555
Li11 O49 2.025555 1_565
Li11 O72 2.046084 1_555
Li11 O69 2.097633 1_555
Li12 O0 2.017997 1_655
Li12 O94 2.025555 1_555
Li12 O70 2.046084 1_555
Li12 O75 2.097633 1_555
Li13 O1 2.017997 1_655
Li13 O95 2.025555 1_546
Li13 O71 2.046084 1_555
Li13 O74 2.097633 1_556
Li14 O2 1.962033 1_655
Li14 O79 1.963490 1_545
Li14 O84 1.983519 1_555
Li14 O12 2.063527 1_655
Li15 O3 1.962033 1_655
Li15 O78 1.963490 1_555
Li15 O85 1.983519 1_555
Li15 O13 2.063527 1_655
O0 S2 1.486791 1_555
O1 S3 1.486791 1_555
O2 S0 1.492504 1_545
O2 Sn12 2.639510 1_555
O3 S1 1.492504 1_555
O3 Sn13 2.639510 1_555
O4 S2 1.505697 1_555
O4 Sn1 2.456212 1_555
O4 Sn14 2.702584 1_445
O5 S3 1.505697 1_555
O5 Sn0 2.456212 1_556
O5 Sn15 2.702584 1_455
O6 S0 1.477610 1_555
O6 Sn14 2.427566 1_455
O7 S1 1.477610 1_555
O7 Sn15 2.427566 1_455
O8 S4 1.490299 1_555
O8 Sn0 2.255139 1_555
O9 S5 1.490299 1_555
O9 Sn1 2.255139 1_555
O10 S0 1.500418 1_555
O10 Sn2 2.659943 1_455
O11 S1 1.500418 1_555
O11 Sn3 2.659943 1_455
O12 S4 1.504113 1_555
O12 Sn2 2.472089 1_445
O13 S5 1.504113 1_555
O13 Sn3 2.472089 1_455
O14 S2 1.481515 1_555
O14 Sn12 2.454958 1_555
O15 S3 1.481515 1_555
O15 Sn13 2.454958 1_555
O16 S10 1.496812 1_555
O16 Sn12 2.611297 1_555
O17 S11 1.496812 1_555
O17 Sn13 2.611297 1_555
O18 S6 1.477256 1_555
O18 Sn2 2.415074 1_455
O19 S7 1.477256 1_555
O19 Sn3 2.415074 1_455
O20 S8 1.502180 1_555
O20 Sn14 2.516773 1_455
O21 S9 1.502180 1_555
O21 Sn15 2.516773 1_455
O22 S7 1.497189 1_545
O22 Sn1 2.629890 1_555
O23 S6 1.497189 1_555
O23 Sn0 2.629890 1_555
O24 S5 1.497189 1_555
O24 Sn6 2.629890 1_555
O25 S4 1.497189 1_565
O25 Sn7 2.629890 1_555
O26 S3 1.502180 1_555
O26 Sn9 2.516773 1_555
O27 S2 1.502180 1_555
O27 Sn8 2.516773 1_555
O28 S4 1.477256 1_555
O28 Sn4 2.415074 1_555
O29 S5 1.477256 1_555
O29 Sn5 2.415074 1_555
O30 S0 1.496812 1_555
O30 Sn11 2.611297 1_555
O31 S1 1.496812 1_555
O31 Sn10 2.611297 1_555
O32 S8 1.481515 1_555
O32 Sn11 2.454958 1_555
O33 S9 1.481515 1_555
O33 Sn10 2.454958 1_555
O34 S7 1.504113 1_555
O34 Sn5 2.472089 1_565
O35 S6 1.504113 1_555
O35 Sn4 2.472089 1_555
O36 S10 1.500418 1_555
O36 Sn4 2.659943 1_555
O37 S11 1.500418 1_555
O37 Sn5 2.659943 1_555
O38 S6 1.490299 1_555
O38 Sn7 2.255139 1_555
O39 S7 1.490299 1_555
O39 Sn6 2.255139 1_555
O40 S11 1.477610 1_555
O40 Sn9 2.427566 1_555
O41 S10 1.477610 1_555
O41 Sn8 2.427566 1_555
O42 S9 1.505697 1_555
O42 Sn7 2.456212 1_556
O42 Sn9 2.702584 1_565
O43 S8 1.505697 1_555
O43 Sn6 2.456212 1_555
O43 Sn8 2.702584 1_555
O44 S10 1.492504 1_555
O44 Sn11 2.639510 1_555
O45 S11 1.492504 1_565
O45 Sn10 2.639510 1_555
O46 S9 1.486791 1_555
O47 S8 1.486791 1_555
O48 S14 1.486791 1_555
O49 S15 1.486791 1_555
O50 S13 1.492504 1_545
O50 Sn4 2.639510 1_555
O51 S12 1.492504 1_555
O51 Sn5 2.639510 1_555
O52 S14 1.505697 1_555
O52 Sn9 2.456212 1_554
O52 Sn7 2.702584 1_545
O53 S15 1.505697 1_555
O53 Sn8 2.456212 1_555
O53 Sn6 2.702584 1_555
O54 S12 1.477610 1_555
O54 Sn6 2.427566 1_555
O55 S13 1.477610 1_555
O55 Sn7 2.427566 1_555
O56 S16 1.490299 1_555
O56 Sn8 2.255139 1_555
O57 S17 1.490299 1_555
O57 Sn9 2.255139 1_555
O58 S13 1.500418 1_555
O58 Sn11 2.659943 1_555
O59 S12 1.500418 1_555
O59 Sn10 2.659943 1_555
O60 S16 1.504113 1_555
O60 Sn11 2.472089 1_545
O61 S17 1.504113 1_555
O61 Sn10 2.472089 1_555
O62 S14 1.481515 1_555
O62 Sn4 2.454958 1_555
O63 S15 1.481515 1_555
O63 Sn5 2.454958 1_555
O64 S22 1.496812 1_555
O64 Sn4 2.611297 1_555
O65 S23 1.496812 1_555
O65 Sn5 2.611297 1_555
O66 S18 1.477256 1_555
O66 Sn11 2.415074 1_555
O67 S19 1.477256 1_555
O67 Sn10 2.415074 1_555
O68 S20 1.502180 1_555
O68 Sn7 2.516773 1_555
O69 S21 1.502180 1_555
O69 Sn6 2.516773 1_555
O70 S18 1.497189 1_555
O70 Sn8 2.629890 1_555
O71 S19 1.497189 1_545
O71 Sn9 2.629890 1_555
O72 S16 1.497189 1_565
O72 Sn14 2.629890 1_555
O73 S17 1.497189 1_555
O73 Sn15 2.629890 1_555
O74 S14 1.502180 1_555
O74 Sn0 2.516773 1_655
O75 S15 1.502180 1_555
O75 Sn1 2.516773 1_655
O76 S16 1.477256 1_555
O76 Sn12 2.415074 1_655
O77 S17 1.477256 1_555
O77 Sn13 2.415074 1_655
O78 S12 1.496812 1_555
O78 Sn3 2.611297 1_555
O79 S13 1.496812 1_555
O79 Sn2 2.611297 1_555
O80 S20 1.481515 1_555
O80 Sn2 2.454958 1_555
O81 S21 1.481515 1_555
O81 Sn3 2.454958 1_555
O82 S18 1.504113 1_555
O82 Sn12 2.472089 1_655
O83 S19 1.504113 1_555
O83 Sn13 2.472089 1_665
O84 S22 1.500418 1_555
O84 Sn12 2.659943 1_655
O85 S23 1.500418 1_555
O85 Sn13 2.659943 1_655
O86 S18 1.490299 1_555
O86 Sn14 2.255139 1_555
O87 S19 1.490299 1_555
O87 Sn15 2.255139 1_555
O88 S22 1.477610 1_555
O88 Sn0 2.427566 1_655
O89 S23 1.477610 1_555
O89 Sn1 2.427566 1_655
O90 S20 1.505697 1_555
O90 Sn15 2.456212 1_554
O90 Sn0 2.702584 1_655
O91 S21 1.505697 1_555
O91 Sn14 2.456212 1_555
O91 Sn1 2.702584 1_665
O92 S22 1.492504 1_555
O92 Sn2 2.639510 1_555
O93 S23 1.492504 1_565
O93 Sn3 2.639510 1_555
O94 S21 1.486791 1_555
O95 S20 1.486791 1_555
