# generated using pymatgen
data_Li3Fe4(BO3)4
_symmetry_space_group_name_H-M   'P 1'
_cell_length_a   5.21902500
_cell_length_b   9.07260480
_cell_length_c   11.34770100
_cell_angle_alpha   112.29212638
_cell_angle_beta   102.67724852
_cell_angle_gamma   90.07511994
_symmetry_Int_Tables_number   1
_chemical_formula_structural   Li3Fe4(BO3)4
_chemical_formula_sum   'Li6 Fe8 B8 O24'
_cell_volume   482.90493224
_cell_formula_units_Z   2
loop_
 _symmetry_equiv_pos_site_id
 _symmetry_equiv_pos_as_xyz
  1  'x, y, z'
loop_
 _atom_site_type_symbol
 _atom_site_label
 _atom_site_symmetry_multiplicity
 _atom_site_fract_x
 _atom_site_fract_y
 _atom_site_fract_z
 _atom_site_occupancy
  Li  Li0  1  0.02661700  0.03695500  0.40421100  1
  Li  Li1  1  0.29985600  0.28111700  0.91856800  1
  Li  Li2  1  0.48812100  0.50637200  0.66455700  1
  Li  Li3  1  0.52694700  0.53761100  0.40933400  1
  Li  Li4  1  0.98505200  0.00418300  0.66217400  1
  Li  Li5  1  0.76099800  0.74717900  0.15917400  1
  Fe  Fe0  1  0.03463200  0.35361800  0.37586100  1
  Fe  Fe1  1  0.26968600  0.92338100  0.88086300  1
  Fe  Fe2  1  0.47670300  0.15918000  0.62946200  1
  Fe  Fe3  1  0.24338100  0.55620300  0.13420900  1
  Fe  Fe4  1  0.77139200  0.45036300  0.88469900  1
  Fe  Fe5  1  0.52379000  0.85170800  0.38219800  1
  Fe  Fe6  1  0.96906600  0.65021600  0.63168400  1
  Fe  Fe7  1  0.73711900  0.07654000  0.13096900  1
  B  B0  1  0.01835300  0.68571100  0.37748800  1
  B  B1  1  0.26949200  0.59855200  0.87456100  1
  B  B2  1  0.48041600  0.81671700  0.63086700  1
  B  B3  1  0.23629700  0.89554800  0.12997900  1
  B  B4  1  0.51921900  0.18789600  0.37566800  1
  B  B5  1  0.76662800  0.10573100  0.87912800  1
  B  B6  1  0.97669500  0.31451400  0.62411600  1
  B  B7  1  0.72502200  0.39693400  0.12615000  1
  O  O0  1  0.02316100  0.08325800  0.86244400  1
  O  O1  1  0.11329000  0.71372000  0.84584700  1
  O  O2  1  0.16786800  0.49025000  0.91608300  1
  O  O3  1  0.08429800  0.17041400  0.61121400  1
  O  O4  1  0.10148600  0.42548800  0.59263200  1
  O  O5  1  0.25060300  0.84956400  0.68014700  1
  O  O6  1  0.26562400  0.66128600  0.35028900  1
  O  O7  1  0.51859400  0.59733200  0.85696700  1
  O  O8  1  0.62354800  0.21664900  0.84529600  1
  O  O9  1  0.40771100  0.07910100  0.41349500  1
  O  O10  1  0.41300600  0.32676900  0.38292700  1
  O  O11  1  0.64724500  0.01180900  0.92970500  1
  O  O12  1  0.35902100  0.98807200  0.07850800  1
  O  O13  1  0.58338600  0.67288800  0.61368400  1
  O  O14  1  0.59762900  0.92875700  0.59833800  1
  O  O15  1  0.38192900  0.78747600  0.16726400  1
  O  O16  1  0.45950800  0.37682800  0.11049100  1
  O  O17  1  0.74188300  0.34470100  0.66306000  1
  O  O18  1  0.75440100  0.15286700  0.32972400  1
  O  O19  1  0.90053400  0.58053500  0.41680000  1
  O  O20  1  0.89474200  0.81666000  0.36610500  1
  O  O21  1  0.83970300  0.51870200  0.10211600  1
  O  O22  1  0.88241700  0.28836700  0.16289200  1
  O  O23  1  0.97919300  0.91610300  0.14109400  1
loop_
_geom_bond_atom_site_label_1
_geom_bond_atom_site_label_2
_geom_bond_distance
_geom_bond_site_symmetry_2
Li0 O20 1.966057 1_445
Li0 O9 1.997163 1_555
Li0 O18 1.997491 1_455
Li0 O3 2.146025 1_555
Li1 O16 1.989559 1_556
Li1 O2 2.027524 1_555
Li1 O8 2.034092 1_555
Li1 O0 2.106071 1_555
Li2 O13 1.910090 1_555
Li2 O17 1.975297 1_555
Li2 O7 1.988432 1_555
Li2 O4 2.023676 1_555
Li3 O10 1.893801 1_555
Li3 O6 1.934248 1_555
Li3 O19 1.964911 1_555
Li3 O13 2.123786 1_555
Li4 O3 1.915275 1_655
Li4 O5 2.007060 1_645
Li4 O14 2.014647 1_545
Li4 O0 2.069611 1_655
Li5 O21 1.996379 1_555
Li5 O23 2.006041 1_555
Li5 O15 2.027854 1_555
Li5 O20 2.134252 1_555
Fe0 O10 1.977867 1_555
Fe0 O19 2.089230 1_455
Fe0 O18 2.159600 1_455
Fe0 O22 2.211953 1_455
Fe0 O4 2.236879 1_555
Fe1 O1 1.929389 1_555
Fe1 O0 1.979873 1_565
Fe1 O11 2.003201 1_565
Fe1 O12 2.033158 1_556
Fe1 O5 2.095044 1_555
Fe2 O3 2.019376 1_555
Fe2 O17 2.041870 1_555
Fe2 O14 2.105833 1_545
Fe2 O9 2.219179 1_555
Fe2 O8 2.250366 1_555
Fe3 O16 1.949090 1_555
Fe3 O21 2.062612 1_455
Fe3 O15 2.084723 1_555
Fe3 O6 2.244110 1_555
Fe3 O2 2.255591 1_554
Fe4 O7 1.938657 1_555
Fe4 O2 2.028858 1_655
Fe4 O8 2.101515 1_555
Fe4 O21 2.247522 1_556
Fe4 O17 2.295392 1_555
Fe5 O20 1.998831 1_555
Fe5 O6 2.058248 1_555
Fe5 O9 2.071512 1_565
Fe5 O14 2.221837 1_555
Fe5 O15 2.228112 1_555
Fe6 O13 1.997046 1_555
Fe6 O4 2.069696 1_655
Fe6 O5 2.148547 1_655
Fe6 O19 2.218258 1_555
Fe6 O1 2.222244 1_655
Fe7 O22 1.935745 1_555
Fe7 O23 1.948348 1_545
Fe7 O12 2.002568 1_545
Fe7 O11 2.071845 1_554
Fe7 O18 2.073693 1_555
B0 O20 1.387874 1_455
B0 O19 1.389046 1_455
B0 O6 1.390497 1_555
B1 O7 1.357369 1_555
B1 O2 1.388645 1_555
B1 O1 1.416494 1_555
B2 O13 1.372732 1_555
B2 O14 1.387762 1_555
B2 O5 1.417388 1_555
B3 O15 1.376082 1_555
B3 O23 1.381411 1_455
B3 O12 1.410954 1_555
B4 O10 1.358179 1_555
B4 O9 1.388088 1_555
B4 O18 1.426735 1_555
B5 O8 1.373652 1_555
B5 O0 1.397364 1_655
B5 O11 1.403674 1_555
B6 O17 1.385242 1_555
B6 O3 1.392410 1_655
B6 O4 1.392414 1_655
B7 O16 1.360791 1_555
B7 O21 1.396992 1_555
B7 O22 1.407896 1_555
