# generated using pymatgen
data_Th2SbN2
_symmetry_space_group_name_H-M   'P 1'
_cell_length_a   4.05250731
_cell_length_b   4.05250752
_cell_length_c   7.52638688
_cell_angle_alpha   105.61785572
_cell_angle_beta   105.61786149
_cell_angle_gamma   89.99999020
_symmetry_Int_Tables_number   1
_chemical_formula_structural   Th2SbN2
_chemical_formula_sum   'Th2 Sb1 N2'
_cell_volume   114.29512142
_cell_formula_units_Z   1
loop_
 _symmetry_equiv_pos_site_id
 _symmetry_equiv_pos_as_xyz
  1  'x, y, z'
loop_
 _atom_site_type_symbol
 _atom_site_label
 _atom_site_symmetry_multiplicity
 _atom_site_fract_x
 _atom_site_fract_y
 _atom_site_fract_z
 _atom_site_occupancy
  Th  Th0  1  0.33331714  0.33331714  0.66663427  1
  Th  Th1  1  0.66668286  0.66668286  0.33336573  1
  Sb  Sb0  1  0.00000000  0.00000000  -0.00000000  1
  N  N0  1  0.75000000  0.25000000  0.50000000  1
  N  N1  1  0.25000000  0.75000000  0.50000000  1
loop_
_geom_bond_atom_site_label_1
_geom_bond_atom_site_label_2
_geom_bond_distance
_geom_bond_site_symmetry_2
Sb0 Th1 3.687022 1_545
Sb0 Th0 3.687022 1_454
Sb0 Th1 3.687022 1_455
Sb0 Th0 3.687022 1_544
Sb0 Th1 3.687022 1_555
Sb0 Th0 3.687022 1_444
Sb0 Th0 3.687022 1_554
Sb0 Th1 3.687022 1_445
N0 Th0 2.334652 1_655
N0 Th1 2.334652 1_555
N0 Th0 2.334652 1_555
N0 Th1 2.334652 1_545
N1 Th1 2.334652 1_455
N1 Th0 2.334652 1_555
N1 Th1 2.334652 1_555
N1 Th0 2.334652 1_565
