# generated using pymatgen
data_Li4Mn(OF)2
_symmetry_space_group_name_H-M   'P 1'
_cell_length_a   5.02634000
_cell_length_b   6.08190469
_cell_length_c   6.12674061
_cell_angle_alpha   100.50618991
_cell_angle_beta   89.99826212
_cell_angle_gamma   89.99797343
_symmetry_Int_Tables_number   1
_chemical_formula_structural   Li4Mn(OF)2
_chemical_formula_sum   'Li8 Mn2 O4 F4'
_cell_volume   184.15282694
_cell_formula_units_Z   2
loop_
 _symmetry_equiv_pos_site_id
 _symmetry_equiv_pos_as_xyz
  1  'x, y, z'
loop_
 _atom_site_type_symbol
 _atom_site_label
 _atom_site_symmetry_multiplicity
 _atom_site_fract_x
 _atom_site_fract_y
 _atom_site_fract_z
 _atom_site_occupancy
  Li  Li0  1  0.47555200  0.83597800  0.07715500  1
  Li  Li1  1  0.97557500  0.16390400  0.42286600  1
  Li  Li2  1  0.02445800  0.83597500  0.57716100  1
  Li  Li3  1  0.52441800  0.16390500  0.92287600  1
  Li  Li4  1  0.99195000  0.60995200  0.20343600  1
  Li  Li5  1  0.49193500  0.38995600  0.29658700  1
  Li  Li6  1  0.50805900  0.60993200  0.70344600  1
  Li  Li7  1  0.00805600  0.38995900  0.79658600  1
  Mn  Mn0  1  0.50032200  0.99983900  0.49994200  1
  Mn  Mn1  1  0.99967300  0.00102600  0.99979300  1
  O  O0  1  0.68355400  0.11729900  0.20575500  1
  O  O1  1  0.18356500  0.88261300  0.29429500  1
  O  O2  1  0.81645700  0.11730400  0.70575700  1
  O  O3  1  0.31642400  0.88260100  0.79428900  1
  F  F0  1  0.23503300  0.37946600  0.05299000  1
  F  F1  1  0.73502800  0.62040300  0.44702300  1
  F  F2  1  0.26496800  0.37947100  0.55301100  1
  F  F3  1  0.76497200  0.62041700  0.94703200  1
loop_
_geom_bond_atom_site_label_1
_geom_bond_atom_site_label_2
_geom_bond_distance
_geom_bond_site_symmetry_2
Li0 O1 1.966336 1_555
Li0 O3 1.975567 1_554
Li0 O0 2.037106 1_565
Li1 O0 1.966419 1_555
Li1 O2 1.975608 1_555
Li1 O1 2.036806 1_645
Li2 O3 1.966283 1_555
Li2 O1 1.975518 1_555
Li2 O2 2.037048 1_465
Li3 O2 1.966443 1_555
Li3 O0 1.975624 1_556
Li3 O3 2.036987 1_545
Li4 O1 1.910742 1_655
Li5 O0 1.910634 1_555
Li6 O3 1.910743 1_555
Li7 O2 1.910647 1_455
Mn0 O2 2.072931 1_565
Mn0 O1 2.074429 1_555
Mn0 O0 2.253163 1_565
Mn0 O3 2.254749 1_555
Mn1 O0 2.071582 1_556
Mn1 O3 2.075543 1_645
Mn1 O2 2.249041 1_555
Mn1 O1 2.258886 1_646
F0 Li7 1.951947 1_554
F0 Li4 1.958592 1_455
F0 Li5 1.965779 1_555
F0 Li3 2.022037 1_554
F0 Mn1 2.555365 1_454
F1 Li6 1.951941 1_555
F1 Li5 1.958549 1_555
F1 Li4 1.965762 1_555
F1 Li2 2.022380 1_655
F1 Mn0 2.559144 1_555
F2 Li5 1.951956 1_555
F2 Li6 1.958595 1_555
F2 Li7 1.965650 1_555
F2 Li1 2.022241 1_455
F2 Mn0 2.561659 1_545
F3 Li4 1.951920 1_556
F3 Li7 1.958487 1_655
F3 Li6 1.965768 1_555
F3 Li0 2.022178 1_556
F3 Mn1 2.565524 1_565
