# generated using pymatgen
data_Li2Cr5(Si2O5)6
_symmetry_space_group_name_H-M   'P 1'
_cell_length_a   10.22710600
_cell_length_b   10.25432417
_cell_length_c   14.69972006
_cell_angle_alpha   90.81026107
_cell_angle_beta   90.66670506
_cell_angle_gamma   119.76923892
_symmetry_Int_Tables_number   1
_chemical_formula_structural   Li2Cr5(Si2O5)6
_chemical_formula_sum   'Li4 Cr10 Si24 O60'
_cell_volume   1337.70664221
_cell_formula_units_Z   2
loop_
 _symmetry_equiv_pos_site_id
 _symmetry_equiv_pos_as_xyz
  1  'x, y, z'
loop_
 _atom_site_type_symbol
 _atom_site_label
 _atom_site_symmetry_multiplicity
 _atom_site_fract_x
 _atom_site_fract_y
 _atom_site_fract_z
 _atom_site_occupancy
  Li  Li0  1  0.33948200  0.66861300  0.00001400  1
  Li  Li1  1  0.99991900  0.00667400  0.25002700  1
  Li  Li2  1  0.00226600  0.00183600  0.75002800  1
  Li  Li3  1  0.66597700  0.33244000  0.50023900  1
  Cr  Cr0  1  0.50045900  0.99821600  0.24955100  1
  Cr  Cr1  1  0.50176000  0.00032600  0.74988600  1
  Cr  Cr2  1  0.33304200  0.66735200  0.74775800  1
  Cr  Cr3  1  0.33287000  0.66694000  0.25208200  1
  Cr  Cr4  1  0.49648000  0.49926700  0.75177100  1
  Cr  Cr5  1  0.49889500  0.49620800  0.25123800  1
  Cr  Cr6  1  0.66605200  0.33260200  0.75234700  1
  Cr  Cr7  1  0.66742900  0.33367800  0.24776600  1
  Cr  Cr8  1  0.99762600  0.50017400  0.74841300  1
  Cr  Cr9  1  0.00127900  0.50083200  0.24930600  1
  Si  Si0  1  0.23466700  0.88598200  0.38883200  1
  Si  Si1  1  0.23663100  0.88909400  0.60758900  1
  Si  Si2  1  0.11664300  0.76105600  0.89163000  1
  Si  Si3  1  0.11950800  0.76491300  0.11067600  1
  Si  Si4  1  0.65058100  0.88340100  0.88815600  1
  Si  Si5  1  0.65302300  0.88868200  0.10784300  1
  Si  Si6  1  0.64595900  0.76089900  0.60932400  1
  Si  Si7  1  0.64438200  0.76166400  0.39093600  1
  Si  Si8  1  0.11430000  0.35092400  0.61104900  1
  Si  Si9  1  0.10863800  0.34819000  0.39209900  1
  Si  Si10  1  0.76321700  0.64724000  0.89138100  1
  Si  Si11  1  0.76473200  0.65103500  0.11032100  1
  Si  Si12  1  0.23598200  0.34930400  0.89130200  1
  Si  Si13  1  0.23713100  0.35253600  0.11059300  1
  Si  Si14  1  0.88140600  0.64814900  0.38735800  1
  Si  Si15  1  0.88546200  0.64891100  0.60646500  1
  Si  Si16  1  0.35264200  0.23643400  0.61132500  1
  Si  Si17  1  0.34929700  0.23609300  0.39183600  1
  Si  Si18  1  0.34865800  0.10975500  0.89258100  1
  Si  Si19  1  0.35322900  0.11557900  0.11088000  1
  Si  Si20  1  0.88575900  0.23664200  0.88807400  1
  Si  Si21  1  0.88928700  0.23986200  0.10700800  1
  Si  Si22  1  0.76520100  0.11577900  0.61102000  1
  Si  Si23  1  0.76126400  0.11452500  0.39163900  1
  O  O0  1  0.22265200  0.94408400  0.14003900  1
  O  O1  1  0.21253900  0.93771100  0.86258900  1
  O  O2  1  0.05405800  0.77660500  0.36150900  1
  O  O3  1  0.05751200  0.78322500  0.63416600  1
  O  O4  1  0.25379500  0.88318000  0.49829600  1
  O  O5  1  0.34939900  0.84875600  0.65924500  1
  O  O6  1  0.34348900  0.84215700  0.33458400  1
  O  O7  1  0.14355300  0.74418400  0.00113600  1
  O  O8  1  0.49270600  0.83713800  0.83638600  1
  O  O9  1  0.49580900  0.84736600  0.15363400  1
  O  O10  1  0.72117800  0.94225300  0.63522100  1
  O  O11  1  0.71507600  0.94000300  0.36585800  1
  O  O12  1  0.16286300  0.65183800  0.83819300  1
  O  O13  1  0.16433200  0.65573500  0.16395500  1
  O  O14  1  0.61427100  0.86194400  0.99724600  1
  O  O15  1  0.61793600  0.73902900  0.49971500  1
  O  O16  1  0.14907700  0.50031300  0.34234100  1
  O  O17  1  0.15860400  0.50530000  0.66523500  1
  O  O18  1  0.72715600  0.78109600  0.85846400  1
  O  O19  1  0.72896300  0.78716200  0.14108400  1
  O  O20  1  0.49624000  0.65625200  0.66490900  1
  O  O21  1  0.49185700  0.65434600  0.33427800  1
  O  O22  1  0.77805700  0.71892400  0.63852000  1
  O  O23  1  0.77613200  0.72177100  0.35922600  1
  O  O24  1  0.11401300  0.36893200  0.50222900  1
  O  O25  1  0.34956800  0.51062000  0.16156200  1
  O  O26  1  0.35271100  0.50526300  0.84612400  1
  O  O27  1  0.94127200  0.71264900  0.86581400  1
  O  O28  1  0.94612400  0.72123000  0.13558800  1
  O  O29  1  0.24914200  0.38737800  0.00141800  1
  O  O30  1  0.74301800  0.62699500  0.00025500  1
  O  O31  1  0.05834000  0.27918400  0.85753100  1
  O  O32  1  0.06056400  0.27696100  0.14050400  1
  O  O33  1  0.65349000  0.49389800  0.83608900  1
  O  O34  1  0.65689000  0.50114600  0.16375400  1
  O  O35  1  0.86042300  0.60949700  0.49618900  1
  O  O36  1  0.22821100  0.28671900  0.63877300  1
  O  O37  1  0.21726700  0.27704800  0.36450300  1
  O  O38  1  0.51025600  0.34681900  0.66379700  1
  O  O39  1  0.50513000  0.35055000  0.34498200  1
  O  O40  1  0.27359600  0.21476700  0.86469700  1
  O  O41  1  0.28296800  0.22480200  0.13789900  1
  O  O42  1  0.84639200  0.49301900  0.65264300  1
  O  O43  1  0.83652000  0.49224200  0.33400800  1
  O  O44  1  0.39023600  0.25063100  0.50222300  1
  O  O45  1  0.37608100  0.11904900  0.00205100  1
  O  O46  1  0.83995500  0.34366600  0.83360900  1
  O  O47  1  0.84727100  0.35203500  0.15808700  1
  O  O48  1  0.27292000  0.06003700  0.64072600  1
  O  O49  1  0.27376600  0.05769400  0.35951400  1
  O  O50  1  0.49979800  0.14988400  0.84091700  1
  O  O51  1  0.50640400  0.16078700  0.16700700  1
  O  O52  1  0.88319300  0.25587200  0.99732700  1
  O  O53  1  0.65478600  0.16106300  0.66295800  1
  O  O54  1  0.64894500  0.15971100  0.34166200  1
  O  O55  1  0.74851400  0.14086600  0.50172000  1
  O  O56  1  0.94462700  0.21698000  0.64206500  1
  O  O57  1  0.93729000  0.21197900  0.35972700  1
  O  O58  1  0.77791800  0.05599400  0.86124800  1
  O  O59  1  0.78401300  0.06205100  0.13463300  1
loop_
_geom_bond_atom_site_label_1
_geom_bond_atom_site_label_2
_geom_bond_distance
_geom_bond_site_symmetry_2
Li0 O7 2.481593 1_555
Li0 O14 2.510407 1_554
Li0 O29 2.554811 1_555
Li3 O55 2.493902 1_555
Li3 O44 2.512090 1_555
Li3 O35 2.535129 1_555
Cr0 O51 2.052638 1_565
Cr0 O9 2.060759 1_555
Cr0 O6 2.062195 1_555
Cr0 O54 2.067202 1_565
Cr1 O5 2.026617 1_545
Cr1 O50 2.028821 1_555
Cr1 O8 2.081973 1_545
Cr1 O53 2.084082 1_555
Cr2 O17 2.089098 1_555
Cr2 O8 2.111431 1_555
Cr2 O20 2.124587 1_555
Cr2 O12 2.146285 1_555
Cr2 O5 2.223882 1_555
Cr2 O26 2.299365 1_555
Cr3 O21 2.070646 1_555
Cr3 O13 2.099887 1_555
Cr3 O6 2.110062 1_555
Cr3 O25 2.141488 1_555
Cr3 O16 2.268453 1_555
Cr3 O9 2.316136 1_555
Cr4 O33 2.039885 1_555
Cr4 O26 2.055278 1_555
Cr4 O20 2.069711 1_555
Cr4 O38 2.074060 1_555
Cr5 O21 2.046155 1_555
Cr5 O34 2.058203 1_555
Cr5 O25 2.067508 1_555
Cr5 O39 2.069937 1_555
Cr6 O46 2.085491 1_555
Cr6 O33 2.103470 1_555
Cr6 O38 2.107624 1_555
Cr6 O53 2.136315 1_555
Cr6 O50 2.248034 1_555
Cr6 O42 2.318187 1_555
Cr7 O51 2.064016 1_555
Cr7 O43 2.083255 1_555
Cr7 O34 2.174035 1_555
Cr7 O54 2.205448 1_555
Cr7 O47 2.208113 1_555
Cr7 O39 2.271692 1_555
Cr8 O17 2.042279 1_655
Cr8 O42 2.052613 1_555
Cr8 O46 2.068399 1_555
Cr8 O12 2.072778 1_655
Cr9 O47 2.028160 1_455
Cr9 O16 2.028592 1_555
Cr9 O43 2.074081 1_455
Cr9 O13 2.086318 1_555
O0 Si3 1.648351 1_555
O0 Si19 1.662000 1_565
O1 Si2 1.641028 1_555
O1 Si18 1.664222 1_565
O2 Si14 1.648459 1_455
O2 Si0 1.656457 1_555
O3 Si15 1.649179 1_455
O3 Si1 1.655526 1_555
O4 Si0 1.621058 1_555
O4 Si1 1.621714 1_555
O5 Si1 1.593729 1_555
O6 Si0 1.607373 1_555
O7 Si2 1.655802 1_554
O7 Si3 1.658271 1_555
O8 Si4 1.616078 1_555
O9 Si5 1.604543 1_555
O10 Si22 1.649725 1_565
O10 Si6 1.657591 1_555
O11 Si23 1.645187 1_565
O11 Si7 1.647804 1_555
O12 Si2 1.613763 1_555
O13 Si3 1.613380 1_555
O14 Si4 1.643326 1_555
O14 Si5 1.655230 1_556
O15 Si7 1.625459 1_555
O15 Si6 1.625938 1_555
O16 Si9 1.593126 1_555
O17 Si8 1.609155 1_555
O18 Si4 1.647783 1_555
O18 Si10 1.664780 1_555
O19 Si5 1.653504 1_555
O19 Si11 1.667299 1_555
O20 Si6 1.608097 1_555
O21 Si7 1.605355 1_555
O22 Si15 1.652155 1_555
O22 Si6 1.662459 1_555
O23 Si14 1.644908 1_555
O23 Si7 1.660341 1_555
O24 Si8 1.612974 1_555
O24 Si9 1.626534 1_555
O25 Si13 1.614306 1_555
O26 Si12 1.605129 1_555
O27 Si2 1.643763 1_655
O27 Si10 1.648429 1_555
O28 Si3 1.646224 1_655
O28 Si11 1.657689 1_555
O29 Si13 1.641792 1_555
O29 Si12 1.647886 1_554
O30 Si10 1.619139 1_554
O30 Si11 1.629052 1_555
O31 Si12 1.654026 1_555
O31 Si20 1.663285 1_455
O32 Si13 1.641089 1_555
O32 Si21 1.663854 1_455
O33 Si10 1.607114 1_555
O34 Si11 1.602093 1_555
O35 Si14 1.644360 1_555
O35 Si15 1.650965 1_555
O36 Si16 1.644925 1_555
O36 Si8 1.647697 1_555
O37 Si17 1.648130 1_555
O37 Si9 1.654659 1_555
O38 Si16 1.615257 1_555
O39 Si17 1.607105 1_555
O40 Si12 1.649068 1_555
O40 Si18 1.656173 1_555
O41 Si13 1.648252 1_555
O41 Si19 1.649770 1_555
O42 Si15 1.605792 1_555
O43 Si14 1.615254 1_555
O44 Si16 1.645133 1_555
O44 Si17 1.657079 1_555
O45 Si19 1.617763 1_555
O45 Si18 1.623518 1_554
O46 Si20 1.609806 1_555
O47 Si21 1.595433 1_555
O48 Si16 1.639889 1_555
O48 Si1 1.665327 1_545
O49 Si17 1.653069 1_555
O49 Si0 1.665027 1_545
O50 Si18 1.593704 1_555
O51 Si19 1.608607 1_555
O52 Si20 1.617385 1_555
O52 Si21 1.626527 1_556
O53 Si22 1.613818 1_555
O54 Si23 1.610103 1_555
O55 Si22 1.650947 1_555
O55 Si23 1.654064 1_555
O56 Si22 1.651840 1_555
O56 Si8 1.665803 1_655
O57 Si23 1.644995 1_555
O57 Si9 1.667175 1_655
O58 Si4 1.651589 1_545
O58 Si20 1.656445 1_555
O59 Si5 1.647180 1_545
O59 Si21 1.652377 1_555
