# generated using pymatgen
data_Li3Cr(BO3)2
_symmetry_space_group_name_H-M   'P 1'
_cell_length_a   6.03959600
_cell_length_b   9.09961000
_cell_length_c   9.43584609
_cell_angle_alpha   64.85283541
_cell_angle_beta   90.00000000
_cell_angle_gamma   90.00000000
_symmetry_Int_Tables_number   1
_chemical_formula_structural   Li3Cr(BO3)2
_chemical_formula_sum   'Li12 Cr4 B8 O24'
_cell_volume   469.42403460
_cell_formula_units_Z   4
loop_
 _symmetry_equiv_pos_site_id
 _symmetry_equiv_pos_as_xyz
  1  'x, y, z'
loop_
 _atom_site_type_symbol
 _atom_site_label
 _atom_site_symmetry_multiplicity
 _atom_site_fract_x
 _atom_site_fract_y
 _atom_site_fract_z
 _atom_site_occupancy
  Li  Li0  1  0.28777400  0.86590800  0.92729800  1
  Li  Li1  1  0.06554300  0.71320800  0.81494900  1
  Li  Li2  1  0.21222600  0.86590800  0.42729800  1
  Li  Li3  1  0.43445700  0.71320800  0.31494900  1
  Li  Li4  1  0.74855500  0.62049600  0.51359500  1
  Li  Li5  1  0.24855500  0.37950400  0.98640500  1
  Li  Li6  1  0.75144500  0.62049600  0.01359500  1
  Li  Li7  1  0.25144500  0.37950400  0.48640500  1
  Li  Li8  1  0.56554300  0.28679200  0.68505100  1
  Li  Li9  1  0.78777400  0.13409200  0.57270200  1
  Li  Li10  1  0.93445700  0.28679200  0.18505100  1
  Li  Li11  1  0.71222600  0.13409200  0.07270200  1
  Cr  Cr0  1  0.96621700  0.76743800  0.21892500  1
  Cr  Cr1  1  0.46621700  0.23256200  0.28107500  1
  Cr  Cr2  1  0.53378300  0.76743800  0.71892500  1
  Cr  Cr3  1  0.03378300  0.23256200  0.78107500  1
  B  B0  1  0.71451700  0.94967000  0.91963300  1
  B  B1  1  0.78548300  0.94967000  0.41963300  1
  B  B2  1  0.33977500  0.54668600  0.68550300  1
  B  B3  1  0.83977500  0.45331400  0.81449700  1
  B  B4  1  0.16022500  0.54668600  0.18550300  1
  B  B5  1  0.66022500  0.45331400  0.31449700  1
  B  B6  1  0.21451700  0.05033000  0.58036700  1
  B  B7  1  0.28548300  0.05033000  0.08036700  1
  O  O0  1  0.60747200  0.82356700  0.90144000  1
  O  O1  1  0.25557300  0.90184500  0.70498600  1
  O  O2  1  0.73116400  0.93277500  0.56841400  1
  O  O3  1  0.89252800  0.82356700  0.40144000  1
  O  O4  1  0.24442700  0.90184500  0.20498600  1
  O  O5  1  0.79091800  0.60084800  0.81294700  1
  O  O6  1  0.76883600  0.93277500  0.06841400  1
  O  O7  1  0.31825900  0.57711700  0.81708400  1
  O  O8  1  0.43337400  0.67790600  0.55690400  1
  O  O9  1  0.70908200  0.60084800  0.31294700  1
  O  O10  1  0.93337400  0.32209400  0.94309600  1
  O  O11  1  0.18174100  0.57711700  0.31708400  1
  O  O12  1  0.06662600  0.67790600  0.05690400  1
  O  O13  1  0.81825900  0.42288300  0.68291600  1
  O  O14  1  0.29091800  0.39915200  0.68705300  1
  O  O15  1  0.56662600  0.32209400  0.44309600  1
  O  O16  1  0.68174100  0.42288300  0.18291600  1
  O  O17  1  0.23116400  0.06722500  0.93158600  1
  O  O18  1  0.20908200  0.39915200  0.18705300  1
  O  O19  1  0.75557300  0.09815500  0.79501400  1
  O  O20  1  0.10747200  0.17643300  0.59856000  1
  O  O21  1  0.26883600  0.06722500  0.43158600  1
  O  O22  1  0.74442700  0.09815500  0.29501400  1
  O  O23  1  0.39252800  0.17643300  0.09856000  1
loop_
_geom_bond_atom_site_label_1
_geom_bond_atom_site_label_2
_geom_bond_distance
_geom_bond_site_symmetry_2
Li0 O17 1.880800 1_565
Li0 O1 1.990505 1_555
Li0 O0 2.004007 1_555
Li0 O12 2.104303 1_556
Li1 O5 1.952735 1_455
Li1 O1 1.956164 1_555
Li1 O7 1.960198 1_555
Li1 O12 2.166160 1_556
Li2 O21 1.880800 1_565
Li2 O4 1.990505 1_555
Li2 O3 2.004007 1_455
Li2 O8 2.104303 1_555
Li3 O9 1.952735 1_555
Li3 O4 1.956164 1_555
Li3 O11 1.960198 1_555
Li3 O8 2.166160 1_555
Li4 O13 1.876608 1_555
Li4 O3 1.904903 1_555
Li4 O9 1.990229 1_555
Li4 O8 2.060319 1_555
Li5 O7 1.876608 1_555
Li5 O23 1.904903 1_556
Li5 O18 1.990229 1_556
Li5 O10 2.060319 1_455
Li6 O16 1.876608 1_555
Li6 O0 1.904903 1_554
Li6 O5 1.990229 1_554
Li6 O12 2.060319 1_655
Li7 O11 1.876608 1_555
Li7 O20 1.904903 1_555
Li7 O14 1.990229 1_555
Li7 O15 2.060319 1_555
Li8 O14 1.952735 1_555
Li8 O19 1.956164 1_555
Li8 O13 1.960198 1_555
Li8 O15 2.166160 1_555
Li9 O2 1.880800 1_545
Li9 O19 1.990505 1_555
Li9 O20 2.004007 1_655
Li9 O15 2.104303 1_555
Li10 O18 1.952735 1_655
Li10 O22 1.956164 1_555
Li10 O16 1.960198 1_555
Li10 O10 2.166160 1_554
Li11 O6 1.880800 1_545
Li11 O22 1.990505 1_555
Li11 O23 2.004007 1_555
Li11 O10 2.104303 1_554
Cr0 O6 1.971204 1_555
Cr0 O3 2.042651 1_555
Cr0 O11 2.046523 1_655
Cr0 O4 2.049333 1_655
Cr0 O9 2.086585 1_555
Cr0 O12 2.104117 1_655
Cr1 O21 1.971204 1_555
Cr1 O23 2.042651 1_555
Cr1 O16 2.046523 1_555
Cr1 O22 2.049333 1_555
Cr1 O18 2.086585 1_555
Cr1 O15 2.104117 1_555
Cr2 O2 1.971204 1_555
Cr2 O0 2.042651 1_555
Cr2 O7 2.046523 1_555
Cr2 O1 2.049333 1_555
Cr2 O5 2.086585 1_555
Cr2 O8 2.104117 1_555
Cr3 O17 1.971204 1_555
Cr3 O20 2.042651 1_555
Cr3 O13 2.046523 1_455
Cr3 O19 2.049333 1_455
Cr3 O14 2.086585 1_555
Cr3 O10 2.104117 1_455
B0 O6 1.385170 1_556
B0 O19 1.385462 1_565
B0 O0 1.389816 1_555
B1 O2 1.385170 1_555
B1 O22 1.385462 1_565
B1 O3 1.389816 1_555
B2 O14 1.368542 1_555
B2 O7 1.388265 1_555
B2 O8 1.409378 1_555
B3 O5 1.368542 1_555
B3 O13 1.388265 1_555
B3 O10 1.409378 1_555
B4 O18 1.368542 1_555
B4 O11 1.388265 1_555
B4 O12 1.409378 1_555
B5 O9 1.368542 1_555
B5 O16 1.388265 1_555
B5 O15 1.409378 1_555
B6 O21 1.385170 1_555
B6 O1 1.385462 1_545
B6 O20 1.389816 1_555
B7 O17 1.385170 1_554
B7 O4 1.385462 1_545
B7 O23 1.389816 1_555
