# generated using pymatgen
data_Gd3TaO7
_symmetry_space_group_name_H-M   'P 1'
_cell_length_a   6.54732029
_cell_length_b   6.54732029
_cell_length_c   7.59455200
_cell_angle_alpha   90.00000000
_cell_angle_beta   90.00000000
_cell_angle_gamma   110.73245340
_symmetry_Int_Tables_number   1
_chemical_formula_structural   Gd3TaO7
_chemical_formula_sum   'Gd6 Ta2 O14'
_cell_volume   304.47673159
_cell_formula_units_Z   2
loop_
 _symmetry_equiv_pos_site_id
 _symmetry_equiv_pos_as_xyz
  1  'x, y, z'
loop_
 _atom_site_type_symbol
 _atom_site_label
 _atom_site_symmetry_multiplicity
 _atom_site_fract_x
 _atom_site_fract_y
 _atom_site_fract_z
 _atom_site_occupancy
  Gd  Gd0  1  0.51884800  0.05990500  0.25000000  1
  Gd  Gd1  1  0.94009500  0.48115200  0.75000000  1
  Gd  Gd2  1  0.00000000  0.00000000  0.00000000  1
  Gd  Gd3  1  0.00000000  0.00000000  0.50000000  1
  Gd  Gd4  1  0.05990500  0.51884800  0.25000000  1
  Gd  Gd5  1  0.48115200  0.94009500  0.75000000  1
  Ta  Ta0  1  0.50000000  0.50000000  0.00000000  1
  Ta  Ta1  1  0.50000000  0.50000000  0.50000000  1
  O  O0  1  0.89053200  0.15400000  0.25000000  1
  O  O1  1  0.84600000  0.10946800  0.75000000  1
  O  O2  1  0.81873400  0.56201400  0.03606800  1
  O  O3  1  0.43798600  0.18126600  0.96393200  1
  O  O4  1  0.81873400  0.56201400  0.46393200  1
  O  O5  1  0.43798600  0.18126600  0.53606800  1
  O  O6  1  0.57627500  0.57627500  0.75000000  1
  O  O7  1  0.42372500  0.42372500  0.25000000  1
  O  O8  1  0.18126600  0.43798600  0.53606800  1
  O  O9  1  0.56201400  0.81873400  0.03606800  1
  O  O10  1  0.18126600  0.43798600  0.96393200  1
  O  O11  1  0.56201400  0.81873400  0.46393200  1
  O  O12  1  0.15400000  0.89053200  0.25000000  1
  O  O13  1  0.10946800  0.84600000  0.75000000  1
loop_
_geom_bond_atom_site_label_1
_geom_bond_atom_site_label_2
_geom_bond_distance
_geom_bond_site_symmetry_2
Gd0 O12 2.249551 1_545
Gd0 O0 2.289140 1_555
Gd0 O11 2.351353 1_545
Gd0 O9 2.351353 1_545
Gd0 O3 2.435061 1_554
Gd0 O5 2.435061 1_555
Gd0 O7 2.666905 1_555
Gd1 O13 2.249551 1_655
Gd1 O1 2.289140 1_555
Gd1 O8 2.351353 1_655
Gd1 O10 2.351353 1_655
Gd1 O2 2.435061 1_556
Gd1 O4 2.435061 1_555
Gd1 O6 2.666905 1_555
Gd2 O12 2.376302 1_545
Gd2 O1 2.376302 1_454
Gd2 O13 2.376302 1_544
Gd2 O0 2.376302 1_455
Gd2 O2 2.701348 1_445
Gd2 O9 2.701348 1_445
Gd2 O3 2.701348 1_554
Gd2 O10 2.701348 1_554
Gd3 O1 2.376302 1_455
Gd3 O13 2.376302 1_545
Gd3 O12 2.376302 1_545
Gd3 O0 2.376302 1_455
Gd3 O8 2.701348 1_555
Gd3 O5 2.701348 1_555
Gd3 O4 2.701348 1_445
Gd3 O11 2.701348 1_445
Gd4 O0 2.249551 1_455
Gd4 O12 2.289140 1_555
Gd4 O4 2.351353 1_455
Gd4 O2 2.351353 1_455
Gd4 O10 2.435061 1_554
Gd4 O8 2.435061 1_555
Gd4 O7 2.666905 1_555
Gd5 O1 2.249551 1_565
Gd5 O13 2.289140 1_555
Gd5 O5 2.351353 1_565
Gd5 O3 2.351353 1_565
Gd5 O9 2.435061 1_556
Gd5 O11 2.435061 1_555
Gd5 O6 2.666905 1_555
O2 Ta0 1.998734 1_555
O3 Ta0 1.998734 1_556
O4 Ta1 1.998734 1_555
O5 Ta1 1.998734 1_555
O6 Ta1 1.981677 1_555
O6 Ta0 1.981677 1_556
O7 Ta0 1.981677 1_555
O7 Ta1 1.981677 1_555
O8 Ta1 1.998734 1_555
O9 Ta0 1.998734 1_555
O10 Ta0 1.998734 1_556
O11 Ta1 1.998734 1_555
