# generated using pymatgen
data_Li4TiCrO6
_symmetry_space_group_name_H-M   'P 1'
_cell_length_a   5.06572600
_cell_length_b   8.76887866
_cell_length_c   9.79793394
_cell_angle_alpha   98.65268181
_cell_angle_beta   94.72785289
_cell_angle_gamma   90.20596493
_symmetry_Int_Tables_number   1
_chemical_formula_structural   Li4TiCrO6
_chemical_formula_sum   'Li16 Ti4 Cr4 O24'
_cell_volume   428.75728460
_cell_formula_units_Z   4
loop_
 _symmetry_equiv_pos_site_id
 _symmetry_equiv_pos_as_xyz
  1  'x, y, z'
loop_
 _atom_site_type_symbol
 _atom_site_label
 _atom_site_symmetry_multiplicity
 _atom_site_fract_x
 _atom_site_fract_y
 _atom_site_fract_z
 _atom_site_occupancy
  Li  Li0  1  0.98849800  0.16682300  0.49913000  1
  Li  Li1  1  0.87541700  0.37586100  0.75008000  1
  Li  Li2  1  0.74864100  0.24951700  0.00029100  1
  Li  Li3  1  0.74739400  0.92185400  0.00097500  1
  Li  Li4  1  0.75341700  0.57794200  0.99868200  1
  Li  Li5  1  0.62716800  0.12595400  0.25005600  1
  Li  Li6  1  0.51176300  0.33240600  0.50044600  1
  Li  Li7  1  0.49467600  0.00057500  0.49975300  1
  Li  Li8  1  0.49309800  0.66830400  0.50049600  1
  Li  Li9  1  0.37515500  0.87404700  0.75000100  1
  Li  Li10  1  0.24437200  0.75101400  0.99961300  1
  Li  Li11  1  0.24727300  0.42096600  0.00080800  1
  Li  Li12  1  0.25735100  0.07955200  0.99956700  1
  Li  Li13  1  0.12705100  0.62595700  0.24997200  1
  Li  Li14  1  0.01145700  0.83313000  0.50045700  1
  Li  Li15  1  0.99962600  0.49930400  0.50078000  1
  Ti  Ti0  1  0.87294800  0.03830400  0.74961300  1
  Ti  Ti1  1  0.62165000  0.79004400  0.24916300  1
  Ti  Ti2  1  0.37123400  0.21187300  0.74938500  1
  Ti  Ti3  1  0.12291900  0.29028600  0.24964700  1
  Cr  Cr0  1  0.87556700  0.70294800  0.75022100  1
  Cr  Cr1  1  0.62761300  0.45954400  0.25058000  1
  Cr  Cr2  1  0.37653100  0.54754900  0.75089700  1
  Cr  Cr3  1  0.12663500  0.95912200  0.25033000  1
  O  O0  1  0.96141100  0.10739100  0.13576200  1
  O  O1  1  0.93129200  0.78618100  0.13794500  1
  O  O2  1  0.92027500  0.42880000  0.13558200  1
  O  O3  1  0.82659800  0.96584300  0.36165800  1
  O  O4  1  0.82518900  0.32134800  0.36660900  1
  O  O5  1  0.78632300  0.63898100  0.36220700  1
  O  O6  1  0.71409000  0.85227000  0.63754500  1
  O  O7  1  0.68543100  0.53841900  0.63797300  1
  O  O8  1  0.67861200  0.17647400  0.63380500  1
  O  O9  1  0.46060300  0.60760600  0.13540300  1
  O  O10  1  0.56499600  0.71283000  0.86269700  1
  O  O11  1  0.57118300  0.07326700  0.86587600  1
  O  O12  1  0.42014600  0.92862800  0.13548600  1
  O  O13  1  0.43189600  0.28667600  0.13832200  1
  O  O14  1  0.53623200  0.39789000  0.86171500  1
  O  O15  1  0.32478800  0.82080800  0.36643500  1
  O  O16  1  0.32733700  0.46617400  0.36215000  1
  O  O17  1  0.28590900  0.13893600  0.36205600  1
  O  O18  1  0.21425400  0.35939200  0.63759400  1
  O  O19  1  0.18523200  0.67346600  0.63631000  1
  O  O20  1  0.17874500  0.03432700  0.63574600  1
  O  O21  1  0.06495000  0.57553500  0.86412900  1
  O  O22  1  0.07116400  0.21573200  0.86431900  1
  O  O23  1  0.03589000  0.89015100  0.86173500  1
loop_
_geom_bond_atom_site_label_1
_geom_bond_atom_site_label_2
_geom_bond_distance
_geom_bond_site_symmetry_2
Li0 O20 2.081762 1_655
Li0 O17 2.090645 1_655
Li0 O8 2.126363 1_555
Li0 O4 2.136993 1_555
Li0 O3 2.164736 1_545
Li0 O18 2.245188 1_655
Li1 O14 2.105847 1_555
Li1 O18 2.108911 1_655
Li1 O21 2.111534 1_655
Li1 O7 2.114566 1_555
Li1 O22 2.123136 1_655
Li1 O8 2.132989 1_555
Li2 O11 2.028203 1_554
Li2 O2 2.039060 1_555
Li2 O13 2.176844 1_555
Li2 O0 2.179068 1_555
Li2 O22 2.185297 1_654
Li2 O14 2.234911 1_554
Li3 O23 2.071663 1_654
Li3 O1 2.089623 1_555
Li3 O11 2.157396 1_564
Li3 O0 2.161304 1_565
Li3 O12 2.196794 1_555
Li3 O10 2.254581 1_554
Li4 O9 2.070713 1_556
Li4 O10 2.087578 1_555
Li4 O21 2.136313 1_655
Li4 O2 2.138429 1_556
Li4 O14 2.147269 1_555
Li4 O1 2.245866 1_556
Li5 O0 2.099314 1_555
Li5 O4 2.110954 1_555
Li5 O13 2.111642 1_555
Li5 O3 2.116015 1_545
Li5 O17 2.117124 1_555
Li5 O12 2.135980 1_545
Li6 O16 2.088599 1_555
Li6 O18 2.091360 1_555
Li6 O4 2.134462 1_555
Li6 O8 2.157585 1_555
Li6 O7 2.216720 1_555
Li6 O17 2.250307 1_555
Li7 O15 2.029083 1_545
Li7 O8 2.037344 1_555
Li7 O20 2.158852 1_555
Li7 O17 2.162681 1_555
Li7 O3 2.237276 1_545
Li7 O6 2.245138 1_545
Li8 O7 2.077041 1_555
Li8 O5 2.082809 1_555
Li8 O19 2.128270 1_555
Li8 O15 2.143067 1_555
Li8 O6 2.178560 1_555
Li8 O16 2.182394 1_555
Li9 O23 2.106537 1_555
Li9 O10 2.108791 1_555
Li9 O6 2.109345 1_555
Li9 O19 2.117016 1_555
Li9 O20 2.125644 1_565
Li9 O11 2.128797 1_565
Li10 O21 2.032848 1_555
Li10 O12 2.040006 1_556
Li10 O1 2.163226 1_456
Li10 O23 2.167706 1_555
Li10 O10 2.185785 1_555
Li10 O9 2.196454 1_556
Li11 O14 2.070968 1_554
Li11 O13 2.086700 1_555
Li11 O9 2.165281 1_555
Li11 O2 2.196929 1_455
Li11 O21 2.198811 1_554
Li11 O22 2.211499 1_554
Li12 O0 2.078976 1_456
Li12 O22 2.085613 1_555
Li12 O12 2.135923 1_546
Li12 O11 2.137400 1_555
Li12 O23 2.214204 1_545
Li12 O13 2.230732 1_556
Li13 O9 2.097925 1_555
Li13 O15 2.106536 1_555
Li13 O1 2.111108 1_455
Li13 O5 2.116136 1_455
Li13 O16 2.119042 1_555
Li13 O2 2.133704 1_455
Li14 O3 2.086809 1_455
Li14 O6 2.090217 1_455
Li14 O15 2.134829 1_555
Li14 O20 2.165248 1_565
Li14 O19 2.209829 1_555
Li14 O5 2.251979 1_455
Li15 O4 2.031118 1_555
Li15 O19 2.037989 1_655
Li15 O7 2.162336 1_555
Li15 O18 2.179088 1_655
Li15 O5 2.186135 1_555
Li15 O16 2.222994 1_655
Cr0 O7 1.885925 1_555
Cr0 O21 1.902803 1_655
Cr0 O23 1.962797 1_655
Cr0 O6 1.973879 1_555
Cr0 O10 1.988771 1_555
Cr0 O19 1.994482 1_655
Cr1 O5 1.909587 1_555
Cr1 O2 1.930547 1_555
Cr1 O16 1.941078 1_555
Cr1 O13 1.948931 1_555
Cr1 O9 1.991560 1_555
Cr1 O4 1.999585 1_555
Cr2 O10 1.884652 1_555
Cr2 O19 1.902649 1_555
Cr2 O14 1.961437 1_555
Cr2 O18 1.979676 1_555
Cr2 O7 1.984651 1_555
Cr2 O21 1.997975 1_555
Cr3 O17 1.913484 1_565
Cr3 O12 1.932999 1_555
Cr3 O3 1.938554 1_455
Cr3 O1 1.949009 1_455
Cr3 O0 1.985720 1_465
Cr3 O15 2.002096 1_555
O0 Ti3 1.946332 1_655
O1 Ti1 1.979908 1_555
O2 Ti3 2.001595 1_655
O3 Ti1 1.989416 1_555
O4 Ti3 1.963708 1_655
O5 Ti1 1.993601 1_555
O6 Ti0 1.954580 1_565
O8 Ti0 1.990653 1_555
O8 Ti2 1.997926 1_555
O9 Ti1 1.942010 1_555
O11 Ti0 1.978324 1_555
O11 Ti2 2.010372 1_555
O12 Ti1 1.997009 1_555
O13 Ti3 1.977872 1_555
O14 Ti2 1.966979 1_555
O15 Ti1 1.961887 1_555
O16 Ti3 1.988716 1_555
O17 Ti3 1.988445 1_555
O18 Ti2 1.948223 1_555
O20 Ti2 1.975585 1_555
O20 Ti0 1.979685 1_455
O22 Ti2 1.962393 1_555
O22 Ti0 1.992136 1_455
O23 Ti0 1.965596 1_465
