# generated using pymatgen
data_SbTe
_symmetry_space_group_name_H-M   'P 1'
_cell_length_a   4.31196339
_cell_length_b   4.31196411
_cell_length_c   24.90181820
_cell_angle_alpha   90.00000000
_cell_angle_beta   90.00000000
_cell_angle_gamma   120.00000220
_symmetry_Int_Tables_number   1
_chemical_formula_structural   SbTe
_chemical_formula_sum   'Sb6 Te6'
_cell_volume   400.97000218
_cell_formula_units_Z   6
loop_
 _symmetry_equiv_pos_site_id
 _symmetry_equiv_pos_as_xyz
  1  'x, y, z'
loop_
 _atom_site_type_symbol
 _atom_site_label
 _atom_site_symmetry_multiplicity
 _atom_site_fract_x
 _atom_site_fract_y
 _atom_site_fract_z
 _atom_site_occupancy
  Sb  Sb0  1  0.00000000  0.00000000  0.13242626  1
  Sb  Sb1  1  -0.00000000  -0.00000000  0.86757374  1
  Sb  Sb2  1  0.33333300  0.66666700  0.29138570  1
  Sb  Sb3  1  0.66666700  0.33333300  0.70861430  1
  Sb  Sb4  1  0.33333300  0.66666700  0.53086793  1
  Sb  Sb5  1  0.66666700  0.33333300  0.46913207  1
  Te  Te0  1  0.33333300  0.66666700  0.06476220  1
  Te  Te1  1  0.66666700  0.33333300  0.93523780  1
  Te  Te2  1  0.33333300  0.66666700  0.78760678  1
  Te  Te3  1  0.66666700  0.33333300  0.21239322  1
  Te  Te4  1  -0.00000000  -0.00000000  0.35973331  1
  Te  Te5  1  0.00000000  0.00000000  0.64026669  1
loop_
_geom_bond_atom_site_label_1
_geom_bond_atom_site_label_2
_geom_bond_distance
_geom_bond_site_symmetry_2
Sb0 Te0 3.006119 1_545
Sb0 Te0 3.006121 1_445
Sb0 Te0 3.006122 1_555
Sb0 Te3 3.187951 1_455
Sb0 Te3 3.187954 1_555
Sb0 Te3 3.187954 1_445
Sb1 Te1 3.006119 1_455
Sb1 Te1 3.006121 1_555
Sb1 Te1 3.006122 1_445
Sb1 Te2 3.187951 1_545
Sb1 Te2 3.187954 1_445
Sb1 Te2 3.187954 1_555
Sb2 Te4 3.015692 1_565
Sb2 Te4 3.015695 1_665
Sb2 Te4 3.015695 1_555
Sb2 Te3 3.172850 1_455
Sb2 Te3 3.172850 1_565
Sb2 Te3 3.172856 1_555
Sb3 Te5 3.015692 1_655
Sb3 Te5 3.015695 1_555
Sb3 Te5 3.015695 1_665
Sb3 Te2 3.172850 1_655
Sb3 Te2 3.172850 1_545
Sb3 Te2 3.172856 1_555
Sb4 Sb5 2.925929 1_455
Sb4 Sb5 2.925930 1_565
Sb4 Sb5 2.925936 1_555
