# generated using pymatgen
data_Na3Fe(BO3)2
_symmetry_space_group_name_H-M   'P 1'
_cell_length_a   9.57173300
_cell_length_b   5.55174400
_cell_length_c   11.52601236
_cell_angle_alpha   65.20747392
_cell_angle_beta   90.00000000
_cell_angle_gamma   90.00000000
_symmetry_Int_Tables_number   1
_chemical_formula_structural   Na3Fe(BO3)2
_chemical_formula_sum   'Na12 Fe4 B8 O24'
_cell_volume   556.03824590
_cell_formula_units_Z   4
loop_
 _symmetry_equiv_pos_site_id
 _symmetry_equiv_pos_as_xyz
  1  'x, y, z'
loop_
 _atom_site_type_symbol
 _atom_site_label
 _atom_site_symmetry_multiplicity
 _atom_site_fract_x
 _atom_site_fract_y
 _atom_site_fract_z
 _atom_site_occupancy
  Na  Na0  1  0.96787200  0.50090100  0.34471800  1
  Na  Na1  1  0.66039300  0.46024000  0.37509900  1
  Na  Na2  1  0.98868300  0.92443100  0.88774100  1
  Na  Na3  1  0.16039300  0.53976000  0.12490100  1
  Na  Na4  1  0.48868300  0.07556900  0.61225900  1
  Na  Na5  1  0.46787200  0.49909900  0.15528200  1
  Na  Na6  1  0.53212800  0.50090100  0.84471800  1
  Na  Na7  1  0.51131700  0.92443100  0.38774100  1
  Na  Na8  1  0.83960700  0.46024000  0.87509900  1
  Na  Na9  1  0.01131700  0.07556900  0.11225900  1
  Na  Na10  1  0.33960700  0.53976000  0.62490100  1
  Na  Na11  1  0.03212800  0.49909900  0.65528200  1
  Fe  Fe0  1  0.32096300  0.97997000  0.87482700  1
  Fe  Fe1  1  0.82096300  0.02003000  0.62517300  1
  Fe  Fe2  1  0.17903700  0.97997000  0.37482700  1
  Fe  Fe3  1  0.67903700  0.02003000  0.12517300  1
  B  B0  1  0.31181200  0.44899500  0.38198300  1
  B  B1  1  0.65263300  0.97741300  0.86756100  1
  B  B2  1  0.81181200  0.55100500  0.11801700  1
  B  B3  1  0.15263300  0.02258700  0.63243900  1
  B  B4  1  0.84736700  0.97741300  0.36756100  1
  B  B5  1  0.18818800  0.44899500  0.88198300  1
  B  B6  1  0.34736700  0.02258700  0.13243900  1
  B  B7  1  0.68818800  0.55100500  0.61801700  1
  O  O0  1  0.32458200  0.86683100  0.06683900  1
  O  O1  1  0.69652500  0.32591700  0.59224600  1
  O  O2  1  0.93618600  0.67504200  0.11338900  1
  O  O3  1  0.26319700  0.11159900  0.68211500  1
  O  O4  1  0.68830000  0.64551100  0.15029700  1
  O  O5  1  0.01541300  0.08948700  0.65251500  1
  O  O6  1  0.18830000  0.35448900  0.34970300  1
  O  O7  1  0.51541300  0.91051300  0.84748500  1
  O  O8  1  0.76319700  0.88840100  0.81788500  1
  O  O9  1  0.43618600  0.32495800  0.38661100  1
  O  O10  1  0.82458200  0.13316900  0.43316100  1
  O  O11  1  0.19652500  0.67408300  0.90775400  1
  O  O12  1  0.80347500  0.32591700  0.09224600  1
  O  O13  1  0.17541800  0.86683100  0.56683900  1
  O  O14  1  0.56381400  0.67504200  0.61338900  1
  O  O15  1  0.23680300  0.11159900  0.18211500  1
  O  O16  1  0.48458700  0.08948700  0.15251500  1
  O  O17  1  0.81170000  0.64551100  0.65029700  1
  O  O18  1  0.98458700  0.91051300  0.34748500  1
  O  O19  1  0.31170000  0.35448900  0.84970300  1
  O  O20  1  0.73680300  0.88840100  0.31788500  1
  O  O21  1  0.06381400  0.32495800  0.88661100  1
  O  O22  1  0.30347500  0.67408300  0.40775400  1
  O  O23  1  0.67541800  0.13316900  0.93316100  1
loop_
_geom_bond_atom_site_label_1
_geom_bond_atom_site_label_2
_geom_bond_distance
_geom_bond_site_symmetry_2
Na0 O6 2.253093 1_655
Na0 O18 2.293206 1_555
Na0 O10 2.311454 1_555
Na0 O2 2.444167 1_555
Na1 O9 2.259123 1_555
Na1 O10 2.279418 1_555
Na1 O20 2.303359 1_555
Na1 O1 2.318319 1_555
Na1 O4 2.368085 1_555
Na2 O21 2.331852 1_665
Na2 O8 2.341280 1_555
Na2 O11 2.381976 1_655
Na2 O2 2.431816 1_556
Na2 O5 2.484402 1_665
Na3 O2 2.259123 1_455
Na3 O0 2.279418 1_555
Na3 O15 2.303359 1_555
Na3 O11 2.318319 1_554
Na3 O6 2.368085 1_555
Na4 O14 2.331852 1_545
Na4 O3 2.341280 1_555
Na4 O1 2.381976 1_555
Na4 O9 2.431816 1_555
Na4 O7 2.484402 1_545
Na5 O4 2.253093 1_555
Na5 O16 2.293206 1_555
Na5 O0 2.311454 1_555
Na5 O9 2.444167 1_555
Na6 O19 2.253093 1_555
Na6 O7 2.293206 1_555
Na6 O23 2.311454 1_555
Na6 O14 2.444167 1_555
Na7 O9 2.331852 1_565
Na7 O20 2.341280 1_555
Na7 O22 2.381976 1_555
Na7 O14 2.431816 1_555
Na7 O16 2.484402 1_565
Na8 O21 2.259123 1_655
Na8 O23 2.279418 1_555
Na8 O8 2.303359 1_555
Na8 O12 2.318319 1_556
Na8 O17 2.368085 1_555
Na9 O2 2.331852 1_445
Na9 O15 2.341280 1_555
Na9 O12 2.381976 1_455
Na9 O21 2.431816 1_554
Na9 O18 2.484402 1_445
Na10 O14 2.259123 1_555
Na10 O13 2.279418 1_555
Na10 O3 2.303359 1_555
Na10 O22 2.318319 1_555
Na10 O19 2.368085 1_555
Na11 O17 2.253093 1_455
Na11 O5 2.293206 1_555
Na11 O13 2.311454 1_555
Na11 O21 2.444167 1_555
Fe0 O7 1.952967 1_555
Fe0 O11 1.976387 1_555
Fe0 O19 1.977363 1_565
Fe0 O0 2.031711 1_556
Fe0 O3 2.100516 1_565
Fe1 O5 1.952967 1_655
Fe1 O1 1.976387 1_555
Fe1 O17 1.977363 1_545
Fe1 O10 2.031711 1_555
Fe1 O8 2.100516 1_545
Fe2 O18 1.952967 1_455
Fe2 O22 1.976387 1_555
Fe2 O6 1.977363 1_565
Fe2 O13 2.031711 1_555
Fe2 O15 2.100516 1_565
Fe3 O16 1.952967 1_555
Fe3 O12 1.976387 1_555
Fe3 O4 1.977363 1_545
Fe3 O23 2.031711 1_554
Fe3 O20 2.100516 1_545
B0 O9 1.365089 1_555
B0 O22 1.402668 1_555
B0 O6 1.405375 1_555
B1 O23 1.383956 1_565
B1 O8 1.388997 1_555
B1 O7 1.410204 1_555
B2 O2 1.365089 1_555
B2 O12 1.402668 1_555
B2 O4 1.405375 1_555
B3 O13 1.383956 1_545
B3 O3 1.388997 1_555
B3 O5 1.410204 1_555
B4 O10 1.383956 1_565
B4 O20 1.388997 1_555
B4 O18 1.410204 1_555
B5 O21 1.365089 1_555
B5 O11 1.402668 1_555
B5 O19 1.405375 1_555
B6 O0 1.383956 1_545
B6 O15 1.388997 1_555
B6 O16 1.410204 1_555
B7 O14 1.365089 1_555
B7 O1 1.402668 1_555
B7 O17 1.405375 1_555
