# generated using pymatgen
data_LiMnOF2
_symmetry_space_group_name_H-M   'P 1'
_cell_length_a   5.40127335
_cell_length_b   5.40152460
_cell_length_c   8.98198529
_cell_angle_alpha   83.89930656
_cell_angle_beta   78.20487595
_cell_angle_gamma   118.90779756
_symmetry_Int_Tables_number   1
_chemical_formula_structural   LiMnOF2
_chemical_formula_sum   'Li4 Mn4 O4 F8'
_cell_volume   218.02858759
_cell_formula_units_Z   4
loop_
 _symmetry_equiv_pos_site_id
 _symmetry_equiv_pos_as_xyz
  1  'x, y, z'
loop_
 _atom_site_type_symbol
 _atom_site_label
 _atom_site_symmetry_multiplicity
 _atom_site_fract_x
 _atom_site_fract_y
 _atom_site_fract_z
 _atom_site_occupancy
  Li  Li0  1  0.21731900  0.55555700  0.65318900  1
  Li  Li1  1  0.70872600  0.87052100  0.84686100  1
  Li  Li2  1  0.29136700  0.12961200  0.15320400  1
  Li  Li3  1  0.78267000  0.44445700  0.34678800  1
  Mn  Mn0  1  0.00027100  0.50000700  0.99986200  1
  Mn  Mn1  1  0.57482700  0.82493900  0.25013700  1
  Mn  Mn2  1  0.99961300  0.99964200  0.49992800  1
  Mn  Mn3  1  0.42485000  0.17495200  0.75010200  1
  O  O0  1  0.29957100  0.78421200  0.82076400  1
  O  O1  1  0.89501100  0.87965200  0.32084500  1
  O  O2  1  0.10490900  0.12028700  0.67912800  1
  O  O3  1  0.70075300  0.21594500  0.17909400  1
  F  F0  1  0.23684700  0.80420300  0.47343400  1
  F  F1  1  0.25110800  0.72408900  0.15195100  1
  F  F2  1  0.37611700  0.40303500  0.34799300  1
  F  F3  1  0.22263400  0.28982300  0.97335600  1
  F  F4  1  0.77756500  0.71025700  0.02661600  1
  F  F5  1  0.62381800  0.59699000  0.65207200  1
  F  F6  1  0.74892900  0.27601200  0.84806900  1
  F  F7  1  0.76309700  0.19580800  0.52661000  1
loop_
_geom_bond_atom_site_label_1
_geom_bond_atom_site_label_2
_geom_bond_distance
_geom_bond_site_symmetry_2
Li0 O0 2.031335 1_555
Li0 O2 2.096740 1_555
Li1 O2 2.031714 1_665
Li1 O0 2.096456 1_555
Li2 O1 2.031960 1_445
Li2 O3 2.096979 1_555
Li3 O3 2.031658 1_555
Li3 O1 2.096448 1_555
Mn0 O0 1.889558 1_555
Mn0 O3 1.890371 1_456
Mn1 O1 1.864487 1_555
Mn1 O3 1.864870 1_565
Mn2 O1 1.888311 1_555
Mn2 O2 1.891486 1_665
Mn3 O0 1.863931 1_545
Mn3 O2 1.864654 1_555
F0 Li0 1.937591 1_555
F0 Mn2 2.012335 1_455
F0 Mn1 2.371797 1_555
F1 Mn1 1.985799 1_555
F1 Li2 2.095517 1_565
F1 Mn0 2.165503 1_554
F1 Li3 2.383041 1_455
F2 Mn1 1.985402 1_555
F2 Li3 2.094501 1_555
F2 Mn2 2.166805 1_445
F2 Li2 2.382202 1_555
F3 Li2 1.937744 1_556
F3 Mn0 2.011708 1_555
F3 Mn3 2.371347 1_555
F4 Li1 1.937514 1_554
F4 Mn0 2.013710 1_654
F4 Mn1 2.373799 1_555
F5 Mn3 1.986192 1_555
F5 Li0 2.094361 1_555
F5 Mn2 2.164250 1_555
F5 Li1 2.382591 1_555
F6 Mn3 1.986028 1_555
F6 Li1 2.095410 1_545
F6 Mn0 2.164500 1_655
F6 Li0 2.383038 1_655
F7 Li3 1.937941 1_555
F7 Mn2 2.012373 1_545
F7 Mn3 2.373553 1_555
