# generated using pymatgen
data_Li10Sn(PS6)2
_symmetry_space_group_name_H-M   'P 1'
_cell_length_a   8.66527900
_cell_length_b   8.94964927
_cell_length_c   13.14190842
_cell_angle_alpha   91.99858175
_cell_angle_beta   90.60843564
_cell_angle_gamma   90.07788052
_symmetry_Int_Tables_number   1
_chemical_formula_structural   Li10Sn(PS6)2
_chemical_formula_sum   'Li20 Sn2 P4 S24'
_cell_volume   1018.49194540
_cell_formula_units_Z   2
loop_
 _symmetry_equiv_pos_site_id
 _symmetry_equiv_pos_as_xyz
  1  'x, y, z'
loop_
 _atom_site_type_symbol
 _atom_site_label
 _atom_site_symmetry_multiplicity
 _atom_site_fract_x
 _atom_site_fract_y
 _atom_site_fract_z
 _atom_site_occupancy
  Li  Li0  1  0.98894800  0.51741800  0.95002400  1
  Li  Li1  1  0.96366200  0.51745500  0.42782700  1
  Li  Li2  1  0.51101200  0.96407700  0.54740400  1
  Li  Li3  1  0.49662100  0.99635700  0.05216800  1
  Li  Li4  1  0.26215900  0.28730400  0.15760900  1
  Li  Li5  1  0.74198400  0.74799700  0.28321900  1
  Li  Li6  1  0.21376800  0.81653000  0.75304200  1
  Li  Li7  1  0.23128300  0.75858100  0.25286400  1
  Li  Li8  1  0.75328900  0.21883000  0.35222000  1
  Li  Li9  1  0.46164400  0.51486200  0.75083700  1
  Li  Li10  1  0.23021900  0.22715000  0.36677900  1
  Li  Li11  1  0.73625900  0.25766200  0.85758900  1
  Li  Li12  1  0.24489400  0.76093500  0.00556800  1
  Li  Li13  1  0.73984100  0.26088000  0.13095300  1
  Li  Li14  1  0.76519700  0.72722500  0.68834900  1
  Li  Li15  1  0.22007500  0.25885000  0.91974000  1
  Li  Li16  1  0.74837700  0.76114100  0.00834900  1
  Li  Li17  1  0.24419100  0.71972500  0.48527700  1
  Li  Li18  1  0.78404100  0.21551700  0.62537500  1
  Li  Li19  1  0.24054100  0.21295700  0.64933500  1
  Sn  Sn0  1  0.99620500  0.48983600  0.18330500  1
  Sn  Sn1  1  0.51032700  0.98964700  0.81515400  1
  P  P0  1  0.99330700  0.96515100  0.50167500  1
  P  P1  1  0.49235800  0.51556900  0.99290100  1
  P  P2  1  0.00869000  0.48281500  0.68421900  1
  P  P3  1  0.48794600  0.00926000  0.31062800  1
  S  S0  1  0.98856500  0.17471200  0.44363900  1
  S  S1  1  0.00498900  0.79451800  0.39101600  1
  S  S2  1  0.29705200  0.53064000  0.90190800  1
  S  S3  1  0.68321800  0.53021600  0.90087200  1
  S  S4  1  0.49525900  0.69397400  0.09579900  1
  S  S5  1  0.48703000  0.31156000  0.05885200  1
  S  S6  1  0.19423300  0.94768700  0.58774000  1
  S  S7  1  0.80229800  0.94628100  0.58961900  1
  S  S8  1  0.00766700  0.28530800  0.05847400  1
  S  S9  1  0.00130600  0.72346000  0.09769000  1
  S  S10  1  0.21009000  0.48604500  0.60183700  1
  S  S11  1  0.81715700  0.49112600  0.59004000  1
  S  S12  1  0.48461500  0.80223500  0.37432400  1
  S  S13  1  0.49551900  0.17661900  0.42183100  1
  S  S14  1  0.27200000  0.98823900  0.91047300  1
  S  S15  1  0.72625400  0.00199600  0.92964300  1
  S  S16  1  0.99307100  0.66142900  0.78697900  1
  S  S17  1  0.00304600  0.28298100  0.75975200  1
  S  S18  1  0.76555100  0.46505900  0.27999700  1
  S  S19  1  0.21385500  0.47773600  0.29824700  1
  S  S20  1  0.51915700  0.21416300  0.71556100  1
  S  S21  1  0.49050200  0.78017200  0.69451600  1
  S  S22  1  0.68418100  0.01589500  0.22207100  1
  S  S23  1  0.29394400  0.03132000  0.21991000  1
loop_
_geom_bond_atom_site_label_1
_geom_bond_atom_site_label_2
_geom_bond_distance
_geom_bond_site_symmetry_2
Li0 S16 2.539250 1_555
Li0 S8 2.564238 1_656
Li0 S9 2.631206 1_656
Li0 S3 2.723686 1_555
Li0 S2 2.753532 1_655
Li1 S11 2.510656 1_555
Li1 S1 2.568211 1_655
Li1 S18 2.608580 1_555
Li1 S19 2.786539 1_655
Li2 S13 2.564103 1_565
Li2 S7 2.584883 1_555
Li2 S21 2.589739 1_555
Li2 S12 2.661265 1_555
Li2 S6 2.805825 1_555
Li3 S15 2.574532 1_564
Li3 S14 2.678534 1_554
Li3 S22 2.748197 1_565
Li3 S4 2.785830 1_555
Li3 S5 2.820625 1_565
Li3 S23 2.842101 1_565
Li4 S5 2.366578 1_555
Li4 S23 2.474370 1_555
Li4 S19 2.508890 1_555
Li4 S8 2.549122 1_555
Li5 S18 2.539611 1_555
Li5 S12 2.581071 1_555
Li5 S22 2.602732 1_565
Li5 S1 2.694786 1_655
Li6 S16 2.416007 1_455
Li6 S6 2.509247 1_555
Li6 S21 2.543932 1_555
Li6 S14 2.578887 1_555
Li7 S23 2.552564 1_565
Li7 S19 2.607962 1_555
Li7 S1 2.698426 1_555
Li7 S12 2.720141 1_555
Li7 S9 2.845358 1_555
Li8 S0 2.395620 1_555
Li8 S18 2.432221 1_555
Li8 S13 2.456422 1_555
Li8 S22 2.518192 1_555
Li9 S2 2.457006 1_555
Li9 S21 2.524520 1_555
Li9 S3 2.737344 1_555
Li9 S20 2.761723 1_555
Li9 S10 2.919744 1_555
Li10 S0 2.387607 1_455
Li10 S19 2.449450 1_555
Li10 S13 2.450145 1_555
Li10 S23 2.625132 1_555
Li11 S15 2.508389 1_555
Li11 S3 2.529156 1_555
Li11 S20 2.654675 1_555
Li11 S17 2.670376 1_655
Li12 S14 2.436718 1_554
Li12 S9 2.472680 1_555
Li12 S2 2.475448 1_554
Li12 S4 2.543696 1_555
Li13 S5 2.427185 1_555
Li13 S8 2.530064 1_655
Li13 S22 2.581908 1_555
Li13 S18 2.639193 1_555
Li14 S7 2.411409 1_555
Li14 S21 2.429293 1_555
Li14 S16 2.434728 1_555
Li14 S11 2.482180 1_555
Li15 S14 2.462987 1_545
Li15 S2 2.540709 1_555
Li15 S8 2.609654 1_556
Li15 S17 2.820083 1_555
Li15 S5 2.960233 1_556
Li16 S15 2.430128 1_564
Li16 S9 2.504154 1_655
Li16 S3 2.522170 1_554
Li16 S4 2.567297 1_555
Li17 S6 2.446655 1_555
Li17 S1 2.507187 1_555
Li17 S10 2.653099 1_555
Li17 S12 2.673423 1_555
Li18 S7 2.444482 1_545
Li18 S11 2.542227 1_555
Li18 S20 2.594602 1_555
Li18 S17 2.633620 1_655
Li19 S6 2.511765 1_545
Li19 S10 2.556810 1_555
Li19 S20 2.557542 1_555
Li19 S17 2.595593 1_555
P0 S7 2.038939 1_555
P0 S0 2.049442 1_565
P0 S1 2.075053 1_655
P0 S6 2.075169 1_655
P1 S5 2.048881 1_556
P1 S4 2.056012 1_556
P1 S3 2.065940 1_555
P1 S2 2.069112 1_555
P2 S16 2.061861 1_455
P2 S11 2.062790 1_455
P2 S10 2.064179 1_555
P2 S17 2.076269 1_555
P3 S13 2.056330 1_555
P3 S12 2.059846 1_545
P3 S23 2.064250 1_555
P3 S22 2.072683 1_555
S8 Sn0 2.417898 1_455
S9 Sn0 2.409245 1_455
S14 Sn1 2.426984 1_555
S15 Sn1 2.388512 1_545
S18 Sn0 2.393953 1_555
S19 Sn0 2.408725 1_455
S20 Sn1 2.437521 1_545
S21 Sn1 2.417371 1_555
