# generated using pymatgen
data_BaCa2I6
_symmetry_space_group_name_H-M   'P 1'
_cell_length_a   14.06496389
_cell_length_b   14.06496389
_cell_length_c   7.27258300
_cell_angle_alpha   90.00000000
_cell_angle_beta   90.00000000
_cell_angle_gamma   119.99999948
_symmetry_Int_Tables_number   1
_chemical_formula_structural   BaCa2I6
_chemical_formula_sum   'Ba3 Ca6 I18'
_cell_volume   1245.93837803
_cell_formula_units_Z   3
loop_
 _symmetry_equiv_pos_site_id
 _symmetry_equiv_pos_as_xyz
  1  'x, y, z'
loop_
 _atom_site_type_symbol
 _atom_site_label
 _atom_site_symmetry_multiplicity
 _atom_site_fract_x
 _atom_site_fract_y
 _atom_site_fract_z
 _atom_site_occupancy
  Ba  Ba0  1  0.33333300  0.66666700  0.49596000  1
  Ba  Ba1  1  0.00000000  0.00000000  0.00000000  1
  Ba  Ba2  1  0.66666700  0.33333300  0.50404000  1
  Ca  Ca0  1  0.00000000  0.64965300  0.00000000  1
  Ca  Ca1  1  0.00000000  0.31563100  0.50000000  1
  Ca  Ca2  1  0.35034700  0.35034700  0.00000000  1
  Ca  Ca3  1  0.31563100  0.00000000  0.50000000  1
  Ca  Ca4  1  0.68436900  0.68436900  0.50000000  1
  Ca  Ca5  1  0.64965300  0.00000000  0.00000000  1
  I  I0  1  0.10146900  0.86319100  0.74290300  1
  I  I1  1  0.21749600  0.78920900  0.23912700  1
  I  I2  1  0.09645300  0.52948700  0.75483800  1
  I  I3  1  0.43303400  0.90354700  0.75483800  1
  I  I4  1  0.21079100  0.42828700  0.23912700  1
  I  I5  1  0.13680900  0.23827800  0.74290300  1
  I  I6  1  0.57171300  0.78250400  0.23912700  1
  I  I7  1  0.23827800  0.13680900  0.25709700  1
  I  I8  1  0.47051300  0.56696600  0.75483800  1
  I  I9  1  0.76172200  0.89853100  0.74290300  1
  I  I10  1  0.42828700  0.21079100  0.76087300  1
  I  I11  1  0.56696600  0.47051300  0.24516200  1
  I  I12  1  0.52948700  0.09645300  0.24516200  1
  I  I13  1  0.78250400  0.57171300  0.76087300  1
  I  I14  1  0.89853100  0.76172200  0.25709700  1
  I  I15  1  0.78920900  0.21749600  0.76087300  1
  I  I16  1  0.90354700  0.43303400  0.24516200  1
  I  I17  1  0.86319100  0.10146900  0.25709700  1
loop_
_geom_bond_atom_site_label_1
_geom_bond_atom_site_label_2
_geom_bond_distance
_geom_bond_site_symmetry_2
Ba0 I1 3.452819 1_555
Ba0 I4 3.452829 1_555
Ba0 I6 3.452829 1_555
Ba0 I3 3.455326 1_555
Ba0 I2 3.455328 1_555
Ba0 I8 3.455337 1_555
Ba1 I17 3.461435 1_455
Ba1 I0 3.461435 1_544
Ba1 I14 3.461435 1_445
Ba1 I9 3.461435 1_444
Ba1 I7 3.461435 1_555
Ba1 I5 3.461435 1_554
Ba2 I15 3.452819 1_555
Ba2 I10 3.452829 1_555
Ba2 I13 3.452829 1_555
Ba2 I16 3.455326 1_555
Ba2 I12 3.455328 1_555
Ba2 I11 3.455337 1_555
Ca0 I2 3.188843 1_554
Ca0 I16 3.188843 1_455
Ca0 I13 3.198527 1_454
Ca0 I1 3.198527 1_555
Ca0 I14 3.204198 1_455
Ca0 I0 3.204198 1_554
Ca1 I5 3.178111 1_555
Ca1 I17 3.178111 1_455
Ca1 I15 3.194098 1_455
Ca1 I4 3.194098 1_555
Ca1 I16 3.200318 1_455
Ca1 I2 3.200318 1_555
Ca2 I11 3.188843 1_555
Ca2 I8 3.188843 1_554
Ca2 I4 3.198527 1_555
Ca2 I10 3.198527 1_554
Ca2 I7 3.204198 1_555
Ca2 I5 3.204198 1_554
Ca3 I7 3.178111 1_555
Ca3 I0 3.178111 1_545
Ca3 I1 3.194098 1_545
Ca3 I10 3.194098 1_555
Ca3 I3 3.200318 1_545
Ca3 I12 3.200318 1_555
Ca4 I9 3.178111 1_555
Ca4 I14 3.178111 1_555
Ca4 I13 3.194098 1_555
Ca4 I6 3.194098 1_555
Ca4 I11 3.200318 1_555
Ca4 I8 3.200318 1_555
Ca5 I12 3.188843 1_555
Ca5 I3 3.188843 1_544
Ca5 I6 3.198527 1_545
Ca5 I15 3.198527 1_554
Ca5 I9 3.204198 1_544
Ca5 I17 3.204198 1_555
