# generated using pymatgen
data_Li2CoOF3
_symmetry_space_group_name_H-M   'P 1'
_cell_length_a   5.84049837
_cell_length_b   8.65447574
_cell_length_c   5.87025570
_cell_angle_alpha   90.94549148
_cell_angle_beta   89.99518310
_cell_angle_gamma   89.99884449
_symmetry_Int_Tables_number   1
_chemical_formula_structural   Li2CoOF3
_chemical_formula_sum   'Li8 Co4 O4 F12'
_cell_volume   296.68019377
_cell_formula_units_Z   4
loop_
 _symmetry_equiv_pos_site_id
 _symmetry_equiv_pos_as_xyz
  1  'x, y, z'
loop_
 _atom_site_type_symbol
 _atom_site_label
 _atom_site_symmetry_multiplicity
 _atom_site_fract_x
 _atom_site_fract_y
 _atom_site_fract_z
 _atom_site_occupancy
  Li  Li0  1  0.25000800  0.25000000  0.25000100  1
  Li  Li1  1  0.74999200  0.75000000  0.74999900  1
  Li  Li2  1  0.25000100  0.25000500  0.74999900  1
  Li  Li3  1  0.74999900  0.74999400  0.25000100  1
  Li  Li4  1  0.74999700  0.36824400  0.47605200  1
  Li  Li5  1  0.25000500  0.86823800  0.97605900  1
  Li  Li6  1  0.74999500  0.13176200  0.02394100  1
  Li  Li7  1  0.25000200  0.63175700  0.52394800  1
  Co  Co0  1  0.00000000  0.50000000  0.00000000  1
  Co  Co1  1  0.00000000  0.00000000  0.50000100  1
  Co  Co2  1  0.50000000  0.00000000  0.50000000  1
  Co  Co3  1  0.50000000  0.50000000  0.00000000  1
  O  O0  1  0.75000600  0.00003300  0.31169500  1
  O  O1  1  0.25002500  0.50003200  0.81169100  1
  O  O2  1  0.74997600  0.49996800  0.18830900  1
  O  O3  1  0.24999200  0.99996600  0.68830700  1
  F  F0  1  0.24999100  0.49120800  0.26033300  1
  F  F1  1  0.75000600  0.99121000  0.76033500  1
  F  F2  1  0.24999300  0.00879000  0.23966400  1
  F  F3  1  0.75001100  0.50879100  0.73966700  1
  F  F4  1  0.48702000  0.26402000  0.00080900  1
  F  F5  1  0.98704900  0.76403100  0.50083000  1
  F  F6  1  0.01295800  0.26404100  0.00083400  1
  F  F7  1  0.51298500  0.76401600  0.50081300  1
  F  F8  1  0.48701500  0.23598700  0.49918600  1
  F  F9  1  0.98704200  0.73596000  0.99916700  1
  F  F10  1  0.01295100  0.23596800  0.49916900  1
  F  F11  1  0.51298200  0.73598000  0.99919000  1
loop_
_geom_bond_atom_site_label_1
_geom_bond_atom_site_label_2
_geom_bond_distance
_geom_bond_site_symmetry_2
Li2 O1 2.188046 1_555
Li2 O3 2.188149 1_545
Li3 O2 2.188038 1_555
Li3 O0 2.188151 1_565
Li4 O2 2.053363 1_555
Li5 O3 2.053426 1_555
Li6 O0 2.053441 1_555
Li7 O1 2.053367 1_555
Co0 O2 1.831412 1_455
Co0 O1 1.831417 1_554
Co0 F6 2.043588 1_555
Co0 F9 2.043597 1_454
Co0 F3 2.115947 1_454
Co0 F0 2.115956 1_555
Co1 O3 1.831401 1_545
Co1 O0 1.831410 1_455
Co1 F10 2.043668 1_555
Co1 F5 2.043676 1_445
Co1 F1 2.115796 1_445
Co1 F2 2.115805 1_555
Co2 O0 1.831314 1_555
Co2 O3 1.831331 1_545
Co2 F7 2.043808 1_545
Co2 F8 2.043834 1_555
Co2 F1 2.116024 1_545
Co2 F2 2.116032 1_555
Co3 O1 1.831332 1_554
Co3 O2 1.831337 1_555
Co3 F4 2.043775 1_555
Co3 F11 2.043776 1_554
Co3 F0 2.115853 1_555
Co3 F3 2.115861 1_554
F0 Li7 1.952478 1_555
F0 Li0 2.087409 1_555
F1 Li6 1.952453 1_566
F1 Li1 2.087427 1_555
F2 Li5 1.952448 1_544
F2 Li0 2.087427 1_555
F3 Li4 1.952468 1_555
F3 Li1 2.087418 1_555
F4 Li6 1.921640 1_555
F4 Li0 2.018982 1_555
F4 Li2 2.023166 1_554
F5 Li7 1.921613 1_655
F5 Li1 2.019071 1_555
F5 Li3 2.023380 1_555
F6 Li6 1.921699 1_455
F6 Li0 2.019206 1_555
F6 Li2 2.023205 1_554
F7 Li7 1.921703 1_555
F7 Li1 2.019099 1_555
F7 Li3 2.022985 1_555
F8 Li4 1.921687 1_555
F8 Li0 2.019093 1_555
F8 Li2 2.022988 1_555
F9 Li5 1.921695 1_655
F9 Li1 2.019210 1_555
F9 Li3 2.023200 1_556
F10 Li4 1.921628 1_455
F10 Li0 2.019068 1_555
F10 Li2 2.023385 1_555
F11 Li5 1.921649 1_555
F11 Li1 2.018970 1_555
F11 Li3 2.023162 1_556
