# generated using pymatgen
data_Li4Mn5Co3O16
_symmetry_space_group_name_H-M   'P 1'
_cell_length_a   5.73908109
_cell_length_b   5.73908109
_cell_length_c   9.40871078
_cell_angle_alpha   89.16280489
_cell_angle_beta   89.16280489
_cell_angle_gamma   59.89405140
_symmetry_Int_Tables_number   1
_chemical_formula_structural   Li4Mn5Co3O16
_chemical_formula_sum   'Li4 Mn5 Co3 O16'
_cell_volume   268.05201148
_cell_formula_units_Z   1
loop_
 _symmetry_equiv_pos_site_id
 _symmetry_equiv_pos_as_xyz
  1  'x, y, z'
loop_
 _atom_site_type_symbol
 _atom_site_label
 _atom_site_symmetry_multiplicity
 _atom_site_fract_x
 _atom_site_fract_y
 _atom_site_fract_z
 _atom_site_occupancy
  Li  Li0  1  0.33304200  0.33304200  0.09827100  1
  Li  Li1  1  0.99351100  0.99351100  0.00062100  1
  Li  Li2  1  0.99285000  0.99285000  0.50718400  1
  Li  Li3  1  0.66832200  0.66832200  0.60842700  1
  Mn  Mn0  1  0.33765500  0.33765500  0.51604100  1
  Mn  Mn1  1  0.17209700  0.17209700  0.78602900  1
  Mn  Mn2  1  0.66864600  0.66864600  0.00907600  1
  Mn  Mn3  1  0.83065000  0.33219900  0.28456400  1
  Mn  Mn4  1  0.33219900  0.83065000  0.28456400  1
  Co  Co0  1  0.66017200  0.17448900  0.78809900  1
  Co  Co1  1  0.17448900  0.66017200  0.78809900  1
  Co  Co2  1  0.82787800  0.82787800  0.28404700  1
  O  O0  1  0.67609000  0.15840900  0.39601200  1
  O  O1  1  0.48949200  0.48949200  0.67478900  1
  O  O2  1  0.33301200  0.33301200  0.89154000  1
  O  O3  1  0.00292700  0.00292700  0.69450900  1
  O  O4  1  0.99713600  0.99713600  0.18743000  1
  O  O5  1  0.15840900  0.67609000  0.39601200  1
  O  O6  1  0.48466700  0.04301100  0.66262800  1
  O  O7  1  0.04301100  0.48466700  0.66262800  1
  O  O8  1  0.83415100  0.83415100  0.90196700  1
  O  O9  1  0.15501200  0.15501200  0.39161600  1
  O  O10  1  0.95959100  0.51832800  0.15956400  1
  O  O11  1  0.51832800  0.95959100  0.15956400  1
  O  O12  1  0.66244700  0.66244700  0.39081700  1
  O  O13  1  0.83816900  0.32744100  0.90370100  1
  O  O14  1  0.51799100  0.51799100  0.15978500  1
  O  O15  1  0.32744100  0.83816900  0.90370100  1
loop_
_geom_bond_atom_site_label_1
_geom_bond_atom_site_label_2
_geom_bond_distance
_geom_bond_site_symmetry_2
Li0 O10 1.937094 1_455
Li0 O11 1.937094 1_545
Li0 O14 1.937635 1_555
Li0 O2 1.945077 1_554
Li1 O4 1.758609 1_555
Li1 O8 1.850197 1_554
Li1 O15 1.886214 1_654
Li1 O13 1.886214 1_564
Li2 O3 1.767020 1_665
Li2 O0 1.896148 1_565
Li2 O5 1.896148 1_655
Li2 O9 1.929855 1_665
Li3 O1 1.875038 1_555
Li3 O6 1.933303 1_565
Li3 O7 1.933303 1_655
Li3 O12 2.049248 1_555
Mn0 O6 2.002009 1_555
Mn0 O7 2.002009 1_555
Mn0 O0 2.017806 1_555
Mn0 O5 2.017806 1_555
Mn0 O1 2.141827 1_555
Mn0 O9 2.177593 1_555
Mn1 O2 1.897469 1_555
Mn1 O3 1.902938 1_555
Mn1 O6 1.935425 1_555
Mn1 O7 1.935425 1_555
Mn1 O13 1.986489 1_455
Mn1 O15 1.986489 1_545
Mn2 O8 1.915501 1_554
Mn2 O15 1.970118 1_554
Mn2 O13 1.970118 1_554
Mn2 O10 2.031105 1_555
Mn2 O11 2.031105 1_555
Mn2 O14 2.045509 1_555
Mn3 O4 1.904870 1_545
Mn3 O9 1.907803 1_655
Mn3 O0 1.926385 1_555
Mn3 O12 1.927488 1_555
Mn3 O10 1.950057 1_555
Mn3 O14 1.959740 1_555
Mn4 O4 1.904870 1_455
Mn4 O9 1.907803 1_565
Mn4 O5 1.926385 1_555
Mn4 O12 1.927488 1_555
Mn4 O11 1.950057 1_555
Mn4 O14 1.959740 1_555
Co0 O2 1.886554 1_555
Co0 O1 1.887326 1_555
Co0 O3 1.909454 1_655
Co0 O6 1.949553 1_555
Co0 O13 1.989234 1_555
Co0 O8 1.993354 1_545
Co1 O2 1.886554 1_555
Co1 O1 1.887326 1_555
Co1 O3 1.909454 1_565
Co1 O7 1.949553 1_555
Co1 O15 1.989234 1_555
Co1 O8 1.993354 1_455
Co2 O4 1.899615 1_555
Co2 O12 1.913245 1_555
Co2 O10 1.946014 1_555
Co2 O11 1.946014 1_555
Co2 O5 1.959801 1_655
Co2 O0 1.959801 1_565
