# generated using pymatgen
data_Li2V3FeO8
_symmetry_space_group_name_H-M   'P 1'
_cell_length_a   6.34903475
_cell_length_b   6.34903475
_cell_length_c   6.47261361
_cell_angle_alpha   73.96845992
_cell_angle_beta   73.96845992
_cell_angle_gamma   36.90157420
_symmetry_Int_Tables_number   1
_chemical_formula_structural   Li2V3FeO8
_chemical_formula_sum   'Li2 V3 Fe1 O8'
_cell_volume   149.87676965
_cell_formula_units_Z   1
loop_
 _symmetry_equiv_pos_site_id
 _symmetry_equiv_pos_as_xyz
  1  'x, y, z'
loop_
 _atom_site_type_symbol
 _atom_site_label
 _atom_site_symmetry_multiplicity
 _atom_site_fract_x
 _atom_site_fract_y
 _atom_site_fract_z
 _atom_site_occupancy
  Li  Li0  1  0.93973700  0.93973700  0.33994900  1
  Li  Li1  1  0.05859300  0.05859300  0.64307900  1
  V  V0  1  0.71111400  0.71111400  0.70804000  1
  V  V1  1  0.60920800  0.60920800  0.29784100  1
  V  V2  1  0.38799600  0.38799600  0.72433600  1
  Fe  Fe0  1  0.28540400  0.28540400  0.31197500  1
  O  O0  1  0.88048500  0.88048500  0.67138000  1
  O  O1  1  0.76227000  0.76227000  0.35488300  1
  O  O2  1  0.65406100  0.65406100  0.98697100  1
  O  O3  1  0.56031100  0.56031100  0.64015200  1
  O  O4  1  0.45148000  0.45148000  0.35231500  1
  O  O5  1  0.35202000  0.35202000  0.99346100  1
  O  O6  1  0.23262500  0.23262500  0.65788900  1
  O  O7  1  0.11469900  0.11469900  0.31772900  1
loop_
_geom_bond_atom_site_label_1
_geom_bond_atom_site_label_2
_geom_bond_distance
_geom_bond_site_symmetry_2
Li0 O4 2.017602 1_655
Li0 O4 2.017602 1_565
Li0 O0 2.054236 1_555
Li0 O7 2.070183 1_665
Li0 O1 2.111534 1_555
Li1 O3 2.009545 1_545
Li1 O3 2.009545 1_455
Li1 O7 2.015621 1_555
Li1 O0 2.099368 1_445
Li1 O6 2.126160 1_555
Fe0 O5 1.982653 1_554
Fe0 O1 2.036525 1_545
Fe0 O1 2.036525 1_455
Fe0 O7 2.045667 1_555
Fe0 O4 2.091428 1_555
Fe0 O6 2.142043 1_555
O0 V0 1.984078 1_555
O0 V2 2.044857 1_565
O0 V2 2.044857 1_655
O1 V1 1.982886 1_555
O1 V0 2.187388 1_555
O2 V0 1.734752 1_555
O2 V1 1.925520 1_556
O3 V2 1.986571 1_555
O3 V0 1.989324 1_555
O3 V1 2.120413 1_555
O4 V1 1.828618 1_555
O4 V2 2.304522 1_555
O5 V2 1.668119 1_555
O6 V2 2.038661 1_555
O6 V0 2.039913 1_545
O6 V0 2.039913 1_455
O7 V1 2.015841 1_545
O7 V1 2.015841 1_455
