# generated using pymatgen
data_NaDyO2
_symmetry_space_group_name_H-M   'P 1'
_cell_length_a   8.25064040
_cell_length_b   8.25064040
_cell_length_c   6.01746572
_cell_angle_alpha   59.73248554
_cell_angle_beta   120.26751446
_cell_angle_gamma   74.16350635
_symmetry_Int_Tables_number   1
_chemical_formula_structural   NaDyO2
_chemical_formula_sum   'Na4 Dy4 O8'
_cell_volume   216.27447784
_cell_formula_units_Z   4
loop_
 _symmetry_equiv_pos_site_id
 _symmetry_equiv_pos_as_xyz
  1  'x, y, z'
loop_
 _atom_site_type_symbol
 _atom_site_label
 _atom_site_symmetry_multiplicity
 _atom_site_fract_x
 _atom_site_fract_y
 _atom_site_fract_z
 _atom_site_occupancy
  Na  Na0  1  0.69416643  0.69416643  0.75000000  1
  Na  Na1  1  0.93010816  0.93010816  0.75000000  1
  Na  Na2  1  0.06989184  0.06989184  0.25000000  1
  Na  Na3  1  0.30583357  0.30583357  0.25000000  1
  Dy  Dy0  1  0.18265860  0.18265860  0.75000000  1
  Dy  Dy1  1  0.44332146  0.44332146  0.75000000  1
  Dy  Dy2  1  0.81734140  0.81734140  0.25000000  1
  Dy  Dy3  1  0.55667854  0.55667854  0.25000000  1
  O  O0  1  0.20787326  0.66832932  0.74932784  1
  O  O1  1  0.43695772  0.93612522  0.79250067  1
  O  O2  1  0.33167068  0.79212674  0.24932784  1
  O  O3  1  0.06387478  0.56304228  0.29250067  1
  O  O4  1  0.93612522  0.43695772  0.70749933  1
  O  O5  1  0.66832932  0.20787326  0.75067216  1
  O  O6  1  0.56304228  0.06387478  0.20749933  1
  O  O7  1  0.79212674  0.33167068  0.25067216  1
loop_
_geom_bond_atom_site_label_1
_geom_bond_atom_site_label_2
_geom_bond_distance
_geom_bond_site_symmetry_2
Na0 O3 2.394215 1_656
Na0 O6 2.394215 1_565
Na0 O7 2.411974 1_556
Na0 O2 2.411974 1_555
Na0 O4 2.702542 1_555
Na0 O1 2.702542 1_555
Na1 O3 2.371543 1_656
Na1 O6 2.371543 1_565
Na1 O7 2.399770 1_565
Na1 O2 2.399770 1_656
Na1 O5 2.689541 1_565
Na1 O0 2.689541 1_655
Na2 O4 2.371543 1_454
Na2 O1 2.371543 1_545
Na2 O0 2.399770 1_545
Na2 O5 2.399770 1_454
Na2 O2 2.689541 1_545
Na2 O7 2.689541 1_455
Na3 O4 2.394215 1_454
Na3 O1 2.394215 1_545
Na3 O5 2.411974 1_555
Na3 O0 2.411974 1_554
Na3 O3 2.702542 1_555
Na3 O6 2.702542 1_555
Dy0 O1 2.282622 1_545
Dy0 O4 2.282622 1_455
Dy0 O7 2.296980 1_455
Dy0 O2 2.296980 1_546
Dy0 O3 2.297979 1_555
Dy0 O6 2.297979 1_556
Dy1 O2 2.285273 1_555
Dy1 O7 2.285273 1_556
Dy1 O5 2.288309 1_555
Dy1 O0 2.288309 1_555
Dy1 O3 2.288751 1_555
Dy1 O6 2.288751 1_556
Dy2 O6 2.282622 1_565
Dy2 O3 2.282622 1_655
Dy2 O0 2.296980 1_655
Dy2 O5 2.296980 1_564
Dy2 O4 2.297979 1_555
Dy2 O1 2.297979 1_554
Dy3 O5 2.285273 1_555
Dy3 O0 2.285273 1_554
Dy3 O2 2.288309 1_555
Dy3 O7 2.288309 1_555
Dy3 O4 2.288751 1_555
Dy3 O1 2.288751 1_554
