# generated using pymatgen
data_Li4Mn5Te3O16
_symmetry_space_group_name_H-M   'P 1'
_cell_length_a   6.27611000
_cell_length_b   6.28221791
_cell_length_c   9.98646554
_cell_angle_alpha   89.57826088
_cell_angle_beta   89.39360888
_cell_angle_gamma   60.19486797
_symmetry_Int_Tables_number   1
_chemical_formula_structural   Li4Mn5Te3O16
_chemical_formula_sum   'Li4 Mn5 Te3 O16'
_cell_volume   341.64087964
_cell_formula_units_Z   1
loop_
 _symmetry_equiv_pos_site_id
 _symmetry_equiv_pos_as_xyz
  1  'x, y, z'
loop_
 _atom_site_type_symbol
 _atom_site_label
 _atom_site_symmetry_multiplicity
 _atom_site_fract_x
 _atom_site_fract_y
 _atom_site_fract_z
 _atom_site_occupancy
  Li  Li0  1  0.34720700  0.34095300  0.87144500  1
  Li  Li1  1  0.00508900  0.00262500  0.99548300  1
  Li  Li2  1  0.99744900  0.00732400  0.50431700  1
  Li  Li3  1  0.69243400  0.67560800  0.39711700  1
  Mn  Mn0  1  0.31591600  0.31856700  0.50745900  1
  Mn  Mn1  1  0.16968700  0.16435300  0.21499200  1
  Mn  Mn2  1  0.64300600  0.66630600  0.98976300  1
  Mn  Mn3  1  0.83036000  0.33577800  0.71469200  1
  Mn  Mn4  1  0.33518500  0.83113500  0.71481000  1
  Te  Te0  1  0.66279800  0.16729200  0.21580300  1
  Te  Te1  1  0.17153900  0.65598200  0.21795500  1
  Te  Te2  1  0.82993800  0.83032600  0.71541600  1
  O  O0  1  0.68842300  0.13595200  0.60742800  1
  O  O1  1  0.51040100  0.46602000  0.33018300  1
  O  O2  1  0.36666000  0.31943900  0.10109800  1
  O  O3  1  0.96609900  0.01802500  0.32101600  1
  O  O4  1  0.98243000  0.98294000  0.81624900  1
  O  O5  1  0.13635200  0.69129500  0.60600200  1
  O  O6  1  0.51004000  0.03541500  0.33243000  1
  O  O7  1  0.04522400  0.48073300  0.34385400  1
  O  O8  1  0.81206300  0.87068000  0.10332200  1
  O  O9  1  0.15112200  0.14509600  0.61511900  1
  O  O10  1  0.96525100  0.53481400  0.82886800  1
  O  O11  1  0.53060500  0.96729000  0.82588200  1
  O  O12  1  0.68450500  0.68328500  0.60192400  1
  O  O13  1  0.81813300  0.30525400  0.10277600  1
  O  O14  1  0.52258300  0.52673400  0.81696200  1
  O  O15  1  0.30980000  0.84048100  0.09547500  1
loop_
_geom_bond_atom_site_label_1
_geom_bond_atom_site_label_2
_geom_bond_distance
_geom_bond_site_symmetry_2
Li0 O14 2.030939 1_555
Li0 O11 2.088289 1_545
Li0 O10 2.126557 1_455
Li0 O2 2.297372 1_556
Li1 O4 1.807053 1_445
Li1 O15 1.944459 1_546
Li1 O13 1.981184 1_456
Li1 O8 2.066879 1_446
Li2 O3 1.840308 1_555
Li2 O9 1.941707 1_655
Li2 O0 1.971512 1_555
Li2 O5 2.000330 1_645
Li3 O7 1.993524 1_655
Li3 O12 2.045717 1_555
Li3 O6 2.063721 1_565
Li3 O1 2.238338 1_555
Mn0 O9 2.119659 1_555
Mn0 O7 2.215224 1_555
Mn0 O5 2.260209 1_555
Mn0 O0 2.268220 1_555
Mn0 O6 2.355856 1_555
Mn0 O1 2.556618 1_555
Mn1 O15 2.138337 1_545
Mn1 O7 2.165552 1_555
Mn1 O3 2.173345 1_455
Mn1 O6 2.216626 1_555
Mn1 O2 2.218651 1_555
Mn1 O13 2.236905 1_455
Mn2 O15 2.092980 1_556
Mn2 O14 2.242017 1_555
Mn2 O13 2.266453 1_556
Mn2 O11 2.324704 1_555
Mn2 O8 2.336971 1_556
Mn2 O10 2.375778 1_555
Mn3 O14 1.971326 1_555
Mn3 O9 2.013537 1_655
Mn3 O0 2.160689 1_555
Mn3 O10 2.161948 1_555
Mn3 O4 2.176499 1_545
Mn3 O12 2.207070 1_555
Mn4 O14 1.960029 1_555
Mn4 O9 1.986521 1_565
Mn4 O11 2.133516 1_555
Mn4 O5 2.154602 1_555
Mn4 O4 2.169105 1_455
Mn4 O12 2.208815 1_555
O0 Te2 1.983134 1_545
O1 Te0 1.991360 1_555
O1 Te1 2.170481 1_555
O2 Te0 1.985716 1_555
O2 Te1 2.182601 1_555
O3 Te0 1.964730 1_555
O3 Te1 2.232909 1_645
O4 Te2 1.948314 1_555
O5 Te2 1.988680 1_455
O6 Te0 1.927123 1_555
O7 Te1 2.060951 1_555
O8 Te0 1.970984 1_565
O8 Te1 2.286186 1_655
O10 Te2 1.968110 1_555
O11 Te2 1.962096 1_555
O12 Te2 1.961242 1_555
O13 Te0 1.943693 1_555
O15 Te1 2.132834 1_555
