# generated using pymatgen
data_V4OF11
_symmetry_space_group_name_H-M   'P 1'
_cell_length_a   5.07398239
_cell_length_b   5.30917267
_cell_length_c   16.93013276
_cell_angle_alpha   88.58782244
_cell_angle_beta   98.50153605
_cell_angle_gamma   117.95035431
_symmetry_Int_Tables_number   1
_chemical_formula_structural   V4OF11
_chemical_formula_sum   'V8 O2 F22'
_cell_volume   397.92813045
_cell_formula_units_Z   2
loop_
 _symmetry_equiv_pos_site_id
 _symmetry_equiv_pos_as_xyz
  1  'x, y, z'
loop_
 _atom_site_type_symbol
 _atom_site_label
 _atom_site_symmetry_multiplicity
 _atom_site_fract_x
 _atom_site_fract_y
 _atom_site_fract_z
 _atom_site_occupancy
  V  V0  1  0.50000000  0.50000000  0.50000000  1
  V  V1  1  0.50000000  -0.00000000  0.00000000  1
  V  V2  1  0.26750638  0.85467811  0.62375228  1
  V  V3  1  0.24713087  0.37790866  0.12535469  1
  V  V4  1  0.00651010  0.24294156  0.74927994  1
  V  V5  1  0.99348990  0.75705844  0.25072006  1
  V  V6  1  0.73249362  0.14532189  0.37624772  1
  V  V7  1  0.75286913  0.62209134  0.87464531  1
  O  O0  1  0.59250814  0.33019959  0.41639783  1
  O  O1  1  0.40749186  0.66980041  0.58360217  1
  F  F0  1  0.07871751  0.27654498  0.46276715  1
  F  F1  1  0.51501131  0.80103830  0.43321123  1
  F  F2  1  0.50108331  0.30562029  0.93779096  1
  F  F3  1  0.48498869  0.19896170  0.56678877  1
  F  F4  1  0.07355910  0.07998394  0.65957400  1
  F  F5  1  0.06183491  0.77314153  0.96625650  1
  F  F6  1  0.06648127  0.59521734  0.15984900  1
  F  F7  1  0.92128249  0.72345502  0.53723285  1
  F  F8  1  0.93816509  0.22685847  0.03374350  1
  F  F9  1  0.93351873  0.40478266  0.84015100  1
  F  F10  1  0.01146284  0.55758944  0.68791069  1
  F  F11  1  0.49891669  0.69437971  0.06220904  1
  F  F12  1  0.56435732  0.02323130  0.71699578  1
  F  F13  1  0.57540319  0.84302048  0.90889333  1
  F  F14  1  0.55478872  0.52757932  0.21723443  1
  F  F15  1  0.92644090  0.92001606  0.34042600  1
  F  F16  1  0.44521128  0.47242068  0.78276557  1
  F  F17  1  0.42459681  0.15697952  0.09110667  1
  F  F18  1  0.99425603  0.05950530  0.18766794  1
  F  F19  1  0.98853716  0.44241056  0.31208931  1
  F  F20  1  0.00574397  0.94049470  0.81233206  1
  F  F21  1  0.43564268  0.97676870  0.28300422  1
loop_
_geom_bond_atom_site_label_1
_geom_bond_atom_site_label_2
_geom_bond_distance
_geom_bond_site_symmetry_2
O0 V6 1.661077 1_555
O0 V0 1.921552 1_555
O1 V2 1.661077 1_555
O1 V0 1.921552 1_555
F0 V0 1.906643 1_555
F0 V6 1.964499 1_455
F1 V0 1.913400 1_555
F1 V6 1.955972 1_565
F2 V1 1.910810 1_556
F2 V7 1.975147 1_555
F3 V0 1.913400 1_555
F3 V2 1.955972 1_545
F4 V4 1.914225 1_555
F4 V2 2.020590 1_545
F5 V7 1.915778 1_455
F5 V1 1.966737 1_566
F6 V3 1.922274 1_555
F6 V5 1.942743 1_455
F7 V0 1.906643 1_555
F7 V2 1.964499 1_655
F8 V3 1.915778 1_655
F8 V1 1.966737 1_555
F9 V7 1.922274 1_555
F9 V4 1.942743 1_655
F10 V4 1.937417 1_555
F10 V2 1.940984 1_555
F11 V1 1.910810 1_565
F11 V3 1.975147 1_555
F12 V2 1.914322 1_545
F12 V4 1.976939 1_655
F13 V7 1.923752 1_555
F13 V1 1.938270 1_566
F14 V3 1.915239 1_555
F14 V5 1.969603 1_555
F15 V5 1.914225 1_555
F15 V6 2.020590 1_565
F16 V7 1.915239 1_555
F16 V4 1.969603 1_555
F17 V3 1.923752 1_555
F17 V1 1.938270 1_555
F18 V5 1.904948 1_545
F18 V3 1.973827 1_655
F19 V5 1.937417 1_555
F19 V6 1.940984 1_555
F20 V4 1.904948 1_565
F20 V7 1.973827 1_455
F21 V6 1.914322 1_565
F21 V5 1.976939 1_455
