# generated using pymatgen
data_Li2VSi2O7
_symmetry_space_group_name_H-M   'P 1'
_cell_length_a   5.19509396
_cell_length_b   6.07173243
_cell_length_c   16.49023343
_cell_angle_alpha   88.24563489
_cell_angle_beta   87.88472054
_cell_angle_gamma   94.69271047
_symmetry_Int_Tables_number   1
_chemical_formula_structural   Li2VSi2O7
_chemical_formula_sum   'Li8 V4 Si8 O28'
_cell_volume   517.76266172
_cell_formula_units_Z   4
loop_
 _symmetry_equiv_pos_site_id
 _symmetry_equiv_pos_as_xyz
  1  'x, y, z'
loop_
 _atom_site_type_symbol
 _atom_site_label
 _atom_site_symmetry_multiplicity
 _atom_site_fract_x
 _atom_site_fract_y
 _atom_site_fract_z
 _atom_site_occupancy
  Li  Li0  1  0.69991300  0.51329200  0.42489200  1
  Li  Li1  1  0.69997300  0.01312000  0.92485900  1
  Li  Li2  1  0.29990700  0.98685600  0.07518200  1
  Li  Li3  1  0.29978700  0.48669800  0.57519400  1
  Li  Li4  1  0.79932400  0.57550300  0.23812500  1
  Li  Li5  1  0.79954900  0.07539800  0.73811200  1
  Li  Li6  1  0.20024100  0.92453900  0.26191200  1
  Li  Li7  1  0.20021400  0.42449600  0.76191100  1
  V  V0  1  0.23915800  0.93528900  0.63774800  1
  V  V1  1  0.76078100  0.06465900  0.36233900  1
  V  V2  1  0.23914700  0.43554400  0.13765000  1
  V  V3  1  0.76066700  0.56459400  0.86228900  1
  Si  Si0  1  0.30288600  0.40550300  0.32666500  1
  Si  Si1  1  0.30320100  0.90539600  0.82660800  1
  Si  Si2  1  0.69700400  0.09453200  0.17333900  1
  Si  Si3  1  0.69692100  0.59449600  0.67336800  1
  Si  Si4  1  0.78907600  0.72315600  0.06310700  1
  Si  Si5  1  0.78903400  0.22313500  0.56312700  1
  Si  Si6  1  0.21081800  0.77683300  0.43691400  1
  Si  Si7  1  0.21105800  0.27683600  0.93684700  1
  O  O0  1  0.39297300  0.14978600  0.18004200  1
  O  O1  1  0.39287700  0.64977300  0.68008400  1
  O  O2  1  0.60696600  0.35023500  0.31995500  1
  O  O3  1  0.60716900  0.84994600  0.81979200  1
  O  O4  1  0.91168400  0.30782500  0.16781400  1
  O  O5  1  0.91154300  0.80773500  0.66782400  1
  O  O6  1  0.08831800  0.19221700  0.33217500  1
  O  O7  1  0.08836300  0.69234800  0.83222000  1
  O  O8  1  0.23717000  0.28986900  0.03367700  1
  O  O9  1  0.23690900  0.78955700  0.53375500  1
  O  O10  1  0.76297100  0.21039000  0.46627000  1
  O  O11  1  0.76286000  0.71013400  0.96629400  1
  O  O12  1  0.28874200  0.52063700  0.41807900  1
  O  O13  1  0.29144200  0.02127300  0.91790500  1
  O  O14  1  0.71122800  0.97938500  0.08193100  1
  O  O15  1  0.71023100  0.47911300  0.58199200  1
  O  O16  1  0.22974300  0.57432700  0.25291000  1
  O  O17  1  0.22978300  0.07430800  0.75290600  1
  O  O18  1  0.77022400  0.92567000  0.24709300  1
  O  O19  1  0.77022800  0.42569700  0.74710600  1
  O  O20  1  0.56871000  0.56934500  0.11807200  1
  O  O21  1  0.56871700  0.06920500  0.61806900  1
  O  O22  1  0.43123900  0.93066100  0.38195800  1
  O  O23  1  0.43120800  0.43098400  0.88191500  1
  O  O24  1  0.07822600  0.70499400  0.09670700  1
  O  O25  1  0.07813400  0.20494500  0.59672500  1
  O  O26  1  0.92174500  0.79504200  0.40329800  1
  O  O27  1  0.92193400  0.29472700  0.90324300  1
loop_
_geom_bond_atom_site_label_1
_geom_bond_atom_site_label_2
_geom_bond_distance
_geom_bond_site_symmetry_2
Li0 O26 1.997816 1_555
Li0 O10 1.998393 1_555
Li0 O2 2.072705 1_555
Li0 O12 2.147187 1_555
Li1 O27 1.997502 1_555
Li1 O11 1.998941 1_545
Li1 O3 2.074721 1_545
Li1 O13 2.134200 1_555
Li2 O24 1.997822 1_555
Li2 O8 1.999266 1_565
Li2 O0 2.071381 1_565
Li2 O14 2.147949 1_555
Li3 O25 1.997230 1_555
Li3 O9 1.998238 1_555
Li3 O1 2.072260 1_555
Li3 O15 2.143541 1_555
Li4 O2 2.062545 1_555
Li4 O4 2.132415 1_555
Li4 O18 2.152976 1_555
Li4 O16 2.258814 1_655
Li4 O20 2.351225 1_555
Li5 O3 2.061744 1_545
Li5 O5 2.131530 1_545
Li5 O19 2.153986 1_555
Li5 O17 2.257838 1_655
Li5 O21 2.351694 1_555
Li6 O0 2.063664 1_565
Li6 O6 2.131257 1_565
Li6 O16 2.153613 1_555
Li6 O18 2.256797 1_455
Li6 O22 2.352202 1_555
Li7 O1 2.063192 1_555
Li7 O7 2.132409 1_555
Li7 O17 2.153525 1_555
Li7 O19 2.256638 1_455
Li7 O23 2.351595 1_555
O0 Si2 1.641822 1_555
O0 V2 2.081234 1_555
O1 Si3 1.641936 1_555
O1 V0 2.079420 1_555
O2 Si0 1.642099 1_555
O2 V1 2.080220 1_555
O3 Si1 1.641914 1_555
O3 V3 2.078898 1_555
O4 Si2 1.636544 1_555
O4 V2 1.854972 1_655
O5 Si3 1.636120 1_555
O5 V0 1.855006 1_655
O6 Si0 1.636154 1_555
O6 V1 1.854981 1_455
O7 Si1 1.635967 1_555
O7 V3 1.855754 1_455
O8 Si7 1.611286 1_554
O8 V2 1.953140 1_555
O9 Si6 1.611319 1_555
O9 V0 1.953602 1_555
O10 Si5 1.611574 1_555
O10 V1 1.952687 1_555
O11 Si4 1.611065 1_556
O11 V3 1.953219 1_555
O12 Si6 1.674346 1_555
O12 Si0 1.682620 1_555
O13 Si7 1.675064 1_555
O13 Si1 1.682381 1_545
O14 Si4 1.674377 1_555
O14 Si2 1.682584 1_565
O15 Si5 1.674610 1_555
O15 Si3 1.682539 1_555
O16 Si0 1.641911 1_555
O16 V2 2.103074 1_555
O17 Si1 1.642048 1_545
O17 V0 2.102149 1_545
O18 Si2 1.642166 1_565
O18 V1 2.103406 1_565
O19 Si3 1.641876 1_555
O19 V3 2.102229 1_555
O20 Si4 1.643458 1_555
O20 V2 1.846917 1_555
O21 Si5 1.643462 1_555
O21 V0 1.847361 1_545
O22 Si6 1.643613 1_555
O22 V1 1.847336 1_565
O23 Si7 1.643488 1_555
O23 V3 1.846124 1_555
O24 Si4 1.631088 1_455
O24 V2 2.007274 1_555
O25 Si5 1.630855 1_455
O25 V0 2.009020 1_545
O26 Si6 1.630849 1_655
O26 V1 2.008322 1_565
O27 Si7 1.630769 1_655
O27 V3 2.010348 1_555
