# generated using pymatgen
data_Co6O5F7
_symmetry_space_group_name_H-M   'P 1'
_cell_length_a   9.17507800
_cell_length_b   4.64046200
_cell_length_c   4.65976198
_cell_angle_alpha   86.12552425
_cell_angle_beta   90.00000000
_cell_angle_gamma   90.00000000
_symmetry_Int_Tables_number   1
_chemical_formula_structural   Co6O5F7
_chemical_formula_sum   'Co6 O5 F7'
_cell_volume   197.94338573
_cell_formula_units_Z   1
loop_
 _symmetry_equiv_pos_site_id
 _symmetry_equiv_pos_as_xyz
  1  'x, y, z'
loop_
 _atom_site_type_symbol
 _atom_site_label
 _atom_site_symmetry_multiplicity
 _atom_site_fract_x
 _atom_site_fract_y
 _atom_site_fract_z
 _atom_site_occupancy
  Co  Co0  1  0.00000000  0.01001400  0.98980000  1
  Co  Co1  1  0.33993500  0.96634000  0.01454400  1
  Co  Co2  1  0.66006500  0.96634000  0.01454400  1
  Co  Co3  1  0.15819000  0.50502800  0.48763400  1
  Co  Co4  1  0.84181000  0.50502800  0.48763400  1
  Co  Co5  1  0.50000000  0.54391700  0.50644400  1
  O  O0  1  0.50000000  0.80867700  0.81686600  1
  O  O1  1  0.32169300  0.69365400  0.30931500  1
  O  O2  1  0.00000000  0.69318300  0.29961100  1
  O  O3  1  0.67830700  0.69365400  0.30931500  1
  O  O4  1  0.00000000  0.31562300  0.67199900  1
  F  F0  1  0.16851700  0.80532700  0.79845800  1
  F  F1  1  0.83148300  0.80532700  0.79845800  1
  F  F2  1  0.67693500  0.29843700  0.70680000  1
  F  F3  1  0.32306500  0.29843700  0.70680000  1
  F  F4  1  0.17054900  0.19557900  0.18839700  1
  F  F5  1  0.82945100  0.19557900  0.18839700  1
  F  F6  1  0.50000000  0.19985600  0.20498500  1
loop_
_geom_bond_atom_site_label_1
_geom_bond_atom_site_label_2
_geom_bond_distance
_geom_bond_site_symmetry_2
Co0 O4 1.979995 1_555
Co0 O2 1.989695 1_546
Co0 F4 2.038183 1_556
Co0 F5 2.038183 1_456
Co0 F1 2.049931 1_445
Co0 F0 2.049931 1_545
Co1 O1 1.811355 1_555
Co1 O0 1.905690 1_554
Co1 F0 2.036523 1_554
Co1 F3 2.038783 1_564
Co1 F6 2.061189 1_565
Co1 F4 2.078385 1_565
Co2 O3 1.811355 1_555
Co2 O0 1.905690 1_554
Co2 F1 2.036523 1_554
Co2 F2 2.038783 1_564
Co2 F6 2.061189 1_565
Co2 F5 2.078385 1_565
Co3 O4 1.874859 1_555
Co3 O2 1.879673 1_555
Co3 O1 1.899677 1_555
Co3 F3 2.029313 1_555
Co3 F4 2.071180 1_555
Co3 F0 2.078802 1_555
Co4 O4 1.874859 1_655
Co4 O2 1.879673 1_655
Co4 O3 1.899677 1_555
Co4 F2 2.029313 1_555
Co4 F5 2.071180 1_555
Co4 F1 2.078802 1_555
Co5 O0 1.960100 1_555
Co5 O3 1.979083 1_555
Co5 O1 1.979083 1_555
Co5 F2 2.158923 1_555
Co5 F3 2.158923 1_555
Co5 F6 2.196700 1_555
