# generated using pymatgen
data_Li6Ag3F10
_symmetry_space_group_name_H-M   'P 1'
_cell_length_a   5.56233900
_cell_length_b   9.20392100
_cell_length_c   19.81348300
_cell_angle_alpha   90.00000000
_cell_angle_beta   90.00000000
_cell_angle_gamma   90.00000000
_symmetry_Int_Tables_number   1
_chemical_formula_structural   Li6Ag3F10
_chemical_formula_sum   'Li24 Ag12 F40'
_cell_volume   1014.35777550
_cell_formula_units_Z   4
loop_
 _symmetry_equiv_pos_site_id
 _symmetry_equiv_pos_as_xyz
  1  'x, y, z'
loop_
 _atom_site_type_symbol
 _atom_site_label
 _atom_site_symmetry_multiplicity
 _atom_site_fract_x
 _atom_site_fract_y
 _atom_site_fract_z
 _atom_site_occupancy
  Li  Li0  1  0.23613000  0.72354000  0.01749400  1
  Li  Li1  1  0.37663000  0.98713900  0.04472800  1
  Li  Li2  1  0.82753300  0.54460000  0.10536100  1
  Li  Li3  1  0.36801300  0.73030800  0.14707200  1
  Li  Li4  1  0.75544500  0.27313800  0.20230000  1
  Li  Li5  1  0.18748000  0.42028700  0.23407400  1
  Li  Li6  1  0.68748000  0.92028700  0.26592600  1
  Li  Li7  1  0.25544500  0.77313800  0.29770000  1
  Li  Li8  1  0.86801300  0.23030800  0.35292800  1
  Li  Li9  1  0.32753300  0.04460000  0.39463900  1
  Li  Li10  1  0.87663000  0.48713900  0.45527200  1
  Li  Li11  1  0.73613000  0.22354000  0.48250600  1
  Li  Li12  1  0.23613000  0.77646000  0.51749400  1
  Li  Li13  1  0.37663000  0.51286100  0.54472800  1
  Li  Li14  1  0.82753300  0.95540000  0.60536100  1
  Li  Li15  1  0.36801300  0.76969200  0.64707200  1
  Li  Li16  1  0.75544500  0.22686200  0.70230000  1
  Li  Li17  1  0.18748000  0.07971300  0.73407400  1
  Li  Li18  1  0.68748000  0.57971300  0.76592600  1
  Li  Li19  1  0.25544500  0.72686200  0.79770000  1
  Li  Li20  1  0.86801300  0.26969200  0.85292800  1
  Li  Li21  1  0.32753300  0.45540000  0.89463900  1
  Li  Li22  1  0.87663000  0.01286100  0.95527200  1
  Li  Li23  1  0.73613000  0.27646000  0.98250600  1
  Ag  Ag0  1  0.32094500  0.40067800  0.07959800  1
  Ag  Ag1  1  0.85513400  0.92457900  0.10337500  1
  Ag  Ag2  1  0.19932800  0.08266900  0.22586400  1
  Ag  Ag3  1  0.69932800  0.58266900  0.27413600  1
  Ag  Ag4  1  0.35513400  0.42457900  0.39662500  1
  Ag  Ag5  1  0.82094500  0.90067800  0.42040200  1
  Ag  Ag6  1  0.32094500  0.09932200  0.57959800  1
  Ag  Ag7  1  0.85513400  0.57542100  0.60337500  1
  Ag  Ag8  1  0.19932800  0.41733100  0.72586400  1
  Ag  Ag9  1  0.69932800  0.91733100  0.77413600  1
  Ag  Ag10  1  0.35513400  0.07542100  0.89662500  1
  Ag  Ag11  1  0.82094500  0.59932200  0.92040200  1
  F  F0  1  0.64083700  0.09233600  0.01508400  1
  F  F1  1  0.67321300  0.44728800  0.03089800  1
  F  F2  1  0.51737200  0.80098900  0.06603600  1
  F  F3  1  0.06776300  0.69340900  0.10116200  1
  F  F4  1  0.19957200  0.06570700  0.11535200  1
  F  F5  1  0.00608500  0.39077600  0.14807900  1
  F  F6  1  0.57041400  0.56673000  0.16810000  1
  F  F7  1  0.78993400  0.06604800  0.20381000  1
  F  F8  1  0.41088000  0.85127600  0.22014700  1
  F  F9  1  0.43026700  0.28309300  0.22671300  1
  F  F10  1  0.93026700  0.78309300  0.27328700  1
  F  F11  1  0.91088000  0.35127600  0.27985300  1
  F  F12  1  0.28993400  0.56604800  0.29619000  1
  F  F13  1  0.07041400  0.06673000  0.33190000  1
  F  F14  1  0.50608500  0.89077600  0.35192100  1
  F  F15  1  0.69957200  0.56570700  0.38464800  1
  F  F16  1  0.56776300  0.19340900  0.39883800  1
  F  F17  1  0.01737200  0.30098900  0.43396400  1
  F  F18  1  0.17321300  0.94728800  0.46910200  1
  F  F19  1  0.14083700  0.59233600  0.48491600  1
  F  F20  1  0.64083700  0.40766400  0.51508400  1
  F  F21  1  0.67321300  0.05271200  0.53089800  1
  F  F22  1  0.51737200  0.69901100  0.56603600  1
  F  F23  1  0.06776300  0.80659100  0.60116200  1
  F  F24  1  0.19957200  0.43429300  0.61535200  1
  F  F25  1  0.00608500  0.10922400  0.64807900  1
  F  F26  1  0.57041400  0.93327000  0.66810000  1
  F  F27  1  0.78993400  0.43395200  0.70381000  1
  F  F28  1  0.41088000  0.64872400  0.72014700  1
  F  F29  1  0.43026700  0.21690700  0.72671300  1
  F  F30  1  0.93026700  0.71690700  0.77328700  1
  F  F31  1  0.91088000  0.14872400  0.77985300  1
  F  F32  1  0.28993400  0.93395200  0.79619000  1
  F  F33  1  0.07041400  0.43327000  0.83190000  1
  F  F34  1  0.50608500  0.60922400  0.85192100  1
  F  F35  1  0.69957200  0.93429300  0.88464800  1
  F  F36  1  0.56776300  0.30659100  0.89883800  1
  F  F37  1  0.01737200  0.19901100  0.93396400  1
  F  F38  1  0.17321300  0.55271200  0.96910200  1
  F  F39  1  0.14083700  0.90766400  0.98491600  1
loop_
_geom_bond_atom_site_label_1
_geom_bond_atom_site_label_2
_geom_bond_distance
_geom_bond_site_symmetry_2
Ag0 F5 2.217340 1_555
Ag0 F1 2.225867 1_555
Ag1 F2 2.317531 1_555
Ag1 F4 2.326830 1_665
Ag1 F7 2.405593 1_565
Ag1 F3 2.434690 1_655
Ag1 F0 2.620131 1_565
Ag2 F4 2.195186 1_555
Ag2 F13 2.224783 1_555
Ag2 F9 2.247943 1_555
Ag2 F7 2.323775 1_455
Ag2 F8 2.435822 1_545
Ag3 F15 2.195186 1_555
Ag3 F6 2.224783 1_555
Ag3 F10 2.247943 1_555
Ag3 F12 2.323775 1_555
Ag3 F11 2.435822 1_555
Ag4 F17 2.317531 1_555
Ag4 F15 2.326830 1_555
Ag4 F12 2.405593 1_555
Ag4 F16 2.434690 1_555
Ag4 F19 2.620131 1_555
Ag5 F14 2.217340 1_555
Ag5 F18 2.225867 1_655
Ag6 F25 2.217340 1_555
Ag6 F21 2.225867 1_555
Ag7 F22 2.317531 1_555
Ag7 F24 2.326830 1_655
Ag7 F27 2.405593 1_555
Ag7 F23 2.434690 1_655
Ag7 F20 2.620131 1_555
Ag8 F24 2.195186 1_555
Ag8 F33 2.224783 1_555
Ag8 F29 2.247943 1_555
Ag8 F27 2.323775 1_455
Ag8 F28 2.435822 1_555
Ag9 F35 2.195186 1_555
Ag9 F26 2.224783 1_555
Ag9 F30 2.247943 1_555
Ag9 F32 2.323775 1_555
Ag9 F31 2.435822 1_565
Ag10 F37 2.317531 1_555
Ag10 F35 2.326830 1_545
Ag10 F32 2.405593 1_545
Ag10 F36 2.434690 1_555
Ag10 F39 2.620131 1_545
Ag11 F34 2.217340 1_555
Ag11 F38 2.225867 1_655
F0 Li1 1.855314 1_545
F0 Li23 1.889308 1_554
F0 Li22 1.913029 1_554
F1 Li23 1.874537 1_554
F1 Li2 1.927623 1_555
F2 Li3 1.921296 1_555
F2 Li1 1.930423 1_555
F2 Li0 1.969873 1_555
F3 Li2 1.915290 1_455
F3 Li0 1.924089 1_555
F3 Li3 1.931835 1_555
F4 Li1 1.857667 1_545
F5 Li2 1.925410 1_455
F5 Li5 1.998739 1_555
F5 Li4 2.066417 1_455
F6 Li2 1.905821 1_555
F6 Li3 1.925558 1_555
F7 Li6 1.907693 1_545
F7 Li4 1.915903 1_555
F8 Li3 1.841955 1_555
F8 Li6 1.895595 1_555
F8 Li7 1.904164 1_555
F9 Li5 1.854587 1_555
F9 Li4 1.874552 1_555
F10 Li6 1.854587 1_555
F10 Li7 1.874552 1_655
F11 Li8 1.841955 1_555
F11 Li5 1.895595 1_655
F11 Li4 1.904164 1_555
F12 Li5 1.907693 1_555
F12 Li7 1.915903 1_555
F13 Li9 1.905821 1_555
F13 Li8 1.925558 1_455
F14 Li9 1.925410 1_565
F14 Li6 1.998739 1_555
F14 Li7 2.066417 1_555
F15 Li10 1.857667 1_555
F16 Li9 1.915290 1_555
F16 Li11 1.924089 1_555
F16 Li8 1.931835 1_555
F17 Li8 1.921296 1_455
F17 Li10 1.930423 1_455
F17 Li11 1.969873 1_455
F18 Li12 1.874537 1_555
F18 Li9 1.927623 1_565
F19 Li10 1.855314 1_455
F19 Li12 1.889308 1_555
F19 Li13 1.913029 1_555
F20 Li13 1.855314 1_555
F20 Li11 1.889308 1_555
F20 Li10 1.913029 1_555
F21 Li11 1.874537 1_555
F21 Li14 1.927623 1_545
F22 Li15 1.921296 1_555
F22 Li13 1.930423 1_555
F22 Li12 1.969873 1_555
F23 Li14 1.915290 1_455
F23 Li12 1.924089 1_555
F23 Li15 1.931835 1_555
F24 Li13 1.857667 1_555
F25 Li14 1.925410 1_445
F25 Li17 1.998739 1_555
F25 Li16 2.066417 1_455
F26 Li14 1.905821 1_555
F26 Li15 1.925558 1_555
F27 Li18 1.907693 1_555
F27 Li16 1.915903 1_555
F28 Li15 1.841955 1_555
F28 Li18 1.895595 1_555
F28 Li19 1.904164 1_555
F29 Li17 1.854587 1_555
F29 Li16 1.874552 1_555
F30 Li18 1.854587 1_555
F30 Li19 1.874552 1_655
F31 Li20 1.841955 1_555
F31 Li17 1.895595 1_655
F31 Li16 1.904164 1_555
F32 Li17 1.907693 1_565
F32 Li19 1.915903 1_555
F33 Li21 1.905821 1_555
F33 Li20 1.925558 1_455
F34 Li21 1.925410 1_555
F34 Li18 1.998739 1_555
F34 Li19 2.066417 1_555
F35 Li22 1.857667 1_565
F36 Li21 1.915290 1_555
F36 Li23 1.924089 1_555
F36 Li20 1.931835 1_555
F37 Li20 1.921296 1_455
F37 Li22 1.930423 1_455
F37 Li23 1.969873 1_455
F38 Li0 1.874537 1_556
F38 Li21 1.927623 1_555
F39 Li22 1.855314 1_465
F39 Li0 1.889308 1_556
F39 Li1 1.913029 1_556
