# generated using pymatgen
data_Fe(AsO2)2
_symmetry_space_group_name_H-M   'P 1'
_cell_length_a   8.62906500
_cell_length_b   8.62906500
_cell_length_c   5.76231000
_cell_angle_alpha   90.00000000
_cell_angle_beta   90.00000000
_cell_angle_gamma   90.00000000
_symmetry_Int_Tables_number   1
_chemical_formula_structural   Fe(AsO2)2
_chemical_formula_sum   'Fe4 As8 O16'
_cell_volume   429.06599794
_cell_formula_units_Z   4
loop_
 _symmetry_equiv_pos_site_id
 _symmetry_equiv_pos_as_xyz
  1  'x, y, z'
loop_
 _atom_site_type_symbol
 _atom_site_label
 _atom_site_symmetry_multiplicity
 _atom_site_fract_x
 _atom_site_fract_y
 _atom_site_fract_z
 _atom_site_occupancy
  Fe  Fe0  1  0.50000000  0.00000000  0.25000000  1
  Fe  Fe1  1  0.50000000  0.00000000  0.75000000  1
  Fe  Fe2  1  0.00000000  0.50000000  0.25000000  1
  Fe  Fe3  1  0.00000000  0.50000000  0.75000000  1
  As  As0  1  0.81006500  0.17528900  0.50000000  1
  As  As1  1  0.17528900  0.18993500  0.00000000  1
  As  As2  1  0.67528900  0.31006500  0.00000000  1
  As  As3  1  0.31006500  0.32471100  0.50000000  1
  As  As4  1  0.68993500  0.67528900  0.50000000  1
  As  As5  1  0.32471100  0.68993500  0.00000000  1
  As  As6  1  0.82471100  0.81006500  0.00000000  1
  As  As7  1  0.18993500  0.82471100  0.50000000  1
  O  O0  1  0.64193100  0.10987200  0.00000000  1
  O  O1  1  0.60987200  0.14193100  0.50000000  1
  O  O2  1  0.31717200  0.18282800  0.25000000  1
  O  O3  1  0.31717200  0.18282800  0.75000000  1
  O  O4  1  0.81717200  0.31717200  0.25000000  1
  O  O5  1  0.81717200  0.31717200  0.75000000  1
  O  O6  1  0.10987200  0.35806900  0.50000000  1
  O  O7  1  0.14193100  0.39012800  0.00000000  1
  O  O8  1  0.85806900  0.60987200  0.00000000  1
  O  O9  1  0.89012800  0.64193100  0.50000000  1
  O  O10  1  0.18282800  0.68282800  0.25000000  1
  O  O11  1  0.18282800  0.68282800  0.75000000  1
  O  O12  1  0.68282800  0.81717200  0.25000000  1
  O  O13  1  0.68282800  0.81717200  0.75000000  1
  O  O14  1  0.39012800  0.85806900  0.50000000  1
  O  O15  1  0.35806900  0.89012800  0.00000000  1
loop_
_geom_bond_atom_site_label_1
_geom_bond_atom_site_label_2
_geom_bond_distance
_geom_bond_site_symmetry_2
Fe0 O15 2.115209 1_545
Fe0 O1 2.115209 1_555
Fe0 O14 2.115209 1_545
Fe0 O0 2.115209 1_555
Fe0 O12 2.231112 1_545
Fe0 O2 2.231112 1_555
Fe1 O15 2.115209 1_546
Fe1 O1 2.115209 1_555
Fe1 O0 2.115209 1_556
Fe1 O14 2.115209 1_545
Fe1 O3 2.231112 1_555
Fe1 O13 2.231112 1_545
Fe2 O6 2.115209 1_555
Fe2 O8 2.115209 1_455
Fe2 O7 2.115209 1_555
Fe2 O9 2.115209 1_455
Fe2 O10 2.231112 1_555
Fe2 O4 2.231112 1_455
Fe3 O6 2.115209 1_555
Fe3 O8 2.115209 1_456
Fe3 O7 2.115209 1_556
Fe3 O9 2.115209 1_455
Fe3 O5 2.231112 1_455
Fe3 O11 2.231112 1_555
As0 O1 1.751296 1_555
As0 O4 1.891554 1_555
As0 O5 1.891554 1_555
As1 O7 1.751296 1_555
As1 O3 1.891554 1_554
As1 O2 1.891554 1_555
As2 O0 1.751296 1_555
As2 O4 1.891554 1_555
As2 O5 1.891554 1_554
As3 O6 1.751296 1_555
As3 O3 1.891554 1_555
As3 O2 1.891554 1_555
As4 O9 1.751296 1_555
As4 O13 1.891554 1_555
As4 O12 1.891554 1_555
As5 O15 1.751296 1_555
As5 O10 1.891554 1_555
As5 O11 1.891554 1_554
As6 O8 1.751296 1_555
As6 O12 1.891554 1_555
As6 O13 1.891554 1_554
As7 O14 1.751296 1_555
As7 O11 1.891554 1_555
As7 O10 1.891554 1_555
