# generated using pymatgen
data_LiCa2Ta3O10
_symmetry_space_group_name_H-M   'P 1'
_cell_length_a   14.18312793
_cell_length_b   14.18312793
_cell_length_c   14.18312793
_cell_angle_alpha   164.03445316
_cell_angle_beta   164.03445316
_cell_angle_gamma   22.65297058
_symmetry_Int_Tables_number   1
_chemical_formula_structural   LiCa2Ta3O10
_chemical_formula_sum   'Li1 Ca2 Ta3 O10'
_cell_volume   215.81651066
_cell_formula_units_Z   1
loop_
 _symmetry_equiv_pos_site_id
 _symmetry_equiv_pos_as_xyz
  1  'x, y, z'
loop_
 _atom_site_type_symbol
 _atom_site_label
 _atom_site_symmetry_multiplicity
 _atom_site_fract_x
 _atom_site_fract_y
 _atom_site_fract_z
 _atom_site_occupancy
  Li  Li0  1  0.25000000  0.75000000  0.50000000  1
  Ca  Ca0  1  0.41733500  0.41733500  0.00000000  1
  Ca  Ca1  1  0.58266500  0.58266500  0.00000000  1
  Ta  Ta0  1  0.00000000  0.00000000  0.00000000  1
  Ta  Ta1  1  0.15384200  0.15384200  0.00000000  1
  Ta  Ta2  1  0.84615800  0.84615800  0.00000000  1
  O  O0  1  0.07090900  0.07090900  0.00000000  1
  O  O1  1  0.49988600  0.99988600  0.50000000  1
  O  O2  1  0.63800400  0.13800400  0.50000000  1
  O  O3  1  0.21848000  0.21848000  0.00000000  1
  O  O4  1  0.86199600  0.36199600  0.50000000  1
  O  O5  1  0.78152000  0.78152000  0.00000000  1
  O  O6  1  0.92909100  0.92909100  0.00000000  1
  O  O7  1  0.00011400  0.50011400  0.50000000  1
  O  O8  1  0.13934100  0.63934100  0.50000000  1
  O  O9  1  0.36065900  0.86065900  0.50000000  1
loop_
_geom_bond_atom_site_label_1
_geom_bond_atom_site_label_2
_geom_bond_distance
_geom_bond_site_symmetry_2
Li0 O5 2.155981 1_455
Li0 O5 2.155981 1_556
Li0 O3 2.155981 1_566
Li0 O3 2.155981 1_555
Ca0 O4 2.499753 1_454
Ca0 O4 2.499753 1_555
Ca0 O9 2.522821 1_555
Ca0 O9 2.522821 1_544
Ca0 O6 2.804683 1_455
Ca0 O6 2.804683 1_545
Ca0 O6 2.804683 1_444
Ca0 O6 2.804683 1_556
Ca0 O1 3.025152 1_555
Ca0 O1 3.025152 1_544
Ca0 O7 3.029968 1_655
Ca0 O7 3.029968 1_554
Ca1 O2 2.499753 1_554
Ca1 O2 2.499753 1_565
Ca1 O8 2.522821 1_655
Ca1 O8 2.522821 1_554
Ca1 O0 2.804683 1_655
Ca1 O0 2.804683 1_565
Ca1 O0 2.804683 1_666
Ca1 O0 2.804683 1_554
Ca1 O7 3.025152 1_554
Ca1 O7 3.025152 1_655
Ca1 O1 3.029968 1_555
Ca1 O1 3.029968 1_544
O0 Ta0 1.972248 1_555
O0 Ta1 2.306681 1_555
O1 Ta0 1.969690 1_666
O1 Ta0 1.969690 1_565
O2 Ta1 2.018346 1_656
O2 Ta1 2.018346 1_555
O3 Ta1 1.797828 1_555
O4 Ta2 2.018346 1_556
O4 Ta2 2.018346 1_545
O5 Ta2 1.797828 1_555
O6 Ta0 1.972248 1_665
O6 Ta2 2.306681 1_555
O7 Ta0 1.969690 1_555
O7 Ta0 1.969690 1_566
O8 Ta1 2.010557 1_566
O8 Ta1 2.010557 1_555
O9 Ta2 2.010557 1_556
O9 Ta2 2.010557 1_455
