# generated using pymatgen
data_Fe4O7F
_symmetry_space_group_name_H-M   'P 1'
_cell_length_a   4.61568214
_cell_length_b   4.61568214
_cell_length_c   12.05722900
_cell_angle_alpha   90.00000000
_cell_angle_beta   90.00000000
_cell_angle_gamma   91.84960874
_symmetry_Int_Tables_number   1
_chemical_formula_structural   Fe4O7F
_chemical_formula_sum   'Fe8 O14 F2'
_cell_volume   256.73966246
_cell_formula_units_Z   2
loop_
 _symmetry_equiv_pos_site_id
 _symmetry_equiv_pos_as_xyz
  1  'x, y, z'
loop_
 _atom_site_type_symbol
 _atom_site_label
 _atom_site_symmetry_multiplicity
 _atom_site_fract_x
 _atom_site_fract_y
 _atom_site_fract_z
 _atom_site_occupancy
  Fe  Fe0  1  0.00511400  0.99488600  0.37919900  1
  Fe  Fe1  1  0.99488600  0.00511400  0.62080100  1
  Fe  Fe2  1  0.99488600  0.00511400  0.87919900  1
  Fe  Fe3  1  0.00511400  0.99488600  0.12080100  1
  Fe  Fe4  1  0.50000000  0.50000000  0.50000000  1
  Fe  Fe5  1  0.50000000  0.50000000  0.00000000  1
  Fe  Fe6  1  0.47779300  0.52220700  0.25000000  1
  Fe  Fe7  1  0.52220700  0.47779300  0.75000000  1
  O  O0  1  0.19537800  0.80462200  0.50328200  1
  O  O1  1  0.19537800  0.80462200  0.99671800  1
  O  O2  1  0.17860900  0.82139100  0.25000000  1
  O  O3  1  0.30284800  0.31168000  0.37489300  1
  O  O4  1  0.31168000  0.30284800  0.62510700  1
  O  O5  1  0.31168000  0.30284800  0.87489300  1
  O  O6  1  0.30284800  0.31168000  0.12510700  1
  O  O7  1  0.68832000  0.69715200  0.37489300  1
  O  O8  1  0.69715200  0.68832000  0.62510700  1
  O  O9  1  0.69715200  0.68832000  0.87489300  1
  O  O10  1  0.68832000  0.69715200  0.12510700  1
  O  O11  1  0.80462200  0.19537800  0.49671800  1
  O  O12  1  0.82139100  0.17860900  0.75000000  1
  O  O13  1  0.80462200  0.19537800  0.00328200  1
  F  F0  1  0.20402900  0.79597100  0.75000000  1
  F  F1  1  0.79597100  0.20402900  0.25000000  1
loop_
_geom_bond_atom_site_label_1
_geom_bond_atom_site_label_2
_geom_bond_distance
_geom_bond_site_symmetry_2
Fe0 O2 1.936656 1_555
Fe0 O11 1.943141 1_465
Fe0 O0 1.957180 1_555
Fe0 O3 1.974746 1_565
Fe0 O7 1.974746 1_455
Fe1 O12 1.936656 1_555
Fe1 O0 1.943141 1_645
Fe1 O11 1.957180 1_555
Fe1 O4 1.974746 1_655
Fe1 O8 1.974746 1_545
Fe2 O12 1.936656 1_555
Fe2 O1 1.943141 1_645
Fe2 O13 1.957180 1_556
Fe2 O5 1.974746 1_655
Fe2 O9 1.974746 1_545
Fe3 O2 1.936656 1_555
Fe3 O13 1.943141 1_465
Fe3 O1 1.957180 1_554
Fe3 O6 1.974746 1_565
Fe3 O10 1.974746 1_455
Fe4 O4 1.951404 1_555
Fe4 O8 1.951404 1_555
Fe4 O3 1.951404 1_555
Fe4 O7 1.951404 1_555
Fe4 O11 2.020661 1_555
Fe4 O0 2.020661 1_555
Fe5 O5 1.951404 1_554
Fe5 O9 1.951404 1_554
Fe5 O10 1.951404 1_555
Fe5 O6 1.951404 1_555
Fe5 O13 2.020661 1_555
Fe5 O1 2.020661 1_554
Fe6 O3 1.952758 1_555
Fe6 O7 1.952758 1_555
Fe6 O10 1.952758 1_555
Fe6 O6 1.952758 1_555
Fe6 O2 1.984208 1_555
Fe7 O9 1.952758 1_555
Fe7 O4 1.952758 1_555
Fe7 O5 1.952758 1_555
Fe7 O8 1.952758 1_555
Fe7 O12 1.984208 1_555
F0 Fe1 2.085807 1_465
F0 Fe2 2.085807 1_465
F0 Fe7 2.110177 1_555
F1 Fe3 2.085807 1_645
F1 Fe0 2.085807 1_645
F1 Fe6 2.110177 1_555
