# generated using pymatgen
data_Mn5Ni(PO4)6
_symmetry_space_group_name_H-M   'P 1'
_cell_length_a   8.58513904
_cell_length_b   8.58513904
_cell_length_c   8.58513926
_cell_angle_alpha   59.83477390
_cell_angle_beta   59.83477390
_cell_angle_gamma   59.83477647
_symmetry_Int_Tables_number   1
_chemical_formula_structural   Mn5Ni(PO4)6
_chemical_formula_sum   'Mn5 Ni1 P6 O24'
_cell_volume   445.75412550
_cell_formula_units_Z   1
loop_
 _symmetry_equiv_pos_site_id
 _symmetry_equiv_pos_as_xyz
  1  'x, y, z'
loop_
 _atom_site_type_symbol
 _atom_site_label
 _atom_site_symmetry_multiplicity
 _atom_site_fract_x
 _atom_site_fract_y
 _atom_site_fract_z
 _atom_site_occupancy
  Mn  Mn0  1  0.00350700  0.00350700  0.00350700  1
  Mn  Mn1  1  0.64313400  0.64313400  0.64313400  1
  Mn  Mn2  1  0.50075500  0.50075500  0.50075500  1
  Mn  Mn3  1  0.85688900  0.85688900  0.85688900  1
  Mn  Mn4  1  0.35629100  0.35629100  0.35629100  1
  Ni  Ni0  1  0.14286700  0.14286700  0.14286700  1
  P  P0  1  0.96015000  0.24905000  0.54053700  1
  P  P1  1  0.54053700  0.96015000  0.24905000  1
  P  P2  1  0.24905000  0.54053700  0.96015000  1
  P  P3  1  0.74850700  0.46048900  0.03709700  1
  P  P4  1  0.46048900  0.03709700  0.74850700  1
  P  P5  1  0.03709700  0.74850700  0.46048900  1
  O  O0  1  0.51128100  0.12213400  0.30259300  1
  O  O1  1  0.30259300  0.51128100  0.12213400  1
  O  O2  1  0.12213400  0.30259300  0.51128100  1
  O  O3  1  0.94269600  0.08400500  0.74137600  1
  O  O4  1  0.98360600  0.19628600  0.38696700  1
  O  O5  1  0.76243100  0.41924600  0.56242000  1
  O  O6  1  0.74137600  0.94269600  0.08400500  1
  O  O7  1  0.56242000  0.76243100  0.41924600  1
  O  O8  1  0.80269300  0.62108500  0.00890900  1
  O  O9  1  0.41924600  0.56242000  0.76243100  1
  O  O10  1  0.90802300  0.26554900  0.05477000  1
  O  O11  1  0.62108500  0.00890900  0.80269300  1
  O  O12  1  0.38696700  0.98360600  0.19628600  1
  O  O13  1  0.08400500  0.74137600  0.94269600  1
  O  O14  1  0.57714300  0.44950200  0.23382600  1
  O  O15  1  0.19628600  0.38696700  0.98360600  1
  O  O16  1  0.44950200  0.23382600  0.57714300  1
  O  O17  1  0.26554900  0.05477000  0.90802300  1
  O  O18  1  0.23382600  0.57714300  0.44950200  1
  O  O19  1  0.00890900  0.80269300  0.62108500  1
  O  O20  1  0.05477000  0.90802300  0.26554900  1
  O  O21  1  0.87562200  0.68971600  0.49884600  1
  O  O22  1  0.68971600  0.49884600  0.87562200  1
  O  O23  1  0.49884600  0.87562200  0.68971600  1
loop_
_geom_bond_atom_site_label_1
_geom_bond_atom_site_label_2
_geom_bond_distance
_geom_bond_site_symmetry_2
Mn0 O17 2.169278 1_554
Mn0 O10 2.169278 1_455
Mn0 O20 2.169278 1_545
Mn0 O6 2.251610 1_445
Mn0 O13 2.251610 1_544
Mn0 O3 2.251610 1_454
Mn1 O21 1.870220 1_555
Mn1 O22 1.870220 1_555
Mn1 O23 1.870220 1_555
Mn1 O9 1.967364 1_555
Mn1 O5 1.967365 1_555
Mn1 O7 1.967365 1_555
Mn2 O7 2.249416 1_555
Mn2 O5 2.249416 1_555
Mn2 O9 2.249416 1_555
Mn2 O16 2.255715 1_555
Mn2 O18 2.255715 1_555
Mn2 O14 2.255715 1_555
Mn3 O8 1.923309 1_556
Mn3 O19 1.923309 1_655
Mn3 O11 1.923309 1_565
Mn3 O3 2.023365 1_565
Mn3 O13 2.023365 1_655
Mn3 O6 2.023365 1_556
Mn4 O2 1.910730 1_555
Mn4 O1 1.910730 1_555
Mn4 O0 1.910730 1_555
Mn4 O14 2.004156 1_555
Mn4 O18 2.004156 1_555
Mn4 O16 2.004156 1_555
Ni0 O15 1.981800 1_554
Ni0 O4 1.981800 1_455
Ni0 O12 1.981800 1_545
Ni0 O20 2.084248 1_545
Ni0 O10 2.084248 1_455
Ni0 O17 2.084248 1_554
O0 P1 1.543919 1_545
O1 P2 1.543919 1_554
O2 P0 1.543919 1_455
O3 P0 1.581625 1_555
O4 P0 1.491875 1_555
O5 P0 1.585676 1_555
O6 P1 1.581625 1_555
O7 P1 1.585676 1_555
O8 P3 1.540136 1_555
O9 P2 1.585676 1_555
O10 P3 1.532847 1_555
O11 P4 1.540136 1_555
O12 P1 1.491875 1_555
O13 P2 1.581625 1_555
O14 P3 1.583674 1_555
O15 P2 1.491875 1_555
O16 P4 1.583674 1_555
O17 P4 1.532847 1_555
O18 P5 1.583674 1_555
O19 P5 1.540136 1_555
O20 P5 1.532847 1_555
O21 P5 1.536993 1_655
O22 P3 1.536993 1_556
O23 P4 1.536993 1_565
