# generated using pymatgen
data_LiV2(CO3)4
_symmetry_space_group_name_H-M   'P 1'
_cell_length_a   6.07767023
_cell_length_b   8.68531774
_cell_length_c   8.64225989
_cell_angle_alpha   89.99965252
_cell_angle_beta   71.76715398
_cell_angle_gamma   89.99977840
_symmetry_Int_Tables_number   1
_chemical_formula_structural   LiV2(CO3)4
_chemical_formula_sum   'Li2 V4 C8 O24'
_cell_volume   433.29039140
_cell_formula_units_Z   2
loop_
 _symmetry_equiv_pos_site_id
 _symmetry_equiv_pos_as_xyz
  1  'x, y, z'
loop_
 _atom_site_type_symbol
 _atom_site_label
 _atom_site_symmetry_multiplicity
 _atom_site_fract_x
 _atom_site_fract_y
 _atom_site_fract_z
 _atom_site_occupancy
  Li  Li0  1  0.25000000  0.59939000  0.99999700  1
  Li  Li1  1  0.25000300  0.09939300  0.49999500  1
  V  V0  1  0.24999700  0.69665500  0.49999500  1
  V  V1  1  0.75000400  0.30723600  0.50000500  1
  V  V2  1  0.24999600  0.19675200  0.00000300  1
  V  V3  1  0.75000600  0.80721700  0.00000000  1
  C  C0  1  0.20264200  0.40485700  0.29141600  1
  C  C1  1  0.20265500  0.90485400  0.79139500  1
  C  C2  1  0.29735900  0.40485500  0.70858300  1
  C  C3  1  0.29734500  0.90485100  0.20860100  1
  C  C4  1  0.71140200  0.59334700  0.28431800  1
  C  C5  1  0.71143300  0.09333200  0.78429700  1
  C  C6  1  0.78859700  0.59334900  0.71568600  1
  C  C7  1  0.78856600  0.09333400  0.21570500  1
  O  O0  1  0.93262500  0.19091600  0.11514500  1
  O  O1  1  0.93264400  0.69087600  0.61516700  1
  O  O2  1  0.56737100  0.19091100  0.88485400  1
  O  O3  1  0.56735800  0.69087700  0.38483300  1
  O  O4  1  0.73265100  0.45838800  0.33300600  1
  O  O5  1  0.73262800  0.95838300  0.83299200  1
  O  O6  1  0.76735100  0.45838700  0.66699800  1
  O  O7  1  0.76735600  0.95839500  0.16701000  1
  O  O8  1  0.21340200  0.54473200  0.33736500  1
  O  O9  1  0.21344300  0.04475900  0.83734200  1
  O  O10  1  0.28659500  0.54473100  0.66263300  1
  O  O11  1  0.28655900  0.04475700  0.16265700  1
  O  O12  1  0.29263800  0.37853300  0.13614700  1
  O  O13  1  0.29265600  0.87852500  0.63614900  1
  O  O14  1  0.20736200  0.37853200  0.86385300  1
  O  O15  1  0.20734400  0.87852200  0.36384800  1
  O  O16  1  0.82719300  0.63710900  0.14088300  1
  O  O17  1  0.82718500  0.13711300  0.64089600  1
  O  O18  1  0.67280700  0.63711000  0.85911900  1
  O  O19  1  0.67283100  0.13711100  0.35911300  1
  O  O20  1  0.40008400  0.79629600  0.10941400  1
  O  O21  1  0.40008000  0.29629800  0.60940700  1
  O  O22  1  0.09991300  0.79629800  0.89058000  1
  O  O23  1  0.09992500  0.29630000  0.39059400  1
loop_
_geom_bond_atom_site_label_1
_geom_bond_atom_site_label_2
_geom_bond_distance
_geom_bond_site_symmetry_2
Li0 O20 2.278322 1_556
Li0 O22 2.278330 1_555
Li0 O14 2.306929 1_555
Li0 O12 2.306937 1_556
Li0 O18 2.497031 1_555
Li0 O16 2.497040 1_456
Li1 O23 2.278220 1_555
Li1 O21 2.278269 1_555
Li1 O13 2.307060 1_545
Li1 O15 2.307072 1_545
Li1 O17 2.497121 1_455
Li1 O19 2.497146 1_555
C0 O8 1.286121 1_555
C0 O23 1.295575 1_555
C0 O12 1.301074 1_555
C1 O9 1.286386 1_565
C1 O22 1.295641 1_555
C1 O13 1.300906 1_555
C2 O10 1.286130 1_555
C2 O21 1.295577 1_555
C2 O14 1.301079 1_555
C3 O11 1.286379 1_565
C3 O20 1.295643 1_555
C3 O15 1.300912 1_555
C4 O4 1.265579 1_555
C4 O16 1.276887 1_555
C4 O3 1.327660 1_555
C5 O5 1.265453 1_545
C5 O17 1.276643 1_555
C5 O2 1.328144 1_555
C6 O6 1.265605 1_555
C6 O18 1.276872 1_555
C6 O1 1.327665 1_555
C7 O7 1.265397 1_545
C7 O19 1.276658 1_555
C7 O0 1.328162 1_555
O0 V2 1.874100 1_655
O1 V0 1.874046 1_655
O2 V2 1.874134 1_556
O3 V0 1.874070 1_555
O4 V1 1.978072 1_555
O5 V3 1.978253 1_556
O6 V1 1.978029 1_555
O7 V3 1.978299 1_555
O8 V0 1.990373 1_555
O9 V2 1.990890 1_556
O10 V0 1.990424 1_555
O11 V2 1.990865 1_555
O12 V2 2.033486 1_555
O13 V0 2.034171 1_555
O14 V2 2.033483 1_556
O15 V0 2.034090 1_555
O16 V3 2.059786 1_555
O17 V1 2.059910 1_555
O18 V3 2.059811 1_556
O19 V1 2.059921 1_555
O20 V3 2.041478 1_555
O21 V1 2.041482 1_555
O22 V3 2.041403 1_456
O23 V1 2.041475 1_455
