# generated using pymatgen
data_Li4Fe3Ni3(TeO8)2
_symmetry_space_group_name_H-M   'P 1'
_cell_length_a   5.94146564
_cell_length_b   5.94146564
_cell_length_c   9.70661918
_cell_angle_alpha   89.69260716
_cell_angle_beta   89.69260716
_cell_angle_gamma   59.96003265
_symmetry_Int_Tables_number   1
_chemical_formula_structural   Li4Fe3Ni3(TeO8)2
_chemical_formula_sum   'Li4 Fe3 Ni3 Te2 O16'
_cell_volume   296.62136199
_cell_formula_units_Z   1
loop_
 _symmetry_equiv_pos_site_id
 _symmetry_equiv_pos_as_xyz
  1  'x, y, z'
loop_
 _atom_site_type_symbol
 _atom_site_label
 _atom_site_symmetry_multiplicity
 _atom_site_fract_x
 _atom_site_fract_y
 _atom_site_fract_z
 _atom_site_occupancy
  Li  Li0  1  0.66488800  0.66488800  0.09123200  1
  Li  Li1  1  0.99707800  0.99707800  0.01635600  1
  Li  Li2  1  0.99799300  0.99799300  0.51295600  1
  Li  Li3  1  0.33294500  0.33294500  0.58766800  1
  Fe  Fe0  1  0.34107600  0.83105000  0.78741900  1
  Fe  Fe1  1  0.83105000  0.34107600  0.78741900  1
  Fe  Fe2  1  0.17069400  0.17069400  0.28680500  1
  Ni  Ni0  1  0.82833700  0.82833700  0.78871800  1
  Ni  Ni1  1  0.17077700  0.65871800  0.28788400  1
  Ni  Ni2  1  0.65871800  0.17077700  0.28788400  1
  Te  Te0  1  0.66943100  0.66943100  0.51464800  1
  Te  Te1  1  0.33593800  0.33593800  0.01838800  1
  O  O0  1  0.34479000  0.83182300  0.40873700  1
  O  O1  1  0.51922600  0.51922600  0.64733400  1
  O  O2  1  0.66052500  0.66052500  0.89140700  1
  O  O3  1  0.00270300  0.00270300  0.70172700  1
  O  O4  1  0.00176400  0.00176400  0.20363100  1
  O  O5  1  0.83182300  0.34479000  0.40873700  1
  O  O6  1  0.51494100  0.96219800  0.64682500  1
  O  O7  1  0.96219800  0.51494100  0.64682500  1
  O  O8  1  0.17341000  0.17341000  0.90765400  1
  O  O9  1  0.83101100  0.83101100  0.40994300  1
  O  O10  1  0.03620700  0.47741300  0.14675100  1
  O  O11  1  0.47741300  0.03620700  0.14675100  1
  O  O12  1  0.33042900  0.33042900  0.38803800  1
  O  O13  1  0.17422700  0.65839400  0.91056300  1
  O  O14  1  0.48112300  0.48112300  0.14945400  1
  O  O15  1  0.65839400  0.17422700  0.91056300  1
loop_
_geom_bond_atom_site_label_1
_geom_bond_atom_site_label_2
_geom_bond_distance
_geom_bond_site_symmetry_2
Li0 O2 1.940423 1_554
Li0 O14 1.970756 1_555
Li0 O10 1.986026 1_655
Li0 O11 1.986026 1_565
Li1 O4 1.818746 1_665
Li1 O13 2.025247 1_654
Li1 O15 2.025247 1_564
Li1 O8 2.093739 1_664
Li2 O3 1.833270 1_665
Li2 O9 1.993787 1_555
Li2 O5 2.048241 1_565
Li2 O0 2.048241 1_655
Li3 O12 1.938066 1_555
Li3 O6 1.989854 1_545
Li3 O7 1.989854 1_455
Li3 O1 2.006379 1_555
Fe0 O3 1.931272 1_565
Fe0 O2 1.931838 1_555
Fe0 O6 2.077509 1_555
Fe0 O1 2.109491 1_555
Fe0 O13 2.110952 1_555
Fe0 O8 2.115723 1_565
Fe1 O3 1.931272 1_655
Fe1 O2 1.931838 1_555
Fe1 O7 2.077509 1_555
Fe1 O1 2.109491 1_555
Fe1 O15 2.110952 1_555
Fe1 O8 2.115723 1_655
Fe2 O12 1.920627 1_555
Fe2 O4 1.921612 1_555
Fe2 O11 2.082004 1_555
Fe2 O10 2.082004 1_555
Fe2 O5 2.104022 1_455
Fe2 O0 2.104022 1_545
Ni0 O3 1.978722 1_665
Ni0 O2 1.988902 1_555
Ni0 O7 2.128313 1_555
Ni0 O6 2.128313 1_555
Ni0 O15 2.139491 1_565
Ni0 O13 2.139491 1_655
Ni1 O4 1.942466 1_565
Ni1 O12 1.945894 1_555
Ni1 O14 2.087947 1_555
Ni1 O9 2.108352 1_455
Ni1 O10 2.136883 1_555
Ni1 O0 2.143232 1_555
Ni2 O4 1.942466 1_655
Ni2 O12 1.945894 1_555
Ni2 O14 2.087947 1_555
Ni2 O9 2.108352 1_545
Ni2 O11 2.136883 1_555
Ni2 O5 2.143232 1_555
O0 Te0 1.963562 1_555
O1 Te0 2.006091 1_555
O5 Te0 1.963562 1_555
O6 Te0 1.981684 1_555
O7 Te0 1.981684 1_555
O8 Te1 1.994035 1_556
O9 Te0 1.943716 1_555
O10 Te1 1.979671 1_555
O11 Te1 1.979671 1_555
O13 Te1 1.958407 1_556
O14 Te1 1.968568 1_555
O15 Te1 1.958407 1_556
