# generated using pymatgen
data_Na(WO3)9
_symmetry_space_group_name_H-M   'P 1'
_cell_length_a   8.52728792
_cell_length_b   8.52728792
_cell_length_c   8.52728796
_cell_angle_alpha   66.43044912
_cell_angle_beta   66.43044907
_cell_angle_gamma   66.43044571
_symmetry_Int_Tables_number   1
_chemical_formula_structural   Na(WO3)9
_chemical_formula_sum   'Na1 W9 O27'
_cell_volume   499.21412082
_cell_formula_units_Z   1
loop_
 _symmetry_equiv_pos_site_id
 _symmetry_equiv_pos_as_xyz
  1  'x, y, z'
loop_
 _atom_site_type_symbol
 _atom_site_label
 _atom_site_symmetry_multiplicity
 _atom_site_fract_x
 _atom_site_fract_y
 _atom_site_fract_z
 _atom_site_occupancy
  Na  Na0  1  -0.00000000  -0.00000000  -0.00000000  1
  W  W0  1  0.50000000  0.50000000  0.50000000  1
  W  W1  1  0.94204635  0.61056859  0.27954773  1
  W  W2  1  0.83179538  0.83179538  0.83179538  1
  W  W3  1  0.72045227  0.05795365  0.38943141  1
  W  W4  1  0.16820462  0.16820462  0.16820462  1
  W  W5  1  0.27954773  0.94204635  0.61056859  1
  W  W6  1  0.38943141  0.72045227  0.05795365  1
  W  W7  1  0.61056859  0.27954773  0.94204635  1
  W  W8  1  0.05795365  0.38943141  0.72045227  1
  O  O0  1  0.44385028  0.61133503  0.27832434  1
  O  O1  1  0.16501320  0.66988592  0.16468420  1
  O  O2  1  -0.00000000  0.50000000  0.50000000  1
  O  O3  1  0.72167566  0.55614972  0.38866497  1
  O  O4  1  0.94478868  0.61093136  0.77824428  1
  O  O5  1  0.83531580  0.83498680  0.33011408  1
  O  O6  1  0.50000000  0.50000000  -0.00000000  1
  O  O7  1  0.38866497  0.72167566  0.55614972  1
  O  O8  1  0.88997583  0.72566890  0.05516060  1
  O  O9  1  0.05516060  0.88997583  0.72566890  1
  O  O10  1  0.33011408  0.83531580  0.83498680  1
  O  O11  1  0.22175572  0.05521132  0.38906864  1
  O  O12  1  0.66988592  0.16468420  0.16501320  1
  O  O13  1  0.77824428  0.94478868  0.61093136  1
  O  O14  1  0.94483940  0.11002417  0.27433110  1
  O  O15  1  0.50000000  -0.00000000  0.50000000  1
  O  O16  1  0.61093136  0.77824428  0.94478868  1
  O  O17  1  0.72566890  0.05516060  0.88997583  1
  O  O18  1  0.05521132  0.38906864  0.22175572  1
  O  O19  1  0.61133503  0.27832434  0.44385028  1
  O  O20  1  0.27433110  0.94483940  0.11002417  1
  O  O21  1  0.16468420  0.16501320  0.66988592  1
  O  O22  1  0.83498680  0.33011408  0.83531580  1
  O  O23  1  0.27832434  0.44385028  0.61133503  1
  O  O24  1  0.38906864  0.22175572  0.05521132  1
  O  O25  1  0.11002417  0.27433110  0.94483940  1
  O  O26  1  0.55614972  0.38866497  0.72167566  1
loop_
_geom_bond_atom_site_label_1
_geom_bond_atom_site_label_2
_geom_bond_distance
_geom_bond_site_symmetry_2
Na0 O20 2.663853 1_545
Na0 O17 2.663853 1_454
Na0 O14 2.663853 1_455
Na0 O9 2.663853 1_544
Na0 O25 2.663853 1_554
Na0 O8 2.663853 1_445
Na0 O10 2.669708 1_544
Na0 O12 2.669708 1_455
Na0 O22 2.669708 1_454
Na0 O1 2.669708 1_545
Na0 O5 2.669708 1_445
Na0 O21 2.669708 1_554
O0 W6 1.888417 1_555
O0 W0 1.904961 1_555
O1 W6 1.905155 1_555
O1 W1 1.927111 1_455
O2 W1 1.902611 1_455
O2 W8 1.902611 1_555
O3 W1 1.888417 1_555
O3 W0 1.904961 1_555
O4 W2 1.889093 1_555
O4 W8 1.909989 1_655
O5 W1 1.905155 1_555
O5 W3 1.927111 1_565
O6 W7 1.902611 1_554
O6 W6 1.902611 1_555
O7 W5 1.888417 1_555
O7 W0 1.904961 1_555
O8 W1 1.910673 1_555
O8 W2 1.926437 1_554
O9 W5 1.910673 1_555
O9 W2 1.926437 1_455
O10 W5 1.905155 1_555
O10 W6 1.927111 1_556
O11 W4 1.889093 1_555
O11 W5 1.909989 1_545
O12 W3 1.905155 1_555
O12 W7 1.927111 1_554
O13 W2 1.889093 1_555
O13 W3 1.909989 1_565
O14 W3 1.910673 1_555
O14 W4 1.926437 1_655
O15 W5 1.902611 1_545
O15 W3 1.902611 1_555
O16 W2 1.889093 1_555
O16 W6 1.909989 1_556
O17 W7 1.910673 1_555
O17 W2 1.926437 1_545
O18 W4 1.889093 1_555
O18 W1 1.909989 1_455
O19 W3 1.888417 1_555
O19 W0 1.904961 1_555
O20 W6 1.910673 1_555
O20 W4 1.926437 1_565
O21 W8 1.905155 1_555
O21 W5 1.927111 1_545
O22 W7 1.905155 1_555
O22 W8 1.927111 1_655
O23 W8 1.888417 1_555
O23 W0 1.904961 1_555
O24 W4 1.889093 1_555
O24 W7 1.909989 1_554
O25 W8 1.910673 1_555
O25 W4 1.926437 1_556
O26 W7 1.888417 1_555
O26 W0 1.904961 1_555
