# generated using pymatgen
data_KAgF4
_symmetry_space_group_name_H-M   'P 1'
_cell_length_a   5.80351079
_cell_length_b   5.80351130
_cell_length_c   7.10186347
_cell_angle_alpha   114.11633085
_cell_angle_beta   114.11633699
_cell_angle_gamma   90.00000182
_symmetry_Int_Tables_number   1
_chemical_formula_structural   KAgF4
_chemical_formula_sum   'K2 Ag2 F8'
_cell_volume   195.22078254
_cell_formula_units_Z   2
loop_
 _symmetry_equiv_pos_site_id
 _symmetry_equiv_pos_as_xyz
  1  'x, y, z'
loop_
 _atom_site_type_symbol
 _atom_site_label
 _atom_site_symmetry_multiplicity
 _atom_site_fract_x
 _atom_site_fract_y
 _atom_site_fract_z
 _atom_site_occupancy
  K  K0  1  0.25000000  0.25000000  0.50000000  1
  K  K1  1  0.75000000  0.75000000  0.50000000  1
  Ag  Ag0  1  -0.00000000  0.50000000  0.00000000  1
  Ag  Ag1  1  0.50000000  -0.00000000  0.00000000  1
  F  F0  1  0.94646070  0.44646070  0.23030273  1
  F  F1  1  0.71615797  0.21615797  0.76969727  1
  F  F2  1  0.05353930  0.55353930  0.76969727  1
  F  F3  1  0.21615797  0.05353930  0.76969727  1
  F  F4  1  0.28384203  0.78384203  0.23030273  1
  F  F5  1  0.44646070  0.28384203  0.23030273  1
  F  F6  1  0.78384203  0.94646070  0.23030273  1
  F  F7  1  0.55353930  0.71615797  0.76969727  1
loop_
_geom_bond_atom_site_label_1
_geom_bond_atom_site_label_2
_geom_bond_distance
_geom_bond_site_symmetry_2
Ag0 F2 1.923224 1_554
Ag0 F0 1.923224 1_455
Ag0 F1 1.923224 1_454
Ag0 F4 1.923224 1_555
Ag1 F6 1.923224 1_545
Ag1 F3 1.923224 1_554
Ag1 F7 1.923224 1_544
Ag1 F5 1.923224 1_555
F0 K0 2.664414 1_655
F0 K1 2.664414 1_555
F1 K0 2.664413 1_555
F1 K1 2.664414 1_545
F2 K1 2.664414 1_455
F2 K0 2.664414 1_555
F3 K0 2.664414 1_555
F3 K1 2.664414 1_445
F4 K1 2.664413 1_555
F4 K0 2.664414 1_565
F5 K0 2.664414 1_555
F5 K1 2.664414 1_555
F6 K1 2.664414 1_555
F6 K0 2.664414 1_665
F7 K1 2.664414 1_555
F7 K0 2.664414 1_555
