# generated using pymatgen
data_Li3Cr(FeO2)4
_symmetry_space_group_name_H-M   'P 1'
_cell_length_a   6.02251207
_cell_length_b   6.02251216
_cell_length_c   5.99666436
_cell_angle_alpha   90.44072688
_cell_angle_beta   60.66852199
_cell_angle_gamma   59.69640747
_symmetry_Int_Tables_number   1
_chemical_formula_structural   Li3Cr(FeO2)4
_chemical_formula_sum   'Li3 Cr1 Fe4 O8'
_cell_volume   154.03925728
_cell_formula_units_Z   1
loop_
 _symmetry_equiv_pos_site_id
 _symmetry_equiv_pos_as_xyz
  1  'x, y, z'
loop_
 _atom_site_type_symbol
 _atom_site_label
 _atom_site_symmetry_multiplicity
 _atom_site_fract_x
 _atom_site_fract_y
 _atom_site_fract_z
 _atom_site_occupancy
  Li  Li0  1  0.00000000  0.00000000  0.50000000  1
  Li  Li1  1  0.50000000  0.00000000  0.50000000  1
  Li  Li2  1  0.50000000  0.50000000  0.50000000  1
  Cr  Cr0  1  0.50000000  0.50000000  0.00000000  1
  Fe  Fe0  1  0.00000000  0.50000000  0.50000000  1
  Fe  Fe1  1  0.00000000  0.00000000  0.00000000  1
  Fe  Fe2  1  0.50000000  0.00000000  0.00000000  1
  Fe  Fe3  1  0.00000000  0.50000000  0.00000000  1
  O  O0  1  0.48219000  0.26066500  0.77847400  1
  O  O1  1  0.98135700  0.24827000  0.76651200  1
  O  O2  1  0.48175800  0.74786800  0.76651200  1
  O  O3  1  0.99377800  0.75226600  0.75848800  1
  O  O4  1  0.00622200  0.24773400  0.24151200  1
  O  O5  1  0.51824200  0.25213200  0.23348800  1
  O  O6  1  0.01864300  0.75173000  0.23348800  1
  O  O7  1  0.51781000  0.73933500  0.22152600  1
loop_
_geom_bond_atom_site_label_1
_geom_bond_atom_site_label_2
_geom_bond_distance
_geom_bond_site_symmetry_2
Li0 O1 2.102490 1_455
Li0 O6 2.102490 1_545
Li0 O3 2.159909 1_445
Li0 O4 2.159909 1_555
Li0 O0 2.212541 1_455
Li0 O7 2.212541 1_545
Li1 O0 2.208808 1_555
Li1 O7 2.208808 1_545
Li1 O6 2.214870 1_645
Li1 O1 2.214870 1_455
Li1 O5 2.214875 1_555
Li1 O2 2.214875 1_545
Li2 O2 2.102486 1_555
Li2 O5 2.102486 1_555
Li2 O4 2.159909 1_655
Li2 O3 2.159909 1_455
Li2 O7 2.212536 1_555
Li2 O0 2.212536 1_555
Cr0 O7 2.029775 1_555
Cr0 O0 2.029775 1_554
Cr0 O2 2.053840 1_554
Cr0 O5 2.053840 1_555
Cr0 O1 2.053845 1_554
Cr0 O6 2.053845 1_555
Fe0 O3 2.135818 1_455
Fe0 O4 2.135818 1_555
Fe0 O6 2.213243 1_555
Fe0 O1 2.213243 1_455
Fe0 O5 2.213243 1_555
Fe0 O2 2.213243 1_455
Fe1 O6 2.055598 1_545
Fe1 O1 2.055598 1_454
Fe1 O2 2.055598 1_544
Fe1 O5 2.055598 1_455
Fe1 O4 2.097912 1_555
Fe1 O3 2.097912 1_444
Fe2 O0 2.059710 1_554
Fe2 O7 2.059710 1_545
Fe2 O3 2.106334 1_544
Fe2 O4 2.106334 1_555
Fe2 O5 2.136488 1_555
Fe2 O2 2.136488 1_544
Fe3 O7 2.059706 1_455
Fe3 O0 2.059706 1_554
Fe3 O4 2.106334 1_555
Fe3 O3 2.106334 1_454
Fe3 O6 2.136484 1_555
Fe3 O1 2.136484 1_454
