# generated using pymatgen
data_HgC4NCl3
_symmetry_space_group_name_H-M   'P 1'
_cell_length_a   13.67939200
_cell_length_b   8.03336400
_cell_length_c   9.48770743
_cell_angle_alpha   74.82376116
_cell_angle_beta   90.00000000
_cell_angle_gamma   90.00000000
_symmetry_Int_Tables_number   1
_chemical_formula_structural   HgC4NCl3
_chemical_formula_sum   'Hg4 C16 N4 Cl12'
_cell_volume   1006.25755713
_cell_formula_units_Z   4
loop_
 _symmetry_equiv_pos_site_id
 _symmetry_equiv_pos_as_xyz
  1  'x, y, z'
loop_
 _atom_site_type_symbol
 _atom_site_label
 _atom_site_symmetry_multiplicity
 _atom_site_fract_x
 _atom_site_fract_y
 _atom_site_fract_z
 _atom_site_occupancy
  Hg  Hg0  1  0.55318200  0.95292800  0.22677600  1
  Hg  Hg1  1  0.05318200  0.04707200  0.77322400  1
  Hg  Hg2  1  0.56860700  0.36957200  0.31319200  1
  Hg  Hg3  1  0.06860700  0.63042800  0.68680800  1
  C  C0  1  0.37293400  0.54132500  0.74435200  1
  C  C1  1  0.87293400  0.45867500  0.25564800  1
  C  C2  1  0.32286200  0.46640900  0.51763900  1
  C  C3  1  0.82286200  0.53359100  0.48236100  1
  C  C4  1  0.39560900  0.55835400  0.87293500  1
  C  C5  1  0.89560900  0.44164600  0.12706500  1
  C  C6  1  0.41443400  0.57319300  0.00181500  1
  C  C7  1  0.91443400  0.42680700  0.99818500  1
  C  C8  1  0.70303500  0.91169300  0.49206800  1
  C  C9  1  0.20303500  0.08830700  0.50793200  1
  C  C10  1  0.64508300  0.02426200  0.84484700  1
  C  C11  1  0.14508300  0.97573800  0.15515300  1
  C  C12  1  0.70283300  0.96313400  0.74289800  1
  C  C13  1  0.20283300  0.03686600  0.25710200  1
  C  C14  1  0.74608700  0.98009400  0.86539600  1
  C  C15  1  0.24608700  0.01990600  0.13460400  1
  N  N0  1  0.35693900  0.53589200  0.61975900  1
  N  N1  1  0.85693900  0.46410800  0.38024100  1
  N  N2  1  0.70411900  0.92441100  0.61446400  1
  N  N3  1  0.20411900  0.07558900  0.38553600  1
  Cl  Cl0  1  0.45774400  0.06026600  0.39852100  1
  Cl  Cl1  1  0.95774400  0.93973400  0.60147900  1
  Cl  Cl2  1  0.34174000  0.03434100  0.02377400  1
  Cl  Cl3  1  0.84174000  0.96565900  0.97622600  1
  Cl  Cl4  1  0.62557300  0.71970300  0.15432100  1
  Cl  Cl5  1  0.12557300  0.28029700  0.84567900  1
  Cl  Cl6  1  0.36582200  0.56036300  0.34211800  1
  Cl  Cl7  1  0.86582200  0.43963700  0.65788200  1
  Cl  Cl8  1  0.64174200  0.40485400  0.53157800  1
  Cl  Cl9  1  0.14174200  0.59514600  0.46842200  1
  Cl  Cl10  1  0.59645600  0.28461500  0.08801400  1
  Cl  Cl11  1  0.09645600  0.71538500  0.91198600  1
loop_
_geom_bond_atom_site_label_1
_geom_bond_atom_site_label_2
_geom_bond_distance
_geom_bond_site_symmetry_2
C0 N0 1.214149 1_555
C0 C4 1.300232 1_555
C1 N1 1.214149 1_555
C1 C5 1.300232 1_555
C2 N0 1.323163 1_555
C2 Cl6 1.740728 1_555
C3 N1 1.323163 1_555
C3 Cl7 1.740728 1_555
C4 C6 1.285311 1_556
C5 C7 1.285311 1_554
C8 N2 1.192181 1_555
C9 N3 1.192181 1_555
C10 C14 1.427133 1_545
C10 C12 1.431610 1_545
C11 C15 1.427133 1_565
C11 C13 1.431610 1_565
C12 N2 1.334314 1_555
C12 C14 1.342510 1_555
C13 N3 1.334314 1_555
C13 C15 1.342510 1_555
C14 Cl3 1.663554 1_555
C15 Cl2 1.663554 1_555
Cl0 Hg0 2.416356 1_545
Cl0 Hg2 2.841855 1_555
Cl1 Hg1 2.416356 1_665
Cl1 Hg3 2.841855 1_655
Cl4 Hg0 2.374414 1_555
Cl4 Hg2 2.927611 1_555
Cl5 Hg1 2.374414 1_555
Cl5 Hg3 2.927611 1_555
Cl8 Hg2 2.383655 1_555
Cl9 Hg3 2.383655 1_555
Cl10 Hg2 2.436934 1_555
Cl10 Hg0 2.710511 1_545
Cl11 Hg3 2.436934 1_555
Cl11 Hg1 2.710511 1_565
