# generated using pymatgen
data_BaSrO2
_symmetry_space_group_name_H-M   'P 1'
_cell_length_a   3.84185700
_cell_length_b   3.84185700
_cell_length_c   5.42779800
_cell_angle_alpha   90.00000000
_cell_angle_beta   90.00000000
_cell_angle_gamma   90.00000000
_symmetry_Int_Tables_number   1
_chemical_formula_structural   BaSrO2
_chemical_formula_sum   'Ba1 Sr1 O2'
_cell_volume   80.11356686
_cell_formula_units_Z   1
loop_
 _symmetry_equiv_pos_site_id
 _symmetry_equiv_pos_as_xyz
  1  'x, y, z'
loop_
 _atom_site_type_symbol
 _atom_site_label
 _atom_site_symmetry_multiplicity
 _atom_site_fract_x
 _atom_site_fract_y
 _atom_site_fract_z
 _atom_site_occupancy
  Ba  Ba0  1  0.50000000  0.50000000  0.50000000  1
  Sr  Sr0  1  0.00000000  0.00000000  0.00000000  1
  O  O0  1  0.50000000  0.50000000  0.00000000  1
  O  O1  1  0.00000000  0.00000000  0.50000000  1
loop_
_geom_bond_atom_site_label_1
_geom_bond_atom_site_label_2
_geom_bond_distance
_geom_bond_site_symmetry_2
Ba0 O0 2.713899 1_556
Ba0 O0 2.713899 1_555
Ba0 O1 2.716603 1_555
Ba0 O1 2.716603 1_655
Ba0 O1 2.716603 1_565
Ba0 O1 2.716603 1_665
O0 Sr0 2.716603 1_655
O0 Sr0 2.716603 1_565
O0 Sr0 2.716603 1_555
O0 Sr0 2.716603 1_665
O1 Sr0 2.713899 1_555
O1 Sr0 2.713899 1_556
