# generated using pymatgen
data_La2(GeO3)3
_symmetry_space_group_name_H-M   'P 1'
_cell_length_a   5.74072768
_cell_length_b   7.72045631
_cell_length_c   8.83620783
_cell_angle_alpha   108.11630035
_cell_angle_beta   108.28600576
_cell_angle_gamma   91.35874929
_symmetry_Int_Tables_number   1
_chemical_formula_structural   La2(GeO3)3
_chemical_formula_sum   'La4 Ge6 O18'
_cell_volume   350.21375037
_cell_formula_units_Z   2
loop_
 _symmetry_equiv_pos_site_id
 _symmetry_equiv_pos_as_xyz
  1  'x, y, z'
loop_
 _atom_site_type_symbol
 _atom_site_label
 _atom_site_symmetry_multiplicity
 _atom_site_fract_x
 _atom_site_fract_y
 _atom_site_fract_z
 _atom_site_occupancy
  La  La0  1  0.86784241  0.79975285  0.78235430  1
  La  La1  1  0.13215759  0.20024715  0.21764570  1
  La  La2  1  0.19197530  0.81856737  0.41671211  1
  La  La3  1  0.80802470  0.18143263  0.58328789  1
  Ge  Ge0  1  0.76233050  0.48765091  0.99837259  1
  Ge  Ge1  1  0.23766950  0.51234909  0.00162741  1
  Ge  Ge2  1  0.57270147  0.92606184  0.14539722  1
  Ge  Ge3  1  0.42729853  0.07393816  0.85460278  1
  Ge  Ge4  1  0.66177313  0.51765817  0.33912805  1
  Ge  Ge5  1  0.33822687  0.48234183  0.66087195  1
  O  O0  1  0.70793209  0.00704897  0.99975143  1
  O  O1  1  0.29206791  0.99295103  0.00024857  1
  O  O2  1  0.01142518  0.67577818  0.04541041  1
  O  O3  1  0.98857482  0.32422182  0.95458959  1
  O  O4  1  0.53238009  0.67236799  0.04569116  1
  O  O5  1  0.46761991  0.32763201  0.95430884  1
  O  O6  1  0.86743881  0.48492445  0.22137917  1
  O  O7  1  0.13256119  0.51507555  0.77862083  1
  O  O8  1  0.60615247  0.32361625  0.38524627  1
  O  O9  1  0.39384753  0.67638375  0.61475373  1
  O  O10  1  0.87801436  0.98841974  0.29986193  1
  O  O11  1  0.12198564  0.01158026  0.70013807  1
  O  O12  1  0.35074333  0.53511813  0.23103079  1
  O  O13  1  0.64925667  0.46488187  0.76896921  1
  O  O14  1  0.57712752  0.02867985  0.69613170  1
  O  O15  1  0.42287248  0.97132015  0.30386830  1
  O  O16  1  0.81425889  0.72068564  0.49566413  1
  O  O17  1  0.18574111  0.27931436  0.50433587  1
loop_
_geom_bond_atom_site_label_1
_geom_bond_atom_site_label_2
_geom_bond_distance
_geom_bond_site_symmetry_2
La0 O16 2.329172 1_555
La0 O0 2.521615 1_565
La0 O11 2.573272 1_665
La0 O14 2.582426 1_565
La0 O1 2.638589 1_656
La0 O9 2.641167 1_555
La0 O2 2.686478 1_656
La0 O7 2.699217 1_655
La0 O13 2.799202 1_555
La1 O17 2.329172 1_555
La1 O1 2.521615 1_545
La1 O10 2.573272 1_445
La1 O15 2.582426 1_545
La1 O0 2.638589 1_454
La1 O8 2.641167 1_555
La1 O3 2.686478 1_454
La1 O6 2.699217 1_455
La1 O12 2.799202 1_555
La2 O9 2.364880 1_555
La2 O15 2.372461 1_555
La2 O10 2.412577 1_455
La2 O16 2.637992 1_455
La2 O11 2.644431 1_565
La2 O12 2.666777 1_555
La2 O14 2.744013 1_565
La2 O6 2.841629 1_455
La2 O2 2.935378 1_555
La3 O8 2.364880 1_555
La3 O14 2.372461 1_555
La3 O11 2.412577 1_655
La3 O17 2.637992 1_655
La3 O10 2.644431 1_545
La3 O13 2.666777 1_555
La3 O15 2.744013 1_545
La3 O7 2.841629 1_655
La3 O3 2.935378 1_555
Ge0 O2 1.865547 1_656
Ge0 O13 1.873101 1_555
Ge0 O3 1.875644 1_555
Ge0 O6 1.878243 1_556
Ge0 O5 1.930955 1_555
Ge0 O4 2.004001 1_556
Ge1 O3 1.865547 1_454
Ge1 O12 1.873101 1_555
Ge1 O2 1.875644 1_555
Ge1 O7 1.878243 1_554
Ge1 O4 1.930955 1_555
Ge1 O5 2.004001 1_554
Ge2 O10 1.793558 1_555
Ge2 O15 1.813416 1_555
Ge2 O4 1.855642 1_555
Ge2 O1 1.913594 1_555
Ge2 O0 1.937585 1_564
Ge3 O11 1.793558 1_555
Ge3 O14 1.813416 1_555
Ge3 O5 1.855642 1_555
Ge3 O0 1.913594 1_555
Ge3 O1 1.937585 1_546
Ge4 O8 1.717826 1_555
Ge4 O16 1.721403 1_555
Ge4 O12 1.771982 1_555
Ge4 O6 1.778170 1_555
Ge5 O9 1.717826 1_555
Ge5 O17 1.721403 1_555
Ge5 O13 1.771982 1_555
Ge5 O7 1.778170 1_555
