# generated using pymatgen
data_Li2SiNiO4
_symmetry_space_group_name_H-M   'P 1'
_cell_length_a   5.01778106
_cell_length_b   8.69176424
_cell_length_c   12.53414011
_cell_angle_alpha   110.25805743
_cell_angle_beta   101.56827369
_cell_angle_gamma   89.99330671
_symmetry_Int_Tables_number   1
_chemical_formula_structural   Li2SiNiO4
_chemical_formula_sum   'Li12 Si6 Ni6 O24'
_cell_volume   500.99274685
_cell_formula_units_Z   6
loop_
 _symmetry_equiv_pos_site_id
 _symmetry_equiv_pos_as_xyz
  1  'x, y, z'
loop_
 _atom_site_type_symbol
 _atom_site_label
 _atom_site_symmetry_multiplicity
 _atom_site_fract_x
 _atom_site_fract_y
 _atom_site_fract_z
 _atom_site_occupancy
  Li  Li0  1  0.19586700  0.50909900  0.58478600  1
  Li  Li1  1  0.69600400  0.00903600  0.58492100  1
  Li  Li2  1  0.68247100  0.80222500  0.91845200  1
  Li  Li3  1  0.18257800  0.30232000  0.91856200  1
  Li  Li4  1  0.99940400  0.56586100  0.25171800  1
  Li  Li5  1  0.49905500  0.06579600  0.25174000  1
  Li  Li6  1  0.24616000  0.71074200  0.08052300  1
  Li  Li7  1  0.74659200  0.21067600  0.08052100  1
  Li  Li8  1  0.27671500  0.93557900  0.74764600  1
  Li  Li9  1  0.77671100  0.43542200  0.74749300  1
  Li  Li10  1  0.09810100  0.97474400  0.41387100  1
  Li  Li11  1  0.59813100  0.47482300  0.41410800  1
  Si  Si0  1  0.24999100  0.23959700  0.66758400  1
  Si  Si1  1  0.75004600  0.73967100  0.66765300  1
  Si  Si2  1  0.56774600  0.75617300  0.33419000  1
  Si  Si3  1  0.06760300  0.25611900  0.33419300  1
  Si  Si4  1  0.68358000  0.50570900  0.00091900  1
  Si  Si5  1  0.18355500  0.00567100  0.00087000  1
  Ni  Ni0  1  0.32586800  0.35622100  0.15976400  1
  Ni  Ni1  1  0.20918400  0.73121600  0.49314900  1
  Ni  Ni2  1  0.70505600  0.15239900  0.82593600  1
  Ni  Ni3  1  0.82476900  0.85644500  0.15943400  1
  Ni  Ni4  1  0.70908700  0.23052700  0.49277900  1
  Ni  Ni5  1  0.20535100  0.65222400  0.82590800  1
  O  O0  1  0.47600600  0.63539100  0.96268800  1
  O  O1  1  0.97620700  0.13540100  0.96256600  1
  O  O2  1  0.41934600  0.56848800  0.29622600  1
  O  O3  1  0.91901700  0.06845600  0.29615200  1
  O  O4  1  0.04915300  0.74002800  0.62978100  1
  O  O5  1  0.54904600  0.23982500  0.62967200  1
  O  O6  1  0.51420700  0.61891100  0.55889600  1
  O  O7  1  0.01410800  0.11873300  0.55887900  1
  O  O8  1  0.00433200  0.32633900  0.22564100  1
  O  O9  1  0.50418300  0.82636100  0.22564100  1
  O  O10  1  0.32048300  0.89391600  0.89252400  1
  O  O11  1  0.82064000  0.39399300  0.89259400  1
  O  O12  1  0.65052800  0.92809200  0.70708400  1
  O  O13  1  0.15053400  0.42805300  0.70702200  1
  O  O14  1  0.90021800  0.75106100  0.37414000  1
  O  O15  1  0.40006700  0.25097300  0.37413200  1
  O  O16  1  0.01005500  0.88174900  0.04068500  1
  O  O17  1  0.51056200  0.38154700  0.04069200  1
  O  O18  1  0.92562800  0.61833400  0.11148900  1
  O  O19  1  0.42580600  0.11820600  0.11144800  1
  O  O20  1  0.44305100  0.87646200  0.44454200  1
  O  O21  1  0.94264000  0.37627000  0.44454800  1
  O  O22  1  0.29729000  0.17256700  0.77806700  1
  O  O23  1  0.79722900  0.67252000  0.77809700  1
loop_
_geom_bond_atom_site_label_1
_geom_bond_atom_site_label_2
_geom_bond_distance
_geom_bond_site_symmetry_2
Li0 O21 1.932974 1_455
Li0 O13 1.944887 1_555
Li0 O6 1.997649 1_555
Li0 O4 2.066656 1_555
Li1 O20 1.932707 1_545
Li1 O12 1.943664 1_545
Li1 O7 1.997061 1_655
Li1 O5 2.066069 1_555
Li2 O23 1.931356 1_555
Li2 O16 1.945206 1_656
Li2 O10 1.995557 1_555
Li2 O0 2.066631 1_555
Li3 O22 1.932705 1_555
Li3 O17 1.945735 1_556
Li3 O11 1.995325 1_455
Li3 O1 2.065178 1_455
Li4 O18 1.930936 1_555
Li4 O14 1.946547 1_555
Li4 O8 1.993397 1_655
Li4 O2 2.066798 1_655
Li5 O19 1.931365 1_555
Li5 O15 1.945817 1_555
Li5 O9 1.992642 1_545
Li5 O3 2.066798 1_555
Li6 O9 1.945411 1_555
Li6 O18 1.961921 1_455
Li6 O0 1.988376 1_554
Li6 O16 2.034315 1_555
Li7 O8 1.944822 1_655
Li7 O19 1.963027 1_555
Li7 O1 1.988605 1_554
Li7 O17 2.033107 1_555
Li8 O10 1.942253 1_555
Li8 O22 1.959430 1_565
Li8 O4 1.990051 1_555
Li8 O12 2.034833 1_555
Li9 O11 1.943887 1_555
Li9 O23 1.959955 1_555
Li9 O5 1.990326 1_555
Li9 O13 2.034455 1_655
Li10 O7 1.944042 1_565
Li10 O20 1.957977 1_555
Li10 O3 1.987051 1_465
Li10 O14 2.036046 1_455
Li11 O6 1.942095 1_555
Li11 O21 1.956806 1_555
Li11 O2 1.987947 1_555
Li11 O15 2.037145 1_555
Ni0 O17 1.979161 1_555
Ni0 O8 2.008787 1_555
Ni0 O2 2.010630 1_555
Ni0 O19 2.037644 1_555
Ni1 O14 1.977108 1_455
Ni1 O6 2.006321 1_555
Ni1 O4 2.011033 1_555
Ni1 O20 2.040037 1_555
Ni2 O12 1.980026 1_545
Ni2 O11 2.008707 1_555
Ni2 O1 2.011577 1_555
Ni2 O22 2.039007 1_555
Ni3 O16 1.977345 1_655
Ni3 O9 2.007604 1_555
Ni3 O3 2.011054 1_565
Ni3 O18 2.039849 1_555
Ni4 O15 1.976261 1_555
Ni4 O7 2.005414 1_655
Ni4 O5 2.012985 1_555
Ni4 O21 2.039204 1_555
Ni5 O13 1.979316 1_555
Ni5 O10 2.009013 1_555
Ni5 O0 2.011187 1_555
Ni5 O23 2.040814 1_455
O0 Si4 1.660892 1_556
O1 Si5 1.660936 1_656
O2 Si2 1.662142 1_555
O3 Si3 1.662200 1_655
O4 Si1 1.662728 1_455
O5 Si0 1.662600 1_555
O6 Si1 1.650095 1_555
O7 Si0 1.650233 1_555
O8 Si3 1.651159 1_555
O9 Si2 1.650983 1_555
O10 Si5 1.649364 1_566
O11 Si4 1.649462 1_556
O12 Si1 1.647423 1_555
O13 Si0 1.647584 1_555
O14 Si2 1.648087 1_555
O15 Si3 1.648073 1_555
O16 Si5 1.647366 1_565
O17 Si4 1.647193 1_555
O18 Si4 1.655231 1_555
O19 Si5 1.655620 1_555
O20 Si2 1.656281 1_555
O21 Si3 1.656631 1_655
O22 Si0 1.655390 1_555
O23 Si1 1.655625 1_555
