# generated using pymatgen
data_Fe10O11F9
_symmetry_space_group_name_H-M   'P 1'
_cell_length_a   4.72927200
_cell_length_b   4.73815118
_cell_length_c   15.38700410
_cell_angle_alpha   90.13466235
_cell_angle_beta   90.12940431
_cell_angle_gamma   92.26205410
_symmetry_Int_Tables_number   1
_chemical_formula_structural   Fe10O11F9
_chemical_formula_sum   'Fe10 O11 F9'
_cell_volume   344.52149280
_cell_formula_units_Z   1
loop_
 _symmetry_equiv_pos_site_id
 _symmetry_equiv_pos_as_xyz
  1  'x, y, z'
loop_
 _atom_site_type_symbol
 _atom_site_label
 _atom_site_symmetry_multiplicity
 _atom_site_fract_x
 _atom_site_fract_y
 _atom_site_fract_z
 _atom_site_occupancy
  Fe  Fe0  1  0.00465200  0.98768200  0.99665500  1
  Fe  Fe1  1  0.01150300  0.99570200  0.20344800  1
  Fe  Fe2  1  0.99141000  0.94715800  0.40016600  1
  Fe  Fe3  1  0.04781700  0.99949400  0.59966800  1
  Fe  Fe4  1  0.04533700  0.99789400  0.79993200  1
  Fe  Fe5  1  0.50523200  0.49408800  0.09992200  1
  Fe  Fe6  1  0.47884100  0.51696100  0.49765200  1
  Fe  Fe7  1  0.48657300  0.53189300  0.29187000  1
  Fe  Fe8  1  0.46210700  0.49856100  0.70225900  1
  Fe  Fe9  1  0.46895900  0.51192700  0.90826500  1
  O  O0  1  0.18271900  0.80414100  0.29754100  1
  O  O1  1  0.19082900  0.80144400  0.49917600  1
  O  O2  1  0.20453000  0.81334400  0.70025600  1
  O  O3  1  0.19178300  0.81134900  0.90265800  1
  O  O4  1  0.30465400  0.30111400  0.00792600  1
  O  O5  1  0.30911500  0.30480600  0.19386300  1
  O  O6  1  0.31663100  0.31597600  0.59770500  1
  O  O7  1  0.31090800  0.31815100  0.80468500  1
  O  O8  1  0.69444300  0.69021300  0.00644300  1
  O  O9  1  0.69868800  0.69478600  0.19214100  1
  O  O10  1  0.67520100  0.68021000  0.39755900  1
  F  F0  1  0.19504500  0.80705000  0.10017100  1
  F  F1  1  0.28669300  0.29269800  0.39639200  1
  F  F2  1  0.70391900  0.70681800  0.60132500  1
  F  F3  1  0.70215400  0.70698300  0.80224900  1
  F  F4  1  0.81505900  0.18549000  0.10000000  1
  F  F5  1  0.80304900  0.19192800  0.49857000  1
  F  F6  1  0.79777300  0.19193000  0.29957500  1
  F  F7  1  0.80309300  0.19727900  0.90079600  1
  F  F8  1  0.81128100  0.20292900  0.70113200  1
loop_
_geom_bond_atom_site_label_1
_geom_bond_atom_site_label_2
_geom_bond_distance
_geom_bond_site_symmetry_2
Fe0 O3 1.905678 1_555
Fe0 O8 2.000070 1_456
Fe0 O4 2.019871 1_566
Fe1 O0 1.906444 1_555
Fe1 O5 1.996748 1_565
Fe1 O9 2.020615 1_455
Fe2 O10 1.920401 1_555
Fe2 O1 1.933114 1_655
Fe2 O0 1.954768 1_655
Fe3 O6 1.927594 1_565
Fe3 O2 1.943086 1_555
Fe3 O1 1.943444 1_555
Fe4 O7 1.932350 1_565
Fe4 O2 1.932509 1_555
Fe4 O3 1.951742 1_555
Fe5 O4 1.912846 1_555
Fe5 O9 1.916752 1_555
Fe5 O8 1.918229 1_555
Fe5 O5 1.923654 1_555
Fe6 O10 1.946287 1_555
Fe6 O1 1.953883 1_555
Fe6 O6 1.954490 1_555
Fe7 O10 1.967964 1_555
Fe7 O0 1.970520 1_555
Fe7 O9 1.976914 1_555
Fe7 O5 2.012857 1_555
Fe8 O7 1.920691 1_555
Fe8 O6 1.936849 1_555
Fe8 O2 1.962869 1_555
Fe9 O7 1.968605 1_555
Fe9 O3 1.971128 1_555
Fe9 O4 1.975958 1_556
Fe9 O8 2.012082 1_556
F0 Fe1 2.034346 1_555
F0 Fe0 2.034953 1_554
F0 Fe5 2.126635 1_555
F1 Fe6 2.071741 1_555
F1 Fe2 2.110529 1_445
F1 Fe7 2.166901 1_555
F2 Fe3 2.095508 1_655
F2 Fe6 2.096904 1_555
F2 Fe8 2.149342 1_555
F3 Fe4 2.087880 1_655
F3 Fe8 2.127817 1_555
F3 Fe9 2.160140 1_555
F4 Fe1 2.066744 1_645
F4 Fe0 2.068042 1_644
F4 Fe5 2.110471 1_555
F5 Fe2 2.123818 1_545
F5 Fe3 2.161724 1_645
F5 Fe6 2.215691 1_555
F6 Fe1 2.036755 1_645
F6 Fe2 2.159912 1_545
F6 Fe7 2.227559 1_555
F7 Fe0 2.036107 1_645
F7 Fe4 2.168003 1_645
F7 Fe9 2.217858 1_555
F8 Fe4 2.136444 1_645
F8 Fe3 2.168834 1_645
F8 Fe8 2.207245 1_555
