# generated using pymatgen
data_LiMn(PO3)3
_symmetry_space_group_name_H-M   'P 1'
_cell_length_a   9.89679200
_cell_length_b   11.07182979
_cell_length_c   12.11802705
_cell_angle_alpha   113.73847010
_cell_angle_beta   110.40298387
_cell_angle_gamma   97.37776024
_symmetry_Int_Tables_number   1
_chemical_formula_structural   LiMn(PO3)3
_chemical_formula_sum   'Li6 Mn6 P18 O54'
_cell_volume   1081.90439973
_cell_formula_units_Z   6
loop_
 _symmetry_equiv_pos_site_id
 _symmetry_equiv_pos_as_xyz
  1  'x, y, z'
loop_
 _atom_site_type_symbol
 _atom_site_label
 _atom_site_symmetry_multiplicity
 _atom_site_fract_x
 _atom_site_fract_y
 _atom_site_fract_z
 _atom_site_occupancy
  Li  Li0  1  0.99191300  0.19484400  0.93380200  1
  Li  Li1  1  0.93136600  0.59604500  0.74319900  1
  Li  Li2  1  0.40122100  0.34232600  0.73762600  1
  Li  Li3  1  0.55375100  0.25730600  0.06253100  1
  Li  Li4  1  0.68729100  0.85362900  0.26295300  1
  Li  Li5  1  0.16593500  0.60533000  0.26261700  1
  Mn  Mn0  1  0.04729600  0.58336200  0.50870500  1
  Mn  Mn1  1  0.37057400  0.44005900  0.18715300  1
  Mn  Mn2  1  0.68264100  0.25364900  0.81288000  1
  Mn  Mn3  1  0.04119900  0.07373900  0.48972500  1
  Mn  Mn4  1  0.68954800  0.76881800  0.84113000  1
  Mn  Mn5  1  0.34917200  0.92810200  0.15978600  1
  P  P0  1  0.23558700  0.08643500  0.94924200  1
  P  P1  1  0.95968700  0.83990400  0.72250600  1
  P  P2  1  0.05844800  0.47173600  0.95230900  1
  P  P3  1  0.78124200  0.99613300  0.60688100  1
  P  P4  1  0.32442600  0.05026400  0.72027500  1
  P  P5  1  0.46484500  0.78881500  0.38521200  1
  P  P6  1  0.40854900  0.78411600  0.61207500  1
  P  P7  1  0.42616200  0.68205700  0.94349400  1
  P  P8  1  0.15382700  0.43429800  0.72688000  1
  P  P9  1  0.10232800  0.32981900  0.27803900  1
  P  P10  1  0.78539100  0.13794600  0.05158400  1
  P  P11  1  0.92552800  0.70574400  0.27258800  1
  P  P12  1  0.67307100  0.38718100  0.39114400  1
  P  P13  1  0.60509400  0.51875600  0.04779100  1
  P  P14  1  0.58012800  0.40481700  0.61451600  1
  P  P15  1  0.73676300  0.11673900  0.27850000  1
  P  P16  1  0.29802100  0.17375700  0.38686600  1
  P  P17  1  0.98208700  0.73756300  0.05596300  1
  O  O0  1  0.05986100  0.00029700  0.83970500  1
  O  O1  1  0.78787300  0.99416500  0.97885100  1
  O  O2  1  0.75099600  0.07486500  0.72560200  1
  O  O3  1  0.33218900  0.10887000  0.87073000  1
  O  O4  1  0.05569800  0.77031500  0.66362200  1
  O  O5  1  0.99592200  0.59728000  0.94090700  1
  O  O6  1  0.83501100  0.86761000  0.61785800  1
  O  O7  1  0.69397500  0.20438900  0.97741500  1
  O  O8  1  0.80550200  0.49581800  0.41918500  1
  O  O9  1  0.52566700  0.34652500  0.27126700  1
  O  O10  1  0.39460200  0.92764700  0.71241000  1
  O  O11  1  0.32023800  0.73664900  0.99823600  1
  O  O12  1  0.08492800  0.40649900  0.81991400  1
  O  O13  1  0.28330700  0.66342800  0.57382700  1
  O  O14  1  0.56976200  0.78780500  0.67266100  1
  O  O15  1  0.62500000  0.44591400  0.92258000  1
  O  O16  1  0.49287400  0.65023100  0.34186400  1
  O  O17  1  0.04179000  0.38160000  0.37885900  1
  O  O18  1  0.62639200  0.91079700  0.46892800  1
  O  O19  1  0.16351500  0.00103200  0.61865000  1
  O  O20  1  0.88435000  0.07628100  0.57752300  1
  O  O21  1  0.93144400  0.35885300  0.92966300  1
  O  O22  1  0.43535000  0.16769700  0.73172000  1
  O  O23  1  0.33373000  0.52002500  0.82573800  1
  O  O24  1  0.72096700  0.16169500  0.16235700  1
  O  O25  1  0.88481700  0.76777800  0.77871700  1
  O  O26  1  0.21875000  0.22702900  0.02300300  1
  O  O27  1  0.36956300  0.81865700  0.27929100  1
  O  O28  1  0.02748900  0.66077500  0.36229300  1
  O  O29  1  0.50827100  0.75870100  0.89852800  1
  O  O30  1  0.16649600  0.29954000  0.63764500  1
  O  O31  1  0.65551900  0.44170200  0.52877100  1
  O  O32  1  0.38016300  0.80682900  0.48102600  1
  O  O33  1  0.20283400  0.52429600  0.07723500  1
  O  O34  1  0.06815800  0.51593200  0.67285500  1
  O  O35  1  0.39793400  0.11784400  0.32498800  1
  O  O36  1  0.89436900  0.84161100  0.32680900  1
  O  O37  1  0.20273800  0.43571400  0.26707700  1
  O  O38  1  0.50175400  0.42771300  0.07019000  1
  O  O39  1  0.96007700  0.23859900  0.12763400  1
  O  O40  1  0.76329200  0.58659000  0.18024900  1
  O  O41  1  0.65165200  0.30934900  0.65837500  1
  O  O42  1  0.11107800  0.85988600  0.10423700  1
  O  O43  1  0.59066000  0.54025000  0.71947200  1
  O  O44  1  0.71632000  0.24858100  0.38314600  1
  O  O45  1  0.21283000  0.08958000  0.42560500  1
  O  O46  1  0.60576600  0.98855600  0.22210900  1
  O  O47  1  0.89137100  0.10515500  0.33639600  1
  O  O48  1  0.40003600  0.32676400  0.51754100  1
  O  O49  1  0.55196500  0.65431800  0.05811700  1
  O  O50  1  0.00546000  0.69130900  0.17244300  1
  O  O51  1  0.31220200  0.01631800  0.02274300  1
  O  O52  1  0.18066100  0.21504600  0.28639700  1
  O  O53  1  0.82268700  0.73761800  0.00072700  1
loop_
_geom_bond_atom_site_label_1
_geom_bond_atom_site_label_2
_geom_bond_distance
_geom_bond_site_symmetry_2
Li0 O21 1.997390 1_555
Li0 O26 2.031675 1_656
Li0 O0 2.306785 1_655
Li0 O39 2.343110 1_556
Li0 O2 2.471608 1_555
Li1 O25 1.927982 1_555
Li1 O34 1.962257 1_655
Li1 O5 2.247777 1_555
Li2 O22 1.982587 1_555
Li2 O30 2.093238 1_555
Li2 O23 2.144881 1_555
Li2 O15 2.249604 1_555
Li3 O38 1.993690 1_555
Li3 O7 2.013288 1_554
Li3 O3 2.314483 1_554
Li3 O24 2.325463 1_555
Li3 O9 2.449535 1_555
Li4 O46 1.937546 1_555
Li4 O36 1.965648 1_555
Li4 O49 2.310341 1_555
Li4 O18 2.620848 1_555
Li5 O37 1.976355 1_555
Li5 O28 2.118051 1_555
Li5 O50 2.153683 1_555
Li5 O33 2.240159 1_555
Li5 O32 2.568265 1_555
Mn0 O13 2.117577 1_555
Mn0 O4 2.129330 1_555
Mn0 O17 2.132598 1_555
Mn0 O8 2.142529 1_455
Mn0 O28 2.223944 1_555
Mn0 O34 2.346424 1_555
Mn1 O16 2.139334 1_555
Mn1 O9 2.152822 1_555
Mn1 O37 2.199562 1_555
Mn1 O38 2.210354 1_555
Mn1 O26 2.237432 1_555
Mn1 O33 2.292600 1_555
Mn2 O41 2.134880 1_555
Mn2 O2 2.156787 1_555
Mn2 O22 2.198327 1_555
Mn2 O21 2.220189 1_555
Mn2 O7 2.240699 1_555
Mn2 O15 2.277351 1_555
Mn3 O45 2.114989 1_555
Mn3 O19 2.120954 1_555
Mn3 O47 2.122232 1_455
Mn3 O20 2.163572 1_455
Mn3 O30 2.246532 1_555
Mn3 O36 2.360074 1_445
Mn4 O14 2.083131 1_555
Mn4 O53 2.115153 1_556
Mn4 O29 2.143868 1_555
Mn4 O1 2.202015 1_555
Mn4 O43 2.211254 1_555
Mn4 O25 2.307523 1_555
Mn5 O35 2.081797 1_565
Mn5 O11 2.126012 1_554
Mn5 O42 2.145619 1_555
Mn5 O51 2.195400 1_565
Mn5 O27 2.208653 1_555
Mn5 O46 2.299234 1_555
O0 P0 1.625199 1_555
O0 P1 1.639833 1_445
O1 P10 1.485637 1_566
O2 P3 1.508910 1_545
O3 P0 1.626163 1_555
O3 P4 1.639542 1_555
O4 P1 1.491244 1_455
O5 P2 1.627893 1_655
O5 P17 1.679071 1_556
O6 P1 1.595038 1_555
O6 P3 1.619651 1_555
O7 P10 1.517832 1_556
O8 P12 1.495173 1_555
O9 P12 1.506102 1_555
O10 P4 1.587019 1_565
O10 P6 1.624952 1_555
O11 P7 1.493023 1_555
O12 P2 1.604104 1_555
O12 P8 1.610022 1_555
O13 P6 1.487325 1_555
O14 P6 1.492873 1_555
O15 P13 1.501821 1_556
O16 P5 1.506380 1_555
O17 P9 1.488267 1_555
O18 P3 1.614345 1_555
O18 P5 1.618885 1_555
O19 P4 1.489621 1_555
O20 P3 1.493336 1_545
O21 P2 1.515633 1_655
O22 P4 1.515580 1_555
O23 P8 1.633833 1_555
O23 P7 1.642786 1_555
O24 P10 1.622711 1_555
O24 P15 1.638178 1_555
O25 P1 1.512826 1_555
O26 P0 1.516592 1_554
O27 P5 1.491121 1_555
O28 P11 1.499262 1_455
O29 P7 1.476918 1_555
O30 P8 1.501583 1_555
O31 P12 1.610709 1_555
O31 P14 1.614643 1_555
O32 P5 1.620249 1_555
O32 P6 1.640943 1_555
O33 P2 1.497058 1_554
O34 P8 1.500190 1_555
O35 P16 1.491208 1_555
O36 P11 1.501447 1_555
O37 P9 1.515919 1_555
O38 P13 1.511565 1_555
O39 P10 1.627120 1_555
O39 P9 1.639402 1_655
O40 P13 1.602176 1_555
O40 P11 1.607888 1_555
O41 P14 1.510943 1_555
O42 P17 1.484434 1_455
O43 P14 1.486238 1_555
O44 P15 1.595058 1_555
O44 P12 1.620286 1_555
O45 P16 1.492061 1_555
O46 P15 1.513560 1_565
O47 P15 1.491408 1_555
O48 P14 1.622008 1_555
O48 P16 1.637969 1_555
O49 P13 1.625495 1_555
O49 P7 1.676207 1_554
O50 P11 1.633933 1_455
O50 P17 1.641001 1_455
O51 P0 1.485912 1_554
O52 P9 1.589951 1_555
O52 P16 1.624442 1_555
O53 P17 1.483585 1_555
