# generated using pymatgen
data_Li11V6O5F19
_symmetry_space_group_name_H-M   'P 1'
_cell_length_a   5.13056400
_cell_length_b   5.46044431
_cell_length_c   16.20455697
_cell_angle_alpha   98.98120835
_cell_angle_beta   90.06980342
_cell_angle_gamma   91.47255432
_symmetry_Int_Tables_number   1
_chemical_formula_structural   Li11V6O5F19
_chemical_formula_sum   'Li11 V6 O5 F19'
_cell_volume   448.25296948
_cell_formula_units_Z   1
loop_
 _symmetry_equiv_pos_site_id
 _symmetry_equiv_pos_as_xyz
  1  'x, y, z'
loop_
 _atom_site_type_symbol
 _atom_site_label
 _atom_site_symmetry_multiplicity
 _atom_site_fract_x
 _atom_site_fract_y
 _atom_site_fract_z
 _atom_site_occupancy
  Li  Li0  1  0.49102400  0.24042000  0.55867300  1
  Li  Li1  1  0.00249500  0.39800000  0.89929700  1
  Li  Li2  1  0.51425500  0.28023400  0.79537600  1
  Li  Li3  1  0.98824200  0.09096500  0.22877800  1
  Li  Li4  1  0.49049900  0.11816200  0.10966300  1
  Li  Li5  1  0.00129000  0.24917800  0.43144700  1
  Li  Li6  1  0.00221400  0.71570900  0.55632500  1
  Li  Li7  1  0.50160300  0.85656600  0.88642200  1
  Li  Li8  1  0.01060500  0.58020100  0.10052200  1
  Li  Li9  1  0.50105200  0.54943900  0.22197400  1
  Li  Li10  1  0.49196800  0.79561400  0.44180500  1
  V  V0  1  0.98738300  0.35131700  0.66640700  1
  V  V1  1  0.49878400  0.16821800  0.33484300  1
  V  V2  1  0.51827100  0.81735300  0.66409200  1
  V  V3  1  0.50441500  0.49112200  0.00197100  1
  V  V4  1  0.00455400  0.99208500  0.00103200  1
  V  V5  1  0.00037500  0.66693000  0.33348500  1
  O  O0  1  0.80574800  0.35291100  0.30660700  1
  O  O1  1  0.69449400  0.51725900  0.62954500  1
  O  O2  1  0.80924400  0.67757900  0.97216500  1
  O  O3  1  0.20302000  0.30526800  0.03517900  1
  O  O4  1  0.19965800  0.97653100  0.36592900  1
  F  F0  1  0.82468500  0.00893500  0.62155300  1
  F  F1  1  0.68914800  0.16506500  0.95353600  1
  F  F2  1  0.32654300  0.17618100  0.68949200  1
  F  F3  1  0.64421700  0.15055100  0.45079700  1
  F  F4  1  0.87249500  0.35895900  0.78168400  1
  F  F5  1  0.35160500  0.19002200  0.22047200  1
  F  F6  1  0.85156500  0.00546800  0.11806900  1
  F  F7  1  0.13706400  0.34699000  0.54888200  1
  F  F8  1  0.36481000  0.50147100  0.88423600  1
  F  F9  1  0.31083200  0.49273000  0.38259200  1
  F  F10  1  0.18242200  0.67087200  0.69766900  1
  F  F11  1  0.85034200  0.68263100  0.44948800  1
  F  F12  1  0.14275900  0.65572600  0.21746600  1
  F  F13  1  0.65450800  0.47404300  0.11660000  1
  F  F14  1  0.60293100  0.91895600  0.77994800  1
  F  F15  1  0.15895400  0.99424000  0.89095100  1
  F  F16  1  0.36013700  0.84780000  0.55338900  1
  F  F17  1  0.68330900  0.83930500  0.28831900  1
  F  F18  1  0.31459100  0.81581500  0.04958800  1
loop_
_geom_bond_atom_site_label_1
_geom_bond_atom_site_label_2
_geom_bond_distance
_geom_bond_site_symmetry_2
Li0 O1 2.016869 1_555
Li1 O2 2.055659 1_455
Li1 O3 2.555896 1_556
Li3 O0 2.005393 1_555
Li3 O4 2.639871 1_645
Li4 O3 2.265873 1_555
Li5 O4 1.991591 1_545
Li5 O0 2.408692 1_455
Li6 O1 2.322202 1_455
Li7 O2 2.423819 1_555
Li8 O3 1.982904 1_555
Li8 O2 2.458576 1_454
Li9 O0 2.452906 1_555
Li10 O4 2.277656 1_555
O0 V1 1.941891 1_555
O0 V5 1.950564 1_655
O1 V2 1.899201 1_555
O1 V0 1.916430 1_555
O2 V3 1.946625 1_556
O2 V4 1.957493 1_656
O3 V3 1.949997 1_555
O3 V4 1.970073 1_545
O4 V1 1.946413 1_565
O4 V5 1.952464 1_555
F0 Li6 2.014793 1_645
F0 V2 2.045539 1_545
F0 V0 2.052892 1_555
F0 Li0 2.464863 1_555
F1 Li7 2.070857 1_545
F1 V3 2.082412 1_556
F1 V4 2.098961 1_646
F1 Li1 2.285217 1_655
F2 Li2 1.964123 1_555
F2 V0 2.068335 1_455
F2 V2 2.196444 1_545
F2 Li0 2.355909 1_555
F3 Li0 1.915643 1_555
F3 Li5 1.935960 1_655
F3 V1 2.038015 1_555
F3 Li10 2.054607 1_545
F4 Li2 1.897980 1_555
F4 V0 1.954037 1_555
F4 Li1 1.996339 1_655
F5 Li4 1.919244 1_555
F5 Li3 1.938467 1_455
F5 V1 2.022204 1_555
F5 Li9 2.085162 1_555
F6 Li3 1.909631 1_555
F6 Li4 1.978135 1_555
F6 V4 2.044891 1_645
F6 Li8 2.455771 1_645
F7 Li0 1.934981 1_555
F7 Li5 2.012998 1_555
F7 V0 2.051254 1_455
F7 Li6 2.131396 1_555
F8 Li2 1.904699 1_555
F8 Li1 1.955607 1_555
F8 Li7 2.040097 1_555
F8 V3 2.046580 1_556
F9 Li10 1.985702 1_555
F9 V1 2.080875 1_555
F9 V5 2.094329 1_555
F9 Li5 2.267325 1_555
F10 V0 1.983861 1_455
F10 V2 1.993036 1_555
F10 Li6 2.518399 1_555
F11 Li6 1.878516 1_655
F11 Li10 1.964309 1_555
F11 V5 2.022383 1_655
F11 Li5 2.483127 1_655
F12 Li9 1.946550 1_555
F12 Li8 1.989826 1_555
F12 V5 2.010387 1_555
F12 Li3 2.504288 1_465
F13 Li9 1.872297 1_555
F13 Li8 1.932778 1_655
F13 V3 2.026409 1_555
F13 Li4 2.084348 1_555
F14 Li7 1.881438 1_555
F14 V2 1.918724 1_555
F14 Li2 2.013357 1_565
F15 Li7 1.926667 1_555
F15 V4 1.954268 1_556
F15 Li1 2.349793 1_565
F16 Li10 1.913155 1_555
F16 Li6 1.958960 1_555
F16 V2 2.000108 1_555
F16 Li0 2.218794 1_565
F17 Li9 1.981322 1_555
F17 V1 2.087265 1_565
F17 V5 2.087758 1_655
F17 Li3 2.360932 1_565
F18 Li4 1.976693 1_565
F18 V3 2.085842 1_555
F18 V4 2.094717 1_555
F18 Li8 2.236161 1_555
