# generated using pymatgen
data_MnAgO3
_symmetry_space_group_name_H-M   'P 1'
_cell_length_a   5.14789611
_cell_length_b   5.92500790
_cell_length_c   5.14765616
_cell_angle_alpha   115.74734404
_cell_angle_beta   59.99273269
_cell_angle_gamma   115.72802411
_symmetry_Int_Tables_number   1
_chemical_formula_structural   MnAgO3
_chemical_formula_sum   'Mn2 Ag2 O6'
_cell_volume   117.63805033
_cell_formula_units_Z   2
loop_
 _symmetry_equiv_pos_site_id
 _symmetry_equiv_pos_as_xyz
  1  'x, y, z'
loop_
 _atom_site_type_symbol
 _atom_site_label
 _atom_site_symmetry_multiplicity
 _atom_site_fract_x
 _atom_site_fract_y
 _atom_site_fract_z
 _atom_site_occupancy
  Mn  Mn0  1  0.33823200  0.01432400  0.33814500  1
  Mn  Mn1  1  0.66178000  0.98570400  0.66186700  1
  Ag  Ag0  1  0.13796600  0.41463600  0.13830600  1
  Ag  Ag1  1  0.86198300  0.58521500  0.86165600  1
  O  O0  1  0.06004900  0.20894200  0.45390000  1
  O  O1  1  0.54608800  0.79091500  0.30507700  1
  O  O2  1  0.30510000  0.79100900  0.94003000  1
  O  O3  1  0.69496400  0.20903400  0.05999300  1
  O  O4  1  0.45386700  0.20912200  0.69497700  1
  O  O5  1  0.93997000  0.79109900  0.54605000  1
loop_
_geom_bond_atom_site_label_1
_geom_bond_atom_site_label_2
_geom_bond_distance
_geom_bond_site_symmetry_2
Mn0 O4 1.927629 1_555
Mn0 O0 1.928401 1_555
Mn0 O3 1.928535 1_555
Mn0 O2 1.943580 1_544
Mn0 O1 1.943673 1_545
Mn0 O5 1.943946 1_445
Mn1 O1 1.927597 1_555
Mn1 O5 1.928269 1_555
Mn1 O2 1.928434 1_555
Mn1 O3 1.943727 1_566
Mn1 O4 1.943851 1_565
Mn1 O0 1.944101 1_665
Ag0 O4 2.219962 1_554
Ag0 O3 2.219963 1_455
Ag0 O0 2.220230 1_555
Ag0 O5 2.487211 1_455
Ag0 O2 2.487627 1_554
Ag0 O1 2.489189 1_555
Ag1 O1 2.220612 1_556
Ag1 O2 2.220655 1_655
Ag1 O5 2.221020 1_555
Ag1 O0 2.486566 1_655
Ag1 O3 2.486920 1_556
Ag1 O4 2.488572 1_555
