# generated using pymatgen
data_LiFe2(PO4)2
_symmetry_space_group_name_H-M   'P 1'
_cell_length_a   4.90628034
_cell_length_b   4.90628034
_cell_length_c   6.36554474
_cell_angle_alpha   89.29420544
_cell_angle_beta   89.29420544
_cell_angle_gamma   67.14782099
_symmetry_Int_Tables_number   1
_chemical_formula_structural   LiFe2(PO4)2
_chemical_formula_sum   'Li1 Fe2 P2 O8'
_cell_volume   141.18638284
_cell_formula_units_Z   1
loop_
 _symmetry_equiv_pos_site_id
 _symmetry_equiv_pos_as_xyz
  1  'x, y, z'
loop_
 _atom_site_type_symbol
 _atom_site_label
 _atom_site_symmetry_multiplicity
 _atom_site_fract_x
 _atom_site_fract_y
 _atom_site_fract_z
 _atom_site_occupancy
  Li  Li0  1  0.32549600  0.32549600  0.73990200  1
  Fe  Fe0  1  0.99142300  0.99142300  0.00545400  1
  Fe  Fe1  1  0.99371500  0.99371500  0.48581500  1
  P  P0  1  0.34481300  0.34481300  0.23719500  1
  P  P1  1  0.65087800  0.65087800  0.74740300  1
  O  O0  1  0.23371500  0.23371500  0.04114700  1
  O  O1  1  0.69242600  0.21993300  0.22843200  1
  O  O2  1  0.21993300  0.69242600  0.22843200  1
  O  O3  1  0.24632900  0.24632900  0.44386600  1
  O  O4  1  0.74893200  0.74893200  0.54466200  1
  O  O5  1  0.76405100  0.30000500  0.75800100  1
  O  O6  1  0.30000500  0.76405100  0.75800100  1
  O  O7  1  0.76079600  0.76079600  0.94040600  1
loop_
_geom_bond_atom_site_label_1
_geom_bond_atom_site_label_2
_geom_bond_distance
_geom_bond_site_symmetry_2
Li0 O3 2.001513 1_555
Li0 O0 2.048815 1_556
Li0 O5 2.110771 1_555
Li0 O6 2.110771 1_555
Fe0 O7 1.936406 1_554
Fe0 O0 1.997195 1_665
Fe0 O2 2.033232 1_655
Fe0 O1 2.033232 1_565
Fe0 O5 2.165760 1_564
Fe0 O6 2.165760 1_654
Fe1 O4 2.030544 1_555
Fe1 O3 2.078534 1_665
Fe1 O1 2.200412 1_565
Fe1 O2 2.200412 1_655
Fe1 O6 2.287075 1_655
Fe1 O5 2.287075 1_565
O0 P0 1.554313 1_555
O1 P0 1.572918 1_555
O2 P0 1.572918 1_555
O3 P0 1.532220 1_555
O4 P1 1.509166 1_555
O5 P1 1.591223 1_555
O6 P1 1.591223 1_555
O7 P1 1.532835 1_555
