# generated using pymatgen
data_Li4Fe3Cu2Sb3O16
_symmetry_space_group_name_H-M   'P 1'
_cell_length_a   6.12024657
_cell_length_b   6.14169682
_cell_length_c   9.94921866
_cell_angle_alpha   90.57009558
_cell_angle_beta   90.65732157
_cell_angle_gamma   120.27932293
_symmetry_Int_Tables_number   1
_chemical_formula_structural   Li4Fe3Cu2Sb3O16
_chemical_formula_sum   'Li4 Fe3 Cu2 Sb3 O16'
_cell_volume   322.88430504
_cell_formula_units_Z   1
loop_
 _symmetry_equiv_pos_site_id
 _symmetry_equiv_pos_as_xyz
  1  'x, y, z'
loop_
 _atom_site_type_symbol
 _atom_site_label
 _atom_site_symmetry_multiplicity
 _atom_site_fract_x
 _atom_site_fract_y
 _atom_site_fract_z
 _atom_site_occupancy
  Li  Li0  1  0.32655300  0.66472500  0.87681900  1
  Li  Li1  1  0.97435000  0.98043800  0.99154400  1
  Li  Li2  1  0.97896300  0.98742900  0.50280600  1
  Li  Li3  1  0.65832800  0.33322400  0.39651400  1
  Fe  Fe0  1  0.66620400  0.83401600  0.21753700  1
  Fe  Fe1  1  0.82939300  0.66181700  0.71568800  1
  Fe  Fe2  1  0.83122300  0.16871700  0.71566300  1
  Cu  Cu0  1  0.34026900  0.66795000  0.52962700  1
  Cu  Cu1  1  0.69679900  0.34926800  0.97863900  1
  Sb  Sb0  1  0.17458500  0.83380100  0.21445300  1
  Sb  Sb1  1  0.17387600  0.33975200  0.21381900  1
  Sb  Sb2  1  0.34007900  0.17104200  0.71678500  1
  O  O0  1  0.15946800  0.84663200  0.60350100  1
  O  O1  1  0.03134200  0.51658300  0.32764300  1
  O  O2  1  0.32774100  0.66264600  0.10013400  1
  O  O3  1  0.01285800  0.00637200  0.32008700  1
  O  O4  1  0.00707900  0.00424500  0.81342300  1
  O  O5  1  0.15722900  0.31020000  0.60412000  1
  O  O6  1  0.49067300  0.98115900  0.32094100  1
  O  O7  1  0.48740900  0.51435700  0.32298600  1
  O  O8  1  0.30918700  0.15311000  0.10092100  1
  O  O9  1  0.67820400  0.83990400  0.60740500  1
  O  O10  1  0.51178700  0.48441500  0.83233100  1
  O  O11  1  0.51496700  0.03637600  0.83539700  1
  O  O12  1  0.65758900  0.32811000  0.60345500  1
  O  O13  1  0.85136200  0.68614100  0.10540100  1
  O  O14  1  0.95888700  0.48126300  0.83501800  1
  O  O15  1  0.85359600  0.15660800  0.10518300  1
loop_
_geom_bond_atom_site_label_1
_geom_bond_atom_site_label_2
_geom_bond_distance
_geom_bond_site_symmetry_2
Li0 O14 1.979485 1_455
Li0 O10 1.993812 1_555
Li0 O11 2.021137 1_565
Li0 O2 2.221923 1_556
Li1 O4 1.784891 1_665
Li1 O15 1.948429 1_566
Li1 O13 1.950667 1_556
Li1 O8 2.059786 1_666
Li2 O3 1.830272 1_665
Li2 O9 1.916521 1_555
Li2 O5 1.972336 1_665
Li2 O0 1.981686 1_655
Li3 O6 2.001547 1_545
Li3 O7 2.009764 1_555
Li3 O12 2.059475 1_555
Li3 O1 2.099565 1_655
Fe0 O6 2.003769 1_555
Fe0 O7 2.013292 1_555
Fe0 O15 2.066966 1_565
Fe0 O3 2.080101 1_665
Fe0 O13 2.097719 1_555
Fe0 O2 2.117678 1_555
Fe1 O14 2.039166 1_555
Fe1 O4 2.044461 1_665
Fe1 O9 2.057749 1_555
Fe1 O10 2.062407 1_555
Fe1 O12 2.075415 1_555
Fe1 O0 2.092799 1_655
Fe2 O14 2.031310 1_555
Fe2 O9 2.035138 1_545
Fe2 O4 2.053454 1_655
Fe2 O5 2.071048 1_655
Fe2 O11 2.076496 1_555
Fe2 O12 2.092257 1_555
Cu0 O9 1.932905 1_555
Cu0 O0 2.048450 1_555
Cu0 O5 2.049685 1_555
Cu0 O1 2.565264 1_555
Cu1 O14 2.009047 1_555
Cu1 O13 2.170968 1_556
Cu1 O11 2.171380 1_555
Cu1 O10 2.241434 1_555
Cu1 O15 2.247914 1_556
Cu1 O8 2.402616 1_556
O0 Sb2 2.041501 1_565
O1 Sb0 2.043625 1_555
O1 Sb1 2.043653 1_555
O2 Sb0 2.066776 1_555
O2 Sb1 2.069955 1_555
O3 Sb0 2.065730 1_545
O3 Sb1 2.076905 1_555
O4 Sb2 2.021541 1_555
O5 Sb2 2.047946 1_555
O6 Sb0 1.962730 1_555
O7 Sb1 1.966139 1_555
O8 Sb1 2.052927 1_555
O8 Sb0 2.058326 1_545
O10 Sb2 2.004692 1_555
O11 Sb2 2.026210 1_555
O12 Sb2 2.039523 1_555
O13 Sb0 2.008722 1_655
O15 Sb1 1.994877 1_655
