# generated using pymatgen
data_B
_symmetry_space_group_name_H-M   'P 1'
_cell_length_a   5.19830200
_cell_length_b   11.82458800
_cell_length_c   12.11876687
_cell_angle_alpha   67.62934983
_cell_angle_beta   90.00000000
_cell_angle_gamma   90.00000000
_symmetry_Int_Tables_number   1
_chemical_formula_structural   B
_chemical_formula_sum   B40
_cell_volume   688.85231625
_cell_formula_units_Z   40
loop_
 _symmetry_equiv_pos_site_id
 _symmetry_equiv_pos_as_xyz
  1  'x, y, z'
loop_
 _atom_site_type_symbol
 _atom_site_label
 _atom_site_symmetry_multiplicity
 _atom_site_fract_x
 _atom_site_fract_y
 _atom_site_fract_z
 _atom_site_occupancy
  B  B0  1  0.02115200  0.20552700  0.14123500  1
  B  B1  1  0.97884800  0.79447300  0.85876500  1
  B  B2  1  0.97884800  0.70552700  0.64123500  1
  B  B3  1  0.02115200  0.29447300  0.35876500  1
  B  B4  1  0.83019700  0.32255800  0.13696900  1
  B  B5  1  0.16980300  0.67744200  0.86303100  1
  B  B6  1  0.16980300  0.82255800  0.63696900  1
  B  B7  1  0.83019700  0.17744200  0.36303100  1
  B  B8  1  0.12971200  0.34227900  0.10307700  1
  B  B9  1  0.87028800  0.65772100  0.89692300  1
  B  B10  1  0.87028800  0.84227900  0.60307700  1
  B  B11  1  0.12971200  0.15772100  0.39692300  1
  B  B12  1  0.02928800  0.39219100  0.20090000  1
  B  B13  1  0.97071200  0.60780900  0.79910000  1
  B  B14  1  0.97071200  0.89219100  0.70090000  1
  B  B15  1  0.02928800  0.10780900  0.29910000  1
  B  B16  1  0.76999500  0.32532000  0.27260500  1
  B  B17  1  0.23000500  0.67468000  0.72739500  1
  B  B18  1  0.23000500  0.82532000  0.77260500  1
  B  B19  1  0.76999500  0.17468000  0.22739500  1
  B  B20  1  0.52069400  0.63299500  0.21592500  1
  B  B21  1  0.47930600  0.36700500  0.78407500  1
  B  B22  1  0.47930600  0.13299500  0.71592500  1
  B  B23  1  0.52069400  0.86700500  0.28407500  1
  B  B24  1  0.32856500  0.63662400  0.32681600  1
  B  B25  1  0.67143500  0.36337600  0.67318400  1
  B  B26  1  0.67143500  0.13662400  0.82681600  1
  B  B27  1  0.32856500  0.86337600  0.17318400  1
  B  B28  1  0.62708800  0.60170500  0.34861800  1
  B  B29  1  0.37291200  0.39829500  0.65138200  1
  B  B30  1  0.37291200  0.10170500  0.84861800  1
  B  B31  1  0.62708800  0.89829500  0.15138200  1
  B  B32  1  0.52746600  0.70868200  0.38843600  1
  B  B33  1  0.47253400  0.29131800  0.61156400  1
  B  B34  1  0.47253400  0.20868200  0.88843600  1
  B  B35  1  0.52746600  0.79131800  0.11156400  1
  B  B36  1  0.26906300  0.72096800  0.18041600  1
  B  B37  1  0.73093700  0.27903200  0.81958400  1
  B  B38  1  0.73093700  0.22096800  0.68041600  1
  B  B39  1  0.26906300  0.77903200  0.31958400  1
loop_
_geom_bond_atom_site_label_1
_geom_bond_atom_site_label_2
_geom_bond_distance
_geom_bond_site_symmetry_2
B0 B8 1.605590 1_555
B0 B19 1.624179 1_455
B0 B4 1.687772 1_455
B0 B15 1.820522 1_555
B1 B9 1.605590 1_555
B1 B18 1.624179 1_655
B1 B5 1.687772 1_655
B1 B14 1.820522 1_555
B2 B6 1.687772 1_655
B3 B7 1.687772 1_455
B4 B8 1.604470 1_655
B5 B9 1.604470 1_455
B10 B14 1.599631 1_555
B10 B6 1.604470 1_655
B10 B2 1.605590 1_555
B11 B15 1.599631 1_555
B11 B7 1.604470 1_455
B11 B3 1.605590 1_555
B12 B8 1.599631 1_555
B12 B16 1.635274 1_455
B12 B4 1.683714 1_455
B12 B3 1.820522 1_555
B13 B9 1.599631 1_555
B13 B17 1.635274 1_655
B13 B5 1.683714 1_655
B13 B2 1.820522 1_555
B14 B18 1.635274 1_655
B14 B6 1.683714 1_655
B15 B19 1.635274 1_455
B15 B7 1.683714 1_455
B16 B3 1.624179 1_655
B16 B4 1.685750 1_555
B16 B7 1.702297 1_555
B17 B2 1.624179 1_455
B17 B5 1.685750 1_555
B17 B6 1.702297 1_555
B18 B6 1.685750 1_555
B18 B5 1.702297 1_555
B19 B7 1.685750 1_555
B19 B4 1.702297 1_555
B20 B28 1.604928 1_555
B20 B36 1.624054 1_555
B20 B24 1.687955 1_555
B20 B35 1.817490 1_555
B21 B29 1.604928 1_555
B21 B37 1.624054 1_555
B21 B25 1.687955 1_555
B21 B34 1.817490 1_555
B22 B30 1.604928 1_555
B22 B38 1.624054 1_555
B22 B26 1.687955 1_555
B22 B33 1.817490 1_555
B23 B31 1.604928 1_555
B23 B39 1.624054 1_555
B23 B27 1.687955 1_555
B23 B32 1.817490 1_555
B24 B28 1.601680 1_555
B24 B39 1.681246 1_555
B24 B32 1.684348 1_555
B24 B36 1.700350 1_555
B25 B29 1.601680 1_555
B25 B38 1.681246 1_555
B25 B33 1.684348 1_555
B25 B37 1.700350 1_555
B26 B30 1.601680 1_555
B26 B37 1.681246 1_555
B26 B34 1.684348 1_555
B26 B38 1.700350 1_555
B27 B31 1.601680 1_555
B27 B36 1.681246 1_555
B27 B35 1.684348 1_555
B27 B39 1.700350 1_555
B28 B32 1.601808 1_555
B29 B33 1.601808 1_555
B30 B34 1.601808 1_555
B31 B35 1.601808 1_555
B32 B39 1.632240 1_555
B33 B38 1.632240 1_555
B34 B37 1.632240 1_555
B35 B36 1.632240 1_555
B36 B39 2.048720 1_555
B37 B38 2.048720 1_555
