# generated using pymatgen
data_Li3TiSiO5
_symmetry_space_group_name_H-M   'P 1'
_cell_length_a   5.01078700
_cell_length_b   5.45107900
_cell_length_c   15.85208000
_cell_angle_alpha   90.00000000
_cell_angle_beta   90.00000000
_cell_angle_gamma   90.00000000
_symmetry_Int_Tables_number   1
_chemical_formula_structural   Li3TiSiO5
_chemical_formula_sum   'Li12 Ti4 Si4 O20'
_cell_volume   432.98681679
_cell_formula_units_Z   4
loop_
 _symmetry_equiv_pos_site_id
 _symmetry_equiv_pos_as_xyz
  1  'x, y, z'
loop_
 _atom_site_type_symbol
 _atom_site_label
 _atom_site_symmetry_multiplicity
 _atom_site_fract_x
 _atom_site_fract_y
 _atom_site_fract_z
 _atom_site_occupancy
  Li  Li0  1  0.99914400  0.66660200  0.59024700  1
  Li  Li1  1  0.99914400  0.16660200  0.90975300  1
  Li  Li2  1  0.50197900  0.33615900  0.99320700  1
  Li  Li3  1  0.50197900  0.83615900  0.50679300  1
  Li  Li4  1  0.49894700  0.32646500  0.80552800  1
  Li  Li5  1  0.49894700  0.82646500  0.69447200  1
  Li  Li6  1  0.49914400  0.33339800  0.40975300  1
  Li  Li7  1  0.49914400  0.83339800  0.09024700  1
  Li  Li8  1  0.00197900  0.66384100  0.00679300  1
  Li  Li9  1  0.00197900  0.16384100  0.49320700  1
  Li  Li10  1  0.99894700  0.17353500  0.30552800  1
  Li  Li11  1  0.99894700  0.67353500  0.19447200  1
  Ti  Ti0  1  0.99613100  0.17932100  0.69831400  1
  Ti  Ti1  1  0.99613100  0.67932100  0.80168600  1
  Ti  Ti2  1  0.49613100  0.32067900  0.19831400  1
  Ti  Ti3  1  0.49613100  0.82067900  0.30168600  1
  Si  Si0  1  0.00621300  0.16134400  0.09697500  1
  Si  Si1  1  0.00621300  0.66134400  0.40302500  1
  Si  Si2  1  0.50621300  0.33865600  0.59697500  1
  Si  Si3  1  0.50621300  0.83865600  0.90302500  1
  O  O0  1  0.09944400  0.34302100  0.80024100  1
  O  O1  1  0.09944400  0.84302100  0.69975900  1
  O  O2  1  0.10911000  0.37927600  0.39785800  1
  O  O3  1  0.10911000  0.87927600  0.10214200  1
  O  O4  1  0.11052900  0.31485300  0.01559900  1
  O  O5  1  0.11052900  0.81485300  0.48440100  1
  O  O6  1  0.10202500  0.30912500  0.18673400  1
  O  O7  1  0.10202500  0.80912500  0.31326600  1
  O  O8  1  0.17147600  0.32772600  0.60088400  1
  O  O9  1  0.17147600  0.82772600  0.89911600  1
  O  O10  1  0.59944400  0.65697900  0.19975900  1
  O  O11  1  0.59944400  0.15697900  0.30024100  1
  O  O12  1  0.60911000  0.62072400  0.60214200  1
  O  O13  1  0.60911000  0.12072400  0.89785800  1
  O  O14  1  0.61052900  0.18514700  0.51559900  1
  O  O15  1  0.61052900  0.68514700  0.98440100  1
  O  O16  1  0.60202500  0.19087500  0.68673400  1
  O  O17  1  0.60202500  0.69087500  0.81326600  1
  O  O18  1  0.67147600  0.17227400  0.10088400  1
  O  O19  1  0.67147600  0.67227400  0.39911600  1
loop_
_geom_bond_atom_site_label_1
_geom_bond_atom_site_label_2
_geom_bond_distance
_geom_bond_site_symmetry_2
Li0 O5 1.944185 1_655
Li0 O12 1.979315 1_555
Li0 O8 2.046068 1_655
Li0 O1 2.047212 1_655
Li1 O4 1.944185 1_656
Li1 O13 1.979315 1_555
Li1 O9 2.046068 1_645
Li1 O0 2.047212 1_655
Li2 O15 1.983511 1_555
Li2 O13 1.987924 1_555
Li2 O4 1.996712 1_556
Li2 O18 2.105453 1_556
Li3 O14 1.983511 1_565
Li3 O12 1.987924 1_555
Li3 O5 1.996712 1_555
Li3 O19 2.105453 1_555
Li4 O13 1.924756 1_555
Li4 O0 2.005610 1_555
Li4 O17 2.056141 1_555
Li4 O16 2.087881 1_555
Li5 O12 1.924756 1_555
Li5 O1 2.005610 1_555
Li5 O16 2.056141 1_565
Li5 O17 2.087881 1_555
Li6 O14 1.944185 1_555
Li6 O2 1.979315 1_555
Li6 O19 2.046068 1_555
Li6 O11 2.047212 1_555
Li7 O15 1.944185 1_554
Li7 O3 1.979315 1_555
Li7 O18 2.046068 1_565
Li7 O10 2.047212 1_555
Li8 O4 1.983511 1_555
Li8 O3 1.987924 1_555
Li8 O15 1.996712 1_454
Li8 O9 2.105453 1_554
Li9 O5 1.983511 1_545
Li9 O2 1.987924 1_555
Li9 O14 1.996712 1_455
Li9 O8 2.105453 1_555
Li10 O2 1.924756 1_655
Li10 O11 2.005610 1_555
Li10 O7 2.056141 1_645
Li10 O6 2.087881 1_655
Li11 O3 1.924756 1_655
Li11 O10 2.005610 1_555
Li11 O6 2.056141 1_655
Li11 O7 2.087881 1_655
O0 Ti1 1.905028 1_455
O0 Ti0 1.917011 1_455
O1 Ti0 1.905028 1_465
O1 Ti1 1.917011 1_455
O2 Si1 1.623787 1_555
O3 Si0 1.623787 1_565
O4 Si0 1.624033 1_555
O5 Si1 1.624033 1_555
O6 Si0 1.704106 1_555
O6 Ti2 1.984294 1_555
O7 Si1 1.704106 1_555
O7 Ti3 1.984294 1_555
O8 Si2 1.679497 1_555
O8 Ti0 1.952377 1_455
O9 Si3 1.679497 1_555
O9 Ti1 1.952377 1_455
O10 Ti2 1.905028 1_555
O10 Ti3 1.917011 1_555
O11 Ti3 1.905028 1_545
O11 Ti2 1.917011 1_555
O12 Si2 1.623787 1_555
O13 Si3 1.623787 1_545
O14 Si2 1.624033 1_555
O15 Si3 1.624033 1_555
O16 Si2 1.704106 1_555
O16 Ti0 1.984294 1_555
O17 Si3 1.704106 1_555
O17 Ti1 1.984294 1_555
O18 Si0 1.679497 1_655
O18 Ti2 1.952377 1_555
O19 Si1 1.679497 1_655
O19 Ti3 1.952377 1_555
