# generated using pymatgen
data_CaH16C4N8(ClO2)2
_symmetry_space_group_name_H-M   'P 1'
_cell_length_a   13.62180900
_cell_length_b   9.14259600
_cell_length_c   9.18070984
_cell_angle_alpha   66.45013137
_cell_angle_beta   90.00000000
_cell_angle_gamma   90.00000000
_symmetry_Int_Tables_number   1
_chemical_formula_structural   CaH16C4N8(ClO2)2
_chemical_formula_sum   'Ca2 H32 C8 N16 Cl4 O8'
_cell_volume   1048.12676087
_cell_formula_units_Z   2
loop_
 _symmetry_equiv_pos_site_id
 _symmetry_equiv_pos_as_xyz
  1  'x, y, z'
loop_
 _atom_site_type_symbol
 _atom_site_label
 _atom_site_symmetry_multiplicity
 _atom_site_fract_x
 _atom_site_fract_y
 _atom_site_fract_z
 _atom_site_occupancy
  Ca  Ca0  1  0.50000000  0.00000000  0.00000000  1
  Ca  Ca1  1  0.00000000  0.00000000  0.50000000  1
  H  H0  1  0.49844600  0.47140300  0.48020600  1
  H  H1  1  0.99844600  0.52859700  0.01979400  1
  H  H2  1  0.50155400  0.52859700  0.51979400  1
  H  H3  1  0.00155400  0.47140300  0.98020600  1
  H  H4  1  0.27761100  0.92741500  0.49739600  1
  H  H5  1  0.77761100  0.07258500  0.00260400  1
  H  H6  1  0.72238900  0.07258500  0.50260400  1
  H  H7  1  0.22238900  0.92741500  0.99739600  1
  H  H8  1  0.38423300  0.23200100  0.62444600  1
  H  H9  1  0.88423300  0.76799900  0.87555400  1
  H  H10  1  0.61576700  0.76799900  0.37555400  1
  H  H11  1  0.11576700  0.23200100  0.12444600  1
  H  H12  1  0.43126000  0.64223000  0.04081900  1
  H  H13  1  0.93126000  0.35777000  0.45918100  1
  H  H14  1  0.56874000  0.35777000  0.95918100  1
  H  H15  1  0.06874000  0.64223000  0.54081900  1
  H  H16  1  0.28694500  0.47977900  0.14088000  1
  H  H17  1  0.78694500  0.52022100  0.35912000  1
  H  H18  1  0.71305500  0.52022100  0.85912000  1
  H  H19  1  0.21305500  0.47977900  0.64088000  1
  H  H20  1  0.14928000  0.01300500  0.75222100  1
  H  H21  1  0.64928000  0.98699500  0.74777900  1
  H  H22  1  0.85072000  0.98699500  0.24777900  1
  H  H23  1  0.35072000  0.01300500  0.25222100  1
  H  H24  1  0.21689300  0.45733000  0.98965300  1
  H  H25  1  0.71689300  0.54267000  0.51034700  1
  H  H26  1  0.78310700  0.54267000  0.01034700  1
  H  H27  1  0.28310700  0.45733000  0.48965300  1
  H  H28  1  0.34444300  0.13077700  0.06556600  1
  H  H29  1  0.84444300  0.86922300  0.43443400  1
  H  H30  1  0.65555700  0.86922300  0.93443400  1
  H  H31  1  0.15555700  0.13077700  0.56556600  1
  C  C0  1  0.34397900  0.10986900  0.49788100  1
  C  C1  1  0.84397900  0.89013100  0.00211900  1
  C  C2  1  0.65602100  0.89013100  0.50211900  1
  C  C3  1  0.15602100  0.10986900  0.99788100  1
  C  C4  1  0.37854200  0.72193200  0.95207600  1
  C  C5  1  0.87854200  0.27806800  0.54792400  1
  C  C6  1  0.62145800  0.27806800  0.04792400  1
  C  C7  1  0.12145800  0.72193200  0.45207600  1
  N  N0  1  0.66354600  0.99887800  0.54873000  1
  N  N1  1  0.16354600  0.00112200  0.95127000  1
  N  N2  1  0.33645400  0.00112200  0.45127000  1
  N  N3  1  0.83645400  0.99887800  0.04873000  1
  N  N4  1  0.35225100  0.23179300  0.52173000  1
  N  N5  1  0.85225100  0.76820700  0.97827000  1
  N  N6  1  0.64774900  0.76820700  0.47827000  1
  N  N7  1  0.14774900  0.23179300  0.02173000  1
  N  N8  1  0.26880500  0.51927700  0.02254400  1
  N  N9  1  0.76880500  0.48072300  0.47745600  1
  N  N10  1  0.73119500  0.48072300  0.97745600  1
  N  N11  1  0.23119500  0.51927700  0.52254400  1
  N  N12  1  0.29720400  0.65772400  0.91450000  1
  N  N13  1  0.79720400  0.34227600  0.58550000  1
  N  N14  1  0.70279600  0.34227600  0.08550000  1
  N  N15  1  0.20279600  0.65772400  0.41450000  1
  Cl  Cl0  1  0.41160500  0.28948100  0.82894100  1
  Cl  Cl1  1  0.91160500  0.71051900  0.67105900  1
  Cl  Cl2  1  0.58839500  0.71051900  0.17105900  1
  Cl  Cl3  1  0.08839500  0.28948100  0.32894100  1
  O  O0  1  0.35812700  0.02031200  0.14136600  1
  O  O1  1  0.85812700  0.97968800  0.35863400  1
  O  O2  1  0.64187300  0.97968800  0.85863400  1
  O  O3  1  0.14187300  0.02031200  0.64136600  1
  O  O4  1  0.39877800  0.86751000  0.88447300  1
  O  O5  1  0.89877800  0.13249000  0.61552700  1
  O  O6  1  0.60122200  0.13249000  0.11552700  1
  O  O7  1  0.10122200  0.86751000  0.38447300  1
loop_
_geom_bond_atom_site_label_1
_geom_bond_atom_site_label_2
_geom_bond_distance
_geom_bond_site_symmetry_2
Ca0 O4 2.349458 1_544
Ca0 O6 2.349458 1_555
Ca0 O2 2.376191 1_544
Ca0 O0 2.376191 1_555
Ca0 Cl0 2.756695 1_554
Ca0 Cl2 2.756695 1_545
Ca1 O7 2.349458 1_545
Ca1 O5 2.349458 1_455
Ca1 O3 2.376191 1_555
Ca1 O1 2.376191 1_445
Ca1 Cl1 2.756695 1_445
Ca1 Cl3 2.756695 1_555
H0 H2 0.747781 1_555
H1 H3 0.747781 1_654
H4 N2 1.023659 1_565
H5 N3 1.023659 1_545
H6 N0 1.023659 1_545
H7 N1 1.023659 1_565
H8 N4 1.039466 1_555
H9 N5 1.039466 1_555
H10 N6 1.039466 1_555
H11 N7 1.039466 1_555
H16 N8 1.028711 1_555
H17 N9 1.028711 1_555
H18 N10 1.028711 1_555
H19 N11 1.028711 1_555
H20 O3 0.998039 1_555
H21 O2 0.998039 1_555
H22 O1 0.998039 1_555
H23 O0 0.998039 1_555
H24 N8 1.024032 1_556
H25 N9 1.024032 1_555
H26 N10 1.024032 1_554
H27 N11 1.024032 1_555
H28 O0 0.988624 1_555
H29 O1 0.988624 1_555
H30 O2 0.988624 1_555
H31 O3 0.988624 1_555
C0 N4 1.224021 1_555
C0 N2 1.233732 1_555
C1 N5 1.224021 1_554
C1 N3 1.233732 1_555
C2 N6 1.224021 1_555
C2 N0 1.233732 1_555
C3 N7 1.224021 1_556
C3 N1 1.233732 1_555
C4 H12 1.111773 1_556
C4 O4 1.254012 1_555
C4 N12 1.361261 1_555
C5 H13 1.111773 1_555
C5 O5 1.254012 1_555
C5 N13 1.361261 1_555
C6 H14 1.111773 1_554
C6 O6 1.254012 1_555
C6 N14 1.361261 1_555
C7 H15 1.111773 1_555
C7 O7 1.254012 1_555
C7 N15 1.361261 1_555
N10 N14 1.316216 1_556
N11 N15 1.316216 1_555
N12 N8 1.316216 1_556
N13 N9 1.316216 1_555
