# generated using pymatgen
data_Na4WO4
_symmetry_space_group_name_H-M   'P 1'
_cell_length_a   5.70313177
_cell_length_b   5.70313177
_cell_length_c   5.70313177
_cell_angle_alpha   100.65057598
_cell_angle_beta   100.65057598
_cell_angle_gamma   129.07684519
_symmetry_Int_Tables_number   1
_chemical_formula_structural   Na4WO4
_chemical_formula_sum   'Na4 W1 O4'
_cell_volume   130.01621726
_cell_formula_units_Z   1
loop_
 _symmetry_equiv_pos_site_id
 _symmetry_equiv_pos_as_xyz
  1  'x, y, z'
loop_
 _atom_site_type_symbol
 _atom_site_label
 _atom_site_symmetry_multiplicity
 _atom_site_fract_x
 _atom_site_fract_y
 _atom_site_fract_z
 _atom_site_occupancy
  Na  Na0  1  0.80236600  0.40695200  0.20931800  1
  Na  Na1  1  0.40695200  0.19763400  0.60458600  1
  Na  Na2  1  0.59304800  0.80236600  0.39541400  1
  Na  Na3  1  0.19763400  0.59304800  0.79068200  1
  W  W0  1  0.00000000  0.00000000  0.00000000  1
  O  O0  1  0.25234000  0.91886400  0.17120400  1
  O  O1  1  0.91886400  0.74766000  0.66652400  1
  O  O2  1  0.08113600  0.25234000  0.33347600  1
  O  O3  1  0.74766000  0.08113600  0.82879600  1
loop_
_geom_bond_atom_site_label_1
_geom_bond_atom_site_label_2
_geom_bond_distance
_geom_bond_site_symmetry_2
Na0 O2 2.321346 1_655
Na0 O3 2.405830 1_554
Na0 O0 2.480242 1_545
Na0 O0 2.480242 1_655
Na0 O1 2.622092 1_555
Na1 O0 2.321346 1_545
Na1 O2 2.405830 1_555
Na1 O1 2.480242 1_555
Na1 O1 2.480242 1_445
Na1 O3 2.622092 1_555
Na2 O3 2.321346 1_565
Na2 O1 2.405830 1_555
Na2 O2 2.480242 1_555
Na2 O2 2.480242 1_665
Na2 O0 2.622092 1_555
Na3 O1 2.321346 1_455
Na3 O0 2.405830 1_556
Na3 O3 2.480242 1_455
Na3 O3 2.480242 1_565
Na3 O2 2.622092 1_555
O0 W0 1.930212 1_565
O1 W0 1.930212 1_666
O2 W0 1.930212 1_555
O3 W0 1.930212 1_656
