# generated using pymatgen
data_Ti2Ni(PO4)3
_symmetry_space_group_name_H-M   'P 1'
_cell_length_a   8.46932489
_cell_length_b   8.46932489
_cell_length_c   8.46932524
_cell_angle_alpha   60.90578723
_cell_angle_beta   60.90578723
_cell_angle_gamma   60.90578438
_symmetry_Int_Tables_number   1
_chemical_formula_structural   Ti2Ni(PO4)3
_chemical_formula_sum   'Ti4 Ni2 P6 O24'
_cell_volume   438.33740111
_cell_formula_units_Z   2
loop_
 _symmetry_equiv_pos_site_id
 _symmetry_equiv_pos_as_xyz
  1  'x, y, z'
loop_
 _atom_site_type_symbol
 _atom_site_label
 _atom_site_symmetry_multiplicity
 _atom_site_fract_x
 _atom_site_fract_y
 _atom_site_fract_z
 _atom_site_occupancy
  Ti  Ti0  1  0.85625900  0.85625900  0.85625900  1
  Ti  Ti1  1  0.64374100  0.64374100  0.64374100  1
  Ti  Ti2  1  0.35625900  0.35625900  0.35625900  1
  Ti  Ti3  1  0.14374100  0.14374100  0.14374100  1
  Ni  Ni0  1  0.00000000  0.00000000  0.00000000  1
  Ni  Ni1  1  0.50000000  0.50000000  0.50000000  1
  P  P0  1  0.95472000  0.25000000  0.54528000  1
  P  P1  1  0.54528000  0.95472000  0.25000000  1
  P  P2  1  0.25000000  0.54528000  0.95472000  1
  P  P3  1  0.75000000  0.45472000  0.04528000  1
  P  P4  1  0.45472000  0.04528000  0.75000000  1
  P  P5  1  0.04528000  0.75000000  0.45472000  1
  O  O0  1  0.88568300  0.68151800  0.49980500  1
  O  O1  1  0.68151800  0.49980500  0.88568300  1
  O  O2  1  0.94262700  0.08876700  0.74286900  1
  O  O3  1  0.49980500  0.88568300  0.68151800  1
  O  O4  1  0.99980500  0.18151800  0.38568300  1
  O  O5  1  0.75713100  0.41123300  0.55737300  1
  O  O6  1  0.74286900  0.94262700  0.08876700  1
  O  O7  1  0.55737300  0.75713100  0.41123300  1
  O  O8  1  0.81848200  0.61431700  0.00019500  1
  O  O9  1  0.41123300  0.55737300  0.75713100  1
  O  O10  1  0.91123300  0.25713100  0.05737300  1
  O  O11  1  0.61431700  0.00019500  0.81848200  1
  O  O12  1  0.38568300  0.99980500  0.18151800  1
  O  O13  1  0.08876700  0.74286900  0.94262700  1
  O  O14  1  0.58876700  0.44262700  0.24286900  1
  O  O15  1  0.18151800  0.38568300  0.99980500  1
  O  O16  1  0.44262700  0.24286900  0.58876700  1
  O  O17  1  0.25713100  0.05737300  0.91123300  1
  O  O18  1  0.24286900  0.58876700  0.44262700  1
  O  O19  1  0.00019500  0.81848200  0.61431700  1
  O  O20  1  0.50019500  0.11431700  0.31848200  1
  O  O21  1  0.05737300  0.91123300  0.25713100  1
  O  O22  1  0.31848200  0.50019500  0.11431700  1
  O  O23  1  0.11431700  0.31848200  0.50019500  1
loop_
_geom_bond_atom_site_label_1
_geom_bond_atom_site_label_2
_geom_bond_distance
_geom_bond_site_symmetry_2
Ni0 O13 2.150683 1_544
Ni0 O10 2.150683 1_455
Ni0 O6 2.150684 1_445
Ni0 O17 2.150684 1_554
Ni0 O21 2.150684 1_545
Ni0 O2 2.150684 1_454
Ni1 O18 2.150683 1_555
Ni1 O5 2.150683 1_555
Ni1 O16 2.150684 1_555
Ni1 O7 2.150684 1_555
Ni1 O14 2.150684 1_555
Ni1 O9 2.150684 1_555
O0 P5 1.534385 1_655
O0 Ti1 1.901639 1_555
O1 P3 1.534385 1_556
O1 Ti1 1.901639 1_555
O2 P0 1.556481 1_555
O2 Ti0 2.052703 1_545
O3 P4 1.534385 1_565
O3 Ti1 1.901639 1_555
O4 P0 1.534385 1_555
O4 Ti3 1.901639 1_655
O5 P0 1.556481 1_555
O5 Ti1 2.052703 1_555
O6 P1 1.556481 1_555
O6 Ti0 2.052703 1_554
O7 P1 1.556481 1_555
O7 Ti1 2.052703 1_555
O8 P3 1.534385 1_555
O8 Ti0 1.901639 1_554
O9 P2 1.556481 1_555
O9 Ti1 2.052703 1_555
O10 P3 1.556481 1_555
O10 Ti3 2.052703 1_655
O11 P4 1.534385 1_555
O11 Ti0 1.901639 1_545
O12 P1 1.534385 1_555
O12 Ti3 1.901639 1_565
O13 P2 1.556481 1_555
O13 Ti0 2.052703 1_455
O14 P3 1.556481 1_555
O14 Ti2 2.052703 1_555
O15 P2 1.534385 1_555
O15 Ti3 1.901639 1_556
O16 P4 1.556481 1_555
O16 Ti2 2.052703 1_555
O17 P4 1.556481 1_555
O17 Ti3 2.052703 1_556
O18 P5 1.556481 1_555
O18 Ti2 2.052703 1_555
O19 P5 1.534385 1_555
O19 Ti0 1.901639 1_455
O20 P1 1.534385 1_545
O20 Ti2 1.901639 1_555
O21 P5 1.556481 1_555
O21 Ti3 2.052703 1_565
O22 P2 1.534385 1_554
O22 Ti2 1.901639 1_555
O23 P0 1.534385 1_455
O23 Ti2 1.901639 1_555
