# generated using pymatgen
data_Na3CuCSO7
_symmetry_space_group_name_H-M   'P 1'
_cell_length_a   6.96921500
_cell_length_b   5.14909200
_cell_length_c   8.99811921
_cell_angle_alpha   89.88161483
_cell_angle_beta   90.00000000
_cell_angle_gamma   90.00000000
_symmetry_Int_Tables_number   1
_chemical_formula_structural   Na3CuCSO7
_chemical_formula_sum   'Na6 Cu2 C2 S2 O14'
_cell_volume   322.89798108
_cell_formula_units_Z   2
loop_
 _symmetry_equiv_pos_site_id
 _symmetry_equiv_pos_as_xyz
  1  'x, y, z'
loop_
 _atom_site_type_symbol
 _atom_site_label
 _atom_site_symmetry_multiplicity
 _atom_site_fract_x
 _atom_site_fract_y
 _atom_site_fract_z
 _atom_site_occupancy
  Na  Na0  1  0.75000000  0.75724900  0.07864600  1
  Na  Na1  1  0.00836000  0.24688800  0.25760800  1
  Na  Na2  1  0.49164000  0.24688800  0.25760800  1
  Na  Na3  1  0.50836000  0.75311200  0.74239200  1
  Na  Na4  1  0.99164000  0.75311200  0.74239200  1
  Na  Na5  1  0.25000000  0.24275100  0.92135400  1
  Cu  Cu0  1  0.25000000  0.76359600  0.36417700  1
  Cu  Cu1  1  0.75000000  0.23640400  0.63582300  1
  C  C0  1  0.25000000  0.73600000  0.05910700  1
  C  C1  1  0.75000000  0.26400000  0.94089300  1
  S  S0  1  0.75000000  0.70196500  0.40890200  1
  S  S1  1  0.25000000  0.29803500  0.59109800  1
  O  O0  1  0.75000000  0.28326300  0.08577400  1
  O  O1  1  0.25000000  0.96329600  0.12159000  1
  O  O2  1  0.25000000  0.52758500  0.14078300  1
  O  O3  1  0.92287400  0.78456000  0.32205200  1
  O  O4  1  0.57712600  0.78456000  0.32205200  1
  O  O5  1  0.75000000  0.40949100  0.42357800  1
  O  O6  1  0.25000000  0.18353700  0.43923000  1
  O  O7  1  0.75000000  0.81646300  0.56077000  1
  O  O8  1  0.25000000  0.59050900  0.57642200  1
  O  O9  1  0.42287400  0.21544000  0.67794800  1
  O  O10  1  0.07712600  0.21544000  0.67794800  1
  O  O11  1  0.75000000  0.47241500  0.85921700  1
  O  O12  1  0.75000000  0.03670400  0.87841000  1
  O  O13  1  0.25000000  0.71673700  0.91422600  1
loop_
_geom_bond_atom_site_label_1
_geom_bond_atom_site_label_2
_geom_bond_distance
_geom_bond_site_symmetry_2
Na0 O12 2.303503 1_564
Na0 O0 2.441308 1_555
Na0 O11 2.461998 1_554
Na0 O4 2.503905 1_555
Na0 O3 2.503905 1_555
Na0 O0 2.709386 1_565
Na1 O6 2.368753 1_555
Na1 O0 2.380463 1_455
Na1 O2 2.454331 1_555
Na1 O5 2.485660 1_455
Na1 O3 2.520437 1_445
Na1 O1 2.544333 1_545
Na1 O3 2.891807 1_455
Na2 O6 2.368753 1_555
Na2 O0 2.380463 1_555
Na2 O2 2.454331 1_555
Na2 O5 2.485660 1_555
Na2 O4 2.520437 1_545
Na2 O1 2.544333 1_545
Na2 O4 2.891807 1_555
Na3 O7 2.368753 1_555
Na3 O13 2.380463 1_555
Na3 O11 2.454331 1_555
Na3 O8 2.485660 1_555
Na3 O9 2.520437 1_565
Na3 O12 2.544333 1_565
Na3 O9 2.891807 1_555
Na4 O7 2.368753 1_555
Na4 O13 2.380463 1_655
Na4 O11 2.454331 1_555
Na4 O8 2.485660 1_655
Na4 O10 2.520437 1_665
Na4 O12 2.544333 1_565
Na4 O10 2.891807 1_655
Na5 O1 2.303503 1_546
Na5 O13 2.441308 1_555
Na5 O2 2.461998 1_556
Na5 O9 2.503905 1_555
Na5 O10 2.503905 1_555
Na5 O13 2.709386 1_545
Cu0 O8 2.105857 1_555
Cu0 O6 2.266654 1_565
Cu0 O3 2.313590 1_455
Cu0 O4 2.313590 1_555
Cu0 O2 2.351067 1_555
Cu0 O1 2.410976 1_555
Cu1 O5 2.105857 1_555
Cu1 O7 2.266654 1_545
Cu1 O9 2.313590 1_555
Cu1 O10 2.313590 1_655
Cu1 O11 2.351067 1_555
Cu1 O12 2.410976 1_555
C0 O2 1.299427 1_555
C0 O1 1.299455 1_555
C0 O13 1.307629 1_554
C1 O11 1.299427 1_555
C1 O12 1.299455 1_555
C1 O0 1.307629 1_556
O3 S0 1.497248 1_555
O4 S0 1.497248 1_555
O5 S0 1.511483 1_555
O6 S1 1.489398 1_555
O7 S0 1.489398 1_555
O8 S1 1.511483 1_555
O9 S1 1.497248 1_555
O10 S1 1.497248 1_555
