# generated using pymatgen
data_RbSeO4
_symmetry_space_group_name_H-M   'P 1'
_cell_length_a   4.69560000
_cell_length_b   7.74922919
_cell_length_c   19.75276250
_cell_angle_alpha   93.03346211
_cell_angle_beta   92.28265545
_cell_angle_gamma   92.20987107
_symmetry_Int_Tables_number   1
_chemical_formula_structural   RbSeO4
_chemical_formula_sum   'Rb6 Se6 O24'
_cell_volume   716.57675968
_cell_formula_units_Z   6
loop_
 _symmetry_equiv_pos_site_id
 _symmetry_equiv_pos_as_xyz
  1  'x, y, z'
loop_
 _atom_site_type_symbol
 _atom_site_label
 _atom_site_symmetry_multiplicity
 _atom_site_fract_x
 _atom_site_fract_y
 _atom_site_fract_z
 _atom_site_occupancy
  Rb  Rb0  1  0.68933300  0.82391000  0.09263000  1
  Rb  Rb1  1  0.31066700  0.17609000  0.90737000  1
  Rb  Rb2  1  0.30094500  0.26142700  0.25188800  1
  Rb  Rb3  1  0.69905500  0.73857300  0.74811200  1
  Rb  Rb4  1  0.86712100  0.82102600  0.41051000  1
  Rb  Rb5  1  0.13287900  0.17897400  0.58949000  1
  Se  Se0  1  0.83731700  0.32456000  0.09027200  1
  Se  Se1  1  0.16268300  0.67544000  0.90972800  1
  Se  Se2  1  0.29875100  0.75741200  0.25185600  1
  Se  Se3  1  0.70124900  0.24258800  0.74814400  1
  Se  Se4  1  0.74531500  0.32165700  0.42224500  1
  Se  Se5  1  0.25468500  0.67834300  0.57775500  1
  O  O0  1  0.74513200  0.20038300  0.15275500  1
  O  O1  1  0.25486800  0.79961700  0.84724500  1
  O  O2  1  0.92539500  0.20542300  0.02249300  1
  O  O3  1  0.07460500  0.79457700  0.97750700  1
  O  O4  1  0.11082000  0.46306500  0.11974600  1
  O  O5  1  0.88918000  0.53693500  0.88025400  1
  O  O6  1  0.56498200  0.45216400  0.06693300  1
  O  O7  1  0.43501800  0.54783600  0.93306700  1
  O  O8  1  0.41975900  0.88752200  0.31746000  1
  O  O9  1  0.58024100  0.11247800  0.68254000  1
  O  O10  1  0.18884100  0.87313000  0.18810900  1
  O  O11  1  0.81115900  0.12687000  0.81189100  1
  O  O12  1  0.03617000  0.62299000  0.27866400  1
  O  O13  1  0.96383000  0.37701000  0.72133600  1
  O  O14  1  0.55828100  0.62498300  0.22463600  1
  O  O15  1  0.44171900  0.37501700  0.77536400  1
  O  O16  1  0.53754500  0.46752100  0.39174600  1
  O  O17  1  0.46245500  0.53247900  0.60825400  1
  O  O18  1  0.92551100  0.21350600  0.36582200  1
  O  O19  1  0.07448900  0.78649400  0.63417800  1
  O  O20  1  0.05477500  0.46217200  0.46900600  1
  O  O21  1  0.94522500  0.53782800  0.53099400  1
  O  O22  1  0.62277600  0.20035500  0.48190600  1
  O  O23  1  0.37722400  0.79964500  0.51809400  1
loop_
_geom_bond_atom_site_label_1
_geom_bond_atom_site_label_2
_geom_bond_distance
_geom_bond_site_symmetry_2
O0 Se0 1.665160 1_555
O0 Rb2 2.951569 1_555
O0 Rb0 3.088651 1_545
O0 Rb2 3.204564 1_655
O1 Se1 1.665160 1_555
O1 Rb3 2.951569 1_555
O1 Rb1 3.088651 1_565
O1 Rb3 3.204564 1_455
O2 Se0 1.660892 1_555
O2 Rb1 2.966517 1_654
O3 Se1 1.660892 1_555
O3 Rb0 2.966517 1_456
O4 Se0 1.705363 1_455
O4 Rb2 3.225699 1_555
O5 Se1 1.705363 1_655
O5 Rb3 3.225699 1_555
O6 Se0 1.710086 1_555
O6 Rb0 2.930732 1_555
O7 Se1 1.710086 1_555
O7 Rb1 2.930732 1_555
O8 Se2 1.666603 1_555
O8 Rb4 2.816482 1_555
O8 Rb4 3.279429 1_455
O8 Rb2 3.293712 1_565
O9 Se3 1.666603 1_555
O9 Rb5 2.816482 1_555
O9 Rb5 3.279429 1_655
O9 Rb3 3.293712 1_545
O10 Se2 1.661154 1_555
O10 Rb0 2.950627 1_455
O10 Rb0 3.093777 1_555
O10 Rb2 3.215917 1_565
O11 Se3 1.661154 1_555
O11 Rb1 2.950627 1_655
O11 Rb1 3.093777 1_555
O11 Rb3 3.215917 1_545
O12 Se2 1.702070 1_555
O12 Rb4 3.098918 1_455
O12 Rb2 3.136867 1_555
O13 Se3 1.702070 1_555
O13 Rb5 3.098918 1_655
O13 Rb3 3.136867 1_555
O14 Se2 1.708090 1_555
O14 Rb2 3.104307 1_555
O14 Rb0 3.167656 1_555
O15 Se3 1.708090 1_555
O15 Rb3 3.104307 1_555
O15 Rb1 3.167656 1_555
O16 Se4 1.643986 1_555
O16 Rb4 3.091356 1_555
O16 Rb2 3.250920 1_555
O17 Se5 1.643986 1_555
O17 Rb5 3.091356 1_555
O17 Rb3 3.250920 1_555
O18 Se4 1.640550 1_555
O18 Rb2 2.943549 1_655
O18 Rb4 3.216160 1_545
O19 Se5 1.640550 1_555
O19 Rb3 2.943549 1_455
O19 Rb5 3.216160 1_565
O20 O21 1.450870 1_455
O20 Se4 1.953184 1_455
O20 Rb4 3.208197 1_455
O20 Rb5 3.340633 1_555
O21 Se5 1.953184 1_655
O21 Rb5 3.208197 1_655
O21 Rb4 3.340633 1_555
O22 Se4 1.653182 1_555
O22 Rb5 3.153252 1_655
O22 Rb5 3.198806 1_555
O22 Rb4 3.449087 1_545
O23 Se5 1.653182 1_555
O23 Rb4 3.153252 1_455
O23 Rb4 3.198806 1_555
O23 Rb5 3.449087 1_565
