# generated using pymatgen
data_Mn3CrO8
_symmetry_space_group_name_H-M   'P 1'
_cell_length_a   8.25126700
_cell_length_b   8.25126700
_cell_length_c   8.25126700
_cell_angle_alpha   90.00000000
_cell_angle_beta   90.00000000
_cell_angle_gamma   90.00000000
_symmetry_Int_Tables_number   1
_chemical_formula_structural   Mn3CrO8
_chemical_formula_sum   'Mn12 Cr4 O32'
_cell_volume   561.77437030
_cell_formula_units_Z   4
loop_
 _symmetry_equiv_pos_site_id
 _symmetry_equiv_pos_as_xyz
  1  'x, y, z'
loop_
 _atom_site_type_symbol
 _atom_site_label
 _atom_site_symmetry_multiplicity
 _atom_site_fract_x
 _atom_site_fract_y
 _atom_site_fract_z
 _atom_site_occupancy
  Mn  Mn0  1  0.62402600  0.62597400  0.12500000  1
  Mn  Mn1  1  0.62500000  0.87597400  0.37402600  1
  Mn  Mn2  1  0.62597400  0.12500000  0.62402600  1
  Mn  Mn3  1  0.87402600  0.87500000  0.12402600  1
  Mn  Mn4  1  0.87500000  0.12402600  0.87402600  1
  Mn  Mn5  1  0.87597400  0.37402600  0.62500000  1
  Mn  Mn6  1  0.12402600  0.87402600  0.87500000  1
  Mn  Mn7  1  0.12500000  0.62402600  0.62597400  1
  Mn  Mn8  1  0.12597400  0.37500000  0.37597400  1
  Mn  Mn9  1  0.37402600  0.62500000  0.87597400  1
  Mn  Mn10  1  0.37500000  0.37597400  0.12597400  1
  Mn  Mn11  1  0.37597400  0.12597400  0.37500000  1
  Cr  Cr0  1  0.62500000  0.37500000  0.87500000  1
  Cr  Cr1  1  0.87500000  0.62500000  0.37500000  1
  Cr  Cr2  1  0.12500000  0.12500000  0.12500000  1
  Cr  Cr3  1  0.37500000  0.87500000  0.62500000  1
  O  O0  1  0.60800000  0.61050200  0.89121900  1
  O  O1  1  0.60878100  0.39200000  0.11050200  1
  O  O2  1  0.61090100  0.11090100  0.38909900  1
  O  O3  1  0.63949800  0.64200000  0.35878100  1
  O  O4  1  0.61050200  0.89121900  0.60800000  1
  O  O5  1  0.63909900  0.86090100  0.13909900  1
  O  O6  1  0.64121900  0.13949800  0.85800000  1
  O  O7  1  0.64200000  0.35878100  0.63949800  1
  O  O8  1  0.85800000  0.64121900  0.13949800  1
  O  O9  1  0.85878100  0.86050200  0.35800000  1
  O  O10  1  0.86090100  0.13909900  0.63909900  1
  O  O11  1  0.88949800  0.10878100  0.10800000  1
  O  O12  1  0.86050200  0.35800000  0.85878100  1
  O  O13  1  0.88909900  0.88909900  0.88909900  1
  O  O14  1  0.89121900  0.60800000  0.61050200  1
  O  O15  1  0.89200000  0.38949800  0.39121900  1
  O  O16  1  0.10800000  0.88949800  0.10878100  1
  O  O17  1  0.10878100  0.10800000  0.88949800  1
  O  O18  1  0.11090100  0.38909900  0.61090100  1
  O  O19  1  0.13949800  0.85800000  0.64121900  1
  O  O20  1  0.11050200  0.60878100  0.39200000  1
  O  O21  1  0.13909900  0.63909900  0.86090100  1
  O  O22  1  0.14121900  0.36050200  0.14200000  1
  O  O23  1  0.14200000  0.14121900  0.36050200  1
  O  O24  1  0.35800000  0.85878100  0.86050200  1
  O  O25  1  0.35878100  0.63949800  0.64200000  1
  O  O26  1  0.36090100  0.36090100  0.36090100  1
  O  O27  1  0.38949800  0.39121900  0.89200000  1
  O  O28  1  0.36050200  0.14200000  0.14121900  1
  O  O29  1  0.38909900  0.61090100  0.11090100  1
  O  O30  1  0.39121900  0.89200000  0.38949800  1
  O  O31  1  0.39200000  0.11050200  0.60878100  1
loop_
_geom_bond_atom_site_label_1
_geom_bond_atom_site_label_2
_geom_bond_distance
_geom_bond_site_symmetry_2
Mn0 O3 1.937727 1_555
Mn0 O0 1.937727 1_554
Mn0 O1 1.938371 1_555
Mn0 O8 1.938371 1_555
Mn0 O29 1.945912 1_555
Mn0 O5 1.945912 1_555
Mn1 O9 1.937727 1_555
Mn1 O30 1.937727 1_555
Mn1 O3 1.938371 1_555
Mn1 O4 1.938371 1_555
Mn1 O5 1.945912 1_555
Mn1 O2 1.945912 1_565
Mn2 O7 1.937727 1_555
Mn2 O4 1.937727 1_545
Mn2 O31 1.938371 1_555
Mn2 O6 1.938371 1_555
Mn2 O2 1.945912 1_555
Mn2 O10 1.945912 1_555
Mn3 O11 1.937727 1_565
Mn3 O8 1.937727 1_555
Mn3 O9 1.938371 1_555
Mn3 O16 1.938371 1_655
Mn3 O13 1.945912 1_554
Mn3 O5 1.945912 1_555
Mn4 O17 1.937727 1_655
Mn4 O6 1.937727 1_555
Mn4 O12 1.938371 1_555
Mn4 O11 1.938371 1_556
Mn4 O13 1.945912 1_545
Mn4 O10 1.945912 1_555
Mn5 O12 1.937727 1_555
Mn5 O15 1.937727 1_555
Mn5 O7 1.938371 1_555
Mn5 O14 1.938371 1_555
Mn5 O10 1.945912 1_555
Mn5 O18 1.945912 1_655
Mn6 O16 1.937727 1_556
Mn6 O19 1.937727 1_555
Mn6 O24 1.938371 1_555
Mn6 O17 1.938371 1_565
Mn6 O13 1.945912 1_455
Mn6 O21 1.945912 1_555
Mn7 O25 1.937727 1_555
Mn7 O14 1.937727 1_455
Mn7 O20 1.938371 1_555
Mn7 O19 1.938371 1_555
Mn7 O18 1.945912 1_555
Mn7 O21 1.945912 1_555
Mn8 O20 1.937727 1_555
Mn8 O23 1.937727 1_555
Mn8 O22 1.938371 1_555
Mn8 O15 1.938371 1_455
Mn8 O26 1.945912 1_555
Mn8 O18 1.945912 1_555
Mn9 O24 1.937727 1_555
Mn9 O27 1.937727 1_555
Mn9 O25 1.938371 1_555
Mn9 O0 1.938371 1_555
Mn9 O21 1.945912 1_555
Mn9 O29 1.945912 1_556
Mn10 O1 1.937727 1_555
Mn10 O22 1.937727 1_555
Mn10 O28 1.938371 1_555
Mn10 O27 1.938371 1_554
Mn10 O26 1.945912 1_555
Mn10 O29 1.945912 1_555
Mn11 O31 1.937727 1_555
Mn11 O28 1.937727 1_555
Mn11 O23 1.938371 1_555
Mn11 O30 1.938371 1_545
Mn11 O26 1.945912 1_555
Mn11 O2 1.945912 1_555
Cr0 O1 1.952837 1_556
Cr0 O12 1.952837 1_555
Cr0 O0 1.952837 1_555
Cr0 O7 1.952837 1_555
Cr0 O6 1.952837 1_555
Cr0 O27 1.952837 1_555
Cr1 O20 1.952837 1_655
Cr1 O14 1.952837 1_555
Cr1 O9 1.952837 1_555
Cr1 O3 1.952837 1_555
Cr1 O15 1.952837 1_555
Cr1 O8 1.952837 1_555
Cr2 O22 1.952837 1_555
Cr2 O28 1.952837 1_555
Cr2 O23 1.952837 1_555
Cr2 O11 1.952837 1_455
Cr2 O17 1.952837 1_554
Cr2 O16 1.952837 1_545
Cr3 O31 1.952837 1_565
Cr3 O24 1.952837 1_555
Cr3 O4 1.952837 1_555
Cr3 O25 1.952837 1_555
Cr3 O19 1.952837 1_555
Cr3 O30 1.952837 1_555
