# generated using pymatgen
data_K2TbO3
_symmetry_space_group_name_H-M   'P 1'
_cell_length_a   6.53852330
_cell_length_b   6.53852330
_cell_length_c   6.18653700
_cell_angle_alpha   90.00000000
_cell_angle_beta   90.00000000
_cell_angle_gamma   114.84364640
_symmetry_Int_Tables_number   1
_chemical_formula_structural   K2TbO3
_chemical_formula_sum   'K4 Tb2 O6'
_cell_volume   240.01221777
_cell_formula_units_Z   2
loop_
 _symmetry_equiv_pos_site_id
 _symmetry_equiv_pos_as_xyz
  1  'x, y, z'
loop_
 _atom_site_type_symbol
 _atom_site_label
 _atom_site_symmetry_multiplicity
 _atom_site_fract_x
 _atom_site_fract_y
 _atom_site_fract_z
 _atom_site_occupancy
  K  K0  1  0.52537300  0.18841200  0.76741100  1
  K  K1  1  0.81158800  0.47462700  0.26741100  1
  K  K2  1  0.18841200  0.52537300  0.76741100  1
  K  K3  1  0.47462700  0.81158800  0.26741100  1
  Tb  Tb0  1  0.89335300  0.89335300  0.73179300  1
  Tb  Tb1  1  0.10664700  0.10664700  0.23179300  1
  O  O0  1  0.89393200  0.15666800  0.49965300  1
  O  O1  1  0.84333200  0.10606800  0.99965300  1
  O  O2  1  0.39842200  0.39842200  0.13407800  1
  O  O3  1  0.60157800  0.60157800  0.63407800  1
  O  O4  1  0.10606800  0.84333200  0.99965300  1
  O  O5  1  0.15666800  0.89393200  0.49965300  1
loop_
_geom_bond_atom_site_label_1
_geom_bond_atom_site_label_2
_geom_bond_distance
_geom_bond_site_symmetry_2
K0 O3 2.663771 1_555
K0 O1 2.759880 1_555
K0 O5 2.891844 1_545
K0 O2 2.945842 1_556
K0 O0 3.002439 1_555
K0 O4 3.077959 1_545
K1 O2 2.663771 1_555
K1 O0 2.759880 1_555
K1 O4 2.891844 1_654
K1 O3 2.945842 1_555
K1 O1 3.002439 1_554
K1 O5 3.077959 1_655
K2 O3 2.663771 1_555
K2 O4 2.759880 1_555
K2 O0 2.891844 1_455
K2 O2 2.945842 1_556
K2 O5 3.002439 1_555
K2 O1 3.077959 1_455
K3 O2 2.663771 1_555
K3 O5 2.759880 1_555
K3 O1 2.891844 1_564
K3 O3 2.945842 1_555
K3 O4 3.002439 1_554
K3 O0 3.077959 1_565
O0 Tb0 2.240818 1_545
O0 Tb1 2.273702 1_655
O1 Tb1 2.240818 1_656
O1 Tb0 2.273702 1_545
O2 Tb1 2.141577 1_555
O3 Tb0 2.141577 1_555
O4 Tb1 2.240818 1_566
O4 Tb0 2.273702 1_455
O5 Tb0 2.240818 1_455
O5 Tb1 2.273702 1_565
