# generated using pymatgen
data_CaPbI4
_symmetry_space_group_name_H-M   'P 1'
_cell_length_a   4.58717734
_cell_length_b   14.85137176
_cell_length_c   15.86509859
_cell_angle_alpha   90.00000000
_cell_angle_beta   90.00000000
_cell_angle_gamma   90.00000000
_symmetry_Int_Tables_number   1
_chemical_formula_structural   CaPbI4
_chemical_formula_sum   'Ca4 Pb4 I16'
_cell_volume   1080.82373936
_cell_formula_units_Z   4
loop_
 _symmetry_equiv_pos_site_id
 _symmetry_equiv_pos_as_xyz
  1  'x, y, z'
loop_
 _atom_site_type_symbol
 _atom_site_label
 _atom_site_symmetry_multiplicity
 _atom_site_fract_x
 _atom_site_fract_y
 _atom_site_fract_z
 _atom_site_occupancy
  Ca  Ca0  1  0.00000000  -0.00079132  0.01687552  1
  Ca  Ca1  1  -0.00000000  0.49719508  0.23037572  1
  Ca  Ca2  1  0.50000000  0.49920868  0.98312448  1
  Ca  Ca3  1  0.50000000  0.99719508  0.76962428  1
  Pb  Pb0  1  0.00000000  0.99698689  0.51955555  1
  Pb  Pb1  1  -0.00000000  0.49613027  0.73378861  1
  Pb  Pb2  1  0.50000000  0.49698689  0.48044445  1
  Pb  Pb3  1  0.50000000  0.99613027  0.26621139  1
  I  I0  1  -0.00000000  0.12211017  0.35025668  1
  I  I1  1  -0.00000000  0.38124382  0.06468204  1
  I  I2  1  0.00000000  0.11570005  0.85112523  1
  I  I3  1  -0.00000000  0.37100815  0.56428801  1
  I  I4  1  -0.00000000  0.61994952  0.39180863  1
  I  I5  1  0.00000000  0.87379436  0.17706431  1
  I  I6  1  -0.00000000  0.87687198  0.69056858  1
  I  I7  1  -0.00000000  0.61861602  0.90273245  1
  I  I8  1  0.50000000  0.11861602  0.09726755  1
  I  I9  1  0.50000000  0.37687198  0.30943142  1
  I  I10  1  0.50000000  0.11994952  0.60819137  1
  I  I11  1  0.50000000  0.88124382  0.93531796  1
  I  I12  1  0.50000000  0.61570005  0.14887477  1
  I  I13  1  0.50000000  0.87100815  0.43571199  1
  I  I14  1  0.50000000  0.62211017  0.64974332  1
  I  I15  1  0.50000000  0.37379436  0.82293569  1
loop_
_geom_bond_atom_site_label_1
_geom_bond_atom_site_label_2
_geom_bond_distance
_geom_bond_site_symmetry_2
Ca0 I2 3.147718 1_554
Ca0 I5 3.150866 1_545
Ca0 I11 3.162921 1_444
Ca0 I11 3.162921 1_544
Ca0 I8 3.167346 1_455
Ca0 I8 3.167346 1_555
Ca1 I1 3.142565 1_555
Ca1 I4 3.143736 1_555
Ca1 I9 3.166523 1_455
Ca1 I9 3.166523 1_555
Ca1 I12 3.167004 1_555
Ca1 I12 3.167004 1_455
Ca2 I12 3.147718 1_556
Ca2 I15 3.150866 1_555
Ca2 I1 3.162921 1_556
Ca2 I1 3.162921 1_656
Ca2 I7 3.167346 1_555
Ca2 I7 3.167346 1_655
Ca3 I11 3.142565 1_555
Ca3 I10 3.143736 1_565
Ca3 I6 3.166523 1_655
Ca3 I6 3.166523 1_555
Ca3 I2 3.167004 1_565
Ca3 I2 3.167004 1_665
I0 Pb3 3.246385 1_445
I0 Pb3 3.246385 1_545
I0 Pb0 3.266098 1_545
I3 Pb2 3.245062 1_555
I3 Pb2 3.245062 1_455
I3 Pb1 3.268720 1_555
I4 Pb2 3.251594 1_455
I4 Pb2 3.251594 1_555
I5 Pb3 3.249898 1_455
I5 Pb3 3.249898 1_555
I6 Pb0 3.247047 1_555
I7 Pb1 3.239309 1_555
I8 Pb3 3.239309 1_545
I9 Pb2 3.247047 1_555
I10 Pb0 3.251594 1_645
I10 Pb0 3.251594 1_545
I13 Pb0 3.245062 1_555
I13 Pb0 3.245062 1_655
I13 Pb3 3.268720 1_555
I14 Pb1 3.246385 1_555
I14 Pb1 3.246385 1_655
I14 Pb2 3.266098 1_555
I15 Pb1 3.249898 1_555
I15 Pb1 3.249898 1_655
