# generated using pymatgen
data_BaNaFe4P6H3O25
_symmetry_space_group_name_H-M   'P 1'
_cell_length_a   9.42900652
_cell_length_b   22.91314004
_cell_length_c   9.14172682
_cell_angle_alpha   90.00000000
_cell_angle_beta   91.89775149
_cell_angle_gamma   90.00000000
_symmetry_Int_Tables_number   1
_chemical_formula_structural   BaNaFe4P6H3O25
_chemical_formula_sum   'Ba4 Na4 Fe16 P24 H12 O100'
_cell_volume   1973.96985329
_cell_formula_units_Z   4
loop_
 _symmetry_equiv_pos_site_id
 _symmetry_equiv_pos_as_xyz
  1  'x, y, z'
loop_
 _atom_site_type_symbol
 _atom_site_label
 _atom_site_symmetry_multiplicity
 _atom_site_fract_x
 _atom_site_fract_y
 _atom_site_fract_z
 _atom_site_occupancy
  Ba  Ba0  1  0.34214531  0.08249041  0.96341300  1
  Ba  Ba1  1  0.65785469  0.58249041  0.53658700  1
  Ba  Ba2  1  0.65785469  0.91750959  0.03658700  1
  Ba  Ba3  1  0.34214531  0.41750959  0.46341300  1
  Na  Na0  1  0.28554429  0.51136162  0.88131407  1
  Na  Na1  1  0.71445571  0.01136162  0.61868593  1
  Na  Na2  1  0.71445571  0.48863838  0.11868593  1
  Na  Na3  1  0.28554429  0.98863838  0.38131407  1
  Fe  Fe0  1  0.08276908  0.21088988  0.71811153  1
  Fe  Fe1  1  0.91723092  0.71088988  0.78188847  1
  Fe  Fe2  1  0.91723092  0.78911012  0.28188847  1
  Fe  Fe3  1  0.08276908  0.28911012  0.21811153  1
  Fe  Fe4  1  0.83434102  0.12433736  0.45983639  1
  Fe  Fe5  1  0.16565898  0.62433736  0.04016361  1
  Fe  Fe6  1  0.16565898  0.87566264  0.54016361  1
  Fe  Fe7  1  0.83434102  0.37566264  0.95983639  1
  Fe  Fe8  1  0.33657971  0.37592616  0.96698110  1
  Fe  Fe9  1  0.66342029  0.87592616  0.53301890  1
  Fe  Fe10  1  0.66342029  0.62407384  0.03301890  1
  Fe  Fe11  1  0.33657971  0.12407384  0.46698110  1
  Fe  Fe12  1  0.58200163  0.20847471  0.20633817  1
  Fe  Fe13  1  0.41799837  0.70847471  0.29366183  1
  Fe  Fe14  1  0.41799837  0.79152529  0.79366183  1
  Fe  Fe15  1  0.58200163  0.29152529  0.70633817  1
  P  P0  1  0.83212106  0.25187996  0.96114063  1
  P  P1  1  0.16787894  0.75187996  0.53885937  1
  P  P2  1  0.16787894  0.74812004  0.03885937  1
  P  P3  1  0.83212106  0.24812004  0.46114063  1
  P  P4  1  0.33257533  0.25445395  0.96280594  1
  P  P5  1  0.66742467  0.75445395  0.53719406  1
  P  P6  1  0.66742467  0.74554605  0.03719406  1
  P  P7  1  0.33257533  0.24554605  0.46280594  1
  P  P8  1  0.08836741  0.35874128  0.71013890  1
  P  P9  1  0.91163259  0.85874128  0.78986110  1
  P  P10  1  0.91163259  0.64125872  0.28986110  1
  P  P11  1  0.08836741  0.14125872  0.21013890  1
  P  P12  1  0.08448494  0.06902589  0.65102173  1
  P  P13  1  0.91551506  0.56902589  0.84897827  1
  P  P14  1  0.91551506  0.93097411  0.34897827  1
  P  P15  1  0.08448494  0.43097411  0.15102173  1
  P  P16  1  0.58330784  0.14330053  0.71303859  1
  P  P17  1  0.41669216  0.64330053  0.78696141  1
  P  P18  1  0.41669216  0.85669947  0.28696141  1
  P  P19  1  0.58330784  0.35669947  0.21303859  1
  P  P20  1  0.57617319  0.43465296  0.77065107  1
  P  P21  1  0.42382681  0.93465296  0.72934893  1
  P  P22  1  0.42382681  0.56534704  0.22934893  1
  P  P23  1  0.57617319  0.06534704  0.27065107  1
  H  H0  1  0.16885137  0.98300678  0.72287214  1
  H  H1  1  0.83114863  0.48300678  0.77712786  1
  H  H2  1  0.83114863  0.01699322  0.27712786  1
  H  H3  1  0.16885137  0.51699322  0.22287214  1
  H  H4  1  0.66907722  0.14665295  0.93789718  1
  H  H5  1  0.33092278  0.64665295  0.56210282  1
  H  H6  1  0.33092278  0.85334705  0.06210282  1
  H  H7  1  0.66907722  0.35334705  0.43789718  1
  H  H8  1  0.99925842  0.13227128  0.98476135  1
  H  H9  1  0.00074158  0.63227128  0.51523865  1
  H  H10  1  0.00074158  0.86772872  0.01523865  1
  H  H11  1  0.99925842  0.36772872  0.48476135  1
  O  O0  1  0.91689762  0.20255385  0.56134708  1
  O  O1  1  0.08310238  0.70255385  0.93865292  1
  O  O2  1  0.08310238  0.79744615  0.43865292  1
  O  O3  1  0.91689762  0.29744615  0.06134708  1
  O  O4  1  0.25128668  0.21466393  0.85483587  1
  O  O5  1  0.74871332  0.71466393  0.64516413  1
  O  O6  1  0.74871332  0.78533607  0.14516413  1
  O  O7  1  0.25128668  0.28533607  0.35483587  1
  O  O8  1  0.23066778  0.20044864  0.53794496  1
  O  O9  1  0.76933222  0.70044864  0.96205504  1
  O  O10  1  0.76933222  0.79955136  0.46205504  1
  O  O11  1  0.23066778  0.29955136  0.03794496  1
  O  O12  1  0.93260002  0.21379723  0.87323996  1
  O  O13  1  0.06739998  0.71379723  0.62676004  1
  O  O14  1  0.06739998  0.78620277  0.12676004  1
  O  O15  1  0.93260002  0.28620277  0.37323996  1
  O  O16  1  0.08302646  0.29334517  0.68049546  1
  O  O17  1  0.91697354  0.79334517  0.81950454  1
  O  O18  1  0.91697354  0.70665483  0.31950454  1
  O  O19  1  0.08302646  0.20665483  0.18049546  1
  O  O20  1  0.09660618  0.12502300  0.74382353  1
  O  O21  1  0.90339382  0.62502300  0.75617647  1
  O  O22  1  0.90339382  0.87497700  0.25617647  1
  O  O23  1  0.09660618  0.37497700  0.24382353  1
  O  O24  1  0.68877742  0.11718744  0.60854203  1
  O  O25  1  0.31122258  0.61718744  0.89145797  1
  O  O26  1  0.31122258  0.88281256  0.39145797  1
  O  O27  1  0.68877742  0.38281256  0.10854203  1
  O  O28  1  0.97594328  0.12144263  0.31371299  1
  O  O29  1  0.02405672  0.62144263  0.18628701  1
  O  O30  1  0.02405672  0.87855737  0.68628701  1
  O  O31  1  0.97594328  0.37855737  0.81371299  1
  O  O32  1  0.93612752  0.06308704  0.57852279  1
  O  O33  1  0.06387248  0.56308704  0.92147721  1
  O  O34  1  0.06387248  0.93691296  0.42147721  1
  O  O35  1  0.93612752  0.43691296  0.07852279  1
  O  O36  1  0.74477649  0.20149723  0.36570456  1
  O  O37  1  0.25522351  0.70149723  0.13429544  1
  O  O38  1  0.25522351  0.79850277  0.63429544  1
  O  O39  1  0.74477649  0.29850277  0.86570456  1
  O  O40  1  0.72834041  0.43869492  0.84452729  1
  O  O41  1  0.27165959  0.93869492  0.65547271  1
  O  O42  1  0.27165959  0.56130508  0.15547271  1
  O  O43  1  0.72834041  0.06130508  0.34452729  1
  O  O44  1  0.73318571  0.21046590  0.04396941  1
  O  O45  1  0.26681429  0.71046590  0.45603059  1
  O  O46  1  0.26681429  0.78953410  0.95603059  1
  O  O47  1  0.73318571  0.28953410  0.54396941  1
  O  O48  1  0.43648386  0.20063087  0.38927632  1
  O  O49  1  0.56351614  0.70063087  0.11072368  1
  O  O50  1  0.56351614  0.79936913  0.61072368  1
  O  O51  1  0.43648386  0.29936913  0.88927632  1
  O  O52  1  0.41379954  0.21343408  0.06861286  1
  O  O53  1  0.58620046  0.71343408  0.43138714  1
  O  O54  1  0.58620046  0.78656592  0.93138714  1
  O  O55  1  0.41379954  0.28656592  0.56861286  1
  O  O56  1  0.23682031  0.11896910  0.25785014  1
  O  O57  1  0.76317969  0.61896910  0.24214986  1
  O  O58  1  0.76317969  0.88103090  0.74214986  1
  O  O59  1  0.23682031  0.38103090  0.75785014  1
  O  O60  1  0.43237414  0.12210645  0.67427114  1
  O  O61  1  0.56762586  0.62210645  0.82572886  1
  O  O62  1  0.56762586  0.87789355  0.32572886  1
  O  O63  1  0.43237414  0.37789355  0.17427114  1
  O  O64  1  0.46775856  0.43520671  0.89642512  1
  O  O65  1  0.53224144  0.93520671  0.60357488  1
  O  O66  1  0.53224144  0.56479329  0.10357488  1
  O  O67  1  0.46775856  0.06479329  0.39642512  1
  O  O68  1  0.20063268  0.06634922  0.53537286  1
  O  O69  1  0.79936732  0.56634922  0.96462714  1
  O  O70  1  0.79936732  0.93365078  0.46462714  1
  O  O71  1  0.20063268  0.43365078  0.03537286  1
  O  O72  1  0.06085838  0.10991339  0.05384402  1
  O  O73  1  0.93914162  0.60991339  0.44615598  1
  O  O74  1  0.93914162  0.89008661  0.94615598  1
  O  O75  1  0.06085838  0.39008661  0.55384402  1
  O  O76  1  0.11271749  0.01751322  0.76363221  1
  O  O77  1  0.88728251  0.51751322  0.73636779  1
  O  O78  1  0.88728251  0.98248678  0.23636779  1
  O  O79  1  0.11271749  0.48248678  0.26363221  1
  O  O80  1  0.56371147  0.12403832  0.18589089  1
  O  O81  1  0.43628853  0.62403832  0.31410911  1
  O  O82  1  0.43628853  0.87596168  0.81410911  1
  O  O83  1  0.56371147  0.37596168  0.68589089  1
  O  O84  1  0.59620042  0.20909802  0.72991824  1
  O  O85  1  0.40379958  0.70909802  0.77008176  1
  O  O86  1  0.40379958  0.79090198  0.27008176  1
  O  O87  1  0.59620042  0.29090198  0.22991824  1
  O  O88  1  0.61794029  0.11734077  0.87419569  1
  O  O89  1  0.38205971  0.61734077  0.62580431  1
  O  O90  1  0.38205971  0.88265923  0.12580431  1
  O  O91  1  0.61794029  0.38265923  0.37419569  1
  O  O92  1  0.45428738  0.98495816  0.83466051  1
  O  O93  1  0.54571262  0.48495816  0.66533949  1
  O  O94  1  0.54571262  0.01504184  0.16533949  1
  O  O95  1  0.45428738  0.51504184  0.33466051  1
  O  O96  1  0.21043916  0.99068349  0.11946136  1
  O  O97  1  0.78956084  0.49068349  0.38053864  1
  O  O98  1  0.78956084  0.00931651  0.88053864  1
  O  O99  1  0.21043916  0.50931651  0.61946136  1
loop_
_geom_bond_atom_site_label_1
_geom_bond_atom_site_label_2
_geom_bond_distance
_geom_bond_site_symmetry_2
Ba0 O92 2.753193 1_545
Ba0 O96 2.849503 1_546
Ba0 O88 2.864575 1_555
Ba0 O72 2.873661 1_556
Ba0 O60 2.946781 1_555
Ba0 O56 3.017780 1_556
Ba0 O80 3.020909 1_556
Ba0 O94 3.040652 1_556
Ba0 O76 3.157567 1_555
Ba0 O20 3.167303 1_555
Ba0 O52 3.215635 1_556
Ba0 O4 3.291614 1_555
Ba1 O93 2.753193 1_555
Ba1 O97 2.849503 1_555
Ba1 O89 2.864575 1_555
Ba1 O73 2.873661 1_555
Ba1 O61 2.946781 1_555
Ba1 O57 3.017780 1_555
Ba1 O81 3.020909 1_555
Ba1 O95 3.040652 1_555
Ba1 O77 3.157567 1_555
Ba1 O21 3.167303 1_555
Ba1 O53 3.215635 1_555
Ba1 O5 3.291614 1_555
Ba2 O94 2.753193 1_565
Ba2 O98 2.849503 1_564
Ba2 O90 2.864575 1_555
Ba2 O74 2.873661 1_554
Ba2 O62 2.946781 1_555
Ba2 O58 3.017780 1_554
Ba2 O82 3.020909 1_554
Ba2 O92 3.040652 1_554
Ba2 O78 3.157567 1_555
Ba2 O22 3.167303 1_555
Ba2 O54 3.215635 1_554
Ba2 O6 3.291614 1_555
Ba3 O95 2.753193 1_555
Ba3 O99 2.849503 1_555
Ba3 O91 2.864575 1_555
Ba3 O75 2.873661 1_555
Ba3 O63 2.946781 1_555
Ba3 O59 3.017780 1_555
Ba3 O83 3.020909 1_555
Ba3 O93 3.040652 1_555
Ba3 O79 3.157567 1_555
Ba3 O23 3.167303 1_555
Ba3 O55 3.215635 1_555
Ba3 O7 3.291614 1_555
Na0 O71 2.422749 1_556
Na0 O25 2.438319 1_555
Na0 O33 2.441110 1_555
Na0 O64 2.449505 1_555
Na0 O99 2.474193 1_555
Na0 O42 2.762226 1_556
Na1 O70 2.422749 1_545
Na1 O24 2.438319 1_555
Na1 O32 2.441110 1_555
Na1 O65 2.449505 1_545
Na1 O98 2.474193 1_555
Na1 O43 2.762226 1_555
Na2 O69 2.422749 1_554
Na2 O27 2.438319 1_555
Na2 O35 2.441110 1_555
Na2 O66 2.449505 1_555
Na2 O97 2.474193 1_555
Na2 O40 2.762226 1_554
Na3 O68 2.422749 1_565
Na3 O26 2.438319 1_555
Na3 O34 2.441110 1_555
Na3 O67 2.449505 1_565
Na3 O96 2.474193 1_555
Na3 O41 2.762226 1_555
Fe0 O16 1.920365 1_555
Fe0 O20 1.985250 1_555
Fe0 O4 1.990717 1_555
Fe0 O12 2.038004 1_455
Fe0 O0 2.094733 1_455
Fe0 O8 2.206086 1_555
Fe1 O17 1.920365 1_555
Fe1 O21 1.985250 1_555
Fe1 O5 1.990717 1_555
Fe1 O13 2.038004 1_655
Fe1 O1 2.094733 1_655
Fe1 O9 2.206086 1_555
Fe2 O18 1.920365 1_555
Fe2 O22 1.985250 1_555
Fe2 O6 1.990717 1_555
Fe2 O14 2.038004 1_655
Fe2 O2 2.094733 1_655
Fe2 O10 2.206086 1_555
Fe3 O19 1.920365 1_555
Fe3 O23 1.985250 1_555
Fe3 O7 1.990717 1_555
Fe3 O15 2.038004 1_455
Fe3 O3 2.094733 1_455
Fe3 O11 2.206086 1_555
Fe4 O28 1.920838 1_555
Fe4 O24 1.970347 1_555
Fe4 O32 1.999750 1_555
Fe4 O43 2.031322 1_555
Fe4 O36 2.128685 1_555
Fe4 O0 2.152019 1_555
Fe5 O29 1.920838 1_555
Fe5 O25 1.970347 1_554
Fe5 O33 1.999750 1_554
Fe5 O42 2.031322 1_555
Fe5 O37 2.128685 1_555
Fe5 O1 2.152019 1_554
Fe6 O30 1.920838 1_555
Fe6 O26 1.970347 1_555
Fe6 O34 1.999750 1_555
Fe6 O41 2.031322 1_555
Fe6 O38 2.128685 1_555
Fe6 O2 2.152019 1_555
Fe7 O31 1.920838 1_555
Fe7 O27 1.970347 1_556
Fe7 O35 1.999750 1_556
Fe7 O40 2.031322 1_555
Fe7 O39 2.128685 1_555
Fe7 O3 2.152019 1_556
Fe8 O71 1.958703 1_556
Fe8 O64 1.960547 1_555
Fe8 O63 2.072560 1_556
Fe8 O59 2.105804 1_555
Fe8 O51 2.124469 1_555
Fe8 O11 2.126853 1_556
Fe9 O70 1.958703 1_555
Fe9 O65 1.960547 1_555
Fe9 O62 2.072560 1_555
Fe9 O58 2.105804 1_555
Fe9 O50 2.124469 1_555
Fe9 O10 2.126853 1_555
Fe10 O69 1.958703 1_554
Fe10 O66 1.960547 1_555
Fe10 O61 2.072560 1_554
Fe10 O57 2.105804 1_555
Fe10 O49 2.124469 1_555
Fe10 O9 2.126853 1_554
Fe11 O68 1.958703 1_555
Fe11 O67 1.960547 1_555
Fe11 O60 2.072560 1_555
Fe11 O56 2.105804 1_555
Fe11 O48 2.124469 1_555
Fe11 O8 2.126853 1_555
Fe12 O87 1.905136 1_555
Fe12 O80 1.950800 1_555
Fe12 O52 1.995291 1_555
Fe12 O36 2.087008 1_555
Fe12 O44 2.092261 1_555
Fe12 O48 2.205386 1_555
Fe13 O86 1.905136 1_555
Fe13 O81 1.950800 1_555
Fe13 O53 1.995291 1_555
Fe13 O37 2.087008 1_555
Fe13 O45 2.092261 1_555
Fe13 O49 2.205386 1_555
Fe14 O85 1.905136 1_555
Fe14 O82 1.950800 1_555
Fe14 O54 1.995291 1_555
Fe14 O38 2.087008 1_555
Fe14 O46 2.092261 1_555
Fe14 O50 2.205386 1_555
Fe15 O84 1.905136 1_555
Fe15 O83 1.950800 1_555
Fe15 O55 1.995291 1_555
Fe15 O39 2.087008 1_555
Fe15 O47 2.092261 1_555
Fe15 O51 2.205386 1_555
H0 O76 1.028192 1_565
H0 O41 1.545890 1_555
H1 O77 1.028192 1_555
H1 O40 1.545890 1_555
H2 O78 1.028192 1_545
H2 O43 1.545890 1_555
H3 O79 1.028192 1_555
H3 O42 1.545890 1_555
H4 O88 1.002051 1_555
H5 O89 1.002051 1_555
H6 O90 1.002051 1_555
H7 O91 1.002051 1_555
H8 O72 0.987087 1_656
H9 O73 0.987087 1_455
H10 O74 0.987087 1_454
H11 O75 0.987087 1_655
O0 P3 1.587360 1_555
O1 P2 1.587360 1_556
O2 P1 1.587360 1_555
O3 P0 1.587360 1_554
O4 P4 1.530630 1_555
O5 P5 1.530630 1_555
O6 P6 1.530630 1_555
O7 P7 1.530630 1_555
O8 P7 1.583227 1_555
O9 P6 1.583227 1_556
O10 P5 1.583227 1_555
O11 P4 1.583227 1_554
O12 P0 1.534653 1_555
O13 P1 1.534653 1_555
O14 P2 1.534653 1_555
O15 P3 1.534653 1_555
O16 P8 1.523274 1_555
O17 P9 1.523274 1_555
O18 P10 1.523274 1_555
O19 P11 1.523274 1_555
O20 P12 1.540337 1_555
O21 P13 1.540337 1_555
O22 P14 1.540337 1_555
O23 P15 1.540337 1_555
O24 P16 1.523961 1_555
O25 P17 1.523961 1_555
O26 P18 1.523961 1_555
O27 P19 1.523961 1_555
O28 P11 1.514218 1_655
O29 P10 1.514218 1_455
O30 P9 1.514218 1_455
O31 P8 1.514218 1_655
O32 P12 1.534011 1_655
O33 P13 1.534011 1_455
O34 P14 1.534011 1_455
O35 P15 1.534011 1_655
O36 P3 1.591560 1_555
O37 P2 1.591560 1_555
O38 P1 1.591560 1_555
O39 P0 1.591560 1_555
O40 P20 1.568157 1_555
O41 P21 1.568157 1_555
O42 P22 1.568157 1_555
O43 P23 1.568157 1_555
O44 P0 1.546229 1_554
O45 P1 1.546229 1_555
O46 P2 1.546229 1_556
O47 P3 1.546229 1_555
O48 P7 1.585723 1_555
O49 P6 1.585723 1_555
O50 P5 1.585723 1_555
O51 P4 1.585723 1_555
O52 P4 1.535080 1_554
O53 P5 1.535080 1_555
O54 P6 1.535080 1_556
O55 P7 1.535080 1_555
O56 P11 1.539474 1_555
O57 P10 1.539474 1_555
O58 P9 1.539474 1_555
O59 P8 1.539474 1_555
O60 P16 1.534078 1_555
O61 P17 1.534078 1_555
O62 P18 1.534078 1_555
O63 P19 1.534078 1_555
O64 P20 1.563652 1_555
O65 P21 1.563652 1_555
O66 P22 1.563652 1_555
O67 P23 1.563652 1_555
O68 P12 1.548404 1_555
O69 P13 1.548404 1_555
O70 P14 1.548404 1_555
O71 P15 1.548404 1_555
O72 P11 1.612469 1_555
O73 P10 1.612469 1_555
O74 P9 1.612469 1_555
O75 P8 1.612469 1_555
O76 P12 1.582921 1_555
O77 P13 1.582921 1_555
O78 P14 1.582921 1_555
O79 P15 1.582921 1_555
O80 P23 1.554563 1_555
O81 P22 1.554563 1_555
O82 P21 1.554563 1_555
O83 P20 1.554563 1_555
O84 P16 1.519963 1_555
O85 P17 1.519963 1_555
O86 P18 1.519963 1_555
O87 P19 1.519963 1_555
O88 P16 1.612160 1_555
O89 P17 1.612160 1_555
O90 P18 1.612160 1_555
O91 P19 1.612160 1_555
O92 P21 1.523033 1_555
O93 P20 1.523033 1_555
O94 P23 1.523033 1_555
O95 P22 1.523033 1_555
