# generated using pymatgen
data_La2HfO5
_symmetry_space_group_name_H-M   'P 1'
_cell_length_a   6.37043508
_cell_length_b   6.37043508
_cell_length_c   11.19527000
_cell_angle_alpha   90.00000000
_cell_angle_beta   90.00000000
_cell_angle_gamma   141.23577351
_symmetry_Int_Tables_number   1
_chemical_formula_structural   La2HfO5
_chemical_formula_sum   'La4 Hf2 O10'
_cell_volume   284.46466263
_cell_formula_units_Z   2
loop_
 _symmetry_equiv_pos_site_id
 _symmetry_equiv_pos_as_xyz
  1  'x, y, z'
loop_
 _atom_site_type_symbol
 _atom_site_label
 _atom_site_symmetry_multiplicity
 _atom_site_fract_x
 _atom_site_fract_y
 _atom_site_fract_z
 _atom_site_occupancy
  La  La0  1  0.86159000  0.13841000  0.57146500  1
  La  La1  1  0.86159000  0.13841000  0.92853500  1
  La  La2  1  0.13841000  0.86159000  0.07146500  1
  La  La3  1  0.13841000  0.86159000  0.42853500  1
  Hf  Hf0  1  0.82958000  0.17042000  0.25000000  1
  Hf  Hf1  1  0.17042000  0.82958000  0.75000000  1
  O  O0  1  0.94909200  0.05090800  0.12044200  1
  O  O1  1  0.71719000  0.28281000  0.40280200  1
  O  O2  1  0.94909200  0.05090800  0.37955800  1
  O  O3  1  0.71719000  0.28281000  0.09719800  1
  O  O4  1  0.71699100  0.28300900  0.75000000  1
  O  O5  1  0.28300900  0.71699100  0.25000000  1
  O  O6  1  0.05090800  0.94909200  0.62044200  1
  O  O7  1  0.05090800  0.94909200  0.87955800  1
  O  O8  1  0.28281000  0.71719000  0.59719800  1
  O  O9  1  0.28281000  0.71719000  0.90280200  1
loop_
_geom_bond_atom_site_label_1
_geom_bond_atom_site_label_2
_geom_bond_distance
_geom_bond_site_symmetry_2
La0 O8 2.334324 1_655
La0 O8 2.334324 1_545
La0 O6 2.340507 1_645
La0 O2 2.392038 1_555
La0 O1 2.564647 1_555
La0 O4 2.648643 1_555
La1 O9 2.334324 1_655
La1 O9 2.334324 1_545
La1 O7 2.340507 1_645
La1 O0 2.392038 1_556
La1 O3 2.564647 1_556
La1 O4 2.648643 1_555
La2 O3 2.334324 1_455
La2 O3 2.334324 1_565
La2 O0 2.340507 1_465
La2 O7 2.392038 1_554
La2 O9 2.564647 1_554
La2 O5 2.648643 1_555
La3 O1 2.334324 1_455
La3 O1 2.334324 1_565
La3 O2 2.340507 1_465
La3 O6 2.392038 1_555
La3 O8 2.564647 1_555
La3 O5 2.648643 1_555
Hf0 O0 2.041319 1_555
Hf0 O2 2.041319 1_555
Hf0 O3 2.179678 1_555
Hf0 O1 2.179678 1_555
Hf0 O5 2.186975 1_545
Hf0 O5 2.186975 1_655
Hf1 O6 2.041319 1_555
Hf1 O7 2.041319 1_555
Hf1 O9 2.179678 1_555
Hf1 O8 2.179678 1_555
Hf1 O4 2.186975 1_565
Hf1 O4 2.186975 1_455
