# generated using pymatgen
data_Na3YH6(CO4)3
_symmetry_space_group_name_H-M   'P 1'
_cell_length_a   5.89325566
_cell_length_b   9.92876583
_cell_length_c   17.08112170
_cell_angle_alpha   90.00000000
_cell_angle_beta   90.00000000
_cell_angle_gamma   90.00000000
_symmetry_Int_Tables_number   1
_chemical_formula_structural   Na3YH6(CO4)3
_chemical_formula_sum   'Na12 Y4 H24 C12 O48'
_cell_volume   999.46349641
_cell_formula_units_Z   4
loop_
 _symmetry_equiv_pos_site_id
 _symmetry_equiv_pos_as_xyz
  1  'x, y, z'
loop_
 _atom_site_type_symbol
 _atom_site_label
 _atom_site_symmetry_multiplicity
 _atom_site_fract_x
 _atom_site_fract_y
 _atom_site_fract_z
 _atom_site_occupancy
  Na  Na0  1  0.91212017  0.12487307  0.95271818  1
  Na  Na1  1  0.41212017  0.87512693  0.04728182  1
  Na  Na2  1  0.41212017  0.62487307  0.54728182  1
  Na  Na3  1  0.91212017  0.37512693  0.45271818  1
  Na  Na4  1  0.40417904  0.36039388  0.86262693  1
  Na  Na5  1  0.90417904  0.63960612  0.13737307  1
  Na  Na6  1  0.90417904  0.86039388  0.63737307  1
  Na  Na7  1  0.40417904  0.13960612  0.36262693  1
  Na  Na8  1  0.40925631  0.01817526  0.58210719  1
  Na  Na9  1  0.90925631  0.98182474  0.41789281  1
  Na  Na10  1  0.90925631  0.51817526  0.91789281  1
  Na  Na11  1  0.40925631  0.48182474  0.08210719  1
  Y  Y0  1  0.68459867  0.32204450  0.66162763  1
  Y  Y1  1  0.18459867  0.67795550  0.33837237  1
  Y  Y2  1  0.18459867  0.82204450  0.83837237  1
  Y  Y3  1  0.68459867  0.17795550  0.16162763  1
  H  H0  1  0.44564821  0.30050514  0.51027554  1
  H  H1  1  0.94564821  0.69949486  0.48972446  1
  H  H2  1  0.94564821  0.80050514  0.98972446  1
  H  H3  1  0.44564821  0.19949486  0.01027554  1
  H  H4  1  0.23827794  0.26967707  0.56778048  1
  H  H5  1  0.73827794  0.73032293  0.43221952  1
  H  H6  1  0.73827794  0.76967707  0.93221952  1
  H  H7  1  0.23827794  0.23032293  0.06778048  1
  H  H8  1  0.23518575  0.21178744  0.73353154  1
  H  H9  1  0.73518575  0.78821256  0.26646846  1
  H  H10  1  0.73518575  0.71178744  0.76646846  1
  H  H11  1  0.23518575  0.28821256  0.23353154  1
  H  H12  1  0.43417066  0.11671257  0.76170227  1
  H  H13  1  0.93417066  0.88328743  0.23829773  1
  H  H14  1  0.93417066  0.61671257  0.73829773  1
  H  H15  1  0.43417066  0.38328743  0.26170227  1
  H  H16  1  0.23688700  0.48511354  0.68086622  1
  H  H17  1  0.73688700  0.51488646  0.31913378  1
  H  H18  1  0.73688700  0.98511354  0.81913378  1
  H  H19  1  0.23688700  0.01488646  0.18086622  1
  H  H20  1  0.43521486  0.57062605  0.71869474  1
  H  H21  1  0.93521486  0.42937395  0.28130526  1
  H  H22  1  0.93521486  0.07062605  0.78130526  1
  H  H23  1  0.43521486  0.92937395  0.21869474  1
  C  C0  1  0.41132943  0.05430980  0.90077806  1
  C  C1  1  0.91132943  0.94569020  0.09922194  1
  C  C2  1  0.91132943  0.55430980  0.59922194  1
  C  C3  1  0.41132943  0.44569020  0.40077806  1
  C  C4  1  0.91212329  0.30850720  0.80780295  1
  C  C5  1  0.41212329  0.69149280  0.19219705  1
  C  C6  1  0.41212329  0.80850720  0.69219705  1
  C  C7  1  0.91212329  0.19149280  0.30780295  1
  C  C8  1  0.91615713  0.11720345  0.57944005  1
  C  C9  1  0.41615713  0.88279655  0.42055995  1
  C  C10  1  0.41615713  0.61720345  0.92055995  1
  C  C11  1  0.91615713  0.38279655  0.07944005  1
  O  O0  1  0.96274187  0.23197348  0.74696328  1
  O  O1  1  0.46274187  0.76802652  0.25303672  1
  O  O2  1  0.46274187  0.73197348  0.75303672  1
  O  O3  1  0.96274187  0.26802652  0.24696328  1
  O  O4  1  0.03218904  0.02609863  0.54613160  1
  O  O5  1  0.53218904  0.97390137  0.45386840  1
  O  O6  1  0.53218904  0.52609863  0.95386840  1
  O  O7  1  0.03218904  0.47390137  0.04613160  1
  O  O8  1  0.95638014  0.24603772  0.56833504  1
  O  O9  1  0.45638014  0.75396228  0.43166496  1
  O  O10  1  0.45638014  0.74603772  0.93166496  1
  O  O11  1  0.95638014  0.25396228  0.06833504  1
  O  O12  1  0.75285893  0.08948558  0.62760643  1
  O  O13  1  0.25285893  0.91051442  0.37239357  1
  O  O14  1  0.25285893  0.58948558  0.87239357  1
  O  O15  1  0.75285893  0.41051442  0.12760643  1
  O  O16  1  0.96071579  0.49612242  0.66610537  1
  O  O17  1  0.46071579  0.50387758  0.33389463  1
  O  O18  1  0.46071579  0.99612242  0.83389463  1
  O  O19  1  0.96071579  0.00387758  0.16610537  1
  O  O20  1  0.74368196  0.38952124  0.79809632  1
  O  O21  1  0.24368196  0.61047876  0.20190368  1
  O  O22  1  0.24368196  0.88952124  0.70190368  1
  O  O23  1  0.74368196  0.11047876  0.29809632  1
  O  O24  1  0.02444551  0.30068597  0.87096998  1
  O  O25  1  0.52444551  0.69931403  0.12903002  1
  O  O26  1  0.52444551  0.80068597  0.62903002  1
  O  O27  1  0.02444551  0.19931403  0.37096998  1
  O  O28  1  0.52236932  0.15760042  0.92332030  1
  O  O29  1  0.02236932  0.84239958  0.07667970  1
  O  O30  1  0.02236932  0.65760042  0.57667970  1
  O  O31  1  0.52236932  0.34239958  0.42332030  1
  O  O32  1  0.24804276  0.00128296  0.94028669  1
  O  O33  1  0.74804276  0.99871704  0.05971331  1
  O  O34  1  0.74804276  0.50128296  0.55971331  1
  O  O35  1  0.24804276  0.49871704  0.44028669  1
  O  O36  1  0.40667316  0.27209782  0.56498131  1
  O  O37  1  0.90667316  0.72790218  0.43501869  1
  O  O38  1  0.90667316  0.77209782  0.93501869  1
  O  O39  1  0.40667316  0.22790218  0.06498131  1
  O  O40  1  0.40283750  0.19889992  0.73114974  1
  O  O41  1  0.90283750  0.80110008  0.26885026  1
  O  O42  1  0.90283750  0.69889992  0.76885026  1
  O  O43  1  0.40283750  0.30110008  0.23114974  1
  O  O44  1  0.40431555  0.48886970  0.68742607  1
  O  O45  1  0.90431555  0.51113030  0.31257393  1
  O  O46  1  0.90431555  0.98886970  0.81257393  1
  O  O47  1  0.40431555  0.01113030  0.18742607  1
loop_
_geom_bond_atom_site_label_1
_geom_bond_atom_site_label_2
_geom_bond_distance
_geom_bond_site_symmetry_2
Na0 O24 2.331336 1_655
Na0 O32 2.338799 1_655
Na0 O11 2.368729 1_556
Na0 O28 2.373499 1_555
Na0 O33 2.417446 1_546
Na1 O25 2.331336 1_555
Na1 O33 2.338799 1_555
Na1 O10 2.368729 1_554
Na1 O29 2.373499 1_555
Na1 O32 2.417446 1_564
Na2 O26 2.331336 1_555
Na2 O34 2.338799 1_555
Na2 O9 2.368729 1_555
Na2 O30 2.373499 1_555
Na2 O35 2.417446 1_555
Na3 O27 2.331336 1_655
Na3 O35 2.338799 1_655
Na3 O8 2.368729 1_555
Na3 O31 2.373499 1_555
Na3 O34 2.417446 1_555
Na4 O20 2.302545 1_555
Na4 O24 2.319439 1_555
Na4 O28 2.369400 1_555
Na4 O6 2.388490 1_555
Na4 O14 2.448852 1_555
Na5 O21 2.302545 1_655
Na5 O25 2.319439 1_555
Na5 O29 2.369400 1_655
Na5 O7 2.388490 1_655
Na5 O15 2.448852 1_555
Na6 O22 2.302545 1_655
Na6 O26 2.319439 1_555
Na6 O30 2.369400 1_655
Na6 O4 2.388490 1_665
Na6 O12 2.448852 1_565
Na7 O23 2.302545 1_555
Na7 O27 2.319439 1_555
Na7 O31 2.369400 1_555
Na7 O5 2.388490 1_545
Na7 O13 2.448852 1_545
Na8 O12 2.281595 1_555
Na8 O4 2.306896 1_555
Na8 O5 2.348664 1_545
Na8 O26 2.401297 1_545
Na8 O36 2.538098 1_555
Na8 O22 2.602113 1_545
Na9 O13 2.281595 1_655
Na9 O5 2.306896 1_555
Na9 O4 2.348664 1_665
Na9 O27 2.401297 1_665
Na9 O37 2.538098 1_555
Na9 O23 2.602113 1_565
Na10 O14 2.281595 1_655
Na10 O6 2.306896 1_555
Na10 O7 2.348664 1_656
Na10 O24 2.401297 1_655
Na10 O38 2.538098 1_555
Na10 O20 2.602113 1_555
Na11 O15 2.281595 1_555
Na11 O7 2.306896 1_555
Na11 O6 2.348664 1_554
Na11 O25 2.401297 1_555
Na11 O39 2.538098 1_555
Na11 O21 2.602113 1_555
H0 O36 1.002736 1_555
H0 O31 1.607341 1_555
H1 O37 1.002736 1_555
H1 O30 1.607341 1_655
H2 O38 1.002736 1_555
H2 O29 1.607341 1_656
H3 O39 1.002736 1_555
H3 O28 1.607341 1_554
H4 O36 0.993838 1_555
H4 O8 1.677821 1_455
H5 O37 0.993838 1_555
H5 O9 1.677821 1_555
H6 O38 0.993838 1_555
H6 O10 1.677821 1_555
H7 O39 0.993838 1_555
H7 O11 1.677821 1_455
H8 O40 0.997096 1_555
H8 O0 1.634227 1_455
H9 O41 0.997096 1_555
H9 O1 1.634227 1_555
H10 O42 0.997096 1_555
H10 O2 1.634227 1_555
H11 O43 0.997096 1_555
H11 O3 1.634227 1_455
H12 O40 0.986070 1_555
H12 O18 1.725870 1_545
H13 O41 0.986070 1_555
H13 O19 1.725870 1_565
H14 O42 0.986070 1_555
H14 O16 1.725870 1_555
H15 O43 0.986070 1_555
H15 O17 1.725870 1_555
H16 O44 0.993741 1_555
H16 O16 1.650584 1_455
H17 O45 0.993741 1_555
H17 O17 1.650584 1_555
H18 O46 0.993741 1_555
H18 O18 1.650584 1_555
H19 O47 0.993741 1_555
H19 O19 1.650584 1_455
H20 O44 0.988609 1_555
H20 O2 1.713697 1_555
H21 O45 0.988609 1_555
H21 O3 1.713697 1_555
H22 O46 0.988609 1_545
H22 O0 1.713697 1_555
H23 O47 0.988609 1_565
H23 O1 1.713697 1_555
C0 O28 1.276022 1_555
C0 O32 1.287874 1_555
C0 O18 1.312881 1_545
C1 O29 1.276022 1_655
C1 O33 1.287874 1_555
C1 O19 1.312881 1_565
C2 O30 1.276022 1_655
C2 O34 1.287874 1_555
C2 O16 1.312881 1_555
C3 O31 1.276022 1_555
C3 O35 1.287874 1_555
C3 O17 1.312881 1_555
C4 O24 1.268212 1_655
C4 O20 1.288367 1_555
C4 O0 1.321503 1_555
C5 O25 1.268212 1_555
C5 O21 1.288367 1_555
C5 O1 1.321503 1_555
C6 O26 1.268212 1_555
C6 O22 1.288367 1_555
C6 O2 1.321503 1_555
C7 O27 1.268212 1_655
C7 O23 1.288367 1_555
C7 O3 1.321503 1_555
C8 O4 1.268667 1_655
C8 O12 1.295671 1_555
C8 O8 1.314699 1_555
C9 O5 1.268667 1_555
C9 O13 1.295671 1_555
C9 O9 1.314699 1_555
C10 O6 1.268667 1_555
C10 O14 1.295671 1_555
C10 O10 1.314699 1_555
C11 O7 1.268667 1_655
C11 O15 1.295671 1_555
C11 O11 1.314699 1_555
O0 Y0 2.368822 1_555
O1 Y1 2.368822 1_555
O2 Y2 2.368822 1_555
O3 Y3 2.368822 1_555
O8 Y0 2.382068 1_555
O9 Y1 2.382068 1_555
O10 Y2 2.382068 1_555
O11 Y3 2.382068 1_555
O12 Y0 2.414770 1_555
O13 Y1 2.414770 1_555
O14 Y2 2.414770 1_555
O15 Y3 2.414770 1_555
O16 Y0 2.375083 1_555
O17 Y1 2.375083 1_555
O18 Y2 2.375083 1_555
O19 Y3 2.375083 1_555
O20 Y0 2.450270 1_555
O21 Y1 2.450270 1_555
O22 Y2 2.450270 1_555
O23 Y3 2.450270 1_555
O32 Y2 2.517390 1_545
O33 Y3 2.517390 1_565
O34 Y0 2.517390 1_555
O35 Y1 2.517390 1_555
O36 Y0 2.377778 1_555
O37 Y1 2.377778 1_655
O38 Y2 2.377778 1_655
O39 Y3 2.377778 1_555
O40 Y0 2.379570 1_555
O41 Y1 2.379570 1_655
O42 Y2 2.379570 1_655
O43 Y3 2.379570 1_555
O44 Y0 2.380361 1_555
O45 Y1 2.380361 1_655
O46 Y2 2.380361 1_655
O47 Y3 2.380361 1_555
