# generated using pymatgen
data_Li6V3P8O29
_symmetry_space_group_name_H-M   'P 1'
_cell_length_a   9.77665000
_cell_length_b   9.80742148
_cell_length_c   13.95308661
_cell_angle_alpha   90.30411982
_cell_angle_beta   89.85289518
_cell_angle_gamma   119.86977061
_symmetry_Int_Tables_number   1
_chemical_formula_structural   Li6V3P8O29
_chemical_formula_sum   'Li12 V6 P16 O58'
_cell_volume   1160.13393476
_cell_formula_units_Z   2
loop_
 _symmetry_equiv_pos_site_id
 _symmetry_equiv_pos_as_xyz
  1  'x, y, z'
loop_
 _atom_site_type_symbol
 _atom_site_label
 _atom_site_symmetry_multiplicity
 _atom_site_fract_x
 _atom_site_fract_y
 _atom_site_fract_z
 _atom_site_occupancy
  Li  Li0  1  0.23344900  0.91248800  0.05826600  1
  Li  Li1  1  0.66455700  0.90085000  0.56430800  1
  Li  Li2  1  0.33162900  0.66290800  0.88402900  1
  Li  Li3  1  0.67542800  0.77052500  0.05842200  1
  Li  Li4  1  0.09095500  0.32828300  0.05967600  1
  Li  Li5  1  0.76522000  0.66202700  0.44299800  1
  Li  Li6  1  0.23851500  0.33401600  0.56553800  1
  Li  Li7  1  0.90018500  0.66493900  0.93615900  1
  Li  Li8  1  0.33403600  0.09516300  0.44252500  1
  Li  Li9  1  0.90085400  0.23265900  0.44378800  1
  Li  Li10  1  0.01803000  0.04453500  0.98676700  1
  Li  Li11  1  0.01188100  0.95989100  0.51427700  1
  V  V0  1  0.56479700  0.56547100  0.24857100  1
  V  V1  1  0.43966500  0.43537600  0.75299500  1
  V  V2  1  0.00299900  0.56439400  0.74404900  1
  V  V3  1  0.99929700  0.43422400  0.25111700  1
  V  V4  1  0.43457000  0.99992400  0.24843200  1
  V  V5  1  0.56321400  0.00365400  0.75341000  1
  P  P0  1  0.21861200  0.90980800  0.84253200  1
  P  P1  1  0.08403800  0.77743900  0.33982000  1
  P  P2  1  0.68472700  0.91353900  0.34442800  1
  P  P3  1  0.33265100  0.66670300  0.12693500  1
  P  P4  1  0.33798900  0.66500100  0.63004000  1
  P  P5  1  0.68489500  0.77849700  0.84196000  1
  P  P6  1  0.77484100  0.68834900  0.65746700  1
  P  P7  1  0.09235400  0.31499400  0.84365800  1
  P  P8  1  0.91349300  0.68383800  0.15418700  1
  P  P9  1  0.22930500  0.31509200  0.34519900  1
  P  P10  1  0.30662000  0.22343100  0.15840800  1
  P  P11  1  0.66560800  0.33289300  0.36901400  1
  P  P12  1  0.67252500  0.33823400  0.87048300  1
  P  P13  1  0.30851700  0.08548200  0.65720100  1
  P  P14  1  0.91282000  0.22328500  0.65891400  1
  P  P15  1  0.77767700  0.08429600  0.15892200  1
  O  O0  1  0.21733100  0.00775100  0.56706700  1
  O  O1  1  0.25545400  0.91646900  0.34110500  1
  O  O2  1  0.99571300  0.76619400  0.06297300  1
  O  O3  1  0.07484200  0.74242800  0.83930300  1
  O  O4  1  0.36923700  0.89408100  0.83042000  1
  O  O5  1  0.32025800  0.81027100  0.16597700  1
  O  O6  1  0.52693800  0.90985900  0.32758800  1
  O  O7  1  0.79427000  0.99490900  0.07652200  1
  O  O8  1  0.65923900  0.91954600  0.84258800  1
  O  O9  1  0.19080000  0.66641100  0.67647000  1
  O  O10  1  0.07978800  0.61824700  0.33035200  1
  O  O11  1  0.48822200  0.81273000  0.67235200  1
  O  O12  1  0.33241000  0.66557400  0.01882800  1
  O  O13  1  0.33895500  0.66242900  0.52328300  1
  O  O14  1  0.48879700  0.67929300  0.16620200  1
  O  O15  1  0.10019400  0.47625300  0.83355000  1
  O  O16  1  0.18926000  0.51246900  0.16712300  1
  O  O17  1  0.66150000  0.74539300  0.34093900  1
  O  O18  1  0.79242600  0.79650700  0.75002600  1
  O  O19  1  0.78376200  0.78350300  0.56880600  1
  O  O20  1  0.77235800  0.77216200  0.92982000  1
  O  O21  1  0.52060700  0.62819200  0.83104900  1
  O  O22  1  0.32945300  0.51236300  0.67181200  1
  O  O23  1  0.74458300  0.66188900  0.15894200  1
  O  O24  1  0.38246600  0.47274900  0.32801100  1
  O  O25  1  0.08370800  0.33813100  0.34274600  1
  O  O26  1  0.00905300  0.80010600  0.24174500  1
  O  O27  1  0.99110800  0.78979000  0.42192000  1
  O  O28  1  0.00305500  0.22177000  0.57063000  1
  O  O29  1  0.91289100  0.65823700  0.65940600  1
  O  O30  1  0.61623700  0.53692600  0.66538500  1
  O  O31  1  0.26031800  0.34276300  0.83872100  1
  O  O32  1  0.67770000  0.48837500  0.32811600  1
  O  O33  1  0.46149100  0.37989500  0.16784400  1
  O  O34  1  0.20005100  0.20901900  0.07743700  1
  O  O35  1  0.23204700  0.23368100  0.43608400  1
  O  O36  1  0.20878600  0.20031800  0.25748800  1
  O  O37  1  0.33754400  0.25446600  0.66171200  1
  O  O38  1  0.82220400  0.48385400  0.82671100  1
  O  O39  1  0.90757800  0.52718700  0.17076400  1
  O  O40  1  0.52785500  0.34206000  0.82422700  1
  O  O41  1  0.67639500  0.34701200  0.97642400  1
  O  O42  1  0.66438500  0.33370700  0.47623500  1
  O  O43  1  0.51009300  0.18868000  0.32824600  1
  O  O44  1  0.90755600  0.37664500  0.66753800  1
  O  O45  1  0.81019800  0.31968200  0.33001900  1
  O  O46  1  0.33860600  0.08302600  0.15890600  1
  O  O47  1  0.20204900  0.99782000  0.75007600  1
  O  O48  1  0.21598500  0.99304500  0.93225200  1
  O  O49  1  0.46220200  0.07975000  0.66655200  1
  O  O50  1  0.66346900  0.18643500  0.82501500  1
  O  O51  1  0.61993600  0.08117600  0.16790700  1
  O  O52  1  0.91750700  0.25676800  0.16099100  1
  O  O53  1  0.01075700  0.22722800  0.93339200  1
  O  O54  1  0.99825100  0.20557100  0.75270000  1
  O  O55  1  0.74558800  0.07933200  0.65894800  1
  O  O56  1  0.76536200  0.99628400  0.43647500  1
  O  O57  1  0.80023200  0.00863800  0.25752200  1
loop_
_geom_bond_atom_site_label_1
_geom_bond_atom_site_label_2
_geom_bond_distance
_geom_bond_site_symmetry_2
Li0 O48 1.973716 1_554
Li0 O46 2.023851 1_565
Li0 O2 2.035594 1_455
Li0 O5 2.203176 1_555
Li1 O19 2.005935 1_555
Li1 O55 2.008734 1_565
Li1 O56 2.029451 1_555
Li1 O11 2.123229 1_555
Li2 O12 1.880887 1_556
Li2 O21 2.166287 1_555
Li2 O15 2.199002 1_555
Li2 O4 2.240808 1_555
Li3 O7 1.924922 1_555
Li3 O20 2.023505 1_554
Li3 O23 2.073091 1_555
Li3 O14 2.182999 1_555
Li4 O34 1.953012 1_555
Li4 O53 1.978985 1_554
Li4 O52 2.044368 1_455
Li4 O16 2.164203 1_555
Li5 O27 1.943704 1_555
Li5 O19 2.073160 1_555
Li5 O17 2.137807 1_555
Li5 O32 2.174547 1_555
Li6 O28 1.997993 1_555
Li6 O37 2.029029 1_555
Li6 O35 2.038309 1_555
Li6 O22 2.116363 1_555
Li7 O20 1.996498 1_555
Li7 O3 2.006534 1_655
Li7 O2 2.013796 1_556
Li7 O38 2.167029 1_555
Li8 O0 2.021851 1_555
Li8 O35 2.049107 1_555
Li8 O1 2.074200 1_545
Li8 O43 2.185278 1_555
Li9 O56 2.019588 1_545
Li9 O28 2.063848 1_655
Li9 O25 2.100989 1_655
Li9 O45 2.192934 1_555
Li10 O53 1.977726 1_555
Li10 O34 2.121356 1_556
Li10 O7 2.350075 1_446
Li10 O48 2.353924 1_545
Li11 O0 1.965256 1_565
Li11 O27 2.031261 1_455
Li11 O19 2.169745 1_455
O0 P13 1.508720 1_555
O1 P1 1.546570 1_555
O1 V4 1.995110 1_555
O2 P8 1.509072 1_555
O3 P0 1.540686 1_555
O3 V2 2.016708 1_555
O4 P0 1.563846 1_555
O4 V5 1.969210 1_565
O5 P3 1.566984 1_555
O5 V4 1.986363 1_555
O6 P2 1.543564 1_555
O6 V4 1.904097 1_555
O7 P15 1.498909 1_565
O8 P5 1.523830 1_555
O8 V5 1.974419 1_565
O9 P4 1.582907 1_555
O9 V2 1.852740 1_555
O10 P1 1.545944 1_555
O10 V3 1.915061 1_455
O11 P4 1.575032 1_555
O11 V5 1.984242 1_565
O12 P3 1.508407 1_555
O13 P4 1.489755 1_555
O14 P3 1.568987 1_555
O14 V0 1.990800 1_555
O15 P7 1.551962 1_555
O15 V2 2.011340 1_555
O16 P3 1.568619 1_555
O16 V3 1.997599 1_455
O17 P2 1.549064 1_555
O17 V0 1.997251 1_555
O18 P5 1.610098 1_555
O18 P6 1.620996 1_555
O19 P6 1.529552 1_555
O20 P5 1.515596 1_555
O21 P5 1.554513 1_555
O21 V1 1.969858 1_555
O22 P4 1.572329 1_555
O22 V1 1.959577 1_555
O23 P8 1.556691 1_555
O23 V0 1.973175 1_555
O24 P9 1.544800 1_555
O24 V0 1.902394 1_555
O25 P9 1.548915 1_555
O25 V3 1.999170 1_455
O26 P8 1.611087 1_455
O26 P1 1.621796 1_555
O27 P1 1.501735 1_655
O28 P14 1.517626 1_455
O29 P6 1.518826 1_555
O29 V2 1.960218 1_655
O30 P6 1.526174 1_555
O30 V1 1.938007 1_555
O31 P7 1.526319 1_555
O31 V1 1.935106 1_555
O32 P11 1.579305 1_555
O32 V0 1.966851 1_555
O33 P10 1.532714 1_555
O33 V0 1.937636 1_555
O34 P10 1.496533 1_555
O35 P9 1.509503 1_555
O36 P9 1.602123 1_555
O36 P10 1.630355 1_555
O37 P13 1.536766 1_555
O37 V1 1.996287 1_555
O38 P12 1.573871 1_555
O38 V2 1.920170 1_655
O39 P8 1.527220 1_555
O39 V3 1.929429 1_555
O40 P12 1.573616 1_555
O40 V1 1.835440 1_555
O41 P12 1.479737 1_555
O42 P11 1.496092 1_555
O43 P11 1.577850 1_555
O43 V4 1.957865 1_545
O44 P14 1.534435 1_555
O44 V2 1.916702 1_655
O45 P11 1.577609 1_555
O45 V3 1.955994 1_555
O46 P10 1.556608 1_555
O46 V4 1.970624 1_545
O47 P0 1.608609 1_555
O47 P13 1.617246 1_565
O48 P0 1.498039 1_555
O49 P13 1.537199 1_555
O49 V5 1.936724 1_555
O50 P12 1.576608 1_555
O50 V5 1.846153 1_555
O51 P15 1.531996 1_555
O51 V4 1.934503 1_545
O52 P15 1.557977 1_555
O52 V3 1.960993 1_555
O53 P7 1.505763 1_555
O54 P14 1.610215 1_555
O54 P7 1.617692 1_655
O55 P14 1.538557 1_555
O55 V5 2.036511 1_555
O56 P2 1.512108 1_555
O57 P2 1.603561 1_545
O57 P15 1.633197 1_555
