# generated using pymatgen
data_Mn11In25O48
_symmetry_space_group_name_H-M   'P 1'
_cell_length_a   11.26475303
_cell_length_b   11.26475303
_cell_length_c   11.26707163
_cell_angle_alpha   80.40111797
_cell_angle_beta   80.40111797
_cell_angle_gamma   119.99043259
_symmetry_Int_Tables_number   1
_chemical_formula_structural   Mn11In25O48
_chemical_formula_sum   'Mn11 In25 O48'
_cell_volume   1167.43175412
_cell_formula_units_Z   1
loop_
 _symmetry_equiv_pos_site_id
 _symmetry_equiv_pos_as_xyz
  1  'x, y, z'
loop_
 _atom_site_type_symbol
 _atom_site_label
 _atom_site_symmetry_multiplicity
 _atom_site_fract_x
 _atom_site_fract_y
 _atom_site_fract_z
 _atom_site_occupancy
  Mn  Mn0  1  0.16655900  0.50017200  0.50030100  1
  Mn  Mn1  1  0.54156200  0.87486700  0.37525800  1
  Mn  Mn2  1  0.04171700  0.37521300  0.87479900  1
  Mn  Mn3  1  0.83308400  0.83308400  0.50026600  1
  Mn  Mn4  1  0.33374400  0.33374400  0.99960600  1
  Mn  Mn5  1  0.50017200  0.16655900  0.50030100  1
  Mn  Mn6  1  0.00014300  0.66668100  0.99962800  1
  Mn  Mn7  1  0.70816600  0.70816600  0.87473900  1
  Mn  Mn8  1  0.37521300  0.04171700  0.87479900  1
  Mn  Mn9  1  0.87486700  0.54156200  0.37525800  1
  Mn  Mn10  1  0.66668100  0.00014300  0.99962800  1
  In  In0  1  0.10290000  0.93565500  0.18581600  1
  In  In1  1  0.10418100  0.43992500  0.18585800  1
  In  In2  1  0.20836100  0.20836100  0.37503800  1
  In  In3  1  0.43861300  0.60718900  0.18578300  1
  In  In4  1  0.10343500  0.93487800  0.68950700  1
  In  In5  1  0.27074400  0.77091200  0.18751100  1
  In  In6  1  0.60718900  0.43861300  0.18578300  1
  In  In7  1  0.52270800  0.52270800  0.43881300  1
  In  In8  1  0.02084100  0.02084100  0.93738900  1
  In  In9  1  0.27202600  0.27202600  0.68950800  1
  In  In10  1  0.77062600  0.77062600  0.18754800  1
  In  In11  1  0.18711900  0.85135500  0.43881900  1
  In  In12  1  0.43992500  0.10418100  0.18585800  1
  In  In13  1  0.60446300  0.43741900  0.68767800  1
  In  In14  1  0.43741900  0.60446300  0.68767800  1
  In  In15  1  0.27104400  0.77069500  0.68772300  1
  In  In16  1  0.93565500  0.10290000  0.18581600  1
  In  In17  1  0.77091200  0.27074400  0.18751100  1
  In  In18  1  0.60369100  0.93706600  0.68773400  1
  In  In19  1  0.35427600  0.68769800  0.93712400  1
  In  In20  1  0.85135500  0.18711900  0.43881900  1
  In  In21  1  0.93487800  0.10343500  0.68950700  1
  In  In22  1  0.77069500  0.27104400  0.68772300  1
  In  In23  1  0.68769800  0.35427600  0.93712400  1
  In  In24  1  0.93706600  0.60369100  0.68773400  1
  O  O0  1  0.13236800  0.13236800  0.06760800  1
  O  O1  1  0.23055300  0.05244100  0.30820000  1
  O  O2  1  0.05244100  0.23055300  0.30820000  1
  O  O3  1  0.15659500  0.64548600  0.06649800  1
  O  O4  1  0.31076300  0.48925000  0.06783600  1
  O  O5  1  0.48925000  0.31076300  0.06783600  1
  O  O6  1  0.46574300  0.80009900  0.06643600  1
  O  O7  1  0.23370200  0.56637500  0.29902300  1
  O  O8  1  0.40874600  0.40874600  0.30818000  1
  O  O9  1  0.14155400  0.14155400  0.57539400  1
  O  O10  1  0.64084800  0.64084800  0.07622000  1
  O  O11  1  0.07598700  0.74306200  0.30813700  1
  O  O12  1  0.30790400  0.97514100  0.07625000  1
  O  O13  1  0.21866500  0.06416000  0.80755400  1
  O  O14  1  0.06416000  0.21866500  0.80755400  1
  O  O15  1  0.71815100  0.56356500  0.30812200  1
  O  O16  1  0.56356500  0.71815100  0.30812200  1
  O  O17  1  0.38521800  0.89764900  0.30813300  1
  O  O18  1  0.82234900  0.97689700  0.06629900  1
  O  O19  1  0.97689700  0.82234900  0.06629900  1
  O  O20  1  0.47702400  0.32291000  0.56667600  1
  O  O21  1  0.64548600  0.15659500  0.06649800  1
  O  O22  1  0.32291000  0.47702400  0.56667600  1
  O  O23  1  0.14412700  0.65543100  0.56771500  1
  O  O24  1  0.29854200  0.96602000  0.56662900  1
  O  O25  1  0.90101500  0.90101500  0.29889500  1
  O  O26  1  0.40106000  0.40106000  0.79947700  1
  O  O27  1  0.56637500  0.23370200  0.29902300  1
  O  O28  1  0.63286100  0.63286100  0.56767300  1
  O  O29  1  0.80009900  0.46574300  0.06643600  1
  O  O30  1  0.06687400  0.73268100  0.79940500  1
  O  O31  1  0.97514100  0.30790400  0.07625000  1
  O  O32  1  0.24253100  0.57566200  0.80814900  1
  O  O33  1  0.74306200  0.07598700  0.30813700  1
  O  O34  1  0.47477900  0.80813500  0.57571100  1
  O  O35  1  0.73076100  0.55216400  0.80814500  1
  O  O36  1  0.89764900  0.38521800  0.30813300  1
  O  O37  1  0.39712300  0.88546500  0.80798200  1
  O  O38  1  0.55216400  0.73076100  0.80814500  1
  O  O39  1  0.99035900  0.81187200  0.56664700  1
  O  O40  1  0.65543100  0.14412700  0.56771500  1
  O  O41  1  0.81187200  0.99035900  0.56664700  1
  O  O42  1  0.73268100  0.06687400  0.79940500  1
  O  O43  1  0.96602000  0.29854200  0.56662900  1
  O  O44  1  0.90957600  0.90957600  0.80746800  1
  O  O45  1  0.80813500  0.47477900  0.57571100  1
  O  O46  1  0.57566200  0.24253100  0.80814900  1
  O  O47  1  0.88546500  0.39712300  0.80798200  1
loop_
_geom_bond_atom_site_label_1
_geom_bond_atom_site_label_2
_geom_bond_distance
_geom_bond_site_symmetry_2
Mn0 O23 2.126138 1_555
Mn0 O43 2.135877 1_455
Mn0 O22 2.136038 1_555
Mn0 O7 2.138047 1_555
Mn1 O34 2.129258 1_555
Mn1 O16 2.137846 1_555
Mn1 O17 2.137973 1_555
Mn1 O33 2.138233 1_565
Mn2 O47 2.130730 1_455
Mn2 O32 2.131028 1_555
Mn2 O14 2.138974 1_555
Mn2 O31 2.139872 1_456
Mn3 O28 2.126697 1_555
Mn3 O41 2.135601 1_555
Mn3 O39 2.135601 1_555
Mn3 O25 2.139027 1_555
Mn4 O26 2.125826 1_555
Mn4 O4 2.136040 1_556
Mn4 O5 2.136040 1_556
Mn4 O0 2.138953 1_556
Mn5 O40 2.126138 1_555
Mn5 O24 2.135877 1_545
Mn5 O20 2.136038 1_555
Mn5 O27 2.138047 1_555
Mn6 O30 2.126831 1_555
Mn6 O3 2.129364 1_556
Mn6 O29 2.129549 1_456
Mn6 O19 2.130865 1_456
Mn7 O38 2.130529 1_555
Mn7 O35 2.130529 1_555
Mn7 O44 2.139293 1_555
Mn7 O10 2.140178 1_556
Mn8 O37 2.130730 1_545
Mn8 O46 2.131028 1_555
Mn8 O13 2.138974 1_555
Mn8 O12 2.139872 1_546
Mn9 O45 2.129258 1_555
Mn9 O15 2.137846 1_555
Mn9 O36 2.137973 1_555
Mn9 O11 2.138233 1_655
Mn10 O42 2.126831 1_555
Mn10 O21 2.129364 1_556
Mn10 O6 2.129549 1_546
Mn10 O18 2.130865 1_546
In0 O19 2.203777 1_455
In0 O12 2.212239 1_555
In0 O11 2.214515 1_555
In0 O0 2.219751 1_565
In0 O25 2.219949 1_455
In0 O1 2.252762 1_565
In1 O3 2.202047 1_555
In1 O31 2.213560 1_455
In1 O36 2.214750 1_455
In1 O4 2.218403 1_555
In1 O7 2.220789 1_555
In1 O2 2.253002 1_555
In2 O9 2.128227 1_555
In2 O8 2.128405 1_555
In2 O1 2.128810 1_555
In2 O2 2.128810 1_555
In3 O6 2.201903 1_555
In3 O10 2.213595 1_555
In3 O16 2.215033 1_555
In3 O4 2.217997 1_555
In3 O7 2.220049 1_555
In3 O8 2.253297 1_555
In4 O30 2.200523 1_555
In4 O44 2.213600 1_455
In4 O13 2.215117 1_565
In4 O39 2.218544 1_455
In4 O24 2.218727 1_555
In4 O9 2.252984 1_565
In5 O3 2.218025 1_555
In5 O6 2.218835 1_555
In5 O11 2.221274 1_555
In5 O17 2.222430 1_555
In5 O12 2.222579 1_555
In5 O7 2.227099 1_555
In6 O29 2.201903 1_555
In6 O10 2.213595 1_555
In6 O15 2.215033 1_555
In6 O5 2.217997 1_555
In6 O27 2.220049 1_555
In6 O8 2.253297 1_555
In7 O28 2.202208 1_555
In7 O15 2.215184 1_555
In7 O16 2.215184 1_555
In7 O20 2.217954 1_555
In7 O22 2.217954 1_555
In7 O8 2.252806 1_555
In8 O18 2.219184 1_446
In8 O19 2.219184 1_446
In8 O14 2.220736 1_555
In8 O13 2.220736 1_555
In8 O44 2.222150 1_445
In8 O0 2.227307 1_556
In9 O26 2.202230 1_555
In9 O14 2.213786 1_555
In9 O13 2.213786 1_555
In9 O20 2.218755 1_555
In9 O22 2.218755 1_555
In9 O9 2.252613 1_555
In10 O18 2.219757 1_555
In10 O19 2.219757 1_555
In10 O15 2.220932 1_555
In10 O16 2.220932 1_555
In10 O10 2.221327 1_555
In10 O25 2.227325 1_555
In11 O23 2.200595 1_555
In11 O17 2.214615 1_555
In11 O11 2.215929 1_555
In11 O24 2.218084 1_555
In11 O39 2.218340 1_455
In11 O1 2.253097 1_565
In12 O21 2.202047 1_555
In12 O12 2.213560 1_545
In12 O17 2.214750 1_545
In12 O5 2.218403 1_555
In12 O27 2.220789 1_555
In12 O1 2.253002 1_555
In13 O46 2.216889 1_555
In13 O45 2.219203 1_555
In13 O35 2.219872 1_555
In13 O26 2.220734 1_555
In13 O28 2.221823 1_555
In13 O20 2.229665 1_555
In14 O32 2.216889 1_555
In14 O34 2.219203 1_555
In14 O38 2.219872 1_555
In14 O26 2.220734 1_555
In14 O28 2.221823 1_555
In14 O22 2.229665 1_555
In15 O37 2.216951 1_555
In15 O32 2.219471 1_555
In15 O34 2.219607 1_555
In15 O30 2.219676 1_555
In15 O23 2.220943 1_555
In15 O24 2.230529 1_555
In16 O18 2.203777 1_545
In16 O31 2.212239 1_555
In16 O33 2.214515 1_555
In16 O0 2.219751 1_655
In16 O25 2.219949 1_545
In16 O2 2.252762 1_655
In17 O21 2.218025 1_555
In17 O29 2.218835 1_555
In17 O33 2.221274 1_555
In17 O36 2.222430 1_555
In17 O31 2.222579 1_555
In17 O27 2.227099 1_555
In18 O38 2.217139 1_555
In18 O37 2.218531 1_555
In18 O34 2.219321 1_555
In18 O42 2.220762 1_565
In18 O40 2.221488 1_565
In18 O41 2.230167 1_555
In19 O38 2.218065 1_555
In19 O32 2.218672 1_555
In19 O37 2.218780 1_555
In19 O3 2.222027 1_556
In19 O6 2.222281 1_556
In19 O4 2.229888 1_556
In20 O40 2.200595 1_555
In20 O36 2.214615 1_555
In20 O33 2.215929 1_555
In20 O43 2.218084 1_555
In20 O41 2.218340 1_545
In20 O2 2.253097 1_655
In21 O42 2.200523 1_555
In21 O44 2.213600 1_545
In21 O14 2.215117 1_655
In21 O41 2.218544 1_545
In21 O43 2.218727 1_555
In21 O9 2.252984 1_655
In22 O47 2.216951 1_555
In22 O46 2.219471 1_555
In22 O45 2.219607 1_555
In22 O42 2.219676 1_555
In22 O40 2.220943 1_555
In22 O43 2.230529 1_555
In23 O35 2.218065 1_555
In23 O46 2.218672 1_555
In23 O47 2.218780 1_555
In23 O21 2.222027 1_556
In23 O29 2.222281 1_556
In23 O5 2.229888 1_556
In24 O35 2.217139 1_555
In24 O47 2.218531 1_555
In24 O45 2.219321 1_555
In24 O30 2.220762 1_655
In24 O23 2.221488 1_655
In24 O39 2.230167 1_555
