# generated using pymatgen
data_Mn6O7F5
_symmetry_space_group_name_H-M   'P 1'
_cell_length_a   4.59940567
_cell_length_b   5.63985077
_cell_length_c   15.30761574
_cell_angle_alpha   90.01825465
_cell_angle_beta   89.97301401
_cell_angle_gamma   88.88203053
_symmetry_Int_Tables_number   1
_chemical_formula_structural   Mn6O7F5
_chemical_formula_sum   'Mn12 O14 F10'
_cell_volume   397.00331222
_cell_formula_units_Z   2
loop_
 _symmetry_equiv_pos_site_id
 _symmetry_equiv_pos_as_xyz
  1  'x, y, z'
loop_
 _atom_site_type_symbol
 _atom_site_label
 _atom_site_symmetry_multiplicity
 _atom_site_fract_x
 _atom_site_fract_y
 _atom_site_fract_z
 _atom_site_occupancy
  Mn  Mn0  1  0.02127100  0.16430800  0.41542600  1
  Mn  Mn1  1  0.01493400  0.81866200  0.24296000  1
  Mn  Mn2  1  0.99876500  0.15323800  0.07860900  1
  Mn  Mn3  1  0.01995100  0.16705300  0.74439400  1
  Mn  Mn4  1  0.99257600  0.84596000  0.57629600  1
  Mn  Mn5  1  0.05044600  0.85409100  0.91236300  1
  Mn  Mn6  1  0.49109400  0.34989900  0.58640900  1
  Mn  Mn7  1  0.48806500  0.35111800  0.92320300  1
  Mn  Mn8  1  0.52093800  0.37907200  0.25731900  1
  Mn  Mn9  1  0.49490500  0.65229600  0.08236100  1
  Mn  Mn10  1  0.49312900  0.63720300  0.42378300  1
  Mn  Mn11  1  0.49574500  0.63457000  0.75491800  1
  O  O0  1  0.20914400  0.11100400  0.63455900  1
  O  O1  1  0.22976500  0.11195000  0.97046600  1
  O  O2  1  0.21393500  0.88449300  0.13307300  1
  O  O3  1  0.22323700  0.88548200  0.46999200  1
  O  O4  1  0.23869000  0.88697700  0.80457900  1
  O  O5  1  0.28629300  0.60459000  0.31401800  1
  O  O6  1  0.27499000  0.39398500  0.47777400  1
  O  O7  1  0.28846300  0.39269700  0.81439800  1
  O  O8  1  0.27759300  0.61653600  0.97412200  1
  O  O9  1  0.71295100  0.37684900  0.02975000  1
  O  O10  1  0.71789300  0.61946000  0.19199700  1
  O  O11  1  0.73758000  0.39308200  0.36372900  1
  O  O12  1  0.71414500  0.61750600  0.52947600  1
  O  O13  1  0.71672100  0.37956200  0.69361000  1
  F  F0  1  0.24819800  0.10912300  0.29896500  1
  F  F1  1  0.25438600  0.38085200  0.15366700  1
  F  F2  1  0.23504500  0.61094400  0.64426100  1
  F  F3  1  0.76720700  0.61942300  0.86568500  1
  F  F4  1  0.75870000  0.13149000  0.19500000  1
  F  F5  1  0.74656000  0.11233300  0.52256100  1
  F  F6  1  0.76566600  0.88314700  0.35912200  1
  F  F7  1  0.77627800  0.87909000  0.01285200  1
  F  F8  1  0.77534500  0.12297900  0.85739400  1
  F  F9  1  0.74939700  0.86897300  0.69090500  1
loop_
_geom_bond_atom_site_label_1
_geom_bond_atom_site_label_2
_geom_bond_distance
_geom_bond_site_symmetry_2
Mn0 O11 1.982285 1_455
Mn0 O3 1.994498 1_545
Mn0 O6 2.002456 1_555
Mn1 O10 1.948756 1_455
Mn1 O2 1.953789 1_555
Mn1 O5 2.035154 1_555
Mn2 O9 1.953144 1_555
Mn2 O1 1.977847 1_654
Mn2 O2 1.978594 1_645
Mn3 O0 1.916113 1_555
Mn3 O13 1.980476 1_455
Mn3 O4 2.072639 1_545
Mn3 O7 2.086802 1_555
Mn4 O3 1.957297 1_655
Mn4 O12 1.969365 1_555
Mn4 O0 2.019939 1_665
Mn5 O4 1.873864 1_555
Mn5 O1 1.906021 1_565
Mn5 O8 1.930634 1_555
Mn6 O13 1.950890 1_555
Mn6 O6 1.951234 1_555
Mn6 O0 2.026863 1_555
Mn6 O12 2.037227 1_555
Mn7 O7 1.914454 1_555
Mn7 O8 1.930652 1_555
Mn7 O9 1.938638 1_556
Mn7 O1 1.953621 1_555
Mn8 O5 1.865631 1_555
Mn8 O11 1.912298 1_555
Mn8 O10 1.925217 1_555
Mn9 O8 1.947859 1_554
Mn9 O10 1.974123 1_555
Mn9 O2 1.979885 1_555
Mn9 O9 2.001326 1_555
Mn10 O6 1.903925 1_555
Mn10 O12 1.913265 1_555
Mn10 O5 1.941698 1_555
Mn10 O3 1.983106 1_555
Mn10 O11 1.985600 1_555
Mn11 O7 1.910365 1_555
Mn11 O13 1.980750 1_555
Mn11 O4 1.983677 1_555
F0 Mn0 2.085574 1_555
F0 Mn8 2.091015 1_555
F0 Mn1 2.153635 1_545
F1 Mn8 2.005492 1_555
F1 Mn2 2.099887 1_455
F1 Mn9 2.196562 1_555
F2 Mn4 2.006793 1_455
F2 Mn6 2.066210 1_555
F2 Mn11 2.081537 1_555
F3 Mn5 2.006700 1_655
F3 Mn11 2.106922 1_555
F3 Mn7 2.188368 1_555
F4 Mn8 1.998555 1_555
F4 Mn2 2.100505 1_555
F4 Mn1 2.227368 1_645
F5 Mn6 2.016842 1_555
F5 Mn4 2.036958 1_545
F5 Mn0 2.093973 1_655
F6 Mn10 2.131329 1_555
F6 Mn1 2.142418 1_655
F6 Mn0 2.170769 1_665
F7 Mn5 1.991814 1_654
F7 Mn9 2.123011 1_555
F7 Mn2 2.124307 1_565
F8 Mn3 2.080609 1_655
F8 Mn7 2.085135 1_555
F8 Mn5 2.129716 1_645
F9 Mn11 2.031959 1_555
F9 Mn4 2.082803 1_555
F9 Mn3 2.264248 1_665
