# generated using pymatgen
data_LiMnPO4
_symmetry_space_group_name_H-M   'P 1'
_cell_length_a   5.22496051
_cell_length_b   5.22496051
_cell_length_c   8.16300623
_cell_angle_alpha   87.23858759
_cell_angle_beta   87.23858759
_cell_angle_gamma   121.25275004
_symmetry_Int_Tables_number   1
_chemical_formula_structural   LiMnPO4
_chemical_formula_sum   'Li2 Mn2 P2 O8'
_cell_volume   189.59192286
_cell_formula_units_Z   2
loop_
 _symmetry_equiv_pos_site_id
 _symmetry_equiv_pos_as_xyz
  1  'x, y, z'
loop_
 _atom_site_type_symbol
 _atom_site_label
 _atom_site_symmetry_multiplicity
 _atom_site_fract_x
 _atom_site_fract_y
 _atom_site_fract_z
 _atom_site_occupancy
  Li  Li0  1  0.82378300  0.99502500  0.01624700  1
  Li  Li1  1  0.99502500  0.82378300  0.51624700  1
  Mn  Mn0  1  0.64640400  0.25796600  0.71073200  1
  Mn  Mn1  1  0.25796600  0.64640400  0.21073200  1
  P  P0  1  0.62974300  0.31593600  0.29657800  1
  P  P1  1  0.31593600  0.62974300  0.79657800  1
  O  O0  1  0.31208300  0.02861700  0.32044100  1
  O  O1  1  0.79280800  0.39569500  0.45953600  1
  O  O2  1  0.83761600  0.26980400  0.17419500  1
  O  O3  1  0.61733400  0.59264500  0.23087200  1
  O  O4  1  0.02861700  0.31208300  0.82044100  1
  O  O5  1  0.39569500  0.79280800  0.95953600  1
  O  O6  1  0.26980400  0.83761600  0.67419500  1
  O  O7  1  0.59264500  0.61733400  0.73087200  1
loop_
_geom_bond_atom_site_label_1
_geom_bond_atom_site_label_2
_geom_bond_distance
_geom_bond_site_symmetry_2
Li0 O2 1.951545 1_565
Li0 O5 2.007078 1_554
Li0 O4 2.045706 1_664
Li0 O3 2.400623 1_555
Li1 O6 1.951545 1_655
Li1 O1 2.007078 1_555
Li1 O0 2.045706 1_665
Li1 O7 2.400623 1_555
Mn0 O7 2.050411 1_555
Mn0 O6 2.102375 1_545
Mn0 O1 2.107870 1_555
Mn0 O4 2.116829 1_655
Mn1 O3 2.050411 1_555
Mn1 O2 2.102375 1_455
Mn1 O5 2.107870 1_554
Mn1 O0 2.116829 1_565
O0 P0 1.549733 1_555
O1 P0 1.569486 1_555
O2 P0 1.557595 1_555
O3 P0 1.551806 1_555
O4 P1 1.549733 1_555
O5 P1 1.569486 1_555
O6 P1 1.557595 1_555
O7 P1 1.551806 1_555
