# generated using pymatgen
data_Sr3Fe2(HO)12
_symmetry_space_group_name_H-M   'P 1'
_cell_length_a   12.59460225
_cell_length_b   12.59460225
_cell_length_c   12.59460225
_cell_angle_alpha   109.47122063
_cell_angle_beta   109.47122063
_cell_angle_gamma   109.47122063
_symmetry_Int_Tables_number   1
_chemical_formula_structural   Sr3Fe2(HO)12
_chemical_formula_sum   'Sr12 Fe8 H48 O48'
_cell_volume   1537.91197701
_cell_formula_units_Z   4
loop_
 _symmetry_equiv_pos_site_id
 _symmetry_equiv_pos_as_xyz
  1  'x, y, z'
loop_
 _atom_site_type_symbol
 _atom_site_label
 _atom_site_symmetry_multiplicity
 _atom_site_fract_x
 _atom_site_fract_y
 _atom_site_fract_z
 _atom_site_occupancy
  Sr  Sr0  1  0.12500000  0.37500000  0.75000000  1
  Sr  Sr1  1  0.37500000  0.12500000  0.25000000  1
  Sr  Sr2  1  0.37500000  0.75000000  0.12500000  1
  Sr  Sr3  1  0.12500000  0.25000000  0.37500000  1
  Sr  Sr4  1  0.75000000  0.12500000  0.37500000  1
  Sr  Sr5  1  0.25000000  0.37500000  0.12500000  1
  Sr  Sr6  1  0.87500000  0.62500000  0.25000000  1
  Sr  Sr7  1  0.62500000  0.87500000  0.75000000  1
  Sr  Sr8  1  0.62500000  0.25000000  0.87500000  1
  Sr  Sr9  1  0.87500000  0.75000000  0.62500000  1
  Sr  Sr10  1  0.25000000  0.87500000  0.62500000  1
  Sr  Sr11  1  0.75000000  0.62500000  0.87500000  1
  Fe  Fe0  1  0.00000000  0.50000000  0.00000000  1
  Fe  Fe1  1  0.00000000  0.00000000  0.50000000  1
  Fe  Fe2  1  0.50000000  0.00000000  0.00000000  1
  Fe  Fe3  1  0.50000000  0.50000000  0.50000000  1
  Fe  Fe4  1  0.50000000  0.50000000  0.00000000  1
  Fe  Fe5  1  0.50000000  0.00000000  0.50000000  1
  Fe  Fe6  1  0.00000000  0.50000000  0.50000000  1
  Fe  Fe7  1  0.00000000  0.00000000  0.00000000  1
  H  H0  1  0.03407100  0.82004100  0.25515300  1
  H  H1  1  0.06488900  0.77891800  0.24484700  1
  H  H2  1  0.43511100  0.67995900  0.71402900  1
  H  H3  1  0.46592900  0.72108200  0.78597100  1
  H  H4  1  0.82004100  0.25515300  0.03407100  1
  H  H5  1  0.77891800  0.24484700  0.06488900  1
  H  H6  1  0.67995900  0.71402900  0.43511100  1
  H  H7  1  0.72108200  0.78597100  0.46592900  1
  H  H8  1  0.25515300  0.03407100  0.82004100  1
  H  H9  1  0.24484700  0.06488900  0.77891800  1
  H  H10  1  0.71402900  0.43511100  0.67995900  1
  H  H11  1  0.78597100  0.46592900  0.72108200  1
  H  H12  1  0.96592900  0.17995900  0.74484700  1
  H  H13  1  0.93511100  0.22108200  0.75515300  1
  H  H14  1  0.56488900  0.32004100  0.28597100  1
  H  H15  1  0.53407100  0.27891800  0.21402900  1
  H  H16  1  0.17995900  0.74484700  0.96592900  1
  H  H17  1  0.22108200  0.75515300  0.93511100  1
  H  H18  1  0.32004100  0.28597100  0.56488900  1
  H  H19  1  0.27891800  0.21402900  0.53407100  1
  H  H20  1  0.74484700  0.96592900  0.17995900  1
  H  H21  1  0.75515300  0.93511100  0.22108200  1
  H  H22  1  0.28597100  0.56488900  0.32004100  1
  H  H23  1  0.21402900  0.53407100  0.27891800  1
  H  H24  1  0.53407100  0.75515300  0.32004100  1
  H  H25  1  0.56488900  0.74484700  0.27891800  1
  H  H26  1  0.93511100  0.21402900  0.17995900  1
  H  H27  1  0.96592900  0.28597100  0.22108200  1
  H  H28  1  0.32004100  0.53407100  0.75515300  1
  H  H29  1  0.27891800  0.56488900  0.74484700  1
  H  H30  1  0.17995900  0.93511100  0.21402900  1
  H  H31  1  0.22108200  0.96592900  0.28597100  1
  H  H32  1  0.75515300  0.32004100  0.53407100  1
  H  H33  1  0.74484700  0.27891800  0.56488900  1
  H  H34  1  0.21402900  0.17995900  0.93511100  1
  H  H35  1  0.28597100  0.22108200  0.96592900  1
  H  H36  1  0.46592900  0.24484700  0.67995900  1
  H  H37  1  0.43511100  0.25515300  0.72108200  1
  H  H38  1  0.06488900  0.78597100  0.82004100  1
  H  H39  1  0.03407100  0.71402900  0.77891800  1
  H  H40  1  0.67995900  0.46592900  0.24484700  1
  H  H41  1  0.72108200  0.43511100  0.25515300  1
  H  H42  1  0.82004100  0.06488900  0.78597100  1
  H  H43  1  0.77891800  0.03407100  0.71402900  1
  H  H44  1  0.24484700  0.67995900  0.46592900  1
  H  H45  1  0.25515300  0.72108200  0.43511100  1
  H  H46  1  0.78597100  0.82004100  0.06488900  1
  H  H47  1  0.71402900  0.77891800  0.03407100  1
  O  O0  1  0.99329100  0.94140400  0.61344100  1
  O  O1  1  0.82796300  0.37985000  0.88655900  1
  O  O2  1  0.67203700  0.55859600  0.55188700  1
  O  O3  1  0.50670900  0.12015000  0.94811300  1
  O  O4  1  0.94140400  0.61344100  0.99329100  1
  O  O5  1  0.37985000  0.88655900  0.82796300  1
  O  O6  1  0.55859600  0.55188700  0.67203700  1
  O  O7  1  0.12015000  0.94811300  0.50670900  1
  O  O8  1  0.61344100  0.99329100  0.94140400  1
  O  O9  1  0.88655900  0.82796300  0.37985000  1
  O  O10  1  0.55188700  0.67203700  0.55859600  1
  O  O11  1  0.94811300  0.50670900  0.12015000  1
  O  O12  1  0.00670900  0.05859600  0.38655900  1
  O  O13  1  0.17203700  0.62015000  0.11344100  1
  O  O14  1  0.32796300  0.44140400  0.44811300  1
  O  O15  1  0.49329100  0.87985000  0.05188700  1
  O  O16  1  0.05859600  0.38655900  0.00670900  1
  O  O17  1  0.62015000  0.11344100  0.17203700  1
  O  O18  1  0.44140400  0.44811300  0.32796300  1
  O  O19  1  0.87985000  0.05188700  0.49329100  1
  O  O20  1  0.38655900  0.00670900  0.05859600  1
  O  O21  1  0.11344100  0.17203700  0.62015000  1
  O  O22  1  0.44811300  0.32796300  0.44140400  1
  O  O23  1  0.05188700  0.49329100  0.87985000  1
  O  O24  1  0.49329100  0.11344100  0.44140400  1
  O  O25  1  0.32796300  0.38655900  0.87985000  1
  O  O26  1  0.17203700  0.05188700  0.05859600  1
  O  O27  1  0.00670900  0.44811300  0.62015000  1
  O  O28  1  0.44140400  0.49329100  0.11344100  1
  O  O29  1  0.87985000  0.32796300  0.38655900  1
  O  O30  1  0.05859600  0.17203700  0.05188700  1
  O  O31  1  0.62015000  0.00670900  0.44811300  1
  O  O32  1  0.11344100  0.44140400  0.49329100  1
  O  O33  1  0.38655900  0.87985000  0.32796300  1
  O  O34  1  0.05188700  0.05859600  0.17203700  1
  O  O35  1  0.44811300  0.62015000  0.00670900  1
  O  O36  1  0.50670900  0.88655900  0.55859600  1
  O  O37  1  0.67203700  0.61344100  0.12015000  1
  O  O38  1  0.82796300  0.94811300  0.94140400  1
  O  O39  1  0.99329100  0.55188700  0.37985000  1
  O  O40  1  0.55859600  0.50670900  0.88655900  1
  O  O41  1  0.12015000  0.67203700  0.61344100  1
  O  O42  1  0.94140400  0.82796300  0.94811300  1
  O  O43  1  0.37985000  0.99329100  0.55188700  1
  O  O44  1  0.88655900  0.55859600  0.50670900  1
  O  O45  1  0.61344100  0.12015000  0.67203700  1
  O  O46  1  0.94811300  0.94140400  0.82796300  1
  O  O47  1  0.55188700  0.37985000  0.99329100  1
loop_
_geom_bond_atom_site_label_1
_geom_bond_atom_site_label_2
_geom_bond_distance
_geom_bond_site_symmetry_2
Fe0 O23 1.826179 1_554
Fe0 O16 1.826179 1_555
Fe0 O11 1.826179 1_455
Fe0 O1 1.826179 1_454
Fe0 O13 1.826179 1_555
Fe0 O4 1.826179 1_454
Fe1 O19 1.826179 1_455
Fe1 O12 1.826179 1_555
Fe1 O9 1.826179 1_445
Fe1 O21 1.826179 1_555
Fe1 O7 1.826179 1_545
Fe1 O0 1.826179 1_445
Fe2 O15 1.826179 1_545
Fe2 O20 1.826179 1_555
Fe2 O5 1.826179 1_544
Fe2 O17 1.826179 1_555
Fe2 O3 1.826179 1_554
Fe2 O8 1.826179 1_544
Fe3 O22 1.826179 1_555
Fe3 O18 1.826179 1_555
Fe3 O14 1.826179 1_555
Fe3 O10 1.826179 1_555
Fe3 O6 1.826179 1_555
Fe3 O2 1.826179 1_555
Fe4 O47 1.826179 1_554
Fe4 O37 1.826179 1_555
Fe4 O40 1.826179 1_554
Fe4 O25 1.826179 1_554
Fe4 O35 1.826179 1_555
Fe4 O28 1.826179 1_555
Fe5 O43 1.826179 1_545
Fe5 O45 1.826179 1_555
Fe5 O36 1.826179 1_545
Fe5 O33 1.826179 1_545
Fe5 O31 1.826179 1_555
Fe5 O24 1.826179 1_555
Fe6 O39 1.826179 1_455
Fe6 O29 1.826179 1_455
Fe6 O41 1.826179 1_555
Fe6 O44 1.826179 1_455
Fe6 O27 1.826179 1_555
Fe6 O32 1.826179 1_555
Fe7 O42 1.826179 1_444
Fe7 O46 1.826179 1_444
Fe7 O38 1.826179 1_444
Fe7 O26 1.826179 1_555
Fe7 O30 1.826179 1_555
Fe7 O34 1.826179 1_555
H0 H1 0.747354 1_555
H0 Sr6 2.564821 1_455
H1 Sr6 2.564829 1_455
H2 H3 0.747363 1_555
H2 Sr7 2.564822 1_555
H3 Sr7 2.564829 1_555
H4 H5 0.747354 1_555
H4 Sr8 2.564821 1_554
H5 Sr8 2.564829 1_554
H6 H7 0.747363 1_555
H6 Sr9 2.564822 1_555
H7 Sr9 2.564829 1_555
H8 H9 0.747354 1_555
H8 Sr10 2.564821 1_545
H9 Sr10 2.564829 1_545
H10 H11 0.747363 1_555
H10 Sr11 2.564822 1_555
H11 Sr11 2.564829 1_555
H12 H13 0.747354 1_555
H12 Sr0 2.564821 1_655
H13 Sr0 2.564829 1_655
H14 H15 0.747363 1_555
H14 Sr1 2.564822 1_555
H15 Sr1 2.564829 1_555
H16 H17 0.747354 1_555
H16 Sr2 2.564821 1_556
H17 Sr2 2.564829 1_556
H18 H19 0.747363 1_555
H18 Sr3 2.564822 1_555
H19 Sr3 2.564829 1_555
H20 H21 0.747354 1_555
H20 Sr4 2.564821 1_565
H21 Sr4 2.564829 1_565
H22 H23 0.747363 1_555
H22 Sr5 2.564822 1_555
H23 Sr5 2.564829 1_555
H24 H25 0.747354 1_555
H24 Sr2 2.564821 1_555
H25 Sr2 2.564829 1_555
H26 H27 0.747363 1_555
H26 Sr3 2.564822 1_655
H27 Sr3 2.564829 1_655
H28 H29 0.747354 1_555
H28 Sr0 2.564821 1_555
H29 Sr0 2.564829 1_555
H30 H31 0.747363 1_555
H30 Sr1 2.564822 1_565
H31 Sr1 2.564829 1_565
H32 H33 0.747354 1_555
H32 Sr4 2.564821 1_555
H33 Sr4 2.564829 1_555
H34 H35 0.747363 1_555
H34 Sr5 2.564822 1_556
H35 Sr5 2.564829 1_556
H36 H37 0.747354 1_555
H36 Sr8 2.564821 1_555
H37 Sr8 2.564829 1_555
H38 H39 0.747363 1_555
H38 Sr9 2.564822 1_455
H39 Sr9 2.564829 1_455
H40 H41 0.747354 1_555
H40 Sr6 2.564821 1_555
H41 Sr6 2.564829 1_555
H42 H43 0.747363 1_555
H42 Sr7 2.564822 1_545
H43 Sr7 2.564829 1_545
H44 H45 0.747354 1_555
H44 Sr10 2.564821 1_555
H45 Sr10 2.564829 1_555
H46 H47 0.747363 1_555
H46 Sr11 2.564822 1_554
H47 Sr11 2.564829 1_554
O0 Sr9 2.456888 1_555
O1 Sr8 2.456888 1_555
O2 Sr9 2.456888 1_555
O3 Sr8 2.456888 1_555
O4 Sr11 2.456888 1_555
O5 Sr10 2.456888 1_555
O6 Sr11 2.456888 1_555
O7 Sr10 2.456888 1_555
O8 Sr7 2.456888 1_555
O9 Sr6 2.456888 1_555
O10 Sr7 2.456888 1_555
O11 Sr6 2.456888 1_555
O12 Sr3 2.456888 1_555
O13 Sr2 2.456888 1_555
O14 Sr3 2.456888 1_555
O15 Sr2 2.456888 1_555
O16 Sr5 2.456888 1_555
O17 Sr4 2.456888 1_555
O18 Sr5 2.456888 1_555
O19 Sr4 2.456888 1_555
O20 Sr1 2.456888 1_555
O21 Sr0 2.456888 1_555
O22 Sr1 2.456888 1_555
O23 Sr0 2.456888 1_555
O24 Sr1 2.456888 1_555
O25 Sr0 2.456888 1_555
O26 Sr1 2.456888 1_555
O27 Sr0 2.456888 1_555
O28 Sr5 2.456888 1_555
O29 Sr4 2.456888 1_555
O30 Sr5 2.456888 1_555
O31 Sr4 2.456888 1_555
O32 Sr3 2.456888 1_555
O33 Sr2 2.456888 1_555
O34 Sr3 2.456888 1_555
O35 Sr2 2.456888 1_555
O36 Sr7 2.456888 1_555
O37 Sr6 2.456888 1_555
O38 Sr7 2.456888 1_555
O39 Sr6 2.456888 1_555
O40 Sr11 2.456888 1_555
O41 Sr10 2.456888 1_555
O42 Sr11 2.456888 1_555
O43 Sr10 2.456888 1_555
O44 Sr9 2.456888 1_555
O45 Sr8 2.456888 1_555
O46 Sr9 2.456888 1_555
O47 Sr8 2.456888 1_555
