# generated using pymatgen
data_BaSi2
_symmetry_space_group_name_H-M   'P 1'
_cell_length_a   4.12294137
_cell_length_b   4.12294112
_cell_length_c   5.13888107
_cell_angle_alpha   90.00000000
_cell_angle_beta   90.00000000
_cell_angle_gamma   120.00001014
_symmetry_Int_Tables_number   1
_chemical_formula_structural   BaSi2
_chemical_formula_sum   'Ba1 Si2'
_cell_volume   75.65078613
_cell_formula_units_Z   1
loop_
 _symmetry_equiv_pos_site_id
 _symmetry_equiv_pos_as_xyz
  1  'x, y, z'
loop_
 _atom_site_type_symbol
 _atom_site_label
 _atom_site_symmetry_multiplicity
 _atom_site_fract_x
 _atom_site_fract_y
 _atom_site_fract_z
 _atom_site_occupancy
  Ba  Ba0  1  0.00000000  0.00000000  -0.00000000  1
  Si  Si0  1  0.66666700  0.33333300  0.50000000  1
  Si  Si1  1  0.33333300  0.66666700  0.50000000  1
loop_
_geom_bond_atom_site_label_1
_geom_bond_atom_site_label_2
_geom_bond_distance
_geom_bond_site_symmetry_2
Ba0 Si1 3.502603 1_544
Ba0 Si1 3.502603 1_545
Ba0 Si0 3.502603 1_455
Ba0 Si0 3.502603 1_454
Ba0 Si1 3.502605 1_555
Ba0 Si1 3.502605 1_554
Ba0 Si0 3.502605 1_444
Ba0 Si0 3.502605 1_445
Ba0 Si1 3.502605 1_444
Ba0 Si1 3.502605 1_445
Ba0 Si0 3.502605 1_555
Ba0 Si0 3.502605 1_554
Si0 Si1 2.380379 1_545
Si0 Si1 2.380379 1_655
Si0 Si1 2.380386 1_555
