# generated using pymatgen
data_LiMnP2(HO4)2
_symmetry_space_group_name_H-M   'P 1'
_cell_length_a   9.47673580
_cell_length_b   9.47673580
_cell_length_c   8.84384402
_cell_angle_alpha   72.41213544
_cell_angle_beta   72.41213544
_cell_angle_gamma   114.32638321
_symmetry_Int_Tables_number   1
_chemical_formula_structural   LiMnP2(HO4)2
_chemical_formula_sum   'Li4 Mn4 P8 H8 O32'
_cell_volume   600.94836129
_cell_formula_units_Z   4
loop_
 _symmetry_equiv_pos_site_id
 _symmetry_equiv_pos_as_xyz
  1  'x, y, z'
loop_
 _atom_site_type_symbol
 _atom_site_label
 _atom_site_symmetry_multiplicity
 _atom_site_fract_x
 _atom_site_fract_y
 _atom_site_fract_z
 _atom_site_occupancy
  Li  Li0  1  0.87485200  0.21654400  0.34785900  1
  Li  Li1  1  0.40303100  0.78996100  0.30935500  1
  Li  Li2  1  0.21654400  0.87485200  0.84785900  1
  Li  Li3  1  0.78996100  0.40303100  0.80935500  1
  Mn  Mn0  1  0.36341000  0.58525000  0.03684500  1
  Mn  Mn1  1  0.58525000  0.36341000  0.53684500  1
  Mn  Mn2  1  0.13598300  0.85733700  0.50898300  1
  Mn  Mn3  1  0.85733700  0.13598300  0.00898300  1
  P  P0  1  0.16190700  0.14952000  0.16051000  1
  P  P1  1  0.04256600  0.58139400  0.31259600  1
  P  P2  1  0.14952000  0.16190700  0.66051000  1
  P  P3  1  0.56671900  0.18455600  0.25339400  1
  P  P4  1  0.58139400  0.04256600  0.81259600  1
  P  P5  1  0.18455600  0.56671900  0.75339400  1
  P  P6  1  0.64722400  0.69329500  0.18648400  1
  P  P7  1  0.69329500  0.64722400  0.68648400  1
  H  H0  1  0.48850000  0.33137000  0.09209600  1
  H  H1  1  0.21632400  0.35119800  0.39886600  1
  H  H2  1  0.33137000  0.48850000  0.59209600  1
  H  H3  1  0.35119800  0.21632400  0.89886600  1
  H  H4  1  0.91369900  0.68011600  0.18924500  1
  H  H5  1  0.86188700  0.87547700  0.41774300  1
  H  H6  1  0.68011600  0.91369900  0.68924500  1
  H  H7  1  0.87547700  0.86188700  0.91774300  1
  O  O0  1  0.00468600  0.15816900  0.16075600  1
  O  O1  1  0.24427700  0.10783700  0.00867500  1
  O  O2  1  0.08011300  0.98295500  0.34639200  1
  O  O3  1  0.39877600  0.99991000  0.32895100  1
  O  O4  1  0.31216600  0.31929500  0.13377500  1
  O  O5  1  0.15816900  0.00468600  0.66075600  1
  O  O6  1  0.10783700  0.24427700  0.50867500  1
  O  O7  1  0.03565400  0.70561700  0.14606800  1
  O  O8  1  0.98295500  0.08011300  0.84639200  1
  O  O9  1  0.13123300  0.49414400  0.23380500  1
  O  O10  1  0.59799900  0.32444200  0.07215400  1
  O  O11  1  0.73385900  0.17703500  0.19753100  1
  O  O12  1  0.55239000  0.24839300  0.39131000  1
  O  O13  1  0.99991000  0.39877600  0.82895100  1
  O  O14  1  0.14974800  0.69429100  0.37673000  1
  O  O15  1  0.31929500  0.31216600  0.63377500  1
  O  O16  1  0.45872000  0.58058100  0.21471800  1
  O  O17  1  0.70561700  0.03565400  0.64606800  1
  O  O18  1  0.49414400  0.13123300  0.73380500  1
  O  O19  1  0.32444200  0.59799900  0.57215400  1
  O  O20  1  0.79754300  0.73223200  0.00904600  1
  O  O21  1  0.17703500  0.73385900  0.69753100  1
  O  O22  1  0.67297800  0.59297400  0.33856600  1
  O  O23  1  0.24839300  0.55239000  0.89131000  1
  O  O24  1  0.69429100  0.14974800  0.87673000  1
  O  O25  1  0.85078800  0.43094600  0.45968200  1
  O  O26  1  0.58058100  0.45872000  0.71471800  1
  O  O27  1  0.67435400  0.86996600  0.17497200  1
  O  O28  1  0.73223200  0.79754300  0.50904600  1
  O  O29  1  0.59297400  0.67297800  0.83856600  1
  O  O30  1  0.43094600  0.85078800  0.95968200  1
  O  O31  1  0.86996600  0.67435400  0.67497200  1
loop_
_geom_bond_atom_site_label_1
_geom_bond_atom_site_label_2
_geom_bond_distance
_geom_bond_site_symmetry_2
Li0 O0 2.107503 1_655
Li0 O11 2.157591 1_555
Li0 O17 2.216482 1_555
Li0 O9 2.343234 1_655
Li0 O25 2.572575 1_555
Li1 O14 1.988653 1_555
Li1 O3 2.064110 1_555
Li1 O19 2.132674 1_555
Li1 O27 2.145045 1_555
Li1 O16 2.552578 1_555
Li2 O5 2.107503 1_565
Li2 O21 2.157591 1_555
Li2 O7 2.216482 1_556
Li2 O18 2.343234 1_565
Li2 O30 2.572575 1_555
Li3 O24 1.988653 1_555
Li3 O13 2.064110 1_555
Li3 O10 2.132674 1_556
Li3 O31 2.145045 1_555
Li3 O26 2.552578 1_555
Mn0 O23 1.937020 1_554
Mn0 O29 1.955092 1_554
Mn0 O9 1.957207 1_555
Mn0 O16 2.035165 1_555
Mn0 O30 2.139885 1_554
Mn0 O4 2.181136 1_555
Mn1 O12 1.937020 1_555
Mn1 O22 1.955092 1_555
Mn1 O18 1.957207 1_555
Mn1 O26 2.035165 1_555
Mn1 O25 2.139885 1_555
Mn1 O15 2.181136 1_555
Mn2 O2 1.926146 1_555
Mn2 O21 1.972070 1_555
Mn2 O3 2.023407 1_555
Mn2 O31 2.034902 1_455
Mn2 O5 2.203892 1_565
Mn2 O14 2.222283 1_555
Mn3 O8 1.926146 1_554
Mn3 O11 1.972070 1_555
Mn3 O13 2.023407 1_554
Mn3 O27 2.034902 1_545
Mn3 O0 2.203892 1_655
Mn3 O24 2.222283 1_554
H0 O10 1.031867 1_555
H0 O4 1.544720 1_555
H1 O6 0.985131 1_555
H2 O19 1.031867 1_555
H2 O15 1.544720 1_555
H3 O1 0.985131 1_556
H4 O7 0.993658 1_655
H5 O28 0.999783 1_555
H5 O2 1.673334 1_655
H6 O17 0.993658 1_565
H7 O20 0.999783 1_556
H7 O8 1.673334 1_565
O0 P0 1.524930 1_555
O1 P0 1.584184 1_555
O2 P0 1.564802 1_565
O3 P3 1.548454 1_565
O4 P0 1.533396 1_555
O5 P2 1.524930 1_555
O6 P2 1.584184 1_555
O7 P1 1.622714 1_555
O8 P2 1.564802 1_655
O9 P1 1.562701 1_555
O10 P3 1.587258 1_555
O11 P3 1.549002 1_555
O12 P3 1.511829 1_555
O13 P5 1.548454 1_655
O14 P1 1.522392 1_555
O15 P2 1.533396 1_555
O16 P6 1.546518 1_555
O17 P4 1.622714 1_555
O18 P4 1.562701 1_555
O19 P5 1.587258 1_555
O20 P6 1.579241 1_555
O21 P5 1.549002 1_555
O22 P6 1.545706 1_555
O23 P5 1.511829 1_555
O24 P4 1.522392 1_555
O25 P1 1.530871 1_655
O26 P7 1.546518 1_555
O27 P6 1.551178 1_555
O28 P7 1.579241 1_555
O29 P7 1.545706 1_555
O30 P4 1.530871 1_565
O31 P7 1.551178 1_555
