# generated using pymatgen
data_Te(WO4)3
_symmetry_space_group_name_H-M   'P 1'
_cell_length_a   5.14005289
_cell_length_b   5.31290741
_cell_length_c   7.38127163
_cell_angle_alpha   87.52601737
_cell_angle_beta   90.00235380
_cell_angle_gamma   90.01126467
_symmetry_Int_Tables_number   1
_chemical_formula_structural   Te(WO4)3
_chemical_formula_sum   'Te1 W3 O12'
_cell_volume   201.38449517
_cell_formula_units_Z   1
loop_
 _symmetry_equiv_pos_site_id
 _symmetry_equiv_pos_as_xyz
  1  'x, y, z'
loop_
 _atom_site_type_symbol
 _atom_site_label
 _atom_site_symmetry_multiplicity
 _atom_site_fract_x
 _atom_site_fract_y
 _atom_site_fract_z
 _atom_site_occupancy
  Te  Te0  1  0.49914936  0.49835451  0.49882027  1
  W  W0  1  0.00474494  -0.00242455  0.51946048  1
  W  W1  1  0.49401252  0.53938828  0.99870263  1
  W  W2  1  0.00087063  0.03985348  0.01941559  1
  O  O0  1  0.70838094  0.20885186  0.55016709  1
  O  O1  1  0.90646170  0.00479195  0.25431051  1
  O  O2  1  0.70385314  0.80662973  0.95501390  1
  O  O3  1  0.78977923  0.70773514  0.54961502  1
  O  O4  1  0.19861600  0.70868069  0.04562598  1
  O  O5  1  0.59670056  0.50377721  0.24971468  1
  O  O6  1  0.40542254  0.49902418  0.75015568  1
  O  O7  1  0.79875138  0.30705329  0.95601076  1
  O  O8  1  0.20785613  0.29016008  0.45171154  1
  O  O9  1  0.30205263  0.20875322  0.04779452  1
  O  O10  1  0.09208975  -0.00208727  0.75542012  1
  O  O11  1  0.29125957  0.79106020  0.45286422  1
loop_
_geom_bond_atom_site_label_1
_geom_bond_atom_site_label_2
_geom_bond_distance
_geom_bond_site_symmetry_2
O0 Te0 1.901659 1_555
O0 W0 1.911688 1_655
O1 W2 1.802353 1_655
O1 W0 2.020034 1_655
O2 W1 1.800879 1_555
O2 W2 2.035227 1_666
O3 W0 1.900384 1_665
O3 Te0 1.909176 1_555
O4 W1 1.806050 1_554
O4 W2 2.034121 1_565
O5 Te0 1.904895 1_555
O5 W1 1.927929 1_554
O6 W1 1.911263 1_555
O6 Te0 1.916879 1_555
O7 W2 1.804667 1_656
O7 W1 2.027533 1_555
O8 Te0 1.902292 1_555
O8 W0 1.920599 1_555
O9 W2 1.805922 1_555
O9 W1 2.033472 1_554
O10 W0 1.798674 1_555
O10 W2 2.025888 1_556
O11 Te0 1.905353 1_555
O11 W0 1.913525 1_565
