# generated using pymatgen
data_LiCr3P4O15
_symmetry_space_group_name_H-M   'P 1'
_cell_length_a   10.49911000
_cell_length_b   6.44298600
_cell_length_c   17.28306645
_cell_angle_alpha   89.74628159
_cell_angle_beta   90.00000000
_cell_angle_gamma   90.00000000
_symmetry_Int_Tables_number   1
_chemical_formula_structural   LiCr3P4O15
_chemical_formula_sum   'Li4 Cr12 P16 O60'
_cell_volume   1169.11226123
_cell_formula_units_Z   4
loop_
 _symmetry_equiv_pos_site_id
 _symmetry_equiv_pos_as_xyz
  1  'x, y, z'
loop_
 _atom_site_type_symbol
 _atom_site_label
 _atom_site_symmetry_multiplicity
 _atom_site_fract_x
 _atom_site_fract_y
 _atom_site_fract_z
 _atom_site_occupancy
  Li  Li0  1  0.29406800  0.21356700  0.02003200  1
  Li  Li1  1  0.21194300  0.82313400  0.50145500  1
  Li  Li2  1  0.70593200  0.21356700  0.52003200  1
  Li  Li3  1  0.78805700  0.82313400  0.00145500  1
  Cr  Cr0  1  0.73894500  0.57954200  0.13607700  1
  Cr  Cr1  1  0.25240900  0.60569500  0.16551500  1
  Cr  Cr2  1  0.98767900  0.31546900  0.24657600  1
  Cr  Cr3  1  0.48887600  0.81331800  0.25115600  1
  Cr  Cr4  1  0.75290100  0.10154600  0.33380100  1
  Cr  Cr5  1  0.24039200  0.08156300  0.36587300  1
  Cr  Cr6  1  0.26105500  0.57954200  0.63607700  1
  Cr  Cr7  1  0.74759100  0.60569500  0.66551500  1
  Cr  Cr8  1  0.01232100  0.31546900  0.74657600  1
  Cr  Cr9  1  0.51112400  0.81331800  0.75115600  1
  Cr  Cr10  1  0.24709900  0.10154600  0.83380100  1
  Cr  Cr11  1  0.75960800  0.08156300  0.86587300  1
  P  P0  1  0.47879500  0.63302800  0.05223500  1
  P  P1  1  0.00798600  0.47761300  0.07062800  1
  P  P2  1  0.72936700  0.08202200  0.17557800  1
  P  P3  1  0.25158100  0.09796100  0.20525000  1
  P  P4  1  0.75031200  0.59581000  0.29578100  1
  P  P5  1  0.23014500  0.57769400  0.32447600  1
  P  P6  1  0.51241900  0.95737900  0.42781200  1
  P  P7  1  0.97320900  0.15189200  0.44925100  1
  P  P8  1  0.52120500  0.63302800  0.55223500  1
  P  P9  1  0.99201400  0.47761300  0.57062800  1
  P  P10  1  0.27063300  0.08202200  0.67557800  1
  P  P11  1  0.74841900  0.09796100  0.70525000  1
  P  P12  1  0.24968800  0.59581000  0.79578100  1
  P  P13  1  0.76985500  0.57769400  0.82447600  1
  P  P14  1  0.48758100  0.95737900  0.92781200  1
  P  P15  1  0.02679100  0.15189200  0.94925100  1
  O  O0  1  0.39821600  0.46183300  0.02259300  1
  O  O1  1  0.44635600  0.84798200  0.00693700  1
  O  O2  1  0.62393200  0.61121800  0.04625800  1
  O  O3  1  0.88099900  0.59482200  0.06150400  1
  O  O4  1  0.12204300  0.61663900  0.08416800  1
  O  O5  1  0.99891100  0.30471600  0.13234600  1
  O  O6  1  0.74633000  0.89406600  0.12401800  1
  O  O7  1  0.70340900  0.27727600  0.12989000  1
  O  O8  1  0.43847000  0.69144700  0.13742100  1
  O  O9  1  0.23361200  0.91192400  0.15405000  1
  O  O10  1  0.27748900  0.29232800  0.15719100  1
  O  O11  1  0.62377100  0.04226000  0.24054100  1
  O  O12  1  0.84757800  0.10669500  0.23235500  1
  O  O13  1  0.63350300  0.61633500  0.23647800  1
  O  O14  1  0.85683300  0.54635000  0.23205800  1
  O  O15  1  0.35921100  0.05230700  0.26830800  1
  O  O16  1  0.13525800  0.12128600  0.26358400  1
  O  O17  1  0.34661000  0.60815000  0.26691900  1
  O  O18  1  0.12241600  0.54824700  0.26003800  1
  O  O19  1  0.78064000  0.79320700  0.33885800  1
  O  O20  1  0.73008900  0.40808500  0.34650900  1
  O  O21  1  0.93848200  0.19514300  0.36183200  1
  O  O22  1  0.21054400  0.77076500  0.37350100  1
  O  O23  1  0.24636900  0.38765600  0.37485600  1
  O  O24  1  0.51006600  0.79614600  0.36284300  1
  O  O25  1  0.62022500  0.11429400  0.41695100  1
  O  O26  1  0.38022400  0.05180400  0.44228400  1
  O  O27  1  0.11209000  0.07320600  0.45302300  1
  O  O28  1  0.97164100  0.38309900  0.48610800  1
  O  O29  1  0.87097200  0.03060600  0.48856400  1
  O  O30  1  0.60178400  0.46183300  0.52259300  1
  O  O31  1  0.55364400  0.84798200  0.50693700  1
  O  O32  1  0.37606800  0.61121800  0.54625800  1
  O  O33  1  0.11900100  0.59482200  0.56150400  1
  O  O34  1  0.87795700  0.61663900  0.58416800  1
  O  O35  1  0.00108900  0.30471600  0.63234600  1
  O  O36  1  0.25367000  0.89406600  0.62401800  1
  O  O37  1  0.29659100  0.27727600  0.62989000  1
  O  O38  1  0.56153000  0.69144700  0.63742100  1
  O  O39  1  0.76638800  0.91192400  0.65405000  1
  O  O40  1  0.72251100  0.29232800  0.65719100  1
  O  O41  1  0.37622900  0.04226000  0.74054100  1
  O  O42  1  0.15242200  0.10669500  0.73235500  1
  O  O43  1  0.36649700  0.61633500  0.73647800  1
  O  O44  1  0.14316700  0.54635000  0.73205800  1
  O  O45  1  0.64078900  0.05230700  0.76830800  1
  O  O46  1  0.86474200  0.12128600  0.76358400  1
  O  O47  1  0.65339000  0.60815000  0.76691900  1
  O  O48  1  0.87758400  0.54824700  0.76003800  1
  O  O49  1  0.21936000  0.79320700  0.83885800  1
  O  O50  1  0.26991100  0.40808500  0.84650900  1
  O  O51  1  0.06151800  0.19514300  0.86183200  1
  O  O52  1  0.78945600  0.77076500  0.87350100  1
  O  O53  1  0.75363100  0.38765600  0.87485600  1
  O  O54  1  0.48993400  0.79614600  0.86284300  1
  O  O55  1  0.37977500  0.11429400  0.91695100  1
  O  O56  1  0.61977600  0.05180400  0.94228400  1
  O  O57  1  0.88791000  0.07320600  0.95302300  1
  O  O58  1  0.02835900  0.38309900  0.98610800  1
  O  O59  1  0.12902800  0.03060600  0.98856400  1
loop_
_geom_bond_atom_site_label_1
_geom_bond_atom_site_label_2
_geom_bond_distance
_geom_bond_site_symmetry_2
Li0 O0 1.938268 1_555
Li0 O55 2.098300 1_554
Li0 O59 2.166466 1_554
Li0 O10 2.432667 1_555
Li1 O33 2.044419 1_555
Li1 O27 2.093750 1_565
Li1 O36 2.212783 1_555
Li1 O22 2.238555 1_555
Li1 O32 2.328899 1_555
Li1 O26 2.514902 1_565
Li2 O30 1.938268 1_555
Li2 O25 2.098300 1_555
Li2 O29 2.166466 1_555
Li2 O40 2.432667 1_555
Li3 O3 2.044419 1_555
Li3 O57 2.093750 1_564
Li3 O6 2.212783 1_555
Li3 O52 2.238555 1_554
Li3 O2 2.328899 1_555
Li3 O56 2.514902 1_564
Cr0 O3 1.973347 1_555
Cr0 O2 1.976555 1_555
Cr0 O7 1.986257 1_555
Cr0 O6 2.037720 1_555
Cr0 O13 2.072786 1_555
Cr0 O14 2.079979 1_555
Cr1 O4 1.963195 1_555
Cr1 O9 1.991882 1_555
Cr1 O17 2.012505 1_555
Cr1 O10 2.041824 1_555
Cr1 O8 2.086792 1_555
Cr1 O18 2.159435 1_555
Cr2 O5 1.979283 1_555
Cr2 O12 2.009069 1_555
Cr2 O16 2.012271 1_655
Cr2 O14 2.039542 1_555
Cr2 O18 2.075506 1_655
Cr2 O21 2.195933 1_555
Cr3 O24 1.945734 1_555
Cr3 O13 1.995914 1_555
Cr3 O17 2.012331 1_555
Cr3 O11 2.052543 1_565
Cr3 O15 2.077554 1_565
Cr3 O8 2.185003 1_555
Cr4 O20 2.002542 1_555
Cr4 O25 2.003348 1_555
Cr4 O19 2.009376 1_545
Cr4 O12 2.015620 1_555
Cr4 O21 2.096987 1_555
Cr4 O11 2.141817 1_555
Cr5 O23 1.979934 1_555
Cr5 O26 1.983406 1_555
Cr5 O27 2.021247 1_555
Cr5 O22 2.030547 1_545
Cr5 O16 2.098870 1_555
Cr5 O15 2.106640 1_555
Cr6 O33 1.973347 1_555
Cr6 O32 1.976555 1_555
Cr6 O37 1.986257 1_555
Cr6 O36 2.037720 1_555
Cr6 O43 2.072786 1_555
Cr6 O44 2.079979 1_555
Cr7 O34 1.963195 1_555
Cr7 O39 1.991882 1_555
Cr7 O47 2.012505 1_555
Cr7 O40 2.041824 1_555
Cr7 O38 2.086792 1_555
Cr7 O48 2.159435 1_555
Cr8 O35 1.979283 1_555
Cr8 O42 2.009069 1_555
Cr8 O46 2.012271 1_455
Cr8 O44 2.039542 1_555
Cr8 O48 2.075506 1_455
Cr8 O51 2.195933 1_555
Cr9 O54 1.945734 1_555
Cr9 O43 1.995914 1_555
Cr9 O47 2.012331 1_555
Cr9 O41 2.052543 1_565
Cr9 O45 2.077554 1_565
Cr9 O38 2.185003 1_555
Cr10 O50 2.002542 1_555
Cr10 O55 2.003348 1_555
Cr10 O49 2.009376 1_545
Cr10 O42 2.015620 1_555
Cr10 O51 2.096987 1_555
Cr10 O41 2.141817 1_555
Cr11 O53 1.979934 1_555
Cr11 O56 1.983406 1_555
Cr11 O57 2.021247 1_555
Cr11 O52 2.030547 1_545
Cr11 O46 2.098870 1_555
Cr11 O45 2.106640 1_555
O0 P0 1.483177 1_555
O1 P14 1.595532 1_554
O1 P0 1.624002 1_555
O2 P0 1.533799 1_555
O3 P1 1.540019 1_655
O4 P1 1.514256 1_555
O5 P1 1.541846 1_655
O6 P2 1.517194 1_565
O7 P2 1.507184 1_555
O8 P0 1.579057 1_555
O9 P3 1.504907 1_565
O10 P3 1.524123 1_555
O11 P2 1.597751 1_555
O12 P2 1.590572 1_555
O13 P4 1.603377 1_555
O14 P4 1.602607 1_555
O15 P3 1.596361 1_555
O16 P3 1.591200 1_555
O17 P5 1.587928 1_555
O18 P5 1.599205 1_555
O19 P4 1.510497 1_555
O20 P4 1.505745 1_555
O21 P7 1.577842 1_555
O22 P5 1.522179 1_555
O23 P5 1.508944 1_555
O24 P6 1.533269 1_555
O25 P6 1.528660 1_545
O26 P6 1.536354 1_545
O27 P7 1.545028 1_455
O28 P9 1.599465 1_555
O28 P7 1.622820 1_555
O29 P7 1.489895 1_555
O30 P8 1.483177 1_555
O31 P6 1.595532 1_555
O31 P8 1.624002 1_555
O32 P8 1.533799 1_555
O33 P9 1.540019 1_455
O34 P9 1.514256 1_555
O35 P9 1.541846 1_455
O36 P10 1.517194 1_565
O37 P10 1.507184 1_555
O38 P8 1.579057 1_555
O39 P11 1.504907 1_565
O40 P11 1.524123 1_555
O41 P10 1.597751 1_555
O42 P10 1.590572 1_555
O43 P12 1.603377 1_555
O44 P12 1.602607 1_555
O45 P11 1.596361 1_555
O46 P11 1.591200 1_555
O47 P13 1.587928 1_555
O48 P13 1.599205 1_555
O49 P12 1.510497 1_555
O50 P12 1.505745 1_555
O51 P15 1.577842 1_555
O52 P13 1.522179 1_555
O53 P13 1.508944 1_555
O54 P14 1.533269 1_555
O55 P14 1.528660 1_545
O56 P14 1.536354 1_545
O57 P15 1.545028 1_655
O58 P1 1.599465 1_556
O58 P15 1.622820 1_555
O59 P15 1.489895 1_555
