# generated using pymatgen
data_Li3V2(FeO4)2
_symmetry_space_group_name_H-M   'P 1'
_cell_length_a   5.70308093
_cell_length_b   5.70836817
_cell_length_c   5.81730808
_cell_angle_alpha   59.44976899
_cell_angle_beta   59.57447452
_cell_angle_gamma   89.09173907
_symmetry_Int_Tables_number   1
_chemical_formula_structural   Li3V2(FeO4)2
_chemical_formula_sum   'Li3 V2 Fe2 O8'
_cell_volume   132.98594110
_cell_formula_units_Z   1
loop_
 _symmetry_equiv_pos_site_id
 _symmetry_equiv_pos_as_xyz
  1  'x, y, z'
loop_
 _atom_site_type_symbol
 _atom_site_label
 _atom_site_symmetry_multiplicity
 _atom_site_fract_x
 _atom_site_fract_y
 _atom_site_fract_z
 _atom_site_occupancy
  Li  Li0  1  0.00000000  0.50000000  0.00000000  1
  Li  Li1  1  0.50000000  0.00000000  0.50000000  1
  Li  Li2  1  0.50000000  0.50000000  0.00000000  1
  V  V0  1  0.00000000  0.50000000  0.50000000  1
  V  V1  1  0.50000000  0.00000000  0.00000000  1
  Fe  Fe0  1  0.00000000  0.00000000  0.50000000  1
  Fe  Fe1  1  0.00000000  0.00000000  0.00000000  1
  O  O0  1  0.24310900  0.75844500  0.48711500  1
  O  O1  1  0.76796200  0.77651200  0.97289500  1
  O  O2  1  0.22300200  0.23056500  0.52040100  1
  O  O3  1  0.24563500  0.75345200  0.00975500  1
  O  O4  1  0.75436500  0.24654800  0.99024500  1
  O  O5  1  0.77699800  0.76943500  0.47959900  1
  O  O6  1  0.23203800  0.22348800  0.02710500  1
  O  O7  1  0.75689100  0.24155500  0.51288500  1
loop_
_geom_bond_atom_site_label_1
_geom_bond_atom_site_label_2
_geom_bond_distance
_geom_bond_site_symmetry_2
Li0 O6 2.039515 1_555
Li0 O1 2.039515 1_454
Li0 O3 2.070540 1_555
Li0 O4 2.070540 1_454
Li0 O7 2.097873 1_455
Li0 O0 2.097873 1_554
Li1 O5 2.035904 1_545
Li1 O2 2.035904 1_555
Li1 O7 2.081757 1_555
Li1 O0 2.081757 1_545
Li1 O3 2.084175 1_546
Li1 O4 2.084175 1_554
Li2 O4 2.033326 1_554
Li2 O3 2.033326 1_555
Li2 O1 2.105026 1_554
Li2 O6 2.105026 1_555
Li2 O5 2.127379 1_554
Li2 O2 2.127379 1_555
Fe0 O2 1.930942 1_555
Fe0 O5 1.930942 1_445
Fe0 O1 1.935247 1_445
Fe0 O6 1.935247 1_555
Fe0 O7 1.941248 1_455
Fe0 O0 1.941248 1_545
Fe1 O5 1.964684 1_445
Fe1 O2 1.964684 1_554
Fe1 O6 1.967986 1_555
Fe1 O1 1.967986 1_444
Fe1 O3 1.970592 1_545
Fe1 O4 1.970592 1_454
O0 V0 1.987863 1_555
O0 V1 1.991139 1_565
O1 V1 1.971410 1_566
O2 V0 1.975451 1_555
O3 V1 1.997133 1_565
O3 V0 2.003068 1_555
O4 V1 1.997133 1_556
O4 V0 2.003068 1_655
O5 V0 1.975451 1_655
O6 V1 1.971410 1_555
O7 V0 1.987863 1_655
O7 V1 1.991139 1_556
