# generated using pymatgen
data_BaLaBr5
_symmetry_space_group_name_H-M   'P 1'
_cell_length_a   4.49657400
_cell_length_b   8.20850200
_cell_length_c   14.27523748
_cell_angle_alpha   86.69244240
_cell_angle_beta   90.00000000
_cell_angle_gamma   90.00000000
_symmetry_Int_Tables_number   1
_chemical_formula_structural   BaLaBr5
_chemical_formula_sum   'Ba2 La2 Br10'
_cell_volume   526.02326256
_cell_formula_units_Z   2
loop_
 _symmetry_equiv_pos_site_id
 _symmetry_equiv_pos_as_xyz
  1  'x, y, z'
loop_
 _atom_site_type_symbol
 _atom_site_label
 _atom_site_symmetry_multiplicity
 _atom_site_fract_x
 _atom_site_fract_y
 _atom_site_fract_z
 _atom_site_occupancy
  Ba  Ba0  1  0.75000000  0.54534300  0.65388600  1
  Ba  Ba1  1  0.25000000  0.45465700  0.34611400  1
  La  La0  1  0.25000000  0.95539700  0.84407300  1
  La  La1  1  0.75000000  0.04460300  0.15592700  1
  Br  Br0  1  0.75000000  0.95691300  0.69274600  1
  Br  Br1  1  0.25000000  0.85619500  0.06218500  1
  Br  Br2  1  0.25000000  0.70007700  0.51925200  1
  Br  Br3  1  0.75000000  0.68652000  0.88272800  1
  Br  Br4  1  0.75000000  0.69907400  0.25245500  1
  Br  Br5  1  0.25000000  0.30092600  0.74754500  1
  Br  Br6  1  0.25000000  0.31348000  0.11727200  1
  Br  Br7  1  0.75000000  0.29992300  0.48074800  1
  Br  Br8  1  0.75000000  0.14380500  0.93781500  1
  Br  Br9  1  0.25000000  0.04308700  0.30725400  1
loop_
_geom_bond_atom_site_label_1
_geom_bond_atom_site_label_2
_geom_bond_distance
_geom_bond_site_symmetry_2
Ba0 Br2 3.174929 1_555
Ba0 Br2 3.174929 1_655
Ba0 Br5 3.249319 1_555
Ba0 Br5 3.249319 1_655
Ba0 Br7 3.277440 1_555
Ba0 Br0 3.455053 1_555
Ba0 Br3 3.528681 1_555
Ba1 Br7 3.174929 1_455
Ba1 Br7 3.174929 1_555
Ba1 Br4 3.249319 1_455
Ba1 Br4 3.249319 1_555
Ba1 Br2 3.277440 1_555
Ba1 Br9 3.455053 1_555
Ba1 Br6 3.528681 1_555
Br0 La0 3.117441 1_555
Br0 La0 3.117441 1_655
Br1 La1 3.078338 1_465
Br1 La1 3.078338 1_565
Br1 La0 3.172543 1_554
Br3 La0 3.176467 1_655
Br3 La0 3.176467 1_555
Br4 La1 3.080950 1_565
Br5 La0 3.080950 1_545
Br6 La1 3.176467 1_555
Br6 La1 3.176467 1_455
Br8 La0 3.078338 1_545
Br8 La0 3.078338 1_645
Br8 La1 3.172543 1_556
Br9 La1 3.117441 1_555
Br9 La1 3.117441 1_455
