# generated using pymatgen
data_LiMnVP2(HO5)2
_symmetry_space_group_name_H-M   'P 1'
_cell_length_a   7.35191000
_cell_length_b   8.11841086
_cell_length_c   10.11205768
_cell_angle_alpha   111.23411193
_cell_angle_beta   103.40058149
_cell_angle_gamma   94.72497997
_symmetry_Int_Tables_number   1
_chemical_formula_structural   LiMnVP2(HO5)2
_chemical_formula_sum   'Li3 Mn3 V3 P6 H6 O30'
_cell_volume   537.96973323
_cell_formula_units_Z   3
loop_
 _symmetry_equiv_pos_site_id
 _symmetry_equiv_pos_as_xyz
  1  'x, y, z'
loop_
 _atom_site_type_symbol
 _atom_site_label
 _atom_site_symmetry_multiplicity
 _atom_site_fract_x
 _atom_site_fract_y
 _atom_site_fract_z
 _atom_site_occupancy
  Li  Li0  1  0.01070700  0.76595200  0.16259600  1
  Li  Li1  1  0.65627600  0.56913400  0.50444300  1
  Li  Li2  1  0.98833200  0.23380200  0.83704600  1
  Mn  Mn0  1  0.33483200  0.66814900  0.33358800  1
  Mn  Mn1  1  0.66007700  0.33256700  0.66569400  1
  Mn  Mn2  1  0.00191400  0.00168800  0.00085100  1
  V  V0  1  0.17256900  0.83385600  0.66570500  1
  V  V1  1  0.83171900  0.16563300  0.33290700  1
  V  V2  1  0.49884300  0.49938700  0.99972900  1
  P  P0  1  0.75799000  0.92357600  0.52508700  1
  P  P1  1  0.91274500  0.41030700  0.14080700  1
  P  P2  1  0.42163400  0.25759600  0.19287400  1
  P  P3  1  0.58278300  0.74442500  0.80759200  1
  P  P4  1  0.08591200  0.59048700  0.85933700  1
  P  P5  1  0.24326800  0.07666500  0.47375000  1
  H  H0  1  0.74452700  0.89758900  0.08974400  1
  H  H1  1  0.57320600  0.77716800  0.23749600  1
  H  H2  1  0.09483000  0.55554200  0.42873200  1
  H  H3  1  0.91873800  0.43591300  0.57776500  1
  H  H4  1  0.42367500  0.22289800  0.76253700  1
  H  H5  1  0.25645000  0.10234500  0.90953400  1
  O  O0  1  0.20881600  0.90011000  0.34150800  1
  O  O1  1  0.86985700  0.97600900  0.14965200  1
  O  O2  1  0.10353600  0.53675300  0.17633900  1
  O  O3  1  0.46393900  0.67505900  0.18362000  1
  O  O4  1  0.76231300  0.95199800  0.38028800  1
  O  O5  1  0.76219500  0.52883800  0.10903100  1
  O  O6  1  0.43330300  0.28945100  0.04955700  1
  O  O7  1  0.20371900  0.65763500  0.48255300  1
  O  O8  1  0.56505500  0.80273100  0.49339800  1
  O  O9  1  0.22629800  0.14374600  0.15864300  1
  O  O10  1  0.45616400  0.43376000  0.32542300  1
  O  O11  1  0.88955900  0.23881200  0.00602900  1
  O  O12  1  0.42358100  0.85470700  0.77520900  1
  O  O13  1  0.90633300  0.80398000  0.55788700  1
  O  O14  1  0.09565900  0.62536200  0.71868600  1
  O  O15  1  0.90369800  0.37658600  0.28197600  1
  O  O16  1  0.08576700  0.18824900  0.44058600  1
  O  O17  1  0.57870800  0.14567100  0.22623200  1
  O  O18  1  0.10933100  0.76169200  0.99438400  1
  O  O19  1  0.55944200  0.57372800  0.67191300  1
  O  O20  1  0.77618800  0.86374700  0.84532800  1
  O  O21  1  0.43884300  0.18912200  0.50687800  1
  O  O22  1  0.79344600  0.35724500  0.51701200  1
  O  O23  1  0.56749300  0.70713000  0.94743800  1
  O  O24  1  0.23634600  0.47176300  0.89097400  1
  O  O25  1  0.23241800  0.04513600  0.61726200  1
  O  O26  1  0.53294500  0.32449700  0.81564000  1
  O  O27  1  0.89516600  0.46279500  0.82227700  1
  O  O28  1  0.13089600  0.02385000  0.85004300  1
  O  O29  1  0.79285100  0.10131100  0.65584700  1
loop_
_geom_bond_atom_site_label_1
_geom_bond_atom_site_label_2
_geom_bond_distance
_geom_bond_site_symmetry_2
Li0 O0 1.915892 1_555
Li0 O18 1.988319 1_554
Li0 O2 2.073634 1_555
Li0 O1 2.094602 1_455
Li0 O5 2.354495 1_455
Li1 O10 1.925454 1_555
Li1 O19 1.973191 1_555
Li1 O22 2.092127 1_555
Li1 O8 2.094505 1_555
Li1 O13 2.349997 1_555
Li2 O29 1.917507 1_555
Li2 O11 1.994627 1_556
Li2 O27 2.076304 1_555
Li2 O28 2.100904 1_655
Li2 O24 2.355816 1_655
Mn0 O2 1.943483 1_555
Mn0 O8 1.954130 1_555
Mn0 O3 1.980875 1_555
Mn0 O7 1.989504 1_555
Mn0 O10 2.150208 1_555
Mn0 O0 2.150252 1_555
Mn1 O21 1.924383 1_555
Mn1 O27 1.957026 1_555
Mn1 O26 1.973753 1_555
Mn1 O22 2.032521 1_555
Mn1 O19 2.134367 1_555
Mn1 O29 2.167735 1_555
Mn2 O20 1.920873 1_444
Mn2 O9 1.931558 1_555
Mn2 O28 2.024366 1_554
Mn2 O1 2.030057 1_445
Mn2 O11 2.144751 1_455
Mn2 O18 2.146923 1_544
H0 O1 0.993262 1_555
H1 O3 0.994792 1_555
H2 O7 0.992987 1_555
H3 O22 0.995171 1_555
H4 O26 0.992017 1_555
H5 O28 0.994006 1_555
O0 P5 1.517115 1_565
O1 V1 2.031744 1_565
O2 P1 1.553189 1_455
O3 V2 1.979419 1_554
O4 P0 1.569481 1_555
O4 V1 2.016788 1_565
O5 P1 1.577626 1_555
O5 V2 1.941091 1_554
O6 P2 1.581127 1_555
O6 V2 1.997533 1_554
O7 V0 1.964825 1_555
O8 P0 1.552255 1_555
O9 P2 1.534809 1_555
O10 P2 1.516670 1_555
O11 P1 1.517782 1_555
O12 P3 1.576737 1_555
O12 V0 1.877750 1_555
O13 P0 1.575494 1_555
O13 V0 1.954426 1_655
O14 P4 1.563247 1_555
O14 V0 2.027653 1_555
O15 P1 1.562446 1_555
O15 V1 2.023414 1_555
O16 P5 1.576951 1_555
O16 V1 1.887804 1_455
O17 P2 1.577123 1_555
O17 V1 1.882432 1_555
O18 P4 1.517591 1_555
O19 P3 1.518782 1_555
O20 P3 1.536104 1_555
O21 P5 1.533652 1_555
O22 V1 2.045005 1_555
O23 P3 1.575530 1_555
O23 V2 2.002049 1_555
O24 P4 1.577819 1_555
O24 V2 1.936587 1_555
O25 P5 1.580262 1_555
O25 V0 1.989943 1_545
O26 V2 1.975978 1_555
O27 P4 1.554727 1_655
O28 V0 2.051231 1_545
O29 P0 1.515274 1_545
