# generated using pymatgen
data_YTmO3
_symmetry_space_group_name_H-M   'P 1'
_cell_length_a   6.38378836
_cell_length_b   6.38378836
_cell_length_c   12.69969500
_cell_angle_alpha   90.00000000
_cell_angle_beta   90.00000000
_cell_angle_gamma   120.00000377
_symmetry_Int_Tables_number   1
_chemical_formula_structural   YTmO3
_chemical_formula_sum   'Y6 Tm6 O18'
_cell_volume   448.20930423
_cell_formula_units_Z   6
loop_
 _symmetry_equiv_pos_site_id
 _symmetry_equiv_pos_as_xyz
  1  'x, y, z'
loop_
 _atom_site_type_symbol
 _atom_site_label
 _atom_site_symmetry_multiplicity
 _atom_site_fract_x
 _atom_site_fract_y
 _atom_site_fract_z
 _atom_site_occupancy
  Y  Y0  1  0.33333300  0.66666700  0.23711900  1
  Y  Y1  1  0.00000000  0.00000000  0.27045200  1
  Y  Y2  1  0.00000000  0.00000000  0.77045200  1
  Y  Y3  1  0.33333300  0.66666700  0.73711900  1
  Y  Y4  1  0.66666700  0.33333300  0.73711900  1
  Y  Y5  1  0.66666700  0.33333300  0.23711900  1
  Tm  Tm0  1  0.00000000  0.66674900  0.50162000  1
  Tm  Tm1  1  0.00000000  0.33325100  0.00162000  1
  Tm  Tm2  1  0.33325100  0.33325100  0.50162000  1
  Tm  Tm3  1  0.66674900  0.66674900  0.00162000  1
  Tm  Tm4  1  0.33325100  0.00000000  0.00162000  1
  Tm  Tm5  1  0.66674900  0.00000000  0.50162000  1
  O  O0  1  0.00000000  0.69251400  0.67380100  1
  O  O1  1  0.00000000  0.63931300  0.33064300  1
  O  O2  1  0.00000000  0.36068700  0.83064300  1
  O  O3  1  0.00000000  0.30748600  0.17380100  1
  O  O4  1  0.33333300  0.66666700  0.02691000  1
  O  O5  1  0.00000000  0.00000000  0.47092900  1
  O  O6  1  0.00000000  0.00000000  0.97092900  1
  O  O7  1  0.33333300  0.66666700  0.52691000  1
  O  O8  1  0.30748600  0.30748600  0.67380100  1
  O  O9  1  0.36068700  0.36068700  0.33064300  1
  O  O10  1  0.30748600  0.00000000  0.17380100  1
  O  O11  1  0.63931300  0.63931300  0.83064300  1
  O  O12  1  0.69251400  0.69251400  0.17380100  1
  O  O13  1  0.36068700  0.00000000  0.83064300  1
  O  O14  1  0.66666700  0.33333300  0.52691000  1
  O  O15  1  0.66666700  0.33333300  0.02691000  1
  O  O16  1  0.63931300  0.00000000  0.33064300  1
  O  O17  1  0.69251400  0.00000000  0.67380100  1
loop_
_geom_bond_atom_site_label_1
_geom_bond_atom_site_label_2
_geom_bond_distance
_geom_bond_site_symmetry_2
O0 Tm0 2.192823 1_555
O0 Y2 2.315099 1_565
O0 Y3 2.356485 1_555
O0 Y4 2.356488 1_455
O1 Tm0 2.178408 1_555
O1 Y0 2.365941 1_555
O1 Y5 2.365944 1_455
O1 Y1 2.426119 1_565
O2 Tm1 2.178408 1_556
O2 Y4 2.365941 1_455
O2 Y3 2.365944 1_555
O2 Y2 2.426119 1_555
O3 Tm1 2.192823 1_555
O3 Y1 2.315099 1_555
O3 Y5 2.356485 1_455
O3 Y0 2.356488 1_555
O4 Tm4 2.152288 1_565
O4 Tm1 2.152291 1_555
O4 Tm3 2.152294 1_555
O4 Y0 2.669590 1_555
O5 Tm2 2.162814 1_555
O5 Tm5 2.162814 1_455
O5 Tm0 2.162814 1_545
O5 Y1 2.545997 1_555
O6 Tm3 2.162814 1_446
O6 Tm1 2.162814 1_556
O6 Tm4 2.162814 1_556
O6 Y2 2.545997 1_555
O7 Tm0 2.152288 1_555
O7 Tm5 2.152291 1_565
O7 Tm2 2.152294 1_555
O7 Y3 2.669590 1_555
O8 Tm2 2.192823 1_555
O8 Y2 2.315098 1_555
O8 Y3 2.356491 1_555
O8 Y4 2.356491 1_555
O9 Tm2 2.178408 1_555
O9 Y0 2.365947 1_555
O9 Y5 2.365947 1_555
O9 Y1 2.426119 1_555
O10 Tm4 2.192823 1_555
O10 Y1 2.315099 1_555
O10 Y0 2.356485 1_545
O10 Y5 2.356488 1_555
O11 Tm3 2.178408 1_556
O11 Y4 2.365947 1_555
O11 Y3 2.365947 1_555
O11 Y2 2.426119 1_665
O12 Tm3 2.192823 1_555
O12 Y1 2.315098 1_665
O12 Y0 2.356491 1_555
O12 Y5 2.356491 1_555
O13 Tm4 2.178408 1_556
O13 Y3 2.365941 1_545
O13 Y4 2.365944 1_555
O13 Y2 2.426119 1_555
O14 Tm5 2.152288 1_555
O14 Tm0 2.152291 1_655
O14 Tm2 2.152294 1_555
O14 Y4 2.669590 1_555
O15 Tm1 2.152288 1_655
O15 Tm4 2.152291 1_555
O15 Tm3 2.152294 1_555
O15 Y5 2.669590 1_555
O16 Tm5 2.178408 1_555
O16 Y5 2.365941 1_555
O16 Y0 2.365944 1_545
O16 Y1 2.426119 1_655
O17 Tm5 2.192823 1_555
O17 Y2 2.315099 1_655
O17 Y4 2.356485 1_555
O17 Y3 2.356488 1_545
