# generated using pymatgen
data_Li6V5O12
_symmetry_space_group_name_H-M   'P 1'
_cell_length_a   5.04651000
_cell_length_b   5.05675783
_cell_length_c   9.54114838
_cell_angle_alpha   93.33915294
_cell_angle_beta   93.68366021
_cell_angle_gamma   116.14266833
_symmetry_Int_Tables_number   1
_chemical_formula_structural   Li6V5O12
_chemical_formula_sum   'Li6 V5 O12'
_cell_volume   217.10021854
_cell_formula_units_Z   1
loop_
 _symmetry_equiv_pos_site_id
 _symmetry_equiv_pos_as_xyz
  1  'x, y, z'
loop_
 _atom_site_type_symbol
 _atom_site_label
 _atom_site_symmetry_multiplicity
 _atom_site_fract_x
 _atom_site_fract_y
 _atom_site_fract_z
 _atom_site_occupancy
  Li  Li0  1  0.75364200  0.23945900  0.24973400  1
  Li  Li1  1  0.83910100  0.65350900  0.49450800  1
  Li  Li2  1  0.68837100  0.86860400  0.00959600  1
  Li  Li3  1  0.34753500  0.16054200  0.00527800  1
  Li  Li4  1  0.12829700  0.31175500  0.49068700  1
  Li  Li5  1  0.07890000  0.92126700  0.24999600  1
  V  V0  1  0.92709000  0.07460100  0.74721900  1
  V  V1  1  0.57220100  0.43076500  0.75055800  1
  V  V2  1  0.42530000  0.57716100  0.24273800  1
  V  V3  1  0.48763800  0.99638800  0.49137400  1
  V  V4  1  0.01143800  0.51671400  0.99980900  1
  O  O0  1  0.82013200  0.32318100  0.61867800  1
  O  O1  1  0.68409700  0.17324900  0.87725500  1
  O  O2  1  0.92830200  0.78159500  0.87219700  1
  O  O3  1  0.70304900  0.54628800  0.13666500  1
  O  O4  1  0.74822400  0.92629800  0.37088900  1
  O  O5  1  0.45314200  0.27040600  0.38026200  1
  O  O6  1  0.58236100  0.75177600  0.63156300  1
  O  O7  1  0.21063700  0.07024500  0.62851300  1
  O  O8  1  0.26481000  0.40934000  0.86732400  1
  O  O9  1  0.35676400  0.84013100  0.12011600  1
  O  O10  1  0.07427400  0.25342000  0.13338800  1
  O  O11  1  0.17559100  0.64243700  0.38166200  1
loop_
_geom_bond_atom_site_label_1
_geom_bond_atom_site_label_2
_geom_bond_distance
_geom_bond_site_symmetry_2
Li0 O10 1.998669 1_655
Li0 O4 2.005956 1_545
Li0 O3 2.035936 1_555
Li0 O5 2.074675 1_555
Li0 O9 2.333514 1_545
Li0 O11 2.409188 1_655
Li1 O4 2.044943 1_555
Li1 O0 2.075363 1_555
Li1 O6 2.084452 1_555
Li1 O11 2.087488 1_655
Li1 O5 2.211557 1_555
Li1 O7 2.342501 1_665
Li2 O9 1.991293 1_555
Li2 O2 1.996111 1_554
Li2 O1 2.054363 1_564
Li2 O3 2.111136 1_555
Li2 O10 2.251998 1_665
Li2 O8 2.586603 1_554
Li3 O8 2.018602 1_554
Li3 O9 2.023518 1_545
Li3 O10 2.082492 1_555
Li3 O1 2.135530 1_554
Li3 O3 2.222036 1_555
Li3 O2 2.357772 1_444
Li4 O11 1.953984 1_555
Li4 O7 1.989339 1_555
Li4 O0 2.056241 1_455
Li4 O5 2.083145 1_555
Li4 O4 2.224604 1_445
Li4 O6 2.602146 1_555
Li5 O10 2.075665 1_565
Li5 O9 2.083575 1_555
Li5 O4 2.096950 1_455
Li5 O11 2.130289 1_555
Li5 O3 2.165779 1_455
Li5 O5 2.175574 1_565
O0 V0 2.016920 1_555
O0 V3 2.020503 1_545
O0 V1 2.041346 1_555
O1 V0 1.988551 1_555
O1 V4 2.024748 1_655
O1 V1 2.054145 1_555
O2 V0 1.957069 1_565
O2 V4 2.017952 1_655
O2 V1 2.099149 1_555
O3 V2 1.835755 1_555
O3 V4 2.143101 1_654
O4 V3 1.932353 1_555
O4 V2 2.055445 1_555
O5 V3 1.853153 1_545
O5 V2 2.133799 1_555
O6 V0 1.987446 1_565
O6 V1 2.018786 1_555
O6 V3 2.044318 1_555
O7 V0 1.887831 1_455
O7 V3 2.108037 1_545
O7 V1 2.134757 1_555
O8 V1 1.935801 1_555
O8 V0 2.015922 1_455
O8 V4 2.065698 1_555
O9 V2 1.947115 1_555
O9 V4 2.010469 1_554
O10 V2 1.978540 1_555
O10 V4 2.003833 1_554
O11 V3 1.966036 1_555
O11 V2 1.996022 1_555
