# generated using pymatgen
data_Li5V3CrO8
_symmetry_space_group_name_H-M   'P 1'
_cell_length_a   5.91448006
_cell_length_b   5.91448006
_cell_length_c   9.94517900
_cell_angle_alpha   90.00000000
_cell_angle_beta   90.00000000
_cell_angle_gamma   120.00000068
_symmetry_Int_Tables_number   1
_chemical_formula_structural   Li5V3CrO8
_chemical_formula_sum   'Li10 V6 Cr2 O16'
_cell_volume   301.28421391
_cell_formula_units_Z   2
loop_
 _symmetry_equiv_pos_site_id
 _symmetry_equiv_pos_as_xyz
  1  'x, y, z'
loop_
 _atom_site_type_symbol
 _atom_site_label
 _atom_site_symmetry_multiplicity
 _atom_site_fract_x
 _atom_site_fract_y
 _atom_site_fract_z
 _atom_site_occupancy
  Li  Li0  1  0.00000000  0.00000000  0.51432100  1
  Li  Li1  1  0.33333300  0.66666700  0.72469900  1
  Li  Li2  1  0.19638900  0.80361100  0.94516900  1
  Li  Li3  1  0.19638900  0.39277800  0.94516900  1
  Li  Li4  1  0.60722200  0.80361100  0.94516900  1
  Li  Li5  1  0.39277800  0.19638900  0.44516900  1
  Li  Li6  1  0.66666700  0.33333300  0.22469900  1
  Li  Li7  1  0.80361100  0.60722200  0.44516900  1
  Li  Li8  1  0.80361100  0.19638900  0.44516900  1
  Li  Li9  1  0.00000000  0.00000000  0.01432100  1
  V  V0  1  0.16993400  0.83006600  0.21249300  1
  V  V1  1  0.83006600  0.66013300  0.71249300  1
  V  V2  1  0.16993400  0.33986700  0.21249300  1
  V  V3  1  0.66013300  0.83006600  0.21249300  1
  V  V4  1  0.33986700  0.16993400  0.71249300  1
  V  V5  1  0.83006600  0.16993400  0.71249300  1
  Cr  Cr0  1  0.33333300  0.66666700  0.47359600  1
  Cr  Cr1  1  0.66666700  0.33333300  0.97359600  1
  O  O0  1  0.16540200  0.83459800  0.58990400  1
  O  O1  1  0.02150000  0.51075000  0.34012700  1
  O  O2  1  0.00000000  0.00000000  0.82429300  1
  O  O3  1  0.16540200  0.33080400  0.58990400  1
  O  O4  1  0.48925000  0.97850000  0.34012700  1
  O  O5  1  0.33333300  0.66666700  0.09097800  1
  O  O6  1  0.48925000  0.51075000  0.34012700  1
  O  O7  1  0.33080400  0.16540200  0.08990400  1
  O  O8  1  0.66919600  0.83459800  0.58990400  1
  O  O9  1  0.51075000  0.48925000  0.84012700  1
  O  O10  1  0.83459800  0.66919600  0.08990400  1
  O  O11  1  0.51075000  0.02150000  0.84012700  1
  O  O12  1  0.66666700  0.33333300  0.59097800  1
  O  O13  1  0.97850000  0.48925000  0.84012700  1
  O  O14  1  0.83459800  0.16540200  0.08990400  1
  O  O15  1  0.00000000  0.00000000  0.32429300  1
loop_
_geom_bond_atom_site_label_1
_geom_bond_atom_site_label_2
_geom_bond_distance
_geom_bond_site_symmetry_2
Li0 O3 1.853659 1_555
Li0 O8 1.853659 1_445
Li0 O0 1.853659 1_545
Li0 O15 1.889862 1_555
Li1 O13 2.149663 1_455
Li1 O11 2.149663 1_565
Li1 O9 2.149667 1_555
Li1 O0 2.180960 1_555
Li1 O3 2.180964 1_555
Li1 O8 2.180964 1_555
Li2 O13 1.952675 1_455
Li2 O11 1.952675 1_565
Li2 O5 2.017635 1_556
Li2 O2 2.343639 1_565
Li2 O10 2.362534 1_456
Li2 O7 2.362534 1_566
Li3 O9 1.952675 1_555
Li3 O13 1.952675 1_455
Li3 O5 2.017638 1_556
Li3 O2 2.343639 1_555
Li3 O14 2.362534 1_456
Li3 O7 2.362534 1_556
Li4 O9 1.952675 1_555
Li4 O11 1.952675 1_565
Li4 O5 2.017638 1_556
Li4 O2 2.343639 1_665
Li4 O14 2.362534 1_566
Li4 O10 2.362534 1_556
Li5 O6 1.952675 1_555
Li5 O4 1.952675 1_545
Li5 O12 2.017638 1_555
Li5 O15 2.343639 1_555
Li5 O0 2.362534 1_545
Li5 O3 2.362534 1_555
Li6 O4 2.149663 1_545
Li6 O1 2.149663 1_655
Li6 O6 2.149667 1_555
Li6 O14 2.180960 1_555
Li6 O10 2.180964 1_555
Li6 O7 2.180964 1_555
Li7 O6 1.952675 1_555
Li7 O1 1.952675 1_655
Li7 O12 2.017638 1_555
Li7 O15 2.343639 1_665
Li7 O0 2.362534 1_655
Li7 O8 2.362534 1_555
Li8 O4 1.952675 1_545
Li8 O1 1.952675 1_655
Li8 O12 2.017635 1_555
Li8 O15 2.343639 1_655
Li8 O8 2.362534 1_545
Li8 O3 2.362534 1_655
Li9 O7 1.853659 1_555
Li9 O10 1.853659 1_445
Li9 O14 1.853659 1_455
Li9 O2 1.889862 1_554
Cr0 O0 2.073029 1_555
Cr0 O8 2.073033 1_555
Cr0 O3 2.073033 1_555
Cr0 O1 2.076797 1_555
Cr0 O4 2.076797 1_555
Cr0 O6 2.076801 1_555
Cr1 O14 2.073029 1_556
Cr1 O10 2.073033 1_556
Cr1 O7 2.073033 1_556
Cr1 O11 2.076797 1_555
Cr1 O13 2.076797 1_555
Cr1 O9 2.076801 1_555
O0 V4 2.106707 1_565
O0 V1 2.106707 1_455
O1 V0 2.071403 1_555
O1 V2 2.071408 1_555
O2 V4 2.065610 1_555
O2 V1 2.065610 1_445
O2 V5 2.065614 1_455
O3 V4 2.106703 1_555
O3 V5 2.106707 1_455
O4 V0 2.071403 1_555
O4 V3 2.071408 1_555
O5 V0 2.064545 1_555
O5 V3 2.064554 1_555
O5 V2 2.064554 1_555
O6 V3 2.071404 1_555
O6 V2 2.071404 1_555
O7 V2 2.106703 1_555
O7 V0 2.106707 1_545
O8 V1 2.106703 1_555
O8 V5 2.106707 1_565
O9 V4 2.071404 1_555
O9 V1 2.071404 1_555
O10 V3 2.106703 1_555
O10 V0 2.106707 1_655
O11 V5 2.071403 1_555
O11 V4 2.071408 1_555
O12 V5 2.064545 1_555
O12 V1 2.064554 1_555
O12 V4 2.064554 1_555
O13 V5 2.071403 1_555
O13 V1 2.071408 1_555
O14 V3 2.106707 1_545
O14 V2 2.106707 1_655
O15 V2 2.065610 1_555
O15 V3 2.065610 1_445
O15 V0 2.065614 1_545
