# generated using pymatgen
data_Li24Mn5Cr7O36
_symmetry_space_group_name_H-M   'P 1'
_cell_length_a   5.01709600
_cell_length_b   9.73421781
_cell_length_c   13.29553213
_cell_angle_alpha   97.15711923
_cell_angle_beta   100.60249860
_cell_angle_gamma   94.75210780
_symmetry_Int_Tables_number   1
_chemical_formula_structural   Li24Mn5Cr7O36
_chemical_formula_sum   'Li24 Mn5 Cr7 O36'
_cell_volume   629.52688982
_cell_formula_units_Z   1
loop_
 _symmetry_equiv_pos_site_id
 _symmetry_equiv_pos_as_xyz
  1  'x, y, z'
loop_
 _atom_site_type_symbol
 _atom_site_label
 _atom_site_symmetry_multiplicity
 _atom_site_fract_x
 _atom_site_fract_y
 _atom_site_fract_z
 _atom_site_occupancy
  Li  Li0  1  0.16752600  0.99831700  0.83372900  1
  Li  Li1  1  0.04496600  0.99945500  0.61396600  1
  Li  Li2  1  0.00082900  0.74999800  0.25077200  1
  Li  Li3  1  0.33203500  0.75048200  0.91634000  1
  Li  Li4  1  0.04510900  0.49945500  0.11239500  1
  Li  Li5  1  0.38259600  0.49835300  0.77882900  1
  Li  Li6  1  0.16576300  0.50079900  0.33298400  1
  Li  Li7  1  0.49988000  0.49906600  0.99970400  1
  Li  Li8  1  0.28622700  0.50063200  0.55497200  1
  Li  Li9  1  0.33776100  0.25001000  0.41602500  1
  Li  Li10  1  0.49795300  0.00066200  0.49970600  1
  Li  Li11  1  0.28563300  0.00033800  0.05177100  1
  Li  Li12  1  0.61984800  0.00106800  0.72096400  1
  Li  Li13  1  0.38395800  0.00188600  0.28196000  1
  Li  Li14  1  0.71507900  0.99897100  0.94606100  1
  Li  Li15  1  0.67031500  0.74973100  0.58367600  1
  Li  Li16  1  0.71453500  0.50035500  0.44657200  1
  Li  Li17  1  0.83402300  0.50023200  0.66628100  1
  Li  Li18  1  0.61973900  0.49931000  0.22135900  1
  Li  Li19  1  0.94985100  0.50147200  0.88755700  1
  Li  Li20  1  0.66718700  0.24970300  0.08263400  1
  Li  Li21  1  0.83431000  0.00183900  0.16685700  1
  Li  Li22  1  0.00022500  0.25060200  0.74861500  1
  Li  Li23  1  0.94878300  0.99925500  0.38548600  1
  Mn  Mn0  1  0.10928200  0.74941500  0.47278200  1
  Mn  Mn1  1  0.44616500  0.25131100  0.63966600  1
  Mn  Mn2  1  0.55464100  0.24925100  0.86014600  1
  Mn  Mn3  1  0.78148400  0.75322300  0.80610500  1
  Mn  Mn4  1  0.77617100  0.24939200  0.30611100  1
  Cr  Cr0  1  0.10474700  0.24886800  0.96898200  1
  Cr  Cr1  1  0.23003500  0.74924800  0.69384700  1
  Cr  Cr2  1  0.22540700  0.25097300  0.19335400  1
  Cr  Cr3  1  0.44052000  0.74781300  0.14142500  1
  Cr  Cr4  1  0.56093800  0.75089600  0.36381800  1
  Cr  Cr5  1  0.89594900  0.24968200  0.52700100  1
  Cr  Cr6  1  0.88387500  0.74946500  0.02555800  1
  O  O0  1  0.00371000  0.86380700  0.92659200  1
  O  O1  1  0.06873500  0.63656700  0.78377500  1
  O  O2  1  0.99652800  0.36118800  0.42964200  1
  O  O3  1  0.15040600  0.36402300  0.64527500  1
  O  O4  1  0.26431300  0.36360700  0.88242100  1
  O  O5  1  0.32866500  0.86159300  0.59628200  1
  O  O6  1  0.06867300  0.13560200  0.28582600  1
  O  O7  1  0.18803900  0.13842600  0.52574500  1
  O  O8  1  0.40799900  0.13502500  0.95055400  1
  O  O9  1  0.14635500  0.86157200  0.14106100  1
  O  O10  1  0.25899500  0.86429600  0.38195700  1
  O  O11  1  0.48119100  0.86294600  0.81106300  1
  O  O12  1  0.33153800  0.13813700  0.73773000  1
  O  O13  1  0.18490700  0.63640900  0.02176700  1
  O  O14  1  0.40189800  0.63625800  0.45145200  1
  O  O15  1  0.52331900  0.63876500  0.69135600  1
  O  O16  1  0.33445200  0.63697200  0.23811000  1
  O  O17  1  0.66825400  0.63908100  0.90508600  1
  O  O18  1  0.32677000  0.36161300  0.09511800  1
  O  O19  1  0.67034500  0.36181700  0.76238100  1
  O  O20  1  0.48044300  0.36308000  0.31155900  1
  O  O21  1  0.59754500  0.36369800  0.54912800  1
  O  O22  1  0.80271800  0.36229000  0.97521500  1
  O  O23  1  0.66298600  0.86203000  0.26380900  1
  O  O24  1  0.52181000  0.13844600  0.19127600  1
  O  O25  1  0.73522500  0.13582300  0.61793800  1
  O  O26  1  0.85587300  0.13810800  0.85710500  1
  O  O27  1  0.60305700  0.86417900  0.04845900  1
  O  O28  1  0.81162800  0.86236600  0.47704700  1
  O  O29  1  0.92836100  0.86456200  0.71473800  1
  O  O30  1  0.66296300  0.13617900  0.40253000  1
  O  O31  1  0.72846500  0.63426800  0.11821000  1
  O  O32  1  0.86004600  0.63813800  0.35712000  1
  O  O33  1  0.99586300  0.63634300  0.56915000  1
  O  O34  1  0.93123100  0.36387200  0.21603900  1
  O  O35  1  0.00334800  0.13739300  0.06947500  1
loop_
_geom_bond_atom_site_label_1
_geom_bond_atom_site_label_2
_geom_bond_distance
_geom_bond_site_symmetry_2
Li0 O29 2.041370 1_455
Li0 O8 2.041663 1_565
Li0 O0 2.124198 1_555
Li0 O11 2.173218 1_555
Li0 O12 2.189158 1_565
Li0 O26 2.195234 1_465
Li1 O5 2.059881 1_555
Li1 O7 2.065278 1_565
Li1 O29 2.112124 1_455
Li1 O25 2.129393 1_465
Li1 O28 2.194712 1_455
Li1 O12 2.202618 1_565
Li2 O32 2.075455 1_455
Li2 O16 2.098371 1_555
Li2 O10 2.098576 1_555
Li2 O23 2.111778 1_455
Li2 O9 2.120293 1_555
Li2 O31 2.146305 1_455
Li3 O0 2.072463 1_555
Li3 O11 2.085476 1_555
Li3 O13 2.091759 1_556
Li3 O17 2.097447 1_555
Li3 O1 2.120055 1_555
Li3 O27 2.132297 1_556
Li4 O18 2.051066 1_555
Li4 O13 2.068198 1_555
Li4 O34 2.141293 1_455
Li4 O31 2.148767 1_455
Li4 O22 2.212719 1_454
Li4 O16 2.218239 1_555
Li5 O15 2.063381 1_555
Li5 O19 2.063998 1_555
Li5 O4 2.142786 1_555
Li5 O3 2.151213 1_555
Li5 O1 2.158961 1_555
Li5 O17 2.228188 1_555
Li6 O34 2.032029 1_455
Li6 O14 2.039633 1_555
Li6 O32 2.157962 1_455
Li6 O16 2.165194 1_555
Li6 O20 2.189036 1_555
Li6 O2 2.205646 1_455
Li7 O31 2.024376 1_556
Li7 O4 2.029354 1_555
Li7 O22 2.143905 1_555
Li7 O17 2.186615 1_555
Li7 O18 2.188536 1_556
Li7 O13 2.189410 1_556
Li8 O3 2.054976 1_555
Li8 O33 2.064163 1_455
Li8 O21 2.141532 1_555
Li8 O14 2.143330 1_555
Li8 O15 2.201066 1_555
Li8 O2 2.224838 1_455
Li9 O20 2.066218 1_555
Li9 O30 2.068751 1_555
Li9 O6 2.114231 1_555
Li9 O21 2.116468 1_555
Li9 O2 2.123008 1_455
Li9 O7 2.129551 1_555
Li10 O25 2.038553 1_555
Li10 O10 2.044030 1_545
Li10 O30 2.175354 1_555
Li10 O7 2.182591 1_555
Li10 O28 2.191827 1_545
Li10 O5 2.201505 1_545
Li11 O35 2.049035 1_555
Li11 O9 2.066564 1_545
Li11 O8 2.125351 1_554
Li11 O27 2.157737 1_545
Li11 O0 2.192712 1_544
Li11 O24 2.226566 1_555
Li12 O11 2.068734 1_545
Li12 O12 2.070401 1_555
Li12 O29 2.128106 1_545
Li12 O25 2.132073 1_555
Li12 O26 2.192241 1_555
Li12 O5 2.223711 1_545
Li13 O23 2.056598 1_545
Li13 O24 2.062275 1_555
Li13 O6 2.133867 1_555
Li13 O10 2.136772 1_545
Li13 O30 2.141713 1_555
Li13 O9 2.250959 1_545
Li14 O0 2.064905 1_655
Li14 O26 2.068872 1_565
Li14 O8 2.117399 1_565
Li14 O27 2.120254 1_556
Li14 O11 2.174181 1_555
Li14 O35 2.202858 1_666
Li15 O33 2.069999 1_555
Li15 O28 2.083990 1_555
Li15 O15 2.098143 1_555
Li15 O29 2.099213 1_555
Li15 O5 2.126352 1_555
Li15 O14 2.126643 1_555
Li16 O2 2.060634 1_555
Li16 O32 2.073889 1_555
Li16 O14 2.138798 1_555
Li16 O21 2.142527 1_555
Li16 O33 2.169538 1_555
Li16 O20 2.180296 1_555
Li17 O1 2.033655 1_655
Li17 O21 2.035437 1_555
Li17 O33 2.171739 1_555
Li17 O19 2.180368 1_555
Li17 O3 2.185212 1_655
Li17 O15 2.187943 1_555
Li18 O20 2.058225 1_555
Li18 O16 2.062686 1_555
Li18 O31 2.123601 1_555
Li18 O34 2.131726 1_555
Li18 O32 2.204381 1_555
Li18 O18 2.231447 1_555
Li19 O17 2.049770 1_555
Li19 O22 2.069566 1_555
Li19 O1 2.148044 1_655
Li19 O4 2.159250 1_655
Li19 O13 2.164496 1_656
Li19 O19 2.201341 1_555
Li20 O22 2.080171 1_554
Li20 O35 2.106345 1_655
Li20 O24 2.106640 1_555
Li20 O8 2.109877 1_554
Li20 O18 2.121018 1_555
Li20 O34 2.129840 1_555
Li21 O6 2.031903 1_655
Li21 O27 2.040693 1_545
Li21 O24 2.181050 1_555
Li21 O35 2.186568 1_655
Li21 O9 2.206348 1_645
Li21 O23 2.214405 1_545
Li22 O3 2.072574 1_555
Li22 O19 2.074518 1_455
Li22 O12 2.081587 1_555
Li22 O26 2.109701 1_455
Li22 O25 2.110624 1_455
Li22 O4 2.129305 1_555
Li23 O30 2.060376 1_565
Li23 O28 2.071610 1_555
Li23 O6 2.116197 1_665
Li23 O10 2.121465 1_655
Li23 O23 2.178992 1_555
Li23 O7 2.242994 1_665
Mn0 O33 1.921674 1_455
Mn0 O28 1.931292 1_455
Mn0 O32 1.937680 1_455
Mn0 O5 1.946542 1_555
Mn0 O14 1.947379 1_555
Mn0 O10 1.950396 1_555
Mn1 O3 1.923856 1_555
Mn1 O21 1.936383 1_555
Mn1 O19 1.941919 1_555
Mn1 O12 1.942468 1_555
Mn1 O25 1.947774 1_555
Mn1 O7 1.951001 1_555
Mn2 O26 1.933566 1_555
Mn2 O8 1.935300 1_555
Mn2 O22 1.937359 1_555
Mn2 O19 1.937624 1_555
Mn2 O12 1.939626 1_555
Mn2 O4 1.947767 1_555
Mn3 O0 1.918913 1_655
Mn3 O11 1.923688 1_555
Mn3 O29 1.928329 1_555
Mn3 O1 1.949150 1_655
Mn3 O17 1.955499 1_555
Mn3 O15 1.963862 1_555
Mn4 O30 1.922686 1_555
Mn4 O20 1.929490 1_555
Mn4 O24 1.941592 1_555
Mn4 O2 1.947085 1_555
Mn4 O6 1.947758 1_655
Mn4 O34 1.952666 1_555
Cr0 O26 1.904708 1_455
Cr0 O4 1.929780 1_555
Cr0 O35 1.934273 1_556
Cr0 O22 1.955152 1_455
Cr0 O18 1.977154 1_556
Cr0 O8 1.987900 1_555
Cr1 O15 1.895811 1_555
Cr1 O5 1.903551 1_555
Cr1 O1 1.955335 1_555
Cr1 O11 1.964169 1_555
Cr1 O33 1.987993 1_455
Cr1 O29 1.996598 1_455
Cr2 O18 1.904894 1_555
Cr2 O24 1.920798 1_555
Cr2 O34 1.956273 1_455
Cr2 O35 1.960415 1_555
Cr2 O20 1.974668 1_555
Cr2 O6 1.986118 1_555
Cr3 O16 1.897888 1_555
Cr3 O9 1.916741 1_555
Cr3 O31 1.935856 1_555
Cr3 O23 1.950594 1_555
Cr3 O13 1.985078 1_555
Cr3 O27 2.010616 1_555
Cr4 O28 1.922421 1_555
Cr4 O23 1.928117 1_555
Cr4 O14 1.938570 1_555
Cr4 O32 1.939684 1_555
Cr4 O10 1.979064 1_555
Cr4 O16 1.986176 1_555
Cr5 O7 1.894236 1_655
Cr5 O2 1.899493 1_555
Cr5 O25 1.971049 1_555
Cr5 O21 1.978820 1_555
Cr5 O3 1.982703 1_655
Cr5 O30 1.986038 1_555
Cr6 O17 1.905600 1_554
Cr6 O27 1.912694 1_555
Cr6 O13 1.945322 1_655
Cr6 O0 1.968964 1_654
Cr6 O9 1.970655 1_655
Cr6 O31 1.983844 1_555
