# generated using pymatgen
data_Sr4LiCu(CO5)2
_symmetry_space_group_name_H-M   'P 1'
_cell_length_a   8.39898418
_cell_length_b   8.39898418
_cell_length_c   8.39898418
_cell_angle_alpha   141.21614360
_cell_angle_beta   141.21614360
_cell_angle_gamma   56.01132885
_symmetry_Int_Tables_number   1
_chemical_formula_structural   Sr4LiCu(CO5)2
_chemical_formula_sum   'Sr4 Li1 Cu1 C2 O10'
_cell_volume   230.67601628
_cell_formula_units_Z   1
loop_
 _symmetry_equiv_pos_site_id
 _symmetry_equiv_pos_as_xyz
  1  'x, y, z'
loop_
 _atom_site_type_symbol
 _atom_site_label
 _atom_site_symmetry_multiplicity
 _atom_site_fract_x
 _atom_site_fract_y
 _atom_site_fract_z
 _atom_site_occupancy
  Sr  Sr0  1  0.11347400  0.61347400  0.50000000  1
  Sr  Sr1  1  0.38652600  0.88652600  0.50000000  1
  Sr  Sr2  1  0.61347400  0.11347400  0.50000000  1
  Sr  Sr3  1  0.88652600  0.38652600  0.50000000  1
  Li  Li0  1  0.00000000  0.00000000  0.00000000  1
  Cu  Cu0  1  0.50000000  0.50000000  0.00000000  1
  C  C0  1  0.76330500  0.76330500  0.00000000  1
  C  C1  1  0.23669500  0.23669500  0.00000000  1
  O  O0  1  0.73653200  0.26665500  0.00000000  1
  O  O1  1  0.26346800  0.26346800  0.53012400  1
  O  O2  1  0.57717100  0.57717100  0.71245500  1
  O  O3  1  0.85166600  0.85166600  0.00000000  1
  O  O4  1  0.86471700  0.86471700  0.28754500  1
  O  O5  1  0.26665500  0.73653200  0.00000000  1
  O  O6  1  0.73334500  0.73334500  0.46987600  1
  O  O7  1  0.42282900  0.13528300  0.00000000  1
  O  O8  1  0.14833400  0.14833400  0.00000000  1
  O  O9  1  0.13528300  0.42282900  0.00000000  1
loop_
_geom_bond_atom_site_label_1
_geom_bond_atom_site_label_2
_geom_bond_distance
_geom_bond_site_symmetry_2
Li0 O0 2.090842 1_455
Li0 O5 2.090842 1_545
Li0 O6 2.090846 1_444
Li0 O1 2.090846 1_555
Li0 O8 2.199934 1_555
Li0 O3 2.199934 1_445
Cu0 O6 1.853256 1_555
Cu0 O1 1.853256 1_554
Cu0 O5 1.853260 1_555
Cu0 O0 1.853260 1_555
C0 O4 1.296420 1_555
C0 O2 1.296428 1_554
C0 O3 1.310477 1_555
C1 O7 1.296428 1_555
C1 O9 1.296428 1_555
C1 O8 1.310477 1_555
O0 Sr0 2.579882 1_655
O0 Sr2 2.579882 1_554
O0 Sr3 2.610533 1_555
O0 Sr1 2.610533 1_544
O1 Sr3 2.579878 1_455
O1 Sr1 2.579878 1_545
O1 Sr2 2.610538 1_555
O1 Sr0 2.610538 1_555
O2 Sr2 2.670376 1_555
O2 Sr0 2.670376 1_555
O3 Sr3 2.836220 1_554
O3 Sr1 2.836220 1_554
O3 Sr1 2.836220 1_655
O3 Sr3 2.836220 1_565
O4 Sr2 2.670385 1_565
O4 Sr0 2.670385 1_655
O5 Sr2 2.579882 1_565
O5 Sr0 2.579882 1_554
O5 Sr1 2.610533 1_555
O5 Sr3 2.610533 1_454
O6 Sr3 2.579887 1_555
O6 Sr1 2.579887 1_555
O6 Sr0 2.610529 1_655
O6 Sr2 2.610529 1_565
O7 Sr3 2.670379 1_555
O7 Sr1 2.670379 1_544
O8 Sr2 2.836220 1_454
O8 Sr0 2.836220 1_544
O8 Sr2 2.836220 1_555
O8 Sr0 2.836220 1_555
O9 Sr1 2.670379 1_555
O9 Sr3 2.670379 1_454
