# generated using pymatgen
data_Hf2N2O
_symmetry_space_group_name_H-M   'P 1'
_cell_length_a   3.26584400
_cell_length_b   8.10978500
_cell_length_c   13.78789617
_cell_angle_alpha   81.39154725
_cell_angle_beta   90.00000000
_cell_angle_gamma   90.00000000
_symmetry_Int_Tables_number   1
_chemical_formula_structural   Hf2N2O
_chemical_formula_sum   'Hf12 N12 O6'
_cell_volume   361.06250054
_cell_formula_units_Z   6
loop_
 _symmetry_equiv_pos_site_id
 _symmetry_equiv_pos_as_xyz
  1  'x, y, z'
loop_
 _atom_site_type_symbol
 _atom_site_label
 _atom_site_symmetry_multiplicity
 _atom_site_fract_x
 _atom_site_fract_y
 _atom_site_fract_z
 _atom_site_occupancy
  Hf  Hf0  1  0.50000000  0.82075700  0.00660400  1
  Hf  Hf1  1  0.50000000  0.45593000  0.11863400  1
  Hf  Hf2  1  0.00000000  0.81891900  0.22182700  1
  Hf  Hf3  1  0.00000000  0.18083000  0.28385900  1
  Hf  Hf4  1  0.50000000  0.50867700  0.38797500  1
  Hf  Hf5  1  0.50000000  0.86691300  0.43398200  1
  Hf  Hf6  1  0.00000000  0.11503500  0.57504700  1
  Hf  Hf7  1  0.00000000  0.48304800  0.61609300  1
  Hf  Hf8  1  0.50000000  0.81538600  0.71988500  1
  Hf  Hf9  1  0.50000000  0.17754900  0.78159700  1
  Hf  Hf10  1  0.00000000  0.54710300  0.88019200  1
  Hf  Hf11  1  0.00000000  0.19067900  0.98225200  1
  N  N0  1  0.50000000  0.68218900  0.18056000  1
  N  N1  1  0.50000000  0.34880000  0.28283500  1
  N  N2  1  0.50000000  0.99292000  0.26721900  1
  N  N3  1  0.00000000  0.70869200  0.37321500  1
  N  N4  1  0.50000000  0.30082900  0.62762600  1
  N  N5  1  0.50000000  0.95535200  0.56929900  1
  N  N6  1  0.00000000  0.01057700  0.72890300  1
  N  N7  1  0.00000000  0.64824400  0.71494700  1
  N  N8  1  0.00000000  0.31919600  0.81818800  1
  N  N9  1  0.50000000  0.05837400  0.92936600  1
  N  N10  1  0.50000000  0.72206500  0.87323900  1
  N  N11  1  0.50000000  0.38395600  0.97561600  1
  O  O0  1  0.00000000  0.62297300  0.03283900  1
  O  O1  1  0.00000000  0.28418000  0.13129400  1
  O  O2  1  0.00000000  0.94003300  0.07164800  1
  O  O3  1  0.00000000  0.04311800  0.42402500  1
  O  O4  1  0.00000000  0.37788200  0.46025100  1
  O  O5  1  0.50000000  0.61979200  0.53098400  1
loop_
_geom_bond_atom_site_label_1
_geom_bond_atom_site_label_2
_geom_bond_distance
_geom_bond_site_symmetry_2
Hf0 N9 2.057471 1_564
Hf0 N10 2.112450 1_554
Hf0 O2 2.160114 1_555
Hf0 O2 2.160114 1_655
Hf0 O0 2.279552 1_555
Hf0 O0 2.279552 1_655
Hf0 N0 2.491725 1_555
Hf1 O1 2.136391 1_555
Hf1 O1 2.136391 1_655
Hf1 N0 2.136571 1_555
Hf1 N11 2.138626 1_554
Hf1 N1 2.300352 1_555
Hf1 O0 2.328347 1_555
Hf1 O0 2.328347 1_655
Hf2 N0 2.099667 1_555
Hf2 N0 2.099667 1_455
Hf2 N3 2.144160 1_555
Hf2 O2 2.154875 1_555
Hf2 N2 2.305158 1_555
Hf2 N2 2.305158 1_455
Hf3 O3 2.082322 1_555
Hf3 N1 2.125198 1_555
Hf3 N1 2.125198 1_455
Hf3 O1 2.144671 1_555
Hf3 N2 2.268488 1_545
Hf3 N2 2.268488 1_445
Hf4 N1 2.084533 1_555
Hf4 O4 2.113812 1_655
Hf4 O4 2.113812 1_555
Hf4 O5 2.287334 1_555
Hf4 N3 2.289141 1_655
Hf4 N3 2.289141 1_555
Hf4 N0 2.992310 1_555
Hf5 N5 2.096657 1_555
Hf5 O3 2.160683 1_565
Hf5 O3 2.160683 1_665
Hf5 O5 2.236690 1_555
Hf5 N3 2.310131 1_555
Hf5 N3 2.310131 1_655
Hf5 N2 2.372276 1_555
Hf6 N5 2.092953 1_445
Hf6 N5 2.092953 1_545
Hf6 N6 2.163282 1_555
Hf6 O3 2.244903 1_555
Hf6 N4 2.406094 1_455
Hf6 N4 2.406094 1_555
Hf6 O4 2.457452 1_555
Hf7 N7 2.049190 1_555
Hf7 N4 2.192063 1_555
Hf7 N4 2.192063 1_455
Hf7 O5 2.209911 1_555
Hf7 O5 2.209911 1_455
Hf7 O4 2.427562 1_555
Hf8 N7 2.129798 1_655
Hf8 N7 2.129798 1_555
Hf8 N10 2.136476 1_555
Hf8 N5 2.212191 1_555
Hf8 N6 2.290539 1_565
Hf8 N6 2.290539 1_665
Hf9 N8 2.100961 1_655
Hf9 N8 2.100961 1_555
Hf9 N9 2.120307 1_555
Hf9 N4 2.207039 1_555
Hf9 N6 2.307036 1_555
Hf9 N6 2.307036 1_655
Hf10 N8 2.149421 1_555
Hf10 N10 2.155967 1_455
Hf10 N10 2.155967 1_555
Hf10 O0 2.279459 1_556
Hf10 N7 2.303118 1_555
Hf10 N11 2.372114 1_455
Hf10 N11 2.372114 1_555
Hf11 N9 2.140939 1_455
Hf11 N9 2.140939 1_555
Hf11 O2 2.213827 1_546
Hf11 N11 2.255820 1_555
Hf11 N11 2.255820 1_455
Hf11 O1 2.294423 1_556
Hf11 N8 2.344689 1_555
