# generated using pymatgen
data_Li4Mn3Fe(BO3)4
_symmetry_space_group_name_H-M   'P 1'
_cell_length_a   5.28293600
_cell_length_b   6.24850957
_cell_length_c   7.96155284
_cell_angle_alpha   77.55414875
_cell_angle_beta   88.06124425
_cell_angle_gamma   88.72725885
_symmetry_Int_Tables_number   1
_chemical_formula_structural   Li4Mn3Fe(BO3)4
_chemical_formula_sum   'Li4 Mn3 Fe1 B4 O12'
_cell_volume   256.46165108
_cell_formula_units_Z   1
loop_
 _symmetry_equiv_pos_site_id
 _symmetry_equiv_pos_as_xyz
  1  'x, y, z'
loop_
 _atom_site_type_symbol
 _atom_site_label
 _atom_site_symmetry_multiplicity
 _atom_site_fract_x
 _atom_site_fract_y
 _atom_site_fract_z
 _atom_site_occupancy
  Li  Li0  1  0.56620500  0.87015000  0.80272700  1
  Li  Li1  1  0.93277600  0.63043400  0.69729500  1
  Li  Li2  1  0.06533200  0.36848100  0.30155200  1
  Li  Li3  1  0.43206100  0.13035400  0.19779700  1
  Mn  Mn0  1  0.42840700  0.41030800  0.82377300  1
  Mn  Mn1  1  0.06913700  0.09169800  0.67686800  1
  Mn  Mn2  1  0.57318600  0.59086400  0.17723300  1
  Fe  Fe0  1  0.93195100  0.90749300  0.32669900  1
  B  B0  1  0.43059900  0.76527200  0.49593300  1
  B  B1  1  0.92638800  0.26156200  0.00004900  1
  B  B2  1  0.07292600  0.73764300  0.00238200  1
  B  B3  1  0.57167700  0.23553200  0.50099400  1
  O  O0  1  0.33096700  0.70362400  0.97397700  1
  O  O1  1  0.92117600  0.83407000  0.86730600  1
  O  O2  1  0.03527300  0.34022000  0.83489900  1
  O  O3  1  0.16924100  0.79482500  0.51976300  1
  O  O4  1  0.57688500  0.66624400  0.63219500  1
  O  O5  1  0.54388600  0.84507200  0.33297900  1
  O  O6  1  0.46335100  0.15833100  0.66628200  1
  O  O7  1  0.41959200  0.33553800  0.36767200  1
  O  O8  1  0.82996300  0.20292400  0.47278200  1
  O  O9  1  0.96492900  0.66225200  0.16759900  1
  O  O10  1  0.07580300  0.16030200  0.13391900  1
  O  O11  1  0.66828800  0.29680500  0.02732300  1
loop_
_geom_bond_atom_site_label_1
_geom_bond_atom_site_label_2
_geom_bond_distance
_geom_bond_site_symmetry_2
Li0 O0 1.953802 1_555
Li0 O1 1.956625 1_555
Li0 O6 1.967530 1_565
Li0 O4 2.051130 1_555
Li1 O4 1.962376 1_555
Li1 O2 1.980418 1_655
Li1 O3 1.981218 1_655
Li1 O1 2.046510 1_555
Li2 O8 1.951753 1_455
Li2 O7 1.955752 1_555
Li2 O9 1.984808 1_455
Li2 O10 2.053409 1_555
Li3 O11 1.953426 1_555
Li3 O10 1.960616 1_555
Li3 O5 1.963223 1_545
Li3 O7 2.053024 1_555
Mn0 O11 2.082996 1_556
Mn0 O4 2.102994 1_555
Mn0 O2 2.127064 1_555
Mn0 O6 2.215319 1_555
Mn0 O0 2.432145 1_555
Mn1 O8 2.081543 1_455
Mn1 O1 2.103547 1_445
Mn1 O6 2.128198 1_555
Mn1 O2 2.200241 1_555
Mn1 O3 2.489382 1_545
Mn2 O0 2.088340 1_554
Mn2 O7 2.105752 1_555
Mn2 O9 2.122129 1_555
Mn2 O5 2.215773 1_555
Mn2 O11 2.432433 1_555
Fe0 O3 2.013577 1_655
Fe0 O10 2.087577 1_665
Fe0 O5 2.092322 1_555
Fe0 O9 2.189276 1_555
Fe0 O8 2.426839 1_565
B0 O4 1.379561 1_555
B0 O3 1.400922 1_555
B0 O5 1.404230 1_555
B1 O10 1.379650 1_655
B1 O11 1.393588 1_555
B1 O2 1.408589 1_654
B2 O1 1.385581 1_454
B2 O0 1.393438 1_554
B2 O9 1.404186 1_455
B3 O7 1.382825 1_555
B3 O8 1.393013 1_555
B3 O6 1.406987 1_555
