# generated using pymatgen
data_Li2FeSi3O8
_symmetry_space_group_name_H-M   'P 1'
_cell_length_a   6.29812783
_cell_length_b   10.20641401
_cell_length_c   6.29378540
_cell_angle_alpha   105.59141705
_cell_angle_beta   103.54802345
_cell_angle_gamma   72.65964449
_symmetry_Int_Tables_number   1
_chemical_formula_structural   Li2FeSi3O8
_chemical_formula_sum   'Li4 Fe2 Si6 O16'
_cell_volume   366.70935600
_cell_formula_units_Z   2
loop_
 _symmetry_equiv_pos_site_id
 _symmetry_equiv_pos_as_xyz
  1  'x, y, z'
loop_
 _atom_site_type_symbol
 _atom_site_label
 _atom_site_symmetry_multiplicity
 _atom_site_fract_x
 _atom_site_fract_y
 _atom_site_fract_z
 _atom_site_occupancy
  Li  Li0  1  0.64173000  0.14009200  0.85441800  1
  Li  Li1  1  0.64175800  0.64003900  0.85438200  1
  Li  Li2  1  0.30770900  0.39076700  0.12086300  1
  Li  Li3  1  0.30775900  0.89071800  0.12080200  1
  Fe  Fe0  1  0.29070700  0.82535200  0.62679700  1
  Fe  Fe1  1  0.29080900  0.32535200  0.62678000  1
  Si  Si0  1  0.11630400  0.14930500  0.81966500  1
  Si  Si1  1  0.11627500  0.64924500  0.81967900  1
  Si  Si2  1  0.75628900  0.16349300  0.39902200  1
  Si  Si3  1  0.75625700  0.66347800  0.39901500  1
  Si  Si4  1  0.88708000  0.35968200  0.19400200  1
  Si  Si5  1  0.88713300  0.85969900  0.19406100  1
  O  O0  1  0.18040600  0.49373300  0.86841800  1
  O  O1  1  0.18082500  0.99370400  0.86842000  1
  O  O2  1  0.75952000  0.02637600  0.17810900  1
  O  O3  1  0.75955000  0.52634400  0.17810100  1
  O  O4  1  0.32819300  0.21951100  0.88190800  1
  O  O5  1  0.32837400  0.71934600  0.88183200  1
  O  O6  1  0.57138100  0.17775200  0.54512300  1
  O  O7  1  0.57140300  0.67766300  0.54506900  1
  O  O8  1  0.14038800  0.35153400  0.32284700  1
  O  O9  1  0.14042600  0.85151100  0.32284700  1
  O  O10  1  0.01019000  0.14430600  0.54999500  1
  O  O11  1  0.01017600  0.64431800  0.55001800  1
  O  O12  1  0.89538300  0.25358600  0.94408400  1
  O  O13  1  0.89542700  0.75364800  0.94414900  1
  O  O14  1  0.71289400  0.30471700  0.29341300  1
  O  O15  1  0.71285600  0.80472800  0.29338200  1
loop_
_geom_bond_atom_site_label_1
_geom_bond_atom_site_label_2
_geom_bond_distance
_geom_bond_site_symmetry_2
Li0 O4 1.927938 1_555
Li0 O6 2.007498 1_555
Li0 O12 2.131131 1_555
Li0 O2 2.469304 1_556
Li1 O5 1.926893 1_555
Li1 O7 2.007463 1_555
Li1 O13 2.131997 1_555
Li1 O3 2.469330 1_556
Li2 O4 1.969022 1_554
Li2 O8 2.009911 1_555
Li2 O0 2.017452 1_554
Li2 O14 2.518181 1_555
Li3 O5 1.969841 1_554
Li3 O9 2.010138 1_555
Li3 O1 2.017113 1_554
Li3 O15 2.517687 1_555
Fe0 O9 1.975419 1_555
Fe0 O7 2.020608 1_555
Fe0 O1 2.030666 1_555
Fe0 O5 2.098922 1_555
Fe1 O8 1.975570 1_555
Fe1 O6 2.019557 1_555
Fe1 O0 2.031752 1_555
Fe1 O4 2.098670 1_555
O0 Si1 1.611841 1_555
O1 Si0 1.612541 1_565
O2 Si5 1.670038 1_545
O2 Si2 1.685944 1_555
O3 Si4 1.669745 1_555
O3 Si3 1.686036 1_555
O4 Si0 1.619257 1_555
O5 Si1 1.619819 1_555
O6 Si2 1.597404 1_555
O7 Si3 1.597118 1_555
O8 Si4 1.600230 1_455
O9 Si5 1.599997 1_455
O10 Si2 1.643107 1_455
O10 Si0 1.665001 1_555
O11 Si3 1.643274 1_455
O11 Si1 1.665024 1_555
O12 Si4 1.654878 1_556
O12 Si0 1.691645 1_655
O13 Si5 1.654666 1_556
O13 Si1 1.691783 1_655
O14 Si4 1.669376 1_555
O14 Si2 1.670082 1_555
O15 Si5 1.669549 1_555
O15 Si3 1.670408 1_555
