# generated using pymatgen
data_Rb10NaAl11Si13O48
_symmetry_space_group_name_H-M   'P 1'
_cell_length_a   12.06775200
_cell_length_b   12.24154962
_cell_length_c   12.65427480
_cell_angle_alpha   90.56706033
_cell_angle_beta   90.15788844
_cell_angle_gamma   90.16477495
_symmetry_Int_Tables_number   1
_chemical_formula_structural   Rb10NaAl11Si13O48
_chemical_formula_sum   'Rb10 Na1 Al11 Si13 O48'
_cell_volume   1869.28398652
_cell_formula_units_Z   1
loop_
 _symmetry_equiv_pos_site_id
 _symmetry_equiv_pos_as_xyz
  1  'x, y, z'
loop_
 _atom_site_type_symbol
 _atom_site_label
 _atom_site_symmetry_multiplicity
 _atom_site_fract_x
 _atom_site_fract_y
 _atom_site_fract_z
 _atom_site_occupancy
  Rb  Rb0  1  0.53350800  0.50543000  0.98002400  1
  Rb  Rb1  1  0.25420500  0.73787700  0.73783500  1
  Rb  Rb2  1  0.74390300  0.74128500  0.75564800  1
  Rb  Rb3  1  0.49378300  0.01272800  0.43298000  1
  Rb  Rb4  1  0.00186200  0.49861700  0.44583600  1
  Rb  Rb5  1  0.26682600  0.26700700  0.27881600  1
  Rb  Rb6  1  0.74913100  0.24333600  0.26386100  1
  Rb  Rb7  1  0.23704100  0.75979200  0.26482100  1
  Rb  Rb8  1  0.73737800  0.69996500  0.32223200  1
  Rb  Rb9  1  0.07620200  0.11502700  0.04402000  1
  Na  Na0  1  0.86262800  0.85396300  0.16869300  1
  Al  Al0  1  0.62530800  0.81068000  0.00417600  1
  Al  Al1  1  0.99400800  0.80538100  0.62392300  1
  Al  Al2  1  0.19156100  0.00943100  0.39313300  1
  Al  Al3  1  0.00531400  0.19387400  0.39338000  1
  Al  Al4  1  0.80343000  0.00147100  0.38327600  1
  Al  Al5  1  0.99136400  0.81112200  0.38384500  1
  Al  Al6  1  0.35234800  0.99682900  0.17295400  1
  Al  Al7  1  0.63181200  0.99055100  0.17755300  1
  Al  Al8  1  0.00032600  0.36302800  0.18223000  1
  Al  Al9  1  0.99348700  0.63496500  0.17301300  1
  Al  Al10  1  0.80824700  0.62095800  0.00098800  1
  Si  Si0  1  0.36834700  0.00151100  0.81899500  1
  Si  Si1  1  0.61879900  0.99890100  0.81722800  1
  Si  Si2  1  0.99955800  0.36247500  0.82072700  1
  Si  Si3  1  0.99833300  0.60971500  0.81195400  1
  Si  Si4  1  0.18552700  0.99637600  0.62812100  1
  Si  Si5  1  0.99430900  0.18139500  0.63314700  1
  Si  Si6  1  0.80610900  0.99945100  0.63100500  1
  Si  Si7  1  0.36992800  0.18421400  0.00253600  1
  Si  Si8  1  0.62760100  0.17673400  0.99972600  1
  Si  Si9  1  0.18861400  0.37218600  0.00135900  1
  Si  Si10  1  0.81895600  0.35770700  0.00371200  1
  Si  Si11  1  0.18297100  0.62361900  0.99206400  1
  Si  Si12  1  0.35773900  0.82061800  0.99864300  1
  O  O0  1  0.30168400  0.29934400  0.98550400  1
  O  O1  1  0.23447000  0.49884400  0.00878300  1
  O  O2  1  0.70231000  0.28827400  0.99007100  1
  O  O3  1  0.29090300  0.70317700  0.97278100  1
  O  O4  1  0.77635900  0.48106400  0.02325800  1
  O  O5  1  0.48206400  0.78414600  0.02441600  1
  O  O6  1  0.68159800  0.68261500  0.96836100  1
  O  O7  1  0.35442700  0.10799200  0.89689200  1
  O  O8  1  0.10998600  0.35371200  0.89727400  1
  O  O9  1  0.63193400  0.11138400  0.88716500  1
  O  O10  1  0.11674600  0.62173700  0.87878300  1
  O  O11  1  0.88900900  0.34718000  0.89233500  1
  O  O12  1  0.35079100  0.88721300  0.88481200  1
  O  O13  1  0.89255000  0.62811500  0.88600500  1
  O  O14  1  0.63700500  0.89157100  0.88736500  1
  O  O15  1  0.49155200  0.99931000  0.76526300  1
  O  O16  1  0.99837100  0.48240500  0.76302800  1
  O  O17  1  0.27330300  0.00351900  0.72956400  1
  O  O18  1  0.00713800  0.26580300  0.73524300  1
  O  O19  1  0.70364400  0.99925000  0.71816600  1
  O  O20  1  0.00383200  0.69631000  0.71731900  1
  O  O21  1  0.10295800  0.10155100  0.63951100  1
  O  O22  1  0.88211000  0.10913500  0.65416700  1
  O  O23  1  0.11773000  0.88223700  0.64346200  1
  O  O24  1  0.87770800  0.88897100  0.65332200  1
  O  O25  1  0.25946900  0.99824500  0.52129000  1
  O  O26  1  0.98904100  0.25098400  0.52555600  1
  O  O27  1  0.74855900  0.00190200  0.51541900  1
  O  O28  1  0.98045200  0.73830500  0.50356200  1
  O  O29  1  0.13773800  0.14005900  0.38464700  1
  O  O30  1  0.89336500  0.11035400  0.36219200  1
  O  O31  1  0.10285900  0.90004000  0.37604400  1
  O  O32  1  0.86175600  0.87279100  0.35060800  1
  O  O33  1  0.29794000  0.00024200  0.29891200  1
  O  O34  1  0.68541900  0.02068700  0.30315400  1
  O  O35  1  0.00552100  0.30514900  0.30592800  1
  O  O36  1  0.01394400  0.70783500  0.28871600  1
  O  O37  1  0.49072200  0.97703000  0.18723500  1
  O  O38  1  0.98416300  0.49926100  0.20398900  1
  O  O39  1  0.31858200  0.12310500  0.10454100  1
  O  O40  1  0.66636400  0.10877400  0.10003400  1
  O  O41  1  0.12585300  0.33124800  0.10703200  1
  O  O42  1  0.89349100  0.30548200  0.09822000  1
  O  O43  1  0.11220100  0.66252100  0.09128500  1
  O  O44  1  0.87140800  0.68022600  0.11136100  1
  O  O45  1  0.29317800  0.89126800  0.08853600  1
  O  O46  1  0.68767600  0.87352600  0.11443500  1
  O  O47  1  0.49895000  0.22398800  0.01589600  1
loop_
_geom_bond_atom_site_label_1
_geom_bond_atom_site_label_2
_geom_bond_distance
_geom_bond_site_symmetry_2
Na0 O46 2.232584 1_555
Na0 O44 2.243227 1_555
Na0 O32 2.311297 1_555
Al0 O46 1.753480 1_555
Al0 O6 1.765879 1_554
Al0 O5 1.777677 1_555
Al0 O14 1.792974 1_554
Al1 O28 1.730279 1_555
Al1 O24 1.777313 1_555
Al1 O23 1.777857 1_655
Al1 O20 1.795821 1_655
Al2 O31 1.723534 1_545
Al2 O29 1.731902 1_555
Al2 O33 1.757518 1_555
Al2 O25 1.821555 1_545
Al3 O29 1.733662 1_555
Al3 O30 1.734170 1_455
Al3 O35 1.763527 1_555
Al3 O26 1.817785 1_455
Al4 O30 1.739545 1_555
Al4 O34 1.763556 1_555
Al4 O32 1.772793 1_545
Al4 O27 1.800169 1_555
Al5 O31 1.731864 1_655
Al5 O36 1.759463 1_655
Al5 O28 1.770337 1_555
Al5 O32 1.789579 1_555
Al6 O37 1.697462 1_555
Al6 O33 1.725686 1_565
Al6 O45 1.812193 1_555
Al6 O39 1.825709 1_565
Al7 O37 1.715027 1_555
Al7 O34 1.749888 1_565
Al7 O46 1.769335 1_555
Al7 O40 1.804850 1_565
Al8 O38 1.699462 1_455
Al8 O35 1.725631 1_555
Al8 O42 1.805821 1_455
Al8 O41 1.831818 1_555
Al9 O38 1.714071 1_555
Al9 O36 1.723738 1_655
Al9 O44 1.758673 1_555
Al9 O43 1.802233 1_655
Al10 O44 1.740402 1_555
Al10 O6 1.756527 1_554
Al10 O4 1.779490 1_555
Al10 O13 1.780433 1_554
O0 Si9 1.643840 1_556
O0 Si7 1.650067 1_556
O1 Si9 1.646502 1_555
O1 Si11 1.665892 1_554
O2 Si8 1.639806 1_555
O2 Si10 1.650033 1_556
O3 Si11 1.644295 1_555
O3 Si12 1.675431 1_555
O3 Rb1 3.038839 1_555
O4 Si10 1.613549 1_555
O4 Rb0 2.996082 1_554
O5 Si12 1.600223 1_554
O6 Rb0 2.811707 1_555
O6 Rb2 2.893591 1_555
O7 Si7 1.632701 1_556
O7 Si0 1.635761 1_555
O8 Si9 1.634709 1_556
O8 Si2 1.649672 1_455
O9 Si8 1.627777 1_555
O9 Si1 1.636533 1_545
O10 Si11 1.639222 1_555
O10 Si3 1.663871 1_455
O10 Rb1 2.829692 1_555
O11 Si2 1.626194 1_555
O11 Si10 1.649627 1_556
O12 Si0 1.648819 1_565
O12 Si12 1.664178 1_555
O12 Rb1 2.840459 1_555
O13 Si3 1.600782 1_555
O13 Rb2 2.810947 1_555
O14 Si1 1.608088 1_555
O14 Rb2 2.791368 1_555
O15 Si0 1.636789 1_565
O15 Si1 1.668833 1_555
O16 Si2 1.646205 1_555
O16 Si3 1.671243 1_555
O17 Si0 1.609474 1_555
O17 Si4 1.663515 1_545
O17 Rb1 3.262099 1_545
O18 Si2 1.598382 1_455
O18 Si5 1.652978 1_455
O19 Si1 1.620780 1_555
O19 Si6 1.659236 1_555
O19 Rb2 3.235813 1_555
O20 Si3 1.608534 1_455
O20 Rb1 3.072399 1_555
O20 Rb2 3.223454 1_455
O21 Si4 1.635787 1_545
O21 Si5 1.639903 1_455
O22 Si5 1.638983 1_555
O22 Si6 1.647297 1_545
O23 Si4 1.630648 1_555
O23 Rb1 2.703559 1_555
O24 Si6 1.633513 1_555
O24 Rb2 2.755648 1_555
O25 Si4 1.622171 1_555
O25 Rb3 3.048648 1_565
O26 Si5 1.614364 1_555
O26 Rb4 3.207766 1_655
O27 Si6 1.618019 1_545
O27 Rb3 3.247499 1_555
O28 Rb4 3.028627 1_655
O29 Rb5 2.583419 1_555
O30 Rb6 2.696749 1_555
O31 Rb7 2.744315 1_555
O32 Rb8 2.611812 1_555
O33 Rb3 2.908241 1_555
O33 Rb7 3.057933 1_545
O33 Rb5 3.300435 1_555
O34 Rb3 2.842440 1_555
O34 Rb6 2.878191 1_555
O35 Rb4 2.943382 1_555
O35 Rb5 3.207909 1_555
O35 Rb6 3.224683 1_455
O36 Rb7 2.782585 1_555
O36 Rb4 3.260997 1_555
O37 Rb3 3.136096 1_565
O38 Rb4 3.067345 1_655
O39 Si7 1.621902 1_555
O39 Rb5 2.879887 1_555
O39 Rb9 3.022634 1_555
O40 Si8 1.594362 1_554
O40 Rb6 2.814316 1_555
O41 Si9 1.621599 1_555
O41 Rb9 2.819088 1_555
O41 Rb5 2.873879 1_555
O42 Si10 1.631114 1_555
O42 Rb6 2.837470 1_555
O42 Rb9 3.282380 1_655
O43 Si11 1.590293 1_554
O43 Rb7 2.903364 1_555
O45 Si12 1.624273 1_554
O45 Rb7 2.845828 1_555
O47 Si7 1.637826 1_555
O47 Si8 1.670750 1_554
