# generated using pymatgen
data_Co2RuO4
_symmetry_space_group_name_H-M   'P 1'
_cell_length_a   6.10999017
_cell_length_b   6.10999017
_cell_length_c   10.07395596
_cell_angle_alpha   75.20473001
_cell_angle_beta   75.20473001
_cell_angle_gamma   60.34862259
_symmetry_Int_Tables_number   1
_chemical_formula_structural   Co2RuO4
_chemical_formula_sum   'Co8 Ru4 O16'
_cell_volume   312.24905888
_cell_formula_units_Z   4
loop_
 _symmetry_equiv_pos_site_id
 _symmetry_equiv_pos_as_xyz
  1  'x, y, z'
loop_
 _atom_site_type_symbol
 _atom_site_label
 _atom_site_symmetry_multiplicity
 _atom_site_fract_x
 _atom_site_fract_y
 _atom_site_fract_z
 _atom_site_occupancy
  Co  Co0  1  0.59502400  0.03947600  0.81039300  1
  Co  Co1  1  0.00000000  0.00000000  0.00000000  1
  Co  Co2  1  0.96052400  0.40497600  0.68960700  1
  Co  Co3  1  0.00000000  0.50000000  0.00000000  1
  Co  Co4  1  0.03947600  0.59502400  0.31039300  1
  Co  Co5  1  0.40497600  0.96052400  0.18960700  1
  Co  Co6  1  0.00000000  0.00000000  0.50000000  1
  Co  Co7  1  0.50000000  0.00000000  0.50000000  1
  Ru  Ru0  1  0.28067200  0.71932800  0.75000000  1
  Ru  Ru1  1  0.50000000  0.50000000  0.00000000  1
  Ru  Ru2  1  0.71932800  0.28067200  0.25000000  1
  Ru  Ru3  1  0.50000000  0.50000000  0.50000000  1
  O  O0  1  0.38394100  0.85419500  0.87958300  1
  O  O1  1  0.93394700  0.84005200  0.87180600  1
  O  O2  1  0.37529200  0.37165000  0.87937800  1
  O  O3  1  0.14918100  0.63625600  0.10769400  1
  O  O4  1  0.85081900  0.36374400  0.89230600  1
  O  O5  1  0.62470800  0.62835000  0.12062200  1
  O  O6  1  0.61605900  0.14580500  0.12041700  1
  O  O7  1  0.06605300  0.15994800  0.12819400  1
  O  O8  1  0.85419500  0.38394100  0.37958300  1
  O  O9  1  0.37165000  0.37529200  0.37937800  1
  O  O10  1  0.84005200  0.93394700  0.37180600  1
  O  O11  1  0.63625600  0.14918100  0.60769400  1
  O  O12  1  0.36374400  0.85081900  0.39230600  1
  O  O13  1  0.15994800  0.06605300  0.62819400  1
  O  O14  1  0.14580500  0.61605900  0.62041700  1
  O  O15  1  0.62835000  0.62470800  0.62062200  1
loop_
_geom_bond_atom_site_label_1
_geom_bond_atom_site_label_2
_geom_bond_distance
_geom_bond_site_symmetry_2
Co0 O11 1.971736 1_555
Co0 O1 1.982028 1_545
Co0 O2 1.988065 1_555
Co0 O0 2.003315 1_545
Co1 O1 2.021571 1_444
Co1 O7 2.021571 1_555
Co1 O3 2.053395 1_545
Co1 O4 2.053395 1_454
Co1 O0 2.190678 1_544
Co1 O6 2.190678 1_455
Co2 O4 1.971736 1_555
Co2 O13 1.982028 1_655
Co2 O15 1.988065 1_555
Co2 O14 2.003315 1_655
Co3 O7 2.052720 1_555
Co3 O1 2.052720 1_454
Co3 O4 2.101931 1_454
Co3 O3 2.101931 1_555
Co3 O5 2.152653 1_455
Co3 O2 2.152653 1_554
Co4 O3 1.971736 1_555
Co4 O10 1.982028 1_455
Co4 O9 1.988065 1_555
Co4 O8 2.003315 1_455
Co5 O12 1.971736 1_555
Co5 O7 1.982028 1_565
Co5 O5 1.988065 1_555
Co5 O6 2.003315 1_565
Co6 O10 2.021571 1_445
Co6 O13 2.021571 1_555
Co6 O11 2.053395 1_455
Co6 O12 2.053395 1_545
Co6 O14 2.190678 1_545
Co6 O8 2.190678 1_455
Co7 O10 2.052720 1_545
Co7 O13 2.052720 1_555
Co7 O11 2.101931 1_555
Co7 O12 2.101931 1_545
Co7 O15 2.152653 1_545
Co7 O9 2.152653 1_555
O0 Ru1 2.058633 1_556
O0 Ru0 2.065381 1_555
O1 Ru0 2.031313 1_655
O2 Ru1 2.054986 1_556
O2 Ru0 2.073945 1_555
O3 Ru1 1.993145 1_555
O4 Ru1 1.993145 1_556
O5 Ru1 2.054986 1_555
O5 Ru2 2.073945 1_555
O6 Ru1 2.058633 1_555
O6 Ru2 2.065381 1_555
O7 Ru2 2.031313 1_455
O8 Ru3 2.058633 1_555
O8 Ru2 2.065381 1_555
O9 Ru3 2.054986 1_555
O9 Ru2 2.073945 1_555
O10 Ru2 2.031313 1_565
O11 Ru3 1.993145 1_555
O12 Ru3 1.993145 1_555
O13 Ru0 2.031313 1_545
O14 Ru3 2.058633 1_555
O14 Ru0 2.065381 1_555
O15 Ru3 2.054986 1_555
O15 Ru0 2.073945 1_555
