# generated using pymatgen
data_LiFe2(BO3)2
_symmetry_space_group_name_H-M   'P 1'
_cell_length_a   5.24665400
_cell_length_b   9.11349206
_cell_length_c   11.33475630
_cell_angle_alpha   112.81581019
_cell_angle_beta   103.08971721
_cell_angle_gamma   89.36196520
_symmetry_Int_Tables_number   1
_chemical_formula_structural   LiFe2(BO3)2
_chemical_formula_sum   'Li4 Fe8 B8 O24'
_cell_volume   484.81030959
_cell_formula_units_Z   4
loop_
 _symmetry_equiv_pos_site_id
 _symmetry_equiv_pos_as_xyz
  1  'x, y, z'
loop_
 _atom_site_type_symbol
 _atom_site_label
 _atom_site_symmetry_multiplicity
 _atom_site_fract_x
 _atom_site_fract_y
 _atom_site_fract_z
 _atom_site_occupancy
  Li  Li0  1  0.28533600  0.27701900  0.90036800  1
  Li  Li1  1  0.47216000  0.48908900  0.63368900  1
  Li  Li2  1  0.78226200  0.78004500  0.90516300  1
  Li  Li3  1  0.77148800  0.75257100  0.16584700  1
  Fe  Fe0  1  0.01560200  0.35529900  0.37496100  1
  Fe  Fe1  1  0.26784300  0.93459200  0.87974600  1
  Fe  Fe2  1  0.48789600  0.14612800  0.62936500  1
  Fe  Fe3  1  0.25079100  0.55336200  0.13343800  1
  Fe  Fe4  1  0.76226600  0.44086100  0.88223200  1
  Fe  Fe5  1  0.51064500  0.84875700  0.37996000  1
  Fe  Fe6  1  0.96513400  0.66134600  0.62666700  1
  Fe  Fe7  1  0.74905700  0.07670900  0.13399200  1
  B  B0  1  0.01784700  0.68326000  0.37535200  1
  B  B1  1  0.26387300  0.60482500  0.87414700  1
  B  B2  1  0.46627200  0.81489300  0.63402800  1
  B  B3  1  0.23563100  0.88806500  0.12173100  1
  B  B4  1  0.52902300  0.19262900  0.38702500  1
  B  B5  1  0.77165600  0.09876400  0.87435800  1
  B  B6  1  0.98892400  0.31962000  0.63141700  1
  B  B7  1  0.73467100  0.40061000  0.12593100  1
  O  O0  1  0.03408600  0.09868700  0.87885900  1
  O  O1  1  0.10596900  0.72013600  0.84678300  1
  O  O2  1  0.15876300  0.49630900  0.91167500  1
  O  O3  1  0.15204200  0.20831600  0.65040400  1
  O  O4  1  0.07172000  0.42883100  0.58672800  1
  O  O5  1  0.24587800  0.84734600  0.68584100  1
  O  O6  1  0.25822600  0.67659400  0.34254300  1
  O  O7  1  0.52037600  0.60503500  0.86255500  1
  O  O8  1  0.61800300  0.20363400  0.83148300  1
  O  O9  1  0.46344800  0.07603000  0.43145400  1
  O  O10  1  0.37156100  0.31323000  0.39344900  1
  O  O11  1  0.65165800  0.99580000  0.91423700  1
  O  O12  1  0.35893700  0.97812100  0.07256900  1
  O  O13  1  0.60063100  0.68813200  0.63661500  1
  O  O14  1  0.54513000  0.91857400  0.58091200  1
  O  O15  1  0.39385100  0.79566100  0.17862600  1
  O  O16  1  0.46825500  0.37440900  0.09655800  1
  O  O17  1  0.73843400  0.32822300  0.65981000  1
  O  O18  1  0.75673300  0.18183600  0.34246900  1
  O  O19  1  0.94964500  0.57724100  0.42483900  1
  O  O20  1  0.84905200  0.79222000  0.35576600  1
  O  O21  1  0.84835800  0.51505500  0.09399200  1
  O  O22  1  0.89555700  0.30781100  0.18056800  1
  O  O23  1  0.96786000  0.88436700  0.11033600  1
loop_
_geom_bond_atom_site_label_1
_geom_bond_atom_site_label_2
_geom_bond_distance
_geom_bond_site_symmetry_2
Li0 O0 2.008323 1_555
Li0 O16 2.043412 1_556
Li0 O2 2.064408 1_555
Li0 O8 2.071137 1_555
Li1 O13 1.927795 1_555
Li1 O4 2.071577 1_555
Li1 O17 2.071804 1_555
Li1 O7 2.343703 1_555
Li1 O10 2.499092 1_555
Li2 O7 1.953435 1_555
Li2 O1 1.956699 1_655
Li2 O11 2.047306 1_555
Li2 O23 2.130871 1_556
Li3 O23 1.951259 1_555
Li3 O20 1.983292 1_555
Li3 O15 2.041915 1_555
Li3 O21 2.067264 1_555
Fe0 O10 1.883588 1_555
Fe0 O19 1.927885 1_455
Fe0 O18 1.961925 1_455
Fe0 O22 2.019128 1_455
Fe0 O4 2.175806 1_555
Fe1 O0 1.925083 1_565
Fe1 O1 2.001914 1_555
Fe1 O5 2.002028 1_555
Fe1 O11 2.004610 1_555
Fe1 O12 2.005321 1_556
Fe2 O3 1.883184 1_555
Fe2 O14 1.967238 1_545
Fe2 O17 1.999988 1_555
Fe2 O9 2.053513 1_555
Fe2 O8 2.087484 1_555
Fe3 O16 1.944786 1_555
Fe3 O21 2.060986 1_455
Fe3 O15 2.165052 1_555
Fe3 O6 2.185216 1_555
Fe3 O2 2.294355 1_554
Fe4 O7 1.996823 1_555
Fe4 O2 2.066994 1_655
Fe4 O8 2.110127 1_555
Fe4 O21 2.163207 1_556
Fe4 O17 2.297461 1_555
Fe5 O20 1.893063 1_555
Fe5 O6 1.916080 1_555
Fe5 O9 1.951548 1_565
Fe5 O14 2.077888 1_555
Fe5 O15 2.081894 1_555
Fe6 O13 1.948228 1_555
Fe6 O5 2.054083 1_655
Fe6 O4 2.086203 1_655
Fe6 O19 2.094001 1_555
Fe6 O1 2.279243 1_655
Fe7 O23 2.047569 1_545
Fe7 O22 2.072509 1_555
Fe7 O12 2.095670 1_545
Fe7 O18 2.169199 1_555
Fe7 O11 2.239798 1_544
B0 O20 1.371852 1_455
B0 O19 1.376648 1_455
B0 O6 1.387728 1_555
B1 O2 1.381216 1_555
B1 O7 1.381573 1_555
B1 O1 1.415601 1_555
B2 O13 1.353194 1_555
B2 O5 1.390956 1_555
B2 O14 1.410393 1_555
B3 O23 1.380961 1_455
B3 O12 1.390123 1_555
B3 O15 1.406161 1_555
B4 O10 1.356759 1_555
B4 O18 1.387167 1_555
B4 O9 1.415196 1_555
B5 O0 1.366232 1_655
B5 O11 1.397225 1_545
B5 O8 1.401818 1_555
B6 O3 1.369028 1_655
B6 O4 1.391469 1_655
B6 O17 1.416562 1_555
B7 O16 1.362598 1_555
B7 O22 1.401717 1_555
B7 O21 1.406832 1_555
