# generated using pymatgen
data_NaLi5Mn2P2(CO7)2
_symmetry_space_group_name_H-M   'P 1'
_cell_length_a   6.67204900
_cell_length_b   8.64415400
_cell_length_c   9.99528352
_cell_angle_alpha   87.64463576
_cell_angle_beta   90.00000000
_cell_angle_gamma   90.00000000
_symmetry_Int_Tables_number   1
_chemical_formula_structural   NaLi5Mn2P2(CO7)2
_chemical_formula_sum   'Na2 Li10 Mn4 P4 C4 O28'
_cell_volume   575.98314012
_cell_formula_units_Z   2
loop_
 _symmetry_equiv_pos_site_id
 _symmetry_equiv_pos_as_xyz
  1  'x, y, z'
loop_
 _atom_site_type_symbol
 _atom_site_label
 _atom_site_symmetry_multiplicity
 _atom_site_fract_x
 _atom_site_fract_y
 _atom_site_fract_z
 _atom_site_occupancy
  Na  Na0  1  0.24897800  0.24709700  0.62784200  1
  Na  Na1  1  0.75102200  0.24709700  0.12784200  1
  Li  Li0  1  0.50696300  0.08506300  0.87242800  1
  Li  Li1  1  0.49303700  0.08506300  0.37242800  1
  Li  Li2  1  0.72267000  0.27071600  0.61578400  1
  Li  Li3  1  0.27733000  0.27071600  0.11578400  1
  Li  Li4  1  0.77689400  0.73405800  0.88542400  1
  Li  Li5  1  0.22445200  0.73617500  0.88368600  1
  Li  Li6  1  0.77554800  0.73617500  0.38368600  1
  Li  Li7  1  0.22310600  0.73405800  0.38542400  1
  Li  Li8  1  0.98842200  0.91137800  0.62844200  1
  Li  Li9  1  0.01157800  0.91137800  0.12844200  1
  Mn  Mn0  1  0.00264100  0.35481200  0.88660500  1
  Mn  Mn1  1  0.99735900  0.35481200  0.38660500  1
  Mn  Mn2  1  0.49776300  0.64995700  0.61064900  1
  Mn  Mn3  1  0.50223700  0.64995700  0.11064900  1
  P  P0  1  0.50541900  0.40992200  0.85224500  1
  P  P1  1  0.49458100  0.40992200  0.35224500  1
  P  P2  1  0.99364300  0.59514200  0.64221700  1
  P  P3  1  0.00635700  0.59514200  0.14221700  1
  C  C0  1  0.99841200  0.03846500  0.86527500  1
  C  C1  1  0.00158800  0.03846500  0.36527500  1
  C  C2  1  0.50954700  0.95809500  0.63960800  1
  C  C3  1  0.49045300  0.95809500  0.13960800  1
  O  O0  1  0.53485800  0.10089800  0.67229800  1
  O  O1  1  0.46514200  0.10089800  0.17229800  1
  O  O2  1  0.99612600  0.07893300  0.98887100  1
  O  O3  1  0.00387400  0.07893300  0.48887100  1
  O  O4  1  0.00058900  0.14389700  0.76872500  1
  O  O5  1  0.99941100  0.14389700  0.26872500  1
  O  O6  1  0.32031500  0.31024500  0.89755700  1
  O  O7  1  0.68856500  0.31498800  0.90441400  1
  O  O8  1  0.31143500  0.31498800  0.40441400  1
  O  O9  1  0.67968500  0.31024500  0.39755700  1
  O  O10  1  0.51393000  0.42316700  0.69595800  1
  O  O11  1  0.97853600  0.42686100  0.59380600  1
  O  O12  1  0.48607000  0.42316700  0.19595800  1
  O  O13  1  0.02146400  0.42686100  0.09380600  1
  O  O14  1  0.49756700  0.57731400  0.90338700  1
  O  O15  1  0.99893700  0.58447100  0.79916800  1
  O  O16  1  0.50243300  0.57731400  0.40338700  1
  O  O17  1  0.00106300  0.58447100  0.29916800  1
  O  O18  1  0.81525800  0.69843800  0.59266100  1
  O  O19  1  0.18115500  0.68340500  0.58786100  1
  O  O20  1  0.81884500  0.68340500  0.08786100  1
  O  O21  1  0.18474200  0.69843800  0.09266100  1
  O  O22  1  0.49396900  0.85165300  0.73515000  1
  O  O23  1  0.50603100  0.85165300  0.23515000  1
  O  O24  1  0.49890900  0.92131300  0.51527500  1
  O  O25  1  0.50109100  0.92131300  0.01527500  1
  O  O26  1  0.99863500  0.89353400  0.83466300  1
  O  O27  1  0.00136500  0.89353400  0.33466300  1
loop_
_geom_bond_atom_site_label_1
_geom_bond_atom_site_label_2
_geom_bond_distance
_geom_bond_site_symmetry_2
Na0 O0 2.320903 1_555
Na0 O8 2.323281 1_555
Na0 O4 2.328519 1_555
Na0 O11 2.396410 1_455
Na0 O10 2.447477 1_555
Na0 O3 2.623519 1_555
Na0 O6 2.813044 1_555
Na1 O1 2.320903 1_555
Na1 O7 2.323281 1_554
Na1 O5 2.328519 1_555
Na1 O13 2.396410 1_655
Na1 O12 2.447477 1_555
Na1 O2 2.623519 1_554
Na1 O9 2.813044 1_555
Li0 O25 1.969163 1_546
Li0 O0 2.008057 1_555
Li0 O6 2.333024 1_555
Li0 O7 2.360665 1_555
Li0 O22 2.487701 1_545
Li1 O24 1.969163 1_545
Li1 O1 2.008057 1_555
Li1 O9 2.333024 1_555
Li1 O8 2.360665 1_555
Li1 O23 2.487701 1_545
Li2 O0 1.993989 1_555
Li2 O10 2.098877 1_555
Li2 O11 2.181754 1_555
Li2 O9 2.212591 1_555
Li2 O4 2.615202 1_655
Li3 O1 1.993989 1_555
Li3 O12 2.098877 1_555
Li3 O13 2.181754 1_555
Li3 O6 2.212591 1_554
Li3 O5 2.615202 1_455
Li4 O26 2.071018 1_555
Li4 O20 2.071581 1_556
Li4 O15 2.168344 1_555
Li4 O14 2.306808 1_555
Li4 O22 2.593697 1_555
Li5 O26 2.074991 1_455
Li5 O21 2.117437 1_556
Li5 O15 2.188223 1_455
Li5 O14 2.285350 1_555
Li5 O22 2.512460 1_555
Li6 O27 2.074991 1_655
Li6 O18 2.117437 1_555
Li6 O17 2.188223 1_655
Li6 O16 2.285350 1_555
Li6 O23 2.512460 1_555
Li7 O27 2.071018 1_555
Li7 O19 2.071581 1_555
Li7 O17 2.168344 1_555
Li7 O16 2.306808 1_555
Li7 O23 2.593697 1_555
Li8 O3 1.971928 1_665
Li8 O26 2.061796 1_555
Li8 O18 2.214722 1_555
Li8 O19 2.401505 1_655
Li8 O4 2.498826 1_665
Li9 O2 1.971928 1_464
Li9 O27 2.061796 1_555
Li9 O21 2.214722 1_555
Li9 O20 2.401505 1_455
Li9 O5 2.498826 1_465
Mn0 O7 2.129883 1_455
Mn0 O15 2.136084 1_455
Mn0 O6 2.156239 1_555
Mn0 O13 2.190628 1_556
Mn0 O4 2.211109 1_555
Mn0 O2 2.556045 1_455
Mn1 O8 2.129883 1_655
Mn1 O17 2.136084 1_655
Mn1 O9 2.156239 1_555
Mn1 O11 2.190628 1_555
Mn1 O5 2.211109 1_555
Mn1 O3 2.556045 1_655
Mn2 O10 2.108201 1_555
Mn2 O19 2.142988 1_555
Mn2 O18 2.165440 1_555
Mn2 O22 2.183420 1_555
Mn2 O16 2.189498 1_555
Mn2 O24 2.495409 1_555
Mn3 O12 2.108201 1_555
Mn3 O20 2.142988 1_555
Mn3 O21 2.165440 1_555
Mn3 O23 2.183420 1_555
Mn3 O14 2.189498 1_554
Mn3 O25 2.495409 1_555
C0 O2 1.297797 1_555
C0 O4 1.299933 1_655
C0 O26 1.301789 1_545
C1 O3 1.297797 1_555
C1 O5 1.299933 1_455
C1 O27 1.301789 1_545
C2 O24 1.297312 1_555
C2 O0 1.300848 1_565
C2 O22 1.302741 1_555
C3 O25 1.297312 1_555
C3 O1 1.300848 1_565
C3 O23 1.302741 1_555
O6 P0 1.562282 1_555
O7 P0 1.550271 1_555
O8 P1 1.550271 1_555
O9 P1 1.562282 1_555
O10 P0 1.562655 1_555
O11 P2 1.555041 1_555
O12 P1 1.562655 1_555
O13 P3 1.555041 1_555
O14 P0 1.555167 1_555
O15 P2 1.568088 1_555
O16 P1 1.555167 1_555
O17 P3 1.568088 1_555
O18 P2 1.556547 1_555
O19 P2 1.551914 1_455
O20 P3 1.551914 1_655
O21 P3 1.556547 1_555
