# generated using pymatgen
data_K2SnCl4O
_symmetry_space_group_name_H-M   'P 1'
_cell_length_a   4.17075800
_cell_length_b   8.58437400
_cell_length_c   12.02862300
_cell_angle_alpha   90.00000000
_cell_angle_beta   90.00000000
_cell_angle_gamma   90.00000000
_symmetry_Int_Tables_number   1
_chemical_formula_structural   K2SnCl4O
_chemical_formula_sum   'K4 Sn2 Cl8 O2'
_cell_volume   430.66495761
_cell_formula_units_Z   2
loop_
 _symmetry_equiv_pos_site_id
 _symmetry_equiv_pos_as_xyz
  1  'x, y, z'
loop_
 _atom_site_type_symbol
 _atom_site_label
 _atom_site_symmetry_multiplicity
 _atom_site_fract_x
 _atom_site_fract_y
 _atom_site_fract_z
 _atom_site_occupancy
  K  K0  1  0.50000000  0.06736600  0.64645700  1
  K  K1  1  0.50000000  0.43263400  0.14645700  1
  K  K2  1  0.50000000  0.93263400  0.35354300  1
  K  K3  1  0.50000000  0.56736600  0.85354300  1
  Sn  Sn0  1  0.00000000  0.50000000  0.50000000  1
  Sn  Sn1  1  0.00000000  0.00000000  0.00000000  1
  Cl  Cl0  1  0.00000000  0.37196700  0.69683000  1
  Cl  Cl1  1  0.00000000  0.12803300  0.19683000  1
  Cl  Cl2  1  0.00000000  0.62803300  0.30317000  1
  Cl  Cl3  1  0.00000000  0.87196700  0.80317000  1
  Cl  Cl4  1  0.50000000  0.31634800  0.43594300  1
  Cl  Cl5  1  0.50000000  0.18365200  0.93594300  1
  Cl  Cl6  1  0.50000000  0.68365200  0.56405700  1
  Cl  Cl7  1  0.50000000  0.81634800  0.06405700  1
  O  O0  1  0.00000000  0.00000000  0.50000000  1
  O  O1  1  0.00000000  0.50000000  0.00000000  1
loop_
_geom_bond_atom_site_label_1
_geom_bond_atom_site_label_2
_geom_bond_distance
_geom_bond_site_symmetry_2
K0 O0 2.790472 1_555
K0 O0 2.790472 1_655
K1 O1 2.790472 1_555
K1 O1 2.790472 1_655
K2 O0 2.790472 1_665
K2 O0 2.790472 1_565
K3 O1 2.790472 1_656
K3 O1 2.790472 1_556
Cl0 Sn0 2.610265 1_555
Cl0 K3 3.273497 1_555
Cl0 K3 3.273497 1_455
Cl0 K0 3.398995 1_455
Cl0 K0 3.398995 1_555
Cl1 Sn1 2.610265 1_555
Cl1 K2 3.273497 1_545
Cl1 K2 3.273497 1_445
Cl1 K1 3.398995 1_455
Cl1 K1 3.398995 1_555
Cl2 Sn0 2.610265 1_555
Cl2 K1 3.273497 1_455
Cl2 K1 3.273497 1_555
Cl2 K2 3.398995 1_555
Cl2 K2 3.398995 1_455
Cl3 Sn1 2.610265 1_566
Cl3 K0 3.273497 1_465
Cl3 K0 3.273497 1_565
Cl3 K3 3.398995 1_455
Cl3 K3 3.398995 1_555
Cl4 Sn0 2.725431 1_555
Cl4 Sn0 2.725431 1_655
Cl4 K0 3.313652 1_555
Cl4 K2 3.439835 1_545
Cl4 K1 3.622380 1_555
Cl5 Sn1 2.725431 1_556
Cl5 Sn1 2.725431 1_656
Cl5 K1 3.313652 1_556
Cl5 K3 3.439835 1_555
Cl5 K0 3.622380 1_555
Cl6 Sn0 2.725431 1_555
Cl6 Sn0 2.725431 1_655
Cl6 K2 3.313652 1_555
Cl6 K0 3.439835 1_565
Cl6 K3 3.622380 1_555
Cl7 Sn1 2.725431 1_565
Cl7 Sn1 2.725431 1_665
Cl7 K3 3.313652 1_554
Cl7 K1 3.439835 1_555
Cl7 K2 3.622380 1_555
