# generated using pymatgen
data_Mn2PO5
_symmetry_space_group_name_H-M   'P 1'
_cell_length_a   6.06590547
_cell_length_b   7.30265316
_cell_length_c   8.43159788
_cell_angle_alpha   105.71049870
_cell_angle_beta   88.47409150
_cell_angle_gamma   99.33702760
_symmetry_Int_Tables_number   1
_chemical_formula_structural   Mn2PO5
_chemical_formula_sum   'Mn8 P4 O20'
_cell_volume   354.72077010
_cell_formula_units_Z   4
loop_
 _symmetry_equiv_pos_site_id
 _symmetry_equiv_pos_as_xyz
  1  'x, y, z'
loop_
 _atom_site_type_symbol
 _atom_site_label
 _atom_site_symmetry_multiplicity
 _atom_site_fract_x
 _atom_site_fract_y
 _atom_site_fract_z
 _atom_site_occupancy
  Mn  Mn0  1  0.53621280  0.20982347  0.80208487  1
  Mn  Mn1  1  0.02504185  0.16901633  0.79423372  1
  Mn  Mn2  1  0.30982382  0.36121796  0.55103676  1
  Mn  Mn3  1  0.85610931  0.39090415  0.12212379  1
  Mn  Mn4  1  0.14389069  0.60909585  0.87787621  1
  Mn  Mn5  1  0.69017618  0.63878204  0.44896324  1
  Mn  Mn6  1  0.97495815  0.83098367  0.20576628  1
  Mn  Mn7  1  0.46378720  0.79017653  0.19791513  1
  P  P0  1  0.78434015  0.19868475  0.43451983  1
  P  P1  1  0.29442903  0.21223863  0.16502313  1
  P  P2  1  0.70557097  0.78776137  0.83497687  1
  P  P3  1  0.21565985  0.80131525  0.56548017  1
  O  O0  1  0.74866845  0.97982747  0.78187968  1
  O  O1  1  0.24213754  0.99063392  0.70792427  1
  O  O2  1  0.75786246  0.00936608  0.29207573  1
  O  O3  1  0.25133155  0.02017253  0.21812032  1
  O  O4  1  0.57600794  0.20743201  0.54069095  1
  O  O5  1  0.84996414  0.36247495  0.88809620  1
  O  O6  1  0.98634682  0.20711743  0.54101316  1
  O  O7  1  0.27352534  0.37073890  0.80100021  1
  O  O8  1  0.49707238  0.21678380  0.05455743  1
  O  O9  1  0.81561199  0.36850899  0.35385659  1
  O  O10  1  0.07968120  0.21445624  0.06972372  1
  O  O11  1  0.33286743  0.38206570  0.31877175  1
  O  O12  1  0.66713257  0.61793430  0.68122825  1
  O  O13  1  0.92031880  0.78554376  0.93027628  1
  O  O14  1  0.18438801  0.63149101  0.64614341  1
  O  O15  1  0.50292762  0.78321620  0.94544257  1
  O  O16  1  0.72647466  0.62926110  0.19899979  1
  O  O17  1  0.01365318  0.79288257  0.45898684  1
  O  O18  1  0.15003586  0.63752505  0.11190380  1
  O  O19  1  0.42399206  0.79256799  0.45930905  1
loop_
_geom_bond_atom_site_label_1
_geom_bond_atom_site_label_2
_geom_bond_distance
_geom_bond_site_symmetry_2
Mn0 O5 2.082790 1_555
Mn0 O8 2.123421 1_556
Mn0 O7 2.129363 1_555
Mn0 O1 2.198913 1_545
Mn0 O4 2.206409 1_555
Mn0 O0 2.246455 1_545
Mn1 O5 1.893848 1_455
Mn1 O7 1.919318 1_555
Mn1 O0 1.977353 1_445
Mn1 O1 1.988193 1_545
Mn1 O6 2.249569 1_455
Mn1 O10 2.281086 1_556
Mn2 O11 2.004468 1_555
Mn2 O6 2.089143 1_455
Mn2 O7 2.096700 1_555
Mn2 O4 2.098515 1_555
Mn2 O14 2.171449 1_555
Mn2 O12 2.666636 1_555
Mn3 O5 1.928125 1_554
Mn3 O16 1.968323 1_555
Mn3 O10 1.980284 1_655
Mn3 O9 2.009772 1_555
Mn3 O8 2.336610 1_555
Mn3 O18 2.337468 1_655
Mn4 O18 1.928125 1_556
Mn4 O7 1.968323 1_555
Mn4 O13 1.980284 1_455
Mn4 O14 2.009772 1_555
Mn4 O15 2.336610 1_555
Mn4 O5 2.337468 1_455
Mn5 O12 2.004468 1_555
Mn5 O17 2.089143 1_655
Mn5 O16 2.096700 1_555
Mn5 O19 2.098515 1_555
Mn5 O9 2.171449 1_555
Mn5 O11 2.666636 1_555
Mn6 O18 1.893848 1_655
Mn6 O16 1.919318 1_555
Mn6 O3 1.977353 1_665
Mn6 O2 1.988193 1_565
Mn6 O17 2.249569 1_655
Mn6 O13 2.281086 1_554
Mn7 O18 2.082790 1_555
Mn7 O15 2.123421 1_554
Mn7 O16 2.129363 1_555
Mn7 O2 2.198913 1_565
Mn7 O19 2.206409 1_555
Mn7 O3 2.246455 1_565
O0 P2 1.565530 1_555
O1 P3 1.555201 1_555
O2 P0 1.555201 1_555
O3 P1 1.565530 1_555
O4 P0 1.528863 1_555
O6 P0 1.521740 1_555
O8 P1 1.523847 1_555
O9 P0 1.552461 1_555
O10 P1 1.553198 1_555
O11 P1 1.524648 1_555
O12 P2 1.524648 1_555
O13 P2 1.553198 1_555
O14 P3 1.552461 1_555
O15 P2 1.523847 1_555
O17 P3 1.521740 1_555
O19 P3 1.528863 1_555
