# generated using pymatgen
data_Li2CrPO4F
_symmetry_space_group_name_H-M   'P 1'
_cell_length_a   5.20017300
_cell_length_b   11.44402700
_cell_length_c   13.26772900
_cell_angle_alpha   90.00000000
_cell_angle_beta   90.00000000
_cell_angle_gamma   90.00000000
_symmetry_Int_Tables_number   1
_chemical_formula_structural   Li2CrPO4F
_chemical_formula_sum   'Li16 Cr8 P8 O32 F8'
_cell_volume   789.57476198
_cell_formula_units_Z   8
loop_
 _symmetry_equiv_pos_site_id
 _symmetry_equiv_pos_as_xyz
  1  'x, y, z'
loop_
 _atom_site_type_symbol
 _atom_site_label
 _atom_site_symmetry_multiplicity
 _atom_site_fract_x
 _atom_site_fract_y
 _atom_site_fract_z
 _atom_site_occupancy
  Li  Li0  1  0.21964900  0.18099200  0.24039600  1
  Li  Li1  1  0.21964900  0.68099200  0.75960400  1
  Li  Li2  1  0.23181100  0.40185800  0.63586800  1
  Li  Li3  1  0.23181100  0.90185800  0.36413200  1
  Li  Li4  1  0.26818900  0.40185800  0.13586800  1
  Li  Li5  1  0.26818900  0.90185800  0.86413200  1
  Li  Li6  1  0.28035100  0.68099200  0.25960400  1
  Li  Li7  1  0.28035100  0.18099200  0.74039600  1
  Li  Li8  1  0.71964900  0.81900800  0.25960400  1
  Li  Li9  1  0.71964900  0.31900800  0.74039600  1
  Li  Li10  1  0.73181100  0.09814200  0.13586800  1
  Li  Li11  1  0.73181100  0.59814200  0.86413200  1
  Li  Li12  1  0.76818900  0.59814200  0.36413200  1
  Li  Li13  1  0.76818900  0.09814200  0.63586800  1
  Li  Li14  1  0.78035100  0.81900800  0.75960400  1
  Li  Li15  1  0.78035100  0.31900800  0.24039600  1
  Cr  Cr0  1  0.23362300  0.67087200  0.48823100  1
  Cr  Cr1  1  0.23362300  0.17087200  0.51176900  1
  Cr  Cr2  1  0.26637700  0.17087200  0.01176900  1
  Cr  Cr3  1  0.26637700  0.67087200  0.98823100  1
  Cr  Cr4  1  0.73362300  0.82912800  0.98823100  1
  Cr  Cr5  1  0.73362300  0.32912800  0.01176900  1
  Cr  Cr6  1  0.76637700  0.32912800  0.51176900  1
  Cr  Cr7  1  0.76637700  0.82912800  0.48823100  1
  P  P0  1  0.19904900  0.91274400  0.12631400  1
  P  P1  1  0.19904900  0.41274400  0.87368600  1
  P  P2  1  0.30095100  0.41274400  0.37368600  1
  P  P3  1  0.30095100  0.91274400  0.62631400  1
  P  P4  1  0.69904900  0.08725600  0.37368600  1
  P  P5  1  0.69904900  0.58725600  0.62631400  1
  P  P6  1  0.80095100  0.58725600  0.12631400  1
  P  P7  1  0.80095100  0.08725600  0.87368600  1
  O  O0  1  0.10260100  0.59205700  0.12509400  1
  O  O1  1  0.10260100  0.09205700  0.87490600  1
  O  O2  1  0.20106400  0.34556500  0.46965300  1
  O  O3  1  0.20106400  0.84556500  0.53034700  1
  O  O4  1  0.18625500  0.35873600  0.27851000  1
  O  O5  1  0.18625500  0.85873600  0.72149000  1
  O  O6  1  0.20944300  0.04170200  0.61688900  1
  O  O7  1  0.20944300  0.54170200  0.38311100  1
  O  O8  1  0.29055700  0.04170200  0.11688900  1
  O  O9  1  0.29055700  0.54170200  0.88311100  1
  O  O10  1  0.31374500  0.85873600  0.22149000  1
  O  O11  1  0.31374500  0.35873600  0.77851000  1
  O  O12  1  0.29893600  0.34556500  0.96965300  1
  O  O13  1  0.29893600  0.84556500  0.03034700  1
  O  O14  1  0.39739900  0.09205700  0.37490600  1
  O  O15  1  0.39739900  0.59205700  0.62509400  1
  O  O16  1  0.60260100  0.90794300  0.62509400  1
  O  O17  1  0.60260100  0.40794300  0.37490600  1
  O  O18  1  0.70106400  0.65443500  0.03034700  1
  O  O19  1  0.70106400  0.15443500  0.96965300  1
  O  O20  1  0.68625500  0.64126400  0.22149000  1
  O  O21  1  0.68625500  0.14126400  0.77851000  1
  O  O22  1  0.70944300  0.45829800  0.11688900  1
  O  O23  1  0.70944300  0.95829800  0.88311100  1
  O  O24  1  0.79055700  0.95829800  0.38311100  1
  O  O25  1  0.79055700  0.45829800  0.61688900  1
  O  O26  1  0.81374500  0.14126400  0.27851000  1
  O  O27  1  0.81374500  0.64126400  0.72149000  1
  O  O28  1  0.79893600  0.15443500  0.46965300  1
  O  O29  1  0.79893600  0.65443500  0.53034700  1
  O  O30  1  0.89739900  0.90794300  0.12509400  1
  O  O31  1  0.89739900  0.40794300  0.87490600  1
  F  F0  1  0.00000000  0.25000000  0.11971400  1
  F  F1  1  0.00000000  0.25000000  0.64049700  1
  F  F2  1  0.00000000  0.75000000  0.35950300  1
  F  F3  1  0.00000000  0.75000000  0.88028600  1
  F  F4  1  0.50000000  0.25000000  0.14049700  1
  F  F5  1  0.50000000  0.25000000  0.61971400  1
  F  F6  1  0.50000000  0.75000000  0.38028600  1
  F  F7  1  0.50000000  0.75000000  0.85950300  1
loop_
_geom_bond_atom_site_label_1
_geom_bond_atom_site_label_2
_geom_bond_distance
_geom_bond_site_symmetry_2
Li0 O4 2.103204 1_555
Li0 O26 2.217606 1_455
Li0 O14 2.252821 1_555
Li0 O8 2.315626 1_555
Li1 O5 2.103204 1_555
Li1 O27 2.217606 1_455
Li1 O15 2.252821 1_555
Li1 O9 2.315626 1_555
Li2 O11 2.001689 1_555
Li2 O2 2.303022 1_555
Li2 O15 2.345139 1_555
Li2 O25 2.397034 1_455
Li3 O10 2.001689 1_555
Li3 O3 2.303022 1_555
Li3 O14 2.345139 1_565
Li3 O24 2.397034 1_455
Li4 O4 2.001689 1_555
Li4 O12 2.303022 1_554
Li4 O0 2.345139 1_555
Li4 O22 2.397034 1_555
Li5 O5 2.001689 1_555
Li5 O13 2.303022 1_556
Li5 O1 2.345139 1_565
Li5 O23 2.397034 1_555
Li6 O10 2.103204 1_555
Li6 O20 2.217606 1_555
Li6 O0 2.252821 1_555
Li6 O7 2.315626 1_555
Li7 O11 2.103204 1_555
Li7 O21 2.217606 1_555
Li7 O1 2.252821 1_555
Li7 O6 2.315626 1_555
Li8 O20 2.103204 1_555
Li8 O10 2.217606 1_555
Li8 O30 2.252821 1_555
Li8 O24 2.315626 1_555
Li9 O21 2.103204 1_555
Li9 O11 2.217606 1_555
Li9 O31 2.252821 1_555
Li9 O25 2.315626 1_555
Li10 O26 2.001689 1_555
Li10 O19 2.303022 1_554
Li10 O30 2.345139 1_545
Li10 O8 2.397034 1_555
Li11 O27 2.001689 1_555
Li11 O18 2.303022 1_556
Li11 O31 2.345139 1_555
Li11 O9 2.397034 1_555
Li12 O20 2.001689 1_555
Li12 O29 2.303022 1_555
Li12 O17 2.345139 1_555
Li12 O7 2.397034 1_655
Li13 O21 2.001689 1_555
Li13 O28 2.303022 1_555
Li13 O16 2.345139 1_545
Li13 O6 2.397034 1_655
Li14 O27 2.103204 1_555
Li14 O5 2.217606 1_655
Li14 O16 2.252821 1_555
Li14 O23 2.315626 1_555
Li15 O26 2.103204 1_555
Li15 O4 2.217606 1_655
Li15 O17 2.252821 1_555
Li15 O22 2.315626 1_555
Cr0 O7 2.036212 1_555
Cr0 O3 2.082708 1_555
Cr0 F6 2.188597 1_555
Cr0 O15 2.199140 1_555
Cr0 F2 2.283191 1_555
Cr0 O29 2.336075 1_455
Cr1 O6 2.036212 1_555
Cr1 O2 2.082708 1_555
Cr1 F5 2.188597 1_555
Cr1 O14 2.199140 1_555
Cr1 F1 2.283191 1_555
Cr1 O28 2.336075 1_455
Cr2 O8 2.036212 1_555
Cr2 O12 2.082708 1_554
Cr2 F0 2.188597 1_555
Cr2 O1 2.199140 1_554
Cr2 F4 2.283191 1_555
Cr2 O19 2.336075 1_554
Cr3 O9 2.036212 1_555
Cr3 O13 2.082708 1_556
Cr3 F3 2.188597 1_555
Cr3 O0 2.199140 1_556
Cr3 F7 2.283191 1_555
Cr3 O18 2.336075 1_556
Cr4 O23 2.036212 1_555
Cr4 O18 2.082708 1_556
Cr4 F3 2.188597 1_655
Cr4 O30 2.199140 1_556
Cr4 F7 2.283191 1_555
Cr4 O13 2.336075 1_556
Cr5 O22 2.036212 1_555
Cr5 O19 2.082708 1_554
Cr5 F0 2.188597 1_655
Cr5 O31 2.199140 1_554
Cr5 F4 2.283191 1_555
Cr5 O12 2.336075 1_554
Cr6 O25 2.036212 1_555
Cr6 O28 2.082708 1_555
Cr6 F5 2.188597 1_555
Cr6 O17 2.199140 1_555
Cr6 F1 2.283191 1_655
Cr6 O2 2.336075 1_655
Cr7 O24 2.036212 1_555
Cr7 O29 2.082708 1_555
Cr7 F6 2.188597 1_555
Cr7 O16 2.199140 1_555
Cr7 F2 2.283191 1_655
Cr7 O3 2.336075 1_655
O0 P6 1.569678 1_455
O1 P7 1.569678 1_455
O2 P2 1.575455 1_555
O3 P3 1.575455 1_555
O4 P2 1.527199 1_555
O5 P3 1.527199 1_555
O6 P3 1.555654 1_545
O7 P2 1.555654 1_555
O8 P0 1.555654 1_545
O9 P1 1.555654 1_555
O10 P0 1.527199 1_555
O11 P1 1.527199 1_555
O12 P1 1.575455 1_555
O13 P0 1.575455 1_555
O14 P4 1.569678 1_555
O15 P5 1.569678 1_555
O16 P3 1.569678 1_555
O17 P2 1.569678 1_555
O18 P6 1.575455 1_555
O19 P7 1.575455 1_555
O20 P6 1.527199 1_555
O21 P7 1.527199 1_555
O22 P6 1.555654 1_555
O23 P7 1.555654 1_565
O24 P4 1.555654 1_565
O25 P5 1.555654 1_555
O26 P4 1.527199 1_555
O27 P5 1.527199 1_555
O28 P4 1.575455 1_555
O29 P5 1.575455 1_555
O30 P0 1.569678 1_655
O31 P1 1.569678 1_655
F0 Li15 2.119455 1_455
F0 Li0 2.119455 1_555
F0 Li4 2.238551 1_555
F0 Li10 2.238551 1_455
F1 Li2 2.115911 1_555
F1 Li13 2.115911 1_455
F1 Li9 2.122697 1_455
F1 Li7 2.122697 1_555
F2 Li12 2.115911 1_455
F2 Li3 2.115911 1_555
F2 Li8 2.122697 1_455
F2 Li6 2.122697 1_555
F3 Li14 2.119455 1_455
F3 Li1 2.119455 1_555
F3 Li11 2.238551 1_455
F3 Li5 2.238551 1_555
F4 Li10 2.115911 1_555
F4 Li4 2.115911 1_555
F4 Li15 2.122697 1_555
F4 Li0 2.122697 1_555
F5 Li9 2.119455 1_555
F5 Li7 2.119455 1_555
F5 Li2 2.238551 1_555
F5 Li13 2.238551 1_555
F6 Li6 2.119455 1_555
F6 Li8 2.119455 1_555
F6 Li3 2.238551 1_555
F6 Li12 2.238551 1_555
F7 Li5 2.115911 1_555
F7 Li11 2.115911 1_555
F7 Li1 2.122697 1_555
F7 Li14 2.122697 1_555
