# generated using pymatgen
data_LuAlO3
_symmetry_space_group_name_H-M   'P 1'
_cell_length_a   5.18237142
_cell_length_b   5.18237142
_cell_length_c   5.18237094
_cell_angle_alpha   60.93765084
_cell_angle_beta   60.93765084
_cell_angle_gamma   60.93764162
_symmetry_Int_Tables_number   1
_chemical_formula_structural   LuAlO3
_chemical_formula_sum   'Lu2 Al2 O6'
_cell_volume   100.49658483
_cell_formula_units_Z   2
loop_
 _symmetry_equiv_pos_site_id
 _symmetry_equiv_pos_as_xyz
  1  'x, y, z'
loop_
 _atom_site_type_symbol
 _atom_site_label
 _atom_site_symmetry_multiplicity
 _atom_site_fract_x
 _atom_site_fract_y
 _atom_site_fract_z
 _atom_site_occupancy
  Lu  Lu0  1  0.75000000  0.75000000  0.75000000  1
  Lu  Lu1  1  0.25000000  0.25000000  0.25000000  1
  Al  Al0  1  0.00000000  0.00000000  0.00000000  1
  Al  Al1  1  0.50000000  0.50000000  0.50000000  1
  O  O0  1  0.75000000  0.33682900  0.16317100  1
  O  O1  1  0.66317100  0.83682900  0.25000000  1
  O  O2  1  0.83682900  0.25000000  0.66317100  1
  O  O3  1  0.16317100  0.75000000  0.33682900  1
  O  O4  1  0.33682900  0.16317100  0.75000000  1
  O  O5  1  0.25000000  0.66317100  0.83682900  1
loop_
_geom_bond_atom_site_label_1
_geom_bond_atom_site_label_2
_geom_bond_distance
_geom_bond_site_symmetry_2
Lu0 O4 2.171480 1_565
Lu0 O0 2.171480 1_556
Lu0 O3 2.171480 1_655
Lu0 O1 2.631063 1_555
Lu0 O1 2.631063 1_556
Lu0 O2 2.631063 1_555
Lu0 O5 2.631063 1_655
Lu0 O5 2.631063 1_555
Lu0 O2 2.631063 1_565
Lu1 O1 2.171480 1_545
Lu1 O2 2.171480 1_455
Lu1 O5 2.171480 1_554
Lu1 O4 2.631063 1_554
Lu1 O4 2.631063 1_555
Lu1 O3 2.631063 1_555
Lu1 O0 2.631063 1_455
Lu1 O3 2.631063 1_545
Lu1 O0 2.631063 1_555
Al0 O0 1.900834 1_455
Al0 O5 1.900834 1_544
Al0 O3 1.900834 1_545
Al0 O2 1.900834 1_454
Al0 O1 1.900835 1_445
Al0 O4 1.900835 1_554
Al1 O2 1.900834 1_555
Al1 O3 1.900834 1_555
Al1 O5 1.900834 1_555
Al1 O0 1.900834 1_555
Al1 O4 1.900835 1_555
Al1 O1 1.900835 1_555
