# generated using pymatgen
data_K14W6N17
_symmetry_space_group_name_H-M   'P 1'
_cell_length_a   9.82683800
_cell_length_b   12.62592000
_cell_length_c   24.28394900
_cell_angle_alpha   90.00000000
_cell_angle_beta   90.00000000
_cell_angle_gamma   90.00000000
_symmetry_Int_Tables_number   1
_chemical_formula_structural   K14W6N17
_chemical_formula_sum   'K56 W24 N68'
_cell_volume   3012.97925807
_cell_formula_units_Z   4
loop_
 _symmetry_equiv_pos_site_id
 _symmetry_equiv_pos_as_xyz
  1  'x, y, z'
loop_
 _atom_site_type_symbol
 _atom_site_label
 _atom_site_symmetry_multiplicity
 _atom_site_fract_x
 _atom_site_fract_y
 _atom_site_fract_z
 _atom_site_occupancy
  K  K0  1  0.26037400  0.27950800  0.75000000  1
  K  K1  1  0.73962600  0.72049200  0.25000000  1
  K  K2  1  0.26037400  0.22049200  0.25000000  1
  K  K3  1  0.73962600  0.77950800  0.75000000  1
  K  K4  1  0.57591800  0.23748900  0.75000000  1
  K  K5  1  0.42408200  0.76251100  0.25000000  1
  K  K6  1  0.57591800  0.26251100  0.25000000  1
  K  K7  1  0.42408200  0.73748900  0.75000000  1
  K  K8  1  0.72010000  0.35973500  0.87202500  1
  K  K9  1  0.27990000  0.64026500  0.37202500  1
  K  K10  1  0.72010000  0.14026500  0.12797500  1
  K  K11  1  0.27990000  0.85973500  0.62797500  1
  K  K12  1  0.27990000  0.64026500  0.12797500  1
  K  K13  1  0.72010000  0.35973500  0.62797500  1
  K  K14  1  0.27990000  0.85973500  0.87202500  1
  K  K15  1  0.72010000  0.14026500  0.37202500  1
  K  K16  1  0.08165200  0.39495100  0.03017300  1
  K  K17  1  0.91834800  0.60504900  0.53017300  1
  K  K18  1  0.08165200  0.10504900  0.96982700  1
  K  K19  1  0.91834800  0.89495100  0.46982700  1
  K  K20  1  0.91834800  0.60504900  0.96982700  1
  K  K21  1  0.08165200  0.39495100  0.46982700  1
  K  K22  1  0.91834800  0.89495100  0.03017300  1
  K  K23  1  0.08165200  0.10504900  0.53017300  1
  K  K24  1  0.24745200  0.86837900  0.02193400  1
  K  K25  1  0.75254800  0.13162100  0.52193400  1
  K  K26  1  0.24745200  0.63162100  0.97806600  1
  K  K27  1  0.75254800  0.36837900  0.47806600  1
  K  K28  1  0.75254800  0.13162100  0.97806600  1
  K  K29  1  0.24745200  0.86837900  0.47806600  1
  K  K30  1  0.75254800  0.36837900  0.02193400  1
  K  K31  1  0.24745200  0.63162100  0.52193400  1
  K  K32  1  0.41766300  0.39056600  0.95626600  1
  K  K33  1  0.58233700  0.60943400  0.45626600  1
  K  K34  1  0.41766300  0.10943400  0.04373400  1
  K  K35  1  0.58233700  0.89056600  0.54373400  1
  K  K36  1  0.58233700  0.60943400  0.04373400  1
  K  K37  1  0.41766300  0.39056600  0.54373400  1
  K  K38  1  0.58233700  0.89056600  0.95626600  1
  K  K39  1  0.41766300  0.10943400  0.45626600  1
  K  K40  1  0.04415300  0.41848900  0.17163500  1
  K  K41  1  0.95584700  0.58151100  0.67163500  1
  K  K42  1  0.04415300  0.08151100  0.82836500  1
  K  K43  1  0.95584700  0.91848900  0.32836500  1
  K  K44  1  0.95584700  0.58151100  0.82836500  1
  K  K45  1  0.04415300  0.41848900  0.32836500  1
  K  K46  1  0.95584700  0.91848900  0.17163500  1
  K  K47  1  0.04415300  0.08151100  0.67163500  1
  K  K48  1  0.69443800  0.45753600  0.16838700  1
  K  K49  1  0.30556200  0.54246400  0.66838700  1
  K  K50  1  0.69443800  0.04246400  0.83161300  1
  K  K51  1  0.30556200  0.95753600  0.33161300  1
  K  K52  1  0.30556200  0.54246400  0.83161300  1
  K  K53  1  0.69443800  0.45753600  0.33161300  1
  K  K54  1  0.30556200  0.95753600  0.16838700  1
  K  K55  1  0.69443800  0.04246400  0.66838700  1
  W  W0  1  0.38848100  0.00739700  0.75000000  1
  W  W1  1  0.61151900  0.99260300  0.25000000  1
  W  W2  1  0.38848100  0.49260300  0.25000000  1
  W  W3  1  0.61151900  0.50739700  0.75000000  1
  W  W4  1  0.08356600  0.81785400  0.75000000  1
  W  W5  1  0.91643400  0.18214600  0.25000000  1
  W  W6  1  0.08356600  0.68214600  0.25000000  1
  W  W7  1  0.91643400  0.31785400  0.75000000  1
  W  W8  1  0.08360200  0.33991600  0.60870500  1
  W  W9  1  0.91639800  0.66008400  0.10870500  1
  W  W10  1  0.08360200  0.16008400  0.39129500  1
  W  W11  1  0.91639800  0.83991600  0.89129500  1
  W  W12  1  0.91639800  0.66008400  0.39129500  1
  W  W13  1  0.08360200  0.33991600  0.89129500  1
  W  W14  1  0.91639800  0.83991600  0.60870500  1
  W  W15  1  0.08360200  0.16008400  0.10870500  1
  W  W16  1  0.38091300  0.14225100  0.60949700  1
  W  W17  1  0.61908700  0.85774900  0.10949700  1
  W  W18  1  0.38091300  0.35774900  0.39050300  1
  W  W19  1  0.61908700  0.64225100  0.89050300  1
  W  W20  1  0.61908700  0.85774900  0.39050300  1
  W  W21  1  0.38091300  0.14225100  0.89050300  1
  W  W22  1  0.61908700  0.64225100  0.60949700  1
  W  W23  1  0.38091300  0.35774900  0.10949700  1
  N  N0  1  0.23884500  0.90892900  0.75000000  1
  N  N1  1  0.76115500  0.09107100  0.25000000  1
  N  N2  1  0.23884500  0.59107100  0.25000000  1
  N  N3  1  0.76115500  0.40892900  0.75000000  1
  N  N4  1  0.45564500  0.43216200  0.75000000  1
  N  N5  1  0.54435500  0.56783800  0.25000000  1
  N  N6  1  0.45564500  0.06783800  0.25000000  1
  N  N7  1  0.54435500  0.93216200  0.75000000  1
  N  N8  1  0.14380000  0.68140300  0.75000000  1
  N  N9  1  0.85620000  0.31859700  0.25000000  1
  N  N10  1  0.14380000  0.81859700  0.25000000  1
  N  N11  1  0.85620000  0.18140300  0.75000000  1
  N  N12  1  0.23397100  0.24279700  0.89895400  1
  N  N13  1  0.76602900  0.75720300  0.39895400  1
  N  N14  1  0.23397100  0.25720300  0.10104600  1
  N  N15  1  0.76602900  0.74279700  0.60104600  1
  N  N16  1  0.76602900  0.75720300  0.10104600  1
  N  N17  1  0.23397100  0.24279700  0.60104600  1
  N  N18  1  0.76602900  0.74279700  0.89895400  1
  N  N19  1  0.23397100  0.25720300  0.39895400  1
  N  N20  1  0.02153700  0.34587100  0.81415800  1
  N  N21  1  0.97846300  0.65412900  0.31415800  1
  N  N22  1  0.02153700  0.15412900  0.18584200  1
  N  N23  1  0.97846300  0.84587100  0.68584200  1
  N  N24  1  0.97846300  0.65412900  0.18584200  1
  N  N25  1  0.02153700  0.34587100  0.68584200  1
  N  N26  1  0.97846300  0.84587100  0.81415800  1
  N  N27  1  0.02153700  0.15412900  0.31415800  1
  N  N28  1  0.54462700  0.20331000  0.90797100  1
  N  N29  1  0.45537300  0.79669000  0.40797100  1
  N  N30  1  0.54462700  0.29669000  0.09202900  1
  N  N31  1  0.45537300  0.70331000  0.59202900  1
  N  N32  1  0.45537300  0.79669000  0.09202900  1
  N  N33  1  0.54462700  0.20331000  0.59202900  1
  N  N34  1  0.45537300  0.70331000  0.90797100  1
  N  N35  1  0.54462700  0.29669000  0.40797100  1
  N  N36  1  0.13336500  0.47263700  0.91578800  1
  N  N37  1  0.86663500  0.52736300  0.41578800  1
  N  N38  1  0.13336500  0.02736300  0.08421200  1
  N  N39  1  0.86663500  0.97263700  0.58421200  1
  N  N40  1  0.86663500  0.52736300  0.08421200  1
  N  N41  1  0.13336500  0.47263700  0.58421200  1
  N  N42  1  0.86663500  0.97263700  0.91578800  1
  N  N43  1  0.13336500  0.02736300  0.41578800  1
  N  N44  1  0.34807100  0.03078900  0.93724700  1
  N  N45  1  0.65192900  0.96921100  0.43724700  1
  N  N46  1  0.34807100  0.46921100  0.06275300  1
  N  N47  1  0.65192900  0.53078900  0.56275300  1
  N  N48  1  0.65192900  0.96921100  0.06275300  1
  N  N49  1  0.34807100  0.03078900  0.56275300  1
  N  N50  1  0.65192900  0.53078900  0.93724700  1
  N  N51  1  0.34807100  0.46921100  0.43724700  1
  N  N52  1  0.05623100  0.79331900  0.93421500  1
  N  N53  1  0.94376900  0.20668100  0.43421500  1
  N  N54  1  0.05623100  0.70668100  0.06578500  1
  N  N55  1  0.94376900  0.29331900  0.56578500  1
  N  N56  1  0.94376900  0.20668100  0.06578500  1
  N  N57  1  0.05623100  0.79331900  0.56578500  1
  N  N58  1  0.94376900  0.29331900  0.93421500  1
  N  N59  1  0.05623100  0.70668100  0.43421500  1
  N  N60  1  0.38431800  0.09423000  0.81355300  1
  N  N61  1  0.61568200  0.90577000  0.31355300  1
  N  N62  1  0.38431800  0.40577000  0.18644700  1
  N  N63  1  0.61568200  0.59423000  0.68644700  1
  N  N64  1  0.61568200  0.90577000  0.18644700  1
  N  N65  1  0.38431800  0.09423000  0.68644700  1
  N  N66  1  0.61568200  0.59423000  0.81355300  1
  N  N67  1  0.38431800  0.40577000  0.31355300  1
loop_
_geom_bond_atom_site_label_1
_geom_bond_atom_site_label_2
_geom_bond_distance
_geom_bond_site_symmetry_2
K0 N4 2.719747 1_555
K0 N20 2.939035 1_555
K0 N25 2.939035 1_555
K0 N60 3.055757 1_555
K0 N65 3.055757 1_555
K1 N5 2.719747 1_555
K1 N21 2.939035 1_555
K1 N24 2.939035 1_555
K1 N61 3.055757 1_555
K1 N64 3.055757 1_555
K2 N6 2.719747 1_555
K2 N27 2.939035 1_555
K2 N22 2.939035 1_555
K2 N67 3.055757 1_555
K2 N62 3.055757 1_555
K3 N7 2.719747 1_555
K3 N26 2.939035 1_555
K3 N23 2.939035 1_555
K3 N66 3.055757 1_555
K3 N63 3.055757 1_555
K4 N4 2.727324 1_555
K4 N3 2.828234 1_555
K4 N11 2.843862 1_555
K4 N60 3.032907 1_555
K4 N65 3.032907 1_555
K5 N5 2.727324 1_555
K5 N2 2.828234 1_555
K5 N10 2.843862 1_555
K5 N61 3.032907 1_555
K5 N64 3.032907 1_555
K6 N6 2.727324 1_555
K6 N1 2.828234 1_555
K6 N9 2.843862 1_555
K6 N67 3.032907 1_555
K6 N62 3.032907 1_555
K7 N7 2.727324 1_555
K7 N0 2.828234 1_555
K7 N8 2.843862 1_555
K7 N66 3.032907 1_555
K7 N63 3.032907 1_555
K8 N50 2.760745 1_555
K8 N28 2.763331 1_555
K8 N58 2.795527 1_555
K8 N3 3.054406 1_555
K8 N20 3.283261 1_655
K9 N51 2.760745 1_555
K9 N29 2.763331 1_555
K9 N59 2.795527 1_555
K9 N2 3.054406 1_555
K9 N21 3.283261 1_455
K10 N48 2.760745 1_545
K10 N30 2.763331 1_555
K10 N56 2.795527 1_555
K10 N1 3.054406 1_555
K10 N22 3.283261 1_655
K11 N49 2.760745 1_565
K11 N31 2.763331 1_555
K11 N57 2.795527 1_555
K11 N0 3.054406 1_555
K11 N23 3.283261 1_455
K12 N46 2.760745 1_555
K12 N32 2.763331 1_555
K12 N54 2.795527 1_555
K12 N2 3.054406 1_555
K12 N24 3.283261 1_455
K13 N47 2.760745 1_555
K13 N33 2.763331 1_555
K13 N55 2.795527 1_555
K13 N3 3.054406 1_555
K13 N25 3.283261 1_655
K14 N44 2.760745 1_565
K14 N34 2.763331 1_555
K14 N52 2.795527 1_555
K14 N0 3.054406 1_555
K14 N26 3.283261 1_455
K15 N45 2.760745 1_545
K15 N35 2.763331 1_555
K15 N53 2.795527 1_555
K15 N1 3.054406 1_555
K15 N27 3.283261 1_655
K16 N14 2.868337 1_555
K16 N56 2.869547 1_455
K16 N46 2.891240 1_555
K16 N58 2.985383 1_454
K16 N36 2.989322 1_554
K16 N40 2.996928 1_455
K17 N15 2.868337 1_555
K17 N57 2.869547 1_655
K17 N47 2.891240 1_555
K17 N59 2.985383 1_655
K17 N37 2.989322 1_555
K17 N41 2.996928 1_655
K18 N12 2.868337 1_555
K18 N58 2.869547 1_455
K18 N44 2.891240 1_555
K18 N56 2.985383 1_456
K18 N38 2.989322 1_556
K18 N42 2.996928 1_445
K19 N13 2.868337 1_555
K19 N59 2.869547 1_655
K19 N45 2.891240 1_555
K19 N57 2.985383 1_655
K19 N39 2.989322 1_555
K19 N43 2.996928 1_665
K20 N18 2.868337 1_555
K20 N52 2.869547 1_655
K20 N50 2.891240 1_555
K20 N54 2.985383 1_656
K20 N40 2.989322 1_556
K20 N36 2.996928 1_655
K21 N19 2.868337 1_555
K21 N53 2.869547 1_455
K21 N51 2.891240 1_555
K21 N55 2.985383 1_455
K21 N41 2.989322 1_555
K21 N37 2.996928 1_455
K22 N16 2.868337 1_555
K22 N54 2.869547 1_655
K22 N48 2.891240 1_555
K22 N52 2.985383 1_654
K22 N42 2.989322 1_554
K22 N38 2.996928 1_665
K23 N17 2.868337 1_555
K23 N55 2.869547 1_455
K23 N49 2.891240 1_555
K23 N53 2.985383 1_455
K23 N43 2.989322 1_555
K23 N39 2.996928 1_445
K24 N38 2.751990 1_565
K24 N32 2.809163 1_555
K24 N54 2.972043 1_555
K24 N52 2.994452 1_554
K24 N44 3.067875 1_564
K25 N39 2.751990 1_545
K25 N33 2.809163 1_555
K25 N55 2.972043 1_555
K25 N53 2.994452 1_555
K25 N45 3.067875 1_545
K26 N36 2.751990 1_555
K26 N34 2.809163 1_555
K26 N52 2.972043 1_555
K26 N54 2.994452 1_556
K26 N46 3.067875 1_556
K27 N37 2.751990 1_555
K27 N35 2.809163 1_555
K27 N53 2.972043 1_555
K27 N55 2.994452 1_555
K27 N47 3.067875 1_555
K28 N42 2.751990 1_545
K28 N28 2.809163 1_555
K28 N58 2.972043 1_555
K28 N56 2.994452 1_556
K28 N48 3.067875 1_546
K29 N43 2.751990 1_565
K29 N29 2.809163 1_555
K29 N59 2.972043 1_555
K29 N57 2.994452 1_555
K29 N49 3.067875 1_565
K30 N40 2.751990 1_555
K30 N30 2.809163 1_555
K30 N56 2.972043 1_555
K30 N58 2.994452 1_554
K30 N50 3.067875 1_554
K31 N41 2.751990 1_555
K31 N31 2.809163 1_555
K31 N57 2.972043 1_555
K31 N59 2.994452 1_555
K31 N51 3.067875 1_555
K32 N46 2.853185 1_556
K32 N28 2.919230 1_555
K32 N50 2.940650 1_555
K32 N12 2.945562 1_555
K32 N36 3.137677 1_555
K33 N47 2.853185 1_555
K33 N29 2.919230 1_555
K33 N51 2.940650 1_555
K33 N13 2.945562 1_555
K33 N37 3.137677 1_555
K34 N44 2.853185 1_554
K34 N30 2.919230 1_555
K34 N48 2.940650 1_545
K34 N14 2.945562 1_555
K34 N38 3.137677 1_555
K35 N45 2.853185 1_555
K35 N31 2.919230 1_555
K35 N49 2.940650 1_565
K35 N15 2.945562 1_555
K35 N39 3.137677 1_555
K36 N50 2.853185 1_554
K36 N32 2.919230 1_555
K36 N46 2.940650 1_555
K36 N16 2.945562 1_555
K36 N40 3.137677 1_555
K37 N51 2.853185 1_555
K37 N33 2.919230 1_555
K37 N47 2.940650 1_555
K37 N17 2.945562 1_555
K37 N41 3.137677 1_555
K38 N48 2.853185 1_556
K38 N34 2.919230 1_555
K38 N44 2.940650 1_565
K38 N18 2.945562 1_555
K38 N42 3.137677 1_555
K39 N49 2.853185 1_555
K39 N35 2.919230 1_555
K39 N45 2.940650 1_545
K39 N19 2.945562 1_555
K39 N43 3.137677 1_555
K40 N9 2.936580 1_455
K40 N24 3.063883 1_455
K40 N40 3.072413 1_455
K40 N14 3.250332 1_555
K40 N22 3.362923 1_555
K40 N62 3.365876 1_555
K41 N8 2.936580 1_655
K41 N25 3.063883 1_655
K41 N41 3.072413 1_655
K41 N15 3.250332 1_555
K41 N23 3.362923 1_555
K41 N63 3.365876 1_555
K42 N11 2.936580 1_455
K42 N26 3.063883 1_445
K42 N42 3.072413 1_445
K42 N12 3.250332 1_555
K42 N20 3.362923 1_555
K42 N60 3.365876 1_555
K43 N10 2.936580 1_655
K43 N27 3.063883 1_665
K43 N43 3.072413 1_665
K43 N13 3.250332 1_555
K43 N21 3.362923 1_555
K43 N61 3.365876 1_555
K44 N8 2.936580 1_655
K44 N20 3.063883 1_655
K44 N36 3.072413 1_655
K44 N18 3.250332 1_555
K44 N26 3.362923 1_555
K44 N66 3.365876 1_555
K45 N9 2.936580 1_455
K45 N21 3.063883 1_455
K45 N37 3.072413 1_455
K45 N19 3.250332 1_555
K45 N27 3.362923 1_555
K45 N67 3.365876 1_555
K46 N10 2.936580 1_655
K46 N22 3.063883 1_665
K46 N38 3.072413 1_665
K46 N16 3.250332 1_555
K46 N24 3.362923 1_555
K46 N64 3.365876 1_555
K47 N11 2.936580 1_455
K47 N23 3.063883 1_445
K47 N39 3.072413 1_445
K47 N17 3.250332 1_555
K47 N25 3.362923 1_555
K47 N65 3.365876 1_555
K48 N40 2.796248 1_555
K48 N5 2.835938 1_555
K48 N9 3.087404 1_555
K48 N30 3.119275 1_555
K48 N62 3.147503 1_555
K49 N41 2.796248 1_555
K49 N4 2.835938 1_555
K49 N8 3.087404 1_555
K49 N31 3.119275 1_555
K49 N63 3.147503 1_555
K50 N42 2.796248 1_545
K50 N7 2.835938 1_545
K50 N11 3.087404 1_555
K50 N28 3.119275 1_555
K50 N60 3.147503 1_555
K51 N43 2.796248 1_565
K51 N6 2.835938 1_565
K51 N10 3.087404 1_555
K51 N29 3.119275 1_555
K51 N61 3.147503 1_555
K52 N36 2.796248 1_555
K52 N4 2.835938 1_555
K52 N8 3.087404 1_555
K52 N34 3.119275 1_555
K52 N66 3.147503 1_555
K53 N37 2.796248 1_555
K53 N5 2.835938 1_555
K53 N9 3.087404 1_555
K53 N35 3.119275 1_555
K53 N67 3.147503 1_555
K54 N38 2.796248 1_565
K54 N6 2.835938 1_565
K54 N10 3.087404 1_555
K54 N32 3.119275 1_555
K54 N64 3.147503 1_555
K55 N39 2.796248 1_545
K55 N7 2.835938 1_545
K55 N11 3.087404 1_555
K55 N33 3.119275 1_555
K55 N65 3.147503 1_555
N0 W4 1.910670 1_555
N0 W0 1.925588 1_565
N1 W5 1.910670 1_555
N1 W1 1.925588 1_545
N2 W6 1.910670 1_555
N2 W2 1.925588 1_555
N3 W7 1.910670 1_555
N3 W3 1.925588 1_555
N4 W3 1.802383 1_555
N5 W2 1.802383 1_555
N6 W1 1.802383 1_545
N7 W0 1.802383 1_565
N8 W4 1.821665 1_555
N9 W5 1.821665 1_555
N10 W6 1.821665 1_555
N11 W7 1.821665 1_555
N12 W13 1.929159 1_555
N12 W21 1.933591 1_555
N13 W12 1.929159 1_555
N13 W20 1.933591 1_555
N14 W15 1.929159 1_555
N14 W23 1.933591 1_555
N15 W14 1.929159 1_555
N15 W22 1.933591 1_555
N16 W9 1.929159 1_555
N16 W17 1.933591 1_555
N17 W8 1.929159 1_555
N17 W16 1.933591 1_555
N18 W11 1.929159 1_555
N18 W19 1.933591 1_555
N19 W10 1.929159 1_555
N19 W18 1.933591 1_555
N20 W7 1.902436 1_455
N20 W13 1.971415 1_555
N21 W6 1.902436 1_655
N21 W12 1.971415 1_555
N22 W5 1.902436 1_455
N22 W15 1.971415 1_555
N23 W4 1.902436 1_655
N23 W14 1.971415 1_555
N24 W6 1.902436 1_655
N24 W9 1.971415 1_555
N25 W7 1.902436 1_455
N25 W8 1.971415 1_555
N26 W4 1.902436 1_655
N26 W11 1.971415 1_555
N27 W5 1.902436 1_455
N27 W10 1.971415 1_555
N28 W21 1.833705 1_555
N29 W20 1.833705 1_555
N30 W23 1.833705 1_555
N31 W22 1.833705 1_555
N32 W17 1.833705 1_555
N33 W16 1.833705 1_555
N34 W19 1.833705 1_555
N35 W18 1.833705 1_555
N36 W13 1.844169 1_555
N37 W12 1.844169 1_555
N38 W15 1.844169 1_555
N39 W14 1.844169 1_555
N40 W9 1.844169 1_555
N41 W8 1.844169 1_555
N42 W11 1.844169 1_555
N43 W10 1.844169 1_555
N44 W21 1.836626 1_555
N45 W20 1.836626 1_555
N46 W23 1.836626 1_555
N47 W22 1.836626 1_555
N48 W17 1.836626 1_555
N49 W16 1.836626 1_555
N50 W19 1.836626 1_555
N51 W18 1.836626 1_555
N52 W11 1.822265 1_455
N53 W10 1.822265 1_655
N54 W9 1.822265 1_455
N55 W8 1.822265 1_655
N56 W15 1.822265 1_655
N57 W14 1.822265 1_455
N58 W13 1.822265 1_655
N59 W12 1.822265 1_455
N60 W0 1.893536 1_555
N60 W21 1.964837 1_555
N61 W1 1.893536 1_555
N61 W20 1.964837 1_555
N62 W2 1.893536 1_555
N62 W23 1.964837 1_555
N63 W3 1.893536 1_555
N63 W22 1.964837 1_555
N64 W1 1.893536 1_555
N64 W17 1.964837 1_555
N65 W0 1.893536 1_555
N65 W16 1.964837 1_555
N66 W3 1.893536 1_555
N66 W19 1.964837 1_555
N67 W2 1.893536 1_555
N67 W18 1.964837 1_555
