# generated using pymatgen
data_LiVO2
_symmetry_space_group_name_H-M   'P 1'
_cell_length_a   5.94376385
_cell_length_b   5.97993997
_cell_length_c   5.98074265
_cell_angle_alpha   91.63211575
_cell_angle_beta   60.76505518
_cell_angle_gamma   119.29852062
_symmetry_Int_Tables_number   1
_chemical_formula_structural   LiVO2
_chemical_formula_sum   'Li4 V4 O8'
_cell_volume   155.45708080
_cell_formula_units_Z   4
loop_
 _symmetry_equiv_pos_site_id
 _symmetry_equiv_pos_as_xyz
  1  'x, y, z'
loop_
 _atom_site_type_symbol
 _atom_site_label
 _atom_site_symmetry_multiplicity
 _atom_site_fract_x
 _atom_site_fract_y
 _atom_site_fract_z
 _atom_site_occupancy
  Li  Li0  1  0.24903000  0.05545300  0.05555500  1
  Li  Li1  1  0.75097700  0.94456500  0.94444800  1
  Li  Li2  1  0.50001300  0.50000800  0.99999100  1
  Li  Li3  1  0.99999500  0.00000000  0.50000500  1
  V  V0  1  0.49998700  0.99998600  0.50000400  1
  V  V1  1  0.50000700  0.50000600  0.50000200  1
  V  V2  1  0.00000100  0.50000900  0.99999600  1
  V  V3  1  0.99997800  0.49996300  0.50001100  1
  O  O0  1  0.50690200  0.24255700  0.25255800  1
  O  O1  1  0.99700000  0.25457200  0.24366300  1
  O  O2  1  0.00299700  0.74541800  0.75632700  1
  O  O3  1  0.49308300  0.75744500  0.74745500  1
  O  O4  1  0.53332200  0.27505900  0.71170600  1
  O  O5  1  0.96389000  0.71065600  0.27633600  1
  O  O6  1  0.46669900  0.72495200  0.28828400  1
  O  O7  1  0.03611800  0.28935000  0.72365700  1
loop_
_geom_bond_atom_site_label_1
_geom_bond_atom_site_label_2
_geom_bond_distance
_geom_bond_site_symmetry_2
Li0 O4 1.843010 1_554
Li0 O5 1.848314 1_445
Li0 O1 2.225037 1_455
Li0 O0 2.236022 1_555
Li1 O6 1.842967 1_556
Li1 O7 1.848283 1_665
Li1 O2 2.225151 1_655
Li1 O3 2.236077 1_555
Li2 O4 2.148614 1_555
Li2 O6 2.148630 1_556
Li2 O2 2.188012 1_655
Li2 O1 2.188139 1_456
Li2 O3 2.215416 1_555
Li2 O0 2.215440 1_556
Li3 O7 2.148091 1_655
Li3 O5 2.148129 1_545
Li3 O2 2.203247 1_645
Li3 O1 2.203262 1_555
Li3 O0 2.204886 1_655
Li3 O3 2.204908 1_545
O0 V0 2.073757 1_545
O0 V1 2.105863 1_555
O0 V2 2.152621 1_654
O1 V2 2.085434 1_654
O1 V3 2.092159 1_555
O1 V0 2.168511 1_545
O2 V2 2.085342 1_555
O2 V3 2.092286 1_455
O2 V0 2.168406 1_555
O3 V0 2.073695 1_555
O3 V1 2.105862 1_555
O3 V2 2.152539 1_555
O4 V1 2.013563 1_555
O4 V3 2.030009 1_555
O4 V0 2.038514 1_545
O5 V3 2.015884 1_555
O5 V1 2.018031 1_555
O5 V2 2.040541 1_654
O6 V1 2.013586 1_555
O6 V3 2.030295 1_455
O6 V0 2.038409 1_555
O7 V3 2.015651 1_455
O7 V1 2.018056 1_555
O7 V2 2.040583 1_555
