# generated using pymatgen
data_Na2MnPCO7
_symmetry_space_group_name_H-M   'P 1'
_cell_length_a   6.64082100
_cell_length_b   5.23438400
_cell_length_c   9.00514762
_cell_angle_alpha   88.73964729
_cell_angle_beta   90.00000000
_cell_angle_gamma   90.00000000
_symmetry_Int_Tables_number   1
_chemical_formula_structural   Na2MnPCO7
_chemical_formula_sum   'Na4 Mn2 P2 C2 O14'
_cell_volume   312.94866895
_cell_formula_units_Z   2
loop_
 _symmetry_equiv_pos_site_id
 _symmetry_equiv_pos_as_xyz
  1  'x, y, z'
loop_
 _atom_site_type_symbol
 _atom_site_label
 _atom_site_symmetry_multiplicity
 _atom_site_fract_x
 _atom_site_fract_y
 _atom_site_fract_z
 _atom_site_occupancy
  Na  Na0  1  0.50610300  0.76762500  0.76548100  1
  Na  Na1  1  0.99389700  0.76762500  0.76548100  1
  Na  Na2  1  0.49389700  0.23237500  0.23451900  1
  Na  Na3  1  0.00610300  0.23237500  0.23451900  1
  Mn  Mn0  1  0.25000000  0.22373300  0.64193200  1
  Mn  Mn1  1  0.75000000  0.77626700  0.35806800  1
  P  P0  1  0.75000000  0.29341400  0.57486400  1
  P  P1  1  0.25000000  0.70658600  0.42513600  1
  C  C0  1  0.25000000  0.28007100  0.92107700  1
  C  C1  1  0.75000000  0.71992900  0.07892300  1
  O  O0  1  0.75000000  0.72474500  0.93988900  1
  O  O1  1  0.25000000  0.06451900  0.84500100  1
  O  O2  1  0.25000000  0.48318300  0.83605500  1
  O  O3  1  0.93863500  0.21614200  0.66569100  1
  O  O4  1  0.56136500  0.21614200  0.66569100  1
  O  O5  1  0.25000000  0.83050200  0.57936600  1
  O  O6  1  0.75000000  0.59527200  0.55181000  1
  O  O7  1  0.25000000  0.40472800  0.44819000  1
  O  O8  1  0.75000000  0.16949800  0.42063400  1
  O  O9  1  0.43863500  0.78385800  0.33430900  1
  O  O10  1  0.06136500  0.78385800  0.33430900  1
  O  O11  1  0.75000000  0.51681700  0.16394500  1
  O  O12  1  0.75000000  0.93548100  0.15499900  1
  O  O13  1  0.25000000  0.27525500  0.06011100  1
loop_
_geom_bond_atom_site_label_1
_geom_bond_atom_site_label_2
_geom_bond_distance
_geom_bond_site_symmetry_2
Na0 O0 2.263827 1_555
Na0 O2 2.339130 1_555
Na0 O5 2.405308 1_555
Na0 O1 2.422670 1_565
Na0 O4 2.522130 1_565
Na0 O6 2.686247 1_555
Na1 O0 2.263827 1_555
Na1 O2 2.339130 1_655
Na1 O5 2.405308 1_655
Na1 O1 2.422670 1_665
Na1 O3 2.522130 1_565
Na1 O6 2.686247 1_555
Na2 O13 2.263827 1_555
Na2 O11 2.339130 1_555
Na2 O8 2.405308 1_555
Na2 O12 2.422670 1_545
Na2 O9 2.522130 1_545
Na2 O7 2.686247 1_555
Na3 O13 2.263827 1_555
Na3 O11 2.339130 1_455
Na3 O8 2.405308 1_455
Na3 O12 2.422670 1_445
Na3 O10 2.522130 1_545
Na3 O7 2.686247 1_555
Mn0 O7 1.966911 1_555
Mn0 O1 1.992866 1_555
Mn0 O3 2.079049 1_455
Mn0 O4 2.079049 1_555
Mn0 O5 2.145960 1_545
Mn0 O2 2.237106 1_555
Mn1 O6 1.966911 1_555
Mn1 O12 1.992866 1_555
Mn1 O10 2.079049 1_655
Mn1 O9 2.079049 1_555
Mn1 O8 2.145960 1_565
Mn1 O11 2.237106 1_555
C0 O13 1.251721 1_556
C0 O2 1.296423 1_555
C0 O1 1.332799 1_555
C1 O0 1.251721 1_554
C1 O11 1.296423 1_555
C1 O12 1.332799 1_555
O3 P0 1.545075 1_555
O4 P0 1.545075 1_555
O5 P1 1.545731 1_555
O6 P0 1.589087 1_555
O7 P1 1.589087 1_555
O8 P0 1.545731 1_555
O9 P1 1.545075 1_555
O10 P1 1.545075 1_555
