# generated using pymatgen
data_KLiTi2(PO5)2
_symmetry_space_group_name_H-M   'P 1'
_cell_length_a   6.50799500
_cell_length_b   10.69698200
_cell_length_c   12.81447600
_cell_angle_alpha   90.00000000
_cell_angle_beta   90.00000000
_cell_angle_gamma   90.00000000
_symmetry_Int_Tables_number   1
_chemical_formula_structural   KLiTi2(PO5)2
_chemical_formula_sum   'K4 Li4 Ti8 P8 O40'
_cell_volume   892.09134860
_cell_formula_units_Z   4
loop_
 _symmetry_equiv_pos_site_id
 _symmetry_equiv_pos_as_xyz
  1  'x, y, z'
loop_
 _atom_site_type_symbol
 _atom_site_label
 _atom_site_symmetry_multiplicity
 _atom_site_fract_x
 _atom_site_fract_y
 _atom_site_fract_z
 _atom_site_occupancy
  K  K0  1  0.31021400  0.79996000  0.10044800  1
  K  K1  1  0.81021400  0.29996000  0.39955200  1
  K  K2  1  0.18978600  0.79996000  0.60044800  1
  K  K3  1  0.68978600  0.29996000  0.89955200  1
  Li  Li0  1  0.95817200  0.02940300  0.10634500  1
  Li  Li1  1  0.45817200  0.52940300  0.39365500  1
  Li  Li2  1  0.54182800  0.02940300  0.60634500  1
  Li  Li3  1  0.04182800  0.52940300  0.89365500  1
  Ti  Ti0  1  0.00435600  0.50406800  0.13543000  1
  Ti  Ti1  1  0.77085600  0.75702200  0.25351800  1
  Ti  Ti2  1  0.27085600  0.25702200  0.24648200  1
  Ti  Ti3  1  0.50435600  0.00406800  0.36457000  1
  Ti  Ti4  1  0.49564400  0.50406800  0.63543000  1
  Ti  Ti5  1  0.72914400  0.75702200  0.75351800  1
  Ti  Ti6  1  0.22914400  0.25702200  0.74648200  1
  Ti  Ti7  1  0.99564400  0.00406800  0.86457000  1
  P  P0  1  0.84384700  0.76331300  0.00063700  1
  P  P1  1  0.50745000  0.51150400  0.18395700  1
  P  P2  1  0.00745000  0.01150400  0.31604300  1
  P  P3  1  0.34384700  0.26331300  0.49936300  1
  P  P4  1  0.65615300  0.76331300  0.50063700  1
  P  P5  1  0.99255000  0.51150400  0.68395700  1
  P  P6  1  0.49255000  0.01150400  0.81604300  1
  P  P7  1  0.15615300  0.26331300  0.99936300  1
  O  O0  1  0.98691700  0.64829800  0.00508600  1
  O  O1  1  0.02733800  0.38691700  0.00500400  1
  O  O2  1  0.30199700  0.25140700  0.09498600  1
  O  O3  1  0.70846400  0.77442800  0.09980100  1
  O  O4  1  0.69611900  0.48333900  0.11553100  1
  O  O5  1  0.31548500  0.53938400  0.11754100  1
  O  O6  1  0.04620400  0.38392700  0.22645900  1
  O  O7  1  0.96709800  0.64119400  0.22319700  1
  O  O8  1  0.04893100  0.12426900  0.24023400  1
  O  O9  1  0.96749100  0.90159700  0.23756300  1
  O  O10  1  0.46749100  0.40159700  0.26243700  1
  O  O11  1  0.54893100  0.62426900  0.25976600  1
  O  O12  1  0.46709800  0.14119400  0.27680300  1
  O  O13  1  0.54620400  0.88392700  0.27354100  1
  O  O14  1  0.81548500  0.03938400  0.38245900  1
  O  O15  1  0.19611900  0.98333900  0.38446900  1
  O  O16  1  0.20846400  0.27442800  0.40019900  1
  O  O17  1  0.80199700  0.75140700  0.40501400  1
  O  O18  1  0.52733800  0.88691700  0.49499600  1
  O  O19  1  0.48691700  0.14829800  0.49491400  1
  O  O20  1  0.51308300  0.64829800  0.50508600  1
  O  O21  1  0.47266200  0.38691700  0.50500400  1
  O  O22  1  0.19800300  0.25140700  0.59498600  1
  O  O23  1  0.79153600  0.77442800  0.59980100  1
  O  O24  1  0.80388100  0.48333900  0.61553100  1
  O  O25  1  0.18451500  0.53938400  0.61754100  1
  O  O26  1  0.45379600  0.38392700  0.72645900  1
  O  O27  1  0.53290200  0.64119400  0.72319700  1
  O  O28  1  0.45106900  0.12426900  0.74023400  1
  O  O29  1  0.53250900  0.90159700  0.73756300  1
  O  O30  1  0.03250900  0.40159700  0.76243700  1
  O  O31  1  0.95106900  0.62426900  0.75976600  1
  O  O32  1  0.03290200  0.14119400  0.77680300  1
  O  O33  1  0.95379600  0.88392700  0.77354100  1
  O  O34  1  0.68451500  0.03938400  0.88245900  1
  O  O35  1  0.30388100  0.98333900  0.88446900  1
  O  O36  1  0.29153600  0.27442800  0.90019900  1
  O  O37  1  0.69800300  0.75140700  0.90501400  1
  O  O38  1  0.97266200  0.88691700  0.99499600  1
  O  O39  1  0.01308300  0.14829800  0.99491400  1
loop_
_geom_bond_atom_site_label_1
_geom_bond_atom_site_label_2
_geom_bond_distance
_geom_bond_site_symmetry_2
K0 O3 2.606172 1_555
K0 O38 2.741742 1_454
K0 O5 2.796180 1_555
K0 O13 2.843493 1_555
K0 O0 2.924404 1_455
K0 O9 3.040417 1_455
K0 O11 3.180192 1_555
K0 O7 3.216329 1_455
K0 O35 3.392567 1_554
K1 O16 2.606172 1_655
K1 O21 2.741742 1_555
K1 O14 2.796180 1_555
K1 O6 2.843493 1_655
K1 O19 2.924404 1_555
K1 O10 3.040417 1_555
K1 O8 3.180192 1_655
K1 O12 3.216329 1_555
K1 O24 3.392567 1_555
K2 O23 2.606172 1_455
K2 O18 2.741742 1_555
K2 O25 2.796180 1_555
K2 O33 2.843493 1_455
K2 O20 2.924404 1_555
K2 O29 3.040417 1_555
K2 O31 3.180192 1_455
K2 O27 3.216329 1_555
K2 O15 3.392567 1_555
K3 O36 2.606172 1_555
K3 O1 2.741742 1_656
K3 O34 2.796180 1_555
K3 O26 2.843493 1_555
K3 O39 2.924404 1_655
K3 O30 3.040417 1_655
K3 O28 3.180192 1_555
K3 O32 3.216329 1_655
K3 O4 3.392567 1_556
Li0 O39 1.945305 1_654
Li0 O8 2.079024 1_655
Li0 O38 2.089969 1_544
Li0 O9 2.167984 1_545
Li1 O20 1.945305 1_555
Li1 O11 2.079024 1_555
Li1 O21 2.089969 1_555
Li1 O10 2.167984 1_555
Li2 O19 1.945305 1_555
Li2 O28 2.079024 1_555
Li2 O18 2.089969 1_545
Li2 O29 2.167984 1_545
Li3 O0 1.945305 1_456
Li3 O31 2.079024 1_455
Li3 O1 2.089969 1_556
Li3 O30 2.167984 1_555
O0 P0 1.543977 1_555
O0 Ti0 2.276634 1_655
O1 P7 1.567228 1_554
O1 Ti0 2.094317 1_555
O2 P7 1.555189 1_554
O2 Ti2 1.952816 1_555
O3 P0 1.550868 1_555
O3 Ti1 2.019818 1_555
O4 P1 1.538589 1_555
O4 Ti0 2.034268 1_655
O5 P1 1.540798 1_555
O5 Ti0 2.072483 1_555
O6 Ti0 1.756835 1_555
O6 Ti2 2.011514 1_555
O7 Ti1 1.821320 1_555
O7 Ti0 1.864221 1_655
O8 P2 1.572140 1_555
O8 Ti2 2.027051 1_555
O9 P2 1.568830 1_665
O9 Ti1 2.017708 1_555
O10 P1 1.568830 1_555
O10 Ti2 2.017708 1_555
O11 P1 1.572140 1_555
O11 Ti1 2.027051 1_555
O12 Ti2 1.821320 1_555
O12 Ti3 1.864221 1_555
O13 Ti3 1.756835 1_565
O13 Ti1 2.011514 1_555
O14 P2 1.540798 1_655
O14 Ti3 2.072483 1_555
O15 P2 1.538589 1_565
O15 Ti3 2.034268 1_565
O16 P3 1.550868 1_555
O16 Ti2 2.019818 1_555
O17 P4 1.555189 1_555
O17 Ti1 1.952816 1_555
O18 P4 1.567228 1_555
O18 Ti3 2.094317 1_565
O19 P3 1.543977 1_555
O19 Ti3 2.276634 1_555
O20 P4 1.543977 1_555
O20 Ti4 2.276634 1_555
O21 P3 1.567228 1_555
O21 Ti4 2.094317 1_555
O22 P3 1.555189 1_555
O22 Ti6 1.952816 1_555
O23 P4 1.550868 1_555
O23 Ti5 2.019818 1_555
O24 P5 1.538589 1_555
O24 Ti4 2.034268 1_555
O25 P5 1.540798 1_455
O25 Ti4 2.072483 1_555
O26 Ti4 1.756835 1_555
O26 Ti6 2.011514 1_555
O27 Ti5 1.821320 1_555
O27 Ti4 1.864221 1_555
O28 P6 1.572140 1_555
O28 Ti6 2.027051 1_555
O29 P6 1.568830 1_565
O29 Ti5 2.017708 1_555
O30 P5 1.568830 1_455
O30 Ti6 2.017708 1_555
O31 P5 1.572140 1_555
O31 Ti5 2.027051 1_555
O32 Ti6 1.821320 1_555
O32 Ti7 1.864221 1_455
O33 Ti7 1.756835 1_565
O33 Ti5 2.011514 1_555
O34 P6 1.540798 1_555
O34 Ti7 2.072483 1_555
O35 P6 1.538589 1_565
O35 Ti7 2.034268 1_465
O36 P7 1.550868 1_555
O36 Ti6 2.019818 1_555
O37 P0 1.555189 1_556
O37 Ti5 1.952816 1_555
O38 P0 1.567228 1_556
O38 Ti7 2.094317 1_565
O39 P7 1.543977 1_555
O39 Ti7 2.276634 1_455
