# generated using pymatgen
data_Sr3(AsO4)2
_symmetry_space_group_name_H-M   'P 1'
_cell_length_a   12.35355400
_cell_length_b   7.15942400
_cell_length_c   9.96206500
_cell_angle_alpha   82.90599254
_cell_angle_beta   90.00000000
_cell_angle_gamma   90.00000000
_symmetry_Int_Tables_number   1
_chemical_formula_structural   Sr3(AsO4)2
_chemical_formula_sum   'Sr12 As8 O32'
_cell_volume   874.34332111
_cell_formula_units_Z   4
loop_
 _symmetry_equiv_pos_site_id
 _symmetry_equiv_pos_as_xyz
  1  'x, y, z'
loop_
 _atom_site_type_symbol
 _atom_site_label
 _atom_site_symmetry_multiplicity
 _atom_site_fract_x
 _atom_site_fract_y
 _atom_site_fract_z
 _atom_site_occupancy
  Sr  Sr0  1  0.37850700  0.32041400  0.05286000  1
  Sr  Sr1  1  0.12149300  0.82041400  0.05286000  1
  Sr  Sr2  1  0.10089800  0.33470100  0.29739400  1
  Sr  Sr3  1  0.67155000  0.37189700  0.33140300  1
  Sr  Sr4  1  0.39910200  0.83470100  0.29739400  1
  Sr  Sr5  1  0.82845000  0.87189700  0.33140300  1
  Sr  Sr6  1  0.17155000  0.12810300  0.66859700  1
  Sr  Sr7  1  0.60089800  0.16529900  0.70260600  1
  Sr  Sr8  1  0.32845000  0.62810300  0.66859700  1
  Sr  Sr9  1  0.89910200  0.66529900  0.70260600  1
  Sr  Sr10  1  0.87850700  0.17958600  0.94714000  1
  Sr  Sr11  1  0.62149300  0.67958600  0.94714000  1
  As  As0  1  0.63703100  0.10572100  0.07876200  1
  As  As1  1  0.86296900  0.60572100  0.07876200  1
  As  As2  1  0.39715700  0.31399000  0.39924300  1
  As  As3  1  0.10284300  0.81399000  0.39924300  1
  As  As4  1  0.89715700  0.18601000  0.60075700  1
  As  As5  1  0.60284300  0.68601000  0.60075700  1
  As  As6  1  0.13703100  0.39427900  0.92123800  1
  As  As7  1  0.36296900  0.89427900  0.92123800  1
  O  O0  1  0.18902300  0.44883900  0.07240300  1
  O  O1  1  0.57779900  0.32562800  0.06880700  1
  O  O2  1  0.31097700  0.94883900  0.07240300  1
  O  O3  1  0.94503200  0.42482700  0.14271100  1
  O  O4  1  0.92220100  0.82562800  0.06880700  1
  O  O5  1  0.74866800  0.13157900  0.17998800  1
  O  O6  1  0.55496800  0.92482700  0.14271100  1
  O  O7  1  0.06213500  0.00043700  0.28338800  1
  O  O8  1  0.75133200  0.63157900  0.17998800  1
  O  O9  1  0.33369200  0.16548900  0.30012800  1
  O  O10  1  0.43786500  0.50043700  0.28338800  1
  O  O11  1  0.16630800  0.66548900  0.30012800  1
  O  O12  1  0.51584900  0.22304200  0.47132800  1
  O  O13  1  0.80373100  0.13569800  0.48080800  1
  O  O14  1  0.98415100  0.72304200  0.47132800  1
  O  O15  1  0.69626900  0.63569800  0.48080800  1
  O  O16  1  0.30373100  0.36430200  0.51919200  1
  O  O17  1  0.01584900  0.27695800  0.52867200  1
  O  O18  1  0.19626900  0.86430200  0.51919200  1
  O  O19  1  0.48415100  0.77695800  0.52867200  1
  O  O20  1  0.83369200  0.33451100  0.69987200  1
  O  O21  1  0.56213500  0.49956300  0.71661200  1
  O  O22  1  0.66630800  0.83451100  0.69987200  1
  O  O23  1  0.24866800  0.36842100  0.82001200  1
  O  O24  1  0.93786500  0.99956300  0.71661200  1
  O  O25  1  0.44503200  0.07517300  0.85728900  1
  O  O26  1  0.25133200  0.86842100  0.82001200  1
  O  O27  1  0.07779900  0.17437200  0.93119300  1
  O  O28  1  0.05496800  0.57517300  0.85728900  1
  O  O29  1  0.68902300  0.05116100  0.92759700  1
  O  O30  1  0.42220100  0.67437200  0.93119300  1
  O  O31  1  0.81097700  0.55116100  0.92759700  1
loop_
_geom_bond_atom_site_label_1
_geom_bond_atom_site_label_2
_geom_bond_distance
_geom_bond_site_symmetry_2
As0 O6 1.705013 1_545
As0 O29 1.725743 1_554
As0 O1 1.727846 1_555
As0 O5 1.731834 1_555
As1 O3 1.705013 1_555
As1 O31 1.725743 1_554
As1 O4 1.727846 1_555
As1 O8 1.731834 1_555
As2 O12 1.724563 1_555
As2 O9 1.726056 1_555
As2 O10 1.728084 1_555
As2 O16 1.730892 1_555
As3 O14 1.724563 1_455
As3 O11 1.726056 1_555
As3 O7 1.728084 1_565
As3 O18 1.730892 1_555
As4 O17 1.724563 1_655
As4 O20 1.726056 1_555
As4 O24 1.728084 1_545
As4 O13 1.730892 1_555
As5 O19 1.724563 1_555
As5 O22 1.726056 1_555
As5 O21 1.728084 1_555
As5 O15 1.730892 1_555
As6 O28 1.705013 1_555
As6 O0 1.725743 1_556
As6 O27 1.727846 1_555
As6 O23 1.731834 1_555
As7 O25 1.705013 1_565
As7 O2 1.725743 1_556
As7 O30 1.727846 1_555
As7 O26 1.731834 1_555
O0 Sr0 2.531176 1_555
O0 Sr2 2.534621 1_555
O0 Sr1 2.771809 1_555
O1 Sr0 2.467664 1_555
O1 Sr11 2.724634 1_554
O1 Sr3 2.916942 1_555
O2 Sr1 2.531176 1_555
O2 Sr4 2.534621 1_555
O2 Sr0 2.771809 1_565
O3 Sr2 2.500574 1_655
O3 Sr10 2.898089 1_554
O4 Sr1 2.467664 1_655
O4 Sr10 2.724634 1_564
O4 Sr5 2.916942 1_555
O5 Sr5 2.451639 1_545
O5 Sr3 2.604643 1_555
O5 Sr10 2.806190 1_554
O6 Sr4 2.500574 1_555
O6 Sr11 2.898089 1_554
O7 Sr2 2.461373 1_555
O7 Sr1 2.864267 1_545
O7 Sr5 3.049725 1_445
O8 Sr3 2.451639 1_555
O8 Sr5 2.604643 1_555
O8 Sr11 2.806190 1_554
O9 Sr4 2.505639 1_545
O9 Sr0 2.632445 1_555
O9 Sr2 3.119398 1_555
O10 Sr4 2.461373 1_555
O10 Sr0 2.864267 1_555
O10 Sr3 3.049725 1_555
O11 Sr2 2.505639 1_555
O11 Sr1 2.632445 1_555
O11 Sr4 3.119398 1_555
O12 Sr7 2.519518 1_555
O12 Sr3 2.532114 1_555
O13 Sr5 2.563181 1_545
O13 Sr3 2.668265 1_555
O14 Sr9 2.519518 1_555
O14 Sr5 2.532114 1_555
O15 Sr3 2.563181 1_555
O15 Sr5 2.668265 1_555
O16 Sr8 2.563181 1_555
O16 Sr6 2.668265 1_555
O17 Sr2 2.519518 1_555
O17 Sr6 2.532114 1_555
O18 Sr6 2.563181 1_565
O18 Sr8 2.668265 1_555
O19 Sr4 2.519518 1_555
O19 Sr8 2.532114 1_555
O20 Sr9 2.505639 1_555
O20 Sr10 2.632445 1_555
O20 Sr7 3.119398 1_555
O21 Sr7 2.461373 1_555
O21 Sr11 2.864267 1_555
O21 Sr8 3.049725 1_555
O22 Sr7 2.505639 1_565
O22 Sr11 2.632445 1_555
O22 Sr9 3.119398 1_555
O23 Sr8 2.451639 1_555
O23 Sr6 2.604643 1_555
O23 Sr0 2.806190 1_556
O24 Sr9 2.461373 1_555
O24 Sr10 2.864267 1_565
O24 Sr6 3.049725 1_665
O25 Sr7 2.500574 1_555
O25 Sr0 2.898089 1_556
O26 Sr6 2.451639 1_565
O26 Sr8 2.604643 1_555
O26 Sr1 2.806190 1_556
O27 Sr10 2.467664 1_455
O27 Sr1 2.724634 1_546
O27 Sr6 2.916942 1_555
O28 Sr9 2.500574 1_455
O28 Sr1 2.898089 1_556
O29 Sr10 2.531176 1_555
O29 Sr7 2.534621 1_555
O29 Sr11 2.771809 1_545
O30 Sr11 2.467664 1_555
O30 Sr0 2.724634 1_556
O30 Sr8 2.916942 1_555
O31 Sr11 2.531176 1_555
O31 Sr9 2.534621 1_555
O31 Sr10 2.771809 1_555
