# generated using pymatgen
data_Na3Ni2P2(CO7)2
_symmetry_space_group_name_H-M   'P 1'
_cell_length_a   6.55048400
_cell_length_b   8.92364208
_cell_length_c   10.36336636
_cell_angle_alpha   91.48247867
_cell_angle_beta   90.10100358
_cell_angle_gamma   90.91708449
_symmetry_Int_Tables_number   1
_chemical_formula_structural   Na3Ni2P2(CO7)2
_chemical_formula_sum   'Na6 Ni4 P4 C4 O28'
_cell_volume   605.50025396
_cell_formula_units_Z   2
loop_
 _symmetry_equiv_pos_site_id
 _symmetry_equiv_pos_as_xyz
  1  'x, y, z'
loop_
 _atom_site_type_symbol
 _atom_site_label
 _atom_site_symmetry_multiplicity
 _atom_site_fract_x
 _atom_site_fract_y
 _atom_site_fract_z
 _atom_site_occupancy
  Na  Na0  1  0.96893700  0.74511300  0.87353700  1
  Na  Na1  1  0.99025800  0.74746300  0.36983900  1
  Na  Na2  1  0.51479500  0.74843400  0.37334100  1
  Na  Na3  1  0.03106300  0.25488700  0.12646300  1
  Na  Na4  1  0.48520500  0.25156600  0.62665900  1
  Na  Na5  1  0.00974200  0.25253700  0.63016100  1
  Ni  Ni0  1  0.25547100  0.65311700  0.13777800  1
  Ni  Ni1  1  0.25416100  0.65637300  0.64350200  1
  Ni  Ni2  1  0.74452900  0.34688300  0.86222200  1
  Ni  Ni3  1  0.74583900  0.34362700  0.35649800  1
  P  P0  1  0.75135900  0.57264500  0.11131700  1
  P  P1  1  0.74971900  0.57710200  0.60664900  1
  P  P2  1  0.24864100  0.42735500  0.88868300  1
  P  P3  1  0.25028100  0.42289800  0.39335100  1
  C  C0  1  0.25393800  0.92487200  0.10621300  1
  C  C1  1  0.24755400  0.92728700  0.60721400  1
  C  C2  1  0.74606200  0.07512800  0.89378700  1
  C  C3  1  0.75244600  0.07271300  0.39278600  1
  O  O0  1  0.75024900  0.93706300  0.91155500  1
  O  O1  1  0.75658500  0.93439600  0.41216300  1
  O  O2  1  0.25892200  0.86672300  0.22041800  1
  O  O3  1  0.24873900  0.86959300  0.72018900  1
  O  O4  1  0.25212000  0.82598800  0.01202100  1
  O  O5  1  0.25148500  0.82582100  0.51320000  1
  O  O6  1  0.93832300  0.67652300  0.14621400  1
  O  O7  1  0.56575600  0.66829900  0.15111200  1
  O  O8  1  0.93756100  0.67773700  0.64306000  1
  O  O9  1  0.56295800  0.67619600  0.63448500  1
  O  O10  1  0.24075800  0.57701700  0.81700800  1
  O  O11  1  0.25198500  0.57176100  0.31979800  1
  O  O12  1  0.75727700  0.53471100  0.96427700  1
  O  O13  1  0.75484000  0.53840900  0.45736400  1
  O  O14  1  0.24272300  0.46528900  0.03572300  1
  O  O15  1  0.24516000  0.46159100  0.54263600  1
  O  O16  1  0.75924200  0.42298300  0.18299200  1
  O  O17  1  0.74801500  0.42823900  0.68020200  1
  O  O18  1  0.43424400  0.33170100  0.84888800  1
  O  O19  1  0.06167700  0.32347700  0.85378600  1
  O  O20  1  0.43704200  0.32380400  0.36551500  1
  O  O21  1  0.06243900  0.32226300  0.35694000  1
  O  O22  1  0.74788000  0.17401200  0.98797900  1
  O  O23  1  0.74851500  0.17417900  0.48680000  1
  O  O24  1  0.74107800  0.13327700  0.77958200  1
  O  O25  1  0.75126100  0.13040700  0.27981100  1
  O  O26  1  0.24975100  0.06293700  0.08844500  1
  O  O27  1  0.24341500  0.06560400  0.58783700  1
loop_
_geom_bond_atom_site_label_1
_geom_bond_atom_site_label_2
_geom_bond_distance
_geom_bond_site_symmetry_2
Na0 O0 2.277486 1_555
Na0 O10 2.409851 1_655
Na0 O4 2.432216 1_656
Na0 O8 2.455352 1_555
Na0 O12 2.518817 1_555
Na0 O3 2.674922 1_655
Na0 O6 2.913391 1_556
Na1 O1 2.316079 1_555
Na1 O5 2.350172 1_655
Na1 O11 2.390327 1_655
Na1 O6 2.408680 1_555
Na1 O2 2.581193 1_655
Na1 O13 2.584840 1_555
Na2 O1 2.302889 1_555
Na2 O5 2.355376 1_555
Na2 O11 2.370996 1_555
Na2 O7 2.419076 1_555
Na2 O2 2.562990 1_555
Na2 O13 2.630063 1_555
Na2 O9 2.816571 1_555
Na3 O26 2.277486 1_555
Na3 O16 2.409851 1_455
Na3 O22 2.432216 1_454
Na3 O21 2.455352 1_555
Na3 O14 2.518817 1_555
Na3 O25 2.674922 1_455
Na3 O19 2.913391 1_554
Na4 O27 2.302889 1_555
Na4 O23 2.355376 1_555
Na4 O17 2.370996 1_555
Na4 O18 2.419076 1_555
Na4 O24 2.562990 1_555
Na4 O15 2.630063 1_555
Na4 O20 2.816571 1_555
Na5 O27 2.316079 1_555
Na5 O23 2.350172 1_455
Na5 O17 2.390327 1_455
Na5 O19 2.408680 1_555
Na5 O24 2.581193 1_455
Na5 O15 2.584840 1_555
Ni0 O14 1.959181 1_555
Ni0 O11 2.038712 1_555
Ni0 O7 2.039069 1_555
Ni0 O4 2.045416 1_555
Ni0 O2 2.069166 1_555
Ni0 O6 2.093024 1_455
Ni1 O10 1.951106 1_555
Ni1 O15 2.004959 1_555
Ni1 O9 2.030194 1_555
Ni1 O3 2.043808 1_555
Ni1 O5 2.053446 1_555
Ni1 O8 2.085672 1_455
Ni2 O12 1.959181 1_555
Ni2 O17 2.038712 1_555
Ni2 O18 2.039069 1_555
Ni2 O22 2.045416 1_555
Ni2 O24 2.069166 1_555
Ni2 O19 2.093024 1_655
Ni3 O16 1.951106 1_555
Ni3 O13 2.004959 1_555
Ni3 O20 2.030194 1_555
Ni3 O25 2.043808 1_555
Ni3 O23 2.053446 1_555
Ni3 O21 2.085672 1_655
C0 O26 1.251155 1_565
C0 O4 1.298729 1_555
C0 O2 1.305103 1_555
C1 O27 1.256349 1_565
C1 O3 1.291194 1_555
C1 O5 1.313373 1_555
C2 O0 1.251155 1_545
C2 O22 1.298729 1_555
C2 O24 1.305103 1_555
C3 O1 1.256349 1_545
C3 O25 1.291194 1_555
C3 O23 1.313373 1_555
O6 P0 1.560358 1_555
O7 P0 1.547127 1_555
O8 P1 1.551878 1_555
O9 P1 1.544179 1_555
O10 P2 1.546432 1_555
O11 P3 1.548469 1_555
O12 P0 1.553089 1_556
O13 P1 1.576947 1_555
O14 P2 1.553089 1_554
O15 P3 1.576947 1_555
O16 P0 1.546432 1_555
O17 P1 1.548469 1_555
O18 P2 1.547127 1_555
O19 P2 1.560358 1_555
O20 P3 1.544179 1_555
O21 P3 1.551878 1_555
