# generated using pymatgen
data_CrPO4F
_symmetry_space_group_name_H-M   'P 1'
_cell_length_a   6.24145000
_cell_length_b   10.55057100
_cell_length_c   12.62750300
_cell_angle_alpha   90.00000000
_cell_angle_beta   90.00000000
_cell_angle_gamma   90.00000000
_symmetry_Int_Tables_number   1
_chemical_formula_structural   CrPO4F
_chemical_formula_sum   'Cr8 P8 O32 F8'
_cell_volume   831.53194948
_cell_formula_units_Z   8
loop_
 _symmetry_equiv_pos_site_id
 _symmetry_equiv_pos_as_xyz
  1  'x, y, z'
loop_
 _atom_site_type_symbol
 _atom_site_label
 _atom_site_symmetry_multiplicity
 _atom_site_fract_x
 _atom_site_fract_y
 _atom_site_fract_z
 _atom_site_occupancy
  Cr  Cr0  1  0.99645700  0.24705200  0.88988200  1
  Cr  Cr1  1  0.24805700  0.99941100  0.74768600  1
  Cr  Cr2  1  0.25194300  0.99941100  0.24768600  1
  Cr  Cr3  1  0.50354300  0.24705200  0.38988200  1
  Cr  Cr4  1  0.49645700  0.74705200  0.61011800  1
  Cr  Cr5  1  0.74805700  0.49941100  0.75231400  1
  Cr  Cr6  1  0.75194300  0.49941100  0.25231400  1
  Cr  Cr7  1  0.00354300  0.74705200  0.11011800  1
  P  P0  1  0.00290300  0.24830800  0.31503100  1
  P  P1  1  0.16615700  0.99712300  0.99795000  1
  P  P2  1  0.33384300  0.99712300  0.49795000  1
  P  P3  1  0.49709700  0.24830800  0.81503100  1
  P  P4  1  0.50290300  0.74830800  0.18496900  1
  P  P5  1  0.66615700  0.49712300  0.50205000  1
  P  P6  1  0.83384300  0.49712300  0.00205000  1
  P  P7  1  0.99709700  0.74830800  0.68496900  1
  O  O0  1  0.01244500  0.11214100  0.98886700  1
  O  O1  1  0.02289100  0.87721400  0.00763200  1
  O  O2  1  0.03749900  0.86635500  0.75533800  1
  O  O3  1  0.04266700  0.13334300  0.24098100  1
  O  O4  1  0.19217600  0.01680200  0.59654600  1
  O  O5  1  0.19114000  0.72043000  0.61323100  1
  O  O6  1  0.19647300  0.27236000  0.38792300  1
  O  O7  1  0.19323100  0.98156100  0.39861500  1
  O  O8  1  0.30676900  0.98156100  0.89861500  1
  O  O9  1  0.30352700  0.27236000  0.88792300  1
  O  O10  1  0.30886000  0.72043000  0.11323100  1
  O  O11  1  0.30782400  0.01680200  0.09654700  1
  O  O12  1  0.45733300  0.13334300  0.74098100  1
  O  O13  1  0.46250100  0.86635500  0.25533800  1
  O  O14  1  0.47710900  0.87721400  0.50763200  1
  O  O15  1  0.48755500  0.11214100  0.48886700  1
  O  O16  1  0.51244500  0.61214100  0.51113300  1
  O  O17  1  0.52289100  0.37721400  0.49236800  1
  O  O18  1  0.53749900  0.36635500  0.74466200  1
  O  O19  1  0.54266700  0.63334300  0.25901900  1
  O  O20  1  0.69217600  0.51680200  0.90345400  1
  O  O21  1  0.69114000  0.22043000  0.88676900  1
  O  O22  1  0.69647300  0.77236000  0.11207700  1
  O  O23  1  0.69323200  0.48156100  0.10138500  1
  O  O24  1  0.80676800  0.48156100  0.60138500  1
  O  O25  1  0.80352700  0.77236000  0.61207700  1
  O  O26  1  0.80886000  0.22043000  0.38676900  1
  O  O27  1  0.80782400  0.51680200  0.40345400  1
  O  O28  1  0.95733300  0.63334300  0.75901900  1
  O  O29  1  0.96250100  0.36635500  0.24466200  1
  O  O30  1  0.97710900  0.37721400  0.99236800  1
  O  O31  1  0.98755500  0.61214100  0.01113300  1
  F  F0  1  0.02623800  0.12507800  0.77404000  1
  F  F1  1  0.02982000  0.87385000  0.22209600  1
  F  F2  1  0.47018000  0.87385000  0.72209600  1
  F  F3  1  0.47376200  0.12507800  0.27404000  1
  F  F4  1  0.52623800  0.62507800  0.72596000  1
  F  F5  1  0.52982000  0.37385000  0.27790400  1
  F  F6  1  0.97018000  0.37385000  0.77790400  1
  F  F7  1  0.97376200  0.62507800  0.22596000  1
loop_
_geom_bond_atom_site_label_1
_geom_bond_atom_site_label_2
_geom_bond_distance
_geom_bond_site_symmetry_2
Cr0 O30 1.890845 1_555
Cr0 O0 1.896925 1_655
Cr0 O21 1.926610 1_555
Cr0 O9 1.935231 1_655
Cr0 F6 1.953455 1_555
Cr0 F0 1.957146 1_655
Cr1 O2 1.925390 1_555
Cr1 O12 1.926143 1_565
Cr1 F2 1.944576 1_555
Cr1 F0 1.945613 1_565
Cr1 O4 1.948785 1_565
Cr1 O8 1.949882 1_555
Cr2 O13 1.925390 1_555
Cr2 O3 1.926143 1_565
Cr2 F1 1.944576 1_555
Cr2 F3 1.945613 1_565
Cr2 O11 1.948773 1_565
Cr2 O7 1.949882 1_555
Cr3 O17 1.890845 1_555
Cr3 O15 1.896925 1_555
Cr3 O26 1.926610 1_555
Cr3 O6 1.935231 1_555
Cr3 F5 1.953455 1_555
Cr3 F3 1.957146 1_555
Cr4 O14 1.890845 1_555
Cr4 O16 1.896925 1_555
Cr4 O5 1.926610 1_555
Cr4 O25 1.935231 1_555
Cr4 F2 1.953455 1_555
Cr4 F4 1.957146 1_555
Cr5 O18 1.925390 1_555
Cr5 O28 1.926143 1_555
Cr5 F6 1.944576 1_555
Cr5 F4 1.945613 1_555
Cr5 O20 1.948785 1_555
Cr5 O24 1.949881 1_555
Cr6 O29 1.925390 1_555
Cr6 O19 1.926143 1_555
Cr6 F5 1.944576 1_555
Cr6 F7 1.945613 1_555
Cr6 O27 1.948785 1_555
Cr6 O23 1.949881 1_555
Cr7 O1 1.890845 1_555
Cr7 O31 1.896925 1_455
Cr7 O10 1.926610 1_555
Cr7 O22 1.935231 1_455
Cr7 F1 1.953455 1_555
Cr7 F7 1.957146 1_455
O0 P1 1.551184 1_545
O1 P1 1.554033 1_554
O2 P7 1.550597 1_455
O3 P0 1.551510 1_555
O4 P2 1.541106 1_545
O5 P7 1.540747 1_455
O6 P0 1.539889 1_555
O7 P2 1.539669 1_555
O8 P1 1.539669 1_555
O9 P3 1.539889 1_555
O10 P4 1.540747 1_555
O11 P1 1.541117 1_544
O12 P3 1.551510 1_555
O13 P4 1.550597 1_555
O14 P2 1.554033 1_555
O15 P2 1.551184 1_545
O16 P5 1.551184 1_555
O17 P5 1.554033 1_555
O18 P3 1.550597 1_555
O19 P4 1.551510 1_555
O20 P6 1.541106 1_556
O21 P3 1.540747 1_555
O22 P4 1.539889 1_555
O23 P6 1.539666 1_555
O24 P5 1.539666 1_555
O25 P7 1.539889 1_555
O26 P0 1.540747 1_655
O27 P5 1.541106 1_555
O28 P7 1.551510 1_555
O29 P0 1.550597 1_655
O30 P6 1.554033 1_556
O31 P6 1.551184 1_555
