# generated using pymatgen
data_V2O3F
_symmetry_space_group_name_H-M   'P 1'
_cell_length_a   4.59187924
_cell_length_b   4.59187600
_cell_length_c   14.79643209
_cell_angle_alpha   90.00043812
_cell_angle_beta   89.99956577
_cell_angle_gamma   93.31496274
_symmetry_Int_Tables_number   1
_chemical_formula_structural   V2O3F
_chemical_formula_sum   'V10 O15 F5'
_cell_volume   311.46576835
_cell_formula_units_Z   5
loop_
 _symmetry_equiv_pos_site_id
 _symmetry_equiv_pos_as_xyz
  1  'x, y, z'
loop_
 _atom_site_type_symbol
 _atom_site_label
 _atom_site_symmetry_multiplicity
 _atom_site_fract_x
 _atom_site_fract_y
 _atom_site_fract_z
 _atom_site_occupancy
  V  V0  1  0.98167385  0.01832579  0.19805957  1
  V  V1  1  0.99645808  0.00354124  0.39882629  1
  V  V2  1  0.99644917  0.00354995  0.60113456  1
  V  V3  1  0.97919403  0.02080560  -0.00001448  1
  V  V4  1  0.98161902  0.01838078  0.80191618  1
  V  V5  1  0.45441818  0.54558179  0.49998921  1
  V  V6  1  0.51882039  0.48117933  0.09944647  1
  V  V7  1  0.51873175  0.48126795  0.90057565  1
  V  V8  1  0.53251027  0.46748860  0.70154149  1
  V  V9  1  0.53250171  0.46749711  0.29843372  1
  O  O0  1  0.80260384  0.19739739  0.70143678  1
  O  O1  1  0.80184498  0.19815518  0.90051260  1
  O  O2  1  0.80261287  0.19738841  0.29852965  1
  O  O3  1  0.80180791  0.19819244  0.09949372  1
  O  O4  1  0.30044126  0.30512024  0.59999769  1
  O  O5  1  0.30045546  0.30512714  0.40002219  1
  O  O6  1  0.30150942  0.29642945  0.19945980  1
  O  O7  1  0.30223328  0.29257701  0.00002684  1
  O  O8  1  0.30153871  0.29639842  0.80057880  1
  O  O9  1  0.69488019  0.69955946  0.59999770  1
  O  O10  1  0.69487331  0.69954525  0.40002220  1
  O  O11  1  0.70356941  0.69849055  0.19945986  1
  O  O12  1  0.70742384  0.69776684  0.00002688  1
  O  O13  1  0.70360070  0.69846123  0.80057877  1
  O  O14  1  0.19167241  0.80832817  0.49999496  1
  F  F0  1  0.79678132  0.20321925  0.50000480  1
  F  F1  1  0.19906539  0.80093470  0.29965800  1
  F  F2  1  0.20086942  0.79913089  0.09927464  1
  F  F3  1  0.19903090  0.80096934  0.70029728  1
  F  F4  1  0.20080992  0.79919048  0.90072018  1
loop_
_geom_bond_atom_site_label_1
_geom_bond_atom_site_label_2
_geom_bond_distance
_geom_bond_site_symmetry_2
O0 V8 1.803951 1_555
O0 V4 1.907878 1_555
O0 V2 1.969470 1_555
O1 V3 1.889298 1_556
O1 V4 1.889443 1_555
O1 V7 1.890915 1_555
O2 V9 1.804068 1_555
O2 V0 1.907944 1_555
O2 V1 1.969427 1_555
O3 V0 1.889504 1_555
O3 V3 1.889841 1_555
O3 V6 1.890075 1_555
O4 V2 1.908626 1_455
O4 V5 1.954108 1_555
O4 V8 1.963935 1_555
O5 V1 1.908700 1_455
O5 V5 1.953600 1_555
O5 V9 1.964386 1_555
O6 V0 1.889769 1_455
O6 V9 1.946894 1_555
O6 V6 1.951270 1_555
O7 V3 1.882451 1_455
O7 V6 1.950265 1_555
O7 V7 1.950588 1_554
O8 V4 1.889795 1_455
O8 V8 1.947586 1_555
O8 V7 1.951046 1_555
O9 V2 1.908617 1_565
O9 V5 1.954111 1_555
O9 V8 1.963942 1_555
O10 V1 1.908692 1_565
O10 V5 1.953603 1_555
O10 V9 1.964393 1_555
O11 V0 1.889770 1_565
O11 V9 1.946896 1_555
O11 V6 1.951269 1_555
O12 V3 1.882445 1_565
O12 V6 1.950268 1_555
O12 V7 1.950591 1_554
O13 V4 1.889796 1_565
O13 V8 1.947588 1_555
O13 V7 1.951046 1_555
O14 V5 1.754884 1_555
O14 V2 1.984849 1_465
O14 V1 1.985155 1_465
F0 V2 2.004393 1_555
F0 V1 2.004950 1_555
F0 V5 2.286645 1_555
F1 V1 1.996052 1_465
F1 V0 2.090006 1_465
F1 V9 2.227103 1_555
F2 V0 2.068752 1_465
F2 V3 2.085776 1_465
F2 V6 2.123602 1_555
F3 V2 1.995896 1_465
F3 V4 2.090296 1_465
F3 V8 2.227393 1_555
F4 V4 2.068951 1_465
F4 V3 2.085224 1_466
F4 V7 2.123407 1_555
