# generated using pymatgen
data_MgH24C6N12(ClO6)2
_symmetry_space_group_name_H-M   'P 1'
_cell_length_a   7.43771300
_cell_length_b   10.56958900
_cell_length_c   16.41406228
_cell_angle_alpha   62.21480622
_cell_angle_beta   90.00000000
_cell_angle_gamma   90.00000000
_symmetry_Int_Tables_number   1
_chemical_formula_structural   MgH24C6N12(ClO6)2
_chemical_formula_sum   'Mg2 H48 C12 N24 Cl4 O24'
_cell_volume   1141.59048725
_cell_formula_units_Z   2
loop_
 _symmetry_equiv_pos_site_id
 _symmetry_equiv_pos_as_xyz
  1  'x, y, z'
loop_
 _atom_site_type_symbol
 _atom_site_label
 _atom_site_symmetry_multiplicity
 _atom_site_fract_x
 _atom_site_fract_y
 _atom_site_fract_z
 _atom_site_occupancy
  Mg  Mg0  1  0.50000000  0.00000000  0.50000000  1
  Mg  Mg1  1  0.00000000  0.00000000  0.00000000  1
  H  H0  1  0.81433100  0.67041700  0.74416000  1
  H  H1  1  0.68566900  0.67041700  0.24416000  1
  H  H2  1  0.18566900  0.32958300  0.25584000  1
  H  H3  1  0.31433100  0.32958300  0.75584000  1
  H  H4  1  0.61729000  0.74311300  0.68226300  1
  H  H5  1  0.88271000  0.74311300  0.18226300  1
  H  H6  1  0.38271000  0.25688700  0.31773700  1
  H  H7  1  0.11729000  0.25688700  0.81773700  1
  H  H8  1  0.09352600  0.77472700  0.68363500  1
  H  H9  1  0.40647400  0.77472700  0.18363500  1
  H  H10  1  0.90647400  0.22527300  0.31636500  1
  H  H11  1  0.59352600  0.22527300  0.81636500  1
  H  H12  1  0.10064800  0.92615000  0.57438400  1
  H  H13  1  0.39935200  0.92615000  0.07438400  1
  H  H14  1  0.89935200  0.07385000  0.42561600  1
  H  H15  1  0.60064800  0.07385000  0.92561600  1
  H  H16  1  0.12066400  0.69285600  0.46082700  1
  H  H17  1  0.37933600  0.69285600  0.96082700  1
  H  H18  1  0.87933600  0.30714400  0.53917300  1
  H  H19  1  0.62066400  0.30714400  0.03917300  1
  H  H20  1  0.17310600  0.86120600  0.45258100  1
  H  H21  1  0.32689400  0.86120600  0.95258100  1
  H  H22  1  0.82689400  0.13879400  0.54741900  1
  H  H23  1  0.67310600  0.13879400  0.04741900  1
  H  H24  1  0.29467300  0.50119100  0.55337100  1
  H  H25  1  0.20532700  0.50119100  0.05337100  1
  H  H26  1  0.70532700  0.49880900  0.44662900  1
  H  H27  1  0.79467300  0.49880900  0.94662900  1
  H  H28  1  0.47824800  0.51726100  0.61561900  1
  H  H29  1  0.02175200  0.51726100  0.11561900  1
  H  H30  1  0.52175200  0.48273900  0.38438100  1
  H  H31  1  0.97824800  0.48273900  0.88438100  1
  H  H32  1  0.17697700  0.22662900  0.63683900  1
  H  H33  1  0.32302300  0.22662900  0.13683900  1
  H  H34  1  0.82302300  0.77337100  0.36316100  1
  H  H35  1  0.67697700  0.77337100  0.86316100  1
  H  H36  1  0.29542100  0.23724400  0.54270600  1
  H  H37  1  0.20457900  0.23724400  0.04270600  1
  H  H38  1  0.70457900  0.76275600  0.45729400  1
  H  H39  1  0.79542100  0.76275600  0.95729400  1
  H  H40  1  0.19549900  0.01742100  0.77970200  1
  H  H41  1  0.30450100  0.01742100  0.27970200  1
  H  H42  1  0.80450100  0.98257900  0.22029800  1
  H  H43  1  0.69549900  0.98257900  0.72029800  1
  H  H44  1  0.32660300  0.87369600  0.78747700  1
  H  H45  1  0.17339700  0.87369600  0.28747700  1
  H  H46  1  0.67339700  0.12630400  0.21252300  1
  H  H47  1  0.82660300  0.12630400  0.71252300  1
  C  C0  1  0.84872600  0.84902700  0.61853100  1
  C  C1  1  0.65127400  0.84902700  0.11853100  1
  C  C2  1  0.15127400  0.15097300  0.38146900  1
  C  C3  1  0.34872600  0.15097300  0.88146900  1
  C  C4  1  0.33732000  0.70179300  0.53776200  1
  C  C5  1  0.16268000  0.70179300  0.03776200  1
  C  C6  1  0.66268000  0.29820700  0.46223800  1
  C  C7  1  0.83732000  0.29820700  0.96223800  1
  C  C8  1  0.33216700  0.04847400  0.66140500  1
  C  C9  1  0.16783300  0.04847400  0.16140500  1
  C  C10  1  0.66783300  0.95152600  0.33859500  1
  C  C11  1  0.83216700  0.95152600  0.83859500  1
  N  N0  1  0.75300500  0.74637200  0.68751300  1
  N  N1  1  0.74699500  0.74637200  0.18751300  1
  N  N2  1  0.24699500  0.25362800  0.31248700  1
  N  N3  1  0.25300500  0.25362800  0.81248700  1
  N  N4  1  0.02776600  0.85178500  0.62799900  1
  N  N5  1  0.47223400  0.85178500  0.12799900  1
  N  N6  1  0.97223400  0.14821500  0.37200100  1
  N  N7  1  0.52776600  0.14821500  0.87200100  1
  N  N8  1  0.20246100  0.75587500  0.47600100  1
  N  N9  1  0.29753900  0.75587500  0.97600100  1
  N  N10  1  0.79753900  0.24412500  0.52399900  1
  N  N11  1  0.70246100  0.24412500  0.02399900  1
  N  N12  1  0.36255000  0.55815400  0.57903200  1
  N  N13  1  0.13745000  0.55815400  0.07903200  1
  N  N14  1  0.63745000  0.44184600  0.42096800  1
  N  N15  1  0.86255000  0.44184600  0.92096800  1
  N  N16  1  0.26375900  0.18112200  0.61049100  1
  N  N17  1  0.23624100  0.18112200  0.11049100  1
  N  N18  1  0.73624100  0.81887800  0.38950900  1
  N  N19  1  0.76375900  0.81887800  0.88950900  1
  N  N20  1  0.28512900  0.97727000  0.75126200  1
  N  N21  1  0.21487100  0.97727000  0.25126200  1
  N  N22  1  0.71487100  0.02273000  0.24873800  1
  N  N23  1  0.78512900  0.02273000  0.74873800  1
  Cl  Cl0  1  0.14363400  0.54562500  0.34345000  1
  Cl  Cl1  1  0.35636600  0.54562500  0.84345000  1
  Cl  Cl2  1  0.85636600  0.45437500  0.65655000  1
  Cl  Cl3  1  0.64363400  0.45437500  0.15655000  1
  O  O0  1  0.03670500  0.67412500  0.33301400  1
  O  O1  1  0.46329500  0.67412500  0.83301400  1
  O  O2  1  0.96329500  0.32587500  0.66698600  1
  O  O3  1  0.53670500  0.32587500  0.16698600  1
  O  O4  1  0.17519000  0.45426700  0.44451400  1
  O  O5  1  0.32481000  0.45426700  0.94451400  1
  O  O6  1  0.82481000  0.54573300  0.55548600  1
  O  O7  1  0.67519000  0.54573300  0.05548600  1
  O  O8  1  0.32427100  0.59985900  0.29809000  1
  O  O9  1  0.17572900  0.59985900  0.79809000  1
  O  O10  1  0.67572900  0.40014100  0.70191000  1
  O  O11  1  0.82427100  0.40014100  0.20191000  1
  O  O12  1  0.77038200  0.94482900  0.54653600  1
  O  O13  1  0.72961800  0.94482900  0.04653600  1
  O  O14  1  0.22961800  0.05517100  0.45346400  1
  O  O15  1  0.27038200  0.05517100  0.95346400  1
  O  O16  1  0.43693600  0.78136600  0.55749300  1
  O  O17  1  0.06306400  0.78136600  0.05749300  1
  O  O18  1  0.56306400  0.21863400  0.44250700  1
  O  O19  1  0.93693600  0.21863400  0.94250700  1
  O  O20  1  0.43837100  0.99097800  0.62766500  1
  O  O21  1  0.06162900  0.99097800  0.12766500  1
  O  O22  1  0.56162900  0.00902200  0.37233500  1
  O  O23  1  0.93837100  0.00902200  0.87233500  1
loop_
_geom_bond_atom_site_label_1
_geom_bond_atom_site_label_2
_geom_bond_distance
_geom_bond_site_symmetry_2
Mg0 O18 2.101795 1_555
Mg0 O16 2.101795 1_545
Mg0 O20 2.103338 1_545
Mg0 O22 2.103338 1_555
Mg0 O14 2.133646 1_555
Mg0 O12 2.133646 1_545
Mg1 O19 2.101795 1_454
Mg1 O17 2.101795 1_545
Mg1 O21 2.103338 1_545
Mg1 O23 2.103338 1_454
Mg1 O15 2.133646 1_554
Mg1 O13 2.133646 1_445
H0 N0 1.010526 1_555
H1 N1 1.010526 1_555
H2 N2 1.010526 1_555
H3 N3 1.010526 1_555
H4 N0 1.015030 1_555
H5 N1 1.015030 1_555
H6 N2 1.015030 1_555
H7 N3 1.015030 1_555
H8 N4 1.021323 1_555
H9 N5 1.021323 1_555
H10 N6 1.021323 1_555
H11 N7 1.021323 1_555
H12 N4 1.020404 1_555
H13 N5 1.020404 1_555
H14 N6 1.020404 1_555
H15 N7 1.020404 1_555
H16 N8 1.015137 1_555
H17 N9 1.015137 1_555
H18 N10 1.015137 1_555
H19 N11 1.015137 1_555
H20 N8 1.017786 1_555
H21 N9 1.017786 1_555
H22 N10 1.017786 1_555
H23 N11 1.017786 1_555
H24 N12 1.015485 1_555
H25 N13 1.015485 1_555
H26 N14 1.015485 1_555
H27 N15 1.015485 1_555
H28 N12 1.022730 1_555
H29 N13 1.022730 1_555
H30 N14 1.022730 1_555
H31 N15 1.022730 1_555
H32 N16 1.014369 1_555
H33 N17 1.014369 1_555
H34 N18 1.014369 1_555
H35 N19 1.014369 1_555
H36 N16 1.014861 1_555
H37 N17 1.014861 1_555
H38 N18 1.014861 1_555
H39 N19 1.014861 1_555
H40 N20 1.013472 1_545
H41 N21 1.013472 1_545
H42 N22 1.013472 1_565
H43 N23 1.013472 1_565
H44 N20 1.019926 1_555
H45 N21 1.019926 1_555
H46 N22 1.019926 1_555
H47 N23 1.019926 1_555
C0 O12 1.282866 1_555
C0 N4 1.342577 1_655
C0 N0 1.349368 1_555
C1 O13 1.282866 1_555
C1 N5 1.342577 1_555
C1 N1 1.349368 1_555
C2 O14 1.282866 1_555
C2 N6 1.342577 1_455
C2 N2 1.349368 1_555
C3 O15 1.282866 1_555
C3 N7 1.342577 1_555
C3 N3 1.349368 1_555
C4 O16 1.270893 1_555
C4 N8 1.349175 1_555
C4 N12 1.356542 1_555
C5 O17 1.270893 1_555
C5 N9 1.349175 1_554
C5 N13 1.356542 1_555
C6 O18 1.270893 1_555
C6 N10 1.349175 1_555
C6 N14 1.356542 1_555
C7 O19 1.270893 1_555
C7 N11 1.349175 1_556
C7 N15 1.356542 1_555
C8 O20 1.270338 1_545
C8 N20 1.352515 1_545
C8 N16 1.352996 1_555
C9 O21 1.270338 1_545
C9 N21 1.352515 1_545
C9 N17 1.352996 1_555
C10 O22 1.270338 1_565
C10 N22 1.352515 1_565
C10 N18 1.352996 1_555
C11 O23 1.270338 1_565
C11 N23 1.352515 1_565
C11 N19 1.352996 1_555
Cl0 O4 1.498646 1_555
Cl0 O0 1.513154 1_555
Cl0 O8 1.513305 1_555
Cl1 O5 1.498646 1_555
Cl1 O1 1.513154 1_555
Cl1 O9 1.513305 1_555
Cl2 O6 1.498646 1_555
Cl2 O2 1.513154 1_555
Cl2 O10 1.513305 1_555
Cl3 O7 1.498646 1_555
Cl3 O3 1.513154 1_555
Cl3 O11 1.513305 1_555
