# generated using pymatgen
data_Li3V3P8O29
_symmetry_space_group_name_H-M   'P 1'
_cell_length_a   9.74194400
_cell_length_b   9.76944995
_cell_length_c   14.06708770
_cell_angle_alpha   90.01147927
_cell_angle_beta   90.18930292
_cell_angle_gamma   119.89141506
_symmetry_Int_Tables_number   1
_chemical_formula_structural   Li3V3P8O29
_chemical_formula_sum   'Li6 V6 P16 O58'
_cell_volume   1160.70369393
_cell_formula_units_Z   2
loop_
 _symmetry_equiv_pos_site_id
 _symmetry_equiv_pos_as_xyz
  1  'x, y, z'
loop_
 _atom_site_type_symbol
 _atom_site_label
 _atom_site_symmetry_multiplicity
 _atom_site_fract_x
 _atom_site_fract_y
 _atom_site_fract_z
 _atom_site_occupancy
  Li  Li0  1  0.09415600  0.32681300  0.44918700  1
  Li  Li1  1  0.67772700  0.90337200  0.93655900  1
  Li  Li2  1  0.23256100  0.90512600  0.44783400  1
  Li  Li3  1  0.91482600  0.22622800  0.05475300  1
  Li  Li4  1  0.30691100  0.08604200  0.05119600  1
  Li  Li5  1  0.96029400  0.97651300  0.51350100  1
  V  V0  1  0.56898500  0.00480100  0.74226300  1
  V  V1  1  0.43725500  0.00134900  0.25194000  1
  V  V2  1  0.00311500  0.44116700  0.24907800  1
  V  V3  1  0.99808000  0.56771900  0.75296700  1
  V  V4  1  0.43489600  0.43456800  0.75015300  1
  V  V5  1  0.56574100  0.56633100  0.25167900  1
  P  P0  1  0.23017800  0.31489100  0.15638400  1
  P  P1  1  0.08785500  0.31466100  0.66002700  1
  P  P2  1  0.69192100  0.77380000  0.65639700  1
  P  P3  1  0.33726900  0.67015600  0.86973200  1
  P  P4  1  0.33374000  0.66698600  0.37018100  1
  P  P5  1  0.68363500  0.91150600  0.15916100  1
  P  P6  1  0.78026600  0.08844900  0.34299900  1
  P  P7  1  0.08546300  0.77423400  0.15398000  1
  P  P8  1  0.91130700  0.22779500  0.84171400  1
  P  P9  1  0.22200300  0.90988300  0.65934300  1
  P  P10  1  0.31920700  0.08958400  0.83988800  1
  P  P11  1  0.66798200  0.33760000  0.62902500  1
  P  P12  1  0.66581600  0.33290100  0.13088200  1
  P  P13  1  0.30953500  0.22685700  0.34315300  1
  P  P14  1  0.91582000  0.69218400  0.34029000  1
  P  P15  1  0.77218800  0.68700200  0.84266200  1
  O  O0  1  0.21570500  0.22150000  0.42719900  1
  O  O1  1  0.25954800  0.34547100  0.66799100  1
  O  O2  1  0.99206400  0.23410900  0.93278400  1
  O  O3  1  0.08442200  0.34059700  0.16014000  1
  O  O4  1  0.38281400  0.47552800  0.17743600  1
  O  O5  1  0.34293300  0.52610100  0.82207700  1
  O  O6  1  0.53583500  0.61639700  0.66821900  1
  O  O7  1  0.76406000  0.76931100  0.92904000  1
  O  O8  1  0.65760800  0.74320200  0.16646700  1
  O  O9  1  0.18507200  0.51325500  0.32673500  1
  O  O10  1  0.08687600  0.47056200  0.67369400  1
  O  O11  1  0.48155000  0.66944000  0.32510900  1
  O  O12  1  0.33700800  0.66618100  0.97554600  1
  O  O13  1  0.32428000  0.66156500  0.47533300  1
  O  O14  1  0.48546500  0.82133500  0.82975600  1
  O  O15  1  0.09469400  0.62026300  0.17832300  1
  O  O16  1  0.18418100  0.66119400  0.82459100  1
  O  O17  1  0.65376700  0.91126900  0.66802200  1
  O  O18  1  0.79909500  0.00815500  0.24594100  1
  O  O19  1  0.78917500  0.00633000  0.42833200  1
  O  O20  1  0.75136200  0.99728900  0.06839500  1
  O  O21  1  0.52162900  0.90339200  0.18050500  1
  O  O22  1  0.32703800  0.81571700  0.33007600  1
  O  O23  1  0.74154900  0.08141400  0.83715100  1
  O  O24  1  0.38062600  0.90879500  0.67184300  1
  O  O25  1  0.08289200  0.73935800  0.66782400  1
  O  O26  1  0.99842400  0.20522300  0.75076900  1
  O  O27  1  0.01165400  0.22857700  0.56966000  1
  O  O28  1  0.00506900  0.78232200  0.42546200  1
  O  O29  1  0.91887400  0.26238400  0.33623100  1
  O  O30  1  0.61973900  0.08754100  0.32643000  1
  O  O31  1  0.25774100  0.91828900  0.16363200  1
  O  O32  1  0.66812000  0.18538000  0.67272500  1
  O  O33  1  0.47783100  0.09485200  0.81852300  1
  O  O34  1  0.24700900  0.00786400  0.93015900  1
  O  O35  1  0.21560700  0.98580500  0.56848600  1
  O  O36  1  0.20517300  0.99967500  0.75001800  1
  O  O37  1  0.34097700  0.08464300  0.33961900  1
  O  O38  1  0.81688500  0.33164800  0.17253400  1
  O  O39  1  0.90335900  0.38002900  0.82321400  1
  O  O40  1  0.51613500  0.18141500  0.17589900  1
  O  O41  1  0.65955400  0.32236000  0.02595400  1
  O  O42  1  0.66869500  0.33139600  0.52356600  1
  O  O43  1  0.52019100  0.33454200  0.67399100  1
  O  O44  1  0.91413800  0.53192100  0.32496800  1
  O  O45  1  0.81590500  0.48201900  0.67519900  1
  O  O46  1  0.34574700  0.25915900  0.83247800  1
  O  O47  1  0.20702800  0.20622600  0.24845300  1
  O  O48  1  0.23891800  0.23402800  0.07015300  1
  O  O49  1  0.46889500  0.38342700  0.32841000  1
  O  O50  1  0.66254600  0.47650800  0.17756400  1
  O  O51  1  0.61895500  0.52683300  0.82424900  1
  O  O52  1  0.91435500  0.65698700  0.83688200  1
  O  O53  1  0.00214800  0.76224000  0.06491500  1
  O  O54  1  0.99878600  0.79443800  0.24656000  1
  O  O55  1  0.74252000  0.65602700  0.33425900  1
  O  O56  1  0.78676200  0.79528800  0.56990900  1
  O  O57  1  0.79694300  0.79426300  0.74977600  1
loop_
_geom_bond_atom_site_label_1
_geom_bond_atom_site_label_2
_geom_bond_distance
_geom_bond_site_symmetry_2
Li0 O27 1.918303 1_555
Li0 O0 1.942403 1_555
Li0 O29 2.178813 1_455
Li0 O9 2.339367 1_555
Li1 O7 1.879446 1_555
Li1 O20 2.032311 1_556
Li1 O23 2.072746 1_565
Li1 O14 2.211884 1_555
Li2 O35 1.913153 1_555
Li2 O28 1.948105 1_555
Li2 O37 2.161954 1_565
Li2 O22 2.272643 1_555
Li3 O2 1.861918 1_554
Li3 O20 2.006826 1_545
Li3 O3 2.078246 1_655
Li3 O38 2.388589 1_555
Li4 O34 1.836171 1_554
Li4 O48 1.885614 1_555
Li4 O31 2.154181 1_545
Li4 O40 2.486500 1_555
Li5 O56 1.910060 1_555
Li5 O19 2.184076 1_565
Li5 O27 2.388936 1_665
Li5 O28 2.480041 1_655
Li5 O35 2.560295 1_655
O0 P13 1.481745 1_555
O1 P1 1.548472 1_555
O1 V4 1.875118 1_555
O2 P8 1.486230 1_555
O3 P0 1.561417 1_555
O3 V2 1.984873 1_555
O4 P0 1.559682 1_555
O4 V5 1.861475 1_555
O5 P3 1.584394 1_555
O5 V4 1.852045 1_555
O6 P2 1.541319 1_555
O6 V4 1.928248 1_555
O7 P15 1.480882 1_555
O8 P5 1.537230 1_555
O8 V5 1.920968 1_555
O9 P4 1.597651 1_555
O9 V2 1.890533 1_555
O10 P1 1.539857 1_555
O10 V3 1.927977 1_455
O11 P4 1.564505 1_555
O11 V5 1.892888 1_555
O12 P3 1.488987 1_555
O13 P4 1.481670 1_555
O14 P3 1.569176 1_555
O14 V0 1.985780 1_565
O15 P7 1.588342 1_555
O15 V2 1.816220 1_555
O16 P3 1.580717 1_555
O16 V3 1.863698 1_455
O17 P2 1.570476 1_555
O17 V0 1.834490 1_565
O18 P5 1.605873 1_545
O18 P6 1.630253 1_555
O19 P6 1.470094 1_555
O20 P5 1.490900 1_555
O21 P5 1.570274 1_555
O21 V1 1.841288 1_565
O22 P4 1.590110 1_555
O22 V1 1.928118 1_565
O23 P8 1.557624 1_555
O23 V0 1.974504 1_555
O24 P9 1.559984 1_555
O24 V0 1.870924 1_565
O25 P9 1.541765 1_555
O25 V3 1.885564 1_455
O26 P8 1.612199 1_555
O26 P1 1.615857 1_655
O27 P1 1.498458 1_555
O28 P14 1.482050 1_455
O29 P6 1.560060 1_555
O29 V2 1.950903 1_655
O30 P6 1.576001 1_555
O30 V1 1.860845 1_555
O31 P7 1.568442 1_555
O31 V1 1.957239 1_565
O32 P11 1.609886 1_555
O32 V0 1.819503 1_555
O33 P10 1.550726 1_555
O33 V0 1.870273 1_555
O34 P10 1.480278 1_555
O35 P9 1.494478 1_555
O36 P9 1.602394 1_555
O36 P10 1.619126 1_565
O37 P13 1.565515 1_555
O37 V1 1.957320 1_555
O38 P12 1.587965 1_555
O38 V2 1.909847 1_655
O39 P8 1.549326 1_555
O39 V3 1.873625 1_555
O40 P12 1.604080 1_555
O40 V1 1.867652 1_555
O41 P12 1.478539 1_555
O42 P11 1.484907 1_555
O43 P11 1.561120 1_555
O43 V4 1.899478 1_555
O44 P14 1.572372 1_555
O44 V2 1.857108 1_655
O45 P11 1.567198 1_555
O45 V3 1.885004 1_555
O46 P10 1.547754 1_555
O46 V4 1.885748 1_555
O47 P13 1.613376 1_555
O47 P0 1.618362 1_555
O48 P0 1.473121 1_555
O49 P13 1.558288 1_555
O49 V5 1.890844 1_555
O50 P12 1.563605 1_555
O50 V5 1.891395 1_555
O51 P15 1.553410 1_555
O51 V4 1.868264 1_555
O52 P15 1.554443 1_555
O52 V3 1.879949 1_555
O53 P7 1.463098 1_555
O54 P14 1.610115 1_555
O54 P7 1.619051 1_655
O55 P14 1.544960 1_555
O55 V5 1.888232 1_555
O56 P2 1.480586 1_555
O57 P2 1.612252 1_555
O57 P15 1.616868 1_555
