# generated using pymatgen
data_KCr2FeO9
_symmetry_space_group_name_H-M   'P 1'
_cell_length_a   5.57672200
_cell_length_b   7.89235097
_cell_length_c   9.62314447
_cell_angle_alpha   101.60374355
_cell_angle_beta   90.00000000
_cell_angle_gamma   90.00000000
_symmetry_Int_Tables_number   1
_chemical_formula_structural   KCr2FeO9
_chemical_formula_sum   'K2 Cr4 Fe2 O18'
_cell_volume   414.89133950
_cell_formula_units_Z   2
loop_
 _symmetry_equiv_pos_site_id
 _symmetry_equiv_pos_as_xyz
  1  'x, y, z'
loop_
 _atom_site_type_symbol
 _atom_site_label
 _atom_site_symmetry_multiplicity
 _atom_site_fract_x
 _atom_site_fract_y
 _atom_site_fract_z
 _atom_site_occupancy
  K  K0  1  0.25000000  0.57741300  0.21298500  1
  K  K1  1  0.75000000  0.42258700  0.78701500  1
  Cr  Cr0  1  0.25000000  0.65664900  0.64916600  1
  Cr  Cr1  1  0.75000000  0.34335100  0.35083400  1
  Cr  Cr2  1  0.25000000  0.15760300  0.87878800  1
  Cr  Cr3  1  0.75000000  0.84239700  0.12121200  1
  Fe  Fe0  1  0.25000000  0.08743600  0.23043700  1
  Fe  Fe1  1  0.75000000  0.91256400  0.76956300  1
  O  O0  1  0.25000000  0.71945500  0.49793000  1
  O  O1  1  0.75000000  0.28054500  0.50207000  1
  O  O2  1  0.25000000  0.44682700  0.62432600  1
  O  O3  1  0.75000000  0.55317300  0.37567400  1
  O  O4  1  0.50164100  0.73056500  0.74334800  1
  O  O5  1  0.00164100  0.26943500  0.25665200  1
  O  O6  1  0.49835900  0.26943500  0.25665200  1
  O  O7  1  0.99835900  0.73056500  0.74334800  1
  O  O8  1  0.25000000  0.06197700  0.01775400  1
  O  O9  1  0.75000000  0.93802300  0.98224600  1
  O  O10  1  0.25000000  0.36632200  0.93282900  1
  O  O11  1  0.75000000  0.63367800  0.06717100  1
  O  O12  1  0.50038200  0.10008700  0.78236500  1
  O  O13  1  0.00038200  0.89991300  0.21763500  1
  O  O14  1  0.49961800  0.89991300  0.21763500  1
  O  O15  1  0.99961800  0.10008700  0.78236500  1
  O  O16  1  0.25000000  0.09995300  0.45004800  1
  O  O17  1  0.75000000  0.90004700  0.54995200  1
loop_
_geom_bond_atom_site_label_1
_geom_bond_atom_site_label_2
_geom_bond_distance
_geom_bond_site_symmetry_2
K0 O0 2.745735 1_555
K0 O10 2.870021 1_554
K0 O14 2.893519 1_555
K0 O13 2.893519 1_555
K0 O6 2.900679 1_555
K0 O5 2.900679 1_555
K0 O11 3.192453 1_455
K0 O11 3.192453 1_555
K0 O3 3.222280 1_555
K0 O3 3.222280 1_455
K1 O1 2.745735 1_555
K1 O11 2.870021 1_556
K1 O12 2.893519 1_555
K1 O15 2.893519 1_555
K1 O4 2.900679 1_555
K1 O7 2.900679 1_555
K1 O10 3.192453 1_655
K1 O10 3.192453 1_555
K1 O2 3.222280 1_555
K1 O2 3.222280 1_655
Cr0 O2 1.624868 1_555
Cr0 O0 1.629112 1_555
Cr0 O7 1.708331 1_455
Cr0 O4 1.708331 1_555
Cr1 O3 1.624868 1_555
Cr1 O1 1.629112 1_555
Cr1 O5 1.708331 1_655
Cr1 O6 1.708331 1_555
Cr2 O10 1.624613 1_555
Cr2 O8 1.662513 1_556
Cr2 O12 1.687389 1_555
Cr2 O15 1.687389 1_455
Cr3 O11 1.624613 1_555
Cr3 O9 1.662513 1_554
Cr3 O13 1.687389 1_655
Cr3 O14 1.687389 1_555
Fe0 O6 1.974695 1_555
Fe0 O5 1.974695 1_555
Fe0 O8 2.015895 1_555
Fe0 O14 2.017430 1_545
Fe0 O13 2.017430 1_545
Fe0 O16 2.095713 1_555
Fe1 O7 1.974695 1_555
Fe1 O4 1.974695 1_555
Fe1 O9 2.015895 1_555
Fe1 O15 2.017430 1_565
Fe1 O12 2.017430 1_565
Fe1 O17 2.095713 1_555
