# generated using pymatgen
data_Li9Mn12Ni3O32
_symmetry_space_group_name_H-M   'P 1'
_cell_length_a   8.26364801
_cell_length_b   8.29583553
_cell_length_c   8.29859973
_cell_angle_alpha   89.88363460
_cell_angle_beta   90.19962129
_cell_angle_gamma   89.80285380
_symmetry_Int_Tables_number   1
_chemical_formula_structural   Li9Mn12Ni3O32
_chemical_formula_sum   'Li9 Mn12 Ni3 O32'
_cell_volume   568.89307588
_cell_formula_units_Z   1
loop_
 _symmetry_equiv_pos_site_id
 _symmetry_equiv_pos_as_xyz
  1  'x, y, z'
loop_
 _atom_site_type_symbol
 _atom_site_label
 _atom_site_symmetry_multiplicity
 _atom_site_fract_x
 _atom_site_fract_y
 _atom_site_fract_z
 _atom_site_occupancy
  Li  Li0  1  0.00291300  0.00187100  0.00743900  1
  Li  Li1  1  0.24530500  0.24911700  0.24547600  1
  Li  Li2  1  0.25269300  0.75275200  0.74521300  1
  Li  Li3  1  0.49721000  0.99534600  0.50274500  1
  Li  Li4  1  0.50477400  0.49545100  0.99917700  1
  Li  Li5  1  0.74705200  0.25734800  0.75176800  1
  Li  Li6  1  0.75547800  0.74598700  0.25232500  1
  Li  Li7  1  0.87499900  0.37584300  0.12586600  1
  Li  Li8  1  0.99459400  0.50232800  0.49606800  1
  Mn  Mn0  1  0.12283400  0.12773300  0.62320200  1
  Mn  Mn1  1  0.12489100  0.38052400  0.87424500  1
  Mn  Mn2  1  0.12656300  0.62336200  0.12182700  1
  Mn  Mn3  1  0.37252900  0.37502100  0.62123900  1
  Mn  Mn4  1  0.37496100  0.62123000  0.37125600  1
  Mn  Mn5  1  0.37744500  0.87128200  0.12516900  1
  Mn  Mn6  1  0.62338400  0.37180200  0.37343800  1
  Mn  Mn7  1  0.62505300  0.12417900  0.13055000  1
  Mn  Mn8  1  0.62721400  0.87325800  0.87763500  1
  Mn  Mn9  1  0.87097900  0.12672800  0.37680100  1
  Mn  Mn10  1  0.87509000  0.87809900  0.62799100  1
  Mn  Mn11  1  0.87909900  0.62684100  0.87661700  1
  Ni  Ni0  1  0.12422500  0.87424500  0.37434400  1
  Ni  Ni1  1  0.37495500  0.12628700  0.87632900  1
  Ni  Ni2  1  0.62575200  0.62437800  0.62429600  1
  O  O0  1  0.10282400  0.12499500  0.39336800  1
  O  O1  1  0.10882000  0.89832000  0.62452500  1
  O  O2  1  0.11608200  0.61378500  0.88441700  1
  O  O3  1  0.12940900  0.39448000  0.09932400  1
  O  O4  1  0.14245600  0.14441500  0.86138100  1
  O  O5  1  0.13595100  0.36273300  0.63571300  1
  O  O6  1  0.14183800  0.62524700  0.35135500  1
  O  O7  1  0.14805900  0.85788700  0.12552400  1
  O  O8  1  0.35509000  0.14124400  0.62900800  1
  O  O9  1  0.36202800  0.37025200  0.85213700  1
  O  O10  1  0.36626000  0.63646900  0.13573300  1
  O  O11  1  0.37519800  0.85212200  0.35700300  1
  O  O12  1  0.37469200  0.60701300  0.60210700  1
  O  O13  1  0.38369000  0.38565900  0.38653100  1
  O  O14  1  0.38807000  0.10216700  0.12074500  1
  O  O15  1  0.39476900  0.87946200  0.89126100  1
  O  O16  1  0.60183900  0.37542200  0.60785600  1
  O  O17  1  0.60810600  0.60145900  0.37541800  1
  O  O18  1  0.61401100  0.88557200  0.11261600  1
  O  O19  1  0.60751400  0.11149200  0.89460600  1
  O  O20  1  0.62061100  0.34939200  0.14468900  1
  O  O21  1  0.63402200  0.13431600  0.36378700  1
  O  O22  1  0.64125700  0.87470900  0.64831800  1
  O  O23  1  0.64720500  0.64334200  0.87475200  1
  O  O24  1  0.84986800  0.35503800  0.37838400  1
  O  O25  1  0.85438400  0.12164400  0.14914400  1
  O  O26  1  0.86282100  0.86720900  0.86452000  1
  O  O27  1  0.87494000  0.64919600  0.64220300  1
  O  O28  1  0.87521500  0.89217700  0.39922600  1
  O  O29  1  0.88721700  0.11457400  0.61708800  1
  O  O30  1  0.89566400  0.39910500  0.87158500  1
  O  O31  1  0.90009800  0.62829100  0.10485800  1
loop_
_geom_bond_atom_site_label_1
_geom_bond_atom_site_label_2
_geom_bond_distance
_geom_bond_site_symmetry_2
Li0 O7 1.950097 1_545
Li0 O25 1.970543 1_455
Li0 O26 1.999891 1_444
Li0 O4 2.051952 1_554
Li1 O3 1.954607 1_555
Li1 O14 1.988247 1_555
Li1 O13 1.991482 1_555
Li1 O0 1.991509 1_555
Li2 O1 1.962609 1_555
Li2 O12 1.973387 1_555
Li2 O2 1.987612 1_555
Li2 O15 1.988985 1_555
Li3 O22 1.963357 1_555
Li3 O11 1.974004 1_555
Li3 O8 1.986470 1_565
Li3 O21 1.987390 1_565
Li4 O20 1.954651 1_556
Li4 O9 1.990657 1_555
Li4 O10 1.992024 1_556
Li4 O23 1.992483 1_555
Li5 O16 1.950099 1_555
Li5 O30 1.971287 1_555
Li5 O29 1.999646 1_555
Li5 O19 2.052336 1_555
Li6 O31 1.971343 1_555
Li6 O28 1.985407 1_555
Li6 O17 1.994459 1_555
Li6 O18 2.006867 1_555
Li7 O31 2.112137 1_555
Li7 O24 2.113301 1_555
Li7 O20 2.120614 1_555
Li7 O3 2.120764 1_655
Li7 O25 2.124710 1_555
Li7 O30 2.126107 1_554
Li8 O24 1.970759 1_555
Li8 O27 1.984669 1_555
Li8 O6 1.994066 1_655
Li8 O5 2.006083 1_655
Mn0 O1 1.907102 1_545
Mn0 O0 1.914068 1_555
Mn0 O8 1.923379 1_555
Mn0 O29 1.950978 1_455
Mn0 O5 1.955853 1_555
Mn0 O4 1.987771 1_555
Mn1 O3 1.871910 1_556
Mn1 O30 1.900032 1_455
Mn1 O2 1.938235 1_555
Mn1 O4 1.966737 1_555
Mn1 O9 1.970390 1_555
Mn1 O5 1.987672 1_555
Mn2 O31 1.876527 1_455
Mn2 O3 1.908378 1_555
Mn2 O6 1.908599 1_555
Mn2 O7 1.954575 1_555
Mn2 O2 1.973545 1_554
Mn2 O10 1.987093 1_555
Mn3 O16 1.898589 1_555
Mn3 O9 1.918730 1_555
Mn3 O12 1.930933 1_555
Mn3 O8 1.946171 1_555
Mn3 O13 1.952082 1_555
Mn3 O5 1.962089 1_555
Mn4 O11 1.918859 1_555
Mn4 O12 1.919138 1_555
Mn4 O6 1.933106 1_555
Mn4 O17 1.933217 1_555
Mn4 O13 1.959173 1_555
Mn4 O10 1.959393 1_555
Mn5 O7 1.899213 1_555
Mn5 O14 1.917980 1_565
Mn5 O11 1.930290 1_555
Mn5 O15 1.947940 1_554
Mn5 O10 1.952285 1_555
Mn5 O18 1.962013 1_555
Mn6 O24 1.876567 1_555
Mn6 O20 1.907820 1_555
Mn6 O17 1.909050 1_555
Mn6 O16 1.954371 1_555
Mn6 O21 1.973604 1_555
Mn6 O13 1.987049 1_555
Mn7 O20 1.872490 1_555
Mn7 O25 1.900887 1_555
Mn7 O21 1.938707 1_555
Mn7 O19 1.965917 1_554
Mn7 O14 1.968880 1_555
Mn7 O18 1.987717 1_545
Mn8 O22 1.906965 1_555
Mn8 O23 1.914125 1_555
Mn8 O15 1.925080 1_555
Mn8 O26 1.950870 1_555
Mn8 O18 1.956299 1_556
Mn8 O19 1.987806 1_565
Mn9 O25 1.894294 1_555
Mn9 O24 1.901518 1_555
Mn9 O0 1.920337 1_655
Mn9 O28 1.954481 1_545
Mn9 O21 1.961516 1_555
Mn9 O29 2.000404 1_555
Mn10 O28 1.901785 1_555
Mn10 O27 1.902366 1_555
Mn10 O1 1.939616 1_655
Mn10 O22 1.940543 1_555
Mn10 O29 1.966575 1_565
Mn10 O26 1.967737 1_555
Mn11 O30 1.894299 1_555
Mn11 O31 1.901477 1_556
Mn11 O23 1.920710 1_555
Mn11 O27 1.953925 1_555
Mn11 O2 1.961800 1_655
Mn11 O26 2.000417 1_555
Ni0 O28 2.073645 1_455
Ni0 O6 2.079471 1_555
Ni0 O7 2.079575 1_555
Ni0 O11 2.086921 1_555
Ni0 O1 2.090419 1_555
Ni0 O0 2.093406 1_565
Ni1 O4 1.930190 1_555
Ni1 O19 1.930699 1_555
Ni1 O9 2.035822 1_555
Ni1 O14 2.040220 1_556
Ni1 O15 2.057044 1_545
Ni1 O8 2.061854 1_555
Ni2 O27 2.075017 1_555
Ni2 O17 2.079117 1_555
Ni2 O16 2.080116 1_555
Ni2 O12 2.087684 1_555
Ni2 O22 2.090979 1_555
Ni2 O23 2.091655 1_555
