# generated using pymatgen
data_Li4V3Co3(WO8)2
_symmetry_space_group_name_H-M   'P 1'
_cell_length_a   5.97486154
_cell_length_b   5.97486154
_cell_length_c   9.77378207
_cell_angle_alpha   89.55830605
_cell_angle_beta   89.55830605
_cell_angle_gamma   60.46841433
_symmetry_Int_Tables_number   1
_chemical_formula_structural   Li4V3Co3(WO8)2
_chemical_formula_sum   'Li4 V3 Co3 W2 O16'
_cell_volume   303.57240222
_cell_formula_units_Z   1
loop_
 _symmetry_equiv_pos_site_id
 _symmetry_equiv_pos_as_xyz
  1  'x, y, z'
loop_
 _atom_site_type_symbol
 _atom_site_label
 _atom_site_symmetry_multiplicity
 _atom_site_fract_x
 _atom_site_fract_y
 _atom_site_fract_z
 _atom_site_occupancy
  Li  Li0  1  0.66744300  0.66744300  0.90473000  1
  Li  Li1  1  0.99722900  0.99722900  0.98820100  1
  Li  Li2  1  0.99788900  0.99788900  0.48602200  1
  Li  Li3  1  0.33654600  0.33654600  0.40542600  1
  V  V0  1  0.82351000  0.82351000  0.22502700  1
  V  V1  1  0.65535800  0.16443700  0.71770200  1
  V  V2  1  0.16443700  0.65535800  0.71770200  1
  Co  Co0  1  0.83037300  0.34167400  0.21128300  1
  Co  Co1  1  0.34167400  0.83037300  0.21128300  1
  Co  Co2  1  0.17112500  0.17112500  0.71138000  1
  W  W0  1  0.66062700  0.66062700  0.49001300  1
  W  W1  1  0.33247800  0.33247800  0.98991000  1
  O  O0  1  0.82336000  0.34188700  0.58600700  1
  O  O1  1  0.52360800  0.52360800  0.35296500  1
  O  O2  1  0.68386000  0.68386000  0.10884200  1
  O  O3  1  0.98998100  0.98998100  0.29604700  1
  O  O4  1  0.99863600  0.99863600  0.79947000  1
  O  O5  1  0.34188700  0.82336000  0.58600700  1
  O  O6  1  0.96155800  0.53460900  0.35285000  1
  O  O7  1  0.53460900  0.96155800  0.35285000  1
  O  O8  1  0.16947000  0.16947000  0.08240200  1
  O  O9  1  0.82252600  0.82252600  0.59240600  1
  O  O10  1  0.48757600  0.04086500  0.85087100  1
  O  O11  1  0.04086500  0.48757600  0.85087100  1
  O  O12  1  0.34066400  0.34066400  0.60702300  1
  O  O13  1  0.64931400  0.16909600  0.08947800  1
  O  O14  1  0.47959200  0.47959200  0.85158800  1
  O  O15  1  0.16909600  0.64931400  0.08947800  1
loop_
_geom_bond_atom_site_label_1
_geom_bond_atom_site_label_2
_geom_bond_distance
_geom_bond_site_symmetry_2
Li0 O2 2.003640 1_556
Li0 O10 2.009211 1_565
Li0 O11 2.009211 1_655
Li0 O14 2.012239 1_555
Li1 O4 1.844543 1_555
Li1 O8 2.009755 1_666
Li1 O15 2.057937 1_656
Li1 O13 2.057937 1_566
Li2 O3 1.859296 1_555
Li2 O5 2.041863 1_655
Li2 O0 2.041863 1_565
Li2 O9 2.079764 1_555
Li3 O12 1.971203 1_555
Li3 O1 1.993755 1_555
Li3 O6 2.019638 1_455
Li3 O7 2.019638 1_545
Co0 O3 2.005293 1_545
Co0 O2 2.041182 1_555
Co0 O1 2.116276 1_555
Co0 O8 2.162380 1_655
Co0 O13 2.188432 1_555
Co0 O6 2.188544 1_555
Co1 O3 2.005293 1_455
Co1 O2 2.041182 1_555
Co1 O1 2.116276 1_555
Co1 O8 2.162380 1_565
Co1 O15 2.188432 1_555
Co1 O7 2.188544 1_555
Co2 O4 1.971100 1_445
Co2 O12 2.017979 1_555
Co2 O11 2.147587 1_555
Co2 O10 2.147587 1_555
Co2 O5 2.188615 1_545
Co2 O0 2.188615 1_455
O0 W0 1.900947 1_555
O0 V1 2.190129 1_555
O1 W0 1.956824 1_555
O2 V0 1.843221 1_555
O3 V0 1.859302 1_555
O4 V1 1.958796 1_565
O4 V2 1.958796 1_655
O5 W0 1.900947 1_555
O5 V2 2.190129 1_555
O6 V0 1.949301 1_555
O6 W0 2.059326 1_555
O7 V0 1.949301 1_555
O7 W0 2.059326 1_555
O8 W1 1.903243 1_554
O9 W0 1.955825 1_555
O9 V1 2.163067 1_565
O9 V2 2.163067 1_655
O10 V1 1.984657 1_555
O10 W1 2.041232 1_555
O11 V2 1.984657 1_555
O11 W1 2.041232 1_555
O12 V1 1.968839 1_555
O12 V2 1.968839 1_555
O13 W1 1.917193 1_554
O13 V0 2.227658 1_545
O14 W1 2.024340 1_555
O14 V1 2.104360 1_555
O14 V2 2.104360 1_555
O15 W1 1.917193 1_554
O15 V0 2.227658 1_455
