# generated using pymatgen
data_Hf2N2O
_symmetry_space_group_name_H-M   'P 1'
_cell_length_a   8.66262361
_cell_length_b   8.66670620
_cell_length_c   8.66867640
_cell_angle_alpha   109.37293589
_cell_angle_beta   109.34319026
_cell_angle_gamma   109.49032333
_symmetry_Int_Tables_number   1
_chemical_formula_structural   Hf2N2O
_chemical_formula_sum   'Hf16 N16 O8'
_cell_volume   502.27259262
_cell_formula_units_Z   8
loop_
 _symmetry_equiv_pos_site_id
 _symmetry_equiv_pos_as_xyz
  1  'x, y, z'
loop_
 _atom_site_type_symbol
 _atom_site_label
 _atom_site_symmetry_multiplicity
 _atom_site_fract_x
 _atom_site_fract_y
 _atom_site_fract_z
 _atom_site_occupancy
  Hf  Hf0  1  0.99630030  0.48927773  0.99112427  1
  Hf  Hf1  1  0.21930531  0.25782931  0.97015245  1
  Hf  Hf2  1  0.75372837  0.97423667  0.72349833  1
  Hf  Hf3  1  0.24381234  0.53152000  0.78190626  1
  Hf  Hf4  1  0.03244857  0.28183356  0.25343061  1
  Hf  Hf5  1  0.53414895  0.78679228  0.25051516  1
  Hf  Hf6  1  0.29030824  0.75474521  0.54133486  1
  Hf  Hf7  1  0.71410619  0.24841272  0.46480245  1
  Hf  Hf8  1  0.98650870  0.98940554  0.48114786  1
  Hf  Hf9  1  0.51013464  0.01729307  0.01295959  1
  Hf  Hf10  1  0.50697861  0.49999757  0.51041710  1
  Hf  Hf11  1  0.46803116  0.21036486  0.75072637  1
  Hf  Hf12  1  0.95388885  0.70725900  0.73993964  1
  Hf  Hf13  1  0.25685592  0.03650392  0.29673292  1
  Hf  Hf14  1  0.74387604  0.46400479  0.20952414  1
  Hf  Hf15  1  0.78604124  0.74711928  0.03242492  1
  N  N0  1  0.27681325  0.53306258  0.04665438  1
  N  N1  1  0.26003648  0.48952746  0.53474131  1
  N  N2  1  0.44884189  0.98315691  0.22097558  1
  N  N3  1  0.77422716  0.04582050  0.51771495  1
  N  N4  1  0.46288460  0.23766903  0.01079585  1
  N  N5  1  0.22272491  0.94911314  0.48826313  1
  N  N6  1  0.72873385  0.74043292  0.77237256  1
  N  N7  1  0.97039830  0.46056505  0.73002221  1
  N  N8  1  0.77391046  0.22956664  0.23743929  1
  N  N9  1  0.99215519  0.03362036  0.25905085  1
  N  N10  1  0.54246839  0.00536068  0.77037613  1
  N  N11  1  0.73958004  0.51744176  0.46650336  1
  N  N12  1  0.75750195  0.72849106  0.26836818  1
  N  N13  1  0.95872276  0.22705782  0.96946882  1
  N  N14  1  0.73094851  0.46544633  0.95287022  1
  N  N15  1  0.50658956  0.27318086  0.54329519  1
  O  O0  1  0.48156550  0.72476695  0.44934421  1
  O  O1  1  0.04479221  0.77183157  0.03435240  1
  O  O2  1  0.23393407  0.27134111  0.72770371  1
  O  O3  1  0.22759899  0.77378363  0.76336722  1
  O  O4  1  0.02156823  0.96655634  0.74105166  1
  O  O5  1  0.53203515  0.76043247  0.98428653  1
  O  O6  1  0.27740738  0.26550729  0.22801184  1
  O  O7  1  0.03808675  0.54967402  0.27233548  1
loop_
_geom_bond_atom_site_label_1
_geom_bond_atom_site_label_2
_geom_bond_distance
_geom_bond_site_symmetry_2
Hf0 N7 2.118473 1_555
Hf0 N13 2.118650 1_555
Hf0 N14 2.137564 1_555
Hf0 N0 2.183832 1_656
Hf0 O7 2.188610 1_656
Hf0 O1 2.216768 1_656
Hf1 N0 2.077653 1_556
Hf1 O6 2.094753 1_556
Hf1 N4 2.097924 1_556
Hf1 N13 2.180612 1_455
Hf1 O2 2.185582 1_555
Hf1 O4 2.187631 1_545
Hf2 N13 2.072826 1_565
Hf2 N10 2.082397 1_565
Hf2 N3 2.114040 1_565
Hf2 N6 2.160987 1_555
Hf2 O4 2.299302 1_655
Hf2 O0 2.314937 1_555
Hf3 N7 2.080642 1_455
Hf3 O2 2.110532 1_555
Hf3 N1 2.111681 1_555
Hf3 O5 2.175183 1_555
Hf3 O3 2.204468 1_555
Hf3 N0 2.211667 1_556
Hf4 N8 2.077498 1_455
Hf4 N9 2.081244 1_455
Hf4 N1 2.146758 1_555
Hf4 N13 2.161843 1_454
Hf4 O6 2.249625 1_555
Hf4 O7 2.254843 1_555
Hf5 O0 2.106795 1_555
Hf5 N0 2.114005 1_555
Hf5 N2 2.123882 1_555
Hf5 N12 2.128070 1_555
Hf5 N3 2.230163 1_565
Hf5 O5 2.235649 1_554
Hf6 N5 2.094245 1_555
Hf6 O0 2.115034 1_555
Hf6 N10 2.128654 1_565
Hf6 O3 2.137439 1_555
Hf6 O7 2.157375 1_555
Hf6 N1 2.203661 1_555
Hf7 N3 2.133245 1_555
Hf7 N7 2.164666 1_555
Hf7 N8 2.167709 1_555
Hf7 N15 2.170586 1_555
Hf7 N2 2.250897 1_545
Hf7 N11 2.262069 1_555
Hf8 N12 2.065544 1_555
Hf8 N9 2.096496 1_565
Hf8 N3 2.145797 1_565
Hf8 N5 2.172647 1_655
Hf8 O4 2.256192 1_655
Hf8 O2 2.266796 1_665
Hf9 N8 2.065589 1_555
Hf9 N4 2.087121 1_555
Hf9 N2 2.122361 1_545
Hf9 N10 2.185517 1_554
Hf9 O5 2.235938 1_544
Hf9 O3 2.267454 1_544
Hf10 N15 2.076858 1_555
Hf10 N6 2.118670 1_555
Hf10 N11 2.137937 1_555
Hf10 N1 2.193331 1_555
Hf10 O6 2.203492 1_555
Hf10 O0 2.239790 1_555
Hf11 N10 2.119912 1_555
Hf11 N15 2.137122 1_555
Hf11 N14 2.138082 1_555
Hf11 N4 2.204599 1_556
Hf11 O2 2.224510 1_555
Hf11 N5 2.233299 1_545
Hf12 N11 2.056999 1_555
Hf12 O4 2.120537 1_655
Hf12 N6 2.156323 1_555
Hf12 O3 2.164865 1_655
Hf12 N7 2.165463 1_555
Hf12 O1 2.207684 1_656
Hf13 N5 2.104217 1_545
Hf13 N2 2.108584 1_545
Hf13 N15 2.126751 1_555
Hf13 O1 2.183700 1_545
Hf13 N9 2.196667 1_455
Hf13 O6 2.223624 1_555
Hf14 N12 2.128913 1_555
Hf14 N4 2.129459 1_555
Hf14 N11 2.135497 1_555
Hf14 N14 2.194761 1_554
Hf14 N8 2.211724 1_555
Hf14 O7 2.212029 1_655
Hf15 N6 2.117663 1_554
Hf15 N14 2.133154 1_554
Hf15 O5 2.149912 1_554
Hf15 N9 2.166685 1_565
Hf15 O1 2.173195 1_655
Hf15 N12 2.190413 1_555
