# generated using pymatgen
data_Li4Ti5Fe3O16
_symmetry_space_group_name_H-M   'P 1'
_cell_length_a   5.98486797
_cell_length_b   5.98486797
_cell_length_c   9.62887227
_cell_angle_alpha   89.92736339
_cell_angle_beta   89.92736339
_cell_angle_gamma   59.49827416
_symmetry_Int_Tables_number   1
_chemical_formula_structural   Li4Ti5Fe3O16
_chemical_formula_sum   'Li4 Ti5 Fe3 O16'
_cell_volume   297.16440850
_cell_formula_units_Z   1
loop_
 _symmetry_equiv_pos_site_id
 _symmetry_equiv_pos_as_xyz
  1  'x, y, z'
loop_
 _atom_site_type_symbol
 _atom_site_label
 _atom_site_symmetry_multiplicity
 _atom_site_fract_x
 _atom_site_fract_y
 _atom_site_fract_z
 _atom_site_occupancy
  Li  Li0  1  0.66159200  0.66159200  0.10251700  1
  Li  Li1  1  0.99914900  0.99914900  0.00701700  1
  Li  Li2  1  0.00282100  0.00282100  0.50676300  1
  Li  Li3  1  0.33235900  0.33235900  0.60134000  1
  Ti  Ti0  1  0.17619600  0.17619600  0.27066100  1
  Ti  Ti1  1  0.34872800  0.84000700  0.77936200  1
  Ti  Ti2  1  0.66661000  0.66661000  0.50016700  1
  Ti  Ti3  1  0.84000700  0.34872800  0.77936200  1
  Ti  Ti4  1  0.34678700  0.34678700  0.00245100  1
  Fe  Fe0  1  0.82915800  0.82915800  0.78908300  1
  Fe  Fe1  1  0.17194700  0.65985000  0.28986300  1
  Fe  Fe2  1  0.65985000  0.17194700  0.28986300  1
  O  O0  1  0.34001100  0.82690900  0.40524400  1
  O  O1  1  0.51853500  0.51853500  0.66426600  1
  O  O2  1  0.65353500  0.65353500  0.89671100  1
  O  O3  1  0.00804500  0.00804500  0.69518900  1
  O  O4  1  0.00284300  0.00284300  0.19594500  1
  O  O5  1  0.82690900  0.34001100  0.40524400  1
  O  O6  1  0.50436300  0.95792900  0.65361800  1
  O  O7  1  0.95792900  0.50436300  0.65361800  1
  O  O8  1  0.16918700  0.16918700  0.90084800  1
  O  O9  1  0.83138800  0.83138800  0.40923500  1
  O  O10  1  0.03272000  0.47572500  0.16089500  1
  O  O11  1  0.47572500  0.03272000  0.16089500  1
  O  O12  1  0.32489100  0.32489100  0.39593800  1
  O  O13  1  0.18024500  0.66200700  0.90942800  1
  O  O14  1  0.47556200  0.47556200  0.15724300  1
  O  O15  1  0.66200700  0.18024500  0.90942800  1
loop_
_geom_bond_atom_site_label_1
_geom_bond_atom_site_label_2
_geom_bond_distance
_geom_bond_site_symmetry_2
Li0 O2 1.983570 1_554
Li0 O11 1.995072 1_565
Li0 O10 1.995072 1_655
Li0 O14 2.003047 1_555
Li1 O4 1.819625 1_665
Li1 O13 1.977683 1_654
Li1 O15 1.977683 1_564
Li1 O8 2.040179 1_664
Li2 O3 1.815221 1_555
Li2 O0 1.994310 1_545
Li2 O5 1.994310 1_455
Li2 O9 2.015129 1_445
Li3 O12 1.979425 1_555
Li3 O7 1.997875 1_455
Li3 O6 1.997875 1_545
Li3 O1 2.028278 1_555
Fe0 O3 2.066027 1_665
Fe0 O2 2.097497 1_555
Fe0 O7 2.134723 1_555
Fe0 O6 2.134723 1_555
Fe0 O15 2.151291 1_565
Fe0 O13 2.151291 1_655
Fe1 O4 1.986097 1_565
Fe1 O12 2.008552 1_555
Fe1 O14 2.027859 1_555
Fe1 O0 2.066929 1_555
Fe1 O10 2.094982 1_555
Fe1 O9 2.098168 1_455
Fe2 O4 1.986097 1_655
Fe2 O12 2.008552 1_555
Fe2 O14 2.027859 1_555
Fe2 O5 2.066929 1_555
Fe2 O11 2.094982 1_555
Fe2 O9 2.098168 1_545
O0 Ti2 1.917070 1_555
O0 Ti0 2.219527 1_565
O1 Ti1 1.995084 1_555
O1 Ti3 1.995084 1_555
O1 Ti2 2.203987 1_555
O2 Ti3 1.945617 1_555
O2 Ti1 1.945617 1_555
O3 Ti1 1.935498 1_545
O3 Ti3 1.935498 1_455
O4 Ti0 1.940834 1_555
O5 Ti2 1.917070 1_555
O5 Ti0 2.219527 1_655
O6 Ti1 1.869211 1_555
O6 Ti2 2.109545 1_555
O7 Ti3 1.869211 1_555
O7 Ti2 2.109545 1_555
O8 Ti3 2.063486 1_455
O8 Ti1 2.063486 1_545
O8 Ti4 2.090174 1_556
O9 Ti2 1.922130 1_555
O10 Ti0 1.871599 1_555
O10 Ti4 2.231462 1_555
O11 Ti0 1.871599 1_555
O11 Ti4 2.231462 1_555
O12 Ti0 1.961734 1_555
O13 Ti4 1.855797 1_556
O13 Ti1 2.191800 1_555
O14 Ti4 2.004560 1_555
O15 Ti4 1.855797 1_556
O15 Ti3 2.191800 1_555
