# generated using pymatgen
data_Nb18P3O50
_symmetry_space_group_name_H-M   'P 1'
_cell_length_a   7.72673600
_cell_length_b   11.65994312
_cell_length_c   11.66357952
_cell_angle_alpha   88.00149180
_cell_angle_beta   100.57583629
_cell_angle_gamma   101.03782162
_symmetry_Int_Tables_number   1
_chemical_formula_structural   Nb18P3O50
_chemical_formula_sum   'Nb18 P3 O50'
_cell_volume   1013.85135873
_cell_formula_units_Z   1
loop_
 _symmetry_equiv_pos_site_id
 _symmetry_equiv_pos_as_xyz
  1  'x, y, z'
loop_
 _atom_site_type_symbol
 _atom_site_label
 _atom_site_symmetry_multiplicity
 _atom_site_fract_x
 _atom_site_fract_y
 _atom_site_fract_z
 _atom_site_occupancy
  Nb  Nb0  1  0.38802600  0.67967800  0.87928100  1
  Nb  Nb1  1  0.88962200  0.68104700  0.88094300  1
  Nb  Nb2  1  0.34514100  0.80791100  0.56253400  1
  Nb  Nb3  1  0.83900300  0.80095200  0.56043200  1
  Nb  Nb4  1  0.05911500  0.44040300  0.80032900  1
  Nb  Nb5  1  0.56376600  0.43848400  0.81199000  1
  Nb  Nb6  1  0.04620000  0.87572900  0.31815800  1
  Nb  Nb7  1  0.55108200  0.88580700  0.32050500  1
  Nb  Nb8  1  0.50029900  0.99889200  0.99907400  1
  Nb  Nb9  1  0.00107000  0.00066900  0.00062700  1
  Nb  Nb10  1  0.45371400  0.12169000  0.68065700  1
  Nb  Nb11  1  0.95364900  0.11965700  0.68030200  1
  Nb  Nb12  1  0.43821700  0.56510500  0.19357100  1
  Nb  Nb13  1  0.94099700  0.55868500  0.19838100  1
  Nb  Nb14  1  0.15682300  0.19141300  0.43679600  1
  Nb  Nb15  1  0.66160300  0.20164100  0.44178700  1
  Nb  Nb16  1  0.10777600  0.32065100  0.11696500  1
  Nb  Nb17  1  0.60928900  0.31776400  0.12432800  1
  P  P0  1  0.61301800  0.49185600  0.46291100  1
  P  P1  1  0.13535700  0.53735400  0.49519200  1
  P  P2  1  0.37564000  0.46363000  0.54238500  1
  O  O0  1  0.43712000  0.83289000  0.93491500  1
  O  O1  1  0.94187600  0.83366200  0.93356000  1
  O  O2  1  0.39518500  0.96599200  0.61297900  1
  O  O3  1  0.88741000  0.95948100  0.61211000  1
  O  O4  1  0.12189500  0.63644200  0.85676600  1
  O  O5  1  0.62506500  0.63623600  0.86303800  1
  O  O6  1  0.36495800  0.73843900  0.70796900  1
  O  O7  1  0.85919600  0.73486100  0.70758000  1
  O  O8  1  0.06316000  0.38580300  0.95767400  1
  O  O9  1  0.59017400  0.39115300  0.96899900  1
  O  O10  1  0.07274500  0.81444900  0.51393200  1
  O  O11  1  0.57482100  0.80994600  0.50927900  1
  O  O12  1  0.31752100  0.48616500  0.83148800  1
  O  O13  1  0.81788800  0.49120000  0.79971400  1
  O  O14  1  0.30639300  0.86890600  0.36245700  1
  O  O15  1  0.80171800  0.85507300  0.36395900  1
  O  O16  1  0.06759500  0.51956700  0.61153500  1
  O  O17  1  0.46924600  0.51921400  0.66180500  1
  O  O18  1  0.02315800  0.93365500  0.16692100  1
  O  O19  1  0.52605100  0.93500000  0.16583600  1
  O  O20  1  0.24113300  0.65999700  0.47085700  1
  O  O21  1  0.73314800  0.61089400  0.48622500  1
  O  O22  1  0.01528400  0.29390400  0.73323800  1
  O  O23  1  0.51494100  0.29318000  0.74164900  1
  O  O24  1  0.25069900  0.00169800  0.99979400  1
  O  O25  1  0.74909100  0.99925000  0.99890900  1
  O  O26  1  0.99043200  0.70810700  0.26250300  1
  O  O27  1  0.48785600  0.70921100  0.26301300  1
  O  O28  1  0.28838900  0.33445500  0.53956300  1
  O  O29  1  0.69543600  0.38236900  0.49934200  1
  O  O30  1  0.47643100  0.06536800  0.83256700  1
  O  O31  1  0.97415300  0.06742300  0.83277500  1
  O  O32  1  0.49550000  0.47371900  0.33996900  1
  O  O33  1  0.00680900  0.49261800  0.38318600  1
  O  O34  1  0.19593800  0.13323400  0.63805300  1
  O  O35  1  0.69962500  0.14575600  0.63526200  1
  O  O36  1  0.68505600  0.51178100  0.18636300  1
  O  O37  1  0.18089400  0.51042500  0.18892600  1
  O  O38  1  0.42404200  0.17129000  0.48365300  1
  O  O39  1  0.92663200  0.19949800  0.49057800  1
  O  O40  1  0.42147200  0.61405700  0.03504000  1
  O  O41  1  0.92099800  0.61231800  0.03955100  1
  O  O42  1  0.13719700  0.26316000  0.29315300  1
  O  O43  1  0.63197300  0.26236400  0.29144200  1
  O  O44  1  0.37081100  0.36207400  0.13249400  1
  O  O45  1  0.87702600  0.36431300  0.14612900  1
  O  O46  1  0.09832200  0.03486600  0.38864500  1
  O  O47  1  0.62321500  0.04125100  0.38611600  1
  O  O48  1  0.05808500  0.16718700  0.06614600  1
  O  O49  1  0.56182900  0.16707600  0.06519800  1
loop_
_geom_bond_atom_site_label_1
_geom_bond_atom_site_label_2
_geom_bond_distance
_geom_bond_site_symmetry_2
Nb0 O0 1.867444 1_555
Nb0 O40 1.938833 1_556
Nb0 O4 1.991392 1_555
Nb0 O5 2.033790 1_555
Nb0 O6 2.077064 1_555
Nb0 O12 2.281274 1_555
Nb1 O1 1.848325 1_555
Nb1 O41 1.982324 1_556
Nb1 O5 1.984224 1_555
Nb1 O4 2.030868 1_655
Nb1 O7 2.081130 1_555
Nb1 O13 2.364016 1_555
Nb2 O6 1.847521 1_555
Nb2 O2 1.900619 1_555
Nb2 O11 1.980743 1_555
Nb2 O20 2.011505 1_555
Nb2 O10 2.092251 1_555
Nb2 O14 2.398022 1_555
Nb3 O7 1.849130 1_555
Nb3 O3 1.910537 1_555
Nb3 O10 1.955902 1_655
Nb3 O11 2.040656 1_555
Nb3 O15 2.336443 1_555
Nb3 O21 2.347109 1_555
Nb4 O22 1.849138 1_555
Nb4 O8 1.918159 1_555
Nb4 O12 1.934570 1_555
Nb4 O13 2.059731 1_455
Nb4 O4 2.335950 1_555
Nb4 O16 2.364998 1_555
Nb5 O23 1.850527 1_555
Nb5 O9 1.880234 1_555
Nb5 O13 1.971978 1_555
Nb5 O17 2.041203 1_555
Nb5 O12 2.133930 1_555
Nb5 O5 2.338696 1_555
Nb6 O18 1.856642 1_555
Nb6 O46 1.994942 1_565
Nb6 O14 1.998061 1_555
Nb6 O26 2.022451 1_455
Nb6 O15 2.024629 1_455
Nb6 O10 2.353093 1_555
Nb7 O19 1.860924 1_555
Nb7 O47 1.932529 1_565
Nb7 O15 2.007109 1_555
Nb7 O14 2.010721 1_555
Nb7 O27 2.125811 1_555
Nb7 O11 2.332794 1_555
Nb8 O25 1.921909 1_555
Nb8 O24 1.936682 1_565
Nb8 O0 2.037121 1_555
Nb8 O19 2.047292 1_556
Nb8 O30 2.055408 1_565
Nb8 O49 2.068894 1_566
Nb9 O24 1.928363 1_554
Nb9 O25 1.940298 1_444
Nb9 O48 2.049442 1_555
Nb9 O18 2.055605 1_545
Nb9 O1 2.060804 1_444
Nb9 O31 2.070780 1_454
Nb10 O30 1.857479 1_555
Nb10 O2 1.943693 1_545
Nb10 O34 1.991699 1_555
Nb10 O35 2.030808 1_555
Nb10 O23 2.083647 1_555
Nb10 O38 2.330558 1_555
Nb11 O31 1.848420 1_555
Nb11 O3 1.992687 1_545
Nb11 O34 1.998091 1_655
Nb11 O35 2.014979 1_555
Nb11 O22 2.084447 1_655
Nb11 O39 2.359693 1_555
Nb12 O27 1.833175 1_555
Nb12 O40 1.904816 1_555
Nb12 O37 1.959617 1_555
Nb12 O32 2.005797 1_555
Nb12 O36 2.132573 1_555
Nb12 O44 2.427406 1_555
Nb13 O26 1.863298 1_555
Nb13 O41 1.922999 1_555
Nb13 O36 1.928486 1_555
Nb13 O37 2.059970 1_655
Nb13 O33 2.264944 1_655
Nb13 O45 2.304119 1_555
Nb14 O42 1.840472 1_555
Nb14 O46 1.874549 1_555
Nb14 O39 2.010912 1_455
Nb14 O28 2.072397 1_555
Nb14 O38 2.092653 1_555
Nb14 O34 2.401816 1_555
Nb15 O43 1.859247 1_555
Nb15 O38 1.949674 1_555
Nb15 O47 1.951566 1_555
Nb15 O39 2.027023 1_555
Nb15 O29 2.186986 1_555
Nb15 O35 2.308808 1_555
Nb16 O48 1.851485 1_555
Nb16 O44 1.972774 1_555
Nb16 O8 1.978504 1_554
Nb16 O45 2.033727 1_455
Nb16 O42 2.124802 1_555
Nb16 O37 2.323082 1_555
Nb17 O49 1.855311 1_555
Nb17 O9 1.969348 1_554
Nb17 O45 2.006362 1_555
Nb17 O43 2.019231 1_555
Nb17 O44 2.025778 1_555
Nb17 O36 2.331411 1_555
O16 P1 1.535618 1_555
O17 P2 1.548194 1_555
O20 P1 1.550093 1_555
O21 P0 1.517350 1_555
O28 P2 1.526643 1_555
O29 P0 1.545953 1_555
O32 P0 1.547612 1_555
O33 P1 1.529096 1_555
