# generated using pymatgen
data_LiCoPO4
_symmetry_space_group_name_H-M   'P 1'
_cell_length_a   7.61744100
_cell_length_b   8.63519300
_cell_length_c   17.21826204
_cell_angle_alpha   60.59333268
_cell_angle_beta   90.00000000
_cell_angle_gamma   90.00000000
_symmetry_Int_Tables_number   1
_chemical_formula_structural   LiCoPO4
_chemical_formula_sum   'Li12 Co12 P12 O48'
_cell_volume   986.65820551
_cell_formula_units_Z   12
loop_
 _symmetry_equiv_pos_site_id
 _symmetry_equiv_pos_as_xyz
  1  'x, y, z'
loop_
 _atom_site_type_symbol
 _atom_site_label
 _atom_site_symmetry_multiplicity
 _atom_site_fract_x
 _atom_site_fract_y
 _atom_site_fract_z
 _atom_site_occupancy
  Li  Li0  1  0.98157800  0.29396000  0.93061000  1
  Li  Li1  1  0.02319700  0.64423700  0.58597400  1
  Li  Li2  1  0.04278000  0.99867100  0.24307500  1
  Li  Li3  1  0.54278000  0.00132900  0.25692500  1
  Li  Li4  1  0.52319700  0.35576300  0.91402600  1
  Li  Li5  1  0.48157800  0.70604000  0.56939000  1
  Li  Li6  1  0.51842200  0.29396000  0.43061000  1
  Li  Li7  1  0.47680300  0.64423700  0.08597400  1
  Li  Li8  1  0.45722000  0.99867100  0.74307500  1
  Li  Li9  1  0.95722000  0.00132900  0.75692500  1
  Li  Li10  1  0.97680300  0.35576300  0.41402600  1
  Li  Li11  1  0.01842200  0.70604000  0.06939000  1
  Co  Co0  1  0.67753500  0.64825100  0.41000900  1
  Co  Co1  1  0.81678100  0.32204100  0.76337300  1
  Co  Co2  1  0.67675600  0.01640700  0.07946700  1
  Co  Co3  1  0.17675600  0.98359300  0.42053300  1
  Co  Co4  1  0.31678100  0.67795900  0.73662700  1
  Co  Co5  1  0.17753500  0.35174900  0.08999100  1
  Co  Co6  1  0.82246500  0.64825100  0.91000900  1
  Co  Co7  1  0.68321900  0.32204100  0.26337300  1
  Co  Co8  1  0.82324400  0.01640700  0.57946700  1
  Co  Co9  1  0.32324400  0.98359300  0.92053300  1
  Co  Co10  1  0.18321900  0.67795900  0.23662700  1
  Co  Co11  1  0.32246500  0.35174900  0.58999100  1
  P  P0  1  0.26526400  0.65238200  0.40739600  1
  P  P1  1  0.21996500  0.30985700  0.76840100  1
  P  P2  1  0.26467500  0.03373400  0.07630100  1
  P  P3  1  0.76467500  0.96626600  0.42369900  1
  P  P4  1  0.71996500  0.69014300  0.73159900  1
  P  P5  1  0.76526400  0.34761800  0.09260400  1
  P  P6  1  0.23473600  0.65238200  0.90739600  1
  P  P7  1  0.28003500  0.30985700  0.26840100  1
  P  P8  1  0.23532500  0.03373400  0.57630100  1
  P  P9  1  0.73532500  0.96626600  0.92369900  1
  P  P10  1  0.78003500  0.69014300  0.23159900  1
  P  P11  1  0.73473600  0.34761800  0.59260400  1
  O  O0  1  0.44050600  0.57146200  0.39713900  1
  O  O1  1  0.87880600  0.40912400  0.63584000  1
  O  O2  1  0.37154900  0.24475700  0.83778700  1
  O  O3  1  0.22251000  0.58576200  0.50735400  1
  O  O4  1  0.77700400  0.09613500  0.95981700  1
  O  O5  1  0.77171500  0.78775700  0.28731100  1
  O  O6  1  0.26675600  0.92655100  0.18016800  1
  O  O7  1  0.04779100  0.26189600  0.82397200  1
  O  O8  1  0.44368400  0.12785800  0.04002700  1
  O  O9  1  0.22544300  0.51275100  0.70086900  1
  O  O10  1  0.12474800  0.18347000  0.04398000  1
  O  O11  1  0.27490400  0.85929600  0.35842300  1
  O  O12  1  0.77490400  0.14070400  0.14157700  1
  O  O13  1  0.62474800  0.81653000  0.45602000  1
  O  O14  1  0.72544300  0.48724900  0.79913100  1
  O  O15  1  0.94368400  0.87214200  0.45997300  1
  O  O16  1  0.54779100  0.73810400  0.67602800  1
  O  O17  1  0.76675600  0.07344900  0.31983200  1
  O  O18  1  0.27171500  0.21224300  0.21268900  1
  O  O19  1  0.27700400  0.90386500  0.54018300  1
  O  O20  1  0.72251000  0.41423800  0.99264600  1
  O  O21  1  0.87154900  0.75524300  0.66221300  1
  O  O22  1  0.37880600  0.59087600  0.86416000  1
  O  O23  1  0.94050600  0.42853800  0.10286100  1
  O  O24  1  0.05949400  0.57146200  0.89713900  1
  O  O25  1  0.62119400  0.40912400  0.13584000  1
  O  O26  1  0.12845100  0.24475700  0.33778700  1
  O  O27  1  0.27749000  0.58576200  0.00735400  1
  O  O28  1  0.72299600  0.09613500  0.45981700  1
  O  O29  1  0.72828500  0.78775700  0.78731100  1
  O  O30  1  0.23324400  0.92655100  0.68016800  1
  O  O31  1  0.45220900  0.26189600  0.32397200  1
  O  O32  1  0.05631600  0.12785800  0.54002700  1
  O  O33  1  0.27455700  0.51275100  0.20086900  1
  O  O34  1  0.37525200  0.18347000  0.54398000  1
  O  O35  1  0.22509600  0.85929600  0.85842300  1
  O  O36  1  0.72509600  0.14070400  0.64157700  1
  O  O37  1  0.77455700  0.48724900  0.29913100  1
  O  O38  1  0.87525200  0.81653000  0.95602000  1
  O  O39  1  0.55631600  0.87214200  0.95997300  1
  O  O40  1  0.95220900  0.73810400  0.17602800  1
  O  O41  1  0.73324400  0.07344900  0.81983200  1
  O  O42  1  0.22828500  0.21224300  0.71268900  1
  O  O43  1  0.22299600  0.90386500  0.04018300  1
  O  O44  1  0.77749000  0.41423800  0.49264600  1
  O  O45  1  0.62845100  0.75524300  0.16221300  1
  O  O46  1  0.12119400  0.59087600  0.36416000  1
  O  O47  1  0.55949400  0.42853800  0.60286100  1
loop_
_geom_bond_atom_site_label_1
_geom_bond_atom_site_label_2
_geom_bond_distance
_geom_bond_site_symmetry_2
Li0 O10 2.020198 1_656
Li0 O7 2.049788 1_655
Li0 O4 2.180784 1_555
Li0 O24 2.251758 1_655
Li1 O1 2.087352 1_455
Li1 O15 2.180342 1_455
Li1 O3 2.250292 1_555
Li1 O21 2.283004 1_455
Li1 O9 2.317427 1_555
Li2 O6 2.265906 1_555
Li2 O18 2.401788 1_565
Li2 O11 2.484396 1_555
Li2 O12 2.572417 1_465
Li2 O5 2.607382 1_455
Li3 O17 2.265906 1_555
Li3 O5 2.401788 1_545
Li3 O12 2.484396 1_555
Li3 O11 2.572417 1_545
Li3 O18 2.607382 1_555
Li4 O22 2.087352 1_555
Li4 O8 2.180342 1_556
Li4 O20 2.250292 1_555
Li4 O2 2.283004 1_555
Li4 O14 2.317427 1_555
Li5 O13 2.020198 1_555
Li5 O16 2.049788 1_555
Li5 O19 2.180784 1_555
Li5 O47 2.251758 1_555
Li6 O34 2.020198 1_555
Li6 O31 2.049788 1_555
Li6 O28 2.180784 1_555
Li6 O0 2.251758 1_555
Li7 O25 2.087352 1_555
Li7 O39 2.180342 1_554
Li7 O27 2.250292 1_555
Li7 O45 2.283004 1_555
Li7 O33 2.317427 1_555
Li8 O30 2.265906 1_555
Li8 O42 2.401788 1_565
Li8 O35 2.484396 1_555
Li8 O36 2.572417 1_565
Li8 O29 2.607382 1_555
Li9 O41 2.265906 1_555
Li9 O29 2.401788 1_545
Li9 O36 2.484396 1_555
Li9 O35 2.572417 1_645
Li9 O42 2.607382 1_655
Li10 O46 2.087352 1_655
Li10 O32 2.180342 1_655
Li10 O44 2.250292 1_555
Li10 O26 2.283004 1_655
Li10 O37 2.317427 1_555
Li11 O38 2.020198 1_454
Li11 O40 2.049788 1_455
Li11 O43 2.180784 1_555
Li11 O23 2.251758 1_455
Co0 O44 1.965750 1_555
Co0 O0 1.973098 1_555
Co0 O5 1.982403 1_555
Co0 O13 2.007828 1_555
Co1 O14 1.939304 1_555
Co1 O41 1.977057 1_555
Co1 O7 1.980617 1_655
Co1 O1 1.997274 1_555
Co2 O8 1.974251 1_555
Co2 O4 1.977009 1_554
Co2 O12 1.995461 1_555
Co2 O45 2.023843 1_545
Co3 O15 1.974251 1_455
Co3 O19 1.977009 1_555
Co3 O11 1.995461 1_555
Co3 O26 2.023843 1_565
Co4 O9 1.939304 1_555
Co4 O30 1.977057 1_555
Co4 O16 1.980617 1_555
Co4 O22 1.997274 1_555
Co5 O27 1.965750 1_555
Co5 O23 1.973098 1_455
Co5 O18 1.982403 1_555
Co5 O10 2.007828 1_555
Co6 O20 1.965750 1_555
Co6 O24 1.973098 1_655
Co6 O29 1.982403 1_555
Co6 O38 2.007828 1_555
Co7 O37 1.939304 1_555
Co7 O17 1.977057 1_555
Co7 O31 1.980617 1_555
Co7 O25 1.997274 1_555
Co8 O32 1.974251 1_655
Co8 O28 1.977009 1_555
Co8 O36 1.995461 1_555
Co8 O21 2.023843 1_545
Co9 O39 1.974251 1_555
Co9 O43 1.977009 1_556
Co9 O35 1.995461 1_555
Co9 O2 2.023843 1_565
Co10 O33 1.939304 1_555
Co10 O6 1.977057 1_555
Co10 O40 1.980617 1_455
Co10 O46 1.997274 1_555
Co11 O3 1.965750 1_555
Co11 O47 1.973098 1_555
Co11 O42 1.982403 1_555
Co11 O34 2.007828 1_555
O0 P0 1.556467 1_555
O1 P11 1.558509 1_555
O2 P1 1.554704 1_555
O3 P0 1.557853 1_555
O4 P9 1.558861 1_545
O5 P10 1.558443 1_555
O6 P2 1.558787 1_565
O7 P1 1.554995 1_555
O8 P2 1.552924 1_555
O9 P1 1.556545 1_555
O10 P2 1.552752 1_555
O11 P0 1.558636 1_555
O12 P5 1.558636 1_555
O13 P3 1.552752 1_555
O14 P4 1.556545 1_555
O15 P3 1.552924 1_555
O16 P4 1.554995 1_555
O17 P3 1.558787 1_545
O18 P7 1.558443 1_555
O19 P8 1.558861 1_565
O20 P5 1.557853 1_556
O21 P4 1.554704 1_555
O22 P6 1.558509 1_555
O23 P5 1.556467 1_555
O24 P6 1.556467 1_555
O25 P5 1.558509 1_555
O26 P7 1.554704 1_555
O27 P6 1.557853 1_554
O28 P3 1.558861 1_545
O29 P4 1.558443 1_555
O30 P8 1.558787 1_565
O31 P7 1.554995 1_555
O32 P8 1.552924 1_555
O33 P7 1.556545 1_555
O34 P8 1.552752 1_555
O35 P6 1.558636 1_555
O36 P11 1.558636 1_555
O37 P10 1.556545 1_555
O38 P9 1.552752 1_555
O39 P9 1.552924 1_555
O40 P10 1.554995 1_555
O41 P9 1.558787 1_545
O42 P1 1.558443 1_555
O43 P2 1.558861 1_565
O44 P11 1.557853 1_555
O45 P10 1.554704 1_555
O46 P0 1.558509 1_555
O47 P11 1.556467 1_555
