# generated using pymatgen
data_La2Ce2O7
_symmetry_space_group_name_H-M   'P 1'
_cell_length_a   6.00678100
_cell_length_b   8.43410800
_cell_length_c   14.67696197
_cell_angle_alpha   81.52822147
_cell_angle_beta   90.00000000
_cell_angle_gamma   90.00000000
_symmetry_Int_Tables_number   1
_chemical_formula_structural   La2Ce2O7
_chemical_formula_sum   'La8 Ce8 O28'
_cell_volume   735.44855429
_cell_formula_units_Z   4
loop_
 _symmetry_equiv_pos_site_id
 _symmetry_equiv_pos_as_xyz
  1  'x, y, z'
loop_
 _atom_site_type_symbol
 _atom_site_label
 _atom_site_symmetry_multiplicity
 _atom_site_fract_x
 _atom_site_fract_y
 _atom_site_fract_z
 _atom_site_occupancy
  La  La0  1  0.77175300  0.76573900  0.91732700  1
  La  La1  1  0.33221400  0.85927700  0.56087400  1
  La  La2  1  0.25125900  0.71622900  0.12391300  1
  La  La3  1  0.75105600  0.64230900  0.40537900  1
  La  La4  1  0.25105600  0.35769100  0.59462100  1
  La  La5  1  0.75125900  0.28377100  0.87608700  1
  La  La6  1  0.83221400  0.14072300  0.43912600  1
  La  La7  1  0.27175300  0.23426100  0.08267300  1
  Ce  Ce0  1  0.27070300  0.92508600  0.31547500  1
  Ce  Ce1  1  0.76587400  0.97064200  0.11531300  1
  Ce  Ce2  1  0.78049600  0.58434100  0.67827300  1
  Ce  Ce3  1  0.26813700  0.52867300  0.87928600  1
  Ce  Ce4  1  0.76813700  0.47132700  0.12071400  1
  Ce  Ce5  1  0.28049600  0.41565900  0.32172700  1
  Ce  Ce6  1  0.26587400  0.02935800  0.88468700  1
  Ce  Ce7  1  0.77070300  0.07491400  0.68452500  1
  O  O0  1  0.42507000  0.99786000  0.17002700  1
  O  O1  1  0.55291200  0.91213600  0.41879600  1
  O  O2  1  0.64679700  0.82544500  0.68848600  1
  O  O3  1  0.38179600  0.77577900  0.89237200  1
  O  O4  1  0.05523200  0.86891200  0.43467600  1
  O  O5  1  0.05570100  0.92751700  0.02097700  1
  O  O6  1  0.98441600  0.86110000  0.22374000  1
  O  O7  1  0.10191400  0.62449200  0.61302600  1
  O  O8  1  0.92432200  0.57821600  0.82957600  1
  O  O9  1  0.41524100  0.67624400  0.29854500  1
  O  O10  1  0.64533500  0.72907600  0.07861000  1
  O  O11  1  0.56951200  0.59420100  0.54859100  1
  O  O12  1  0.55386900  0.44272000  0.97777200  1
  O  O13  1  0.49473300  0.47270100  0.77368100  1
  O  O14  1  0.99473300  0.52729900  0.22631900  1
  O  O15  1  0.05386900  0.55728000  0.02222800  1
  O  O16  1  0.06951200  0.40579900  0.45140900  1
  O  O17  1  0.14533500  0.27092400  0.92139000  1
  O  O18  1  0.91524100  0.32375600  0.70145500  1
  O  O19  1  0.42432200  0.42178400  0.17042400  1
  O  O20  1  0.60191400  0.37550800  0.38697400  1
  O  O21  1  0.48441600  0.13890000  0.77626000  1
  O  O22  1  0.55570100  0.07248300  0.97902300  1
  O  O23  1  0.55523200  0.13108800  0.56532400  1
  O  O24  1  0.88179600  0.22422100  0.10762800  1
  O  O25  1  0.14679700  0.17455500  0.31151400  1
  O  O26  1  0.05291200  0.08786400  0.58120400  1
  O  O27  1  0.92507000  0.00214000  0.82997300  1
loop_
_geom_bond_atom_site_label_1
_geom_bond_atom_site_label_2
_geom_bond_distance
_geom_bond_site_symmetry_2
La0 O8 2.366477 1_555
La0 O3 2.370433 1_555
La0 O27 2.390411 1_565
La0 O10 2.461698 1_556
La0 O15 2.745127 1_656
La0 O5 2.774292 1_656
La0 O12 3.034805 1_555
La0 O22 3.144451 1_565
La1 O7 2.444214 1_555
La1 O1 2.455736 1_555
La1 O4 2.482145 1_555
La1 O26 2.605788 1_565
La1 O2 2.646247 1_555
La1 O23 2.664291 1_565
La1 O11 2.679790 1_555
La2 O15 2.453542 1_555
La2 O10 2.456810 1_555
La2 O5 2.458596 1_555
La2 O14 2.542996 1_455
La2 O6 2.595435 1_455
La2 O19 2.685954 1_555
La2 O9 2.720036 1_555
La2 O0 2.768369 1_555
La3 O11 2.349591 1_555
La3 O20 2.473493 1_555
La3 O9 2.545048 1_555
La3 O1 2.601241 1_555
La3 O4 2.723611 1_655
La3 O16 2.774444 1_655
La4 O16 2.349591 1_555
La4 O7 2.473493 1_555
La4 O18 2.545048 1_455
La4 O26 2.601241 1_555
La4 O23 2.723611 1_555
La4 O11 2.774444 1_555
La5 O12 2.453542 1_555
La5 O17 2.456810 1_655
La5 O22 2.458596 1_555
La5 O13 2.542996 1_555
La5 O21 2.595435 1_555
La5 O8 2.685954 1_555
La5 O18 2.720036 1_555
La5 O27 2.768369 1_555
La6 O20 2.444214 1_555
La6 O26 2.455736 1_655
La6 O23 2.482145 1_555
La6 O1 2.605788 1_545
La6 O25 2.646247 1_655
La6 O4 2.664291 1_645
La6 O16 2.679790 1_655
La7 O19 2.366477 1_555
La7 O24 2.370433 1_455
La7 O0 2.390411 1_545
La7 O17 2.461698 1_554
La7 O12 2.745127 1_554
La7 O22 2.774292 1_554
La7 O15 3.034805 1_555
La7 O5 3.144451 1_545
Ce0 O4 2.171681 1_555
Ce0 O25 2.224479 1_565
Ce0 O1 2.266342 1_555
Ce0 O6 2.296810 1_455
Ce0 O9 2.318185 1_555
Ce0 O0 2.325414 1_555
Ce1 O6 2.162435 1_555
Ce1 O0 2.223205 1_555
Ce1 O24 2.236201 1_565
Ce1 O5 2.286597 1_655
Ce1 O10 2.299736 1_555
Ce1 O22 2.413843 1_564
Ce2 O7 2.159567 1_655
Ce2 O2 2.211868 1_555
Ce2 O11 2.277962 1_555
Ce2 O18 2.319670 1_555
Ce2 O13 2.324942 1_555
Ce2 O8 2.376260 1_555
Ce3 O13 2.166437 1_555
Ce3 O8 2.209574 1_455
Ce3 O3 2.228114 1_555
Ce3 O12 2.291717 1_555
Ce3 O17 2.292584 1_555
Ce3 O15 2.503057 1_556
Ce4 O14 2.166437 1_555
Ce4 O19 2.209574 1_555
Ce4 O24 2.228114 1_555
Ce4 O15 2.291717 1_655
Ce4 O10 2.292584 1_555
Ce4 O12 2.503057 1_554
Ce5 O20 2.159567 1_555
Ce5 O25 2.211868 1_555
Ce5 O16 2.277962 1_555
Ce5 O9 2.319670 1_555
Ce5 O14 2.324942 1_455
Ce5 O19 2.376260 1_555
Ce6 O21 2.162435 1_555
Ce6 O27 2.223205 1_455
Ce6 O3 2.236201 1_545
Ce6 O22 2.286597 1_555
Ce6 O17 2.299736 1_555
Ce6 O5 2.413843 1_546
Ce7 O23 2.171681 1_555
Ce7 O2 2.224479 1_545
Ce7 O26 2.266342 1_655
Ce7 O21 2.296810 1_555
Ce7 O18 2.318185 1_555
Ce7 O27 2.325414 1_555
