# generated using pymatgen
data_Li2Ti3MnO8
_symmetry_space_group_name_H-M   'P 1'
_cell_length_a   8.52664100
_cell_length_b   8.52664100
_cell_length_c   8.52664100
_cell_angle_alpha   90.00000000
_cell_angle_beta   90.00000000
_cell_angle_gamma   90.00000000
_symmetry_Int_Tables_number   1
_chemical_formula_structural   Li2Ti3MnO8
_chemical_formula_sum   'Li8 Ti12 Mn4 O32'
_cell_volume   619.91755410
_cell_formula_units_Z   4
loop_
 _symmetry_equiv_pos_site_id
 _symmetry_equiv_pos_as_xyz
  1  'x, y, z'
loop_
 _atom_site_type_symbol
 _atom_site_label
 _atom_site_symmetry_multiplicity
 _atom_site_fract_x
 _atom_site_fract_y
 _atom_site_fract_z
 _atom_site_occupancy
  Li  Li0  1  0.62632000  0.37368000  0.87368000  1
  Li  Li1  1  0.74726300  0.24726300  0.25273700  1
  Li  Li2  1  0.75273700  0.75273700  0.75273700  1
  Li  Li3  1  0.87368000  0.62632000  0.37368000  1
  Li  Li4  1  0.12632000  0.12632000  0.12632000  1
  Li  Li5  1  0.24726300  0.25273700  0.74726300  1
  Li  Li6  1  0.25273700  0.74726300  0.24726300  1
  Li  Li7  1  0.37368000  0.87368000  0.62632000  1
  Ti  Ti0  1  0.61704400  0.12216600  0.62853800  1
  Ti  Ti1  1  0.62216600  0.87146200  0.38295600  1
  Ti  Ti2  1  0.62853800  0.61704400  0.12216600  1
  Ti  Ti3  1  0.87146200  0.38295600  0.62216600  1
  Ti  Ti4  1  0.87783400  0.12853800  0.88295600  1
  Ti  Ti5  1  0.88295600  0.87783400  0.12853800  1
  Ti  Ti6  1  0.11704400  0.37783400  0.37146200  1
  Ti  Ti7  1  0.12216600  0.62853800  0.61704400  1
  Ti  Ti8  1  0.12853800  0.88295600  0.87783400  1
  Ti  Ti9  1  0.37146200  0.11704400  0.37783400  1
  Ti  Ti10  1  0.37783400  0.37146200  0.11704400  1
  Ti  Ti11  1  0.38295600  0.62216600  0.87146200  1
  Mn  Mn0  1  0.50143500  0.99856500  0.00143500  1
  Mn  Mn1  1  0.99856500  0.00143500  0.50143500  1
  Mn  Mn2  1  0.00143500  0.50143500  0.99856500  1
  Mn  Mn3  1  0.49856500  0.49856500  0.49856500  1
  O  O0  1  0.60342700  0.62876800  0.89249500  1
  O  O1  1  0.60750500  0.39657300  0.12876800  1
  O  O2  1  0.61134600  0.11134600  0.38865400  1
  O  O3  1  0.62876800  0.89249500  0.60342700  1
  O  O4  1  0.62365500  0.64714900  0.35749900  1
  O  O5  1  0.63942900  0.86057100  0.13942900  1
  O  O6  1  0.64250100  0.12365500  0.85285100  1
  O  O7  1  0.64714900  0.35749900  0.62365500  1
  O  O8  1  0.85285100  0.64250100  0.12365500  1
  O  O9  1  0.85749900  0.87634500  0.35285100  1
  O  O10  1  0.86057100  0.13942900  0.63942900  1
  O  O11  1  0.87634500  0.35285100  0.85749900  1
  O  O12  1  0.87123200  0.10750500  0.10342700  1
  O  O13  1  0.88865400  0.88865400  0.88865400  1
  O  O14  1  0.89249500  0.60342700  0.62876800  1
  O  O15  1  0.89657300  0.37123200  0.39249500  1
  O  O16  1  0.10342700  0.87123200  0.10750500  1
  O  O17  1  0.10750500  0.10342700  0.87123200  1
  O  O18  1  0.11134600  0.38865400  0.61134600  1
  O  O19  1  0.12876800  0.60750500  0.39657300  1
  O  O20  1  0.12365500  0.85285100  0.64250100  1
  O  O21  1  0.13942900  0.63942900  0.86057100  1
  O  O22  1  0.14250100  0.37634500  0.14714900  1
  O  O23  1  0.14714900  0.14250100  0.37634500  1
  O  O24  1  0.35285100  0.85749900  0.87634500  1
  O  O25  1  0.35749900  0.62365500  0.64714900  1
  O  O26  1  0.36057100  0.36057100  0.36057100  1
  O  O27  1  0.37634500  0.14714900  0.14250100  1
  O  O28  1  0.37123200  0.39249500  0.89657300  1
  O  O29  1  0.38865400  0.61134600  0.11134600  1
  O  O30  1  0.39249500  0.89657300  0.37123200  1
  O  O31  1  0.39657300  0.12876800  0.60750500  1
loop_
_geom_bond_atom_site_label_1
_geom_bond_atom_site_label_2
_geom_bond_distance
_geom_bond_site_symmetry_2
Li0 O11 2.143703 1_555
Li0 O6 2.143703 1_555
Li0 O7 2.143703 1_555
Li0 O1 2.189670 1_556
Li0 O0 2.189670 1_555
Li0 O28 2.189670 1_555
Li1 O2 2.007300 1_555
Li1 O15 2.039171 1_555
Li1 O12 2.039171 1_555
Li1 O1 2.039171 1_555
Li2 O13 2.007300 1_555
Li2 O3 2.039171 1_555
Li2 O14 2.039171 1_555
Li2 O0 2.039171 1_555
Li3 O9 2.143703 1_555
Li3 O8 2.143703 1_555
Li3 O4 2.143703 1_555
Li3 O19 2.189670 1_655
Li3 O14 2.189670 1_555
Li3 O15 2.189670 1_555
Li4 O23 2.143703 1_555
Li4 O27 2.143703 1_555
Li4 O22 2.143703 1_555
Li4 O17 2.189670 1_554
Li4 O12 2.189670 1_455
Li4 O16 2.189670 1_545
Li5 O18 2.007300 1_555
Li5 O28 2.039171 1_555
Li5 O17 2.039171 1_555
Li5 O31 2.039171 1_555
Li6 O29 2.007300 1_555
Li6 O30 2.039171 1_555
Li6 O16 2.039171 1_555
Li6 O19 2.039171 1_555
Li7 O24 2.143703 1_555
Li7 O20 2.143703 1_555
Li7 O25 2.143703 1_555
Li7 O31 2.189670 1_565
Li7 O3 2.189670 1_555
Li7 O30 2.189670 1_555
Mn0 O5 2.037975 1_555
Mn0 O24 2.046826 1_554
Mn0 O6 2.046826 1_564
Mn0 O27 2.046826 1_565
Mn1 O10 2.037975 1_555
Mn1 O9 2.046826 1_545
Mn1 O20 2.046826 1_645
Mn1 O23 2.046826 1_655
Mn2 O21 2.037975 1_555
Mn2 O11 2.046826 1_455
Mn2 O8 2.046826 1_456
Mn2 O22 2.046826 1_556
Mn3 O26 2.037975 1_555
Mn3 O4 2.046826 1_555
Mn3 O7 2.046826 1_555
Mn3 O25 2.046826 1_555
O0 Ti11 1.889251 1_555
O0 Ti2 1.972527 1_556
O1 Ti2 1.889251 1_555
O1 Ti10 1.972527 1_555
O2 Ti0 2.048061 1_555
O2 Ti1 2.048061 1_545
O2 Ti9 2.048061 1_555
O3 Ti1 1.889251 1_555
O3 Ti0 1.972527 1_565
O4 Ti1 1.924956 1_555
O4 Ti2 2.023381 1_555
O5 Ti1 2.083748 1_555
O5 Ti5 2.083748 1_555
O5 Ti2 2.083748 1_555
O6 Ti0 1.924956 1_555
O6 Ti4 2.023381 1_555
O7 Ti3 1.924956 1_555
O7 Ti0 2.023381 1_555
O8 Ti2 1.924956 1_555
O8 Ti5 2.023381 1_555
O9 Ti5 1.924956 1_555
O9 Ti1 2.023381 1_555
O10 Ti3 2.083748 1_555
O10 Ti4 2.083748 1_555
O10 Ti0 2.083748 1_555
O11 Ti4 1.924956 1_555
O11 Ti3 2.023381 1_555
O12 Ti4 1.889251 1_554
O12 Ti5 1.972527 1_545
O13 Ti8 2.048061 1_655
O13 Ti5 2.048061 1_556
O13 Ti4 2.048061 1_565
O14 Ti3 1.889251 1_555
O14 Ti7 1.972527 1_655
O15 Ti6 1.889251 1_655
O15 Ti3 1.972527 1_555
O16 Ti5 1.889251 1_455
O16 Ti8 1.972527 1_554
O17 Ti8 1.889251 1_545
O17 Ti4 1.972527 1_455
O18 Ti7 2.048061 1_555
O18 Ti3 2.048061 1_455
O18 Ti6 2.048061 1_555
O19 Ti7 1.889251 1_555
O19 Ti6 1.972527 1_555
O20 Ti7 1.924956 1_555
O20 Ti8 2.023381 1_555
O21 Ti11 2.083748 1_555
O21 Ti8 2.083748 1_555
O21 Ti7 2.083748 1_555
O22 Ti6 1.924956 1_555
O22 Ti10 2.023381 1_555
O23 Ti9 1.924956 1_555
O23 Ti6 2.023381 1_555
O24 Ti8 1.924956 1_555
O24 Ti11 2.023381 1_555
O25 Ti11 1.924956 1_555
O25 Ti7 2.023381 1_555
O26 Ti6 2.083748 1_555
O26 Ti9 2.083748 1_555
O26 Ti10 2.083748 1_555
O27 Ti10 1.924956 1_555
O27 Ti9 2.023381 1_555
O28 Ti10 1.889251 1_556
O28 Ti11 1.972527 1_555
O29 Ti2 2.048061 1_555
O29 Ti11 2.048061 1_554
O29 Ti10 2.048061 1_555
O30 Ti9 1.889251 1_565
O30 Ti1 1.972527 1_555
O31 Ti0 1.889251 1_555
O31 Ti9 1.972527 1_555
