# generated using pymatgen
data_Mn6OF11
_symmetry_space_group_name_H-M   'P 1'
_cell_length_a   4.93253300
_cell_length_b   5.90670000
_cell_length_c   16.23680214
_cell_angle_alpha   89.60793405
_cell_angle_beta   90.00000000
_cell_angle_gamma   90.00000000
_symmetry_Int_Tables_number   1
_chemical_formula_structural   Mn6OF11
_chemical_formula_sum   'Mn12 O2 F22'
_cell_volume   473.04803597
_cell_formula_units_Z   2
loop_
 _symmetry_equiv_pos_site_id
 _symmetry_equiv_pos_as_xyz
  1  'x, y, z'
loop_
 _atom_site_type_symbol
 _atom_site_label
 _atom_site_symmetry_multiplicity
 _atom_site_fract_x
 _atom_site_fract_y
 _atom_site_fract_z
 _atom_site_occupancy
  Mn  Mn0  1  0.49887000  0.91802300  0.41590100  1
  Mn  Mn1  1  0.49111500  0.58657400  0.24438300  1
  Mn  Mn2  1  0.50414900  0.92585700  0.07158600  1
  Mn  Mn3  1  0.49581100  0.92101600  0.75286200  1
  Mn  Mn4  1  0.49930000  0.57967600  0.58535600  1
  Mn  Mn5  1  0.49262400  0.60331000  0.91982400  1
  Mn  Mn6  1  0.99887000  0.08197700  0.58409900  1
  Mn  Mn7  1  0.00414900  0.07414300  0.92841400  1
  Mn  Mn8  1  0.99581100  0.07898400  0.24713800  1
  Mn  Mn9  1  0.99262400  0.39669000  0.08017600  1
  Mn  Mn10  1  0.99930000  0.42032400  0.41464400  1
  Mn  Mn11  1  0.99111500  0.41342600  0.75561700  1
  O  O0  1  0.29046900  0.87753800  0.97227700  1
  O  O1  1  0.79046900  0.12246200  0.02772300  1
  F  F0  1  0.26459500  0.85328900  0.30547800  1
  F  F1  1  0.27147300  0.85691000  0.64226000  1
  F  F2  1  0.26723800  0.64917500  0.13190200  1
  F  F3  1  0.26903300  0.64443000  0.47429700  1
  F  F4  1  0.27756900  0.63576900  0.80696600  1
  F  F5  1  0.24448000  0.14565700  0.14074900  1
  F  F6  1  0.23188900  0.35493000  0.30511800  1
  F  F7  1  0.23065300  0.14590300  0.47388700  1
  F  F8  1  0.22782300  0.35287200  0.64478100  1
  F  F9  1  0.20979700  0.12971300  0.81697200  1
  F  F10  1  0.23311100  0.36960100  0.97368400  1
  F  F11  1  0.77756900  0.36423100  0.19303400  1
  F  F12  1  0.77147300  0.14309000  0.35774000  1
  F  F13  1  0.76903300  0.35557000  0.52570300  1
  F  F14  1  0.76723800  0.35082500  0.86809800  1
  F  F15  1  0.76459500  0.14671100  0.69452200  1
  F  F16  1  0.70979700  0.87028700  0.18302800  1
  F  F17  1  0.73065300  0.85409700  0.52611300  1
  F  F18  1  0.72782300  0.64712800  0.35521900  1
  F  F19  1  0.73311100  0.63039900  0.02631600  1
  F  F20  1  0.74448000  0.85434300  0.85925100  1
  F  F21  1  0.73188900  0.64507000  0.69488200  1
loop_
_geom_bond_atom_site_label_1
_geom_bond_atom_site_label_2
_geom_bond_distance
_geom_bond_site_symmetry_2
Mn2 O0 1.949017 1_554
Mn2 O1 1.959345 1_565
Mn5 O0 2.088587 1_555
Mn7 O1 1.949017 1_456
Mn7 O0 1.959345 1_545
Mn9 O1 2.088587 1_555
F0 Mn8 2.101168 1_465
F0 Mn0 2.169210 1_555
F0 Mn1 2.176173 1_555
F1 Mn6 2.109488 1_465
F1 Mn3 2.145257 1_555
F1 Mn4 2.195164 1_555
F2 Mn1 2.163887 1_555
F2 Mn9 2.186649 1_455
F2 Mn2 2.230162 1_555
F3 Mn10 2.116147 1_455
F3 Mn4 2.163002 1_555
F3 Mn0 2.185139 1_555
F4 Mn11 2.105069 1_455
F4 Mn5 2.124867 1_555
F4 Mn3 2.179235 1_555
F5 Mn2 2.146422 1_545
F5 Mn8 2.152724 1_455
F5 Mn9 2.165466 1_455
F6 Mn1 2.112119 1_555
F6 Mn10 2.153445 1_455
F6 Mn8 2.218084 1_455
F7 Mn0 2.113255 1_545
F7 Mn6 2.154690 1_455
F7 Mn10 2.198539 1_455
F8 Mn4 2.121578 1_555
F8 Mn11 2.176833 1_455
F8 Mn6 2.197276 1_455
F9 Mn7 2.098261 1_555
F9 Mn3 2.147319 1_545
F9 Mn11 2.222929 1_455
F10 Mn5 2.071820 1_555
F10 Mn9 2.103862 1_456
F10 Mn7 2.208837 1_555
F11 Mn1 2.105069 1_555
F11 Mn9 2.124867 1_555
F11 Mn8 2.179235 1_555
F12 Mn0 2.109488 1_545
F12 Mn8 2.145257 1_555
F12 Mn10 2.195164 1_555
F13 Mn4 2.116147 1_555
F13 Mn10 2.163002 1_555
F13 Mn6 2.185139 1_555
F14 Mn11 2.163887 1_555
F14 Mn5 2.186649 1_555
F14 Mn7 2.230162 1_655
F15 Mn3 2.101168 1_545
F15 Mn6 2.169210 1_555
F15 Mn11 2.176173 1_555
F16 Mn2 2.098261 1_555
F16 Mn8 2.147319 1_565
F16 Mn1 2.222929 1_555
F17 Mn6 2.113255 1_565
F17 Mn0 2.154690 1_555
F17 Mn4 2.198539 1_555
F18 Mn10 2.121578 1_555
F18 Mn1 2.176833 1_555
F18 Mn0 2.197276 1_555
F19 Mn9 2.071820 1_555
F19 Mn5 2.103862 1_554
F19 Mn2 2.208837 1_555
F20 Mn7 2.146422 1_665
F20 Mn3 2.152724 1_555
F20 Mn5 2.165466 1_555
F21 Mn11 2.112119 1_555
F21 Mn4 2.153445 1_555
F21 Mn3 2.218084 1_555
