# generated using pymatgen
data_Cu4OF6
_symmetry_space_group_name_H-M   'P 1'
_cell_length_a   7.66232840
_cell_length_b   7.30063195
_cell_length_c   5.51738161
_cell_angle_alpha   85.57279378
_cell_angle_beta   99.14045892
_cell_angle_gamma   121.52698604
_symmetry_Int_Tables_number   1
_chemical_formula_structural   Cu4OF6
_chemical_formula_sum   'Cu8 O2 F12'
_cell_volume   259.73710695
_cell_formula_units_Z   2
loop_
 _symmetry_equiv_pos_site_id
 _symmetry_equiv_pos_as_xyz
  1  'x, y, z'
loop_
 _atom_site_type_symbol
 _atom_site_label
 _atom_site_symmetry_multiplicity
 _atom_site_fract_x
 _atom_site_fract_y
 _atom_site_fract_z
 _atom_site_occupancy
  Cu  Cu0  1  0.13958900  0.73914800  0.50799800  1
  Cu  Cu1  1  0.13775600  0.36025700  0.53012900  1
  Cu  Cu2  1  0.30806400  0.68302700  0.99034200  1
  Cu  Cu3  1  0.60374700  0.85892000  0.56283500  1
  Cu  Cu4  1  0.39351900  0.23688500  0.00614200  1
  Cu  Cu5  1  0.76440600  0.63552500  0.03008400  1
  Cu  Cu6  1  0.62428700  0.32390800  0.48665600  1
  Cu  Cu7  1  0.74780300  0.14127700  0.06493800  1
  O  O0  1  0.33011000  0.65665700  0.65388800  1
  O  O1  1  0.67189700  0.34098300  0.15207600  1
  F  F0  1  0.16260200  0.83290000  0.86306000  1
  F  F1  1  0.09171400  0.49649400  0.22823100  1
  F  F2  1  0.15567700  0.22549800  0.83350000  1
  F  F3  1  0.45903300  0.90617800  0.26874800  1
  F  F4  1  0.47221900  0.57241200  0.15085100  1
  F  F5  1  0.32832700  0.17767000  0.36000800  1
  F  F6  1  0.76805100  0.90834500  0.89706900  1
  F  F7  1  0.59363900  0.50460500  0.72367300  1
  F  F8  1  0.55783100  0.09901300  0.76607100  1
  F  F9  1  0.92903800  0.77391200  0.32773000  1
  F  F10  1  0.90106600  0.43558100  0.64335700  1
  F  F11  1  0.85962400  0.09050600  0.39953400  1
loop_
_geom_bond_atom_site_label_1
_geom_bond_atom_site_label_2
_geom_bond_distance
_geom_bond_site_symmetry_2
Cu0 F9 1.880390 1_455
Cu0 O0 1.900784 1_555
Cu0 F0 2.075652 1_555
Cu0 F10 2.179872 1_455
Cu0 F1 2.284330 1_555
Cu1 F2 1.898012 1_555
Cu1 F1 1.952619 1_555
Cu1 O0 1.973329 1_555
Cu1 F11 2.069131 1_455
Cu1 F10 2.331912 1_455
Cu2 F4 1.901703 1_556
Cu2 O0 1.923650 1_555
Cu2 F0 1.959781 1_555
Cu2 F3 2.050048 1_556
Cu2 F1 2.092790 1_556
Cu3 F3 1.929614 1_555
Cu3 O0 1.952242 1_555
Cu3 F6 2.001474 1_555
Cu3 F11 2.091345 1_565
Cu3 F8 2.351019 1_565
Cu4 F2 1.880883 1_554
Cu4 O1 1.905041 1_555
Cu4 F5 2.049888 1_555
Cu4 F4 2.367619 1_555
Cu4 F7 2.398959 1_554
Cu4 F8 2.532527 1_554
Cu5 F9 1.890520 1_555
Cu5 F7 1.929373 1_554
Cu5 O1 1.978266 1_555
Cu5 F6 2.056489 1_554
Cu5 F4 2.239729 1_555
Cu6 F10 1.904708 1_555
Cu6 O1 1.920216 1_555
Cu6 F5 1.962267 1_555
Cu6 F7 2.047790 1_555
Cu6 F8 2.077495 1_555
Cu7 O1 1.943967 1_555
Cu7 F8 1.944064 1_554
Cu7 F11 2.000881 1_555
Cu7 F6 2.082912 1_544
Cu7 F3 2.372153 1_545
