# generated using pymatgen
data_V2Fe3Co(PO4)6
_symmetry_space_group_name_H-M   'P 1'
_cell_length_a   8.41240171
_cell_length_b   8.41240171
_cell_length_c   8.41240153
_cell_angle_alpha   61.96538498
_cell_angle_beta   61.96538498
_cell_angle_gamma   61.96538841
_symmetry_Int_Tables_number   1
_chemical_formula_structural   V2Fe3Co(PO4)6
_chemical_formula_sum   'V2 Fe3 Co1 P6 O24'
_cell_volume   439.47464322
_cell_formula_units_Z   1
loop_
 _symmetry_equiv_pos_site_id
 _symmetry_equiv_pos_as_xyz
  1  'x, y, z'
loop_
 _atom_site_type_symbol
 _atom_site_label
 _atom_site_symmetry_multiplicity
 _atom_site_fract_x
 _atom_site_fract_y
 _atom_site_fract_z
 _atom_site_occupancy
  V  V0  1  0.00176100  0.00176100  0.00176100  1
  V  V1  1  0.49978000  0.49978000  0.49978000  1
  Fe  Fe0  1  0.64700100  0.64700100  0.64700100  1
  Fe  Fe1  1  0.85414500  0.85414500  0.85414500  1
  Fe  Fe2  1  0.35321400  0.35321400  0.35321400  1
  Co  Co0  1  0.14787900  0.14787900  0.14787900  1
  P  P0  1  0.95272000  0.24931500  0.54678800  1
  P  P1  1  0.54678800  0.95272000  0.24931500  1
  P  P2  1  0.24931500  0.54678800  0.95272000  1
  P  P3  1  0.75063800  0.45236000  0.04803100  1
  P  P4  1  0.45236000  0.04803100  0.75063800  1
  P  P5  1  0.04803100  0.75063800  0.45236000  1
  O  O0  1  0.50481600  0.10763700  0.32184900  1
  O  O1  1  0.32184900  0.50481600  0.10763700  1
  O  O2  1  0.10763700  0.32184900  0.50481600  1
  O  O3  1  0.93905100  0.09490300  0.74900100  1
  O  O4  1  0.99164000  0.17660000  0.39157500  1
  O  O5  1  0.75105800  0.40525700  0.55943100  1
  O  O6  1  0.74900100  0.93905100  0.09490300  1
  O  O7  1  0.55943100  0.75105800  0.40525700  1
  O  O8  1  0.82178600  0.60814200  0.00683700  1
  O  O9  1  0.40525700  0.55943100  0.75105800  1
  O  O10  1  0.90568100  0.25088400  0.06277800  1
  O  O11  1  0.60814200  0.00683700  0.82178600  1
  O  O12  1  0.39157500  0.99164000  0.17660100  1
  O  O13  1  0.09490300  0.74900100  0.93905100  1
  O  O14  1  0.59484200  0.43874700  0.24978200  1
  O  O15  1  0.17660100  0.39157500  0.99164000  1
  O  O16  1  0.43874700  0.24978200  0.59484200  1
  O  O17  1  0.25088400  0.06277800  0.90568100  1
  O  O18  1  0.24978200  0.59484200  0.43874700  1
  O  O19  1  0.00683700  0.82178600  0.60814200  1
  O  O20  1  0.06277800  0.90568100  0.25088400  1
  O  O21  1  0.89239000  0.67891800  0.49278900  1
  O  O22  1  0.67891800  0.49278900  0.89239000  1
  O  O23  1  0.49278900  0.89239000  0.67891800  1
loop_
_geom_bond_atom_site_label_1
_geom_bond_atom_site_label_2
_geom_bond_distance
_geom_bond_site_symmetry_2
Fe0 O22 1.921631 1_555
Fe0 O21 1.921631 1_555
Fe0 O23 1.921632 1_555
Fe0 O9 2.138544 1_555
Fe0 O7 2.138544 1_555
Fe0 O5 2.138544 1_555
Fe1 O19 1.925842 1_655
Fe1 O8 1.925842 1_556
Fe1 O11 1.925842 1_565
Fe1 O3 2.115794 1_565
Fe1 O6 2.115794 1_556
Fe1 O13 2.115794 1_655
Fe2 O1 1.919229 1_555
Fe2 O2 1.919229 1_555
Fe2 O0 1.919229 1_555
Fe2 O14 2.128464 1_555
Fe2 O16 2.128464 1_555
Fe2 O18 2.128464 1_555
Co0 O4 1.903393 1_455
Co0 O15 1.903395 1_554
Co0 O12 1.903395 1_545
Co0 O20 2.131443 1_545
Co0 O17 2.131443 1_554
Co0 O10 2.131443 1_455
O0 P1 1.519152 1_545
O1 P2 1.519152 1_554
O2 P0 1.519152 1_455
O3 P0 1.572800 1_555
O3 V0 2.124436 1_656
O4 P0 1.531976 1_555
O5 P0 1.574736 1_555
O5 V1 2.096299 1_555
O6 P1 1.572801 1_555
O6 V0 2.124436 1_665
O7 P1 1.574736 1_555
O7 V1 2.096299 1_555
O8 P3 1.520257 1_555
O9 P2 1.574736 1_555
O9 V1 2.096299 1_555
O10 P3 1.570242 1_555
O10 V0 2.082726 1_655
O11 P4 1.520257 1_555
O12 P1 1.531970 1_555
O13 P2 1.572801 1_555
O13 V0 2.124436 1_566
O14 P3 1.574417 1_555
O14 V1 2.091461 1_555
O15 P2 1.531970 1_555
O16 P4 1.574417 1_555
O16 V1 2.091461 1_555
O17 P4 1.570242 1_555
O17 V0 2.082726 1_556
O18 P5 1.574417 1_555
O18 V1 2.091461 1_555
O19 P5 1.520257 1_555
O20 P5 1.570242 1_555
O20 V0 2.082726 1_565
O21 P5 1.524822 1_655
O22 P3 1.524822 1_556
O23 P4 1.524822 1_565
