# generated using pymatgen
data_Cs2BeO2
_symmetry_space_group_name_H-M   'P 1'
_cell_length_a   8.13835559
_cell_length_b   8.84880909
_cell_length_c   6.12712834
_cell_angle_alpha   90.00000000
_cell_angle_beta   90.00000000
_cell_angle_gamma   92.72648099
_symmetry_Int_Tables_number   1
_chemical_formula_structural   Cs2BeO2
_chemical_formula_sum   'Cs8 Be4 O8'
_cell_volume   440.74415630
_cell_formula_units_Z   4
loop_
 _symmetry_equiv_pos_site_id
 _symmetry_equiv_pos_as_xyz
  1  'x, y, z'
loop_
 _atom_site_type_symbol
 _atom_site_label
 _atom_site_symmetry_multiplicity
 _atom_site_fract_x
 _atom_site_fract_y
 _atom_site_fract_z
 _atom_site_occupancy
  Cs  Cs0  1  0.10681817  0.22773616  0.05059564  1
  Cs  Cs1  1  0.18076888  0.87931546  0.39755741  1
  Cs  Cs2  1  0.31923112  0.62068454  0.89755741  1
  Cs  Cs3  1  0.39318183  0.27226384  0.55059564  1
  Cs  Cs4  1  0.60681817  0.72773616  0.44940336  1
  Cs  Cs5  1  0.68076888  0.37931546  0.10244259  1
  Cs  Cs6  1  0.81923112  0.12068454  0.60244259  1
  Cs  Cs7  1  0.89318183  0.77226384  0.94940436  1
  Be  Be0  1  0.11534079  0.52082613  0.43613533  1
  Be  Be1  1  0.38465921  0.97917387  0.93613533  1
  Be  Be2  1  0.61534079  0.02082613  0.06386467  1
  Be  Be3  1  0.88465921  0.47917387  0.56386467  1
  O  O0  1  0.05030203  0.39223136  0.60202283  1
  O  O1  1  0.21168672  0.94178183  0.85884071  1
  O  O2  1  0.28831328  0.55821817  0.35884171  1
  O  O3  1  0.44969797  0.10776864  0.10202283  1
  O  O4  1  0.55030203  0.89223136  0.89797717  1
  O  O5  1  0.71168672  0.44178183  0.64115929  1
  O  O6  1  0.78831328  0.05821817  0.14115829  1
  O  O7  1  0.94969797  0.60776864  0.39797717  1
loop_
_geom_bond_atom_site_label_1
_geom_bond_atom_site_label_2
_geom_bond_distance
_geom_bond_site_symmetry_2
Cs0 O1 2.952447 1_544
Cs0 O6 2.984476 1_455
Cs0 O3 3.048738 1_555
Cs0 O0 3.154049 1_554
Cs1 O1 2.888568 1_555
Cs1 O7 2.979984 1_455
Cs1 O2 3.021927 1_555
Cs2 O2 2.888574 1_556
Cs2 O4 2.979984 1_555
Cs2 O1 3.021927 1_555
Cs3 O2 2.952445 1_555
Cs3 O5 2.984478 1_555
Cs3 O0 3.048738 1_555
Cs3 O3 3.154049 1_555
Cs4 O5 2.952450 1_555
Cs4 O2 2.984475 1_555
Cs4 O7 3.048738 1_555
Cs4 O4 3.154055 1_555
Cs5 O5 2.888568 1_554
Cs5 O3 2.979984 1_555
Cs5 O6 3.021927 1_555
Cs6 O6 2.888574 1_555
Cs6 O0 2.979984 1_655
Cs6 O5 3.021927 1_555
Cs7 O6 2.952445 1_566
Cs7 O1 2.984478 1_655
Cs7 O4 3.048738 1_555
Cs7 O7 3.154049 1_556
Be0 O2 1.507018 1_555
Be0 O0 1.597124 1_555
Be0 O7 1.600774 1_455
Be1 O1 1.507020 1_555
Be1 O3 1.597124 1_566
Be1 O4 1.600774 1_555
Be2 O6 1.507018 1_555
Be2 O4 1.597124 1_544
Be2 O3 1.600774 1_555
Be3 O5 1.507020 1_555
Be3 O7 1.597124 1_555
Be3 O0 1.600774 1_655
