# generated using pymatgen
data_Mo12PO46
_symmetry_space_group_name_H-M   'P 1'
_cell_length_a   16.87945487
_cell_length_b   16.87945487
_cell_length_c   16.87945487
_cell_angle_alpha   60.00000000
_cell_angle_beta   60.00000000
_cell_angle_gamma   60.00000000
_symmetry_Int_Tables_number   1
_chemical_formula_structural   Mo12PO46
_chemical_formula_sum   'Mo24 P2 O92'
_cell_volume   3400.63681650
_cell_formula_units_Z   2
loop_
 _symmetry_equiv_pos_site_id
 _symmetry_equiv_pos_as_xyz
  1  'x, y, z'
loop_
 _atom_site_type_symbol
 _atom_site_label
 _atom_site_symmetry_multiplicity
 _atom_site_fract_x
 _atom_site_fract_y
 _atom_site_fract_z
 _atom_site_occupancy
  Mo  Mo0  1  0.99577700  0.21895700  0.99577700  1
  Mo  Mo1  1  0.21895700  0.99577700  0.99577700  1
  Mo  Mo2  1  0.46051100  0.25422300  0.03104300  1
  Mo  Mo3  1  0.25422300  0.46051100  0.03104300  1
  Mo  Mo4  1  0.99577700  0.21895700  0.78948900  1
  Mo  Mo5  1  0.21895700  0.99577700  0.78948900  1
  Mo  Mo6  1  0.46051100  0.25422300  0.25422300  1
  Mo  Mo7  1  0.25422300  0.46051100  0.25422300  1
  Mo  Mo8  1  0.25422300  0.03104300  0.25422300  1
  Mo  Mo9  1  0.03104300  0.25422300  0.25422300  1
  Mo  Mo10  1  0.78948900  0.99577700  0.21895700  1
  Mo  Mo11  1  0.99577700  0.78948900  0.21895700  1
  Mo  Mo12  1  0.25422300  0.03104300  0.46051100  1
  Mo  Mo13  1  0.03104300  0.25422300  0.46051100  1
  Mo  Mo14  1  0.78948900  0.99577700  0.99577700  1
  Mo  Mo15  1  0.99577700  0.78948900  0.99577700  1
  Mo  Mo16  1  0.78948900  0.21895700  0.99577700  1
  Mo  Mo17  1  0.21895700  0.78948900  0.99577700  1
  Mo  Mo18  1  0.25422300  0.25422300  0.03104300  1
  Mo  Mo19  1  0.25422300  0.25422300  0.46051100  1
  Mo  Mo20  1  0.46051100  0.03104300  0.25422300  1
  Mo  Mo21  1  0.03104300  0.46051100  0.25422300  1
  Mo  Mo22  1  0.99577700  0.99577700  0.21895700  1
  Mo  Mo23  1  0.99577700  0.99577700  0.78948900  1
  P  P0  1  0.00000000  0.00000000  0.00000000  1
  P  P1  1  0.25000000  0.25000000  0.25000000  1
  O  O0  1  0.67840000  0.00750100  0.00750100  1
  O  O1  1  0.00750100  0.67840000  0.00750100  1
  O  O2  1  0.94340300  0.24249900  0.24249900  1
  O  O3  1  0.24249900  0.94340300  0.24249900  1
  O  O4  1  0.67840000  0.00750100  0.30659700  1
  O  O5  1  0.00750100  0.67840000  0.30659700  1
  O  O6  1  0.94340300  0.24249900  0.57160000  1
  O  O7  1  0.24249900  0.94340300  0.57160000  1
  O  O8  1  0.57160000  0.24249900  0.24249900  1
  O  O9  1  0.24249900  0.57160000  0.24249900  1
  O  O10  1  0.30659700  0.00750100  0.00750100  1
  O  O11  1  0.00750100  0.30659700  0.00750100  1
  O  O12  1  0.57160000  0.24249900  0.94340300  1
  O  O13  1  0.24249900  0.57160000  0.94340300  1
  O  O14  1  0.30659700  0.00750100  0.67840000  1
  O  O15  1  0.00750100  0.30659700  0.67840000  1
  O  O16  1  0.67840000  0.30659700  0.00750100  1
  O  O17  1  0.30659700  0.67840000  0.00750100  1
  O  O18  1  0.24249900  0.24249900  0.94340300  1
  O  O19  1  0.24249900  0.24249900  0.57160000  1
  O  O20  1  0.57160000  0.94340300  0.24249900  1
  O  O21  1  0.94340300  0.57160000  0.24249900  1
  O  O22  1  0.00750100  0.00750100  0.30659700  1
  O  O23  1  0.00750100  0.00750100  0.67840000  1
  O  O24  1  0.85759900  0.85759900  0.01586000  1
  O  O25  1  0.98105700  0.23414000  0.39240100  1
  O  O26  1  0.23414000  0.98105700  0.39240100  1
  O  O27  1  0.85759900  0.85759900  0.26894300  1
  O  O28  1  0.39240100  0.39240100  0.23414000  1
  O  O29  1  0.26894300  0.01586000  0.85759900  1
  O  O30  1  0.01586000  0.26894300  0.85759900  1
  O  O31  1  0.39240100  0.39240100  0.98105700  1
  O  O32  1  0.77513000  0.97149900  0.12668600  1
  O  O33  1  0.97149900  0.77513000  0.12668600  1
  O  O34  1  0.12331400  0.12331400  0.27850100  1
  O  O35  1  0.12331400  0.12331400  0.47487000  1
  O  O36  1  0.47487000  0.27850100  0.12331400  1
  O  O37  1  0.27850100  0.47487000  0.12331400  1
  O  O38  1  0.12668600  0.12668600  0.97149900  1
  O  O39  1  0.12668600  0.12668600  0.77513000  1
  O  O40  1  0.77513000  0.12668600  0.97149900  1
  O  O41  1  0.12668600  0.77513000  0.97149900  1
  O  O42  1  0.12331400  0.27850100  0.12331400  1
  O  O43  1  0.27850100  0.12331400  0.12331400  1
  O  O44  1  0.77513000  0.12668600  0.12668600  1
  O  O45  1  0.12668600  0.77513000  0.12668600  1
  O  O46  1  0.12331400  0.27850100  0.47487000  1
  O  O47  1  0.27850100  0.12331400  0.47487000  1
  O  O48  1  0.47487000  0.12331400  0.27850100  1
  O  O49  1  0.12331400  0.47487000  0.27850100  1
  O  O50  1  0.12668600  0.97149900  0.12668600  1
  O  O51  1  0.97149900  0.12668600  0.12668600  1
  O  O52  1  0.47487000  0.12331400  0.12331400  1
  O  O53  1  0.12331400  0.47487000  0.12331400  1
  O  O54  1  0.12668600  0.97149900  0.77513000  1
  O  O55  1  0.97149900  0.12668600  0.77513000  1
  O  O56  1  0.85759900  0.01586000  0.85759900  1
  O  O57  1  0.01586000  0.85759900  0.85759900  1
  O  O58  1  0.98105700  0.39240100  0.23414000  1
  O  O59  1  0.39240100  0.98105700  0.23414000  1
  O  O60  1  0.85759900  0.01586000  0.26894300  1
  O  O61  1  0.01586000  0.85759900  0.26894300  1
  O  O62  1  0.98105700  0.39240100  0.39240100  1
  O  O63  1  0.39240100  0.98105700  0.39240100  1
  O  O64  1  0.39240100  0.23414000  0.39240100  1
  O  O65  1  0.23414000  0.39240100  0.39240100  1
  O  O66  1  0.26894300  0.85759900  0.01586000  1
  O  O67  1  0.85759900  0.26894300  0.01586000  1
  O  O68  1  0.39240100  0.23414000  0.98105700  1
  O  O69  1  0.23414000  0.39240100  0.98105700  1
  O  O70  1  0.26894300  0.85759900  0.85759900  1
  O  O71  1  0.85759900  0.26894300  0.85759900  1
  O  O72  1  0.96257500  0.11227500  0.96257500  1
  O  O73  1  0.11227500  0.96257500  0.96257500  1
  O  O74  1  0.28742500  0.28742500  0.13772500  1
  O  O75  1  0.28742500  0.28742500  0.28742500  1
  O  O76  1  0.28742500  0.13772500  0.28742500  1
  O  O77  1  0.13772500  0.28742500  0.28742500  1
  O  O78  1  0.96257500  0.96257500  0.11227500  1
  O  O79  1  0.96257500  0.96257500  0.96257500  1
  O  O80  1  0.00127900  0.00127900  0.49872100  1
  O  O81  1  0.75127900  0.75127900  0.24872100  1
  O  O82  1  0.24872100  0.24872100  0.75127900  1
  O  O83  1  0.49872100  0.49872100  0.00127900  1
  O  O84  1  0.49872100  0.00127900  0.49872100  1
  O  O85  1  0.00127900  0.49872100  0.49872100  1
  O  O86  1  0.24872100  0.75127900  0.24872100  1
  O  O87  1  0.75127900  0.24872100  0.24872100  1
  O  O88  1  0.49872100  0.00127900  0.00127900  1
  O  O89  1  0.00127900  0.49872100  0.00127900  1
  O  O90  1  0.24872100  0.75127900  0.75127900  1
  O  O91  1  0.75127900  0.24872100  0.75127900  1
loop_
_geom_bond_atom_site_label_1
_geom_bond_atom_site_label_2
_geom_bond_distance
_geom_bond_site_symmetry_2
Mo0 O11 1.700400 1_656
Mo0 O38 1.941017 1_655
Mo0 O51 1.941017 1_556
Mo0 O30 1.947875 1_655
Mo0 O67 1.947875 1_556
Mo1 O10 1.700400 1_566
Mo1 O38 1.941017 1_565
Mo1 O50 1.941017 1_556
Mo1 O29 1.947875 1_565
Mo1 O66 1.947875 1_556
Mo2 O12 1.700410 1_554
Mo2 O36 1.941007 1_555
Mo2 O52 1.941018 1_555
Mo2 O31 1.947878 1_554
Mo2 O68 1.947890 1_554
Mo3 O13 1.700410 1_554
Mo3 O37 1.941007 1_555
Mo3 O53 1.941018 1_555
Mo3 O31 1.947878 1_554
Mo3 O69 1.947890 1_554
Mo4 O15 1.700410 1_655
Mo4 O55 1.941007 1_555
Mo4 O39 1.941018 1_655
Mo4 O71 1.947878 1_555
Mo4 O30 1.947890 1_655
Mo5 O14 1.700410 1_565
Mo5 O54 1.941007 1_555
Mo5 O39 1.941018 1_565
Mo5 O70 1.947878 1_555
Mo5 O29 1.947890 1_565
Mo6 O8 1.700416 1_555
Mo6 O36 1.941023 1_555
Mo6 O48 1.941023 1_555
Mo6 O64 1.947876 1_555
Mo6 O28 1.947876 1_555
Mo7 O9 1.700416 1_555
Mo7 O49 1.941023 1_555
Mo7 O37 1.941023 1_555
Mo7 O65 1.947876 1_555
Mo7 O28 1.947876 1_555
Mo8 O3 1.700400 1_545
Mo8 O43 1.941017 1_555
Mo8 O34 1.941017 1_555
Mo8 O59 1.947875 1_545
Mo8 O26 1.947875 1_545
Mo9 O2 1.700400 1_455
Mo9 O42 1.941017 1_555
Mo9 O34 1.941017 1_555
Mo9 O25 1.947875 1_455
Mo9 O58 1.947875 1_455
Mo10 O4 1.700410 1_565
Mo10 O32 1.941007 1_555
Mo10 O44 1.941018 1_565
Mo10 O27 1.947878 1_555
Mo10 O60 1.947890 1_565
Mo11 O5 1.700410 1_655
Mo11 O33 1.941007 1_555
Mo11 O45 1.941018 1_655
Mo11 O27 1.947878 1_555
Mo11 O61 1.947890 1_655
Mo12 O7 1.700410 1_545
Mo12 O47 1.941007 1_555
Mo12 O35 1.941018 1_555
Mo12 O63 1.947878 1_545
Mo12 O26 1.947890 1_545
Mo13 O6 1.700410 1_455
Mo13 O46 1.941007 1_555
Mo13 O35 1.941018 1_555
Mo13 O62 1.947878 1_455
Mo13 O25 1.947890 1_455
Mo14 O0 1.700416 1_566
Mo14 O40 1.941023 1_565
Mo14 O32 1.941023 1_556
Mo14 O56 1.947876 1_565
Mo14 O24 1.947876 1_556
Mo15 O1 1.700416 1_656
Mo15 O41 1.941023 1_655
Mo15 O33 1.941023 1_556
Mo15 O57 1.947876 1_655
Mo15 O24 1.947876 1_556
Mo16 O16 1.700410 1_556
Mo16 O40 1.941007 1_555
Mo16 O44 1.941018 1_556
Mo16 O71 1.947878 1_555
Mo16 O67 1.947890 1_556
Mo17 O17 1.700410 1_556
Mo17 O41 1.941007 1_555
Mo17 O45 1.941018 1_556
Mo17 O70 1.947878 1_555
Mo17 O66 1.947890 1_556
Mo18 O18 1.700400 1_554
Mo18 O42 1.941017 1_555
Mo18 O43 1.941017 1_555
Mo18 O69 1.947875 1_554
Mo18 O68 1.947875 1_554
Mo19 O19 1.700416 1_555
Mo19 O46 1.941023 1_555
Mo19 O47 1.941023 1_555
Mo19 O64 1.947876 1_555
Mo19 O65 1.947876 1_555
Mo20 O20 1.700410 1_545
Mo20 O48 1.941007 1_555
Mo20 O52 1.941018 1_555
Mo20 O63 1.947878 1_545
Mo20 O59 1.947890 1_545
Mo21 O21 1.700410 1_455
Mo21 O49 1.941007 1_555
Mo21 O53 1.941018 1_555
Mo21 O62 1.947878 1_455
Mo21 O58 1.947890 1_455
Mo22 O22 1.700400 1_665
Mo22 O50 1.941017 1_655
Mo22 O51 1.941017 1_565
Mo22 O60 1.947875 1_565
Mo22 O61 1.947875 1_655
Mo23 O23 1.700416 1_665
Mo23 O54 1.941023 1_655
Mo23 O55 1.941023 1_565
Mo23 O57 1.947876 1_655
Mo23 O56 1.947876 1_565
O72 P0 1.547376 1_656
O73 P0 1.547376 1_566
O74 P1 1.547376 1_555
O75 P1 1.547376 1_555
O76 P1 1.547376 1_555
O77 P1 1.547376 1_555
O78 P0 1.547376 1_665
O79 P0 1.547376 1_666
