# generated using pymatgen
data_BaLa2O4
_symmetry_space_group_name_H-M   'P 1'
_cell_length_a   3.70075545
_cell_length_b   10.74534479
_cell_length_c   12.66454589
_cell_angle_alpha   90.00000000
_cell_angle_beta   90.00000000
_cell_angle_gamma   90.00000000
_symmetry_Int_Tables_number   1
_chemical_formula_structural   BaLa2O4
_chemical_formula_sum   'Ba4 La8 O16'
_cell_volume   503.61698048
_cell_formula_units_Z   4
loop_
 _symmetry_equiv_pos_site_id
 _symmetry_equiv_pos_as_xyz
  1  'x, y, z'
loop_
 _atom_site_type_symbol
 _atom_site_label
 _atom_site_symmetry_multiplicity
 _atom_site_fract_x
 _atom_site_fract_y
 _atom_site_fract_z
 _atom_site_occupancy
  Ba  Ba0  1  0.75000000  0.24999860  0.35349506  1
  Ba  Ba1  1  0.25000000  0.25000140  0.85349506  1
  Ba  Ba2  1  0.75000000  0.74999860  0.14650494  1
  Ba  Ba3  1  0.25000000  0.75000140  0.64650494  1
  La  La0  1  0.75000000  0.07482684  0.61414735  1
  La  La1  1  0.75000000  0.08215281  0.11177048  1
  La  La2  1  0.25000000  0.41784719  0.61177048  1
  La  La3  1  0.25000000  0.42517316  0.11414735  1
  La  La4  1  0.75000000  0.57482684  0.88585265  1
  La  La5  1  0.75000000  0.58215281  0.38822952  1
  La  La6  1  0.25000000  0.91784719  0.88822952  1
  La  La7  1  0.25000000  0.92517316  0.38585265  1
  O  O0  1  0.25000000  0.01292515  0.71706260  1
  O  O1  1  0.75000000  0.06895135  0.92327342  1
  O  O2  1  0.25000000  0.12520609  0.48304781  1
  O  O3  1  0.25000000  0.21292886  0.17687173  1
  O  O4  1  0.75000000  0.28707114  0.67687173  1
  O  O5  1  0.75000000  0.37479391  0.98304781  1
  O  O6  1  0.25000000  0.43104865  0.42327342  1
  O  O7  1  0.75000000  0.48707485  0.21706260  1
  O  O8  1  0.25000000  0.51292515  0.78293740  1
  O  O9  1  0.75000000  0.56895135  0.57672658  1
  O  O10  1  0.25000000  0.62520609  0.01695219  1
  O  O11  1  0.25000000  0.71292886  0.32312827  1
  O  O12  1  0.75000000  0.78707114  0.82312827  1
  O  O13  1  0.75000000  0.87479391  0.51695219  1
  O  O14  1  0.25000000  0.93104865  0.07672658  1
  O  O15  1  0.75000000  0.98707485  0.28293740  1
loop_
_geom_bond_atom_site_label_1
_geom_bond_atom_site_label_2
_geom_bond_distance
_geom_bond_site_symmetry_2
Ba0 O2 2.813183 1_655
Ba0 O2 2.813183 1_555
Ba0 O6 2.826588 1_555
Ba0 O6 2.826588 1_655
Ba0 O3 2.930201 1_555
Ba0 O3 2.930201 1_655
Ba0 O15 2.963153 1_545
Ba0 O7 3.078160 1_555
Ba1 O5 2.813183 1_455
Ba1 O5 2.813183 1_555
Ba1 O1 2.826588 1_455
Ba1 O1 2.826588 1_555
Ba1 O4 2.930201 1_455
Ba1 O4 2.930201 1_555
Ba1 O8 2.963153 1_555
Ba1 O0 3.078160 1_555
Ba2 O10 2.813183 1_555
Ba2 O10 2.813183 1_655
Ba2 O14 2.826588 1_655
Ba2 O14 2.826588 1_555
Ba2 O11 2.930201 1_655
Ba2 O11 2.930201 1_555
Ba2 O7 2.963153 1_555
Ba2 O15 3.078160 1_555
Ba3 O13 2.813183 1_455
Ba3 O13 2.813183 1_555
Ba3 O9 2.826588 1_455
Ba3 O9 2.826588 1_555
Ba3 O12 2.930201 1_455
Ba3 O12 2.930201 1_555
Ba3 O0 2.963153 1_565
Ba3 O8 3.078160 1_555
La0 O0 2.359050 1_555
La0 O0 2.359050 1_655
La0 O4 2.415025 1_555
La0 O13 2.476936 1_545
La0 O2 2.544327 1_655
La0 O2 2.544327 1_555
La1 O1 2.391441 1_554
La1 O15 2.396436 1_545
La1 O3 2.465430 1_655
La1 O3 2.465430 1_555
La1 O14 2.501432 1_545
La1 O14 2.501432 1_645
La2 O6 2.391441 1_555
La2 O8 2.396436 1_555
La2 O4 2.465430 1_455
La2 O4 2.465430 1_555
La2 O9 2.501432 1_455
La2 O9 2.501432 1_555
La3 O7 2.359050 1_455
La3 O7 2.359050 1_555
La3 O3 2.415025 1_555
La3 O10 2.476936 1_555
La3 O5 2.544327 1_454
La3 O5 2.544327 1_554
La4 O8 2.359050 1_555
La4 O8 2.359050 1_655
La4 O12 2.415025 1_555
La4 O5 2.476936 1_555
La4 O10 2.544327 1_656
La4 O10 2.544327 1_556
La5 O9 2.391441 1_555
La5 O7 2.396436 1_555
La5 O11 2.465430 1_655
La5 O11 2.465430 1_555
La5 O6 2.501432 1_555
La5 O6 2.501432 1_655
La6 O14 2.391441 1_556
La6 O0 2.396436 1_565
La6 O12 2.465430 1_555
La6 O12 2.465430 1_455
La6 O1 2.501432 1_465
La6 O1 2.501432 1_565
La7 O15 2.359050 1_555
La7 O15 2.359050 1_455
La7 O11 2.415025 1_555
La7 O2 2.476936 1_565
La7 O13 2.544327 1_455
La7 O13 2.544327 1_555
