# generated using pymatgen
data_CrBiO4
_symmetry_space_group_name_H-M   'P 1'
_cell_length_a   7.01386107
_cell_length_b   7.04548378
_cell_length_c   7.30234300
_cell_angle_alpha   90.00275663
_cell_angle_beta   89.99664813
_cell_angle_gamma   107.01045958
_symmetry_Int_Tables_number   1
_chemical_formula_structural   CrBiO4
_chemical_formula_sum   'Cr4 Bi4 O16'
_cell_volume   345.06608357
_cell_formula_units_Z   4
loop_
 _symmetry_equiv_pos_site_id
 _symmetry_equiv_pos_as_xyz
  1  'x, y, z'
loop_
 _atom_site_type_symbol
 _atom_site_label
 _atom_site_symmetry_multiplicity
 _atom_site_fract_x
 _atom_site_fract_y
 _atom_site_fract_z
 _atom_site_occupancy
  Cr  Cr0  1  0.60349200  0.29792000  0.66386400  1
  Cr  Cr1  1  0.10349000  0.79797000  0.83616100  1
  Cr  Cr2  1  0.89652100  0.20204200  0.16386500  1
  Cr  Cr3  1  0.39650800  0.70208800  0.33611100  1
  Bi  Bi0  1  0.44099800  0.20316700  0.15166200  1
  Bi  Bi1  1  0.05903000  0.29685100  0.65166700  1
  Bi  Bi2  1  0.94097500  0.70315200  0.34835100  1
  Bi  Bi3  1  0.55902000  0.79683700  0.84831400  1
  O  O0  1  0.66071500  0.03148300  0.10476000  1
  O  O1  1  0.83928600  0.46847800  0.60474700  1
  O  O2  1  0.16072000  0.53150700  0.39523800  1
  O  O3  1  0.33930800  0.96850500  0.89524700  1
  O  O4  1  0.98001500  0.11664100  0.35256000  1
  O  O5  1  0.51997700  0.38333100  0.85257500  1
  O  O6  1  0.48000300  0.61665800  0.14742300  1
  O  O7  1  0.01996900  0.88334900  0.64744200  1
  O  O8  1  0.72213400  0.11224400  0.71235100  1
  O  O9  1  0.77788100  0.38773900  0.21235200  1
  O  O10  1  0.22210300  0.61227800  0.78766700  1
  O  O11  1  0.27784600  0.88776300  0.28762900  1
  O  O12  1  0.44474700  0.25099000  0.48510800  1
  O  O13  1  0.05525700  0.24896200  0.98508200  1
  O  O14  1  0.94475700  0.75104800  0.01494100  1
  O  O15  1  0.55524700  0.74899800  0.51488200  1
loop_
_geom_bond_atom_site_label_1
_geom_bond_atom_site_label_2
_geom_bond_distance
_geom_bond_site_symmetry_2
Cr0 O5 1.676387 1_555
Cr0 O12 1.684534 1_555
Cr0 O8 1.779367 1_555
Cr0 O1 1.789604 1_555
Cr1 O7 1.676454 1_555
Cr1 O14 1.684543 1_456
Cr1 O10 1.779293 1_555
Cr1 O3 1.789626 1_555
Cr2 O4 1.676295 1_555
Cr2 O13 1.684572 1_654
Cr2 O9 1.779443 1_555
Cr2 O0 1.789666 1_555
Cr3 O6 1.676247 1_555
Cr3 O15 1.684593 1_555
Cr3 O11 1.779450 1_555
Cr3 O2 1.789656 1_555
Bi0 O0 2.246298 1_555
Bi0 O9 2.381762 1_555
Bi0 O11 2.396997 1_545
Bi0 O12 2.457210 1_555
Bi0 O3 2.461310 1_544
Bi0 O5 2.505358 1_554
Bi1 O1 2.246227 1_455
Bi1 O8 2.381865 1_455
Bi1 O10 2.397078 1_555
Bi1 O13 2.457072 1_555
Bi1 O2 2.461420 1_555
Bi1 O4 2.505597 1_455
Bi2 O2 2.246290 1_655
Bi2 O11 2.381778 1_655
Bi2 O9 2.397027 1_555
Bi2 O14 2.457041 1_555
Bi2 O1 2.461311 1_555
Bi2 O7 2.505444 1_655
Bi3 O3 2.246220 1_555
Bi3 O10 2.381879 1_555
Bi3 O8 2.396947 1_565
Bi3 O15 2.457119 1_555
Bi3 O0 2.461419 1_566
Bi3 O6 2.505564 1_556
