# generated using pymatgen
data_V(SbO3)4
_symmetry_space_group_name_H-M   'P 1'
_cell_length_a   5.49979710
_cell_length_b   17.12036120
_cell_length_c   9.17506394
_cell_angle_alpha   96.86232795
_cell_angle_beta   85.50768490
_cell_angle_gamma   88.81542613
_symmetry_Int_Tables_number   1
_chemical_formula_structural   V(SbO3)4
_chemical_formula_sum   'V4 Sb16 O48'
_cell_volume   854.69267626
_cell_formula_units_Z   4
loop_
 _symmetry_equiv_pos_site_id
 _symmetry_equiv_pos_as_xyz
  1  'x, y, z'
loop_
 _atom_site_type_symbol
 _atom_site_label
 _atom_site_symmetry_multiplicity
 _atom_site_fract_x
 _atom_site_fract_y
 _atom_site_fract_z
 _atom_site_occupancy
  V  V0  1  0.59671800  0.56727200  0.71007500  1
  V  V1  1  0.59657200  0.81773200  0.45933200  1
  V  V2  1  0.59702900  0.31743900  0.96098600  1
  V  V3  1  0.59601100  0.06736800  0.21143400  1
  Sb  Sb0  1  0.99181600  0.99400500  0.97608800  1
  Sb  Sb1  1  0.99346000  0.24345400  0.72657500  1
  Sb  Sb2  1  0.99385600  0.49338900  0.47629100  1
  Sb  Sb3  1  0.99304100  0.74349600  0.22529600  1
  Sb  Sb4  1  0.46066400  0.50062100  0.01107500  1
  Sb  Sb5  1  0.46044400  0.75049800  0.75973700  1
  Sb  Sb6  1  0.46035000  0.00091200  0.51210600  1
  Sb  Sb7  1  0.46109300  0.25064600  0.26185200  1
  Sb  Sb8  1  0.99094000  0.87274800  0.62950000  1
  Sb  Sb9  1  0.99135000  0.12258400  0.38010200  1
  Sb  Sb10  1  0.99174900  0.37236900  0.13017400  1
  Sb  Sb11  1  0.99150500  0.62239400  0.87923800  1
  Sb  Sb12  1  0.46731000  0.62107600  0.35496500  1
  Sb  Sb13  1  0.46650300  0.87108300  0.10410500  1
  Sb  Sb14  1  0.46688400  0.12122500  0.85594600  1
  Sb  Sb15  1  0.46769000  0.37093100  0.60574400  1
  O  O0  1  0.75200600  0.42203200  0.99140900  1
  O  O1  1  0.75185500  0.67188900  0.74004400  1
  O  O2  1  0.75156100  0.92235000  0.49057100  1
  O  O3  1  0.75204700  0.17211700  0.24163200  1
  O  O4  1  0.98336900  0.46956300  0.26068700  1
  O  O5  1  0.98239000  0.71960100  0.00965700  1
  O  O6  1  0.98214300  0.96983600  0.76023200  1
  O  O7  1  0.98449600  0.21971400  0.51078600  1
  O  O8  1  0.16251400  0.59381300  0.46290800  1
  O  O9  1  0.16208400  0.84380900  0.21212800  1
  O  O10  1  0.16060900  0.09435000  0.96295300  1
  O  O11  1  0.16255600  0.34383900  0.71346600  1
  O  O12  1  0.29777300  0.39504700  0.00832500  1
  O  O13  1  0.29753000  0.64491600  0.75718100  1
  O  O14  1  0.29715300  0.89533000  0.50788400  1
  O  O15  1  0.29772500  0.14511000  0.25834500  1
  O  O16  1  0.30076400  0.68697600  0.23237500  1
  O  O17  1  0.29922000  0.93726100  0.98259000  1
  O  O18  1  0.30124500  0.18693300  0.73295900  1
  O  O19  1  0.30157700  0.43681000  0.48299400  1
  O  O20  1  0.48773600  0.52321300  0.21865900  1
  O  O21  1  0.48699900  0.77335500  0.96733600  1
  O  O22  1  0.48687200  0.02311600  0.71984100  1
  O  O23  1  0.48844000  0.27301600  0.46949700  1
  O  O24  1  0.46297500  0.72751900  0.52034500  1
  O  O25  1  0.46313000  0.97740100  0.27163900  1
  O  O26  1  0.46369500  0.22732300  0.02182300  1
  O  O27  1  0.46346300  0.47722600  0.77146600  1
  O  O28  1  0.65592600  0.56229000  0.50146100  1
  O  O29  1  0.65544300  0.81248800  0.25064200  1
  O  O30  1  0.65420200  0.06260300  0.00251100  1
  O  O31  1  0.65598700  0.31231800  0.75229600  1
  O  O32  1  0.64720100  0.83750600  0.68502700  1
  O  O33  1  0.64747400  0.08759300  0.43689800  1
  O  O34  1  0.64789600  0.33746000  0.18662400  1
  O  O35  1  0.64752000  0.58744800  0.93557400  1
  O  O36  1  0.78755000  0.65439100  0.27310200  1
  O  O37  1  0.78613900  0.90468600  0.02266700  1
  O  O38  1  0.78730600  0.15430800  0.77368500  1
  O  O39  1  0.78789500  0.40429900  0.52382000  1
  O  O40  1  0.93247800  0.78506400  0.45380600  1
  O  O41  1  0.93263800  0.03476000  0.20517800  1
  O  O42  1  0.93337200  0.28462700  0.95535900  1
  O  O43  1  0.93313300  0.53444500  0.70481000  1
  O  O44  1  0.14034800  0.80194100  0.75003900  1
  O  O45  1  0.14072600  0.05217500  0.50150100  1
  O  O46  1  0.14134400  0.30200300  0.25154400  1
  O  O47  1  0.14090300  0.55217500  0.00099200  1
loop_
_geom_bond_atom_site_label_1
_geom_bond_atom_site_label_2
_geom_bond_distance
_geom_bond_site_symmetry_2
O0 V2 1.997957 1_555
O0 Sb4 2.053739 1_556
O0 Sb10 2.134890 1_556
O1 V0 1.998453 1_555
O1 Sb5 2.054230 1_555
O1 Sb11 2.135970 1_555
O2 V1 1.998875 1_555
O2 Sb6 2.052090 1_565
O2 Sb8 2.134143 1_555
O3 V3 2.002855 1_555
O3 Sb7 2.051217 1_555
O3 Sb9 2.130412 1_555
O4 Sb10 1.927940 1_555
O4 Sb2 1.977102 1_555
O5 Sb11 1.927503 1_554
O5 Sb3 1.977621 1_555
O6 Sb8 1.927452 1_555
O6 Sb0 1.979389 1_555
O7 Sb9 1.928263 1_555
O7 Sb1 1.977716 1_555
O8 Sb12 1.972688 1_555
O8 Sb2 1.982426 1_455
O9 Sb13 1.971398 1_555
O9 Sb3 1.981513 1_455
O10 Sb14 1.973303 1_555
O10 Sb0 1.981295 1_445
O11 Sb15 1.972349 1_555
O11 Sb1 1.982673 1_455
O12 Sb10 2.017254 1_455
O12 Sb4 2.032176 1_555
O12 V2 2.079072 1_554
O13 Sb11 2.017501 1_455
O13 Sb5 2.032463 1_555
O13 V0 2.079006 1_555
O14 Sb8 2.016535 1_455
O14 Sb6 2.032318 1_565
O14 V1 2.080467 1_555
O15 Sb9 2.017642 1_455
O15 Sb7 2.032402 1_555
O15 V3 2.076110 1_555
O16 Sb3 1.941480 1_455
O16 Sb12 1.949084 1_555
O17 Sb0 1.940979 1_455
O17 Sb13 1.947453 1_556
O18 Sb1 1.940765 1_455
O18 Sb14 1.946975 1_555
O19 Sb2 1.941406 1_455
O19 Sb15 1.948661 1_555
O20 Sb4 1.915730 1_555
O20 Sb12 1.962978 1_555
O21 Sb5 1.915802 1_555
O21 Sb13 1.963441 1_556
O22 Sb6 1.916051 1_555
O22 Sb14 1.965299 1_555
O23 Sb7 1.916200 1_555
O23 Sb15 1.963364 1_555
O24 V1 1.851420 1_555
O24 Sb5 2.183527 1_555
O24 Sb12 2.226133 1_555
O25 V3 1.843440 1_565
O25 Sb6 2.193685 1_565
O25 Sb13 2.236469 1_555
O26 V2 1.848797 1_554
O26 Sb7 2.189606 1_555
O26 Sb14 2.224837 1_554
O27 V0 1.849465 1_555
O27 Sb4 2.185811 1_556
O27 Sb15 2.226134 1_555
O28 V0 1.907640 1_555
O28 Sb12 2.096226 1_555
O28 Sb2 2.162412 1_555
O29 V1 1.907810 1_555
O29 Sb13 2.095673 1_555
O29 Sb3 2.161641 1_555
O30 V3 1.910227 1_555
O30 Sb14 2.091346 1_554
O30 Sb0 2.158023 1_544
O31 V2 1.908015 1_555
O31 Sb15 2.094049 1_555
O31 Sb1 2.159852 1_555
O32 Sb5 1.985135 1_555
O32 Sb8 2.041397 1_555
O32 V1 2.099265 1_555
O33 Sb6 1.983478 1_555
O33 Sb9 2.043111 1_555
O33 V3 2.098548 1_555
O34 Sb7 1.984480 1_555
O34 Sb10 2.041826 1_555
O34 V2 2.099233 1_554
O35 Sb4 1.985801 1_556
O35 Sb11 2.042480 1_555
O35 V0 2.098040 1_555
O36 Sb12 1.981959 1_555
O36 Sb3 1.987551 1_555
O37 Sb13 1.979488 1_555
O37 Sb0 1.988101 1_554
O38 Sb14 1.982691 1_555
O38 Sb1 1.988488 1_555
O39 Sb15 1.982305 1_555
O39 Sb2 1.988133 1_555
O40 V1 1.914196 1_555
O40 Sb8 2.116212 1_555
O40 Sb3 2.130108 1_555
O41 V3 1.917165 1_555
O41 Sb9 2.113158 1_555
O41 Sb0 2.131618 1_544
O42 V2 1.917082 1_555
O42 Sb10 2.111178 1_556
O42 Sb1 2.130834 1_555
O43 V0 1.917811 1_555
O43 Sb11 2.110951 1_555
O43 Sb2 2.128396 1_555
O44 Sb8 1.946646 1_455
O44 Sb5 1.965192 1_555
O45 Sb9 1.947275 1_455
O45 Sb6 1.962965 1_555
O46 Sb10 1.947142 1_455
O46 Sb7 1.963806 1_555
O47 Sb11 1.947339 1_454
O47 Sb4 1.964981 1_555
