# generated using pymatgen
data_Gd2TiO5
_symmetry_space_group_name_H-M   'P 1'
_cell_length_a   7.14881600
_cell_length_b   6.91970000
_cell_length_c   9.57997671
_cell_angle_alpha   76.47442481
_cell_angle_beta   90.00000000
_cell_angle_gamma   90.00000000
_symmetry_Int_Tables_number   1
_chemical_formula_structural   Gd2TiO5
_chemical_formula_sum   'Gd8 Ti4 O20'
_cell_volume   460.75575445
_cell_formula_units_Z   4
loop_
 _symmetry_equiv_pos_site_id
 _symmetry_equiv_pos_as_xyz
  1  'x, y, z'
loop_
 _atom_site_type_symbol
 _atom_site_label
 _atom_site_symmetry_multiplicity
 _atom_site_fract_x
 _atom_site_fract_y
 _atom_site_fract_z
 _atom_site_occupancy
  Gd  Gd0  1  0.87334700  0.26971600  0.02921700  1
  Gd  Gd1  1  0.62665300  0.76971600  0.02921700  1
  Gd  Gd2  1  0.86006800  0.46971300  0.36061800  1
  Gd  Gd3  1  0.63993200  0.96971300  0.36061800  1
  Gd  Gd4  1  0.36006800  0.03028700  0.63938200  1
  Gd  Gd5  1  0.13993200  0.53028700  0.63938200  1
  Gd  Gd6  1  0.37334700  0.23028400  0.97078300  1
  Gd  Gd7  1  0.12665300  0.73028400  0.97078300  1
  Ti  Ti0  1  0.40508900  0.48000400  0.29914300  1
  Ti  Ti1  1  0.09491100  0.98000400  0.29914300  1
  Ti  Ti2  1  0.90508900  0.01999600  0.70085700  1
  Ti  Ti3  1  0.59491100  0.51999600  0.70085700  1
  O  O0  1  0.13885400  0.01300000  0.10405900  1
  O  O1  1  0.61428600  0.07153900  0.10936500  1
  O  O2  1  0.36114600  0.51300000  0.10405900  1
  O  O3  1  0.88571400  0.57153900  0.10936500  1
  O  O4  1  0.91880700  0.18167500  0.28082900  1
  O  O5  1  0.30532900  0.01112400  0.39613400  1
  O  O6  1  0.58119300  0.68167500  0.28082900  1
  O  O7  1  0.57132000  0.28962200  0.38414100  1
  O  O8  1  0.19467100  0.51112400  0.39613400  1
  O  O9  1  0.92868000  0.78962200  0.38414100  1
  O  O10  1  0.07132000  0.21037800  0.61585900  1
  O  O11  1  0.80532900  0.48887600  0.60386600  1
  O  O12  1  0.42868000  0.71037800  0.61585900  1
  O  O13  1  0.41880700  0.31832500  0.71917100  1
  O  O14  1  0.69467100  0.98887600  0.60386600  1
  O  O15  1  0.08119300  0.81832500  0.71917100  1
  O  O16  1  0.11428600  0.42846100  0.89063500  1
  O  O17  1  0.63885400  0.48700000  0.89594100  1
  O  O18  1  0.38571400  0.92846100  0.89063500  1
  O  O19  1  0.86114600  0.98700000  0.89594100  1
loop_
_geom_bond_atom_site_label_1
_geom_bond_atom_site_label_2
_geom_bond_distance
_geom_bond_site_symmetry_2
Gd0 O16 2.292116 1_654
Gd0 O1 2.325379 1_555
Gd0 O4 2.366447 1_555
Gd0 O3 2.389433 1_555
Gd0 O17 2.408940 1_554
Gd0 O19 2.575516 1_544
Gd0 O0 2.583898 1_655
Gd1 O18 2.292116 1_554
Gd1 O3 2.325379 1_555
Gd1 O6 2.366447 1_555
Gd1 O1 2.389433 1_565
Gd1 O19 2.408940 1_554
Gd1 O17 2.575516 1_554
Gd1 O2 2.583898 1_555
Gd2 O9 2.329177 1_555
Gd2 O4 2.333630 1_555
Gd2 O3 2.351682 1_555
Gd2 O7 2.394436 1_555
Gd2 O11 2.396998 1_555
Gd2 O8 2.442380 1_655
Gd2 O6 2.487097 1_555
Gd3 O7 2.329177 1_565
Gd3 O6 2.333630 1_555
Gd3 O1 2.351682 1_565
Gd3 O9 2.394436 1_555
Gd3 O14 2.396998 1_555
Gd3 O5 2.442380 1_565
Gd3 O4 2.487097 1_565
Gd4 O12 2.329177 1_545
Gd4 O13 2.333630 1_555
Gd4 O18 2.351682 1_545
Gd4 O10 2.394436 1_555
Gd4 O5 2.396998 1_555
Gd4 O14 2.442380 1_545
Gd4 O15 2.487097 1_545
Gd5 O10 2.329177 1_555
Gd5 O15 2.333630 1_555
Gd5 O16 2.351682 1_555
Gd5 O12 2.394436 1_555
Gd5 O8 2.396998 1_555
Gd5 O11 2.442380 1_455
Gd5 O13 2.487097 1_555
Gd6 O1 2.292116 1_556
Gd6 O16 2.325379 1_555
Gd6 O13 2.366447 1_555
Gd6 O18 2.389433 1_545
Gd6 O0 2.408940 1_556
Gd6 O2 2.575516 1_556
Gd6 O17 2.583898 1_555
Gd7 O3 2.292116 1_456
Gd7 O18 2.325379 1_555
Gd7 O15 2.366447 1_555
Gd7 O16 2.389433 1_555
Gd7 O2 2.408940 1_556
Gd7 O0 2.575516 1_566
Gd7 O19 2.583898 1_455
O0 Ti1 1.855803 1_545
O2 Ti0 1.855803 1_555
O4 Ti1 1.857041 1_645
O5 Ti1 1.807225 1_545
O6 Ti0 1.857041 1_555
O7 Ti0 1.819057 1_555
O8 Ti0 1.807225 1_555
O9 Ti1 1.819057 1_655
O10 Ti2 1.819057 1_455
O11 Ti3 1.807225 1_555
O12 Ti3 1.819057 1_555
O13 Ti3 1.857041 1_555
O14 Ti2 1.807225 1_565
O15 Ti2 1.857041 1_465
O17 Ti3 1.855803 1_555
O19 Ti2 1.855803 1_565
