# generated using pymatgen
data_Mn3Co5O16
_symmetry_space_group_name_H-M   'P 1'
_cell_length_a   5.66822795
_cell_length_b   5.69578788
_cell_length_c   8.61146664
_cell_angle_alpha   89.99840078
_cell_angle_beta   90.65084888
_cell_angle_gamma   120.15687719
_symmetry_Int_Tables_number   1
_chemical_formula_structural   Mn3Co5O16
_chemical_formula_sum   'Mn3 Co5 O16'
_cell_volume   240.37139105
_cell_formula_units_Z   1
loop_
 _symmetry_equiv_pos_site_id
 _symmetry_equiv_pos_as_xyz
  1  'x, y, z'
loop_
 _atom_site_type_symbol
 _atom_site_label
 _atom_site_symmetry_multiplicity
 _atom_site_fract_x
 _atom_site_fract_y
 _atom_site_fract_z
 _atom_site_occupancy
  Mn  Mn0  1  0.66506100  0.83253300  0.21088600  1
  Mn  Mn1  1  0.83268900  0.66465600  0.71059200  1
  Mn  Mn2  1  0.83265800  0.16803100  0.71058600  1
  Co  Co0  1  0.16750800  0.83141800  0.20681900  1
  Co  Co1  1  0.33578000  0.66790100  0.48359100  1
  Co  Co2  1  0.16751100  0.33612200  0.20683300  1
  Co  Co3  1  0.33476500  0.16740400  0.70565600  1
  Co  Co4  1  0.66654500  0.33327900  0.98615600  1
  O  O0  1  0.17250800  0.83725900  0.60134500  1
  O  O1  1  0.04586800  0.52297100  0.33745100  1
  O  O2  1  0.32859700  0.66428400  0.09679100  1
  O  O3  1  0.00698100  0.00351300  0.31856800  1
  O  O4  1  0.00403100  0.00202600  0.82010000  1
  O  O5  1  0.17248700  0.33527400  0.60133900  1
  O  O6  1  0.47400100  0.95823600  0.34230300  1
  O  O7  1  0.47402100  0.51577200  0.34231100  1
  O  O8  1  0.33364800  0.16682000  0.10433400  1
  O  O9  1  0.65709800  0.82855400  0.59878900  1
  O  O10  1  0.51563800  0.47244800  0.84223200  1
  O  O11  1  0.51566100  0.04323000  0.84224800  1
  O  O12  1  0.66586000  0.33295400  0.59587900  1
  O  O13  1  0.83585100  0.66304700  0.10221600  1
  O  O14  1  0.95937100  0.47965900  0.84646800  1
  O  O15  1  0.83586000  0.17280800  0.10222500  1
loop_
_geom_bond_atom_site_label_1
_geom_bond_atom_site_label_2
_geom_bond_distance
_geom_bond_site_symmetry_2
Mn0 O3 1.904548 1_665
Mn0 O2 1.908436 1_555
Mn0 O13 1.924687 1_555
Mn0 O15 1.924696 1_565
Mn0 O6 1.942454 1_555
Mn0 O7 1.942522 1_555
Mn1 O12 1.903513 1_555
Mn1 O4 1.905054 1_665
Mn1 O0 1.923592 1_655
Mn1 O9 1.923734 1_555
Mn1 O14 1.932892 1_555
Mn1 O10 1.944915 1_555
Mn2 O12 1.903441 1_555
Mn2 O4 1.904983 1_655
Mn2 O5 1.923633 1_655
Mn2 O9 1.923788 1_545
Mn2 O14 1.932807 1_555
Mn2 O11 1.944807 1_555
Co0 O13 1.848067 1_455
Co0 O8 1.877895 1_565
Co0 O2 1.879034 1_555
Co0 O6 1.895856 1_555
Co0 O1 1.904687 1_555
Co0 O3 1.905489 1_565
Co1 O9 1.850161 1_555
Co1 O6 1.883785 1_555
Co1 O7 1.883852 1_555
Co1 O1 1.885664 1_555
Co1 O0 1.932249 1_555
Co1 O5 1.932251 1_555
Co2 O15 1.848058 1_455
Co2 O8 1.878063 1_555
Co2 O2 1.878880 1_555
Co2 O7 1.895897 1_555
Co2 O1 1.904787 1_555
Co2 O3 1.905416 1_555
Co3 O5 1.852603 1_555
Co3 O0 1.852693 1_545
Co3 O12 1.888683 1_555
Co3 O10 1.906861 1_555
Co3 O11 1.906926 1_555
Co3 O4 1.908049 1_555
Co4 O14 1.884672 1_555
Co4 O11 1.884921 1_555
Co4 O10 1.884998 1_555
Co4 O15 1.901320 1_556
Co4 O13 1.901332 1_556
Co4 O8 1.934217 1_556
