# generated using pymatgen
data_TiB
_symmetry_space_group_name_H-M   'P 1'
_cell_length_a   3.05025322
_cell_length_b   4.55886905
_cell_length_c   6.10636486
_cell_angle_alpha   90.00000000
_cell_angle_beta   90.00000000
_cell_angle_gamma   90.00000000
_symmetry_Int_Tables_number   1
_chemical_formula_structural   TiB
_chemical_formula_sum   'Ti4 B4'
_cell_volume   84.91330836
_cell_formula_units_Z   4
loop_
 _symmetry_equiv_pos_site_id
 _symmetry_equiv_pos_as_xyz
  1  'x, y, z'
loop_
 _atom_site_type_symbol
 _atom_site_label
 _atom_site_symmetry_multiplicity
 _atom_site_fract_x
 _atom_site_fract_y
 _atom_site_fract_z
 _atom_site_occupancy
  Ti  Ti0  1  0.25000000  0.37778451  0.67751137  1
  Ti  Ti1  1  0.75000000  0.62221549  0.32248863  1
  Ti  Ti2  1  0.75000000  0.87778451  0.82248863  1
  Ti  Ti3  1  0.25000000  0.12221549  0.17751137  1
  B  B0  1  0.25000000  0.90041404  0.53001188  1
  B  B1  1  0.75000000  0.09958596  0.46998812  1
  B  B2  1  0.75000000  0.40041404  0.96998812  1
  B  B3  1  0.25000000  0.59958596  0.03001188  1
loop_
_geom_bond_atom_site_label_1
_geom_bond_atom_site_label_2
_geom_bond_distance
_geom_bond_site_symmetry_2
B0 B1 1.812406 1_465
B0 B1 1.812406 1_565
B0 Ti2 2.350817 1_455
B0 Ti2 2.350817 1_555
B0 Ti1 2.353795 1_455
B0 Ti1 2.353795 1_555
B0 Ti0 2.355288 1_565
B0 Ti3 2.378170 1_565
B0 Ti0 2.547158 1_555
B1 Ti3 2.350817 1_555
B1 Ti3 2.350817 1_655
B1 Ti0 2.353795 1_555
B1 Ti0 2.353795 1_655
B1 Ti1 2.355288 1_545
B1 Ti2 2.378170 1_545
B1 Ti1 2.547158 1_555
B2 B3 1.812406 1_556
B2 B3 1.812406 1_656
B2 Ti0 2.350817 1_655
B2 Ti0 2.350817 1_555
B2 Ti3 2.353795 1_556
B2 Ti3 2.353795 1_656
B2 Ti2 2.355288 1_555
B2 Ti1 2.378170 1_556
B2 Ti2 2.547158 1_545
B3 Ti1 2.350817 1_455
B3 Ti1 2.350817 1_555
B3 Ti2 2.353795 1_554
B3 Ti2 2.353795 1_454
B3 Ti3 2.355288 1_555
B3 Ti0 2.378170 1_554
B3 Ti3 2.547158 1_565
