# generated using pymatgen
data_Li4Nb2Co3Sn3O16
_symmetry_space_group_name_H-M   'P 1'
_cell_length_a   6.17821518
_cell_length_b   11.65675609
_cell_length_c   10.67562019
_cell_angle_alpha   62.79311432
_cell_angle_beta   90.22141135
_cell_angle_gamma   105.28796250
_symmetry_Int_Tables_number   1
_chemical_formula_structural   Li4Nb2Co3Sn3O16
_chemical_formula_sum   'Li8 Nb4 Co6 Sn6 O32'
_cell_volume   653.44679733
_cell_formula_units_Z   2
loop_
 _symmetry_equiv_pos_site_id
 _symmetry_equiv_pos_as_xyz
  1  'x, y, z'
loop_
 _atom_site_type_symbol
 _atom_site_label
 _atom_site_symmetry_multiplicity
 _atom_site_fract_x
 _atom_site_fract_y
 _atom_site_fract_z
 _atom_site_occupancy
  Li  Li0  1  0.96312200  0.90144200  0.71207000  1
  Li  Li1  1  0.46312600  0.90140200  0.21189700  1
  Li  Li2  1  0.47557900  0.98372900  0.51358200  1
  Li  Li3  1  0.97549700  0.98338000  0.01386300  1
  Li  Li4  1  0.24123800  0.49749400  0.75305000  1
  Li  Li5  1  0.74179700  0.49756300  0.25334200  1
  Li  Li6  1  0.19887600  0.40567000  0.13161000  1
  Li  Li7  1  0.69902100  0.40569700  0.63169200  1
  Nb  Nb0  1  0.76303100  0.49777900  0.91295500  1
  Nb  Nb1  1  0.26290500  0.49776000  0.41293600  1
  Nb  Nb2  1  0.51544500  0.97851900  0.83555400  1
  Nb  Nb3  1  0.01596000  0.97816400  0.33568600  1
  Co  Co0  1  0.84866500  0.21389400  0.97905700  1
  Co  Co1  1  0.36228300  0.71170500  0.81362500  1
  Co  Co2  1  0.86248500  0.71186700  0.31368700  1
  Co  Co3  1  0.34854600  0.21391000  0.47895300  1
  Co  Co4  1  0.60474400  0.71171400  0.05623300  1
  Co  Co5  1  0.10442900  0.71256000  0.55595800  1
  Sn  Sn0  1  0.11641000  0.71611100  0.05569800  1
  Sn  Sn1  1  0.61604300  0.71611900  0.55582800  1
  Sn  Sn2  1  0.35906800  0.21437600  0.97728900  1
  Sn  Sn3  1  0.85899100  0.21437000  0.47723500  1
  Sn  Sn4  1  0.60721400  0.21443700  0.22454500  1
  Sn  Sn5  1  0.10699100  0.21441100  0.72447900  1
  O  O0  1  0.43873500  0.33999700  0.07388500  1
  O  O1  1  0.93874900  0.33999900  0.57388700  1
  O  O2  1  0.54625300  0.10234900  0.11711200  1
  O  O3  1  0.04618600  0.10234300  0.61703100  1
  O  O4  1  0.15013000  0.31174800  0.84598500  1
  O  O5  1  0.65012800  0.31182200  0.34599200  1
  O  O6  1  0.39979700  0.79938500  0.60012400  1
  O  O7  1  0.89992800  0.79884100  0.10041500  1
  O  O8  1  0.78551100  0.09503700  0.37321200  1
  O  O9  1  0.28563600  0.09500500  0.87316300  1
  O  O10  1  0.03784500  0.58669900  0.79177600  1
  O  O11  1  0.53797600  0.58720300  0.29164000  1
  O  O12  1  0.30652300  0.60977200  0.02794400  1
  O  O13  1  0.80682700  0.60973300  0.52822100  1
  O  O14  1  0.65879500  0.85575300  0.82875100  1
  O  O15  1  0.15853500  0.85580700  0.32781500  1
  O  O16  1  0.55442500  0.58830800  0.78759100  1
  O  O17  1  0.05415300  0.58797700  0.28821200  1
  O  O18  1  0.80094700  0.58794900  0.03472900  1
  O  O19  1  0.30093700  0.58763500  0.53508600  1
  O  O20  1  0.66455200  0.34679100  0.84873600  1
  O  O21  1  0.16451800  0.34688400  0.34873500  1
  O  O22  1  0.88614100  0.34672100  0.06964500  1
  O  O23  1  0.38621400  0.34659900  0.56959400  1
  O  O24  1  0.20617500  0.85294700  0.83550300  1
  O  O25  1  0.70601600  0.85280100  0.33596200  1
  O  O26  1  0.42307500  0.85297400  0.05279100  1
  O  O27  1  0.92359300  0.85295900  0.55295800  1
  O  O28  1  0.04635100  0.09231400  0.12328800  1
  O  O29  1  0.54640100  0.09226400  0.62326600  1
  O  O30  1  0.29249900  0.09247200  0.36903600  1
  O  O31  1  0.79252100  0.09250700  0.86895800  1
loop_
_geom_bond_atom_site_label_1
_geom_bond_atom_site_label_2
_geom_bond_distance
_geom_bond_site_symmetry_2
Li0 O3 1.993649 1_665
Li0 O24 2.015455 1_655
Li0 O27 2.016476 1_555
Li0 O14 2.062480 1_555
Li1 O2 1.994174 1_565
Li1 O26 2.016153 1_555
Li1 O25 2.018387 1_555
Li1 O15 2.060170 1_555
Li2 O6 1.829689 1_555
Li2 O30 2.054600 1_565
Li2 O29 2.054743 1_565
Li2 O8 2.128321 1_565
Li3 O7 1.831747 1_555
Li3 O28 2.056219 1_665
Li3 O31 2.057809 1_564
Li3 O9 2.130968 1_664
Li4 O4 1.840260 1_555
Li4 O10 1.979248 1_555
Li4 O19 2.054536 1_555
Li4 O16 2.066845 1_555
Li5 O5 1.840201 1_555
Li5 O11 1.983235 1_555
Li5 O18 2.060453 1_555
Li5 O17 2.062558 1_655
Li6 O12 2.022658 1_555
Li6 O0 2.049028 1_555
Li6 O22 2.085330 1_455
Li6 O21 2.088579 1_555
Li7 O13 2.022012 1_555
Li7 O1 2.048972 1_555
Li7 O23 2.086763 1_555
Li7 O20 2.087474 1_555
Nb0 O10 1.869078 1_655
Nb0 O18 1.991728 1_556
Nb0 O16 1.994552 1_555
Nb0 O20 2.115027 1_555
Nb0 O22 2.116669 1_556
Nb0 O0 2.354277 1_556
Nb1 O11 1.870843 1_555
Nb1 O17 1.990921 1_555
Nb1 O19 1.992567 1_555
Nb1 O21 2.113673 1_555
Nb1 O23 2.117917 1_555
Nb1 O1 2.353746 1_455
Nb2 O14 1.897748 1_555
Nb2 O31 2.012999 1_565
Nb2 O29 2.013120 1_565
Nb2 O26 2.076566 1_556
Nb2 O24 2.078301 1_555
Nb2 O9 2.353803 1_565
Nb3 O15 1.894717 1_555
Nb3 O30 2.012418 1_565
Nb3 O28 2.014918 1_565
Nb3 O27 2.076384 1_455
Nb3 O25 2.079129 1_455
Nb3 O8 2.360077 1_465
Co0 O4 2.051002 1_655
Co0 O2 2.083619 1_556
Co0 O22 2.136496 1_556
Co0 O20 2.139057 1_555
Co0 O31 2.182383 1_555
Co0 O28 2.184929 1_656
Co1 O6 2.010558 1_555
Co1 O12 2.017355 1_556
Co1 O16 2.196364 1_555
Co1 O14 2.196591 1_555
Co1 O24 2.210477 1_555
Co1 O10 2.227659 1_555
Co2 O7 2.008705 1_555
Co2 O13 2.019389 1_555
Co2 O15 2.189605 1_655
Co2 O17 2.196643 1_655
Co2 O25 2.210530 1_555
Co2 O11 2.226974 1_555
Co3 O5 2.051031 1_555
Co3 O3 2.083504 1_555
Co3 O23 2.135388 1_555
Co3 O21 2.138839 1_555
Co3 O30 2.181278 1_555
Co3 O29 2.186408 1_555
Co4 O7 2.008612 1_555
Co4 O12 2.016750 1_555
Co4 O14 2.193255 1_554
Co4 O18 2.197884 1_555
Co4 O26 2.211669 1_555
Co4 O11 2.224728 1_555
Co5 O6 2.008102 1_555
Co5 O13 2.015733 1_455
Co5 O15 2.196607 1_555
Co5 O27 2.200848 1_455
Co5 O19 2.208008 1_555
Co5 O10 2.229771 1_555
O0 Sn2 2.108734 1_554
O0 Sn4 2.109608 1_555
O1 Sn5 2.108455 1_655
O1 Sn3 2.109323 1_555
O2 Sn2 2.066757 1_554
O2 Sn4 2.066847 1_555
O3 Sn3 2.066677 1_455
O3 Sn5 2.066774 1_555
O4 Sn2 2.055080 1_555
O4 Sn5 2.055410 1_555
O5 Sn3 2.054824 1_555
O5 Sn4 2.055331 1_555
O6 Sn1 2.014711 1_555
O7 Sn0 2.013155 1_655
O8 Sn4 2.108220 1_555
O8 Sn3 2.109488 1_555
O9 Sn5 2.109826 1_555
O9 Sn2 2.110759 1_555
O12 Sn0 2.027366 1_555
O13 Sn1 2.030225 1_555
O16 Sn1 2.196315 1_555
O17 Sn0 2.203306 1_555
O18 Sn0 2.201721 1_655
O19 Sn1 2.201024 1_555
O20 Sn2 2.091595 1_555
O21 Sn3 2.091833 1_455
O22 Sn4 2.090704 1_555
O23 Sn5 2.091612 1_555
O24 Sn0 2.119585 1_556
O25 Sn1 2.116665 1_555
O26 Sn0 2.120629 1_555
O27 Sn1 2.124426 1_555
O28 Sn2 2.175388 1_554
O29 Sn3 2.175016 1_555
O30 Sn4 2.177468 1_555
O31 Sn5 2.176254 1_655
