# generated using pymatgen
data_Li2Mn3WO8
_symmetry_space_group_name_H-M   'P 1'
_cell_length_a   5.91254938
_cell_length_b   5.91254938
_cell_length_c   9.71094147
_cell_angle_alpha   90.00012041
_cell_angle_beta   89.99987959
_cell_angle_gamma   119.99985010
_symmetry_Int_Tables_number   1
_chemical_formula_structural   Li2Mn3WO8
_chemical_formula_sum   'Li4 Mn6 W2 O16'
_cell_volume   293.99651780
_cell_formula_units_Z   2
loop_
 _symmetry_equiv_pos_site_id
 _symmetry_equiv_pos_as_xyz
  1  'x, y, z'
loop_
 _atom_site_type_symbol
 _atom_site_label
 _atom_site_symmetry_multiplicity
 _atom_site_fract_x
 _atom_site_fract_y
 _atom_site_fract_z
 _atom_site_occupancy
  Li  Li0  1  0.33333328  0.66666672  0.90882283  1
  Li  Li1  1  0.00000015  0.99999985  0.98535446  1
  Li  Li2  1  0.00000054  0.99999946  0.48533828  1
  Li  Li3  1  0.66666665  0.33333335  0.40883787  1
  Mn  Mn0  1  0.16976881  0.83023119  0.21319018  1
  Mn  Mn1  1  0.16976941  0.33953492  0.21318787  1
  Mn  Mn2  1  0.66046508  0.83023059  0.21318787  1
  Mn  Mn3  1  0.33955878  0.16978108  0.71318427  1
  Mn  Mn4  1  0.83021892  0.66044122  0.71318427  1
  Mn  Mn5  1  0.83021936  0.16978064  0.71318434  1
  W  W0  1  0.33333394  0.66666606  0.48718217  1
  W  W1  1  0.66666642  0.33333358  0.98720091  1
  O  O0  1  0.17170299  0.82829701  0.58630053  1
  O  O1  1  0.03806202  0.51903141  0.35365021  1
  O  O2  1  0.33333323  0.66666677  0.11552458  1
  O  O3  1  0.99999970  0.00000030  0.29764330  1
  O  O4  1  0.99999925  0.00000075  0.79765626  1
  O  O5  1  0.17170267  0.34340482  0.58630006  1
  O  O6  1  0.48096859  0.96193798  0.35365021  1
  O  O7  1  0.48096963  0.51903037  0.35365108  1
  O  O8  1  0.34339320  0.17169693  0.08629989  1
  O  O9  1  0.65659518  0.82829733  0.58630006  1
  O  O10  1  0.51904916  0.48095084  0.85364506  1
  O  O11  1  0.51905038  0.03810033  0.85364408  1
  O  O12  1  0.66666688  0.33333312  0.61551413  1
  O  O13  1  0.82830307  0.65660680  0.08629989  1
  O  O14  1  0.96189967  0.48094962  0.85364408  1
  O  O15  1  0.82830303  0.17169697  0.08629925  1
loop_
_geom_bond_atom_site_label_1
_geom_bond_atom_site_label_2
_geom_bond_distance
_geom_bond_site_symmetry_2
Li0 O10 1.975923 1_555
Li0 O11 1.975941 1_565
Li0 O14 1.975941 1_455
Li0 O2 2.007269 1_556
Li1 O4 1.822726 1_465
Li1 O15 2.013110 1_466
Li1 O13 2.013114 1_456
Li1 O8 2.013114 1_566
Li2 O3 1.822695 1_465
Li2 O0 2.013244 1_555
Li2 O5 2.013244 1_565
Li2 O9 2.013244 1_455
Li3 O7 1.975763 1_555
Li3 O1 1.975774 1_655
Li3 O6 1.975774 1_545
Li3 O12 2.007021 1_555
Mn0 O3 1.922300 1_465
Mn0 O2 1.924901 1_555
Mn0 O1 2.102289 1_555
Mn0 O6 2.102289 1_555
Mn0 O13 2.139101 1_455
Mn0 O8 2.139101 1_565
Mn1 O3 1.922299 1_455
Mn1 O2 1.924910 1_555
Mn1 O7 2.102312 1_555
Mn1 O1 2.102314 1_555
Mn1 O8 2.139064 1_555
Mn1 O15 2.139094 1_455
Mn2 O3 1.922299 1_565
Mn2 O2 1.924910 1_555
Mn2 O7 2.102312 1_555
Mn2 O6 2.102314 1_555
Mn2 O13 2.139064 1_555
Mn2 O15 2.139094 1_565
Mn3 O4 1.922481 1_455
Mn3 O12 1.924835 1_555
Mn3 O10 2.102180 1_555
Mn3 O11 2.102185 1_555
Mn3 O5 2.139123 1_555
Mn3 O0 2.139138 1_545
Mn4 O4 1.922481 1_565
Mn4 O12 1.924835 1_555
Mn4 O10 2.102180 1_555
Mn4 O14 2.102185 1_555
Mn4 O9 2.139123 1_555
Mn4 O0 2.139138 1_655
Mn5 O4 1.922481 1_555
Mn5 O12 1.924821 1_555
Mn5 O11 2.102169 1_555
Mn5 O14 2.102169 1_555
Mn5 O9 2.139138 1_545
Mn5 O5 2.139138 1_655
O0 W0 1.914749 1_555
O1 W0 1.991830 1_555
O5 W0 1.914750 1_555
O6 W0 1.991830 1_555
O7 W0 1.991816 1_555
O8 W1 1.914709 1_554
O9 W0 1.914750 1_555
O10 W1 1.991834 1_555
O11 W1 1.991834 1_555
O13 W1 1.914709 1_554
O14 W1 1.991834 1_555
O15 W1 1.914705 1_554
