# generated using pymatgen
data_LiMnPO5
_symmetry_space_group_name_H-M   'P 1'
_cell_length_a   10.24925300
_cell_length_b   4.96714400
_cell_length_c   7.21242949
_cell_angle_alpha   67.60427224
_cell_angle_beta   90.00000000
_cell_angle_gamma   90.00000000
_symmetry_Int_Tables_number   1
_chemical_formula_structural   LiMnPO5
_chemical_formula_sum   'Li4 Mn4 P4 O20'
_cell_volume   339.48643892
_cell_formula_units_Z   4
loop_
 _symmetry_equiv_pos_site_id
 _symmetry_equiv_pos_as_xyz
  1  'x, y, z'
loop_
 _atom_site_type_symbol
 _atom_site_label
 _atom_site_symmetry_multiplicity
 _atom_site_fract_x
 _atom_site_fract_y
 _atom_site_fract_z
 _atom_site_occupancy
  Li  Li0  1  0.40321800  0.96045500  0.66626800  1
  Li  Li1  1  0.90321800  0.03954500  0.83373200  1
  Li  Li2  1  0.09678200  0.96045500  0.16626800  1
  Li  Li3  1  0.59678200  0.03954500  0.33373200  1
  Mn  Mn0  1  0.57145700  0.44632900  0.68065500  1
  Mn  Mn1  1  0.07145700  0.55367100  0.81934500  1
  Mn  Mn2  1  0.92854300  0.44632900  0.18065500  1
  Mn  Mn3  1  0.42854300  0.55367100  0.31934500  1
  P  P0  1  0.15078300  0.19120900  0.52951500  1
  P  P1  1  0.34921700  0.19120900  0.02951500  1
  P  P2  1  0.65078300  0.80879100  0.97048500  1
  P  P3  1  0.84921700  0.80879100  0.47048500  1
  O  O0  1  0.71908400  0.64656900  0.52405000  1
  O  O1  1  0.18852500  0.86477800  0.64432300  1
  O  O2  1  0.53842300  0.26751400  0.50007800  1
  O  O3  1  0.92570700  0.78251500  0.66340500  1
  O  O4  1  0.06719700  0.30297000  0.66312300  1
  O  O5  1  0.42570700  0.21748500  0.83659500  1
  O  O6  1  0.68852500  0.13522200  0.85567700  1
  O  O7  1  0.21908400  0.35343100  0.97595000  1
  O  O8  1  0.56719700  0.69703000  0.83687700  1
  O  O9  1  0.96157700  0.26751400  0.00007800  1
  O  O10  1  0.03842300  0.73248600  0.99992200  1
  O  O11  1  0.43280300  0.30297000  0.16312300  1
  O  O12  1  0.78091600  0.64656900  0.02405000  1
  O  O13  1  0.31147500  0.86477800  0.14432300  1
  O  O14  1  0.57429300  0.78251500  0.16340500  1
  O  O15  1  0.93280300  0.69703000  0.33687700  1
  O  O16  1  0.07429300  0.21748500  0.33659500  1
  O  O17  1  0.46157700  0.73248600  0.49992200  1
  O  O18  1  0.81147500  0.13522200  0.35567700  1
  O  O19  1  0.28091600  0.35343100  0.47595000  1
loop_
_geom_bond_atom_site_label_1
_geom_bond_atom_site_label_2
_geom_bond_distance
_geom_bond_site_symmetry_2
Li0 O17 2.028457 1_555
Li0 O2 2.071283 1_565
Li0 O5 2.094605 1_565
Li0 O8 2.196356 1_555
Li0 O1 2.269399 1_555
Li0 O19 2.285594 1_565
Li1 O9 2.028457 1_556
Li1 O10 2.071283 1_645
Li1 O3 2.094605 1_545
Li1 O4 2.196356 1_655
Li1 O6 2.269399 1_555
Li1 O12 2.285594 1_546
Li2 O10 2.028457 1_554
Li2 O9 2.071283 1_465
Li2 O16 2.094605 1_565
Li2 O15 2.196356 1_455
Li2 O13 2.269399 1_555
Li2 O7 2.285594 1_564
Li3 O2 2.028457 1_555
Li3 O17 2.071283 1_545
Li3 O14 2.094605 1_545
Li3 O11 2.196356 1_555
Li3 O18 2.269399 1_555
Li3 O0 2.285594 1_545
Mn0 O2 1.865811 1_555
Mn0 O17 1.891021 1_555
Mn0 O0 1.923113 1_555
Mn0 O5 1.953047 1_555
Mn0 O8 1.972639 1_555
Mn0 O6 1.983609 1_555
Mn1 O10 1.865811 1_555
Mn1 O9 1.891021 1_456
Mn1 O7 1.923113 1_555
Mn1 O3 1.953047 1_455
Mn1 O4 1.972639 1_555
Mn1 O1 1.983609 1_555
Mn2 O9 1.865811 1_555
Mn2 O10 1.891021 1_654
Mn2 O12 1.923113 1_555
Mn2 O16 1.953047 1_655
Mn2 O15 1.972639 1_555
Mn2 O18 1.983609 1_555
Mn3 O17 1.865811 1_555
Mn3 O2 1.891021 1_555
Mn3 O19 1.923113 1_555
Mn3 O14 1.953047 1_555
Mn3 O11 1.972639 1_555
Mn3 O13 1.983609 1_555
O0 P3 1.529789 1_555
O1 P0 1.562450 1_565
O3 P3 1.558624 1_555
O4 P0 1.542183 1_555
O5 P1 1.558624 1_556
O6 P2 1.562450 1_545
O7 P1 1.529789 1_556
O8 P2 1.542183 1_555
O11 P1 1.542183 1_555
O12 P2 1.529789 1_554
O13 P1 1.562450 1_565
O14 P2 1.558624 1_554
O15 P3 1.542183 1_555
O16 P0 1.558624 1_555
O18 P3 1.562450 1_545
O19 P0 1.529789 1_555
