# generated using pymatgen
data_Tm2P4O13
_symmetry_space_group_name_H-M   'P 1'
_cell_length_a   9.55393000
_cell_length_b   8.76291600
_cell_length_c   13.86195549
_cell_angle_alpha   73.76565924
_cell_angle_beta   90.00000000
_cell_angle_gamma   90.00000000
_symmetry_Int_Tables_number   1
_chemical_formula_structural   Tm2P4O13
_chemical_formula_sum   'Tm8 P16 O52'
_cell_volume   1114.25237540
_cell_formula_units_Z   4
loop_
 _symmetry_equiv_pos_site_id
 _symmetry_equiv_pos_as_xyz
  1  'x, y, z'
loop_
 _atom_site_type_symbol
 _atom_site_label
 _atom_site_symmetry_multiplicity
 _atom_site_fract_x
 _atom_site_fract_y
 _atom_site_fract_z
 _atom_site_occupancy
  Tm  Tm0  1  0.99652500  0.97228200  0.72136300  1
  Tm  Tm1  1  0.50347500  0.97228200  0.22136300  1
  Tm  Tm2  1  0.00140800  0.55347400  0.73745900  1
  Tm  Tm3  1  0.50140800  0.44652600  0.76254100  1
  Tm  Tm4  1  0.49859200  0.55347400  0.23745900  1
  Tm  Tm5  1  0.99859200  0.44652600  0.26254100  1
  Tm  Tm6  1  0.49652500  0.02771800  0.77863700  1
  Tm  Tm7  1  0.00347500  0.02771800  0.27863700  1
  P  P0  1  0.75999300  0.85465100  0.93687300  1
  P  P1  1  0.26974500  0.71211800  0.84607300  1
  P  P2  1  0.70510500  0.78356600  0.65723000  1
  P  P3  1  0.74000700  0.85465100  0.43687300  1
  P  P4  1  0.75022000  0.50415600  0.93951900  1
  P  P5  1  0.23025500  0.71211800  0.34607300  1
  P  P6  1  0.79489500  0.78356600  0.15723000  1
  P  P7  1  0.25022000  0.49584400  0.56048100  1
  P  P8  1  0.74978000  0.50415600  0.43951900  1
  P  P9  1  0.20510500  0.21643400  0.84277000  1
  P  P10  1  0.76974500  0.28788200  0.65392700  1
  P  P11  1  0.24978000  0.49584400  0.06048100  1
  P  P12  1  0.25999300  0.14534900  0.56312700  1
  P  P13  1  0.29489500  0.21643400  0.34277000  1
  P  P14  1  0.73025500  0.28788200  0.15392700  1
  P  P15  1  0.24000700  0.14534900  0.06312700  1
  O  O0  1  0.63271300  0.96008500  0.91182500  1
  O  O1  1  0.87870600  0.88953900  0.86260900  1
  O  O2  1  0.33679900  0.86222200  0.85833600  1
  O  O3  1  0.62892500  0.88121200  0.71491600  1
  O  O4  1  0.86728700  0.96008500  0.41182500  1
  O  O5  1  0.67672900  0.87078600  0.54008700  1
  O  O6  1  0.70562200  0.67197400  0.95996600  1
  O  O7  1  0.13505100  0.74753900  0.77989900  1
  O  O8  1  0.86725000  0.78077800  0.67305500  1
  O  O9  1  0.62129400  0.88953900  0.36260900  1
  O  O10  1  0.20758400  0.60808200  0.95317800  1
  O  O11  1  0.16320100  0.86222200  0.35833600  1
  O  O12  1  0.87107500  0.88121200  0.21491600  1
  O  O13  1  0.37229200  0.60984900  0.80865400  1
  O  O14  1  0.88034100  0.52985200  0.87597500  1
  O  O15  1  0.64819500  0.61601000  0.67647000  1
  O  O16  1  0.82327100  0.87078600  0.04008700  1
  O  O17  1  0.79437800  0.67197400  0.45996600  1
  O  O18  1  0.36494900  0.74753900  0.27989900  1
  O  O19  1  0.63275000  0.78077800  0.17305500  1
  O  O20  1  0.12449400  0.56407500  0.59955600  1
  O  O21  1  0.29241600  0.60808200  0.45317800  1
  O  O22  1  0.62449400  0.43592500  0.90044400  1
  O  O23  1  0.14819500  0.38399000  0.82353000  1
  O  O24  1  0.38034100  0.47014800  0.62402500  1
  O  O25  1  0.12770800  0.60984900  0.30865400  1
  O  O26  1  0.87229200  0.39015100  0.69134600  1
  O  O27  1  0.61965900  0.52985200  0.37597500  1
  O  O28  1  0.85180500  0.61601000  0.17647000  1
  O  O29  1  0.37550600  0.56407500  0.09955600  1
  O  O30  1  0.70758400  0.39191800  0.54682200  1
  O  O31  1  0.87550600  0.43592500  0.40044400  1
  O  O32  1  0.36725000  0.21922200  0.82694500  1
  O  O33  1  0.63505100  0.25246100  0.72010100  1
  O  O34  1  0.20562200  0.32802600  0.54003400  1
  O  O35  1  0.17672900  0.12921400  0.95991300  1
  O  O36  1  0.35180500  0.38399000  0.32353000  1
  O  O37  1  0.11965900  0.47014800  0.12402500  1
  O  O38  1  0.62770800  0.39015100  0.19134600  1
  O  O39  1  0.12892500  0.11878800  0.78508400  1
  O  O40  1  0.83679900  0.13777800  0.64166400  1
  O  O41  1  0.79241600  0.39191800  0.04682200  1
  O  O42  1  0.37870600  0.11046100  0.63739100  1
  O  O43  1  0.13275000  0.21922200  0.32694500  1
  O  O44  1  0.86494900  0.25246100  0.22010100  1
  O  O45  1  0.29437800  0.32802600  0.04003400  1
  O  O46  1  0.32327100  0.12921400  0.45991300  1
  O  O47  1  0.13271300  0.03991500  0.58817500  1
  O  O48  1  0.37107500  0.11878800  0.28508400  1
  O  O49  1  0.66320100  0.13777800  0.14166400  1
  O  O50  1  0.12129400  0.11046100  0.13739100  1
  O  O51  1  0.36728700  0.03991500  0.08817500  1
loop_
_geom_bond_atom_site_label_1
_geom_bond_atom_site_label_2
_geom_bond_distance
_geom_bond_site_symmetry_2
O0 P0 1.507818 1_555
O0 Tm6 2.200230 1_565
O1 P0 1.504528 1_555
O1 Tm0 2.198308 1_555
O2 P1 1.514749 1_555
O2 Tm6 2.180959 1_565
O3 P2 1.511250 1_555
O3 Tm6 2.159291 1_565
O4 P3 1.507818 1_555
O4 Tm7 2.200230 1_665
O5 P3 1.595501 1_555
O5 P2 1.612620 1_555
O6 P0 1.627359 1_555
O6 P4 1.630193 1_555
O7 P1 1.560316 1_555
O7 Tm0 2.322718 1_455
O7 Tm2 2.329742 1_555
O8 P2 1.563810 1_555
O8 Tm2 2.326596 1_655
O8 Tm0 2.327727 1_555
O9 P3 1.504528 1_555
O9 Tm1 2.198308 1_555
O10 P11 1.588813 1_556
O10 P1 1.622130 1_555
O11 P5 1.514749 1_555
O11 Tm7 2.180959 1_565
O12 P6 1.511250 1_555
O12 Tm7 2.159291 1_665
O13 P1 1.513920 1_555
O13 Tm3 2.118983 1_555
O14 P4 1.503713 1_555
O14 Tm2 2.201201 1_655
O15 P2 1.517776 1_555
O15 Tm3 2.145971 1_555
O16 P0 1.595501 1_554
O16 P6 1.612620 1_555
O17 P3 1.627359 1_555
O17 P8 1.630193 1_555
O18 P5 1.560316 1_555
O18 Tm1 2.322718 1_555
O18 Tm4 2.329742 1_555
O19 P6 1.563810 1_555
O19 Tm4 2.326596 1_555
O19 Tm1 2.327727 1_555
O20 P7 1.508239 1_555
O20 Tm2 2.224060 1_555
O21 P7 1.588813 1_555
O21 P5 1.622130 1_555
O22 P4 1.508239 1_555
O22 Tm3 2.224060 1_555
O23 P9 1.517776 1_555
O23 Tm2 2.145971 1_555
O24 P7 1.503713 1_555
O24 Tm3 2.201201 1_555
O25 P5 1.513920 1_555
O25 Tm5 2.118983 1_455
O26 P10 1.513920 1_555
O26 Tm2 2.118983 1_655
O27 P8 1.503713 1_555
O27 Tm4 2.201201 1_555
O28 P6 1.517776 1_555
O28 Tm5 2.145971 1_555
O29 P11 1.508239 1_555
O29 Tm4 2.224060 1_555
O30 P8 1.588813 1_555
O30 P10 1.622130 1_555
O31 P8 1.508239 1_555
O31 Tm5 2.224060 1_555
O32 P9 1.563810 1_555
O32 Tm3 2.326596 1_555
O32 Tm6 2.327727 1_555
O33 P10 1.560316 1_555
O33 Tm6 2.322718 1_555
O33 Tm3 2.329742 1_555
O34 P12 1.627359 1_555
O34 P7 1.630193 1_555
O35 P15 1.595501 1_556
O35 P9 1.612620 1_555
O36 P13 1.517776 1_555
O36 Tm4 2.145971 1_555
O37 P11 1.503713 1_555
O37 Tm5 2.201201 1_455
O38 P14 1.513920 1_555
O38 Tm4 2.118983 1_555
O39 P9 1.511250 1_555
O39 Tm0 2.159291 1_445
O40 P10 1.514749 1_555
O40 Tm0 2.180959 1_545
O41 P4 1.588813 1_554
O41 P14 1.622130 1_555
O42 P12 1.504528 1_555
O42 Tm6 2.198308 1_555
O43 P13 1.563810 1_555
O43 Tm5 2.326596 1_455
O43 Tm7 2.327727 1_555
O44 P14 1.560316 1_555
O44 Tm7 2.322718 1_655
O44 Tm5 2.329742 1_555
O45 P15 1.627359 1_555
O45 P11 1.630193 1_555
O46 P12 1.595501 1_555
O46 P13 1.612620 1_555
O47 P12 1.507818 1_555
O47 Tm0 2.200230 1_445
O48 P13 1.511250 1_555
O48 Tm1 2.159291 1_545
O49 P14 1.514749 1_555
O49 Tm1 2.180959 1_545
O50 P15 1.504528 1_555
O50 Tm7 2.198308 1_555
O51 P15 1.507818 1_555
O51 Tm1 2.200230 1_545
