# generated using pymatgen
data_Li4Ni3Sb5O16
_symmetry_space_group_name_H-M   'P 1'
_cell_length_a   6.16915227
_cell_length_b   6.16915227
_cell_length_c   10.22520371
_cell_angle_alpha   89.74837665
_cell_angle_beta   89.74837665
_cell_angle_gamma   60.17824970
_symmetry_Int_Tables_number   1
_chemical_formula_structural   Li4Ni3Sb5O16
_chemical_formula_sum   'Li4 Ni3 Sb5 O16'
_cell_volume   337.61773426
_cell_formula_units_Z   1
loop_
 _symmetry_equiv_pos_site_id
 _symmetry_equiv_pos_as_xyz
  1  'x, y, z'
loop_
 _atom_site_type_symbol
 _atom_site_label
 _atom_site_symmetry_multiplicity
 _atom_site_fract_x
 _atom_site_fract_y
 _atom_site_fract_z
 _atom_site_occupancy
  Li  Li0  1  0.66436100  0.66436100  0.11257800  1
  Li  Li1  1  0.99127400  0.99127400  0.01371700  1
  Li  Li2  1  0.99431300  0.99431300  0.49716700  1
  Li  Li3  1  0.32433500  0.32433500  0.59631300  1
  Ni  Ni0  1  0.83088000  0.83088000  0.78540600  1
  Ni  Ni1  1  0.17111200  0.66454700  0.28595700  1
  Ni  Ni2  1  0.66454700  0.17111200  0.28595700  1
  Sb  Sb0  1  0.33500300  0.83119300  0.78412400  1
  Sb  Sb1  1  0.67772700  0.67772700  0.48921600  1
  Sb  Sb2  1  0.83119300  0.33500300  0.78412400  1
  Sb  Sb3  1  0.17050800  0.17050800  0.28324100  1
  Sb  Sb4  1  0.34887700  0.34887700  0.02786700  1
  O  O0  1  0.31844700  0.85541100  0.39641800  1
  O  O1  1  0.50410100  0.50410100  0.68110900  1
  O  O2  1  0.66052300  0.66052300  0.89210300  1
  O  O3  1  0.00199600  0.00199600  0.68104200  1
  O  O4  1  0.00714900  0.00714900  0.19162600  1
  O  O5  1  0.85541100  0.31844700  0.39641800  1
  O  O6  1  0.50140800  0.96846200  0.67250300  1
  O  O7  1  0.96846200  0.50140800  0.67250300  1
  O  O8  1  0.15126700  0.15126700  0.89259000  1
  O  O9  1  0.84225100  0.84225100  0.39937800  1
  O  O10  1  0.03413300  0.47585000  0.16188900  1
  O  O11  1  0.47585000  0.03413300  0.16188900  1
  O  O12  1  0.32590000  0.32590000  0.39041100  1
  O  O13  1  0.16359400  0.69831600  0.89826800  1
  O  O14  1  0.48623400  0.48623400  0.16009900  1
  O  O15  1  0.69831600  0.16359400  0.89826800  1
loop_
_geom_bond_atom_site_label_1
_geom_bond_atom_site_label_2
_geom_bond_distance
_geom_bond_site_symmetry_2
Li0 O14 1.960335 1_555
Li0 O10 2.043729 1_655
Li0 O11 2.043729 1_565
Li0 O2 2.254982 1_554
Li1 O4 1.827889 1_665
Li1 O13 1.971498 1_654
Li1 O15 1.971498 1_564
Li1 O8 2.104734 1_664
Li2 O3 1.882363 1_665
Li2 O9 1.910920 1_555
Li2 O5 2.019775 1_565
Li2 O0 2.019775 1_655
Li3 O6 2.056039 1_545
Li3 O7 2.056039 1_455
Li3 O12 2.105371 1_555
Li3 O1 2.109908 1_555
Ni0 O3 2.110954 1_665
Ni0 O2 2.116062 1_555
Ni0 O6 2.116748 1_555
Ni0 O7 2.116748 1_555
Ni0 O13 2.134618 1_655
Ni0 O15 2.134618 1_565
Ni1 O4 2.070017 1_565
Ni1 O12 2.102945 1_555
Ni1 O9 2.107423 1_455
Ni1 O14 2.123443 1_555
Ni1 O0 2.138573 1_555
Ni1 O10 2.163198 1_555
Ni2 O4 2.070017 1_655
Ni2 O12 2.102945 1_555
Ni2 O9 2.107423 1_545
Ni2 O14 2.123443 1_555
Ni2 O5 2.138573 1_555
Ni2 O11 2.163198 1_555
O0 Sb3 2.043490 1_565
O0 Sb1 2.146498 1_555
O1 Sb2 2.045720 1_555
O1 Sb0 2.045720 1_555
O1 Sb1 2.692366 1_555
O2 Sb2 2.065599 1_555
O2 Sb0 2.065599 1_555
O3 Sb0 2.073152 1_545
O3 Sb2 2.073152 1_455
O4 Sb3 1.983827 1_555
O5 Sb3 2.043490 1_655
O5 Sb1 2.146498 1_555
O6 Sb0 1.979781 1_555
O6 Sb1 2.446170 1_555
O7 Sb2 1.979781 1_555
O7 Sb1 2.446170 1_555
O8 Sb0 2.048403 1_545
O8 Sb2 2.048403 1_455
O8 Sb4 2.528529 1_556
O9 Sb1 1.977986 1_555
O10 Sb3 2.051401 1_555
O10 Sb4 2.176027 1_555
O11 Sb3 2.051401 1_555
O11 Sb4 2.176027 1_555
O12 Sb3 1.992814 1_555
O13 Sb0 1.998827 1_555
O13 Sb4 2.290690 1_556
O14 Sb4 1.999641 1_555
O15 Sb2 1.998827 1_555
O15 Sb4 2.290690 1_556
