# generated using pymatgen
data_Li4MnCrO6
_symmetry_space_group_name_H-M   'P 1'
_cell_length_a   5.01429600
_cell_length_b   8.73123793
_cell_length_c   9.77587820
_cell_angle_alpha   98.54163557
_cell_angle_beta   94.55007623
_cell_angle_gamma   90.09859650
_symmetry_Int_Tables_number   1
_chemical_formula_structural   Li4MnCrO6
_chemical_formula_sum   'Li16 Mn4 Cr4 O24'
_cell_volume   421.87705409
_cell_formula_units_Z   4
loop_
 _symmetry_equiv_pos_site_id
 _symmetry_equiv_pos_as_xyz
  1  'x, y, z'
loop_
 _atom_site_type_symbol
 _atom_site_label
 _atom_site_symmetry_multiplicity
 _atom_site_fract_x
 _atom_site_fract_y
 _atom_site_fract_z
 _atom_site_occupancy
  Li  Li0  1  0.98905400  0.16581000  0.50010300  1
  Li  Li1  1  0.87105200  0.37591800  0.75040900  1
  Li  Li2  1  0.75191400  0.24789400  0.99977900  1
  Li  Li3  1  0.74359900  0.91989800  0.99951300  1
  Li  Li4  1  0.75529800  0.58078400  0.99748500  1
  Li  Li5  1  0.62743500  0.12416600  0.24960200  1
  Li  Li6  1  0.50821400  0.33200800  0.49913100  1
  Li  Li7  1  0.50238100  0.99884600  0.50158100  1
  Li  Li8  1  0.49250600  0.66852900  0.50075100  1
  Li  Li9  1  0.37457900  0.87574900  0.74966900  1
  Li  Li10  1  0.24771700  0.75043700  0.99948200  1
  Li  Li11  1  0.24632100  0.42068900  0.00109300  1
  Li  Li12  1  0.25620200  0.07941900  0.99993000  1
  Li  Li13  1  0.12412300  0.62567400  0.25037900  1
  Li  Li14  1  0.00803200  0.83420200  0.50208300  1
  Li  Li15  1  0.00190000  0.50063400  0.49958000  1
  Mn  Mn0  1  0.87490600  0.70874900  0.74973500  1
  Mn  Mn1  1  0.87318100  0.03962400  0.74870200  1
  Mn  Mn2  1  0.37714400  0.54310000  0.75143200  1
  Mn  Mn3  1  0.12565400  0.29204500  0.24992700  1
  Cr  Cr0  1  0.61978500  0.78823400  0.24899700  1
  Cr  Cr1  1  0.63184500  0.45744300  0.25133500  1
  Cr  Cr2  1  0.36696000  0.21050800  0.75010300  1
  Cr  Cr3  1  0.12766000  0.96188200  0.24945000  1
  O  O0  1  0.96201200  0.11026400  0.13731500  1
  O  O1  1  0.92658400  0.78680900  0.13850600  1
  O  O2  1  0.93004300  0.42623100  0.13701600  1
  O  O3  1  0.82458100  0.96301400  0.36123200  1
  O  O4  1  0.82501400  0.32094000  0.36429800  1
  O  O5  1  0.78111100  0.63844800  0.36212100  1
  O  O6  1  0.71378500  0.85546000  0.63892300  1
  O  O7  1  0.67849800  0.53545200  0.63874900  1
  O  O8  1  0.67804000  0.17549600  0.63665800  1
  O  O9  1  0.46789700  0.60944800  0.13840700  1
  O  O10  1  0.57173100  0.71548200  0.86125500  1
  O  O11  1  0.57357200  0.07431300  0.86312800  1
  O  O12  1  0.41839500  0.92749700  0.13548500  1
  O  O13  1  0.42736800  0.28722100  0.13864900  1
  O  O14  1  0.53678000  0.39805200  0.86317200  1
  O  O15  1  0.33095700  0.82260300  0.36422000  1
  O  O16  1  0.31862700  0.46410500  0.36185000  1
  O  O17  1  0.28405900  0.14304500  0.36082100  1
  O  O18  1  0.22078800  0.35588300  0.63925300  1
  O  O19  1  0.17785100  0.67683800  0.63704700  1
  O  O20  1  0.17326900  0.03311300  0.63674700  1
  O  O21  1  0.07184900  0.57305200  0.86308000  1
  O  O22  1  0.07506700  0.21188400  0.86108300  1
  O  O23  1  0.03465600  0.89311100  0.86073100  1
loop_
_geom_bond_atom_site_label_1
_geom_bond_atom_site_label_2
_geom_bond_distance
_geom_bond_site_symmetry_2
Li0 O20 2.060989 1_655
Li0 O17 2.078897 1_655
Li0 O8 2.125688 1_555
Li0 O4 2.153716 1_555
Li0 O3 2.182131 1_545
Li0 O18 2.242052 1_655
Li1 O14 2.071948 1_555
Li1 O7 2.086409 1_555
Li1 O21 2.108194 1_655
Li1 O8 2.116808 1_555
Li1 O18 2.129257 1_655
Li1 O22 2.134969 1_655
Li2 O11 2.021293 1_555
Li2 O2 2.051052 1_556
Li2 O0 2.149705 1_556
Li2 O22 2.187830 1_655
Li2 O13 2.196184 1_556
Li2 O14 2.227650 1_555
Li3 O23 2.060688 1_655
Li3 O1 2.076867 1_556
Li3 O11 2.163292 1_565
Li3 O12 2.179096 1_556
Li3 O10 2.201892 1_555
Li3 O0 2.207124 1_566
Li4 O9 2.061830 1_556
Li4 O10 2.068458 1_555
Li4 O21 2.134324 1_655
Li4 O14 2.147927 1_555
Li4 O2 2.193303 1_556
Li4 O1 2.223565 1_556
Li5 O0 2.070644 1_555
Li5 O17 2.102053 1_555
Li5 O4 2.106224 1_555
Li5 O3 2.106581 1_545
Li5 O13 2.121491 1_555
Li5 O12 2.128642 1_545
Li6 O18 2.055836 1_555
Li6 O16 2.072734 1_555
Li6 O4 2.136605 1_555
Li6 O8 2.183633 1_555
Li6 O7 2.199310 1_555
Li6 O17 2.214370 1_555
Li7 O8 2.025887 1_565
Li7 O15 2.026941 1_555
Li7 O6 2.184443 1_555
Li7 O20 2.188410 1_565
Li7 O3 2.194645 1_555
Li7 O17 2.226547 1_565
Li8 O5 2.051004 1_555
Li8 O7 2.075943 1_555
Li8 O19 2.138967 1_555
Li8 O15 2.147775 1_555
Li8 O6 2.195589 1_555
Li8 O16 2.208311 1_555
Li9 O6 2.081516 1_555
Li9 O23 2.086297 1_555
Li9 O20 2.098554 1_565
Li9 O10 2.100589 1_555
Li9 O19 2.110756 1_555
Li9 O11 2.116326 1_565
Li10 O12 2.023475 1_556
Li10 O21 2.037092 1_555
Li10 O1 2.182121 1_456
Li10 O10 2.187765 1_555
Li10 O23 2.193091 1_555
Li10 O9 2.200497 1_556
Li11 O14 2.052220 1_554
Li11 O13 2.065411 1_555
Li11 O2 2.144432 1_455
Li11 O21 2.169183 1_554
Li11 O9 2.202834 1_555
Li11 O22 2.236393 1_554
Li12 O0 2.064143 1_456
Li12 O22 2.068669 1_555
Li12 O12 2.128826 1_546
Li12 O11 2.154817 1_555
Li12 O23 2.197355 1_545
Li12 O13 2.224108 1_556
Li13 O16 2.102748 1_555
Li13 O5 2.103941 1_455
Li13 O9 2.108046 1_555
Li13 O1 2.108696 1_455
Li13 O2 2.111262 1_455
Li13 O15 2.124364 1_555
Li14 O6 2.059428 1_455
Li14 O3 2.066324 1_455
Li14 O20 2.139774 1_565
Li14 O19 2.172095 1_555
Li14 O15 2.180561 1_555
Li14 O5 2.267089 1_455
Li15 O19 2.035762 1_555
Li15 O4 2.046958 1_455
Li15 O16 2.156459 1_555
Li15 O5 2.174441 1_455
Li15 O7 2.191335 1_455
Li15 O18 2.223962 1_555
Mn0 O6 1.934946 1_555
Mn0 O10 1.935785 1_555
Mn0 O23 1.936239 1_655
Mn0 O7 1.942741 1_555
Mn0 O19 1.942813 1_655
Mn0 O21 1.956307 1_655
Mn1 O20 1.925718 1_655
Mn1 O6 1.929510 1_545
Mn1 O11 1.941025 1_555
Mn1 O23 1.941781 1_645
Mn1 O8 1.945386 1_555
Mn1 O22 1.954829 1_655
Mn2 O14 1.927066 1_555
Mn2 O10 1.928407 1_555
Mn2 O7 1.934911 1_555
Mn2 O21 1.945463 1_555
Mn2 O18 1.953463 1_555
Mn2 O19 1.956310 1_555
Mn3 O13 1.929175 1_555
Mn3 O16 1.931084 1_555
Mn3 O0 1.933264 1_455
Mn3 O2 1.941510 1_455
Mn3 O4 1.941967 1_455
Mn3 O17 1.945382 1_555
Cr0 O9 1.884037 1_555
Cr0 O15 1.901641 1_555
Cr0 O1 1.947615 1_555
Cr0 O5 1.969539 1_555
Cr0 O3 1.976272 1_555
Cr0 O12 1.989196 1_555
Cr1 O5 1.894645 1_555
Cr1 O2 1.932633 1_555
Cr1 O13 1.950107 1_555
Cr1 O4 1.950237 1_555
Cr1 O16 1.971840 1_555
Cr1 O9 1.987715 1_555
Cr2 O22 1.888804 1_555
Cr2 O18 1.899589 1_555
Cr2 O20 1.970914 1_555
Cr2 O11 1.980196 1_555
Cr2 O8 1.982904 1_555
Cr2 O14 1.984053 1_555
Cr3 O12 1.901705 1_555
Cr3 O17 1.910784 1_565
Cr3 O3 1.940140 1_455
Cr3 O0 1.962447 1_465
Cr3 O1 1.964236 1_455
Cr3 O15 2.001236 1_555
