# generated using pymatgen
data_Li(FeO2)2
_symmetry_space_group_name_H-M   'P 1'
_cell_length_a   5.86523201
_cell_length_b   5.86523201
_cell_length_c   9.50295400
_cell_angle_alpha   90.00000000
_cell_angle_beta   90.00000000
_cell_angle_gamma   120.12214682
_symmetry_Int_Tables_number   1
_chemical_formula_structural   Li(FeO2)2
_chemical_formula_sum   'Li4 Fe8 O16'
_cell_volume   282.76378718
_cell_formula_units_Z   4
loop_
 _symmetry_equiv_pos_site_id
 _symmetry_equiv_pos_as_xyz
  1  'x, y, z'
loop_
 _atom_site_type_symbol
 _atom_site_label
 _atom_site_symmetry_multiplicity
 _atom_site_fract_x
 _atom_site_fract_y
 _atom_site_fract_z
 _atom_site_occupancy
  Li  Li0  1  0.16878500  0.83121500  0.10645100  1
  Li  Li1  1  0.50073000  0.49927000  0.00347200  1
  Li  Li2  1  0.49927000  0.50073000  0.50347200  1
  Li  Li3  1  0.83121500  0.16878500  0.60645100  1
  Fe  Fe0  1  0.84001600  0.66971700  0.78591900  1
  Fe  Fe1  1  0.16168800  0.83831200  0.50961400  1
  Fe  Fe2  1  0.33028300  0.15998400  0.78591900  1
  Fe  Fe3  1  0.33097400  0.66902600  0.78474800  1
  Fe  Fe4  1  0.66902600  0.33097400  0.28474800  1
  Fe  Fe5  1  0.83831200  0.16168800  0.00961400  1
  Fe  Fe6  1  0.66971700  0.84001600  0.28591900  1
  Fe  Fe7  1  0.15998400  0.33028300  0.28591900  1
  O  O0  1  0.82287100  0.67716000  0.39868800  1
  O  O1  1  0.01661600  0.98338400  0.66903300  1
  O  O2  1  0.16157500  0.83842500  0.89307900  1
  O  O3  1  0.50535400  0.49464600  0.69061500  1
  O  O4  1  0.49464600  0.50535400  0.19061500  1
  O  O5  1  0.32284000  0.17712900  0.39868800  1
  O  O6  1  0.00530900  0.54045900  0.66054800  1
  O  O7  1  0.45954100  0.99469100  0.66054800  1
  O  O8  1  0.66444900  0.33555100  0.89712400  1
  O  O9  1  0.33555100  0.66444900  0.39712400  1
  O  O10  1  0.54045900  0.00530900  0.16054800  1
  O  O11  1  0.99469100  0.45954100  0.16054800  1
  O  O12  1  0.83842500  0.16157500  0.39307900  1
  O  O13  1  0.67716000  0.82287100  0.89868800  1
  O  O14  1  0.98338400  0.01661600  0.16903300  1
  O  O15  1  0.17712900  0.32284000  0.89868800  1
loop_
_geom_bond_atom_site_label_1
_geom_bond_atom_site_label_2
_geom_bond_distance
_geom_bond_site_symmetry_2
Li0 O11 1.955750 1_455
Li0 O10 1.955750 1_565
Li0 O14 1.976232 1_465
Li0 O2 2.028988 1_554
Li1 O4 1.779486 1_555
Li1 O13 1.921832 1_554
Li1 O15 1.921832 1_554
Li1 O8 1.947048 1_554
Li2 O3 1.779486 1_555
Li2 O5 1.921832 1_555
Li2 O0 1.921832 1_555
Li2 O9 1.947048 1_555
Li3 O7 1.955750 1_545
Li3 O6 1.955750 1_655
Li3 O1 1.976232 1_645
Li3 O12 2.028988 1_555
Fe0 O6 1.916189 1_655
Fe0 O2 1.923560 1_655
Fe0 O3 1.924709 1_555
Fe0 O13 1.931037 1_555
Fe0 O1 1.943876 1_655
Fe0 O8 1.998222 1_555
Fe1 O0 2.017036 1_455
Fe1 O5 2.017036 1_565
Fe1 O9 2.065483 1_555
Fe1 O7 2.083798 1_555
Fe1 O6 2.083798 1_555
Fe1 O1 2.114177 1_555
Fe2 O7 1.916189 1_545
Fe2 O2 1.923560 1_545
Fe2 O3 1.924709 1_555
Fe2 O15 1.931037 1_555
Fe2 O1 1.943876 1_545
Fe2 O8 1.998222 1_555
Fe3 O3 1.985522 1_555
Fe3 O2 2.006228 1_555
Fe3 O6 2.040703 1_555
Fe3 O7 2.040703 1_555
Fe3 O15 2.066506 1_555
Fe3 O13 2.066506 1_555
Fe4 O4 1.985522 1_555
Fe4 O12 2.006228 1_555
Fe4 O10 2.040703 1_555
Fe4 O11 2.040703 1_555
Fe4 O5 2.066506 1_555
Fe4 O0 2.066506 1_555
Fe5 O13 2.017036 1_544
Fe5 O15 2.017036 1_654
Fe5 O8 2.065483 1_554
Fe5 O10 2.083798 1_555
Fe5 O11 2.083798 1_555
Fe5 O14 2.114177 1_555
Fe6 O10 1.916189 1_565
Fe6 O12 1.923560 1_565
Fe6 O4 1.924709 1_555
Fe6 O0 1.931037 1_555
Fe6 O14 1.943876 1_565
Fe6 O9 1.998222 1_555
Fe7 O11 1.916189 1_455
Fe7 O12 1.923560 1_455
Fe7 O4 1.924709 1_555
Fe7 O5 1.931037 1_555
Fe7 O14 1.943876 1_455
Fe7 O9 1.998222 1_555
