# generated using pymatgen
data_Al11TlO17
_symmetry_space_group_name_H-M   'P 1'
_cell_length_a   5.65447069
_cell_length_b   5.65447069
_cell_length_c   23.08250700
_cell_angle_alpha   90.00000000
_cell_angle_beta   90.00000000
_cell_angle_gamma   120.01304184
_symmetry_Int_Tables_number   1
_chemical_formula_structural   Al11TlO17
_chemical_formula_sum   'Al22 Tl2 O34'
_cell_volume   639.05823037
_cell_formula_units_Z   2
loop_
 _symmetry_equiv_pos_site_id
 _symmetry_equiv_pos_as_xyz
  1  'x, y, z'
loop_
 _atom_site_type_symbol
 _atom_site_label
 _atom_site_symmetry_multiplicity
 _atom_site_fract_x
 _atom_site_fract_y
 _atom_site_fract_z
 _atom_site_occupancy
  Al  Al0  1  0.33464200  0.16721500  0.60538600  1
  Al  Al1  1  0.33464200  0.16721500  0.89461400  1
  Al  Al2  1  0.66761600  0.33380000  0.32480100  1
  Al  Al3  1  0.66662900  0.33327300  0.47528700  1
  Al  Al4  1  0.66761600  0.33380000  0.17519900  1
  Al  Al5  1  0.00014700  0.00014700  0.50000000  1
  Al  Al6  1  0.00014700  0.00014700  0.00000000  1
  Al  Al7  1  0.66662900  0.33327300  0.02471300  1
  Al  Al8  1  0.83263000  0.16719900  0.89461800  1
  Al  Al9  1  0.83263000  0.16719900  0.60538200  1
  Al  Al10  1  0.83275500  0.66546800  0.89484600  1
  Al  Al11  1  0.83275500  0.66546800  0.60515400  1
  Al  Al12  1  0.16721500  0.33464200  0.10538600  1
  Al  Al13  1  0.16721500  0.33464200  0.39461400  1
  Al  Al14  1  0.16719900  0.83263000  0.10538200  1
  Al  Al15  1  0.33380000  0.66761600  0.82480100  1
  Al  Al16  1  0.33380000  0.66761600  0.67519900  1
  Al  Al17  1  0.33327300  0.66662900  0.52471300  1
  Al  Al18  1  0.33327300  0.66662900  0.97528700  1
  Al  Al19  1  0.16719900  0.83263000  0.39461800  1
  Al  Al20  1  0.66546800  0.83275500  0.39484600  1
  Al  Al21  1  0.66546800  0.83275500  0.10515400  1
  Tl  Tl0  1  0.67888700  0.35778700  0.75000000  1
  Tl  Tl1  1  0.35778700  0.67888700  0.25000000  1
  O  O0  1  0.31413700  0.15705200  0.45098200  1
  O  O1  1  0.31413700  0.15705200  0.04901800  1
  O  O2  1  0.50179000  0.00356600  0.64363300  1
  O  O3  1  0.50179000  0.00356600  0.85636700  1
  O  O4  1  0.66566200  0.33279800  0.25000000  1
  O  O5  1  0.84289600  0.15700600  0.04898700  1
  O  O6  1  0.66670900  0.33336000  0.55481000  1
  O  O7  1  0.99983100  0.99988900  0.36043400  1
  O  O8  1  0.99983100  0.99988900  0.13956600  1
  O  O9  1  0.99988900  0.99983100  0.86043400  1
  O  O10  1  0.99988900  0.99983100  0.63956600  1
  O  O11  1  0.66670900  0.33336000  0.94519000  1
  O  O12  1  0.50160500  0.49887300  0.64355700  1
  O  O13  1  0.84289600  0.15700600  0.45101300  1
  O  O14  1  0.50160500  0.49887300  0.85644300  1
  O  O15  1  0.15705200  0.31413700  0.95098200  1
  O  O16  1  0.15705200  0.31413700  0.54901800  1
  O  O17  1  0.99727200  0.49886800  0.64355300  1
  O  O18  1  0.99727200  0.49886800  0.85644700  1
  O  O19  1  0.00356600  0.50179000  0.35636700  1
  O  O20  1  0.00356600  0.50179000  0.14363300  1
  O  O21  1  0.84294100  0.68584600  0.45101100  1
  O  O22  1  0.84294100  0.68584600  0.04898900  1
  O  O23  1  0.49887300  0.50160500  0.14355700  1
  O  O24  1  0.33279800  0.66566200  0.75000000  1
  O  O25  1  0.33336000  0.66670900  0.05481000  1
  O  O26  1  0.49887300  0.50160500  0.35644300  1
  O  O27  1  0.15700600  0.84289600  0.54898700  1
  O  O28  1  0.15700600  0.84289600  0.95101300  1
  O  O29  1  0.33336000  0.66670900  0.44519000  1
  O  O30  1  0.49886800  0.99727200  0.35644700  1
  O  O31  1  0.49886800  0.99727200  0.14355300  1
  O  O32  1  0.68584600  0.84294100  0.95101100  1
  O  O33  1  0.68584600  0.84294100  0.54898900  1
loop_
_geom_bond_atom_site_label_1
_geom_bond_atom_site_label_2
_geom_bond_distance
_geom_bond_site_symmetry_2
Al0 O10 1.819042 1_445
Al0 O2 1.844958 1_555
Al0 O12 1.847526 1_555
Al0 O6 2.001597 1_555
Al0 O27 2.055226 1_545
Al0 O16 2.055726 1_555
Al1 O9 1.819042 1_445
Al1 O3 1.844958 1_555
Al1 O14 1.847526 1_555
Al1 O11 2.001597 1_555
Al1 O28 2.055226 1_545
Al1 O15 2.055726 1_555
Al2 O4 1.726621 1_555
Al2 O19 1.799054 1_655
Al2 O30 1.802391 1_545
Al2 O26 1.802740 1_555
Al3 O0 1.814790 1_555
Al3 O21 1.814960 1_555
Al3 O13 1.815088 1_555
Al3 O6 1.835590 1_555
Al4 O4 1.726621 1_555
Al4 O20 1.799054 1_655
Al4 O31 1.802391 1_545
Al4 O23 1.802740 1_555
Al5 O16 1.908857 1_555
Al5 O0 1.908857 1_555
Al5 O27 1.909151 1_545
Al5 O13 1.909151 1_455
Al5 O33 1.909687 1_445
Al5 O21 1.909687 1_445
Al6 O1 1.908857 1_555
Al6 O15 1.908857 1_554
Al6 O28 1.909151 1_544
Al6 O5 1.909151 1_455
Al6 O32 1.909687 1_444
Al6 O22 1.909687 1_445
Al7 O1 1.814790 1_555
Al7 O22 1.814960 1_555
Al7 O5 1.815088 1_555
Al7 O11 1.835590 1_554
Al8 O9 1.818818 1_545
Al8 O3 1.844910 1_555
Al8 O18 1.847578 1_555
Al8 O11 2.001863 1_555
Al8 O32 2.054907 1_545
Al8 O15 2.055086 1_655
Al9 O10 1.818818 1_545
Al9 O2 1.844910 1_555
Al9 O17 1.847578 1_555
Al9 O6 2.001863 1_555
Al9 O33 2.054907 1_545
Al9 O16 2.055086 1_655
Al10 O9 1.819653 1_555
Al10 O14 1.847901 1_555
Al10 O18 1.847997 1_555
Al10 O11 1.998642 1_555
Al10 O28 2.051539 1_655
Al10 O32 2.052258 1_555
Al11 O10 1.819653 1_555
Al11 O12 1.847901 1_555
Al11 O17 1.847997 1_555
Al11 O6 1.998642 1_555
Al11 O27 2.051539 1_655
Al11 O33 2.052258 1_555
Al12 O8 1.819042 1_445
Al12 O20 1.844958 1_555
Al12 O23 1.847526 1_555
Al12 O25 2.001597 1_555
Al12 O5 2.055226 1_455
Al12 O1 2.055726 1_555
Al13 O7 1.819042 1_445
Al13 O19 1.844958 1_555
Al13 O26 1.847526 1_555
Al13 O29 2.001597 1_555
Al13 O13 2.055226 1_455
Al13 O0 2.055726 1_555
Al14 O8 1.818818 1_455
Al14 O20 1.844910 1_555
Al14 O31 1.847578 1_555
Al14 O25 2.001863 1_555
Al14 O22 2.054907 1_455
Al14 O1 2.055086 1_565
Al15 O24 1.726621 1_555
Al15 O3 1.799054 1_565
Al15 O18 1.802391 1_455
Al15 O14 1.802740 1_555
Al16 O24 1.726621 1_555
Al16 O2 1.799054 1_565
Al16 O17 1.802391 1_455
Al16 O12 1.802740 1_555
Al17 O16 1.814790 1_555
Al17 O33 1.814960 1_555
Al17 O27 1.815088 1_555
Al17 O29 1.835590 1_555
Al18 O15 1.814790 1_555
Al18 O32 1.814960 1_555
Al18 O28 1.815088 1_555
Al18 O25 1.835590 1_556
Al19 O7 1.818818 1_455
Al19 O19 1.844910 1_555
Al19 O30 1.847578 1_555
Al19 O29 2.001863 1_555
Al19 O21 2.054907 1_455
Al19 O0 2.055086 1_565
Al20 O7 1.819653 1_555
Al20 O26 1.847901 1_555
Al20 O30 1.847997 1_555
Al20 O29 1.998642 1_555
Al20 O13 2.051539 1_565
Al20 O21 2.052258 1_555
Al21 O8 1.819653 1_555
Al21 O23 1.847901 1_555
Al21 O31 1.847997 1_555
Al21 O25 1.998642 1_555
Al21 O5 2.051539 1_565
Al21 O22 2.052258 1_555
