# generated using pymatgen
data_LiV(CO3)2
_symmetry_space_group_name_H-M   'P 1'
_cell_length_a   6.05864022
_cell_length_b   6.05864022
_cell_length_c   6.05863970
_cell_angle_alpha   45.31456246
_cell_angle_beta   45.31456246
_cell_angle_gamma   45.31456430
_symmetry_Int_Tables_number   1
_chemical_formula_structural   LiV(CO3)2
_chemical_formula_sum   'Li1 V1 C2 O6'
_cell_volume   102.38946693
_cell_formula_units_Z   1
loop_
 _symmetry_equiv_pos_site_id
 _symmetry_equiv_pos_as_xyz
  1  'x, y, z'
loop_
 _atom_site_type_symbol
 _atom_site_label
 _atom_site_symmetry_multiplicity
 _atom_site_fract_x
 _atom_site_fract_y
 _atom_site_fract_z
 _atom_site_occupancy
  Li  Li0  1  0.50000000  0.50000000  0.50000000  1
  V  V0  1  0.00000000  0.00000000  0.00000000  1
  C  C0  1  0.25537500  0.25537500  0.25537500  1
  C  C1  1  0.74462500  0.74462500  0.74462500  1
  O  O0  1  0.45541600  0.00819700  0.77365400  1
  O  O1  1  0.99180300  0.54458400  0.22634600  1
  O  O2  1  0.54458400  0.22634600  0.99180300  1
  O  O3  1  0.77365400  0.45541600  0.00819700  1
  O  O4  1  0.22634600  0.99180300  0.54458400  1
  O  O5  1  0.00819700  0.77365400  0.45541600  1
loop_
_geom_bond_atom_site_label_1
_geom_bond_atom_site_label_2
_geom_bond_distance
_geom_bond_site_symmetry_2
Li0 O2 2.292223 1_555
Li0 O3 2.292223 1_555
Li0 O0 2.292223 1_555
Li0 O1 2.292223 1_555
Li0 O4 2.292223 1_555
Li0 O5 2.292223 1_555
C0 O4 1.295185 1_545
C0 O2 1.295185 1_554
C0 O1 1.295185 1_455
C1 O5 1.295185 1_655
C1 O3 1.295185 1_556
C1 O0 1.295185 1_565
O0 V0 2.066764 1_556
O1 V0 2.066764 1_665
O2 V0 2.066764 1_656
O3 V0 2.066764 1_655
O4 V0 2.066764 1_566
O5 V0 2.066764 1_565
