# generated using pymatgen
data_LiVPO5
_symmetry_space_group_name_H-M   'P 1'
_cell_length_a   11.20317300
_cell_length_b   6.06026300
_cell_length_c   6.33390293
_cell_angle_alpha   79.81562048
_cell_angle_beta   90.00000000
_cell_angle_gamma   90.00000000
_symmetry_Int_Tables_number   1
_chemical_formula_structural   LiVPO5
_chemical_formula_sum   'Li4 V4 P4 O20'
_cell_volume   423.25941468
_cell_formula_units_Z   4
loop_
 _symmetry_equiv_pos_site_id
 _symmetry_equiv_pos_as_xyz
  1  'x, y, z'
loop_
 _atom_site_type_symbol
 _atom_site_label
 _atom_site_symmetry_multiplicity
 _atom_site_fract_x
 _atom_site_fract_y
 _atom_site_fract_z
 _atom_site_occupancy
  Li  Li0  1  0.61305100  0.38957100  0.96911900  1
  Li  Li1  1  0.88694900  0.88957100  0.96911900  1
  Li  Li2  1  0.11305100  0.11042900  0.03088100  1
  Li  Li3  1  0.38694900  0.61042900  0.03088100  1
  V  V0  1  0.83072900  0.48434600  0.29860200  1
  V  V1  1  0.66927100  0.98434600  0.29860200  1
  V  V2  1  0.33072900  0.01565400  0.70139800  1
  V  V3  1  0.16927100  0.51565400  0.70139800  1
  P  P0  1  0.40106000  0.07543700  0.20419000  1
  P  P1  1  0.09894000  0.57543700  0.20419000  1
  P  P2  1  0.90106000  0.42456300  0.79581000  1
  P  P3  1  0.59894000  0.92456300  0.79581000  1
  O  O0  1  0.16631300  0.45594700  0.04193500  1
  O  O1  1  0.45037700  0.30473200  0.10754700  1
  O  O2  1  0.33368700  0.95594700  0.04193500  1
  O  O3  1  0.04962300  0.80473200  0.10754700  1
  O  O4  1  0.71510000  0.26393500  0.26837300  1
  O  O5  1  0.99289500  0.41175900  0.29875400  1
  O  O6  1  0.78490000  0.76393500  0.26837300  1
  O  O7  1  0.50710500  0.91175900  0.29875400  1
  O  O8  1  0.31512300  0.08975300  0.39433800  1
  O  O9  1  0.18487700  0.58975300  0.39433800  1
  O  O10  1  0.81512300  0.41024700  0.60566200  1
  O  O11  1  0.68487700  0.91024700  0.60566200  1
  O  O12  1  0.49289500  0.08824100  0.70124600  1
  O  O13  1  0.21510000  0.23606500  0.73162700  1
  O  O14  1  0.00710500  0.58824100  0.70124600  1
  O  O15  1  0.28490000  0.73606500  0.73162700  1
  O  O16  1  0.95037700  0.19526800  0.89245300  1
  O  O17  1  0.66631300  0.04405300  0.95806500  1
  O  O18  1  0.54962300  0.69526800  0.89245300  1
  O  O19  1  0.83368700  0.54405300  0.95806500  1
loop_
_geom_bond_atom_site_label_1
_geom_bond_atom_site_label_2
_geom_bond_distance
_geom_bond_site_symmetry_2
Li0 O18 1.963353 1_555
Li0 O1 2.048187 1_556
Li0 O17 2.190284 1_555
Li0 O4 2.229158 1_556
Li1 O16 1.963353 1_565
Li1 O3 2.048187 1_656
Li1 O19 2.190284 1_555
Li1 O6 2.229158 1_556
Li2 O3 1.963353 1_545
Li2 O16 2.048187 1_454
Li2 O0 2.190284 1_555
Li2 O13 2.229158 1_554
Li3 O1 1.963353 1_555
Li3 O18 2.048187 1_554
Li3 O2 2.190284 1_555
Li3 O15 2.229158 1_554
O0 P1 1.553528 1_555
O0 V3 2.123292 1_554
O1 P0 1.519907 1_555
O2 P0 1.553528 1_565
O2 V2 2.123292 1_564
O3 P1 1.519907 1_555
O4 V1 1.748279 1_545
O4 V0 1.894576 1_555
O5 P1 1.594998 1_655
O5 V0 1.869232 1_555
O6 V0 1.748279 1_555
O6 V1 1.894576 1_555
O7 P0 1.594998 1_565
O7 V1 1.869232 1_555
O8 P0 1.556254 1_555
O8 V2 1.925087 1_555
O9 P1 1.556254 1_555
O9 V3 1.925087 1_555
O10 P2 1.556254 1_555
O10 V0 1.925087 1_555
O11 P3 1.556254 1_555
O11 V1 1.925087 1_555
O12 P3 1.594998 1_545
O12 V2 1.869232 1_555
O13 V3 1.748279 1_555
O13 V2 1.894576 1_555
O14 P2 1.594998 1_455
O14 V3 1.869232 1_555
O15 V2 1.748279 1_565
O15 V3 1.894576 1_555
O16 P2 1.519907 1_555
O17 P3 1.553528 1_545
O17 V1 2.123292 1_546
O18 P3 1.519907 1_555
O19 P2 1.553528 1_555
O19 V0 2.123292 1_556
