# generated using pymatgen
data_LiNiPO4
_symmetry_space_group_name_H-M   'P 1'
_cell_length_a   9.88725748
_cell_length_b   9.88725748
_cell_length_c   23.36069800
_cell_angle_alpha   90.00000000
_cell_angle_beta   90.00000000
_cell_angle_gamma   119.99999651
_symmetry_Int_Tables_number   1
_chemical_formula_structural   LiNiPO4
_chemical_formula_sum   'Li24 Ni24 P24 O96'
_cell_volume   1977.73523049
_cell_formula_units_Z   24
loop_
 _symmetry_equiv_pos_site_id
 _symmetry_equiv_pos_as_xyz
  1  'x, y, z'
loop_
 _atom_site_type_symbol
 _atom_site_label
 _atom_site_symmetry_multiplicity
 _atom_site_fract_x
 _atom_site_fract_y
 _atom_site_fract_z
 _atom_site_occupancy
  Li  Li0  1  0.02164800  0.98027100  0.69610100  1
  Li  Li1  1  0.02822900  0.57398700  0.03693600  1
  Li  Li2  1  0.05384200  0.46133000  0.19503700  1
  Li  Li3  1  0.04365000  0.48113900  0.84926100  1
  Li  Li4  1  0.40748800  0.94615800  0.86170300  1
  Li  Li5  1  0.43748900  0.95635000  0.51592800  1
  Li  Li6  1  0.01972900  0.04137800  0.02943400  1
  Li  Li7  1  0.04137800  0.02164800  0.86276800  1
  Li  Li8  1  0.54575900  0.97177100  0.70360200  1
  Li  Li9  1  0.42601300  0.45424100  0.37026900  1
  Li  Li10  1  0.51886100  0.56251100  0.18259400  1
  Li  Li11  1  0.53867000  0.59251200  0.52837000  1
  Li  Li12  1  0.46133000  0.40748800  0.02837000  1
  Li  Li13  1  0.48113900  0.43748900  0.68259400  1
  Li  Li14  1  0.57398700  0.54575900  0.87026900  1
  Li  Li15  1  0.45424100  0.02822900  0.20360200  1
  Li  Li16  1  0.95862200  0.97835200  0.36276800  1
  Li  Li17  1  0.98027100  0.95862200  0.52943400  1
  Li  Li18  1  0.56251100  0.04365000  0.01592800  1
  Li  Li19  1  0.59251200  0.05384200  0.36170300  1
  Li  Li20  1  0.95635000  0.51886100  0.34926100  1
  Li  Li21  1  0.94615800  0.53867000  0.69503700  1
  Li  Li22  1  0.97177100  0.42601300  0.53693600  1
  Li  Li23  1  0.97835200  0.01972900  0.19610100  1
  Ni  Ni0  1  0.11006700  0.82564600  0.27164800  1
  Ni  Ni1  1  0.08770900  0.76198700  0.92310800  1
  Ni  Ni2  1  0.12728600  0.75947400  0.59648600  1
  Ni  Ni3  1  0.31472600  0.66489500  0.75554000  1
  Ni  Ni4  1  0.33510500  0.64983100  0.08887400  1
  Ni  Ni5  1  0.35016900  0.68527400  0.42220700  1
  Ni  Ni6  1  0.17435400  0.28442100  0.60498100  1
  Ni  Ni7  1  0.24052600  0.36781200  0.92982000  1
  Ni  Ni8  1  0.23801300  0.32572200  0.25644100  1
  Ni  Ni9  1  0.63218800  0.87271400  0.26315300  1
  Ni  Ni10  1  0.67427800  0.91229100  0.58977400  1
  Ni  Ni11  1  0.28442100  0.11006700  0.43831500  1
  Ni  Ni12  1  0.71557900  0.88993300  0.93831500  1
  Ni  Ni13  1  0.32572200  0.08770900  0.08977400  1
  Ni  Ni14  1  0.36781200  0.12728600  0.76315300  1
  Ni  Ni15  1  0.76198700  0.67427800  0.75644100  1
  Ni  Ni16  1  0.75947400  0.63218800  0.42982000  1
  Ni  Ni17  1  0.82564600  0.71557900  0.10498100  1
  Ni  Ni18  1  0.64983100  0.31472600  0.92220700  1
  Ni  Ni19  1  0.66489500  0.35016900  0.58887400  1
  Ni  Ni20  1  0.68527400  0.33510500  0.25554000  1
  Ni  Ni21  1  0.87271400  0.24052600  0.09648600  1
  Ni  Ni22  1  0.91229100  0.23801300  0.42310800  1
  Ni  Ni23  1  0.88993300  0.17435400  0.77164800  1
  P  P0  1  0.09501800  0.78731200  0.79092100  1
  P  P1  1  0.08516500  0.75829900  0.46653900  1
  P  P2  1  0.13266800  0.77028800  0.13899400  1
  P  P3  1  0.28402300  0.64523900  0.29383800  1
  P  P4  1  0.36121700  0.71597700  0.96050400  1
  P  P5  1  0.35476100  0.63878300  0.62717100  1
  P  P6  1  0.22971200  0.36238000  0.47232700  1
  P  P7  1  0.21268800  0.30770600  0.12425500  1
  P  P8  1  0.24170100  0.32686600  0.79987200  1
  P  P9  1  0.63762000  0.86733200  0.80566000  1
  P  P10  1  0.67313400  0.91483500  0.13320600  1
  P  P11  1  0.69229400  0.90498200  0.45758800  1
  P  P12  1  0.30770600  0.09501800  0.95758800  1
  P  P13  1  0.32686600  0.08516500  0.63320600  1
  P  P14  1  0.36238000  0.13266800  0.30566000  1
  P  P15  1  0.75829900  0.67313400  0.29987200  1
  P  P16  1  0.78731200  0.69229400  0.62425500  1
  P  P17  1  0.77028800  0.63762000  0.97232700  1
  P  P18  1  0.64523900  0.36121700  0.12717100  1
  P  P19  1  0.63878300  0.28402300  0.46050400  1
  P  P20  1  0.71597700  0.35476100  0.79383800  1
  P  P21  1  0.86733200  0.22971200  0.63899400  1
  P  P22  1  0.91483500  0.24170100  0.96653900  1
  P  P23  1  0.90498200  0.21268800  0.29092100  1
  O  O0  1  0.04233700  0.77565000  0.08523800  1
  O  O1  1  0.09336700  0.92085700  0.46859800  1
  O  O2  1  0.01667800  0.68794400  0.84498200  1
  O  O3  1  0.14601000  0.98400100  0.92896500  1
  O  O4  1  0.03510800  0.75967000  0.19215000  1
  O  O5  1  0.01697200  0.67273400  0.52388200  1
  O  O6  1  0.24355300  0.93964500  0.80990100  1
  O  O7  1  0.13634800  0.65780300  0.30611800  1
  O  O8  1  0.12690000  0.68678700  0.74838400  1
  O  O9  1  0.31597400  0.97203700  0.58448500  1
  O  O10  1  0.29892300  0.91745400  0.14047400  1
  O  O11  1  0.15266200  0.62453200  0.13379700  1
  O  O12  1  0.25438500  0.79175800  0.45861300  1
  O  O13  1  0.18991300  0.60466300  0.60939100  1
  O  O14  1  0.08254600  0.38146900  0.47380700  1
  O  O15  1  0.27838000  0.75164300  0.91111900  1
  O  O16  1  0.02796300  0.34393700  0.91781800  1
  O  O17  1  0.06035500  0.30390800  0.14323400  1
  O  O18  1  0.01599900  0.16200900  0.26229800  1
  O  O19  1  0.07914300  0.17251000  0.80193100  1
  O  O20  1  0.25536200  0.67022600  0.01444000  1
  O  O21  1  0.24835700  0.52673700  0.24445200  1
  O  O22  1  0.32977400  0.58513700  0.34777400  1
  O  O23  1  0.20824200  0.46262700  0.79194600  1
  O  O24  1  0.41486300  0.74463800  0.68110700  1
  O  O25  1  0.41475100  0.81008700  0.27605800  1
  O  O26  1  0.47187000  0.84733800  0.80046400  1
  O  O27  1  0.31321300  0.44011300  0.08171700  1
  O  O28  1  0.34219700  0.47854500  0.63945100  1
  O  O29  1  0.37546800  0.52813000  0.46713100  1
  O  O30  1  0.24033000  0.27543800  0.52548300  1
  O  O31  1  0.39533700  0.58524900  0.94272500  1
  O  O32  1  0.47326300  0.72162000  0.57778500  1
  O  O33  1  0.52145500  0.86365200  0.97278500  1
  O  O34  1  0.55988700  0.87310000  0.41505100  1
  O  O35  1  0.16200900  0.14601000  0.09563200  1
  O  O36  1  0.22435000  0.26668700  0.41857100  1
  O  O37  1  0.31205600  0.32873300  0.17831600  1
  O  O38  1  0.17251000  0.09336700  0.63526400  1
  O  O39  1  0.32726600  0.34423800  0.85721500  1
  O  O40  1  0.53737300  0.74561500  0.12527900  1
  O  O41  1  0.30390800  0.24355300  0.97656800  1
  O  O42  1  0.65576200  0.98302800  0.19054800  1
  O  O43  1  0.34393700  0.31597400  0.75115200  1
  O  O44  1  0.38146900  0.29892300  0.30714100  1
  O  O45  1  0.67126700  0.98332200  0.51164900  1
  O  O46  1  0.72456200  0.96489200  0.85881600  1
  O  O47  1  0.26668700  0.04233700  0.25190400  1
  O  O48  1  0.73331300  0.95766300  0.75190400  1
  O  O49  1  0.27543800  0.03510800  0.35881600  1
  O  O50  1  0.32873300  0.01667800  0.01164900  1
  O  O51  1  0.61853100  0.70107700  0.80714100  1
  O  O52  1  0.65606300  0.68402600  0.25115200  1
  O  O53  1  0.34423800  0.01697200  0.69054800  1
  O  O54  1  0.69609200  0.75644700  0.47656800  1
  O  O55  1  0.46262700  0.25438500  0.62527900  1
  O  O56  1  0.67273400  0.65576200  0.35721500  1
  O  O57  1  0.82749000  0.90663300  0.13526400  1
  O  O58  1  0.68794400  0.67126700  0.67831600  1
  O  O59  1  0.77565000  0.73331300  0.91857100  1
  O  O60  1  0.83799100  0.85399000  0.59563200  1
  O  O61  1  0.44011300  0.12690000  0.91505100  1
  O  O62  1  0.47854500  0.13634800  0.47278500  1
  O  O63  1  0.52673700  0.27838000  0.07778500  1
  O  O64  1  0.60466300  0.41475100  0.44272500  1
  O  O65  1  0.75967000  0.72456200  0.02548300  1
  O  O66  1  0.62453200  0.47187000  0.96713100  1
  O  O67  1  0.65780300  0.52145500  0.13945100  1
  O  O68  1  0.68678700  0.55988700  0.58171700  1
  O  O69  1  0.52813000  0.15266200  0.30046400  1
  O  O70  1  0.58524900  0.18991300  0.77605800  1
  O  O71  1  0.58513700  0.25536200  0.18110700  1
  O  O72  1  0.79175800  0.53737300  0.29194600  1
  O  O73  1  0.67022600  0.41486300  0.84777400  1
  O  O74  1  0.75164300  0.47326300  0.74445200  1
  O  O75  1  0.74463800  0.32977400  0.51444000  1
  O  O76  1  0.92085700  0.82749000  0.30193100  1
  O  O77  1  0.98400100  0.83799100  0.76229800  1
  O  O78  1  0.93964500  0.69609200  0.64323400  1
  O  O79  1  0.97203700  0.65606300  0.41781800  1
  O  O80  1  0.72162000  0.24835700  0.41111900  1
  O  O81  1  0.91745400  0.61853100  0.97380700  1
  O  O82  1  0.81008700  0.39533700  0.10939100  1
  O  O83  1  0.74561500  0.20824200  0.95861300  1
  O  O84  1  0.84733800  0.37546800  0.63379700  1
  O  O85  1  0.70107700  0.08254600  0.64047400  1
  O  O86  1  0.68402600  0.02796300  0.08448500  1
  O  O87  1  0.87310000  0.31321300  0.24838400  1
  O  O88  1  0.86365200  0.34219700  0.80611800  1
  O  O89  1  0.75644700  0.06035500  0.30990100  1
  O  O90  1  0.98302800  0.32726600  0.02388200  1
  O  O91  1  0.96489200  0.24033000  0.69215000  1
  O  O92  1  0.85399000  0.01599900  0.42896500  1
  O  O93  1  0.98332200  0.31205600  0.34498200  1
  O  O94  1  0.90663300  0.07914300  0.96859800  1
  O  O95  1  0.95766300  0.22435000  0.58523800  1
loop_
_geom_bond_atom_site_label_1
_geom_bond_atom_site_label_2
_geom_bond_distance
_geom_bond_site_symmetry_2
Li0 O38 1.956312 1_565
Li0 O77 1.996314 1_455
Li1 O81 2.012657 1_454
Li1 O20 2.021875 1_555
Li1 O0 2.233866 1_555
Li1 O90 2.270060 1_455
Li1 O11 2.503706 1_555
Li1 O82 2.612869 1_455
Li2 O17 1.997863 1_555
Li2 O11 2.007101 1_555
Li2 O21 2.050810 1_555
Li2 O87 2.067413 1_455
Li3 O88 1.904048 1_455
Li3 O16 2.053975 1_555
Li3 O23 2.184577 1_555
Li3 O2 2.192564 1_555
Li4 O6 1.997848 1_555
Li4 O26 2.007084 1_555
Li4 O15 2.050823 1_555
Li4 O61 2.067427 1_565
Li5 O62 1.904048 1_565
Li5 O9 2.053975 1_555
Li5 O12 2.184577 1_555
Li5 O45 2.192574 1_555
Li6 O94 1.956291 1_454
Li6 O35 1.996330 1_555
Li7 O19 1.956314 1_555
Li7 O3 1.996308 1_545
Li8 O85 2.012635 1_565
Li8 O24 2.021870 1_555
Li8 O48 2.233858 1_555
Li8 O53 2.270069 1_565
Li8 O26 2.503727 1_555
Li8 O70 2.612890 1_565
Li9 O44 2.012633 1_555
Li9 O22 2.021886 1_555
Li9 O36 2.233863 1_555
Li9 O56 2.270063 1_555
Li9 O29 2.503731 1_555
Li9 O64 2.612875 1_555
Li10 O67 1.904047 1_555
Li10 O52 2.053993 1_555
Li10 O40 2.184577 1_555
Li10 O37 2.192569 1_555
Li11 O54 1.997848 1_555
Li11 O29 2.007084 1_555
Li11 O32 2.050809 1_555
Li11 O68 2.067413 1_555
Li12 O41 1.997848 1_554
Li12 O66 2.007084 1_554
Li12 O63 2.050809 1_555
Li12 O27 2.067413 1_555
Li13 O28 1.904047 1_555
Li13 O43 2.053993 1_555
Li13 O55 2.184577 1_555
Li13 O58 2.192569 1_555
Li14 O51 2.012633 1_555
Li14 O73 2.021886 1_555
Li14 O59 2.233863 1_555
Li14 O39 2.270063 1_555
Li14 O66 2.503731 1_555
Li14 O31 2.612875 1_555
Li15 O10 2.012635 1_545
Li15 O71 2.021870 1_555
Li15 O47 2.233858 1_555
Li15 O42 2.270069 1_545
Li15 O69 2.503727 1_555
Li15 O25 2.612890 1_545
Li16 O76 1.956314 1_555
Li16 O92 1.996308 1_565
Li17 O1 1.956291 1_655
Li17 O60 1.996330 1_555
Li18 O33 1.904048 1_544
Li18 O86 2.053975 1_555
Li18 O83 2.184577 1_554
Li18 O50 2.192574 1_555
Li19 O89 1.997848 1_555
Li19 O69 2.007084 1_555
Li19 O80 2.050823 1_555
Li19 O34 2.067427 1_545
Li20 O7 1.904048 1_655
Li20 O79 2.053975 1_555
Li20 O72 2.184577 1_555
Li20 O93 2.192564 1_555
Li21 O78 1.997863 1_555
Li21 O84 2.007101 1_555
Li21 O74 2.050810 1_555
Li21 O8 2.067413 1_655
Li22 O14 2.012657 1_655
Li22 O75 2.021875 1_555
Li22 O95 2.233866 1_555
Li22 O5 2.270060 1_655
Li22 O84 2.503706 1_555
Li22 O13 2.612869 1_655
Li23 O57 1.956312 1_545
Li23 O18 1.996314 1_655
Ni0 O47 1.970588 1_565
Ni0 O7 1.975125 1_555
Ni0 O4 1.985013 1_555
Ni0 O76 2.008650 1_455
Ni1 O15 1.958504 1_555
Ni1 O2 1.961107 1_555
Ni1 O81 1.964835 1_455
Ni1 O3 1.975896 1_555
Ni2 O13 1.940363 1_555
Ni2 O78 1.965874 1_455
Ni2 O5 1.966323 1_555
Ni2 O9 2.013753 1_555
Ni3 O23 1.930214 1_555
Ni3 O24 1.960797 1_555
Ni3 O8 1.981294 1_555
Ni3 O26 1.991639 1_555
Ni4 O40 1.930203 1_555
Ni4 O20 1.960821 1_555
Ni4 O27 1.981296 1_555
Ni4 O11 1.991627 1_555
Ni5 O12 1.930213 1_555
Ni5 O22 1.960796 1_555
Ni5 O34 1.981294 1_555
Ni5 O29 1.991639 1_555
Ni6 O95 1.970583 1_455
Ni6 O28 1.975125 1_555
Ni6 O30 1.985013 1_555
Ni6 O38 2.008650 1_555
Ni7 O31 1.940356 1_555
Ni7 O41 1.965874 1_555
Ni7 O39 1.966343 1_555
Ni7 O16 2.013756 1_555
Ni8 O21 1.958504 1_555
Ni8 O37 1.961086 1_555
Ni8 O44 1.964849 1_555
Ni8 O18 1.975896 1_555
Ni9 O25 1.940354 1_555
Ni9 O89 1.965874 1_565
Ni9 O42 1.966343 1_555
Ni9 O52 2.013753 1_555
Ni10 O32 1.958504 1_555
Ni10 O45 1.961083 1_555
Ni10 O85 1.964849 1_565
Ni10 O60 1.975897 1_555
Ni11 O36 1.970588 1_555
Ni11 O62 1.975125 1_555
Ni11 O49 1.985035 1_555
Ni11 O1 2.008650 1_545
Ni12 O59 1.970588 1_555
Ni12 O33 1.975125 1_555
Ni12 O46 1.985035 1_555
Ni12 O94 2.008650 1_565
Ni13 O63 1.958504 1_555
Ni13 O50 1.961083 1_555
Ni13 O10 1.964849 1_545
Ni13 O35 1.975897 1_555
Ni14 O70 1.940354 1_555
Ni14 O6 1.965874 1_545
Ni14 O53 1.966343 1_555
Ni14 O43 2.013753 1_555
Ni15 O74 1.958504 1_555
Ni15 O58 1.961086 1_555
Ni15 O51 1.964849 1_555
Ni15 O77 1.975896 1_555
Ni16 O64 1.940356 1_555
Ni16 O54 1.965874 1_555
Ni16 O56 1.966343 1_555
Ni16 O79 2.013756 1_555
Ni17 O0 1.970583 1_655
Ni17 O67 1.975125 1_555
Ni17 O65 1.985013 1_555
Ni17 O57 2.008650 1_555
Ni18 O83 1.930213 1_555
Ni18 O73 1.960796 1_555
Ni18 O61 1.981294 1_555
Ni18 O66 1.991639 1_555
Ni19 O55 1.930203 1_555
Ni19 O75 1.960821 1_555
Ni19 O68 1.981296 1_555
Ni19 O84 1.991627 1_555
Ni20 O72 1.930214 1_555
Ni20 O71 1.960797 1_555
Ni20 O87 1.981294 1_555
Ni20 O69 1.991639 1_555
Ni21 O82 1.940363 1_555
Ni21 O17 1.965874 1_655
Ni21 O90 1.966323 1_555
Ni21 O86 2.013753 1_555
Ni22 O80 1.958504 1_555
Ni22 O93 1.961107 1_555
Ni22 O14 1.964835 1_655
Ni22 O92 1.975896 1_555
Ni23 O48 1.970588 1_545
Ni23 O88 1.975125 1_555
Ni23 O91 1.985013 1_555
Ni23 O19 2.008650 1_655
O0 P2 1.557181 1_555
O1 P1 1.569016 1_555
O2 P0 1.548917 1_555
O3 P12 1.566214 1_565
O4 P2 1.543431 1_555
O5 P1 1.547374 1_555
O6 P0 1.552401 1_555
O7 P3 1.552739 1_555
O8 P0 1.545307 1_555
O9 P13 1.561295 1_565
O10 P2 1.558418 1_555
O11 P2 1.554206 1_555
O12 P1 1.545821 1_555
O13 P5 1.546943 1_555
O14 P6 1.558418 1_555
O15 P4 1.554007 1_555
O16 P22 1.561295 1_455
O17 P7 1.552394 1_555
O18 P23 1.566214 1_455
O19 P8 1.569016 1_555
O20 P4 1.553752 1_554
O21 P3 1.554018 1_555
O22 P3 1.553741 1_555
O23 P8 1.545821 1_555
O24 P5 1.553751 1_555
O25 P3 1.546943 1_555
O26 P9 1.554204 1_555
O27 P7 1.545322 1_555
O28 P5 1.552729 1_555
O29 P6 1.554204 1_555
O30 P6 1.543431 1_555
O31 P4 1.546936 1_555
O32 P5 1.554020 1_555
O33 P4 1.552738 1_555
O34 P11 1.545307 1_555
O35 P7 1.566214 1_555
O36 P6 1.557181 1_555
O37 P7 1.548919 1_555
O38 P13 1.569015 1_555
O39 P8 1.547374 1_555
O40 P10 1.545823 1_555
O41 P12 1.552400 1_555
O42 P10 1.547354 1_555
O43 P8 1.561278 1_555
O44 P14 1.558419 1_555
O45 P11 1.548913 1_555
O46 P9 1.543431 1_555
O47 P14 1.557181 1_555
O48 P9 1.557181 1_555
O49 P14 1.543431 1_555
O50 P12 1.548913 1_554
O51 P9 1.558419 1_555
O52 P15 1.561278 1_555
O53 P13 1.547354 1_555
O54 P11 1.552400 1_555
O55 P13 1.545823 1_555
O56 P15 1.547374 1_555
O57 P10 1.569015 1_555
O58 P16 1.548919 1_555
O59 P17 1.557181 1_555
O60 P16 1.566214 1_555
O61 P12 1.545307 1_555
O62 P19 1.552738 1_555
O63 P18 1.554020 1_555
O64 P19 1.546936 1_555
O65 P17 1.543431 1_554
O66 P17 1.554204 1_555
O67 P18 1.552729 1_555
O68 P16 1.545322 1_555
O69 P14 1.554204 1_555
O70 P20 1.546943 1_555
O71 P18 1.553751 1_555
O72 P15 1.545821 1_555
O73 P20 1.553741 1_555
O74 P20 1.554018 1_555
O75 P19 1.553752 1_555
O76 P15 1.569016 1_555
O77 P0 1.566214 1_655
O78 P16 1.552394 1_555
O79 P1 1.561295 1_655
O80 P19 1.554007 1_555
O81 P17 1.558418 1_555
O82 P18 1.546943 1_555
O83 P22 1.545821 1_555
O84 P21 1.554206 1_555
O85 P21 1.558418 1_555
O86 P10 1.561295 1_545
O87 P23 1.545307 1_555
O88 P20 1.552739 1_555
O89 P23 1.552401 1_555
O90 P22 1.547374 1_554
O91 P21 1.543431 1_555
O92 P11 1.566214 1_545
O93 P23 1.548917 1_555
O94 P22 1.569016 1_555
O95 P21 1.557181 1_555
