# generated using pymatgen
data_Li4Ti2V7O18
_symmetry_space_group_name_H-M   'P 1'
_cell_length_a   2.96809100
_cell_length_b   9.11047800
_cell_length_c   25.12551800
_cell_angle_alpha   90.00000000
_cell_angle_beta   90.00000000
_cell_angle_gamma   90.00000000
_symmetry_Int_Tables_number   1
_chemical_formula_structural   Li4Ti2V7O18
_chemical_formula_sum   'Li8 Ti4 V14 O36'
_cell_volume   679.41229200
_cell_formula_units_Z   2
loop_
 _symmetry_equiv_pos_site_id
 _symmetry_equiv_pos_as_xyz
  1  'x, y, z'
loop_
 _atom_site_type_symbol
 _atom_site_label
 _atom_site_symmetry_multiplicity
 _atom_site_fract_x
 _atom_site_fract_y
 _atom_site_fract_z
 _atom_site_occupancy
  Li  Li0  1  0.50000000  0.94254400  0.98901000  1
  Li  Li1  1  0.50000000  0.93422600  0.19522800  1
  Li  Li2  1  0.50000000  0.06577400  0.69522800  1
  Li  Li3  1  0.50000000  0.05745600  0.48901000  1
  Li  Li4  1  0.50000000  0.44406000  0.51059300  1
  Li  Li5  1  0.50000000  0.43982100  0.30791000  1
  Li  Li6  1  0.50000000  0.56017900  0.80791000  1
  Li  Li7  1  0.50000000  0.55594000  0.01059300  1
  Ti  Ti0  1  0.50000000  0.73948300  0.10189300  1
  Ti  Ti1  1  0.50000000  0.26051700  0.60189300  1
  Ti  Ti2  1  0.50000000  0.24567600  0.39873900  1
  Ti  Ti3  1  0.50000000  0.75432400  0.89873900  1
  V  V0  1  0.50000000  0.75050800  0.50027600  1
  V  V1  1  0.50000000  0.76250700  0.30854000  1
  V  V2  1  0.00000000  0.90539900  0.58552500  1
  V  V3  1  0.00000000  0.90057900  0.80480800  1
  V  V4  1  0.00000000  0.09942100  0.30480800  1
  V  V5  1  0.00000000  0.09460100  0.08552500  1
  V  V6  1  0.50000000  0.23749300  0.80854000  1
  V  V7  1  0.50000000  0.24949200  0.00027600  1
  V  V8  1  0.50000000  0.26372000  0.18994000  1
  V  V9  1  0.00000000  0.40259500  0.91434700  1
  V  V10  1  0.00000000  0.40058000  0.69512600  1
  V  V11  1  0.00000000  0.59942000  0.19512600  1
  V  V12  1  0.00000000  0.59740500  0.41434700  1
  V  V13  1  0.50000000  0.73628000  0.68994000  1
  O  O0  1  0.50000000  0.74717800  0.42440900  1
  O  O1  1  0.50000000  0.75575800  0.57553900  1
  O  O2  1  0.00000000  0.81477800  0.94192700  1
  O  O3  1  0.00000000  0.79141200  0.15914500  1
  O  O4  1  0.00000000  0.86594700  0.66323700  1
  O  O5  1  0.50000000  0.85151700  0.75606400  1
  O  O6  1  0.00000000  0.89959800  0.50378300  1
  O  O7  1  0.00000000  0.89367500  0.28505400  1
  O  O8  1  0.50000000  0.94070100  0.85428700  1
  O  O9  1  0.50000000  0.94550600  0.08387700  1
  O  O10  1  0.50000000  0.05449400  0.58387700  1
  O  O11  1  0.50000000  0.05929900  0.35428700  1
  O  O12  1  0.00000000  0.10632500  0.78505400  1
  O  O13  1  0.00000000  0.10040200  0.00378300  1
  O  O14  1  0.50000000  0.14848300  0.25606400  1
  O  O15  1  0.00000000  0.13405300  0.16323700  1
  O  O16  1  0.00000000  0.20858800  0.65914500  1
  O  O17  1  0.00000000  0.18522200  0.44192700  1
  O  O18  1  0.50000000  0.24424200  0.07553900  1
  O  O19  1  0.50000000  0.25282200  0.92440900  1
  O  O20  1  0.00000000  0.31535200  0.55819700  1
  O  O21  1  0.00000000  0.29439400  0.34235600  1
  O  O22  1  0.00000000  0.36860600  0.83615500  1
  O  O23  1  0.50000000  0.34977900  0.74151200  1
  O  O24  1  0.00000000  0.39864400  0.99632000  1
  O  O25  1  0.00000000  0.39641300  0.21430000  1
  O  O26  1  0.50000000  0.44170100  0.64394500  1
  O  O27  1  0.50000000  0.44737200  0.41703700  1
  O  O28  1  0.50000000  0.55262800  0.91703700  1
  O  O29  1  0.50000000  0.55829900  0.14394500  1
  O  O30  1  0.00000000  0.60358700  0.71430000  1
  O  O31  1  0.00000000  0.60135600  0.49632000  1
  O  O32  1  0.50000000  0.65022100  0.24151200  1
  O  O33  1  0.00000000  0.63139400  0.33615500  1
  O  O34  1  0.00000000  0.70560600  0.84235600  1
  O  O35  1  0.00000000  0.68464800  0.05819700  1
loop_
_geom_bond_atom_site_label_1
_geom_bond_atom_site_label_2
_geom_bond_distance
_geom_bond_site_symmetry_2
Li0 O13 2.099637 1_566
Li0 O13 2.099637 1_666
Li0 O2 2.226379 1_655
Li0 O2 2.226379 1_555
Li0 O9 2.383735 1_556
Li1 O3 2.171910 1_655
Li1 O3 2.171910 1_555
Li1 O14 2.479246 1_565
Li1 O15 2.482491 1_565
Li1 O15 2.482491 1_665
Li2 O16 2.171910 1_555
Li2 O16 2.171910 1_655
Li2 O5 2.479246 1_545
Li2 O4 2.482491 1_645
Li2 O4 2.482491 1_545
Li3 O6 2.099637 1_545
Li3 O6 2.099637 1_645
Li3 O17 2.226379 1_555
Li3 O17 2.226379 1_655
Li3 O10 2.383735 1_555
Li4 O31 2.093945 1_655
Li4 O31 2.093945 1_555
Li4 O20 2.237847 1_555
Li4 O20 2.237847 1_655
Li4 O27 2.350837 1_555
Li5 O21 2.169521 1_655
Li5 O21 2.169521 1_555
Li5 O33 2.398368 1_555
Li5 O33 2.398368 1_655
Li5 O32 2.541154 1_555
Li6 O34 2.169521 1_655
Li6 O34 2.169521 1_555
Li6 O22 2.398368 1_555
Li6 O22 2.398368 1_655
Li6 O23 2.541154 1_555
Li7 O24 2.093945 1_654
Li7 O24 2.093945 1_554
Li7 O35 2.237847 1_655
Li7 O35 2.237847 1_555
Li7 O28 2.350837 1_554
O0 V0 1.906439 1_555
O0 V12 2.031791 1_555
O0 V12 2.031791 1_655
O1 V0 1.891627 1_555
O1 V2 2.030747 1_655
O1 V2 2.030747 1_555
O2 Ti3 1.919172 1_555
O2 Ti3 1.919172 1_455
O3 V11 1.968953 1_555
O3 Ti0 2.120249 1_455
O3 Ti0 2.120249 1_555
O4 V2 1.985360 1_555
O4 V13 2.011982 1_555
O4 V13 2.011982 1_455
O5 V13 1.965315 1_555
O5 V3 1.975377 1_555
O5 V3 1.975377 1_655
O6 V0 2.013724 1_455
O6 V0 2.013724 1_555
O6 V2 2.054490 1_555
O7 V4 1.939042 1_565
O7 V1 1.994653 1_555
O7 V1 1.994653 1_455
O8 V3 1.970156 1_555
O8 V3 1.970156 1_655
O8 Ti3 2.032380 1_555
O9 Ti0 1.930780 1_555
O9 V5 2.012252 1_565
O9 V5 2.012252 1_665
O10 Ti1 1.930780 1_555
O10 V2 2.012252 1_645
O10 V2 2.012252 1_545
O11 V4 1.970156 1_655
O11 V4 1.970156 1_555
O11 Ti2 2.032380 1_555
O12 V3 1.939042 1_545
O12 V6 1.994653 1_455
O12 V6 1.994653 1_555
O13 V7 2.013724 1_455
O13 V7 2.013724 1_555
O13 V5 2.054490 1_555
O14 V8 1.965315 1_555
O14 V4 1.975377 1_655
O14 V4 1.975377 1_555
O15 V5 1.985360 1_555
O15 V8 2.011982 1_555
O15 V8 2.011982 1_455
O16 V10 1.968953 1_555
O16 Ti1 2.120249 1_555
O16 Ti1 2.120249 1_455
O17 Ti2 1.919172 1_455
O17 Ti2 1.919172 1_555
O18 V7 1.891627 1_555
O18 V5 2.030747 1_555
O18 V5 2.030747 1_655
O19 V7 1.906439 1_556
O19 V9 2.031791 1_555
O19 V9 2.031791 1_655
O20 Ti1 1.912411 1_555
O20 Ti1 1.912411 1_455
O21 V4 2.011283 1_555
O21 Ti2 2.099117 1_455
O21 Ti2 2.099117 1_555
O22 V9 1.988868 1_555
O22 V6 2.027472 1_455
O22 V6 2.027472 1_555
O23 V10 1.942915 1_655
O23 V10 1.942915 1_555
O23 V6 1.970463 1_555
O24 V7 2.014630 1_456
O24 V7 2.014630 1_556
O24 V9 2.059929 1_555
O25 V11 1.911205 1_555
O25 V8 2.009586 1_555
O25 V8 2.009586 1_455
O26 Ti1 1.959867 1_555
O26 V10 1.999101 1_655
O26 V10 1.999101 1_555
O27 Ti2 1.894187 1_555
O27 V12 2.018737 1_555
O27 V12 2.018737 1_655
O28 Ti3 1.894187 1_555
O28 V9 2.018737 1_555
O28 V9 2.018737 1_655
O29 Ti0 1.959867 1_555
O29 V11 1.999101 1_555
O29 V11 1.999101 1_655
O30 V10 1.911205 1_555
O30 V13 2.009586 1_455
O30 V13 2.009586 1_555
O31 V0 2.014630 1_555
O31 V0 2.014630 1_455
O31 V12 2.059929 1_555
O32 V11 1.942915 1_555
O32 V11 1.942915 1_655
O32 V1 1.970463 1_555
O33 V12 1.988868 1_555
O33 V1 2.027472 1_455
O33 V1 2.027472 1_555
O34 V3 2.011283 1_555
O34 Ti3 2.099117 1_455
O34 Ti3 2.099117 1_555
O35 Ti0 1.912411 1_455
O35 Ti0 1.912411 1_555
