# generated using pymatgen
data_SiPH18C6INCl
_symmetry_space_group_name_H-M   'P 1'
_cell_length_a   13.25926054
_cell_length_b   13.25926054
_cell_length_c   13.25926054
_cell_angle_alpha   134.90176402
_cell_angle_beta   108.78407846
_cell_angle_gamma   88.40146937
_symmetry_Int_Tables_number   1
_chemical_formula_structural   SiPH18C6INCl
_chemical_formula_sum   'Si4 P4 H72 C24 I4 N4 Cl4'
_cell_volume   1492.49851391
_cell_formula_units_Z   4
loop_
 _symmetry_equiv_pos_site_id
 _symmetry_equiv_pos_as_xyz
  1  'x, y, z'
loop_
 _atom_site_type_symbol
 _atom_site_label
 _atom_site_symmetry_multiplicity
 _atom_site_fract_x
 _atom_site_fract_y
 _atom_site_fract_z
 _atom_site_occupancy
  Si  Si0  1  0.41889000  0.27031900  0.50582500  1
  Si  Si1  1  0.58111000  0.08693500  0.85142900  1
  Si  Si2  1  0.76449400  0.77031900  0.35142900  1
  Si  Si3  1  0.23550600  0.58693500  0.00582500  1
  P  P0  1  0.28657800  0.41245400  0.41033300  1
  P  P1  1  0.71342200  0.12375500  0.12587600  1
  P  P2  1  0.00212100  0.91245400  0.62587600  1
  P  P3  1  0.99787900  0.62375500  0.91033300  1
  H  H0  1  0.09286900  0.28968100  0.24210500  1
  H  H1  1  0.90713100  0.14923600  0.19681200  1
  H  H2  1  0.04757600  0.78968100  0.69681200  1
  H  H3  1  0.95242400  0.64923600  0.74210500  1
  H  H4  1  0.16674400  0.16036200  0.20971500  1
  H  H5  1  0.83325600  0.04297100  0.99361900  1
  H  H6  1  0.95064800  0.66036200  0.49361900  1
  H  H7  1  0.04935200  0.54297100  0.70971500  1
  H  H8  1  0.13496500  0.28216500  0.37880400  1
  H  H9  1  0.86503500  0.24383900  0.14720000  1
  H  H10  1  0.90336100  0.78216500  0.64720000  1
  H  H11  1  0.09663900  0.74383900  0.87880400  1
  H  H12  1  0.23508000  0.45198100  0.25107900  1
  H  H13  1  0.76492000  0.01599900  0.21690100  1
  H  H14  1  0.20090200  0.95198100  0.71690100  1
  H  H15  1  0.79909800  0.51599900  0.75107900  1
  H  H16  1  0.38280900  0.48462000  0.33443700  1
  H  H17  1  0.61719100  0.95162800  0.10181100  1
  H  H18  1  0.15018300  0.98462000  0.60181100  1
  H  H19  1  0.84981700  0.45162800  0.83443700  1
  H  H20  1  0.29191800  0.29732000  0.16962200  1
  H  H21  1  0.70808200  0.87770400  0.00540200  1
  H  H22  1  0.12769800  0.79732000  0.50540200  1
  H  H23  1  0.87230200  0.37770400  0.66962200  1
  H  H24  1  0.46782500  0.10046800  0.27895700  1
  H  H25  1  0.53217500  0.81113200  0.63264300  1
  H  H26  1  0.82151100  0.60046800  0.13264300  1
  H  H27  1  0.17848900  0.31113200  0.77895700  1
  H  H28  1  0.59011100  0.22031200  0.46195400  1
  H  H29  1  0.40988900  0.87184300  0.63020200  1
  H  H30  1  0.75835800  0.72031200  0.13020200  1
  H  H31  1  0.24164200  0.37184300  0.96195400  1
  H  H32  1  0.50373300  0.06364200  0.38989100  1
  H  H33  1  0.49626700  0.88615800  0.55990900  1
  H  H34  1  0.67375100  0.56364200  0.05990900  1
  H  H35  1  0.32624900  0.38615800  0.88989100  1
  H  H36  1  0.52899500  0.32683200  0.74009500  1
  H  H37  1  0.47100500  0.21110000  0.79783700  1
  H  H38  1  0.58673700  0.82683200  0.29783700  1
  H  H39  1  0.41326300  0.71110000  0.24009500  1
  H  H40  1  0.57366700  0.47608800  0.77277800  1
  H  H41  1  0.42633300  0.19911100  0.90242000  1
  H  H42  1  0.70331000  0.97608800  0.40242000  1
  H  H43  1  0.29669000  0.69911100  0.27277800  1
  H  H44  1  0.44912600  0.45347600  0.78687300  1
  H  H45  1  0.55087400  0.33774700  0.00435000  1
  H  H46  1  0.66660300  0.95347600  0.50435000  1
  H  H47  1  0.33339700  0.83774700  0.28687300  1
  H  H48  1  0.19099600  0.59958500  0.50585700  1
  H  H49  1  0.80900400  0.31486100  0.40858900  1
  H  H50  1  0.09372900  0.09958500  0.90858900  1
  H  H51  1  0.90627100  0.81486100  0.00585700  1
  H  H52  1  0.25020300  0.58994300  0.64003600  1
  H  H53  1  0.74979700  0.38983300  0.33974000  1
  H  H54  1  0.94990800  0.08994300  0.83974000  1
  H  H55  1  0.05009200  0.88983300  0.14003600  1
  H  H56  1  0.33801900  0.68174700  0.63273100  1
  H  H57  1  0.66198100  0.29471200  0.34372800  1
  H  H58  1  0.04901600  0.18174700  0.84372800  1
  H  H59  1  0.95098400  0.79471200  0.13273100  1
  H  H60  1  0.30724800  0.06341600  0.42892500  1
  H  H61  1  0.69275200  0.12167700  0.75616800  1
  H  H62  1  0.63449100  0.56341600  0.25616800  1
  H  H63  1  0.36550900  0.62167700  0.92892500  1
  H  H64  1  0.23869700  0.20351700  0.49750500  1
  H  H65  1  0.76130300  0.25880800  0.96482000  1
  H  H66  1  0.70601100  0.70351700  0.46482000  1
  H  H67  1  0.29398900  0.75880800  0.99750500  1
  H  H68  1  0.23275300  0.07731700  0.30418100  1
  H  H69  1  0.76724700  0.07142800  0.84456300  1
  H  H70  1  0.77313600  0.57731700  0.34456300  1
  H  H71  1  0.22686400  0.57142800  0.80418100  1
  C  C0  1  0.15779700  0.27147000  0.29959900  1
  C  C1  1  0.84220300  0.14180200  0.11367400  1
  C  C2  1  0.97187100  0.77147000  0.61367400  1
  C  C3  1  0.02812900  0.64180200  0.79959900  1
  C  C4  1  0.30023300  0.41174500  0.27815100  1
  C  C5  1  0.69976700  0.97791800  0.11151200  1
  C  C6  1  0.13359400  0.91174500  0.61151200  1
  C  C7  1  0.86640600  0.47791800  0.77815100  1
  C  C8  1  0.50334500  0.15247000  0.39859600  1
  C  C9  1  0.49665500  0.89525000  0.64912500  1
  C  C10  1  0.75387500  0.65247000  0.14912500  1
  C  C11  1  0.24612500  0.39525000  0.89859600  1
  C  C12  1  0.49991200  0.39332100  0.72180300  1
  C  C13  1  0.50008800  0.22189000  0.89340800  1
  C  C14  1  0.67151800  0.89332100  0.39340800  1
  C  C15  1  0.32848200  0.72189000  0.22180300  1
  C  C16  1  0.26443300  0.58808300  0.56162400  1
  C  C17  1  0.73556700  0.29719100  0.32365000  1
  C  C18  1  0.02645900  0.08808300  0.82365000  1
  C  C19  1  0.97354100  0.79719100  0.06162400  1
  C  C20  1  0.28613500  0.14303200  0.42696700  1
  C  C21  1  0.71386500  0.14083200  0.85689800  1
  C  C22  1  0.71606500  0.64303200  0.35689800  1
  C  C23  1  0.28393500  0.64083200  0.92696700  1
  I  I0  1  0.55912100  0.54985800  0.59766300  1
  I  I1  1  0.44087900  0.03854200  0.99073700  1
  I  I2  1  0.95219500  0.04985800  0.49073700  1
  I  I3  1  0.04780500  0.53854200  0.09766300  1
  N  N0  1  0.39411100  0.38607200  0.48244800  1
  N  N1  1  0.60588900  0.08833700  0.99196100  1
  N  N2  1  0.90362400  0.88607200  0.49196100  1
  N  N3  1  0.09637600  0.58833700  0.98244800  1
  Cl  Cl0  1  0.75257800  0.73308000  0.72876000  1
  Cl  Cl1  1  0.24742200  0.97618200  0.98050200  1
  Cl  Cl2  1  0.00432000  0.23308000  0.48050200  1
  Cl  Cl3  1  0.99568000  0.47618200  0.22876000  1
loop_
_geom_bond_atom_site_label_1
_geom_bond_atom_site_label_2
_geom_bond_distance
_geom_bond_site_symmetry_2
C0 H0 1.098280 1_555
C0 H8 1.098536 1_555
C0 H4 1.098787 1_555
C0 P0 1.804029 1_555
C1 H1 1.098271 1_555
C1 H9 1.098543 1_555
C1 H5 1.098787 1_554
C1 P1 1.804023 1_555
C2 H2 1.098272 1_655
C2 H10 1.098528 1_555
C2 H6 1.098789 1_555
C2 P2 1.804039 1_655
C3 H3 1.098280 1_455
C3 H11 1.098536 1_555
C3 H7 1.098779 1_555
C3 P3 1.804029 1_455
C4 H16 1.097338 1_555
C4 H12 1.097590 1_555
C4 H20 1.099840 1_555
C4 P0 1.812623 1_555
C5 H17 1.097338 1_555
C5 H13 1.097590 1_565
C5 H21 1.099840 1_555
C5 P1 1.812623 1_565
C6 H18 1.097338 1_555
C6 H14 1.097590 1_555
C6 H22 1.099840 1_555
C6 P2 1.812623 1_555
C7 H19 1.097338 1_555
C7 H15 1.097590 1_555
C7 H23 1.099840 1_555
C7 P3 1.812623 1_555
C8 H24 1.098383 1_555
C8 H28 1.098591 1_555
C8 H32 1.099394 1_555
C8 Si0 1.873051 1_555
C9 H25 1.098371 1_555
C9 H29 1.098593 1_555
C9 H33 1.099403 1_555
C9 Si1 1.873056 1_565
C10 H26 1.098371 1_555
C10 H30 1.098578 1_555
C10 H34 1.099403 1_555
C10 Si2 1.873056 1_555
C11 H27 1.098378 1_555
C11 H31 1.098576 1_555
C11 H35 1.099408 1_555
C11 Si3 1.873059 1_556
C12 H40 1.097525 1_555
C12 H44 1.098486 1_555
C12 H36 1.098821 1_555
C12 Si0 1.880853 1_555
C13 H41 1.097520 1_555
C13 H45 1.098494 1_556
C13 H37 1.098817 1_555
C13 Si1 1.880846 1_555
C14 H42 1.097525 1_555
C14 H46 1.098497 1_555
C14 H38 1.098817 1_555
C14 Si2 1.880855 1_555
C15 H43 1.097515 1_555
C15 H47 1.098497 1_555
C15 H39 1.098817 1_555
C15 Si3 1.880855 1_555
C16 H56 1.097888 1_555
C16 H48 1.097900 1_555
C16 H52 1.098648 1_555
C16 P0 1.810889 1_555
C17 H57 1.097888 1_555
C17 H49 1.097900 1_555
C17 H53 1.098648 1_555
C17 P1 1.810889 1_555
C18 H58 1.097888 1_555
C18 H50 1.097906 1_555
C18 H54 1.098635 1_455
C18 P2 1.810889 1_545
C19 H59 1.097888 1_555
C19 H51 1.097908 1_555
C19 H55 1.098639 1_655
C19 P3 1.810889 1_554
C20 H68 1.095596 1_555
C20 H64 1.097872 1_555
C20 H60 1.100437 1_555
C20 Si0 1.878623 1_555
C21 H69 1.095590 1_555
C21 H65 1.097871 1_555
C21 H61 1.100450 1_555
C21 Si1 1.878616 1_555
C22 H70 1.095591 1_555
C22 H66 1.097868 1_555
C22 H62 1.100440 1_555
C22 Si2 1.878634 1_555
C23 H71 1.095596 1_555
C23 H67 1.097871 1_555
C23 H63 1.100437 1_555
C23 Si3 1.878623 1_556
I0 N0 2.294720 1_555
I1 N1 2.294720 1_555
I2 N2 2.294720 1_545
I3 N3 2.294720 1_554
N0 P0 1.623571 1_555
N0 Si0 1.771310 1_555
N1 P1 1.623571 1_556
N1 Si1 1.771310 1_555
N2 P2 1.623571 1_655
N2 Si2 1.771310 1_555
N3 P3 1.623571 1_455
N3 Si3 1.771310 1_556
Cl0 I0 2.649065 1_555
Cl1 I1 2.649065 1_565
Cl2 I2 2.649065 1_455
Cl3 I3 2.649065 1_655
