# generated using pymatgen
data_LiMn3O6
_symmetry_space_group_name_H-M   'P 1'
_cell_length_a   5.95297643
_cell_length_b   5.92704015
_cell_length_c   13.15331885
_cell_angle_alpha   102.89562261
_cell_angle_beta   103.22735835
_cell_angle_gamma   88.34825936
_symmetry_Int_Tables_number   1
_chemical_formula_structural   LiMn3O6
_chemical_formula_sum   'Li4 Mn12 O24'
_cell_volume   440.26720971
_cell_formula_units_Z   4
loop_
 _symmetry_equiv_pos_site_id
 _symmetry_equiv_pos_as_xyz
  1  'x, y, z'
loop_
 _atom_site_type_symbol
 _atom_site_label
 _atom_site_symmetry_multiplicity
 _atom_site_fract_x
 _atom_site_fract_y
 _atom_site_fract_z
 _atom_site_occupancy
  Li  Li0  1  0.87017600  0.61466400  0.24555800  1
  Li  Li1  1  0.46702100  0.71486400  0.41959300  1
  Li  Li2  1  0.11995500  0.37490600  0.75101500  1
  Li  Li3  1  0.21205800  0.96909000  0.91899400  1
  Mn  Mn0  1  0.99557900  0.49381900  0.00034200  1
  Mn  Mn1  1  0.49710500  0.49398900  0.99677600  1
  Mn  Mn2  1  0.33964400  0.83803200  0.16351600  1
  Mn  Mn3  1  0.34418800  0.33729100  0.16784700  1
  Mn  Mn4  1  0.66600500  0.16156400  0.33064400  1
  Mn  Mn5  1  0.16058100  0.16188300  0.32860500  1
  Mn  Mn6  1  0.99607100  0.49436200  0.50176600  1
  Mn  Mn7  1  0.99024500  0.99563800  0.49727100  1
  Mn  Mn8  1  0.33424900  0.84377200  0.66807900  1
  Mn  Mn9  1  0.83614900  0.84517800  0.67175500  1
  Mn  Mn10  1  0.65958200  0.16849900  0.83431900  1
  Mn  Mn11  1  0.66505800  0.66641600  0.83412200  1
  O  O0  1  0.27404300  0.74066000  0.01058800  1
  O  O1  1  0.25771600  0.28759500  0.01118500  1
  O  O2  1  0.55329500  0.57581800  0.15450400  1
  O  O3  1  0.12231400  0.58931800  0.16174900  1
  O  O4  1  0.55990000  0.08359900  0.17522400  1
  O  O5  1  0.13465900  0.09712200  0.17139000  1
  O  O6  1  0.43631600  0.39648900  0.32032800  1
  O  O7  1  0.41421900  0.94119600  0.32181300  1
  O  O8  1  0.90489400  0.36808400  0.32670800  1
  O  O9  1  0.89568800  0.92415800  0.34428200  1
  O  O10  1  0.19620800  0.23099600  0.48686800  1
  O  O11  1  0.76654800  0.23639000  0.48496900  1
  O  O12  1  0.22569700  0.75724900  0.51105400  1
  O  O13  1  0.78449500  0.75715300  0.51455600  1
  O  O14  1  0.07225400  0.05679400  0.65519200  1
  O  O15  1  0.09138300  0.63378100  0.67334700  1
  O  O16  1  0.59440900  0.63611300  0.67901000  1
  O  O17  1  0.58431400  0.06085000  0.67640700  1
  O  O18  1  0.88949800  0.93157700  0.82526900  1
  O  O19  1  0.43100000  0.92908100  0.82218400  1
  O  O20  1  0.43305400  0.40875300  0.84316200  1
  O  O21  1  0.88677800  0.40059200  0.84030800  1
  O  O22  1  0.71394200  0.25450100  0.98570700  1
  O  O23  1  0.73607500  0.69764900  0.98812500  1
loop_
_geom_bond_atom_site_label_1
_geom_bond_atom_site_label_2
_geom_bond_distance
_geom_bond_site_symmetry_2
Li0 O8 1.973809 1_555
Li0 O2 1.978359 1_555
Li0 O9 1.984147 1_555
Li0 O3 2.039849 1_655
Li1 O13 2.000514 1_555
Li1 O6 2.027303 1_555
Li1 O7 2.028124 1_555
Li1 O12 2.051674 1_555
Li2 O20 1.965323 1_555
Li2 O21 1.995879 1_455
Li2 O14 2.007622 1_555
Li2 O15 2.007968 1_555
Li3 O0 1.979021 1_556
Li3 O1 1.991243 1_566
Li3 O19 1.995837 1_555
Li3 O18 2.018741 1_455
Mn0 O23 1.933205 1_554
Mn0 O1 1.953331 1_655
Mn0 O21 2.008309 1_554
Mn0 O3 2.037673 1_655
Mn0 O22 2.174279 1_554
Mn0 O0 2.203665 1_655
Mn1 O22 1.894839 1_555
Mn1 O20 1.919917 1_555
Mn1 O23 1.930846 1_555
Mn1 O0 1.952878 1_556
Mn1 O1 1.972518 1_556
Mn1 O2 1.973303 1_556
Mn2 O0 1.914966 1_555
Mn2 O5 1.933077 1_565
Mn2 O4 1.943941 1_565
Mn2 O2 1.979869 1_555
Mn2 O3 1.982002 1_555
Mn2 O7 1.982576 1_555
Mn3 O6 1.907894 1_555
Mn3 O5 1.934652 1_555
Mn3 O4 1.953492 1_555
Mn3 O1 1.962222 1_555
Mn3 O3 1.968144 1_555
Mn3 O2 1.972625 1_555
Mn4 O8 1.919813 1_555
Mn4 O6 1.927819 1_555
Mn4 O11 1.932056 1_555
Mn4 O9 1.941948 1_545
Mn4 O4 1.948301 1_555
Mn4 O7 1.982817 1_545
Mn5 O8 1.923558 1_455
Mn5 O7 1.973428 1_545
Mn5 O5 1.987573 1_555
Mn5 O10 1.992119 1_555
Mn5 O6 2.218258 1_555
Mn5 O9 2.218336 1_445
Mn6 O10 1.938457 1_655
Mn6 O13 1.976767 1_555
Mn6 O11 2.021161 1_555
Mn6 O12 2.067052 1_655
Mn6 O15 2.169515 1_655
Mn6 O8 2.199765 1_555
Mn7 O9 1.913267 1_555
Mn7 O10 1.930949 1_665
Mn7 O11 1.931474 1_565
Mn7 O12 1.969199 1_655
Mn7 O14 1.973444 1_665
Mn7 O13 1.980047 1_555
Mn8 O19 1.929025 1_555
Mn8 O16 1.949692 1_555
Mn8 O15 1.957610 1_555
Mn8 O17 1.963752 1_565
Mn8 O12 1.970278 1_555
Mn8 O14 1.978988 1_565
Mn9 O18 1.922163 1_555
Mn9 O15 1.940703 1_655
Mn9 O17 1.944706 1_565
Mn9 O16 1.958040 1_555
Mn9 O13 1.969483 1_555
Mn9 O14 1.989938 1_665
Mn10 O22 1.895050 1_555
Mn10 O21 1.933369 1_555
Mn10 O20 1.935700 1_555
Mn10 O18 1.936111 1_545
Mn10 O19 1.949768 1_545
Mn10 O17 1.980181 1_555
Mn11 O23 1.939457 1_555
Mn11 O16 1.954437 1_555
Mn11 O21 2.029603 1_555
Mn11 O19 2.067294 1_555
Mn11 O20 2.128777 1_555
Mn11 O18 2.131340 1_555
