# generated using pymatgen
data_Li3V2(PO4)3
_symmetry_space_group_name_H-M   'P 1'
_cell_length_a   8.65025617
_cell_length_b   8.65025617
_cell_length_c   8.69052782
_cell_angle_alpha   61.51634264
_cell_angle_beta   61.51634264
_cell_angle_gamma   60.98183032
_symmetry_Int_Tables_number   1
_chemical_formula_structural   Li3V2(PO4)3
_chemical_formula_sum   'Li6 V4 P6 O24'
_cell_volume   473.62293569
_cell_formula_units_Z   2
loop_
 _symmetry_equiv_pos_site_id
 _symmetry_equiv_pos_as_xyz
  1  'x, y, z'
loop_
 _atom_site_type_symbol
 _atom_site_label
 _atom_site_symmetry_multiplicity
 _atom_site_fract_x
 _atom_site_fract_y
 _atom_site_fract_z
 _atom_site_occupancy
  Li  Li0  1  0.76212300  0.62139300  0.30241800  1
  Li  Li1  1  0.19376000  0.89381100  0.73479700  1
  Li  Li2  1  0.62139300  0.76212300  0.80241800  1
  Li  Li3  1  0.89381100  0.19376000  0.23479700  1
  Li  Li4  1  0.51266400  0.06030400  0.41286300  1
  Li  Li5  1  0.06030400  0.51266400  0.91286300  1
  V  V0  1  0.35771600  0.85599700  0.35875800  1
  V  V1  1  0.85599700  0.35771600  0.85875800  1
  V  V2  1  0.14420900  0.64140100  0.14078600  1
  V  V3  1  0.64140100  0.14420900  0.64078600  1
  P  P0  1  0.03992000  0.25019000  0.45635500  1
  P  P1  1  0.25019000  0.03992000  0.95635500  1
  P  P2  1  0.45810900  0.54810500  0.75006000  1
  P  P3  1  0.54810500  0.45810900  0.25006000  1
  P  P4  1  0.74896700  0.96001200  0.04047900  1
  P  P5  1  0.96001200  0.74896700  0.54047900  1
  O  O0  1  0.04830900  0.41959900  0.27608400  1
  O  O1  1  0.98801500  0.29432100  0.62853600  1
  O  O2  1  0.23173400  0.08808700  0.44532700  1
  O  O3  1  0.08808700  0.23173400  0.94532700  1
  O  O4  1  0.41959900  0.04830900  0.77608400  1
  O  O5  1  0.43665100  0.73967600  0.59082100  1
  O  O6  1  0.19017800  0.88887500  0.97131300  1
  O  O7  1  0.29432100  0.98801500  0.12853600  1
  O  O8  1  0.60829900  0.52820300  0.81368400  1
  O  O9  1  0.88887500  0.19017800  0.47131300  1
  O  O10  1  0.50644000  0.38502100  0.69406400  1
  O  O11  1  0.26198500  0.57433500  0.90196900  1
  O  O12  1  0.73967600  0.43665100  0.09082100  1
  O  O13  1  0.52820300  0.60829900  0.31368400  1
  O  O14  1  0.38502100  0.50644000  0.19406400  1
  O  O15  1  0.11804600  0.80118500  0.51704700  1
  O  O16  1  0.69798700  0.99443800  0.87820900  1
  O  O17  1  0.80118500  0.11804600  0.01704700  1
  O  O18  1  0.57433500  0.26198500  0.40196900  1
  O  O19  1  0.90861900  0.76583300  0.06222300  1
  O  O20  1  0.59083100  0.93225000  0.23159500  1
  O  O21  1  0.76583300  0.90861900  0.56222300  1
  O  O22  1  0.99443800  0.69798700  0.37820900  1
  O  O23  1  0.93225000  0.59083100  0.73159500  1
loop_
_geom_bond_atom_site_label_1
_geom_bond_atom_site_label_2
_geom_bond_distance
_geom_bond_site_symmetry_2
Li0 O19 2.012380 1_555
Li0 O13 2.034614 1_555
Li0 O0 2.208196 1_655
Li0 O20 2.287085 1_555
Li1 O6 2.021010 1_555
Li1 O5 2.030683 1_555
Li1 O2 2.230600 1_565
Li1 O11 2.345669 1_555
Li2 O21 2.012380 1_555
Li2 O8 2.034614 1_555
Li2 O4 2.208196 1_565
Li2 O23 2.287085 1_555
Li3 O9 2.021010 1_555
Li3 O12 2.030683 1_555
Li3 O3 2.230600 1_654
Li3 O18 2.345669 1_555
Li4 O18 2.008574 1_555
Li4 O20 2.021775 1_545
Li4 O2 2.210643 1_555
Li4 O21 2.549814 1_545
Li5 O11 2.008574 1_555
Li5 O23 2.021775 1_455
Li5 O3 2.210643 1_555
Li5 O19 2.549814 1_456
O0 P0 1.553091 1_555
O0 V2 2.052784 1_555
O1 P0 1.524500 1_655
O1 V1 1.966594 1_555
O2 P0 1.564538 1_555
O2 V0 2.078520 1_545
O3 P1 1.564538 1_555
O3 V1 2.078520 1_455
O4 P1 1.553091 1_555
O4 V3 2.052784 1_555
O5 P2 1.566810 1_555
O5 V0 2.063326 1_555
O6 P1 1.557306 1_565
O6 V2 2.042042 1_556
O7 P1 1.524500 1_564
O7 V0 1.966594 1_555
O8 P2 1.549396 1_555
O8 V1 2.025637 1_555
O9 P0 1.557306 1_655
O9 V3 2.042042 1_555
O10 P2 1.513366 1_555
O10 V3 1.990371 1_555
O11 P2 1.564773 1_555
O11 V2 2.059176 1_556
O12 P3 1.566810 1_555
O12 V1 2.063326 1_554
O13 P3 1.549396 1_555
O13 V0 2.025637 1_555
O14 P3 1.513366 1_555
O14 V2 1.990371 1_555
O15 P5 1.536261 1_455
O15 V0 2.006651 1_555
O16 P4 1.528743 1_556
O16 V3 1.993433 1_565
O17 P4 1.536261 1_545
O17 V1 2.006651 1_554
O18 P3 1.564773 1_555
O18 V3 2.059176 1_555
O19 P4 1.568433 1_555
O19 V2 2.067818 1_655
O20 P4 1.568016 1_555
O20 V0 2.047500 1_555
O21 P5 1.568433 1_555
O21 V3 2.067818 1_565
O22 P5 1.528743 1_555
O22 V2 1.993433 1_655
O23 P5 1.568016 1_555
O23 V1 2.047500 1_555
