# generated using pymatgen
data_LiLa8Cu3O16
_symmetry_space_group_name_H-M   'P 1'
_cell_length_a   8.45853525
_cell_length_b   7.57231334
_cell_length_c   8.88050344
_cell_angle_alpha   102.35324556
_cell_angle_beta   118.48724930
_cell_angle_gamma   116.44042515
_symmetry_Int_Tables_number   1
_chemical_formula_structural   LiLa8Cu3O16
_chemical_formula_sum   'Li1 La8 Cu3 O16'
_cell_volume   376.27167422
_cell_formula_units_Z   1
loop_
 _symmetry_equiv_pos_site_id
 _symmetry_equiv_pos_as_xyz
  1  'x, y, z'
loop_
 _atom_site_type_symbol
 _atom_site_label
 _atom_site_symmetry_multiplicity
 _atom_site_fract_x
 _atom_site_fract_y
 _atom_site_fract_z
 _atom_site_occupancy
  Li  Li0  1  0.49995200  0.75012000  0.99934600  1
  La  La0  1  0.04565200  0.20658300  0.72538100  1
  La  La1  1  0.95367300  0.79873700  0.27779800  1
  La  La2  1  0.04988400  0.70458600  0.72360400  1
  La  La3  1  0.53720400  0.94503000  0.72190900  1
  La  La4  1  0.54073000  0.45730900  0.72285100  1
  La  La5  1  0.95798300  0.29688600  0.27659000  1
  La  La6  1  0.46364800  0.55718200  0.27755700  1
  La  La7  1  0.46002200  0.04526200  0.27684800  1
  Cu  Cu0  1  0.49997800  0.25019200  0.99971300  1
  Cu  Cu1  1  0.00026000  0.49976500  0.99898100  1
  Cu  Cu2  1  0.00041400  0.00017000  0.00290400  1
  O  O0  1  0.25078300  0.12735400  0.00432500  1
  O  O1  1  0.78265700  0.48744100  0.37153800  1
  O  O2  1  0.24555300  0.62171100  0.99600200  1
  O  O3  1  0.49376700  0.48978900  0.99313100  1
  O  O4  1  0.76661400  0.96898900  0.36521300  1
  O  O5  1  0.26933600  0.71860400  0.36627700  1
  O  O6  1  0.26875000  0.22067000  0.37075400  1
  O  O7  1  0.23022900  0.52752400  0.63772100  1
  O  O8  1  0.75300900  0.87833600  0.00302300  1
  O  O9  1  0.50527300  0.01037900  0.00667100  1
  O  O10  1  0.00402500  0.75219400  0.00355400  1
  O  O11  1  0.00359400  0.25193300  0.00290200  1
  O  O12  1  0.21360700  0.00813100  0.63118400  1
  O  O13  1  0.71865700  0.25816400  0.62927700  1
  O  O14  1  0.71732800  0.76050100  0.63209200  1
  O  O15  1  0.74839800  0.37341800  0.99543300  1
loop_
_geom_bond_atom_site_label_1
_geom_bond_atom_site_label_2
_geom_bond_distance
_geom_bond_site_symmetry_2
Li0 O8 1.895908 1_556
Li0 O2 1.907920 1_555
Li0 O3 1.936669 1_555
Li0 O9 1.937402 1_566
Li0 O7 2.372659 1_555
Li0 O4 2.401447 1_556
La0 O4 2.364897 1_445
La0 O3 2.569400 1_555
La0 O2 2.583400 1_555
La0 O11 2.627051 1_556
La0 O0 2.640014 1_556
La0 O13 2.717357 1_455
La0 O12 2.733715 1_555
La0 O7 2.745845 1_555
La0 O14 2.839510 1_445
La1 O12 2.319720 1_665
La1 O8 2.605379 1_555
La1 O3 2.642104 1_554
La1 O10 2.644386 1_655
La1 O15 2.662033 1_554
La1 O6 2.679958 1_665
La1 O1 2.700697 1_555
La1 O4 2.707061 1_555
La1 O5 2.785722 1_655
La2 O1 2.310214 1_455
La2 O2 2.596170 1_555
La2 O9 2.616845 1_566
La2 O12 2.632762 1_565
La2 O0 2.655281 1_566
La2 O10 2.668723 1_556
La2 O7 2.683291 1_555
La2 O14 2.789178 1_455
La2 O13 2.844994 1_455
La3 O5 2.333474 1_555
La3 O8 2.613942 1_556
La3 O15 2.634947 1_565
La3 O9 2.635892 1_566
La3 O7 2.668804 1_555
La3 O11 2.674729 1_666
La3 O13 2.729985 1_565
La3 O14 2.736465 1_555
La3 O12 2.755941 1_565
La4 O6 2.312990 1_555
La4 O3 2.592933 1_555
La4 O8 2.612512 1_556
La4 O15 2.635185 1_555
La4 O14 2.652942 1_555
La4 O10 2.657838 1_656
La4 O7 2.696963 1_555
La4 O13 2.812031 1_555
La4 O12 2.858892 1_555
La5 O7 2.369626 1_655
La5 O9 2.595473 1_555
La5 O8 2.597504 1_545
La5 O11 2.613316 1_655
La5 O15 2.650349 1_554
La5 O5 2.681269 1_655
La5 O6 2.720793 1_655
La5 O1 2.751405 1_555
La5 O4 2.806558 1_545
La6 O14 2.329547 1_555
La6 O2 2.611346 1_554
La6 O4 2.615173 1_555
La6 O3 2.623609 1_554
La6 O0 2.637723 1_555
La6 O11 2.637854 1_555
La6 O5 2.725545 1_555
La6 O1 2.750609 1_555
La6 O6 2.891169 1_555
La7 O13 2.312826 1_555
La7 O9 2.582219 1_555
La7 O10 2.614417 1_545
La7 O2 2.622553 1_544
La7 O0 2.629335 1_555
La7 O4 2.694656 1_545
La7 O6 2.793567 1_555
La7 O1 2.799055 1_555
La7 O5 2.803615 1_545
Cu0 O9 1.849665 1_556
Cu0 O3 1.850730 1_555
Cu0 O15 1.905977 1_555
Cu0 O0 1.913755 1_556
Cu0 O12 2.419719 1_555
Cu0 O1 2.439824 1_556
Cu1 O2 1.874805 1_555
Cu1 O15 1.887549 1_455
Cu1 O10 1.888843 1_556
Cu1 O11 1.896845 1_556
Cu1 O5 2.410841 1_556
Cu1 O13 2.426740 1_455
Cu2 O8 1.874482 1_445
Cu2 O0 1.888272 1_555
Cu2 O10 1.892740 1_545
Cu2 O11 1.894609 1_555
Cu2 O6 2.414380 1_555
Cu2 O14 2.433574 1_444
