# generated using pymatgen
data_K2O
_symmetry_space_group_name_H-M   'P 1'
_cell_length_a   12.78903354
_cell_length_b   6.57169425
_cell_length_c   6.35113972
_cell_angle_alpha   89.99839022
_cell_angle_beta   90.00000000
_cell_angle_gamma   90.00000000
_symmetry_Int_Tables_number   1
_chemical_formula_structural   K2O
_chemical_formula_sum   'K16 O8'
_cell_volume   533.78546380
_cell_formula_units_Z   8
loop_
 _symmetry_equiv_pos_site_id
 _symmetry_equiv_pos_as_xyz
  1  'x, y, z'
loop_
 _atom_site_type_symbol
 _atom_site_label
 _atom_site_symmetry_multiplicity
 _atom_site_fract_x
 _atom_site_fract_y
 _atom_site_fract_z
 _atom_site_occupancy
  K  K0  1  0.01976553  0.73846364  0.00071057  1
  K  K1  1  0.01977843  0.76156613  0.50067731  1
  K  K2  1  0.20493945  0.12302354  0.14103553  1
  K  K3  1  0.20493878  0.37694052  0.64102620  1
  K  K4  1  0.29506122  0.87694052  0.64102620  1
  K  K5  1  0.29506055  0.62302354  0.14103553  1
  K  K6  1  0.48023447  0.23846364  0.00071057  1
  K  K7  1  0.48022157  0.26156613  0.50067731  1
  K  K8  1  0.51977843  0.73843387  0.49932269  1
  K  K9  1  0.51976553  0.76153636  0.99928943  1
  K  K10  1  0.70493878  0.12305948  0.35897380  1
  K  K11  1  0.70493945  0.37697646  0.85896447  1
  K  K12  1  0.79506122  0.62305948  0.35897380  1
  K  K13  1  0.79506055  0.87697646  0.85896447  1
  K  K14  1  0.98022157  0.23843387  0.49932269  1
  K  K15  1  0.98023447  0.26153636  0.99928943  1
  O  O0  1  0.11501987  0.02797555  0.76624542  1
  O  O1  1  0.11501944  0.47202107  0.26624222  1
  O  O2  1  0.38498056  0.97202107  0.26624222  1
  O  O3  1  0.38498013  0.52797555  0.76624542  1
  O  O4  1  0.61501944  0.02797893  0.73375778  1
  O  O5  1  0.61501987  0.47202445  0.23375458  1
  O  O6  1  0.88498056  0.52797893  0.73375778  1
  O  O7  1  0.88498013  0.97202445  0.23375458  1
loop_
_geom_bond_atom_site_label_1
_geom_bond_atom_site_label_2
_geom_bond_distance
_geom_bond_site_symmetry_2
K0 O0 2.705769 1_564
K0 O1 2.719159 1_555
K0 O7 2.741915 1_455
K0 O6 2.785576 1_454
K1 O1 2.705799 1_555
K1 O0 2.719152 1_565
K1 O6 2.742191 1_455
K1 O7 2.785432 1_455
K2 O2 2.630360 1_545
K2 O1 2.686093 1_555
K2 O0 2.716385 1_554
K3 O3 2.630484 1_555
K3 O0 2.685890 1_555
K3 O1 2.716368 1_555
K4 O0 2.630484 1_565
K4 O3 2.685890 1_555
K4 O2 2.716368 1_555
K5 O1 2.630360 1_555
K5 O2 2.686093 1_555
K5 O3 2.716385 1_554
K6 O3 2.705769 1_554
K6 O2 2.719159 1_545
K6 O5 2.741915 1_555
K6 O4 2.785576 1_554
K7 O2 2.705799 1_545
K7 O3 2.719152 1_555
K7 O4 2.742191 1_555
K7 O5 2.785432 1_555
K8 O4 2.705799 1_565
K8 O5 2.719152 1_555
K8 O2 2.742191 1_555
K8 O3 2.785432 1_555
K9 O5 2.705769 1_556
K9 O4 2.719159 1_565
K9 O3 2.741915 1_555
K9 O2 2.785576 1_556
K10 O7 2.630484 1_545
K10 O5 2.685890 1_555
K10 O4 2.716368 1_555
K11 O6 2.630360 1_555
K11 O4 2.686093 1_555
K11 O5 2.716385 1_556
K12 O5 2.630484 1_555
K12 O7 2.685890 1_555
K12 O6 2.716368 1_555
K13 O4 2.630360 1_565
K13 O6 2.686093 1_555
K13 O7 2.716385 1_556
K14 O6 2.705799 1_555
K14 O7 2.719152 1_545
K14 O1 2.742191 1_655
K14 O0 2.785432 1_655
K15 O7 2.705769 1_546
K15 O6 2.719159 1_555
K15 O0 2.741915 1_655
K15 O1 2.785576 1_656
