# generated using pymatgen
data_Li6CrS4
_symmetry_space_group_name_H-M   'P 1'
_cell_length_a   8.16322700
_cell_length_b   8.16322700
_cell_length_c   5.63560300
_cell_angle_alpha   90.00000000
_cell_angle_beta   90.00000000
_cell_angle_gamma   90.00000000
_symmetry_Int_Tables_number   1
_chemical_formula_structural   Li6CrS4
_chemical_formula_sum   'Li12 Cr2 S8'
_cell_volume   375.54686281
_cell_formula_units_Z   2
loop_
 _symmetry_equiv_pos_site_id
 _symmetry_equiv_pos_as_xyz
  1  'x, y, z'
loop_
 _atom_site_type_symbol
 _atom_site_label
 _atom_site_symmetry_multiplicity
 _atom_site_fract_x
 _atom_site_fract_y
 _atom_site_fract_z
 _atom_site_occupancy
  Li  Li0  1  0.27659600  0.27659600  0.50000000  1
  Li  Li1  1  0.72340400  0.27659600  0.50000000  1
  Li  Li2  1  0.00000000  0.50000000  0.44878900  1
  Li  Li3  1  0.00000000  0.50000000  0.94878900  1
  Li  Li4  1  0.27659600  0.72340400  0.50000000  1
  Li  Li5  1  0.72340400  0.72340400  0.50000000  1
  Li  Li6  1  0.77659600  0.77659600  0.00000000  1
  Li  Li7  1  0.22340400  0.77659600  0.00000000  1
  Li  Li8  1  0.50000000  0.00000000  0.05121100  1
  Li  Li9  1  0.50000000  0.00000000  0.55121100  1
  Li  Li10  1  0.77659600  0.22340400  0.00000000  1
  Li  Li11  1  0.22340400  0.22340400  0.00000000  1
  Cr  Cr0  1  0.50000000  0.50000000  0.00000000  1
  Cr  Cr1  1  0.00000000  0.00000000  0.50000000  1
  S  S0  1  0.00000000  0.25949500  0.70000000  1
  S  S1  1  0.75949500  0.50000000  0.20000000  1
  S  S2  1  0.24050500  0.50000000  0.20000000  1
  S  S3  1  0.00000000  0.74050500  0.70000000  1
  S  S4  1  0.50000000  0.75949500  0.80000000  1
  S  S5  1  0.74050500  0.00000000  0.30000000  1
  S  S6  1  0.25949500  0.00000000  0.30000000  1
  S  S7  1  0.50000000  0.24050500  0.80000000  1
loop_
_geom_bond_atom_site_label_1
_geom_bond_atom_site_label_2
_geom_bond_distance
_geom_bond_site_symmetry_2
Li0 S2 2.504211 1_555
Li0 S7 2.504211 1_555
Li0 S6 2.527464 1_555
Li0 S0 2.527464 1_555
Li1 S7 2.504211 1_555
Li1 S1 2.504211 1_555
Li1 S5 2.527464 1_555
Li1 S0 2.527464 1_655
Li2 S2 2.412541 1_555
Li2 S1 2.412541 1_455
Li2 S3 2.420499 1_555
Li2 S0 2.420499 1_555
Li3 S3 2.412541 1_555
Li3 S0 2.412541 1_555
Li3 S2 2.420499 1_556
Li3 S1 2.420499 1_456
Li4 S2 2.504211 1_555
Li4 S4 2.504211 1_555
Li4 S3 2.527464 1_555
Li4 S6 2.527464 1_565
Li5 S1 2.504211 1_555
Li5 S4 2.504211 1_555
Li5 S5 2.527464 1_565
Li5 S3 2.527464 1_655
Li6 S3 2.504211 1_654
Li6 S5 2.504211 1_565
Li6 S1 2.527464 1_555
Li6 S4 2.527464 1_554
Li7 S3 2.504211 1_554
Li7 S6 2.504211 1_565
Li7 S2 2.527464 1_555
Li7 S4 2.527464 1_554
Li8 S5 2.412541 1_555
Li8 S6 2.412541 1_555
Li8 S7 2.420499 1_554
Li8 S4 2.420499 1_544
Li9 S7 2.412541 1_555
Li9 S4 2.412541 1_545
Li9 S5 2.420499 1_555
Li9 S6 2.420499 1_555
Li10 S0 2.504211 1_654
Li10 S5 2.504211 1_555
Li10 S7 2.527464 1_554
Li10 S1 2.527464 1_555
Li11 S0 2.504211 1_554
Li11 S6 2.504211 1_555
Li11 S7 2.527464 1_554
Li11 S2 2.527464 1_555
Cr0 S4 2.399514 1_554
Cr0 S1 2.399514 1_555
Cr0 S7 2.399514 1_554
Cr0 S2 2.399514 1_555
Cr1 S6 2.399514 1_555
Cr1 S5 2.399514 1_455
Cr1 S3 2.399514 1_545
Cr1 S0 2.399514 1_555
