# generated using pymatgen
data_LiV2P2H5O11
_symmetry_space_group_name_H-M   'P 1'
_cell_length_a   9.65278400
_cell_length_b   9.78668300
_cell_length_c   12.30655533
_cell_angle_alpha   52.18124626
_cell_angle_beta   90.00000000
_cell_angle_gamma   90.00000000
_symmetry_Int_Tables_number   1
_chemical_formula_structural   LiV2P2H5O11
_chemical_formula_sum   'Li4 V8 P8 H20 O44'
_cell_volume   918.38888032
_cell_formula_units_Z   4
loop_
 _symmetry_equiv_pos_site_id
 _symmetry_equiv_pos_as_xyz
  1  'x, y, z'
loop_
 _atom_site_type_symbol
 _atom_site_label
 _atom_site_symmetry_multiplicity
 _atom_site_fract_x
 _atom_site_fract_y
 _atom_site_fract_z
 _atom_site_occupancy
  Li  Li0  1  0.69934200  0.53250100  0.96758400  1
  Li  Li1  1  0.80065800  0.53250100  0.46758400  1
  Li  Li2  1  0.19934200  0.46749900  0.53241600  1
  Li  Li3  1  0.30065800  0.46749900  0.03241600  1
  V  V0  1  0.73103100  0.28726800  0.90715200  1
  V  V1  1  0.94451500  0.96950500  0.89687400  1
  V  V2  1  0.23103100  0.71273200  0.59284800  1
  V  V3  1  0.44451500  0.03049500  0.60312600  1
  V  V4  1  0.55548500  0.96950500  0.39687400  1
  V  V5  1  0.76896900  0.28726800  0.40715200  1
  V  V6  1  0.05548500  0.03049500  0.10312600  1
  V  V7  1  0.26896900  0.71273200  0.09284800  1
  P  P0  1  0.02993900  0.34975500  0.78989600  1
  P  P1  1  0.17126000  0.82894300  0.79036800  1
  P  P2  1  0.52993900  0.65024500  0.71010400  1
  P  P3  1  0.67126000  0.17105700  0.70963200  1
  P  P4  1  0.32874000  0.82894300  0.29036800  1
  P  P5  1  0.47006100  0.34975500  0.28989600  1
  P  P6  1  0.82874000  0.17105700  0.20963200  1
  P  P7  1  0.97006100  0.65024500  0.21010400  1
  H  H0  1  0.46771700  0.16914800  0.95161000  1
  H  H1  1  0.35669700  0.33849300  0.78520200  1
  H  H2  1  0.20384500  0.04042800  0.92407700  1
  H  H3  1  0.47618200  0.92532100  0.89125700  1
  H  H4  1  0.85669700  0.66150700  0.71479800  1
  H  H5  1  0.91104900  0.80524100  0.72653800  1
  H  H6  1  0.41104900  0.19475900  0.77346200  1
  H  H7  1  0.97618200  0.07467900  0.60874300  1
  H  H8  1  0.70384500  0.95957200  0.57592300  1
  H  H9  1  0.96771700  0.83085200  0.54839000  1
  H  H10  1  0.03228300  0.16914800  0.45161000  1
  H  H11  1  0.29615500  0.04042800  0.42407700  1
  H  H12  1  0.02381800  0.92532100  0.39125700  1
  H  H13  1  0.58895100  0.80524100  0.22653800  1
  H  H14  1  0.08895100  0.19475900  0.27346200  1
  H  H15  1  0.14330300  0.33849300  0.28520200  1
  H  H16  1  0.52381800  0.07467900  0.10874300  1
  H  H17  1  0.79615500  0.95957200  0.07592300  1
  H  H18  1  0.64330300  0.66150700  0.21479800  1
  H  H19  1  0.53228300  0.83085200  0.04839000  1
  O  O0  1  0.10352400  0.26288200  0.93042000  1
  O  O1  1  0.45599500  0.83667900  0.98964400  1
  O  O2  1  0.35498600  0.21302000  0.83079400  1
  O  O3  1  0.22643300  0.69701800  0.94087200  1
  O  O4  1  0.14342900  0.94239500  0.99298000  1
  O  O5  1  0.65698400  0.27586300  0.76463100  1
  O  O6  1  0.62336700  0.51408900  0.83153100  1
  O  O7  1  0.89164300  0.43418200  0.78927700  1
  O  O8  1  0.39164300  0.56581800  0.71072300  1
  O  O9  1  0.12336700  0.48591100  0.66846900  1
  O  O10  1  0.02075600  0.88805900  0.79386900  1
  O  O11  1  0.15698400  0.72413700  0.73536900  1
  O  O12  1  0.76127300  0.00965100  0.79714700  1
  O  O13  1  0.49602600  0.78255800  0.73686600  1
  O  O14  1  0.85498600  0.78698000  0.66920600  1
  O  O15  1  0.99602600  0.21744200  0.76313400  1
  O  O16  1  0.26127300  0.99034900  0.70285300  1
  O  O17  1  0.52075700  0.11194100  0.70613100  1
  O  O18  1  0.60352400  0.73711800  0.56958000  1
  O  O19  1  0.04400500  0.83667900  0.48964400  1
  O  O20  1  0.27356700  0.69701800  0.44087200  1
  O  O21  1  0.35657100  0.94239500  0.49298000  1
  O  O22  1  0.64342900  0.05760500  0.50702000  1
  O  O23  1  0.72643300  0.30298200  0.55912800  1
  O  O24  1  0.95599500  0.16332100  0.51035600  1
  O  O25  1  0.39647600  0.26288200  0.43042000  1
  O  O26  1  0.47924400  0.88805900  0.29386900  1
  O  O27  1  0.73872700  0.00965100  0.29714700  1
  O  O28  1  0.00397400  0.78255800  0.23686600  1
  O  O29  1  0.14501400  0.21302000  0.33079400  1
  O  O30  1  0.50397400  0.21744200  0.26313400  1
  O  O31  1  0.23872700  0.99034900  0.20285300  1
  O  O32  1  0.84301600  0.27586300  0.26463100  1
  O  O33  1  0.97924400  0.11194100  0.20613100  1
  O  O34  1  0.87663300  0.51408900  0.33153100  1
  O  O35  1  0.60835700  0.43418200  0.28927700  1
  O  O36  1  0.10835700  0.56581800  0.21072300  1
  O  O37  1  0.37663300  0.48591100  0.16846900  1
  O  O38  1  0.34301600  0.72413700  0.23536900  1
  O  O39  1  0.85657100  0.05760500  0.00702000  1
  O  O40  1  0.77356700  0.30298200  0.05912800  1
  O  O41  1  0.64501400  0.78698000  0.16920600  1
  O  O42  1  0.54400500  0.16332100  0.01035600  1
  O  O43  1  0.89647600  0.73711800  0.06958000  1
loop_
_geom_bond_atom_site_label_1
_geom_bond_atom_site_label_2
_geom_bond_distance
_geom_bond_site_symmetry_2
Li0 O40 1.929965 1_556
Li0 O6 1.934869 1_555
Li1 O23 1.929965 1_555
Li1 O34 1.934869 1_555
Li2 O20 1.929965 1_555
Li2 O9 1.934869 1_555
Li3 O3 1.929965 1_554
Li3 O37 1.934869 1_555
H0 O42 1.008780 1_556
H1 O2 0.988966 1_555
H2 O4 0.990929 1_545
H3 O1 0.984110 1_555
H4 O14 0.988966 1_555
H5 O14 0.988557 1_555
H6 O2 0.988557 1_555
H7 O24 0.984110 1_555
H8 O22 0.990929 1_565
H9 O19 1.008780 1_655
H10 O24 1.008780 1_455
H11 O21 0.990929 1_545
H12 O19 0.984110 1_555
H13 O41 0.988557 1_555
H14 O29 0.988557 1_555
H15 O29 0.988966 1_555
H16 O42 0.984110 1_555
H17 O39 0.990929 1_565
H18 O41 0.988966 1_555
H19 O1 1.008780 1_554
O0 P0 1.554024 1_555
O0 V6 1.994235 1_556
O1 V7 2.110544 1_556
O3 P1 1.564791 1_555
O3 V7 2.010719 1_556
O4 V7 2.154819 1_556
O4 V6 2.175943 1_566
O4 V1 2.184288 1_455
O5 P3 1.542905 1_555
O5 V0 1.959524 1_555
O6 P2 1.542747 1_555
O6 V0 2.083350 1_555
O7 P0 1.567518 1_655
O7 V0 2.004350 1_555
O8 P2 1.567518 1_555
O8 V2 2.004350 1_555
O9 P0 1.542747 1_555
O9 V2 2.083350 1_555
O10 P1 1.574078 1_555
O10 V1 2.005731 1_455
O11 P1 1.542905 1_555
O11 V2 1.959524 1_555
O12 P3 1.524400 1_555
O12 V1 2.048883 1_545
O13 P2 1.554159 1_555
O13 V3 1.986547 1_565
O15 P0 1.554159 1_655
O15 V1 1.986547 1_545
O16 P1 1.524400 1_555
O16 V3 2.048883 1_565
O17 P3 1.574069 1_555
O17 V3 2.005735 1_555
O18 P2 1.554024 1_555
O18 V4 1.994235 1_555
O19 V2 2.110544 1_555
O20 P4 1.564791 1_555
O20 V2 2.010719 1_555
O21 V2 2.154819 1_555
O21 V3 2.175943 1_565
O21 V4 2.184288 1_555
O22 V5 2.154819 1_555
O22 V4 2.175943 1_545
O22 V3 2.184288 1_555
O23 P3 1.564791 1_555
O23 V5 2.010719 1_555
O24 V5 2.110544 1_555
O25 P5 1.554024 1_555
O25 V3 1.994235 1_555
O26 P4 1.574078 1_555
O26 V4 2.005731 1_555
O27 P6 1.524400 1_555
O27 V4 2.048883 1_545
O28 P7 1.554159 1_455
O28 V6 1.986547 1_565
O30 P5 1.554159 1_555
O30 V4 1.986547 1_545
O31 P4 1.524400 1_555
O31 V6 2.048883 1_565
O32 P6 1.542905 1_555
O32 V5 1.959524 1_555
O33 P6 1.574078 1_555
O33 V6 2.005731 1_655
O34 P7 1.542747 1_555
O34 V5 2.083350 1_555
O35 P5 1.567518 1_555
O35 V5 2.004350 1_555
O36 P7 1.567518 1_455
O36 V7 2.004350 1_555
O37 P5 1.542747 1_555
O37 V7 2.083350 1_555
O38 P4 1.542905 1_555
O38 V7 1.959524 1_555
O39 V0 2.154819 1_554
O39 V1 2.175943 1_544
O39 V6 2.184288 1_655
O40 P6 1.564791 1_555
O40 V0 2.010719 1_554
O42 V0 2.110544 1_554
O43 P7 1.554024 1_555
O43 V1 1.994235 1_554
