# generated using pymatgen
data_LiMnBO3
_symmetry_space_group_name_H-M   'P 1'
_cell_length_a   3.24418700
_cell_length_b   14.49657849
_cell_length_c   14.50128228
_cell_angle_alpha   119.95098944
_cell_angle_beta   90.05318950
_cell_angle_gamma   90.05420670
_symmetry_Int_Tables_number   1
_chemical_formula_structural   LiMnBO3
_chemical_formula_sum   'Li9 Mn9 B9 O27'
_cell_volume   590.91081365
_cell_formula_units_Z   9
loop_
 _symmetry_equiv_pos_site_id
 _symmetry_equiv_pos_as_xyz
  1  'x, y, z'
loop_
 _atom_site_type_symbol
 _atom_site_label
 _atom_site_symmetry_multiplicity
 _atom_site_fract_x
 _atom_site_fract_y
 _atom_site_fract_z
 _atom_site_occupancy
  Li  Li0  1  0.50298400  0.87924100  0.09771800  1
  Li  Li1  1  0.51305300  0.56555700  0.11170600  1
  Li  Li2  1  0.44813100  0.88727100  0.45346100  1
  Li  Li3  1  0.50482900  0.21868200  0.12004100  1
  Li  Li4  1  0.54059600  0.54695100  0.43387400  1
  Li  Li5  1  0.48625600  0.25154500  0.45123000  1
  Li  Li6  1  0.49531100  0.90228700  0.78141300  1
  Li  Li7  1  0.50582300  0.54942900  0.80058700  1
  Li  Li8  1  0.50830000  0.19971300  0.74756100  1
  Mn  Mn0  1  0.94067200  0.80105600  0.24940100  1
  Mn  Mn1  1  0.00222200  0.44758600  0.19744000  1
  Mn  Mn2  1  0.98793000  0.10437700  0.22121400  1
  Mn  Mn3  1  0.04718800  0.75109800  0.55186900  1
  Mn  Mn4  1  0.02566800  0.46700100  0.57758800  1
  Mn  Mn5  1  0.97758800  0.11042800  0.53217500  1
  Mn  Mn6  1  0.01479300  0.77881200  0.88214100  1
  Mn  Mn7  1  0.01050800  0.42178100  0.88845400  1
  Mn  Mn8  1  0.99147200  0.11702100  0.89546900  1
  B  B0  1  0.99606100  0.66300000  0.00711300  1
  B  B1  1  0.99891200  0.66678100  0.33307900  1
  B  B2  1  0.00621300  0.34447000  0.33605800  1
  B  B3  1  0.99353800  0.99239200  0.65545200  1
  B  B4  1  0.46989200  0.01107000  0.33129800  1
  B  B5  1  0.53151000  0.66811800  0.67894100  1
  B  B6  1  0.00218200  0.33299300  0.66598700  1
  B  B7  1  0.99657100  0.99972700  0.99968000  1
  B  B8  1  0.49813100  0.32039500  0.98799300  1
  O  O0  1  0.00052000  0.91993300  0.02655200  1
  O  O1  1  0.02570400  0.57233500  0.01736400  1
  O  O2  1  0.90710200  0.76195100  0.09568900  1
  O  O3  1  0.43887300  0.91222800  0.32290700  1
  O  O4  1  0.49683300  0.41080300  0.08657400  1
  O  O5  1  0.98550200  0.60168500  0.22398200  1
  O  O6  1  0.93205300  0.77531700  0.37778300  1
  O  O7  1  0.98493400  0.10622900  0.07915900  1
  O  O8  1  0.95938300  0.98185400  0.55440700  1
  O  O9  1  0.92375900  0.33393700  0.23674900  1
  O  O10  1  0.07982400  0.62414000  0.39801300  1
  O  O11  1  0.09974000  0.90447600  0.66574900  1
  O  O12  1  0.05935400  0.25446800  0.34555500  1
  O  O13  1  0.03270100  0.44560300  0.42678200  1
  O  O14  1  0.49113600  0.01992800  0.24035400  1
  O  O15  1  0.55315800  0.67669400  0.58852600  1
  O  O16  1  0.52570200  0.56740100  0.66959600  1
  O  O17  1  0.47957900  0.10233500  0.43193100  1
  O  O18  1  0.00459800  0.97276700  0.89301100  1
  O  O19  1  0.51519100  0.75910200  0.77862700  1
  O  O20  1  0.98407900  0.31886400  0.56385200  1
  O  O21  1  0.01262400  0.24485800  0.68002000  1
  O  O22  1  0.01009100  0.43496600  0.75367300  1
  O  O23  1  0.05145700  0.65364400  0.90768000  1
  O  O24  1  0.92599600  0.09077600  0.74520500  1
  O  O25  1  0.50897200  0.32941100  0.89640700  1
  O  O26  1  0.48898200  0.22042600  0.97938300  1
loop_
_geom_bond_atom_site_label_1
_geom_bond_atom_site_label_2
_geom_bond_distance
_geom_bond_site_symmetry_2
Li0 O14 2.056048 1_565
Li0 O2 2.136597 1_555
Li0 O0 2.151156 1_655
Li0 O0 2.162578 1_555
Li0 O2 2.563727 1_455
Li1 O4 2.086097 1_555
Li1 O5 2.101610 1_555
Li1 O1 2.124035 1_555
Li1 O1 2.187569 1_655
Li1 O5 2.238240 1_455
Li2 O3 2.097581 1_555
Li2 O6 2.128989 1_555
Li2 O8 2.131012 1_455
Li2 O8 2.181932 1_555
Li2 O6 2.203283 1_455
Li3 O26 2.053058 1_554
Li3 O7 2.115758 1_555
Li3 O9 2.161227 1_555
Li3 O7 2.209442 1_455
Li3 O9 2.529394 1_455
Li4 O10 2.083223 1_555
Li4 O15 2.087237 1_555
Li4 O13 2.138164 1_655
Li4 O13 2.174463 1_555
Li4 O10 2.271962 1_655
Li5 O17 2.037881 1_555
Li5 O12 2.080676 1_555
Li5 O20 2.151419 1_555
Li5 O20 2.165700 1_455
Li5 O12 2.424223 1_655
Li6 O19 2.056894 1_555
Li6 O11 2.123762 1_555
Li6 O18 2.134022 1_555
Li6 O18 2.175665 1_655
Li6 O11 2.591997 1_655
Li7 O16 2.043192 1_555
Li7 O23 2.129021 1_555
Li7 O22 2.160641 1_555
Li7 O22 2.184603 1_655
Li7 O23 2.339803 1_655
Li8 O25 2.035123 1_555
Li8 O24 2.069202 1_555
Li8 O21 2.147689 1_555
Li8 O21 2.169209 1_655
Li8 O24 2.450338 1_455
Mn0 O2 2.009840 1_555
Mn0 O6 2.073559 1_555
Mn0 O3 2.149964 1_655
Mn0 O3 2.162528 1_555
Mn1 O9 2.010294 1_455
Mn1 O5 2.069579 1_455
Mn1 O4 2.143412 1_555
Mn1 O4 2.166724 1_455
Mn2 O12 2.029750 1_655
Mn2 O7 2.073528 1_555
Mn2 O14 2.123603 1_555
Mn2 O14 2.140798 1_655
Mn3 O11 2.008068 1_555
Mn3 O10 2.068084 1_555
Mn3 O15 2.141379 1_455
Mn3 O15 2.171310 1_555
Mn4 O13 2.049862 1_555
Mn4 O20 2.059570 1_455
Mn4 O16 2.140689 1_555
Mn4 O16 2.144483 1_455
Mn5 O8 2.044829 1_545
Mn5 O21 2.057763 1_655
Mn5 O17 2.135924 1_555
Mn5 O17 2.147920 1_655
Mn6 O23 2.028565 1_555
Mn6 O0 2.072519 1_556
Mn6 O19 2.127966 1_455
Mn6 O19 2.132466 1_555
Mn7 O1 2.045992 1_556
Mn7 O22 2.056603 1_555
Mn7 O25 2.139942 1_555
Mn7 O25 2.145730 1_455
Mn8 O24 2.027112 1_555
Mn8 O18 2.074102 1_645
Mn8 O26 2.122083 1_655
Mn8 O26 2.138265 1_555
B0 O23 1.391056 1_654
B0 O2 1.397315 1_555
B0 O1 1.397897 1_655
B1 O5 1.379983 1_555
B1 O10 1.385179 1_655
B1 O6 1.387560 1_555
B2 O12 1.389527 1_555
B2 O9 1.395858 1_455
B2 O13 1.400441 1_555
B3 O24 1.386983 1_565
B3 O11 1.398594 1_655
B3 O8 1.399579 1_555
B4 O3 1.379733 1_545
B4 O14 1.389149 1_555
B4 O17 1.397485 1_555
B5 O15 1.379266 1_555
B5 O19 1.388735 1_555
B5 O16 1.397444 1_555
B6 O22 1.387707 1_555
B6 O21 1.390915 1_555
B6 O20 1.391377 1_455
B7 O7 1.391710 1_566
B7 O0 1.392899 1_656
B7 O18 1.393762 1_655
B8 O4 1.374970 1_556
B8 O26 1.391371 1_555
B8 O25 1.398433 1_555
