# generated using pymatgen
data_LiMn2(BO3)2
_symmetry_space_group_name_H-M   'P 1'
_cell_length_a   5.78873500
_cell_length_b   9.12736518
_cell_length_c   9.79249899
_cell_angle_alpha   82.10614658
_cell_angle_beta   80.85835692
_cell_angle_gamma   77.86484291
_symmetry_Int_Tables_number   1
_chemical_formula_structural   LiMn2(BO3)2
_chemical_formula_sum   'Li4 Mn8 B8 O24'
_cell_volume   496.50525242
_cell_formula_units_Z   4
loop_
 _symmetry_equiv_pos_site_id
 _symmetry_equiv_pos_as_xyz
  1  'x, y, z'
loop_
 _atom_site_type_symbol
 _atom_site_label
 _atom_site_symmetry_multiplicity
 _atom_site_fract_x
 _atom_site_fract_y
 _atom_site_fract_z
 _atom_site_occupancy
  Li  Li0  1  0.70836700  0.46522000  0.96680100  1
  Li  Li1  1  0.79093300  0.52985200  0.54087400  1
  Li  Li2  1  0.54902100  0.03030900  0.78827700  1
  Li  Li3  1  0.04578000  0.02471900  0.28704200  1
  Mn  Mn0  1  0.77394000  0.81659400  0.98276800  1
  Mn  Mn1  1  0.00070400  0.67956300  0.25603500  1
  Mn  Mn2  1  0.73247700  0.17980400  0.51876000  1
  Mn  Mn3  1  0.47176300  0.69353400  0.77950300  1
  Mn  Mn4  1  0.50120200  0.30877400  0.24232200  1
  Mn  Mn5  1  0.26602800  0.79181600  0.48343000  1
  Mn  Mn6  1  0.03038400  0.29393800  0.72278600  1
  Mn  Mn7  1  0.23912100  0.21075500  0.01699000  1
  B  B0  1  0.97277500  0.36372300  0.28232800  1
  B  B1  1  0.72969200  0.85922300  0.52496700  1
  B  B2  1  0.76660400  0.15028900  0.97301800  1
  B  B3  1  0.49084900  0.36369100  0.76663300  1
  B  B4  1  0.53016400  0.63047500  0.21827700  1
  B  B5  1  0.23205800  0.88162200  0.02423300  1
  B  B6  1  0.26421100  0.12435400  0.47425100  1
  B  B7  1  0.00841200  0.63070000  0.73474700  1
  O  O0  1  0.91054600  0.84603000  0.41365100  1
  O  O1  1  0.80395600  0.65740800  0.83677300  1
  O  O2  1  0.91977200  0.25793600  0.95028300  1
  O  O3  1  0.92182700  0.48833100  0.35400400  1
  O  O4  1  0.67239200  0.98111200  0.60144100  1
  O  O5  1  0.80673500  0.03311200  0.89697000  1
  O  O6  1  0.84666300  0.24540700  0.32022000  1
  O  O7  1  0.60631800  0.73971200  0.56904500  1
  O  O8  1  0.66415400  0.35093000  0.65248700  1
  O  O9  1  0.41367800  0.86423800  0.91134300  1
  O  O10  1  0.68364200  0.73423900  0.19857200  1
  O  O11  1  0.45093300  0.48072200  0.84672600  1
  O  O12  1  0.58408400  0.50884000  0.14700300  1
  O  O13  1  0.36628000  0.24399300  0.80944000  1
  O  O14  1  0.56108200  0.18550600  0.06751700  1
  O  O15  1  0.31917600  0.66253200  0.31045400  1
  O  O16  1  0.41858300  0.22770400  0.45989000  1
  O  O17  1  0.16241400  0.73457700  0.71215000  1
  O  O18  1  0.17958700  0.00528000  0.09524700  1
  O  O19  1  0.30365100  0.00799000  0.39806900  1
  O  O20  1  0.04411000  0.51551700  0.65666900  1
  O  O21  1  0.10616100  0.76501500  0.06507200  1
  O  O22  1  0.15846100  0.34416400  0.17571600  1
  O  O23  1  0.05464300  0.15947900  0.56685000  1
loop_
_geom_bond_atom_site_label_1
_geom_bond_atom_site_label_2
_geom_bond_distance
_geom_bond_site_symmetry_2
Li0 O12 1.859884 1_556
Li0 O11 2.011413 1_555
Li0 O2 2.037397 1_555
Li0 O1 2.138994 1_555
Li1 O3 1.922381 1_555
Li1 O20 1.964049 1_655
Li1 O7 2.019413 1_555
Li1 O8 2.039337 1_555
Li2 O4 1.932542 1_545
Li2 O5 1.971600 1_555
Li2 O9 2.015265 1_545
Li2 O13 2.034662 1_555
Li3 O18 1.931424 1_555
Li3 O19 1.951397 1_555
Li3 O0 2.117307 1_445
Li3 O6 2.139192 1_455
Mn0 O5 2.073268 1_565
Mn0 O1 2.137909 1_555
Mn0 O21 2.139464 1_656
Mn0 O10 2.163793 1_556
Mn0 O9 2.241897 1_555
Mn1 O10 1.949429 1_455
Mn1 O15 1.968692 1_555
Mn1 O3 1.977718 1_455
Mn1 O21 1.978569 1_555
Mn1 O0 2.240094 1_455
Mn2 O16 1.937720 1_555
Mn2 O4 1.959037 1_545
Mn2 O23 1.960552 1_655
Mn2 O6 2.003415 1_555
Mn2 O8 2.109127 1_555
Mn3 O17 1.951276 1_555
Mn3 O11 1.985668 1_555
Mn3 O1 2.036265 1_555
Mn3 O9 2.098043 1_555
Mn3 O7 2.102629 1_555
Mn4 O12 2.047894 1_555
Mn4 O14 2.119603 1_555
Mn4 O22 2.133080 1_555
Mn4 O16 2.169662 1_555
Mn4 O6 2.189242 1_555
Mn5 O19 2.075831 1_565
Mn5 O15 2.141749 1_555
Mn5 O7 2.197895 1_555
Mn5 O0 2.207279 1_455
Mn5 O17 2.243348 1_555
Mn6 O20 2.051167 1_555
Mn6 O23 2.057127 1_555
Mn6 O13 2.180357 1_555
Mn6 O2 2.216987 1_455
Mn6 O8 2.267298 1_455
Mn7 O14 1.962801 1_555
Mn7 O2 2.000328 1_454
Mn7 O18 2.004091 1_555
Mn7 O22 2.041295 1_555
Mn7 O13 2.052755 1_554
B0 O3 1.373187 1_555
B0 O22 1.375182 1_655
B0 O6 1.404336 1_555
B1 O4 1.379605 1_555
B1 O0 1.385352 1_555
B1 O7 1.409436 1_555
B2 O5 1.346013 1_555
B2 O14 1.395050 1_556
B2 O2 1.429876 1_555
B3 O11 1.370517 1_555
B3 O8 1.378313 1_555
B3 O13 1.413754 1_555
B4 O12 1.347235 1_555
B4 O15 1.401454 1_555
B4 O10 1.404510 1_555
B5 O18 1.361647 1_565
B5 O21 1.392989 1_555
B5 O9 1.400474 1_554
B6 O19 1.340998 1_555
B6 O23 1.401253 1_555
B6 O16 1.409331 1_555
B7 O20 1.346030 1_555
B7 O17 1.406304 1_555
B7 O1 1.424163 1_455
