# generated using pymatgen
data_U(WO4)2
_symmetry_space_group_name_H-M   'P 1'
_cell_length_a   9.73690300
_cell_length_b   10.33973400
_cell_length_c   14.57120600
_cell_angle_alpha   90.00000000
_cell_angle_beta   90.00000000
_cell_angle_gamma   90.00000000
_symmetry_Int_Tables_number   1
_chemical_formula_structural   U(WO4)2
_chemical_formula_sum   'U8 W16 O64'
_cell_volume   1466.98511709
_cell_formula_units_Z   8
loop_
 _symmetry_equiv_pos_site_id
 _symmetry_equiv_pos_as_xyz
  1  'x, y, z'
loop_
 _atom_site_type_symbol
 _atom_site_label
 _atom_site_symmetry_multiplicity
 _atom_site_fract_x
 _atom_site_fract_y
 _atom_site_fract_z
 _atom_site_occupancy
  U  U0  1  0.72557800  0.03408700  0.38772800  1
  U  U1  1  0.27442200  0.46591300  0.88772800  1
  U  U2  1  0.22557800  0.96591300  0.11227200  1
  U  U3  1  0.77442200  0.53408700  0.61227200  1
  U  U4  1  0.27442200  0.96591300  0.61227200  1
  U  U5  1  0.72557800  0.53408700  0.11227200  1
  U  U6  1  0.77442200  0.03408700  0.88772800  1
  U  U7  1  0.22557800  0.46591300  0.38772800  1
  W  W0  1  0.68478800  0.39674900  0.85214300  1
  W  W1  1  0.49436000  0.72636200  0.44139000  1
  W  W2  1  0.49436000  0.22636200  0.05861000  1
  W  W3  1  0.18478800  0.10325100  0.85214300  1
  W  W4  1  0.81521200  0.39674900  0.35214300  1
  W  W5  1  0.50564000  0.27363800  0.55861000  1
  W  W6  1  0.00564000  0.72636200  0.94139000  1
  W  W7  1  0.99436000  0.27363800  0.05861000  1
  W  W8  1  0.81521200  0.89674900  0.14785700  1
  W  W9  1  0.00564000  0.22636200  0.55861000  1
  W  W10  1  0.99436000  0.77363800  0.44139000  1
  W  W11  1  0.68478800  0.89674900  0.64785700  1
  W  W12  1  0.31521200  0.10325100  0.35214300  1
  W  W13  1  0.18478800  0.60325100  0.64785700  1
  W  W14  1  0.31521200  0.60325100  0.14785700  1
  W  W15  1  0.50564000  0.77363800  0.94139000  1
  O  O0  1  0.25153400  0.57220000  0.03306300  1
  O  O1  1  0.73587900  0.23394600  0.82158600  1
  O  O2  1  0.23587900  0.76605400  0.67841400  1
  O  O3  1  0.26294400  0.99227800  0.77082600  1
  O  O4  1  0.58668200  0.64571300  0.53233600  1
  O  O5  1  0.00091400  0.41649800  0.35113600  1
  O  O6  1  0.12763400  0.83664100  0.99246600  1
  O  O7  1  0.09247300  0.60684000  0.86738600  1
  O  O8  1  0.11127800  0.17151600  0.12333100  1
  O  O9  1  0.08668200  0.35428700  0.96766400  1
  O  O10  1  0.25153400  0.07220000  0.46693700  1
  O  O11  1  0.99908600  0.58350200  0.64886400  1
  O  O12  1  0.88872200  0.82848400  0.87666900  1
  O  O13  1  0.76294400  0.00772200  0.72917400  1
  O  O14  1  0.50091400  0.58350200  0.14886400  1
  O  O15  1  0.58668200  0.14571300  0.96766400  1
  O  O16  1  0.26412100  0.26605400  0.32158600  1
  O  O17  1  0.37236600  0.83664100  0.49246600  1
  O  O18  1  0.91331800  0.14571300  0.46766400  1
  O  O19  1  0.40752700  0.10684000  0.13261400  1
  O  O20  1  0.41331800  0.85428700  0.03233600  1
  O  O21  1  0.99908600  0.08350200  0.85113600  1
  O  O22  1  0.38872200  0.67151600  0.87666900  1
  O  O23  1  0.62763400  0.66335900  0.99246600  1
  O  O24  1  0.76294400  0.50772200  0.77082600  1
  O  O25  1  0.87236600  0.66335900  0.49246600  1
  O  O26  1  0.24846600  0.07220000  0.96693700  1
  O  O27  1  0.75153400  0.42780000  0.46693700  1
  O  O28  1  0.24846600  0.57220000  0.53306300  1
  O  O29  1  0.61127800  0.32848400  0.12333100  1
  O  O30  1  0.26294400  0.49227800  0.72917400  1
  O  O31  1  0.37236600  0.33664100  0.00753400  1
  O  O32  1  0.38872200  0.17151600  0.62333100  1
  O  O33  1  0.23587900  0.26605400  0.82158600  1
  O  O34  1  0.73587900  0.73394600  0.67841400  1
  O  O35  1  0.11127800  0.67151600  0.37666900  1
  O  O36  1  0.59247300  0.39316000  0.63261400  1
  O  O37  1  0.08668200  0.85428700  0.53233600  1
  O  O38  1  0.50091400  0.08350200  0.35113600  1
  O  O39  1  0.49908600  0.41649800  0.85113600  1
  O  O40  1  0.23705600  0.49227800  0.22917400  1
  O  O41  1  0.73705600  0.50772200  0.27082600  1
  O  O42  1  0.62763400  0.16335900  0.50753400  1
  O  O43  1  0.90752700  0.89316000  0.36738600  1
  O  O44  1  0.90752700  0.39316000  0.13261400  1
  O  O45  1  0.61127800  0.82848400  0.37666900  1
  O  O46  1  0.00091400  0.91649800  0.14886400  1
  O  O47  1  0.12763400  0.33664100  0.50753400  1
  O  O48  1  0.91331800  0.64571300  0.03233600  1
  O  O49  1  0.59247300  0.89316000  0.86738600  1
  O  O50  1  0.76412100  0.73394600  0.17841400  1
  O  O51  1  0.40752700  0.60684000  0.36738600  1
  O  O52  1  0.23705600  0.99227800  0.27082600  1
  O  O53  1  0.09247300  0.10684000  0.63261400  1
  O  O54  1  0.76412100  0.23394600  0.32158600  1
  O  O55  1  0.74846600  0.42780000  0.96693700  1
  O  O56  1  0.87236600  0.16335900  0.00753400  1
  O  O57  1  0.75153400  0.92780000  0.03306300  1
  O  O58  1  0.74846600  0.92780000  0.53306300  1
  O  O59  1  0.88872200  0.32848400  0.62333100  1
  O  O60  1  0.41331800  0.35428700  0.46766400  1
  O  O61  1  0.73705600  0.00772200  0.22917400  1
  O  O62  1  0.49908600  0.91649800  0.64886400  1
  O  O63  1  0.26412100  0.76605400  0.17841400  1
loop_
_geom_bond_atom_site_label_1
_geom_bond_atom_site_label_2
_geom_bond_distance
_geom_bond_site_symmetry_2
O0 W14 1.812565 1_555
O0 U1 2.396268 1_554
O1 W0 1.810899 1_555
O1 U6 2.310859 1_555
O2 W13 1.810899 1_555
O2 U4 2.310859 1_555
O3 W3 1.816500 1_565
O3 U4 2.329034 1_555
O4 W1 1.805432 1_555
O4 U3 2.455691 1_555
O5 W4 1.819715 1_455
O5 U7 2.308819 1_555
O6 W6 1.806944 1_555
O6 U2 2.396585 1_556
O7 W6 1.845237 1_555
O7 U1 2.312958 1_555
O8 W7 1.816679 1_455
O8 U2 2.404983 1_545
O9 W7 1.805432 1_456
O9 U1 2.455691 1_555
O10 W12 1.812565 1_555
O10 U4 2.396268 1_545
O11 W13 1.819715 1_655
O11 U3 2.308819 1_555
O12 W6 1.816679 1_655
O12 U6 2.404983 1_565
O13 W11 1.816500 1_545
O13 U6 2.329034 1_555
O14 W14 1.819715 1_555
O14 U5 2.308819 1_555
O15 W2 1.805432 1_556
O15 U6 2.455691 1_555
O16 W12 1.810899 1_555
O16 U7 2.310859 1_555
O17 W1 1.806944 1_555
O17 U4 2.396585 1_555
O18 W9 1.805432 1_655
O18 U0 2.455691 1_555
O19 W2 1.845237 1_555
O19 U2 2.312958 1_545
O20 W15 1.805432 1_554
O20 U2 2.455691 1_555
O21 W3 1.819715 1_655
O21 U6 2.308819 1_555
O22 W15 1.816679 1_555
O22 U1 2.404983 1_555
O23 W15 1.806944 1_555
O23 U5 2.396585 1_556
O24 W0 1.816500 1_555
O24 U3 2.329034 1_555
O25 W10 1.806944 1_555
O25 U3 2.396585 1_555
O26 W3 1.812565 1_555
O26 U2 2.396268 1_546
O27 W4 1.812565 1_555
O27 U3 2.396268 1_555
O28 W13 1.812565 1_555
O28 U7 2.396268 1_555
O29 W2 1.816679 1_555
O29 U5 2.404983 1_555
O30 W13 1.816500 1_555
O30 U1 2.329034 1_555
O31 W2 1.806944 1_555
O31 U1 2.396585 1_554
O32 W5 1.816679 1_555
O32 U4 2.404983 1_545
O33 W3 1.810899 1_555
O33 U1 2.310859 1_555
O34 W11 1.810899 1_555
O34 U3 2.310859 1_555
O35 W10 1.816679 1_455
O35 U7 2.404983 1_555
O36 W5 1.845237 1_555
O36 U3 2.312958 1_555
O37 W10 1.805432 1_455
O37 U4 2.455691 1_555
O38 W12 1.819715 1_555
O38 U0 2.308819 1_555
O39 W0 1.819715 1_555
O39 U1 2.308819 1_555
O40 W14 1.816500 1_555
O40 U7 2.329034 1_555
O41 W4 1.816500 1_555
O41 U5 2.329034 1_555
O42 W5 1.806944 1_555
O42 U0 2.396585 1_555
O43 W10 1.845237 1_555
O43 U0 2.312958 1_565
O44 W7 1.845237 1_555
O44 U5 2.312958 1_555
O45 W1 1.816679 1_555
O45 U0 2.404983 1_565
O46 W8 1.819715 1_455
O46 U2 2.308819 1_555
O47 W9 1.806944 1_555
O47 U7 2.396585 1_555
O48 W6 1.805432 1_654
O48 U5 2.455691 1_555
O49 W15 1.845237 1_555
O49 U6 2.312958 1_565
O50 W8 1.810899 1_555
O50 U5 2.310859 1_555
O51 W1 1.845237 1_555
O51 U7 2.312958 1_555
O52 W12 1.816500 1_565
O52 U2 2.329034 1_555
O53 W9 1.845237 1_555
O53 U4 2.312958 1_545
O54 W4 1.810899 1_555
O54 U0 2.310859 1_555
O55 W0 1.812565 1_555
O55 U5 2.396268 1_556
O56 W7 1.806944 1_555
O56 U6 2.396585 1_554
O57 W8 1.812565 1_555
O57 U6 2.396268 1_564
O58 W11 1.812565 1_555
O58 U0 2.396268 1_565
O59 W9 1.816679 1_655
O59 U3 2.404983 1_555
O60 W5 1.805432 1_555
O60 U7 2.455691 1_555
O61 W8 1.816500 1_545
O61 U0 2.329034 1_555
O62 W11 1.819715 1_555
O62 U4 2.308819 1_555
O63 W14 1.810899 1_555
O63 U2 2.310859 1_555
