# generated using pymatgen
data_Li3Bi(PO4)2
_symmetry_space_group_name_H-M   'P 1'
_cell_length_a   9.06647800
_cell_length_b   9.09629647
_cell_length_c   9.22096933
_cell_angle_alpha   91.03223483
_cell_angle_beta   89.67934346
_cell_angle_gamma   112.46249400
_symmetry_Int_Tables_number   1
_chemical_formula_structural   Li3Bi(PO4)2
_chemical_formula_sum   'Li12 Bi4 P8 O32'
_cell_volume   702.65458614
_cell_formula_units_Z   4
loop_
 _symmetry_equiv_pos_site_id
 _symmetry_equiv_pos_as_xyz
  1  'x, y, z'
loop_
 _atom_site_type_symbol
 _atom_site_label
 _atom_site_symmetry_multiplicity
 _atom_site_fract_x
 _atom_site_fract_y
 _atom_site_fract_z
 _atom_site_occupancy
  Li  Li0  1  0.89002200  0.37614700  0.77310100  1
  Li  Li1  1  0.59330500  0.13193400  0.28238600  1
  Li  Li2  1  0.13974800  0.06384400  0.43264800  1
  Li  Li3  1  0.61415600  0.59352500  0.76690800  1
  Li  Li4  1  0.11321800  0.05836200  0.77310700  1
  Li  Li5  1  0.40511200  0.40486100  0.24683300  1
  Li  Li6  1  0.88026000  0.91719800  0.23664300  1
  Li  Li7  1  0.86063800  0.94659200  0.55637600  1
  Li  Li8  1  0.04173800  0.11908800  0.02982100  1
  Li  Li9  1  0.42307400  0.88074100  0.69299900  1
  Li  Li10  1  0.10872300  0.59687100  0.22044600  1
  Li  Li11  1  0.08830600  0.68769300  0.90874100  1
  Bi  Bi0  1  0.49420400  0.22992300  0.89248200  1
  Bi  Bi1  1  0.74796800  0.49430400  0.43662100  1
  Bi  Bi2  1  0.23659900  0.50266200  0.59352100  1
  Bi  Bi3  1  0.50915800  0.78250400  0.10466300  1
  P  P0  1  0.74445100  0.03756200  0.91216800  1
  P  P1  1  0.95961400  0.27091800  0.41663700  1
  P  P2  1  0.43131400  0.23871100  0.56838000  1
  P  P3  1  0.76250900  0.57194900  0.07701300  1
  P  P4  1  0.24876700  0.44254200  0.92166200  1
  P  P5  1  0.56351800  0.75954500  0.42289600  1
  P  P6  1  0.03436000  0.73608600  0.59720500  1
  P  P7  1  0.24899000  0.96791700  0.09515200  1
  O  O0  1  0.90289800  0.03793100  0.85220700  1
  O  O1  1  0.94480700  0.09650400  0.40263900  1
  O  O2  1  0.72497500  0.19462100  0.86090300  1
  O  O3  1  0.80763800  0.28520400  0.35009700  1
  O  O4  1  0.43305700  0.08802700  0.64201700  1
  O  O5  1  0.93742000  0.59248200  0.07492700  1
  O  O6  1  0.21818100  0.95196200  0.92737400  1
  O  O7  1  0.02083000  0.66460900  0.43749000  1
  O  O8  1  0.88403300  0.62832500  0.68179800  1
  O  O9  1  0.42183200  0.10466000  0.11852500  1
  O  O10  1  0.67105500  0.49141200  0.93382000  1
  O  O11  1  0.47942400  0.25683900  0.40588200  1
  O  O12  1  0.55787700  0.38422800  0.65322200  1
  O  O13  1  0.66381900  0.46050900  0.20079900  1
  O  O14  1  0.26112300  0.24187900  0.58381600  1
  O  O15  1  0.74984500  0.73763900  0.09769600  1
  O  O16  1  0.22354800  0.26329200  0.92397000  1
  O  O17  1  0.73861600  0.76683300  0.43083100  1
  O  O18  1  0.38492600  0.53176700  0.81155800  1
  O  O19  1  0.45941900  0.61252600  0.32965400  1
  O  O20  1  0.49425500  0.74086700  0.57780900  1
  O  O21  1  0.29953300  0.51429200  0.07571700  1
  O  O22  1  0.59191000  0.89351800  0.85958200  1
  O  O23  1  0.11399300  0.38919100  0.34620000  1
  O  O24  1  0.96576200  0.32310400  0.58247400  1
  O  O25  1  0.74503200  0.03624000  0.08208300  1
  O  O26  1  0.09943700  0.46502000  0.86144800  1
  O  O27  1  0.56403300  0.90865800  0.34250700  1
  O  O28  1  0.18651000  0.72832600  0.67137400  1
  O  O29  1  0.25877600  0.81008400  0.14902200  1
  O  O30  1  0.05102700  0.91157700  0.59494200  1
  O  O31  1  0.12047500  0.00901500  0.17798000  1
loop_
_geom_bond_atom_site_label_1
_geom_bond_atom_site_label_2
_geom_bond_distance
_geom_bond_site_symmetry_2
Li0 O26 1.934620 1_655
Li0 O2 1.941047 1_555
Li0 O24 2.000802 1_555
Li0 O8 2.477687 1_555
Li1 O3 2.005422 1_555
Li1 O27 2.032165 1_545
Li1 O9 2.116495 1_555
Li1 O11 2.119046 1_555
Li2 O1 1.923099 1_455
Li2 O30 2.003702 1_545
Li2 O14 2.085818 1_555
Li2 O31 2.385272 1_555
Li3 O18 1.977635 1_555
Li3 O10 1.980970 1_555
Li3 O12 2.043427 1_555
Li3 O8 2.469552 1_555
Li4 O0 1.980193 1_455
Li4 O30 2.038552 1_545
Li4 O6 2.152769 1_545
Li4 O16 2.215379 1_555
Li4 O14 2.449417 1_555
Li5 O19 1.906675 1_555
Li5 O13 2.242182 1_555
Li5 O11 2.278853 1_555
Li5 O21 2.279997 1_555
Li6 O15 2.042827 1_555
Li6 O31 2.084833 1_665
Li6 O1 2.129851 1_565
Li6 O17 2.333773 1_555
Li6 O25 2.407605 1_565
Li7 O30 1.907514 1_655
Li7 O1 1.927127 1_565
Li7 O17 1.949756 1_555
Li8 O16 1.940691 1_554
Li8 O31 1.996230 1_555
Li8 O0 2.020207 1_454
Li9 O4 1.919760 1_565
Li9 O20 1.932516 1_555
Li9 O28 2.069933 1_555
Li9 O22 2.144785 1_555
Li10 O29 2.016380 1_555
Li10 O5 2.046527 1_455
Li10 O23 2.250374 1_555
Li10 O7 2.309335 1_555
Li10 O21 2.503820 1_555
Li11 O5 2.022063 1_456
Li11 O26 2.104018 1_555
Li11 O6 2.240315 1_555
Li11 O28 2.340056 1_555
Bi0 O2 2.251392 1_555
Bi0 O10 2.331025 1_555
Bi0 O9 2.360559 1_556
Bi0 O12 2.578538 1_555
Bi0 O4 2.582127 1_555
Bi0 O16 2.599244 1_555
Bi1 O13 2.284801 1_555
Bi1 O3 2.296468 1_555
Bi1 O7 2.364589 1_655
Bi1 O17 2.514149 1_555
Bi1 O11 2.577011 1_555
Bi1 O12 2.583951 1_555
Bi1 O8 2.627129 1_555
Bi2 O28 2.364486 1_555
Bi2 O24 2.374823 1_455
Bi2 O18 2.379027 1_555
Bi2 O14 2.465718 1_555
Bi2 O20 2.512488 1_555
Bi2 O23 2.562946 1_555
Bi2 O26 2.727275 1_555
Bi3 O15 2.368674 1_555
Bi3 O29 2.409279 1_555
Bi3 O27 2.420649 1_555
Bi3 O21 2.464671 1_555
Bi3 O22 2.484754 1_554
Bi3 O25 2.486845 1_565
Bi3 O19 2.543699 1_555
O0 P0 1.535218 1_555
O1 P1 1.543306 1_555
O2 P0 1.585476 1_555
O3 P1 1.562396 1_555
O4 P2 1.546036 1_555
O5 P3 1.524320 1_555
O6 P7 1.567897 1_556
O7 P6 1.585332 1_555
O8 P6 1.556159 1_655
O9 P7 1.598108 1_545
O10 P3 1.575064 1_556
O11 P2 1.552174 1_555
O12 P2 1.578895 1_555
O13 P3 1.571047 1_555
O14 P2 1.559940 1_555
O15 P3 1.562926 1_555
O16 P4 1.558078 1_555
O17 P5 1.565464 1_555
O18 P4 1.569543 1_555
O19 P5 1.556149 1_555
O20 P5 1.543001 1_555
O21 P4 1.549225 1_554
O22 P0 1.569877 1_565
O23 P1 1.550060 1_455
O24 P1 1.587895 1_555
O25 P0 1.567098 1_554
O26 P4 1.551506 1_555
O27 P5 1.555827 1_555
O28 P6 1.569186 1_555
O29 P7 1.561847 1_555
O30 P6 1.545424 1_555
O31 P7 1.547039 1_545
