# generated using pymatgen
data_Lu4Al2O9
_symmetry_space_group_name_H-M   'P 1'
_cell_length_a   10.30681300
_cell_length_b   7.21616100
_cell_length_c   11.04983435
_cell_angle_alpha   71.93243385
_cell_angle_beta   90.00000000
_cell_angle_gamma   90.00000000
_symmetry_Int_Tables_number   1
_chemical_formula_structural   Lu4Al2O9
_chemical_formula_sum   'Lu16 Al8 O36'
_cell_volume   781.31464478
_cell_formula_units_Z   4
loop_
 _symmetry_equiv_pos_site_id
 _symmetry_equiv_pos_as_xyz
  1  'x, y, z'
loop_
 _atom_site_type_symbol
 _atom_site_label
 _atom_site_symmetry_multiplicity
 _atom_site_fract_x
 _atom_site_fract_y
 _atom_site_fract_z
 _atom_site_occupancy
  Lu  Lu0  1  0.62896500  0.90738200  0.94040600  1
  Lu  Lu1  1  0.87103500  0.90738200  0.44040600  1
  Lu  Lu2  1  0.40394200  0.77520400  0.69490500  1
  Lu  Lu3  1  0.88783000  0.73345000  0.78478900  1
  Lu  Lu4  1  0.09605800  0.77520400  0.19490500  1
  Lu  Lu5  1  0.11681700  0.58424400  0.58980500  1
  Lu  Lu6  1  0.61217000  0.73345000  0.28478900  1
  Lu  Lu7  1  0.61681700  0.41575600  0.91019500  1
  Lu  Lu8  1  0.38318300  0.58424400  0.08980500  1
  Lu  Lu9  1  0.38783000  0.26655000  0.71521100  1
  Lu  Lu10  1  0.88318300  0.41575600  0.41019500  1
  Lu  Lu11  1  0.90394200  0.22479600  0.80509500  1
  Lu  Lu12  1  0.11217000  0.26655000  0.21521100  1
  Lu  Lu13  1  0.59605800  0.22479600  0.30509500  1
  Lu  Lu14  1  0.12896500  0.09261800  0.55959400  1
  Lu  Lu15  1  0.37103500  0.09261800  0.05959400  1
  Al  Al0  1  0.17590800  0.95023200  0.87560800  1
  Al  Al1  1  0.32409200  0.95023200  0.37560800  1
  Al  Al2  1  0.68157500  0.58820700  0.61273200  1
  Al  Al3  1  0.18157500  0.41179300  0.88726800  1
  Al  Al4  1  0.81842500  0.58820700  0.11273200  1
  Al  Al5  1  0.31842500  0.41179300  0.38726800  1
  Al  Al6  1  0.67590800  0.04976800  0.62439200  1
  Al  Al7  1  0.82409200  0.04976800  0.12439200  1
  O  O0  1  0.00825900  0.93389500  0.85609400  1
  O  O1  1  0.25818900  0.97635900  0.72979200  1
  O  O2  1  0.00089000  0.83259500  0.60888100  1
  O  O3  1  0.73062800  0.82239600  0.61406800  1
  O  O4  1  0.49329700  0.68920900  0.89279600  1
  O  O5  1  0.49174100  0.93389500  0.35609400  1
  O  O6  1  0.24181100  0.97635900  0.22979200  1
  O  O7  1  0.76015500  0.61698000  0.95769800  1
  O  O8  1  0.26425200  0.81186200  0.52419600  1
  O  O9  1  0.27220300  0.53356000  0.75157800  1
  O  O10  1  0.49911000  0.83259500  0.10888100  1
  O  O11  1  0.76937200  0.82239600  0.11406800  1
  O  O12  1  0.02282600  0.47385600  0.83130700  1
  O  O13  1  0.00670300  0.68920900  0.39279600  1
  O  O14  1  0.52282600  0.52614400  0.66869300  1
  O  O15  1  0.73984500  0.61698000  0.45769800  1
  O  O16  1  0.77220300  0.46644000  0.74842200  1
  O  O17  1  0.23574800  0.81186200  0.02419600  1
  O  O18  1  0.76425200  0.18813800  0.97580400  1
  O  O19  1  0.22779700  0.53356000  0.25157800  1
  O  O20  1  0.26015500  0.38302000  0.54230200  1
  O  O21  1  0.47717400  0.47385600  0.33130700  1
  O  O22  1  0.99329700  0.31079100  0.60720400  1
  O  O23  1  0.97717400  0.52614400  0.16869300  1
  O  O24  1  0.23062800  0.17760400  0.88593200  1
  O  O25  1  0.50089000  0.16740500  0.89111900  1
  O  O26  1  0.72779700  0.46644000  0.24842200  1
  O  O27  1  0.73574800  0.18813800  0.47580400  1
  O  O28  1  0.23984500  0.38302000  0.04230200  1
  O  O29  1  0.75818900  0.02364100  0.77020800  1
  O  O30  1  0.50825900  0.06610500  0.64390600  1
  O  O31  1  0.50670300  0.31079100  0.10720400  1
  O  O32  1  0.26937200  0.17760400  0.38593200  1
  O  O33  1  0.99911000  0.16740500  0.39111900  1
  O  O34  1  0.74181100  0.02364100  0.27020800  1
  O  O35  1  0.99174100  0.06610500  0.14390600  1
loop_
_geom_bond_atom_site_label_1
_geom_bond_atom_site_label_2
_geom_bond_distance
_geom_bond_site_symmetry_2
Lu0 O10 2.219234 1_556
Lu0 O25 2.219464 1_565
Lu0 O29 2.244099 1_565
Lu0 O4 2.285696 1_555
Lu0 O11 2.328669 1_556
Lu0 O7 2.451110 1_555
Lu0 O18 2.587163 1_565
Lu1 O2 2.219234 1_655
Lu1 O33 2.219464 1_565
Lu1 O34 2.244099 1_565
Lu1 O13 2.285696 1_655
Lu1 O3 2.328669 1_555
Lu1 O15 2.451110 1_555
Lu1 O27 2.587163 1_565
Lu2 O9 2.144554 1_555
Lu2 O1 2.204426 1_555
Lu2 O14 2.266784 1_555
Lu2 O30 2.268568 1_565
Lu2 O4 2.274440 1_555
Lu2 O8 2.321965 1_555
Lu3 O2 2.187545 1_655
Lu3 O0 2.227236 1_655
Lu3 O7 2.256644 1_555
Lu3 O12 2.260981 1_655
Lu3 O16 2.403022 1_555
Lu3 O3 2.417602 1_555
Lu3 O29 2.446872 1_565
Lu4 O19 2.144554 1_555
Lu4 O6 2.204426 1_555
Lu4 O23 2.266784 1_455
Lu4 O35 2.268568 1_465
Lu4 O13 2.274440 1_555
Lu4 O17 2.321965 1_555
Lu5 O8 2.189521 1_555
Lu5 O2 2.217691 1_555
Lu5 O20 2.244853 1_555
Lu5 O22 2.305702 1_455
Lu5 O9 2.342763 1_555
Lu5 O13 2.361773 1_555
Lu5 O12 2.715819 1_555
Lu6 O10 2.187545 1_555
Lu6 O5 2.227236 1_555
Lu6 O15 2.256644 1_555
Lu6 O21 2.260981 1_555
Lu6 O26 2.403022 1_555
Lu6 O11 2.417602 1_555
Lu6 O34 2.446872 1_565
Lu7 O18 2.189521 1_555
Lu7 O25 2.217691 1_555
Lu7 O7 2.244853 1_555
Lu7 O4 2.305702 1_555
Lu7 O16 2.342763 1_555
Lu7 O31 2.361773 1_556
Lu7 O14 2.715819 1_555
Lu8 O17 2.189521 1_555
Lu8 O10 2.217691 1_555
Lu8 O28 2.244853 1_555
Lu8 O31 2.305702 1_555
Lu8 O19 2.342763 1_555
Lu8 O4 2.361773 1_554
Lu8 O21 2.715819 1_555
Lu9 O25 2.187545 1_555
Lu9 O30 2.227236 1_555
Lu9 O20 2.256644 1_555
Lu9 O14 2.260981 1_555
Lu9 O9 2.403022 1_555
Lu9 O24 2.417602 1_555
Lu9 O1 2.446872 1_545
Lu10 O27 2.189521 1_555
Lu10 O33 2.217691 1_555
Lu10 O15 2.244853 1_555
Lu10 O13 2.305702 1_655
Lu10 O26 2.342763 1_555
Lu10 O22 2.361773 1_555
Lu10 O23 2.715819 1_555
Lu11 O16 2.144554 1_555
Lu11 O29 2.204426 1_555
Lu11 O12 2.266784 1_655
Lu11 O0 2.268568 1_645
Lu11 O22 2.274440 1_555
Lu11 O18 2.321965 1_555
Lu12 O33 2.187545 1_455
Lu12 O35 2.227236 1_455
Lu12 O28 2.256644 1_555
Lu12 O23 2.260981 1_455
Lu12 O19 2.403022 1_555
Lu12 O32 2.417602 1_555
Lu12 O6 2.446872 1_545
Lu13 O26 2.144554 1_555
Lu13 O34 2.204426 1_555
Lu13 O21 2.266784 1_555
Lu13 O5 2.268568 1_545
Lu13 O31 2.274440 1_555
Lu13 O27 2.321965 1_555
Lu14 O33 2.219234 1_455
Lu14 O2 2.219464 1_545
Lu14 O1 2.244099 1_545
Lu14 O22 2.285696 1_455
Lu14 O32 2.328669 1_555
Lu14 O20 2.451110 1_555
Lu14 O8 2.587163 1_545
Lu15 O25 2.219234 1_554
Lu15 O10 2.219464 1_545
Lu15 O6 2.244099 1_545
Lu15 O31 2.285696 1_555
Lu15 O24 2.328669 1_554
Lu15 O28 2.451110 1_555
Lu15 O17 2.587163 1_545
Al0 O17 1.748214 1_556
Al0 O0 1.749826 1_555
Al0 O24 1.771798 1_565
Al0 O1 1.778319 1_555
Al1 O8 1.748214 1_555
Al1 O5 1.749826 1_555
Al1 O32 1.771798 1_565
Al1 O6 1.778319 1_555
Al2 O16 1.753704 1_555
Al2 O14 1.757357 1_555
Al2 O15 1.765754 1_555
Al2 O3 1.768395 1_555
Al3 O9 1.753704 1_555
Al3 O12 1.757357 1_555
Al3 O28 1.765754 1_556
Al3 O24 1.768395 1_555
Al4 O26 1.753704 1_555
Al4 O23 1.757357 1_555
Al4 O7 1.765754 1_554
Al4 O11 1.768395 1_555
Al5 O19 1.753704 1_555
Al5 O21 1.757357 1_555
Al5 O20 1.765754 1_555
Al5 O32 1.768395 1_555
Al6 O27 1.748214 1_555
Al6 O30 1.749826 1_555
Al6 O3 1.771798 1_545
Al6 O29 1.778319 1_555
Al7 O18 1.748214 1_554
Al7 O35 1.749826 1_555
Al7 O11 1.771798 1_545
Al7 O34 1.778319 1_555
