# generated using pymatgen
data_LiTi2VO6
_symmetry_space_group_name_H-M   'P 1'
_cell_length_a   8.97046900
_cell_length_b   5.63305100
_cell_length_c   9.94534163
_cell_angle_alpha   76.28412708
_cell_angle_beta   90.00000000
_cell_angle_gamma   90.00000000
_symmetry_Int_Tables_number   1
_chemical_formula_structural   LiTi2VO6
_chemical_formula_sum   'Li4 Ti8 V4 O24'
_cell_volume   488.21818800
_cell_formula_units_Z   4
loop_
 _symmetry_equiv_pos_site_id
 _symmetry_equiv_pos_as_xyz
  1  'x, y, z'
loop_
 _atom_site_type_symbol
 _atom_site_label
 _atom_site_symmetry_multiplicity
 _atom_site_fract_x
 _atom_site_fract_y
 _atom_site_fract_z
 _atom_site_occupancy
  Li  Li0  1  0.99119200  0.03694100  0.24038800  1
  Li  Li1  1  0.50880800  0.53694100  0.24038800  1
  Li  Li2  1  0.49119200  0.46305900  0.75961200  1
  Li  Li3  1  0.00880800  0.96305900  0.75961200  1
  Ti  Ti0  1  0.65762900  0.17169800  0.05444600  1
  Ti  Ti1  1  0.84237100  0.67169800  0.05444600  1
  Ti  Ti2  1  0.84449600  0.26426900  0.45192900  1
  Ti  Ti3  1  0.65550400  0.76426900  0.45192900  1
  Ti  Ti4  1  0.34449600  0.23573100  0.54807100  1
  Ti  Ti5  1  0.15550400  0.73573100  0.54807100  1
  Ti  Ti6  1  0.15762900  0.32830200  0.94555400  1
  Ti  Ti7  1  0.34237100  0.82830200  0.94555400  1
  V  V0  1  0.33528600  0.04719700  0.24856900  1
  V  V1  1  0.16471400  0.54719700  0.24856900  1
  V  V2  1  0.83528600  0.45280300  0.75143100  1
  V  V3  1  0.66471400  0.95280300  0.75143100  1
  O  O0  1  0.81282500  0.34008000  0.11268500  1
  O  O1  1  0.49050200  0.25148900  0.13051300  1
  O  O2  1  0.16494100  0.25954500  0.13781900  1
  O  O3  1  0.68717500  0.84008000  0.11268500  1
  O  O4  1  0.00949800  0.75148900  0.13051300  1
  O  O5  1  0.33505900  0.75954500  0.13781900  1
  O  O6  1  0.80185500  0.99501200  0.38435000  1
  O  O7  1  0.33321700  0.32951600  0.35575500  1
  O  O8  1  0.02206300  0.35683700  0.38051400  1
  O  O9  1  0.69814500  0.49501200  0.38435000  1
  O  O10  1  0.16678300  0.82951600  0.35575500  1
  O  O11  1  0.47793700  0.85683700  0.38051400  1
  O  O12  1  0.52206300  0.14316300  0.61948600  1
  O  O13  1  0.83321700  0.17048400  0.64424500  1
  O  O14  1  0.30185500  0.50498800  0.61565000  1
  O  O15  1  0.97793700  0.64316300  0.61948600  1
  O  O16  1  0.66678300  0.67048400  0.64424500  1
  O  O17  1  0.19814500  0.00498800  0.61565000  1
  O  O18  1  0.66494100  0.24045500  0.86218100  1
  O  O19  1  0.99050200  0.24851100  0.86948700  1
  O  O20  1  0.31282500  0.15992000  0.88731500  1
  O  O21  1  0.83505900  0.74045500  0.86218100  1
  O  O22  1  0.50949800  0.74851100  0.86948700  1
  O  O23  1  0.18717500  0.65992000  0.88731500  1
loop_
_geom_bond_atom_site_label_1
_geom_bond_atom_site_label_2
_geom_bond_distance
_geom_bond_site_symmetry_2
Li0 O2 2.106092 1_655
Li0 O10 2.127672 1_645
Li0 O4 2.154031 1_645
Li0 O6 2.197735 1_545
Li0 O0 2.461825 1_555
Li0 O8 2.541034 1_655
Li1 O5 2.106092 1_555
Li1 O7 2.127672 1_555
Li1 O1 2.154031 1_555
Li1 O9 2.197735 1_555
Li1 O3 2.461825 1_555
Li1 O11 2.541034 1_555
Li2 O18 2.106092 1_555
Li2 O16 2.127672 1_555
Li2 O22 2.154031 1_555
Li2 O14 2.197735 1_555
Li2 O20 2.461825 1_555
Li2 O12 2.541034 1_555
Li3 O21 2.106092 1_455
Li3 O13 2.127672 1_465
Li3 O19 2.154031 1_465
Li3 O17 2.197735 1_565
Li3 O23 2.461825 1_555
Li3 O15 2.541034 1_455
O0 Ti1 1.839061 1_555
O0 Ti0 1.853060 1_555
O1 Ti0 1.784153 1_555
O1 V0 2.000193 1_555
O2 Ti6 1.859945 1_554
O2 V0 2.086679 1_555
O2 V1 2.164509 1_555
O3 Ti0 1.839061 1_565
O3 Ti1 1.853060 1_555
O4 Ti1 1.784153 1_455
O4 V1 2.000193 1_555
O5 Ti7 1.859945 1_554
O5 V1 2.086679 1_555
O5 V0 2.164509 1_565
O6 Ti2 1.839004 1_565
O6 Ti3 1.857535 1_555
O7 Ti4 1.862361 1_555
O7 V1 2.074817 1_555
O7 V0 2.114176 1_555
O8 Ti2 1.771419 1_455
O8 V1 1.960109 1_555
O9 Ti3 1.839004 1_555
O9 Ti2 1.857535 1_555
O10 Ti5 1.862361 1_555
O10 V0 2.074817 1_565
O10 V1 2.114176 1_555
O11 Ti3 1.771419 1_555
O11 V0 1.960109 1_565
O12 Ti4 1.771419 1_555
O12 V3 1.960109 1_545
O13 Ti2 1.862361 1_555
O13 V3 2.074817 1_545
O13 V2 2.114176 1_555
O14 Ti4 1.839004 1_555
O14 Ti5 1.857535 1_555
O15 Ti5 1.771419 1_655
O15 V2 1.960109 1_555
O16 Ti3 1.862361 1_555
O16 V2 2.074817 1_555
O16 V3 2.114176 1_555
O17 Ti5 1.839004 1_545
O17 Ti4 1.857535 1_555
O18 Ti0 1.859945 1_556
O18 V2 2.086679 1_555
O18 V3 2.164509 1_545
O19 Ti6 1.784153 1_655
O19 V2 2.000193 1_555
O20 Ti7 1.839061 1_545
O20 Ti6 1.853060 1_555
O21 Ti1 1.859945 1_556
O21 V3 2.086679 1_555
O21 V2 2.164509 1_555
O22 Ti7 1.784153 1_555
O22 V3 2.000193 1_555
O23 Ti6 1.839061 1_555
O23 Ti7 1.853060 1_555
