# generated using pymatgen
data_LiMn2O2F3
_symmetry_space_group_name_H-M   'P 1'
_cell_length_a   3.79600900
_cell_length_b   5.27785606
_cell_length_c   10.57562800
_cell_angle_alpha   89.99993205
_cell_angle_beta   90.00000000
_cell_angle_gamma   68.92489323
_symmetry_Int_Tables_number   1
_chemical_formula_structural   LiMn2O2F3
_chemical_formula_sum   'Li2 Mn4 O4 F6'
_cell_volume   197.70776067
_cell_formula_units_Z   2
loop_
 _symmetry_equiv_pos_site_id
 _symmetry_equiv_pos_as_xyz
  1  'x, y, z'
loop_
 _atom_site_type_symbol
 _atom_site_label
 _atom_site_symmetry_multiplicity
 _atom_site_fract_x
 _atom_site_fract_y
 _atom_site_fract_z
 _atom_site_occupancy
  Li  Li0  1  0.83106100  0.33796900  0.24999800  1
  Li  Li1  1  0.16893800  0.66203200  0.74999900  1
  Mn  Mn0  1  0.84396200  0.31196900  0.94192400  1
  Mn  Mn1  1  0.15604600  0.68801800  0.44192700  1
  Mn  Mn2  1  0.84395900  0.31197200  0.55807800  1
  Mn  Mn3  1  0.15603700  0.68803500  0.05807900  1
  O  O0  1  0.69157300  0.61694100  0.44305000  1
  O  O1  1  0.69156400  0.61695700  0.05695800  1
  O  O2  1  0.30843700  0.38304300  0.55695700  1
  O  O3  1  0.30842700  0.38306100  0.94305000  1
  F  F0  1  0.75062600  0.49868000  0.74999600  1
  F  F1  1  0.24937200  0.50132100  0.24999600  1
  F  F2  1  0.97192700  0.05617200  0.12026500  1
  F  F3  1  0.97194400  0.05614700  0.37972800  1
  F  F4  1  0.02807300  0.94382800  0.62026500  1
  F  F5  1  0.02805400  0.94385600  0.87972900  1
loop_
_geom_bond_atom_site_label_1
_geom_bond_atom_site_label_2
_geom_bond_distance
_geom_bond_site_symmetry_2
Li0 O1 2.460808 1_555
Li0 O0 2.460872 1_555
Li1 O2 2.460831 1_555
Li1 O3 2.460858 1_555
Mn0 O3 1.930031 1_555
Mn0 O3 1.930095 1_655
Mn0 O1 1.932887 1_556
Mn1 O0 1.930016 1_555
Mn1 O0 1.930083 1_455
Mn1 O2 1.932808 1_555
Mn2 O2 1.930003 1_555
Mn2 O2 1.930085 1_655
Mn2 O0 1.932772 1_555
Mn3 O1 1.930015 1_555
Mn3 O1 1.930086 1_455
Mn3 O3 1.932800 1_554
F0 Li1 2.061396 1_655
F0 Li1 2.061520 1_555
F0 Mn2 2.228224 1_555
F0 Mn0 2.228325 1_555
F1 Li0 2.061392 1_455
F1 Li0 2.061523 1_555
F1 Mn3 2.228225 1_555
F1 Mn1 2.228327 1_555
F2 Mn3 1.928604 1_645
F2 Li0 1.951512 1_555
F2 Mn0 2.268089 1_554
F3 Mn1 1.928612 1_645
F3 Li0 1.951574 1_555
F3 Mn2 2.268247 1_555
F4 Mn2 1.928638 1_465
F4 Li1 1.951513 1_555
F4 Mn1 2.268101 1_555
F5 Mn0 1.928525 1_465
F5 Li1 1.951584 1_555
F5 Mn3 2.268234 1_556
