# generated using pymatgen
data_Li10Si(PSe6)2
_symmetry_space_group_name_H-M   'P 1'
_cell_length_a   9.03004100
_cell_length_b   9.37008713
_cell_length_c   13.63826398
_cell_angle_alpha   91.74567090
_cell_angle_beta   90.68197308
_cell_angle_gamma   90.35427889
_symmetry_Int_Tables_number   1
_chemical_formula_structural   Li10Si(PSe6)2
_chemical_formula_sum   'Li20 Si2 P4 Se24'
_cell_volume   1153.32248611
_cell_formula_units_Z   2
loop_
 _symmetry_equiv_pos_site_id
 _symmetry_equiv_pos_as_xyz
  1  'x, y, z'
loop_
 _atom_site_type_symbol
 _atom_site_label
 _atom_site_symmetry_multiplicity
 _atom_site_fract_x
 _atom_site_fract_y
 _atom_site_fract_z
 _atom_site_occupancy
  Li  Li0  1  0.98846300  0.51611300  0.95556000  1
  Li  Li1  1  0.96618000  0.51685000  0.42467200  1
  Li  Li2  1  0.50895000  0.96641200  0.54754300  1
  Li  Li3  1  0.49712200  0.99264500  0.04779300  1
  Li  Li4  1  0.25664100  0.29222600  0.15810900  1
  Li  Li5  1  0.74632100  0.74677100  0.28113800  1
  Li  Li6  1  0.21852200  0.81794700  0.75547800  1
  Li  Li7  1  0.23060800  0.75552300  0.25108200  1
  Li  Li8  1  0.75381900  0.21990900  0.34958300  1
  Li  Li9  1  0.46239600  0.51700400  0.75152200  1
  Li  Li10  1  0.22998100  0.22706500  0.36385200  1
  Li  Li11  1  0.73112700  0.25641100  0.85684400  1
  Li  Li12  1  0.24791200  0.76015500  0.00686800  1
  Li  Li13  1  0.74156000  0.26592600  0.13295300  1
  Li  Li14  1  0.76318000  0.72630400  0.69048500  1
  Li  Li15  1  0.22499400  0.26137600  0.91979800  1
  Li  Li16  1  0.74513700  0.75942800  0.00914100  1
  Li  Li17  1  0.24146700  0.72192500  0.48413000  1
  Li  Li18  1  0.78440400  0.21378000  0.62563900  1
  Li  Li19  1  0.24120600  0.21074400  0.64992400  1
  Si  Si0  1  0.99707000  0.48589700  0.18303300  1
  Si  Si1  1  0.50768000  0.99270600  0.81630100  1
  P  P0  1  0.99299600  0.96558900  0.50162300  1
  P  P1  1  0.49211900  0.51528700  0.99291800  1
  P  P2  1  0.00909600  0.48182400  0.68436500  1
  P  P3  1  0.48768800  0.00961900  0.31042100  1
  Se  Se0  1  0.98859900  0.18388700  0.44369800  1
  Se  Se1  1  0.00532900  0.79056200  0.38576400  1
  Se  Se2  1  0.28852600  0.53456300  0.89799100  1
  Se  Se3  1  0.68968400  0.53380000  0.89556400  1
  Se  Se4  1  0.49667400  0.69845400  0.10180700  1
  Se  Se5  1  0.48525000  0.30436800  0.06140500  1
  Se  Se6  1  0.20295000  0.94541100  0.59084300  1
  Se  Se7  1  0.79557800  0.94547100  0.59384400  1
  Se  Se8  1  0.00571800  0.29767500  0.06879000  1
  Se  Se9  1  0.00015200  0.70410500  0.10725700  1
  Se  Se10  1  0.21966500  0.48562000  0.59883400  1
  Se  Se11  1  0.80894600  0.49157400  0.58682800  1
  Se  Se12  1  0.48687000  0.79438000  0.37621100  1
  Se  Se13  1  0.49617700  0.18424100  0.42536100  1
  Se  Se14  1  0.28811700  0.99057000  0.90385600  1
  Se  Se15  1  0.71174400  0.99629900  0.91702000  1
  Se  Se16  1  0.99171900  0.66620900  0.79147300  1
  Se  Se17  1  0.00329900  0.27405500  0.76142700  1
  Se  Se18  1  0.78240300  0.46681400  0.26994700  1
  Se  Se19  1  0.19703800  0.47959000  0.28936100  1
  Se  Se20  1  0.51571000  0.19743700  0.72459600  1
  Se  Se21  1  0.49294600  0.80045200  0.70561900  1
  Se  Se22  1  0.69191200  0.01477900  0.21863600  1
  Se  Se23  1  0.28575300  0.03134900  0.21629300  1
loop_
_geom_bond_atom_site_label_1
_geom_bond_atom_site_label_2
_geom_bond_distance
_geom_bond_site_symmetry_2
Li0 Se8 2.605596 1_656
Li0 Se9 2.676710 1_656
Li0 Se16 2.679496 1_555
Li0 Se3 2.817331 1_555
Li0 Se2 2.835716 1_655
Li1 Se1 2.657148 1_655
Li1 Se11 2.658074 1_555
Li1 Se18 2.696924 1_555
Li1 Se19 2.816831 1_655
Li1 Se0 3.146097 1_555
Li2 Se7 2.666698 1_555
Li2 Se13 2.676112 1_565
Li2 Se21 2.701077 1_555
Li2 Se12 2.802434 1_555
Li2 Se6 2.839347 1_555
Li2 Se20 3.193259 1_565
Li3 Se15 2.650152 1_554
Li3 Se14 2.706467 1_554
Li3 Se4 2.874918 1_555
Li3 Se22 2.904196 1_565
Li3 Se5 2.923826 1_565
Li3 Se23 3.019564 1_565
Li4 Se5 2.466771 1_555
Li4 Se19 2.533633 1_555
Li4 Se8 2.561265 1_555
Li4 Se23 2.606769 1_555
Li5 Se18 2.645393 1_555
Li5 Se22 2.722157 1_565
Li5 Se12 2.723824 1_555
Li5 Se1 2.747309 1_655
Li6 Se16 2.547041 1_455
Li6 Se6 2.577930 1_555
Li6 Se21 2.582322 1_555
Li6 Se14 2.619922 1_555
Li7 Se19 2.669390 1_555
Li7 Se23 2.686486 1_565
Li7 Se1 2.771369 1_555
Li7 Se9 2.871101 1_555
Li7 Se12 2.873574 1_555
Li8 Se0 2.495324 1_555
Li8 Se13 2.580916 1_555
Li8 Se18 2.598266 1_555
Li8 Se22 2.636311 1_555
Li9 Se2 2.557402 1_555
Li9 Se21 2.760137 1_555
Li9 Se3 2.824461 1_555
Li9 Se10 3.012180 1_555
Li9 Se20 3.047609 1_555
Li10 Se0 2.484554 1_455
Li10 Se13 2.574340 1_555
Li10 Se19 2.620569 1_555
Li10 Se23 2.734480 1_555
Li11 Se15 2.600862 1_545
Li11 Se3 2.666017 1_555
Li11 Se20 2.680450 1_555
Li11 Se17 2.800964 1_655
Li12 Se2 2.576616 1_554
Li12 Se14 2.637069 1_554
Li12 Se4 2.655033 1_555
Li12 Se9 2.694064 1_555
Li13 Se5 2.533129 1_555
Li13 Se8 2.569233 1_655
Li13 Se18 2.632628 1_555
Li13 Se22 2.696551 1_555
Li14 Se7 2.491333 1_555
Li14 Se16 2.543014 1_555
Li14 Se21 2.550338 1_555
Li14 Se11 2.615834 1_555
Li15 Se14 2.607333 1_545
Li15 Se2 2.646199 1_555
Li15 Se8 2.868337 1_556
Li15 Se17 2.933021 1_555
Li15 Se5 3.041056 1_556
Li16 Se15 2.600910 1_554
Li16 Se3 2.624632 1_554
Li16 Se4 2.655774 1_555
Li16 Se9 2.710324 1_655
Li17 Se6 2.541586 1_555
Li17 Se1 2.600316 1_555
Li17 Se10 2.757108 1_555
Li17 Se12 2.767266 1_555
Li18 Se7 2.540977 1_545
Li18 Se11 2.680347 1_555
Li18 Se17 2.736962 1_655
Li18 Se20 2.796040 1_555
Li18 Se0 3.115844 1_555
Li19 Se6 2.609684 1_545
Li19 Se20 2.673669 1_555
Li19 Se10 2.696187 1_555
Li19 Se17 2.705231 1_555
P0 Se7 2.204334 1_555
P0 Se0 2.215476 1_565
P0 Se1 2.246640 1_655
P0 Se6 2.252623 1_655
P1 Se5 2.212350 1_556
P1 Se4 2.234978 1_556
P1 Se3 2.245507 1_555
P1 Se2 2.247291 1_555
P2 Se11 2.235318 1_455
P2 Se16 2.235725 1_455
P2 Se17 2.241008 1_555
P2 Se10 2.243204 1_555
P3 Se23 2.231441 1_555
P3 Se13 2.231532 1_555
P3 Se12 2.232235 1_545
P3 Se22 2.242263 1_555
Se8 Si0 2.319777 1_455
Se9 Si0 2.319056 1_455
Se14 Si1 2.326918 1_555
Se15 Si1 2.284672 1_555
Se18 Si0 2.293025 1_555
Se19 Si0 2.304603 1_455
Se20 Si1 2.322967 1_545
Se21 Si1 2.316911 1_555
