# generated using pymatgen
data_Ni5(P2O7)4
_symmetry_space_group_name_H-M   'P 1'
_cell_length_a   9.25425800
_cell_length_b   10.72315800
_cell_length_c   12.75327205
_cell_angle_alpha   80.08702268
_cell_angle_beta   73.93135133
_cell_angle_gamma   64.53748768
_symmetry_Int_Tables_number   1
_chemical_formula_structural   Ni5(P2O7)4
_chemical_formula_sum   'Ni10 P16 O56'
_cell_volume   1095.93565874
_cell_formula_units_Z   2
loop_
 _symmetry_equiv_pos_site_id
 _symmetry_equiv_pos_as_xyz
  1  'x, y, z'
loop_
 _atom_site_type_symbol
 _atom_site_label
 _atom_site_symmetry_multiplicity
 _atom_site_fract_x
 _atom_site_fract_y
 _atom_site_fract_z
 _atom_site_occupancy
  Ni  Ni0  1  0.74937700  0.75340100  0.93635700  1
  Ni  Ni1  1  0.25062300  0.24659900  0.06364300  1
  Ni  Ni2  1  0.20823900  0.99026900  0.73960400  1
  Ni  Ni3  1  0.38567800  0.71715300  0.38841500  1
  Ni  Ni4  1  0.73780000  0.75704800  0.43566000  1
  Ni  Ni5  1  0.79176100  0.00973100  0.26039600  1
  Ni  Ni6  1  0.60877700  0.28160000  0.10774500  1
  Ni  Ni7  1  0.39122300  0.71840000  0.89225500  1
  Ni  Ni8  1  0.26220000  0.24295200  0.56434000  1
  Ni  Ni9  1  0.61432200  0.28284700  0.61158500  1
  P  P0  1  0.12846000  0.71500300  0.78998900  1
  P  P1  1  0.34490700  0.95597400  0.95857200  1
  P  P2  1  0.34014700  0.95013900  0.46312000  1
  P  P3  1  0.72902600  0.46047000  0.39663900  1
  P  P4  1  0.87154000  0.28499700  0.21001100  1
  P  P5  1  0.74532700  0.45924200  0.89583100  1
  P  P6  1  0.25467300  0.54075800  0.10416900  1
  P  P7  1  0.09209600  0.71794800  0.28971400  1
  P  P8  1  0.65985300  0.04986100  0.53688000  1
  P  P9  1  0.63286200  0.80719200  0.69005500  1
  P  P10  1  0.90790400  0.28205200  0.71028600  1
  P  P11  1  0.27097400  0.53953000  0.60336100  1
  P  P12  1  0.65509300  0.04402600  0.04142800  1
  P  P13  1  0.64358600  0.81305000  0.19266900  1
  P  P14  1  0.35641400  0.18695000  0.80733100  1
  P  P15  1  0.36713800  0.19280800  0.30994500  1
  O  O0  1  0.43587400  0.03087300  0.85923000  1
  O  O1  1  0.73344500  0.82789600  0.27331600  1
  O  O2  1  0.48273000  0.80747800  0.96925400  1
  O  O3  1  0.58464200  0.54470100  0.85838300  1
  O  O4  1  0.01384800  0.26974100  0.11271100  1
  O  O5  1  0.56412600  0.96912700  0.14077000  1
  O  O6  1  0.74009200  0.33466600  0.47516600  1
  O  O7  1  0.28211400  0.03891800  0.05763300  1
  O  O8  1  0.26698100  0.66792800  0.03501900  1
  O  O9  1  0.77843100  0.07103200  0.08722600  1
  O  O10  1  0.98615200  0.73025900  0.88728900  1
  O  O11  1  0.54218800  0.18795600  0.26077800  1
  O  O12  1  0.78416400  0.55920600  0.42766700  1
  O  O13  1  0.13371200  0.60967500  0.71170700  1
  O  O14  1  0.41004100  0.03627100  0.36331800  1
  O  O15  1  0.97968700  0.70190200  0.39879800  1
  O  O16  1  0.50085100  0.22528600  0.75313100  1
  O  O17  1  0.71788600  0.96108200  0.94236700  1
  O  O18  1  0.21583600  0.44079400  0.57233300  1
  O  O19  1  0.79529200  0.54855400  0.94623500  1
  O  O20  1  0.11980200  0.85152100  0.72695200  1
  O  O21  1  0.29318400  0.63772300  0.82464500  1
  O  O22  1  0.51097400  0.19244200  0.53031200  1
  O  O23  1  0.27804300  0.03273000  0.56465300  1
  O  O24  1  0.73559500  0.77569600  0.77334700  1
  O  O25  1  0.41535800  0.45529900  0.14161700  1
  O  O26  1  0.45781200  0.81204400  0.73922200  1
  O  O27  1  0.20470800  0.45144600  0.05376500  1
  O  O28  1  0.26593600  0.67486900  0.30285500  1
  O  O29  1  0.22054200  0.91066600  0.42776600  1
  O  O30  1  0.73192300  0.71187300  0.59606100  1
  O  O31  1  0.77945800  0.08933400  0.57223400  1
  O  O32  1  0.97814000  0.13850900  0.76696400  1
  O  O33  1  0.11204800  0.60322400  0.21164800  1
  O  O34  1  0.86628800  0.39032500  0.28829300  1
  O  O35  1  0.73406400  0.32513100  0.69714500  1
  O  O36  1  0.44193800  0.47138400  0.62945700  1
  O  O37  1  0.02031300  0.29809800  0.60120200  1
  O  O38  1  0.73301900  0.33207200  0.96498100  1
  O  O39  1  0.88795200  0.39677600  0.78835200  1
  O  O40  1  0.75849300  0.72202500  0.09936900  1
  O  O41  1  0.26807700  0.28812700  0.40393900  1
  O  O42  1  0.88019800  0.14847900  0.27304800  1
  O  O43  1  0.48902600  0.80755800  0.46968800  1
  O  O44  1  0.58995900  0.96372900  0.63668200  1
  O  O45  1  0.26440500  0.22430400  0.22665300  1
  O  O46  1  0.55806200  0.52861600  0.37054300  1
  O  O47  1  0.70681600  0.36227700  0.17535500  1
  O  O48  1  0.26655500  0.17210400  0.72668400  1
  O  O49  1  0.24150700  0.27797500  0.90063100  1
  O  O50  1  0.49914900  0.77471400  0.24686900  1
  O  O51  1  0.22156900  0.92896800  0.91277400  1
  O  O52  1  0.25990800  0.66533400  0.52483400  1
  O  O53  1  0.72195700  0.96727000  0.43534700  1
  O  O54  1  0.02186000  0.86149100  0.23303600  1
  O  O55  1  0.51727000  0.19252200  0.03074600  1
loop_
_geom_bond_atom_site_label_1
_geom_bond_atom_site_label_2
_geom_bond_distance
_geom_bond_site_symmetry_2
Ni0 O10 2.020223 1_555
Ni0 O19 2.037968 1_555
Ni0 O40 2.067401 1_556
Ni0 O24 2.084402 1_555
Ni0 O17 2.130418 1_555
Ni0 O2 2.209462 1_555
Ni1 O4 2.020223 1_555
Ni1 O27 2.037968 1_555
Ni1 O49 2.067401 1_554
Ni1 O45 2.084402 1_555
Ni1 O7 2.130418 1_555
Ni1 O55 2.209462 1_555
Ni2 O32 2.012983 1_465
Ni2 O20 2.027854 1_555
Ni2 O23 2.169814 1_565
Ni2 O48 2.205728 1_565
Ni2 O51 2.214943 1_555
Ni2 O26 2.277812 1_555
Ni3 O52 1.947455 1_555
Ni3 O50 1.966378 1_555
Ni3 O46 1.966828 1_555
Ni3 O28 1.973804 1_555
Ni3 O29 2.024973 1_555
Ni3 O43 2.149600 1_555
Ni4 O15 1.989093 1_555
Ni4 O12 1.990674 1_555
Ni4 O30 2.010505 1_555
Ni4 O43 2.058539 1_555
Ni4 O1 2.084159 1_555
Ni4 O53 2.194577 1_555
Ni5 O54 2.012983 1_645
Ni5 O42 2.027854 1_555
Ni5 O53 2.169814 1_545
Ni5 O1 2.205728 1_545
Ni5 O9 2.214943 1_555
Ni5 O11 2.277812 1_555
Ni6 O47 1.918288 1_555
Ni6 O25 1.960134 1_555
Ni6 O38 1.991679 1_554
Ni6 O55 2.018078 1_555
Ni6 O11 2.094904 1_555
Ni6 O9 2.135331 1_555
Ni7 O21 1.918288 1_555
Ni7 O3 1.960134 1_555
Ni7 O8 1.991679 1_556
Ni7 O2 2.018078 1_555
Ni7 O26 2.094904 1_555
Ni7 O51 2.135331 1_555
Ni8 O37 1.989093 1_555
Ni8 O18 1.990674 1_555
Ni8 O41 2.010505 1_555
Ni8 O22 2.058539 1_555
Ni8 O48 2.084159 1_555
Ni8 O23 2.194577 1_555
Ni9 O6 1.947455 1_555
Ni9 O16 1.966378 1_555
Ni9 O36 1.966828 1_555
Ni9 O35 1.973804 1_555
Ni9 O31 2.024973 1_555
Ni9 O22 2.149600 1_555
O0 P1 1.612283 1_545
O0 P14 1.615459 1_555
O1 P13 1.555114 1_555
O2 P1 1.567193 1_555
O3 P5 1.532920 1_555
O4 P4 1.510278 1_455
O5 P12 1.612283 1_565
O5 P13 1.615459 1_555
O6 P3 1.518590 1_555
O7 P1 1.503623 1_544
O8 P6 1.521239 1_555
O9 P12 1.561826 1_555
O10 P0 1.510278 1_655
O11 P15 1.548095 1_555
O12 P3 1.502824 1_555
O13 P0 1.609004 1_555
O13 P11 1.628885 1_555
O14 P2 1.595187 1_545
O14 P15 1.619177 1_555
O15 P7 1.522328 1_655
O16 P14 1.515452 1_555
O17 P12 1.503623 1_566
O18 P11 1.502824 1_555
O19 P5 1.517066 1_555
O20 P0 1.524906 1_555
O21 P0 1.538353 1_555
O22 P8 1.565691 1_555
O23 P2 1.528589 1_545
O24 P9 1.518467 1_555
O25 P6 1.532920 1_555
O26 P9 1.548095 1_555
O27 P6 1.517066 1_555
O28 P7 1.520917 1_555
O29 P2 1.533753 1_555
O30 P9 1.526410 1_555
O31 P8 1.533753 1_555
O32 P10 1.526749 1_555
O33 P6 1.619887 1_555
O33 P7 1.631972 1_555
O34 P4 1.609004 1_555
O34 P3 1.628885 1_555
O35 P10 1.520917 1_555
O36 P11 1.536745 1_555
O37 P10 1.522328 1_455
O38 P5 1.521239 1_555
O39 P5 1.619887 1_555
O39 P10 1.631972 1_555
O40 P13 1.518648 1_555
O41 P15 1.526410 1_555
O42 P4 1.524906 1_555
O43 P2 1.565691 1_555
O44 P8 1.595187 1_565
O44 P9 1.619177 1_555
O45 P15 1.518467 1_555
O46 P3 1.536745 1_555
O47 P4 1.538353 1_555
O48 P14 1.555114 1_555
O49 P14 1.518648 1_555
O50 P13 1.515452 1_555
O51 P1 1.561826 1_555
O52 P11 1.518590 1_555
O53 P8 1.528589 1_565
O54 P7 1.526749 1_555
O55 P12 1.567193 1_555
