# generated using pymatgen
data_Li2H4(SO4)3
_symmetry_space_group_name_H-M   'P 1'
_cell_length_a   5.45725700
_cell_length_b   11.05455700
_cell_length_c   17.73473400
_cell_angle_alpha   90.00000000
_cell_angle_beta   90.00000000
_cell_angle_gamma   90.00000000
_symmetry_Int_Tables_number   1
_chemical_formula_structural   Li2H4(SO4)3
_chemical_formula_sum   'Li8 H16 S12 O48'
_cell_volume   1069.89320411
_cell_formula_units_Z   4
loop_
 _symmetry_equiv_pos_site_id
 _symmetry_equiv_pos_as_xyz
  1  'x, y, z'
loop_
 _atom_site_type_symbol
 _atom_site_label
 _atom_site_symmetry_multiplicity
 _atom_site_fract_x
 _atom_site_fract_y
 _atom_site_fract_z
 _atom_site_occupancy
  Li  Li0  1  0.22920600  0.48274900  0.59669900  1
  Li  Li1  1  0.27079400  0.48274900  0.90330100  1
  Li  Li2  1  0.77079400  0.01725100  0.09669900  1
  Li  Li3  1  0.72920600  0.01725100  0.40330100  1
  Li  Li4  1  0.77079400  0.51725100  0.40330100  1
  Li  Li5  1  0.72920600  0.51725100  0.09669900  1
  Li  Li6  1  0.22920600  0.98274900  0.90330100  1
  Li  Li7  1  0.27079400  0.98274900  0.59669900  1
  H  H0  1  0.11110700  0.18931700  0.44240700  1
  H  H1  1  0.38889300  0.18931700  0.05759300  1
  H  H2  1  0.88889300  0.31068300  0.94240700  1
  H  H3  1  0.61110700  0.31068300  0.55759300  1
  H  H4  1  0.88889300  0.81068300  0.55759300  1
  H  H5  1  0.61110700  0.81068300  0.94240700  1
  H  H6  1  0.11110700  0.68931700  0.05759300  1
  H  H7  1  0.38889300  0.68931700  0.44240700  1
  H  H8  1  0.50889800  0.32682500  0.30270000  1
  H  H9  1  0.99110200  0.32682500  0.19730000  1
  H  H10  1  0.49110200  0.17317500  0.80270000  1
  H  H11  1  0.00889800  0.17317500  0.69730000  1
  H  H12  1  0.49110200  0.67317500  0.69730000  1
  H  H13  1  0.00889800  0.67317500  0.80270000  1
  H  H14  1  0.50889800  0.82682500  0.19730000  1
  H  H15  1  0.99110200  0.82682500  0.30270000  1
  S  S0  1  0.29161700  0.36255900  0.43479400  1
  S  S1  1  0.20838300  0.36255900  0.06520600  1
  S  S2  1  0.70838300  0.13744100  0.93479400  1
  S  S3  1  0.79161700  0.13744100  0.56520600  1
  S  S4  1  0.70838300  0.63744100  0.56520600  1
  S  S5  1  0.79161700  0.63744100  0.93479400  1
  S  S6  1  0.29161700  0.86255900  0.06520600  1
  S  S7  1  0.20838300  0.86255900  0.43479400  1
  S  S8  1  0.25000000  0.30312000  0.75000000  1
  S  S9  1  0.75000000  0.19688000  0.25000000  1
  S  S10  1  0.75000000  0.69688000  0.25000000  1
  S  S11  1  0.25000000  0.80312000  0.75000000  1
  O  O0  1  0.36505500  0.37890000  0.51445900  1
  O  O1  1  0.13494500  0.37890000  0.98554100  1
  O  O2  1  0.63494500  0.12110000  0.01445900  1
  O  O3  1  0.86505500  0.12110000  0.48554100  1
  O  O4  1  0.63494500  0.62110000  0.48554100  1
  O  O5  1  0.86505500  0.62110000  0.01445900  1
  O  O6  1  0.36505500  0.87890000  0.98554100  1
  O  O7  1  0.13494500  0.87890000  0.51445900  1
  O  O8  1  0.49341300  0.39625300  0.38340200  1
  O  O9  1  0.00658700  0.39625300  0.11659800  1
  O  O10  1  0.50658700  0.10374700  0.88340200  1
  O  O11  1  0.99341300  0.10374700  0.61659800  1
  O  O12  1  0.50658700  0.60374700  0.61659800  1
  O  O13  1  0.99341300  0.60374700  0.88340200  1
  O  O14  1  0.49341300  0.89625300  0.11659800  1
  O  O15  1  0.00658700  0.89625300  0.38340200  1
  O  O16  1  0.06050200  0.42135500  0.41798900  1
  O  O17  1  0.43949800  0.42135500  0.08201100  1
  O  O18  1  0.93949800  0.07864500  0.91798900  1
  O  O19  1  0.56050200  0.07864500  0.58201100  1
  O  O20  1  0.93949800  0.57864500  0.58201100  1
  O  O21  1  0.56050200  0.57864500  0.91798900  1
  O  O22  1  0.06050200  0.92135500  0.08201100  1
  O  O23  1  0.43949800  0.92135500  0.41798900  1
  O  O24  1  0.26581900  0.22271100  0.41949500  1
  O  O25  1  0.23418100  0.22271100  0.08050500  1
  O  O26  1  0.73418100  0.27728900  0.91949500  1
  O  O27  1  0.76581900  0.27728900  0.58050500  1
  O  O28  1  0.73418100  0.77728900  0.58050500  1
  O  O29  1  0.76581900  0.77728900  0.91949500  1
  O  O30  1  0.26581900  0.72271100  0.08050500  1
  O  O31  1  0.23418100  0.72271100  0.41949500  1
  O  O32  1  0.27114600  0.36966200  0.68082000  1
  O  O33  1  0.22885400  0.36966200  0.81918000  1
  O  O34  1  0.72885400  0.13033800  0.18082000  1
  O  O35  1  0.77114600  0.13033800  0.31918000  1
  O  O36  1  0.72885400  0.63033800  0.31918000  1
  O  O37  1  0.77114600  0.63033800  0.18082000  1
  O  O38  1  0.27114600  0.86966200  0.81918000  1
  O  O39  1  0.22885400  0.86966200  0.68082000  1
  O  O40  1  0.02382600  0.21734000  0.74771300  1
  O  O41  1  0.47617400  0.21734000  0.75228700  1
  O  O42  1  0.97617400  0.28266000  0.24771300  1
  O  O43  1  0.52382600  0.28266000  0.25228700  1
  O  O44  1  0.97617400  0.78266000  0.25228700  1
  O  O45  1  0.52382600  0.78266000  0.24771300  1
  O  O46  1  0.02382600  0.71734000  0.75228700  1
  O  O47  1  0.47617400  0.71734000  0.74771300  1
loop_
_geom_bond_atom_site_label_1
_geom_bond_atom_site_label_2
_geom_bond_distance
_geom_bond_site_symmetry_2
Li0 O20 1.921259 1_455
Li0 O32 1.959811 1_555
Li0 O0 1.998692 1_555
Li0 O12 2.050626 1_555
Li1 O21 1.921259 1_555
Li1 O33 1.959811 1_555
Li1 O1 1.998692 1_555
Li1 O13 2.050626 1_455
Li2 O22 1.921259 1_645
Li2 O34 1.959811 1_555
Li2 O2 1.998692 1_555
Li2 O14 2.050626 1_545
Li3 O23 1.921259 1_545
Li3 O35 1.959811 1_555
Li3 O3 1.998692 1_555
Li3 O15 2.050626 1_645
Li4 O16 1.921259 1_655
Li4 O36 1.959811 1_555
Li4 O4 1.998692 1_555
Li4 O8 2.050626 1_555
Li5 O17 1.921259 1_555
Li5 O37 1.959811 1_555
Li5 O5 1.998692 1_555
Li5 O9 2.050626 1_655
Li6 O18 1.921259 1_465
Li6 O38 1.959811 1_555
Li6 O6 1.998692 1_555
Li6 O10 2.050626 1_565
Li7 O19 1.921259 1_565
Li7 O39 1.959811 1_555
Li7 O7 1.998692 1_555
Li7 O11 2.050626 1_465
H0 O24 1.007092 1_555
H0 O3 1.719560 1_455
H1 O25 1.007092 1_555
H1 O2 1.719560 1_555
H2 O26 1.007092 1_555
H2 O1 1.719560 1_655
H3 O27 1.007092 1_555
H3 O0 1.719560 1_555
H4 O28 1.007092 1_555
H4 O7 1.719560 1_655
H5 O29 1.007092 1_555
H5 O6 1.719560 1_555
H6 O30 1.007092 1_555
H6 O5 1.719560 1_455
H7 O31 1.007092 1_555
H7 O4 1.719560 1_555
H8 O43 1.021932 1_555
H8 O8 1.626224 1_555
H9 O42 1.021932 1_555
H9 O9 1.626224 1_655
H10 O41 1.021932 1_555
H10 O10 1.626224 1_555
H11 O40 1.021932 1_555
H11 O11 1.626224 1_455
H12 O47 1.021932 1_555
H12 O12 1.626224 1_555
H13 O46 1.021932 1_555
H13 O13 1.626224 1_455
H14 O45 1.021932 1_555
H14 O14 1.626224 1_555
H15 O44 1.021932 1_555
H15 O15 1.626224 1_655
O0 S0 1.479648 1_555
O1 S1 1.479648 1_556
O2 S2 1.479648 1_554
O3 S3 1.479648 1_555
O4 S4 1.479648 1_555
O5 S5 1.479648 1_554
O6 S6 1.479648 1_556
O7 S7 1.479648 1_555
O8 S0 1.477222 1_555
O9 S1 1.477222 1_555
O10 S2 1.477222 1_555
O11 S3 1.477222 1_555
O12 S4 1.477222 1_555
O13 S5 1.477222 1_555
O14 S6 1.477222 1_555
O15 S7 1.477222 1_555
O16 S0 1.449841 1_555
O17 S1 1.449841 1_555
O18 S2 1.449841 1_555
O19 S3 1.449841 1_555
O20 S4 1.449841 1_555
O21 S5 1.449841 1_555
O22 S6 1.449841 1_555
O23 S7 1.449841 1_555
O24 S0 1.575888 1_555
O25 S1 1.575888 1_555
O26 S2 1.575888 1_555
O27 S3 1.575888 1_555
O28 S4 1.575888 1_555
O29 S5 1.575888 1_555
O30 S6 1.575888 1_555
O31 S7 1.575888 1_555
O32 S8 1.435155 1_555
O33 S8 1.435155 1_555
O34 S9 1.435155 1_555
O35 S9 1.435155 1_555
O36 S10 1.435155 1_555
O37 S10 1.435155 1_555
O38 S11 1.435155 1_555
O39 S11 1.435155 1_555
O40 S8 1.557020 1_555
O41 S8 1.557020 1_555
O42 S9 1.557020 1_555
O43 S9 1.557020 1_555
O44 S10 1.557020 1_555
O45 S10 1.557020 1_555
O46 S11 1.557020 1_555
O47 S11 1.557020 1_555
