# generated using pymatgen
data_Sm2Cu2O5
_symmetry_space_group_name_H-M   'P 1'
_cell_length_a   3.76661400
_cell_length_b   5.78979800
_cell_length_c   9.89187100
_cell_angle_alpha   90.00000000
_cell_angle_beta   90.00000000
_cell_angle_gamma   90.00000000
_symmetry_Int_Tables_number   1
_chemical_formula_structural   Sm2Cu2O5
_chemical_formula_sum   'Sm4 Cu4 O10'
_cell_volume   215.72127192
_cell_formula_units_Z   2
loop_
 _symmetry_equiv_pos_site_id
 _symmetry_equiv_pos_as_xyz
  1  'x, y, z'
loop_
 _atom_site_type_symbol
 _atom_site_label
 _atom_site_symmetry_multiplicity
 _atom_site_fract_x
 _atom_site_fract_y
 _atom_site_fract_z
 _atom_site_occupancy
  Sm  Sm0  1  0.50000000  0.14445900  0.84960300  1
  Sm  Sm1  1  0.50000000  0.35554100  0.34960300  1
  Sm  Sm2  1  0.50000000  0.64445900  0.65039700  1
  Sm  Sm3  1  0.50000000  0.85554100  0.15039700  1
  Cu  Cu0  1  0.00000000  0.18903700  0.59296200  1
  Cu  Cu1  1  0.00000000  0.31096300  0.09296200  1
  Cu  Cu2  1  0.00000000  0.68903700  0.90703800  1
  Cu  Cu3  1  0.00000000  0.81096300  0.40703800  1
  O  O0  1  0.00000000  0.00000000  0.00000000  1
  O  O1  1  0.00000000  0.09920200  0.30094000  1
  O  O2  1  0.50000000  0.23405800  0.60246600  1
  O  O3  1  0.50000000  0.26594200  0.10246600  1
  O  O4  1  0.00000000  0.40079800  0.80094000  1
  O  O5  1  0.00000000  0.50000000  0.50000000  1
  O  O6  1  0.00000000  0.59920200  0.19906000  1
  O  O7  1  0.50000000  0.73405800  0.89753400  1
  O  O8  1  0.50000000  0.76594200  0.39753400  1
  O  O9  1  0.00000000  0.90079800  0.69906000  1
loop_
_geom_bond_atom_site_label_1
_geom_bond_atom_site_label_2
_geom_bond_distance
_geom_bond_site_symmetry_2
Cu0 O2 1.903583 1_455
Cu0 O2 1.903583 1_555
Cu0 O9 1.971424 1_545
Cu0 O5 2.021656 1_555
Cu0 O4 2.394923 1_555
Cu1 O3 1.903583 1_455
Cu1 O3 1.903583 1_555
Cu1 O6 1.971424 1_555
Cu1 O0 2.021656 1_555
Cu1 O1 2.394923 1_555
Cu2 O7 1.903583 1_555
Cu2 O7 1.903583 1_455
Cu2 O4 1.971424 1_555
Cu2 O0 2.021656 1_566
Cu2 O9 2.394923 1_555
Cu3 O8 1.903583 1_455
Cu3 O8 1.903583 1_555
Cu3 O1 1.971424 1_565
Cu3 O5 2.021656 1_555
Cu3 O6 2.394923 1_555
O0 Sm3 2.541587 1_445
O0 Sm0 2.541587 1_454
O0 Sm0 2.541587 1_554
O0 Sm3 2.541587 1_545
O1 Sm1 2.445662 1_555
O1 Sm1 2.445662 1_455
O1 Sm3 2.784713 1_445
O1 Sm3 2.784713 1_545
O2 Sm2 2.422980 1_555
O2 Sm0 2.499082 1_555
O2 Sm1 2.598300 1_555
O3 Sm3 2.422980 1_545
O3 Sm1 2.499082 1_555
O3 Sm0 2.598300 1_554
O4 Sm0 2.445662 1_455
O4 Sm0 2.445662 1_555
O4 Sm2 2.784713 1_455
O4 Sm2 2.784713 1_555
O5 Sm2 2.541587 1_455
O5 Sm2 2.541587 1_555
O5 Sm1 2.541587 1_555
O5 Sm1 2.541587 1_455
O6 Sm3 2.445662 1_555
O6 Sm3 2.445662 1_455
O6 Sm1 2.784713 1_555
O6 Sm1 2.784713 1_455
O7 Sm0 2.422980 1_565
O7 Sm2 2.499082 1_555
O7 Sm3 2.598300 1_556
O8 Sm1 2.422980 1_555
O8 Sm3 2.499082 1_555
O8 Sm2 2.598300 1_555
O9 Sm2 2.445662 1_455
O9 Sm2 2.445662 1_555
O9 Sm0 2.784713 1_465
O9 Sm0 2.784713 1_565
