# generated using pymatgen
data_CuH12(BrO6)2
_symmetry_space_group_name_H-M   'P 1'
_cell_length_a   10.56587300
_cell_length_b   10.56587300
_cell_length_c   10.56587300
_cell_angle_alpha   90.00000000
_cell_angle_beta   90.00000000
_cell_angle_gamma   90.00000000
_symmetry_Int_Tables_number   1
_chemical_formula_structural   CuH12(BrO6)2
_chemical_formula_sum   'Cu4 H48 Br8 O48'
_cell_volume   1179.54946703
_cell_formula_units_Z   4
loop_
 _symmetry_equiv_pos_site_id
 _symmetry_equiv_pos_as_xyz
  1  'x, y, z'
loop_
 _atom_site_type_symbol
 _atom_site_label
 _atom_site_symmetry_multiplicity
 _atom_site_fract_x
 _atom_site_fract_y
 _atom_site_fract_z
 _atom_site_occupancy
  Cu  Cu0  1  0.50000000  0.50000000  0.00000000  1
  Cu  Cu1  1  0.50000000  0.00000000  0.50000000  1
  Cu  Cu2  1  0.00000000  0.50000000  0.50000000  1
  Cu  Cu3  1  0.00000000  0.00000000  0.00000000  1
  H  H0  1  0.11301700  0.60899900  0.22728900  1
  H  H1  1  0.88698300  0.10899900  0.27271100  1
  H  H2  1  0.38698300  0.39100100  0.72728900  1
  H  H3  1  0.61301700  0.89100100  0.77271100  1
  H  H4  1  0.22728900  0.11301700  0.60899900  1
  H  H5  1  0.27271100  0.88698300  0.10899900  1
  H  H6  1  0.72728900  0.38698300  0.39100100  1
  H  H7  1  0.77271100  0.61301700  0.89100100  1
  H  H8  1  0.60899900  0.22728900  0.11301700  1
  H  H9  1  0.10899900  0.27271100  0.88698300  1
  H  H10  1  0.39100100  0.72728900  0.38698300  1
  H  H11  1  0.89100100  0.77271100  0.61301700  1
  H  H12  1  0.88698300  0.39100100  0.77271100  1
  H  H13  1  0.11301700  0.89100100  0.72728900  1
  H  H14  1  0.61301700  0.60899900  0.27271100  1
  H  H15  1  0.38698300  0.10899900  0.22728900  1
  H  H16  1  0.77271100  0.88698300  0.39100100  1
  H  H17  1  0.72728900  0.11301700  0.89100100  1
  H  H18  1  0.27271100  0.61301700  0.60899900  1
  H  H19  1  0.22728900  0.38698300  0.10899900  1
  H  H20  1  0.39100100  0.77271100  0.88698300  1
  H  H21  1  0.89100100  0.72728900  0.11301700  1
  H  H22  1  0.60899900  0.27271100  0.61301700  1
  H  H23  1  0.10899900  0.22728900  0.38698300  1
  H  H24  1  0.18621600  0.39556500  0.90394900  1
  H  H25  1  0.81378400  0.89556500  0.59605100  1
  H  H26  1  0.31378400  0.60443500  0.40394900  1
  H  H27  1  0.68621600  0.10443500  0.09605100  1
  H  H28  1  0.90394900  0.18621600  0.39556500  1
  H  H29  1  0.59605100  0.81378400  0.89556500  1
  H  H30  1  0.40394900  0.31378400  0.60443500  1
  H  H31  1  0.09605100  0.68621600  0.10443500  1
  H  H32  1  0.39556500  0.90394900  0.18621600  1
  H  H33  1  0.89556500  0.59605100  0.81378400  1
  H  H34  1  0.60443500  0.40394900  0.31378400  1
  H  H35  1  0.10443500  0.09605100  0.68621600  1
  H  H36  1  0.81378400  0.60443500  0.09605100  1
  H  H37  1  0.18621600  0.10443500  0.40394900  1
  H  H38  1  0.68621600  0.39556500  0.59605100  1
  H  H39  1  0.31378400  0.89556500  0.90394900  1
  H  H40  1  0.09605100  0.81378400  0.60443500  1
  H  H41  1  0.40394900  0.18621600  0.10443500  1
  H  H42  1  0.59605100  0.68621600  0.39556500  1
  H  H43  1  0.90394900  0.31378400  0.89556500  1
  H  H44  1  0.60443500  0.09605100  0.81378400  1
  H  H45  1  0.10443500  0.40394900  0.18621600  1
  H  H46  1  0.39556500  0.59605100  0.68621600  1
  H  H47  1  0.89556500  0.90394900  0.31378400  1
  Br  Br0  1  0.15868000  0.84132000  0.34132000  1
  Br  Br1  1  0.84132000  0.34132000  0.15868000  1
  Br  Br2  1  0.34132000  0.15868000  0.84132000  1
  Br  Br3  1  0.65868000  0.65868000  0.65868000  1
  Br  Br4  1  0.84132000  0.15868000  0.65868000  1
  Br  Br5  1  0.15868000  0.65868000  0.84132000  1
  Br  Br6  1  0.65868000  0.84132000  0.15868000  1
  Br  Br7  1  0.34132000  0.34132000  0.34132000  1
  O  O0  1  0.15655500  0.63264800  0.14959400  1
  O  O1  1  0.84344500  0.13264800  0.35040600  1
  O  O2  1  0.34344500  0.36735200  0.64959400  1
  O  O3  1  0.65655500  0.86735200  0.85040600  1
  O  O4  1  0.14959400  0.15655500  0.63264800  1
  O  O5  1  0.35040600  0.84344500  0.13264800  1
  O  O6  1  0.64959400  0.34344500  0.36735200  1
  O  O7  1  0.85040600  0.65655500  0.86735200  1
  O  O8  1  0.63264800  0.14959400  0.15655500  1
  O  O9  1  0.13264800  0.35040600  0.84344500  1
  O  O10  1  0.36735200  0.64959400  0.34344500  1
  O  O11  1  0.86735200  0.85040600  0.65655500  1
  O  O12  1  0.84344500  0.36735200  0.85040600  1
  O  O13  1  0.15655500  0.86735200  0.64959400  1
  O  O14  1  0.65655500  0.63264800  0.35040600  1
  O  O15  1  0.34344500  0.13264800  0.14959400  1
  O  O16  1  0.85040600  0.84344500  0.36735200  1
  O  O17  1  0.64959400  0.15655500  0.86735200  1
  O  O18  1  0.35040600  0.65655500  0.63264800  1
  O  O19  1  0.14959400  0.34344500  0.13264800  1
  O  O20  1  0.36735200  0.85040600  0.84344500  1
  O  O21  1  0.86735200  0.64959400  0.15655500  1
  O  O22  1  0.63264800  0.35040600  0.65655500  1
  O  O23  1  0.13264800  0.14959400  0.34344500  1
  O  O24  1  0.51561500  0.60461100  0.85707600  1
  O  O25  1  0.48438500  0.10461100  0.64292400  1
  O  O26  1  0.98438500  0.39538900  0.35707600  1
  O  O27  1  0.01561500  0.89538900  0.14292400  1
  O  O28  1  0.85707600  0.51561500  0.60461100  1
  O  O29  1  0.64292400  0.48438500  0.10461100  1
  O  O30  1  0.35707600  0.98438500  0.39538900  1
  O  O31  1  0.14292400  0.01561500  0.89538900  1
  O  O32  1  0.60461100  0.85707600  0.51561500  1
  O  O33  1  0.10461100  0.64292400  0.48438500  1
  O  O34  1  0.39538900  0.35707600  0.98438500  1
  O  O35  1  0.89538900  0.14292400  0.01561500  1
  O  O36  1  0.48438500  0.39538900  0.14292400  1
  O  O37  1  0.51561500  0.89538900  0.35707600  1
  O  O38  1  0.01561500  0.60461100  0.64292400  1
  O  O39  1  0.98438500  0.10461100  0.85707600  1
  O  O40  1  0.14292400  0.48438500  0.39538900  1
  O  O41  1  0.35707600  0.51561500  0.89538900  1
  O  O42  1  0.64292400  0.01561500  0.60461100  1
  O  O43  1  0.85707600  0.98438500  0.10461100  1
  O  O44  1  0.39538900  0.14292400  0.48438500  1
  O  O45  1  0.89538900  0.35707600  0.51561500  1
  O  O46  1  0.60461100  0.64292400  0.01561500  1
  O  O47  1  0.10461100  0.85707600  0.98438500  1
loop_
_geom_bond_atom_site_label_1
_geom_bond_atom_site_label_2
_geom_bond_distance
_geom_bond_site_symmetry_2
Cu0 O46 1.878663 1_555
Cu0 O29 1.878663 1_555
Cu0 O41 1.878663 1_554
Cu0 O24 1.878663 1_554
Cu0 O34 1.878663 1_554
Cu0 O36 1.878663 1_555
Cu1 O42 1.878663 1_555
Cu1 O25 1.878663 1_555
Cu1 O37 1.878663 1_545
Cu1 O32 1.878663 1_545
Cu1 O30 1.878663 1_545
Cu1 O44 1.878663 1_555
Cu2 O38 1.878663 1_555
Cu2 O33 1.878663 1_555
Cu2 O45 1.878663 1_455
Cu2 O28 1.878663 1_455
Cu2 O26 1.878663 1_455
Cu2 O40 1.878663 1_555
Cu3 O27 1.878663 1_545
Cu3 O31 1.878663 1_554
Cu3 O35 1.878663 1_455
Cu3 O47 1.878663 1_544
Cu3 O43 1.878663 1_445
Cu3 O39 1.878663 1_454
H0 O0 0.973629 1_555
H1 O1 0.973629 1_555
H2 O2 0.973629 1_555
H3 O3 0.973629 1_555
H4 O4 0.973629 1_555
H5 O5 0.973629 1_555
H6 O6 0.973629 1_555
H7 O7 0.973629 1_555
H8 O8 0.973629 1_555
H9 O9 0.973629 1_555
H10 O10 0.973629 1_555
H11 O11 0.973629 1_555
H12 O12 0.973629 1_555
H13 O13 0.973629 1_555
H14 O14 0.973629 1_555
H15 O15 0.973629 1_555
H16 O16 0.973629 1_555
H17 O17 0.973629 1_555
H18 O18 0.973629 1_555
H19 O19 0.973629 1_555
H20 O20 0.973629 1_555
H21 O21 0.973629 1_555
H22 O22 0.973629 1_555
H23 O23 0.973629 1_555
H24 O9 0.978105 1_555
H25 O11 0.978105 1_555
H26 O10 0.978105 1_555
H27 O8 0.978105 1_555
H28 O1 0.978105 1_555
H29 O3 0.978105 1_555
H30 O2 0.978105 1_555
H31 O0 0.978105 1_555
H32 O5 0.978105 1_555
H33 O7 0.978105 1_555
H34 O6 0.978105 1_555
H35 O4 0.978105 1_555
H36 O21 0.978105 1_555
H37 O23 0.978105 1_555
H38 O22 0.978105 1_555
H39 O20 0.978105 1_555
H40 O13 0.978105 1_555
H41 O15 0.978105 1_555
H42 O14 0.978105 1_555
H43 O12 0.978105 1_555
H44 O17 0.978105 1_555
H45 O19 0.978105 1_555
H46 O18 0.978105 1_555
H47 O16 0.978105 1_555
