# generated using pymatgen
data_WOF4
_symmetry_space_group_name_H-M   'P 1'
_cell_length_a   5.12076500
_cell_length_b   11.07890800
_cell_length_c   16.24758814
_cell_angle_alpha   63.61855856
_cell_angle_beta   90.00000000
_cell_angle_gamma   90.00000000
_symmetry_Int_Tables_number   1
_chemical_formula_structural   WOF4
_chemical_formula_sum   'W8 O8 F32'
_cell_volume   825.76939192
_cell_formula_units_Z   8
loop_
 _symmetry_equiv_pos_site_id
 _symmetry_equiv_pos_as_xyz
  1  'x, y, z'
loop_
 _atom_site_type_symbol
 _atom_site_label
 _atom_site_symmetry_multiplicity
 _atom_site_fract_x
 _atom_site_fract_y
 _atom_site_fract_z
 _atom_site_occupancy
  W  W0  1  0.57500700  0.41889900  0.92095100  1
  W  W1  1  0.07500700  0.58110100  0.57904900  1
  W  W2  1  0.51603400  0.08256700  0.32914700  1
  W  W3  1  0.01603400  0.91743300  0.17085300  1
  W  W4  1  0.98396600  0.08256700  0.82914700  1
  W  W5  1  0.48396600  0.91743300  0.67085300  1
  W  W6  1  0.92499300  0.41889900  0.42095100  1
  W  W7  1  0.42499300  0.58110100  0.07904900  1
  O  O0  1  0.69882300  0.82042400  0.64521500  1
  O  O1  1  0.28805100  0.68625900  0.59724000  1
  O  O2  1  0.78805100  0.31374100  0.90276000  1
  O  O3  1  0.19882300  0.17957600  0.85478500  1
  O  O4  1  0.80117700  0.82042400  0.14521500  1
  O  O5  1  0.21194900  0.68625900  0.09724000  1
  O  O6  1  0.71194900  0.31374100  0.40276000  1
  O  O7  1  0.30117700  0.17957600  0.35478500  1
  F  F0  1  0.74382400  0.58658300  0.85699200  1
  F  F1  1  0.70792900  0.42472600  0.03144400  1
  F  F2  1  0.82578800  0.70381100  0.50114700  1
  F  F3  1  0.76387200  0.20665700  0.25101700  1
  F  F4  1  0.33758800  0.47085100  0.82310200  1
  F  F5  1  0.83758800  0.52914900  0.67689800  1
  F  F6  1  0.76571700  0.02812600  0.42407200  1
  F  F7  1  0.32578800  0.29618900  0.99885300  1
  F  F8  1  0.36333800  0.08344600  0.22066700  1
  F  F9  1  0.24382400  0.41341700  0.64300800  1
  F  F10  1  0.37059500  0.90868600  0.39107300  1
  F  F11  1  0.87059500  0.09131400  0.10892700  1
  F  F12  1  0.79207100  0.42472600  0.53144400  1
  F  F13  1  0.86333800  0.91655400  0.27933300  1
  F  F14  1  0.73612800  0.20665700  0.75101700  1
  F  F15  1  0.26571700  0.97187400  0.07592800  1
  F  F16  1  0.73428300  0.02812600  0.92407200  1
  F  F17  1  0.26387200  0.79334300  0.24898300  1
  F  F18  1  0.13666200  0.08344600  0.72066700  1
  F  F19  1  0.20792900  0.57527400  0.46855600  1
  F  F20  1  0.12940500  0.90868600  0.89107300  1
  F  F21  1  0.62940500  0.09131400  0.60892700  1
  F  F22  1  0.75617600  0.58658300  0.35699200  1
  F  F23  1  0.63666200  0.91655400  0.77933300  1
  F  F24  1  0.67421200  0.70381100  0.00114700  1
  F  F25  1  0.23428300  0.97187400  0.57592800  1
  F  F26  1  0.16241200  0.47085100  0.32310200  1
  F  F27  1  0.66241200  0.52914900  0.17689800  1
  F  F28  1  0.23612800  0.79334300  0.74898300  1
  F  F29  1  0.17421200  0.29618900  0.49885300  1
  F  F30  1  0.29207100  0.57527400  0.96855600  1
  F  F31  1  0.25617600  0.41341700  0.14300800  1
loop_
_geom_bond_atom_site_label_1
_geom_bond_atom_site_label_2
_geom_bond_distance
_geom_bond_site_symmetry_2
O0 W5 1.713764 1_555
O1 W1 1.714888 1_555
O2 W0 1.714888 1_555
O3 W4 1.713764 1_455
O4 W3 1.713764 1_655
O5 W7 1.714888 1_555
O6 W6 1.714888 1_555
O7 W2 1.713764 1_555
F0 W0 1.887540 1_555
F1 W0 1.947657 1_554
F2 W1 1.884073 1_655
F3 W2 1.887115 1_555
F4 W0 1.877145 1_555
F5 W1 1.877145 1_655
F6 W2 1.884285 1_555
F7 W0 1.884073 1_555
F8 W2 1.924261 1_555
F9 W1 1.887540 1_555
F10 W2 1.885617 1_565
F11 W3 1.885617 1_645
F12 W6 1.947657 1_555
F13 W3 1.924261 1_655
F14 W4 1.887115 1_555
F15 W3 1.884285 1_555
F16 W4 1.884285 1_555
F17 W3 1.887115 1_555
F18 W4 1.924261 1_455
F19 W1 1.947657 1_555
F20 W4 1.885617 1_465
F21 W5 1.885617 1_545
F22 W6 1.887540 1_555
F23 W5 1.924261 1_555
F24 W7 1.884073 1_555
F25 W5 1.884285 1_555
F26 W6 1.877145 1_455
F27 W7 1.877145 1_555
F28 W5 1.887115 1_555
F29 W6 1.884073 1_455
F30 W7 1.947657 1_556
F31 W7 1.887540 1_555
