# generated using pymatgen
data_Mn2F5
_symmetry_space_group_name_H-M   'P 1'
_cell_length_a   6.08764286
_cell_length_b   6.08764286
_cell_length_c   7.97923614
_cell_angle_alpha   69.85514473
_cell_angle_beta   69.85514473
_cell_angle_gamma   51.69313104
_symmetry_Int_Tables_number   1
_chemical_formula_structural   Mn2F5
_chemical_formula_sum   'Mn4 F10'
_cell_volume   214.37851854
_cell_formula_units_Z   2
loop_
 _symmetry_equiv_pos_site_id
 _symmetry_equiv_pos_as_xyz
  1  'x, y, z'
loop_
 _atom_site_type_symbol
 _atom_site_label
 _atom_site_symmetry_multiplicity
 _atom_site_fract_x
 _atom_site_fract_y
 _atom_site_fract_z
 _atom_site_occupancy
  Mn  Mn0  1  0.40367800  0.36048300  0.70387800  1
  Mn  Mn1  1  0.36048300  0.40367800  0.20387800  1
  Mn  Mn2  1  0.63951700  0.59632200  0.79612200  1
  Mn  Mn3  1  0.59632200  0.63951700  0.29612200  1
  F  F0  1  0.56396800  0.29141100  0.42990100  1
  F  F1  1  0.45297600  0.99065600  0.81148900  1
  F  F2  1  0.99065600  0.45297600  0.31148900  1
  F  F3  1  0.29141100  0.56396800  0.92990100  1
  F  F4  1  0.77625000  0.22375000  0.75000000  1
  F  F5  1  0.70858900  0.43603200  0.07009900  1
  F  F6  1  0.00934400  0.54702400  0.68851100  1
  F  F7  1  0.54702400  0.00934400  0.18851100  1
  F  F8  1  0.43603200  0.70858900  0.57009900  1
  F  F9  1  0.22375000  0.77625000  0.25000000  1
loop_
_geom_bond_atom_site_label_1
_geom_bond_atom_site_label_2
_geom_bond_distance
_geom_bond_site_symmetry_2
F0 Mn3 2.117442 1_555
F0 Mn0 2.136185 1_555
F0 Mn1 2.212327 1_555
F1 Mn2 1.947954 1_555
F1 Mn0 1.975944 1_565
F2 Mn3 1.947954 1_555
F2 Mn1 1.975944 1_655
F3 Mn2 2.117442 1_555
F3 Mn1 2.136185 1_556
F3 Mn0 2.212327 1_555
F4 Mn2 1.998977 1_555
F4 Mn0 1.998977 1_555
F5 Mn1 2.117442 1_555
F5 Mn2 2.136185 1_554
F5 Mn3 2.212327 1_555
F6 Mn0 1.947954 1_555
F6 Mn2 1.975944 1_455
F7 Mn1 1.947954 1_555
F7 Mn3 1.975944 1_545
F8 Mn0 2.117442 1_555
F8 Mn3 2.136185 1_555
F8 Mn2 2.212327 1_555
F9 Mn3 1.998977 1_555
F9 Mn1 1.998977 1_555
