# generated using pymatgen
data_Li4Cr3Fe3(TeO8)2
_symmetry_space_group_name_H-M   'P 1'
_cell_length_a   6.01696765
_cell_length_b   6.01696765
_cell_length_c   9.82577389
_cell_angle_alpha   89.47628110
_cell_angle_beta   89.47628110
_cell_angle_gamma   59.92445729
_symmetry_Int_Tables_number   1
_chemical_formula_structural   Li4Cr3Fe3(TeO8)2
_chemical_formula_sum   'Li4 Cr3 Fe3 Te2 O16'
_cell_volume   307.82045856
_cell_formula_units_Z   1
loop_
 _symmetry_equiv_pos_site_id
 _symmetry_equiv_pos_as_xyz
  1  'x, y, z'
loop_
 _atom_site_type_symbol
 _atom_site_label
 _atom_site_symmetry_multiplicity
 _atom_site_fract_x
 _atom_site_fract_y
 _atom_site_fract_z
 _atom_site_occupancy
  Li  Li0  1  0.66600900  0.66600900  0.09177900  1
  Li  Li1  1  0.00046900  0.00046900  0.01049000  1
  Li  Li2  1  0.00112900  0.00112900  0.50955800  1
  Li  Li3  1  0.33280500  0.33280500  0.59475800  1
  Cr  Cr0  1  0.33977900  0.83095700  0.78658200  1
  Cr  Cr1  1  0.83095700  0.33977900  0.78658200  1
  Cr  Cr2  1  0.17119700  0.17119700  0.28629200  1
  Fe  Fe0  1  0.83202300  0.83202300  0.78589800  1
  Fe  Fe1  1  0.17056000  0.66276400  0.28574900  1
  Fe  Fe2  1  0.66276400  0.17056000  0.28574900  1
  Te  Te0  1  0.66755000  0.66755000  0.51450600  1
  Te  Te1  1  0.33381000  0.33381000  0.01284600  1
  O  O0  1  0.32441800  0.83733200  0.40255600  1
  O  O1  1  0.51650300  0.51650300  0.66482300  1
  O  O2  1  0.66825800  0.66825800  0.88984900  1
  O  O3  1  0.99966800  0.99966800  0.69349300  1
  O  O4  1  0.00079400  0.00079400  0.19471400  1
  O  O5  1  0.83733200  0.32441800  0.40255600  1
  O  O6  1  0.51429900  0.96466200  0.65807900  1
  O  O7  1  0.96466200  0.51429900  0.65807900  1
  O  O8  1  0.15863700  0.15863700  0.90190900  1
  O  O9  1  0.83692500  0.83692500  0.40612900  1
  O  O10  1  0.03466400  0.48047800  0.15869200  1
  O  O11  1  0.48047800  0.03466400  0.15869200  1
  O  O12  1  0.33514800  0.33514800  0.39061000  1
  O  O13  1  0.15992200  0.67778000  0.90447800  1
  O  O14  1  0.48127800  0.48127800  0.15226700  1
  O  O15  1  0.67778000  0.15992200  0.90447800  1
loop_
_geom_bond_atom_site_label_1
_geom_bond_atom_site_label_2
_geom_bond_distance
_geom_bond_site_symmetry_2
Li0 O2 1.984010 1_554
Li0 O14 2.009563 1_555
Li0 O11 2.032282 1_565
Li0 O10 2.032282 1_655
Li1 O4 1.810182 1_555
Li1 O8 1.954573 1_554
Li1 O15 1.981666 1_454
Li1 O13 1.981666 1_544
Li2 O3 1.807207 1_445
Li2 O0 1.980063 1_545
Li2 O5 1.980063 1_455
Li2 O9 2.000059 1_445
Li3 O12 2.005803 1_555
Li3 O7 2.012229 1_455
Li3 O6 2.012229 1_545
Li3 O1 2.041975 1_555
Cr0 O2 1.993365 1_555
Cr0 O3 1.997528 1_455
Cr0 O1 2.035566 1_555
Cr0 O6 2.036679 1_555
Cr0 O8 2.055191 1_565
Cr0 O13 2.078412 1_555
Cr1 O2 1.993365 1_555
Cr1 O3 1.997528 1_545
Cr1 O1 2.035566 1_555
Cr1 O7 2.036679 1_555
Cr1 O8 2.055191 1_655
Cr1 O15 2.078412 1_555
Cr2 O4 1.999899 1_555
Cr2 O12 2.002324 1_555
Cr2 O10 2.038087 1_555
Cr2 O11 2.038087 1_555
Cr2 O5 2.076426 1_455
Cr2 O0 2.076426 1_545
Fe0 O3 1.961052 1_555
Fe0 O2 1.980285 1_555
Fe0 O15 2.073273 1_565
Fe0 O13 2.073273 1_655
Fe0 O6 2.089346 1_555
Fe0 O7 2.089346 1_555
Fe1 O4 1.970138 1_565
Fe1 O12 1.988234 1_555
Fe1 O0 2.072109 1_555
Fe1 O14 2.084012 1_555
Fe1 O10 2.091115 1_555
Fe1 O9 2.097125 1_455
Fe2 O4 1.970138 1_655
Fe2 O12 1.988234 1_555
Fe2 O5 2.072109 1_555
Fe2 O14 2.084012 1_555
Fe2 O11 2.091115 1_555
Fe2 O9 2.097125 1_545
O0 Te0 2.103150 1_555
O1 Te0 2.147621 1_555
O5 Te0 2.103150 1_555
O6 Te0 2.099147 1_555
O7 Te0 2.099147 1_555
O8 Te1 2.136714 1_556
O9 Te0 2.052442 1_555
O10 Te1 2.110959 1_555
O11 Te1 2.110959 1_555
O13 Te1 2.078863 1_556
O14 Te1 2.069994 1_555
O15 Te1 2.078863 1_556
