# generated using pymatgen
data_LiSiBi3O7
_symmetry_space_group_name_H-M   'P 1'
_cell_length_a   8.58476698
_cell_length_b   8.58476698
_cell_length_c   5.22425300
_cell_angle_alpha   90.00000000
_cell_angle_beta   90.00000000
_cell_angle_gamma   119.99999217
_symmetry_Int_Tables_number   1
_chemical_formula_structural   LiSiBi3O7
_chemical_formula_sum   'Li2 Si2 Bi6 O14'
_cell_volume   333.43554131
_cell_formula_units_Z   2
loop_
 _symmetry_equiv_pos_site_id
 _symmetry_equiv_pos_as_xyz
  1  'x, y, z'
loop_
 _atom_site_type_symbol
 _atom_site_label
 _atom_site_symmetry_multiplicity
 _atom_site_fract_x
 _atom_site_fract_y
 _atom_site_fract_z
 _atom_site_occupancy
  Li  Li0  1  0.00000000  0.00000000  0.01971400  1
  Li  Li1  1  0.00000000  0.00000000  0.51971400  1
  Si  Si0  1  0.33333300  0.66666700  0.17346300  1
  Si  Si1  1  0.66666700  0.33333300  0.67346300  1
  Bi  Bi0  1  0.08792500  0.73269700  0.70118100  1
  Bi  Bi1  1  0.26730300  0.35522800  0.70118100  1
  Bi  Bi2  1  0.64477200  0.91207500  0.70118100  1
  Bi  Bi3  1  0.35522800  0.08792500  0.20118100  1
  Bi  Bi4  1  0.73269700  0.64477200  0.20118100  1
  Bi  Bi5  1  0.91207500  0.26730300  0.20118100  1
  O  O0  1  0.08273800  0.85517800  0.32780300  1
  O  O1  1  0.13084200  0.53103800  0.05013100  1
  O  O2  1  0.40019700  0.86915800  0.05013100  1
  O  O3  1  0.33333300  0.66666700  0.48727800  1
  O  O4  1  0.14482200  0.22756000  0.32780300  1
  O  O5  1  0.46896200  0.59980300  0.05013100  1
  O  O6  1  0.22756000  0.08273800  0.82780300  1
  O  O7  1  0.77244000  0.91726200  0.32780300  1
  O  O8  1  0.53103800  0.40019700  0.55013100  1
  O  O9  1  0.85517800  0.77244000  0.82780300  1
  O  O10  1  0.66666700  0.33333300  0.98727800  1
  O  O11  1  0.59980300  0.13084200  0.55013100  1
  O  O12  1  0.86915800  0.46896200  0.55013100  1
  O  O13  1  0.91726200  0.14482200  0.82780300  1
loop_
_geom_bond_atom_site_label_1
_geom_bond_atom_site_label_2
_geom_bond_distance
_geom_bond_site_symmetry_2
Li0 O13 1.984559 1_454
Li0 O6 1.984559 1_554
Li0 O9 1.984559 1_444
Li0 O0 2.350295 1_545
Li0 O7 2.350295 1_445
Li0 O4 2.350295 1_555
Li1 O0 1.984559 1_545
Li1 O7 1.984559 1_445
Li1 O4 1.984559 1_555
Li1 O13 2.350295 1_455
Li1 O6 2.350295 1_555
Li1 O9 2.350295 1_445
Bi0 O0 2.226953 1_555
Bi0 O12 2.241400 1_455
Bi0 O9 2.286488 1_455
Bi0 O1 2.663447 1_556
Bi0 O3 2.683803 1_555
Bi0 O6 2.702310 1_565
Bi1 O4 2.226953 1_555
Bi1 O8 2.241397 1_555
Bi1 O6 2.286488 1_555
Bi1 O5 2.663443 1_556
Bi1 O3 2.683811 1_555
Bi1 O13 2.702310 1_455
Bi2 O7 2.226953 1_555
Bi2 O11 2.241405 1_565
Bi2 O13 2.286488 1_565
Bi2 O2 2.663441 1_556
Bi2 O3 2.683809 1_555
Bi2 O9 2.702310 1_555
Bi3 O6 2.226953 1_554
Bi3 O2 2.241405 1_545
Bi3 O0 2.286488 1_545
Bi3 O11 2.663441 1_555
Bi3 O10 2.683809 1_554
Bi3 O4 2.702310 1_555
Bi4 O9 2.226953 1_554
Bi4 O5 2.241397 1_555
Bi4 O7 2.286488 1_555
Bi4 O8 2.663443 1_555
Bi4 O10 2.683811 1_554
Bi4 O0 2.702310 1_655
Bi5 O13 2.226953 1_554
Bi5 O1 2.241400 1_655
Bi5 O4 2.286488 1_655
Bi5 O12 2.663447 1_555
Bi5 O10 2.683803 1_554
Bi5 O7 2.702310 1_545
O1 Si0 1.663922 1_555
O2 Si0 1.663919 1_555
O3 Si0 1.639449 1_555
O5 Si0 1.663934 1_555
O8 Si1 1.663934 1_555
O10 Si1 1.639449 1_555
O11 Si1 1.663919 1_555
O12 Si1 1.663922 1_555
