# generated using pymatgen
data_Li3VPCO7
_symmetry_space_group_name_H-M   'P 1'
_cell_length_a   6.50870500
_cell_length_b   8.64309800
_cell_length_c   9.71771430
_cell_angle_alpha   88.01892193
_cell_angle_beta   90.00000000
_cell_angle_gamma   90.00000000
_symmetry_Int_Tables_number   1
_chemical_formula_structural   Li3VPCO7
_chemical_formula_sum   'Li12 V4 P4 C4 O28'
_cell_volume   546.34691563
_cell_formula_units_Z   4
loop_
 _symmetry_equiv_pos_site_id
 _symmetry_equiv_pos_as_xyz
  1  'x, y, z'
loop_
 _atom_site_type_symbol
 _atom_site_label
 _atom_site_symmetry_multiplicity
 _atom_site_fract_x
 _atom_site_fract_y
 _atom_site_fract_z
 _atom_site_occupancy
  Li  Li0  1  0.74971000  0.88809600  0.61614400  1
  Li  Li1  1  0.75029000  0.88809600  0.11614400  1
  Li  Li2  1  0.97960100  0.70718800  0.88009000  1
  Li  Li3  1  0.52039900  0.70718800  0.38009000  1
  Li  Li4  1  0.25496700  0.62813100  0.61445900  1
  Li  Li5  1  0.24503300  0.62813100  0.11445900  1
  Li  Li6  1  0.75496700  0.37186900  0.88554100  1
  Li  Li7  1  0.74503300  0.37186900  0.38554100  1
  Li  Li8  1  0.47960100  0.29281200  0.61991000  1
  Li  Li9  1  0.02039900  0.29281200  0.11991000  1
  Li  Li10  1  0.24971000  0.11190400  0.88385600  1
  Li  Li11  1  0.25029000  0.11190400  0.38385600  1
  V  V0  1  0.48118000  0.75175400  0.88593100  1
  V  V1  1  0.01882000  0.75175400  0.38593100  1
  V  V2  1  0.98118000  0.24824600  0.61406900  1
  V  V3  1  0.51882000  0.24824600  0.11406900  1
  P  P0  1  0.74277000  0.59092000  0.64128700  1
  P  P1  1  0.75723000  0.59092000  0.14128700  1
  P  P2  1  0.24277000  0.40908000  0.85871300  1
  P  P3  1  0.25723000  0.40908000  0.35871300  1
  C  C0  1  0.23821800  0.94666300  0.63387000  1
  C  C1  1  0.26178200  0.94666300  0.13387000  1
  C  C2  1  0.73821800  0.05333700  0.86613000  1
  C  C3  1  0.76178200  0.05333700  0.36613000  1
  O  O0  1  0.21201700  0.92441500  0.50285600  1
  O  O1  1  0.73162800  0.91008600  0.82335500  1
  O  O2  1  0.28798300  0.92441500  0.00285600  1
  O  O3  1  0.26854600  0.83433800  0.72076400  1
  O  O4  1  0.76837200  0.91008600  0.32335500  1
  O  O5  1  0.23145400  0.83433800  0.22076400  1
  O  O6  1  0.94035200  0.68079200  0.59447800  1
  O  O7  1  0.56249600  0.68535000  0.57941400  1
  O  O8  1  0.93750400  0.68535000  0.07941400  1
  O  O9  1  0.55964800  0.68079200  0.09447800  1
  O  O10  1  0.24319900  0.57959100  0.90401800  1
  O  O11  1  0.72968000  0.59158400  0.80227900  1
  O  O12  1  0.25680100  0.57959100  0.40401800  1
  O  O13  1  0.77032000  0.59158400  0.30227900  1
  O  O14  1  0.22968000  0.40841600  0.69772100  1
  O  O15  1  0.74319900  0.42040900  0.59598200  1
  O  O16  1  0.27032000  0.40841600  0.19772100  1
  O  O17  1  0.75680100  0.42040900  0.09598200  1
  O  O18  1  0.06249600  0.31465000  0.92058600  1
  O  O19  1  0.44035200  0.31920800  0.90552200  1
  O  O20  1  0.43750400  0.31465000  0.42058600  1
  O  O21  1  0.05964800  0.31920800  0.40552200  1
  O  O22  1  0.76854600  0.16566200  0.77923600  1
  O  O23  1  0.23162800  0.08991400  0.67664500  1
  O  O24  1  0.73145400  0.16566200  0.27923600  1
  O  O25  1  0.71201700  0.07558500  0.99714400  1
  O  O26  1  0.26837200  0.08991400  0.17664500  1
  O  O27  1  0.78798300  0.07558500  0.49714400  1
loop_
_geom_bond_atom_site_label_1
_geom_bond_atom_site_label_2
_geom_bond_distance
_geom_bond_site_symmetry_2
Li0 O27 1.973764 1_565
Li0 O1 2.032508 1_555
Li0 O7 2.173978 1_555
Li0 O6 2.195550 1_555
Li1 O25 1.973764 1_564
Li1 O4 2.032508 1_555
Li1 O8 2.173978 1_555
Li1 O9 2.195550 1_555
Li2 O8 1.958900 1_556
Li2 O10 2.048449 1_655
Li2 O11 2.066005 1_555
Li2 O1 2.432573 1_555
Li3 O7 1.958900 1_555
Li3 O12 2.048449 1_555
Li3 O13 2.066005 1_555
Li3 O4 2.432573 1_555
Li4 O14 2.044944 1_555
Li4 O7 2.086954 1_555
Li4 O3 2.092548 1_555
Li4 O12 2.101789 1_555
Li4 O6 2.105227 1_455
Li5 O16 2.044944 1_555
Li5 O8 2.086954 1_455
Li5 O5 2.092548 1_555
Li5 O10 2.101789 1_554
Li5 O9 2.105227 1_555
Li6 O11 2.044944 1_555
Li6 O18 2.086954 1_655
Li6 O22 2.092548 1_555
Li6 O17 2.101789 1_556
Li6 O19 2.105227 1_555
Li7 O13 2.044944 1_555
Li7 O20 2.086954 1_555
Li7 O24 2.092548 1_555
Li7 O15 2.101789 1_555
Li7 O21 2.105227 1_655
Li8 O20 1.958900 1_555
Li8 O15 2.048449 1_555
Li8 O14 2.066005 1_555
Li8 O23 2.432573 1_555
Li9 O18 1.958900 1_554
Li9 O17 2.048449 1_455
Li9 O16 2.066005 1_555
Li9 O26 2.432573 1_555
Li10 O2 1.973764 1_546
Li10 O23 2.032508 1_555
Li10 O18 2.173978 1_555
Li10 O19 2.195550 1_555
Li11 O0 1.973764 1_545
Li11 O26 2.032508 1_555
Li11 O20 2.173978 1_555
Li11 O21 2.195550 1_555
C0 O3 1.279781 1_555
C0 O0 1.305340 1_555
C0 O23 1.320296 1_565
C1 O5 1.279781 1_555
C1 O2 1.305340 1_555
C1 O26 1.320296 1_565
C2 O22 1.279781 1_555
C2 O25 1.305340 1_555
C2 O1 1.320296 1_545
C3 O24 1.279781 1_555
C3 O27 1.305340 1_555
C3 O4 1.320296 1_545
O0 V1 2.283973 1_555
O1 V0 2.200496 1_555
O2 V0 2.283973 1_554
O3 V0 2.218519 1_555
O4 V1 2.200496 1_655
O5 V1 2.218519 1_555
O6 P0 1.561942 1_555
O6 V1 2.158283 1_655
O7 P0 1.539633 1_555
O8 P1 1.539633 1_555
O9 P1 1.561942 1_555
O9 V0 2.158283 1_554
O10 P2 1.552616 1_555
O10 V0 2.150874 1_555
O11 P0 1.567001 1_555
O11 V0 2.295891 1_555
O12 P3 1.552616 1_555
O12 V1 2.150874 1_555
O13 P1 1.567001 1_555
O13 V1 2.295891 1_655
O14 P2 1.567001 1_555
O14 V2 2.295891 1_455
O15 P0 1.552616 1_555
O15 V2 2.150874 1_555
O16 P3 1.567001 1_555
O16 V3 2.295891 1_555
O17 P1 1.552616 1_555
O17 V3 2.150874 1_555
O18 P2 1.539633 1_555
O19 P2 1.561942 1_555
O19 V3 2.158283 1_556
O20 P3 1.539633 1_555
O21 P3 1.561942 1_555
O21 V2 2.158283 1_455
O22 V2 2.218519 1_555
O23 V2 2.200496 1_455
O24 V3 2.218519 1_555
O25 V3 2.283973 1_556
O26 V3 2.200496 1_555
O27 V2 2.283973 1_555
