# generated using pymatgen
data_LiMnF3
_symmetry_space_group_name_H-M   'P 1'
_cell_length_a   8.85940000
_cell_length_b   8.85940000
_cell_length_c   6.25491200
_cell_angle_alpha   90.00000000
_cell_angle_beta   90.00000000
_cell_angle_gamma   90.00000000
_symmetry_Int_Tables_number   1
_chemical_formula_structural   LiMnF3
_chemical_formula_sum   'Li8 Mn8 F24'
_cell_volume   490.94159006
_cell_formula_units_Z   8
loop_
 _symmetry_equiv_pos_site_id
 _symmetry_equiv_pos_as_xyz
  1  'x, y, z'
loop_
 _atom_site_type_symbol
 _atom_site_label
 _atom_site_symmetry_multiplicity
 _atom_site_fract_x
 _atom_site_fract_y
 _atom_site_fract_z
 _atom_site_occupancy
  Li  Li0  1  0.94834300  0.84928300  0.16133600  1
  Li  Li1  1  0.84928300  0.05165700  0.83866400  1
  Li  Li2  1  0.15071700  0.94834300  0.83866400  1
  Li  Li3  1  0.05165700  0.15071700  0.16133600  1
  Li  Li4  1  0.44834300  0.34928300  0.33866400  1
  Li  Li5  1  0.34928300  0.55165700  0.66133600  1
  Li  Li6  1  0.65071700  0.44834300  0.66133600  1
  Li  Li7  1  0.55165700  0.65071700  0.33866400  1
  Mn  Mn0  1  0.52278700  0.80709600  0.89710600  1
  Mn  Mn1  1  0.30709600  0.97721300  0.39710600  1
  Mn  Mn2  1  0.69290400  0.02278700  0.39710600  1
  Mn  Mn3  1  0.47721300  0.19290400  0.89710600  1
  Mn  Mn4  1  0.02278700  0.30709600  0.60289400  1
  Mn  Mn5  1  0.80709600  0.47721300  0.10289400  1
  Mn  Mn6  1  0.19290400  0.52278700  0.10289400  1
  Mn  Mn7  1  0.97721300  0.69290400  0.60289400  1
  F  F0  1  0.82224100  0.82758400  0.43710200  1
  F  F1  1  0.94994000  0.84548000  0.85384000  1
  F  F2  1  0.49838600  0.85897400  0.27336500  1
  F  F3  1  0.17241600  0.82224100  0.56289800  1
  F  F4  1  0.64102600  0.99838600  0.77336500  1
  F  F5  1  0.15452000  0.94994000  0.14616000  1
  F  F6  1  0.84548000  0.05006000  0.14616000  1
  F  F7  1  0.35897400  0.00161400  0.77336500  1
  F  F8  1  0.82758400  0.17775900  0.56289800  1
  F  F9  1  0.50161400  0.14102600  0.27336500  1
  F  F10  1  0.05006000  0.15452000  0.85384000  1
  F  F11  1  0.17775900  0.17241600  0.43710200  1
  F  F12  1  0.32224100  0.32758400  0.06289800  1
  F  F13  1  0.44994000  0.34548000  0.64616000  1
  F  F14  1  0.99838600  0.35897400  0.22663500  1
  F  F15  1  0.67241600  0.32224100  0.93710200  1
  F  F16  1  0.14102600  0.49838600  0.72663500  1
  F  F17  1  0.65452000  0.44994000  0.35384000  1
  F  F18  1  0.34548000  0.55006000  0.35384000  1
  F  F19  1  0.85897400  0.50161400  0.72663500  1
  F  F20  1  0.32758400  0.67775900  0.93710200  1
  F  F21  1  0.00161400  0.64102600  0.22663500  1
  F  F22  1  0.55006000  0.65452000  0.64616000  1
  F  F23  1  0.67775900  0.67241600  0.06289800  1
loop_
_geom_bond_atom_site_label_1
_geom_bond_atom_site_label_2
_geom_bond_distance
_geom_bond_site_symmetry_2
F0 Li0 2.064054 1_555
F0 Mn2 2.089573 1_565
F0 Mn7 2.093825 1_555
F1 Li0 1.923708 1_556
F1 Li2 2.000872 1_655
F1 Li1 2.034879 1_565
F1 Mn7 2.085509 1_555
F2 Li7 1.947743 1_555
F2 Mn1 2.137388 1_555
F2 Mn2 2.382246 1_565
F2 Mn0 2.407650 1_554
F3 Li2 2.064054 1_555
F3 Mn7 2.089573 1_455
F3 Mn1 2.093825 1_555
F4 Li1 1.947743 1_565
F4 Mn0 2.137388 1_555
F4 Mn3 2.382246 1_565
F4 Mn2 2.407650 1_565
F5 Li2 1.923708 1_554
F5 Li3 2.000872 1_565
F5 Li0 2.034879 1_455
F5 Mn1 2.085509 1_555
F6 Li1 1.923708 1_554
F6 Li0 2.000872 1_545
F6 Li3 2.034879 1_655
F6 Mn2 2.085509 1_555
F7 Li2 1.947743 1_545
F7 Mn3 2.137388 1_555
F7 Mn0 2.382246 1_545
F7 Mn1 2.407650 1_545
F8 Li1 2.064054 1_555
F8 Mn4 2.089573 1_655
F8 Mn2 2.093825 1_555
F9 Li4 1.947743 1_555
F9 Mn2 2.137388 1_555
F9 Mn1 2.382246 1_545
F9 Mn3 2.407650 1_554
F10 Li3 1.923708 1_556
F10 Li1 2.000872 1_455
F10 Li2 2.034879 1_545
F10 Mn4 2.085509 1_555
F11 Li3 2.064054 1_555
F11 Mn1 2.089573 1_545
F11 Mn4 2.093825 1_555
F12 Li4 2.064054 1_555
F12 Mn6 2.089573 1_555
F12 Mn3 2.093825 1_554
F13 Li4 1.923708 1_555
F13 Li6 2.000872 1_555
F13 Li5 2.034879 1_555
F13 Mn3 2.085509 1_555
F14 Li3 1.947743 1_655
F14 Mn5 2.137388 1_555
F14 Mn6 2.382246 1_655
F14 Mn4 2.407650 1_655
F15 Li6 2.064054 1_555
F15 Mn3 2.089573 1_555
F15 Mn5 2.093825 1_556
F16 Li5 1.947743 1_555
F16 Mn4 2.137388 1_555
F16 Mn7 2.382246 1_455
F16 Mn6 2.407650 1_556
F17 Li6 1.923708 1_555
F17 Li7 2.000872 1_555
F17 Li4 2.034879 1_555
F17 Mn5 2.085509 1_555
F18 Li5 1.923708 1_555
F18 Li4 2.000872 1_555
F18 Li7 2.034879 1_555
F18 Mn6 2.085509 1_555
F19 Li6 1.947743 1_555
F19 Mn7 2.137388 1_555
F19 Mn4 2.382246 1_655
F19 Mn5 2.407650 1_556
F20 Li5 2.064054 1_555
F20 Mn0 2.089573 1_555
F20 Mn6 2.093825 1_556
F21 Li0 1.947743 1_455
F21 Mn6 2.137388 1_555
F21 Mn5 2.382246 1_455
F21 Mn7 2.407650 1_455
F22 Li7 1.923708 1_555
F22 Li5 2.000872 1_555
F22 Li6 2.034879 1_555
F22 Mn0 2.085509 1_555
F23 Li7 2.064054 1_555
F23 Mn5 2.089573 1_555
F23 Mn0 2.093825 1_554
