# generated using pymatgen
data_LiCo8O9
_symmetry_space_group_name_H-M   'P 1'
_cell_length_a   5.21450700
_cell_length_b   5.21617474
_cell_length_c   6.71394353
_cell_angle_alpha   75.15178968
_cell_angle_beta   83.06062777
_cell_angle_gamma   80.76110999
_symmetry_Int_Tables_number   1
_chemical_formula_structural   LiCo8O9
_chemical_formula_sum   'Li1 Co8 O9'
_cell_volume   173.62130426
_cell_formula_units_Z   1
loop_
 _symmetry_equiv_pos_site_id
 _symmetry_equiv_pos_as_xyz
  1  'x, y, z'
loop_
 _atom_site_type_symbol
 _atom_site_label
 _atom_site_symmetry_multiplicity
 _atom_site_fract_x
 _atom_site_fract_y
 _atom_site_fract_z
 _atom_site_occupancy
  Li  Li0  1  0.00000000  0.00000000  0.00000000  1
  Co  Co0  1  0.22174900  0.10984600  0.55679900  1
  Co  Co1  1  0.10924300  0.55544800  0.78119400  1
  Co  Co2  1  0.44046000  0.22122600  0.10825600  1
  Co  Co3  1  0.33366100  0.67345600  0.32787400  1
  Co  Co4  1  0.55954000  0.77877400  0.89174400  1
  Co  Co5  1  0.66633900  0.32654400  0.67212600  1
  Co  Co6  1  0.77825100  0.89015400  0.44320100  1
  Co  Co7  1  0.89075700  0.44455200  0.21880600  1
  O  O0  1  0.11200500  0.05942900  0.28355500  1
  O  O1  1  0.33857200  0.16730700  0.82966300  1
  O  O2  1  0.44385200  0.72028800  0.61188600  1
  O  O3  1  0.22612600  0.60272800  0.05595400  1
  O  O4  1  0.55614800  0.27971200  0.38811400  1
  O  O5  1  0.77387400  0.39727200  0.94404600  1
  O  O6  1  0.66142800  0.83269300  0.17033700  1
  O  O7  1  0.00000000  0.50000000  0.50000000  1
  O  O8  1  0.88799500  0.94057100  0.71644500  1
loop_
_geom_bond_atom_site_label_1
_geom_bond_atom_site_label_2
_geom_bond_distance
_geom_bond_site_symmetry_2
Li0 O1 2.163742 1_554
Li0 O6 2.163742 1_445
Li0 O0 2.165834 1_555
Li0 O8 2.165834 1_444
Li0 O3 2.179248 1_545
Li0 O5 2.179248 1_454
Co0 O0 2.076408 1_555
Co0 O1 2.104008 1_555
Co0 O8 2.124850 1_445
Co0 O2 2.137710 1_545
Co0 O7 2.139470 1_555
Co0 O4 2.147772 1_555
Co1 O3 2.094855 1_556
Co1 O5 2.115041 1_455
Co1 O8 2.117775 1_455
Co1 O7 2.136591 1_555
Co1 O2 2.139486 1_555
Co1 O1 2.148003 1_555
Co2 O3 2.086863 1_555
Co2 O1 2.101838 1_554
Co2 O0 2.121060 1_555
Co2 O6 2.131196 1_545
Co2 O5 2.147567 1_554
Co2 O4 2.148073 1_555
Co3 O6 2.073297 1_555
Co3 O3 2.107738 1_555
Co3 O0 2.122903 1_565
Co3 O2 2.138792 1_555
Co3 O4 2.156462 1_555
Co3 O7 2.159871 1_555
Co4 O5 2.086863 1_555
Co4 O6 2.101838 1_556
Co4 O8 2.121060 1_555
Co4 O1 2.131196 1_565
Co4 O3 2.147567 1_556
Co4 O2 2.148073 1_555
Co5 O1 2.073297 1_555
Co5 O5 2.107738 1_555
Co5 O8 2.122903 1_545
Co5 O4 2.138792 1_555
Co5 O2 2.156462 1_555
Co5 O7 2.159871 1_655
Co6 O8 2.076408 1_555
Co6 O6 2.104008 1_555
Co6 O0 2.124850 1_665
Co6 O4 2.137710 1_565
Co6 O7 2.139470 1_655
Co6 O2 2.147772 1_555
Co7 O5 2.094855 1_554
Co7 O3 2.115041 1_655
Co7 O0 2.117775 1_655
Co7 O7 2.136591 1_655
Co7 O4 2.139486 1_555
Co7 O6 2.148003 1_555
