# generated using pymatgen
data_ZnP2H6O5
_symmetry_space_group_name_H-M   'P 1'
_cell_length_a   7.50053400
_cell_length_b   7.81772200
_cell_length_c   10.58903252
_cell_angle_alpha   75.68156452
_cell_angle_beta   90.00000000
_cell_angle_gamma   90.00000000
_symmetry_Int_Tables_number   1
_chemical_formula_structural   ZnP2H6O5
_chemical_formula_sum   'Zn4 P8 H24 O20'
_cell_volume   601.62222775
_cell_formula_units_Z   4
loop_
 _symmetry_equiv_pos_site_id
 _symmetry_equiv_pos_as_xyz
  1  'x, y, z'
loop_
 _atom_site_type_symbol
 _atom_site_label
 _atom_site_symmetry_multiplicity
 _atom_site_fract_x
 _atom_site_fract_y
 _atom_site_fract_z
 _atom_site_occupancy
  Zn  Zn0  1  0.53937600  0.80624100  0.60317600  1
  Zn  Zn1  1  0.03937600  0.19375900  0.89682400  1
  Zn  Zn2  1  0.46062400  0.19375900  0.39682400  1
  Zn  Zn3  1  0.96062400  0.80624100  0.10317600  1
  P  P0  1  0.87614400  0.53128600  0.68742500  1
  P  P1  1  0.37614400  0.46871400  0.81257500  1
  P  P2  1  0.12385600  0.46871400  0.31257500  1
  P  P3  1  0.62385600  0.53128600  0.18742500  1
  P  P4  1  0.68593300  0.96148700  0.84530300  1
  P  P5  1  0.18593300  0.03851300  0.65469700  1
  P  P6  1  0.31406700  0.03851300  0.15469700  1
  P  P7  1  0.81406700  0.96148700  0.34530300  1
  H  H0  1  0.34268900  0.59376300  0.46531200  1
  H  H1  1  0.84268900  0.40623700  0.03468800  1
  H  H2  1  0.65731100  0.40623700  0.53468800  1
  H  H3  1  0.15731100  0.59376300  0.96531200  1
  H  H4  1  0.31903300  0.79765900  0.40329500  1
  H  H5  1  0.81903300  0.20234100  0.09670500  1
  H  H6  1  0.68096700  0.20234100  0.59670500  1
  H  H7  1  0.18096700  0.79765900  0.90329500  1
  H  H8  1  0.02252200  0.60696200  0.60757000  1
  H  H9  1  0.52252200  0.39303800  0.89243000  1
  H  H10  1  0.97747800  0.39303800  0.39243000  1
  H  H11  1  0.47747800  0.60696200  0.10757000  1
  H  H12  1  0.88363000  0.61000500  0.79406600  1
  H  H13  1  0.38363000  0.38999500  0.70593400  1
  H  H14  1  0.11637000  0.38999500  0.20593400  1
  H  H15  1  0.61637000  0.61000500  0.29406600  1
  H  H16  1  0.58662300  0.11840200  0.83461600  1
  H  H17  1  0.08662300  0.88159800  0.66538400  1
  H  H18  1  0.41337700  0.88159800  0.16538400  1
  H  H19  1  0.91337700  0.11840200  0.33461600  1
  H  H20  1  0.57610400  0.82741100  0.92016000  1
  H  H21  1  0.07610400  0.17258900  0.57984000  1
  H  H22  1  0.42389600  0.17258900  0.07984000  1
  H  H23  1  0.92389600  0.82741100  0.42016000  1
  O  O0  1  0.70364400  0.58789300  0.60918200  1
  O  O1  1  0.20364400  0.41210700  0.89081800  1
  O  O2  1  0.29635600  0.41210700  0.39081800  1
  O  O3  1  0.79635600  0.58789300  0.10918200  1
  O  O4  1  0.90008000  0.33199500  0.73350400  1
  O  O5  1  0.40008000  0.66800500  0.76649600  1
  O  O6  1  0.09992000  0.66800500  0.26649600  1
  O  O7  1  0.59992000  0.33199500  0.23350400  1
  O  O8  1  0.71349600  0.93271500  0.70867300  1
  O  O9  1  0.21349600  0.06728500  0.79132700  1
  O  O10  1  0.28650400  0.06728500  0.29132700  1
  O  O11  1  0.78650400  0.93271500  0.20867300  1
  O  O12  1  0.85578300  0.97149900  0.92455600  1
  O  O13  1  0.35578300  0.02850100  0.57544400  1
  O  O14  1  0.14421700  0.02850100  0.07544400  1
  O  O15  1  0.64421700  0.97149900  0.42455600  1
  O  O16  1  0.35139900  0.71138700  0.48441700  1
  O  O17  1  0.85139900  0.28861300  0.01558300  1
  O  O18  1  0.64860100  0.28861300  0.51558300  1
  O  O19  1  0.14860100  0.71138700  0.98441700  1
loop_
_geom_bond_atom_site_label_1
_geom_bond_atom_site_label_2
_geom_bond_distance
_geom_bond_site_symmetry_2
H0 O16 0.991355 1_555
H1 O17 0.991355 1_555
H2 O18 0.991355 1_555
H3 O19 0.991355 1_555
H4 O16 0.982417 1_555
H5 O17 0.982417 1_555
H6 O18 0.982417 1_555
H7 O19 0.982417 1_555
H8 P0 1.422321 1_455
H9 P1 1.422321 1_555
H10 P2 1.422321 1_655
H11 P3 1.422321 1_555
H12 P0 1.414479 1_555
H13 P1 1.414479 1_555
H14 P2 1.414479 1_555
H15 P3 1.414479 1_555
H16 P4 1.415564 1_545
H17 P5 1.415564 1_565
H18 P6 1.415564 1_565
H19 P7 1.415564 1_545
H20 P4 1.412312 1_555
H21 P5 1.412312 1_555
H22 P6 1.412312 1_555
H23 P7 1.412312 1_555
O0 P0 1.541089 1_555
O0 Zn0 2.093372 1_555
O1 P1 1.541089 1_555
O1 Zn1 2.093372 1_555
O2 P2 1.541089 1_555
O2 Zn2 2.093372 1_555
O3 P3 1.541089 1_555
O3 Zn3 2.093372 1_555
O4 P0 1.523702 1_555
O4 Zn1 2.079878 1_655
O5 P1 1.523702 1_555
O5 Zn0 2.079878 1_555
O6 P2 1.523702 1_555
O6 Zn3 2.079878 1_455
O7 P3 1.523702 1_555
O7 Zn2 2.079878 1_555
O8 P4 1.532145 1_555
O8 Zn0 2.116007 1_555
O9 P5 1.532145 1_555
O9 Zn1 2.116007 1_555
O10 P6 1.532145 1_555
O10 Zn2 2.116007 1_555
O11 P7 1.532145 1_555
O11 Zn3 2.116007 1_555
O12 P4 1.538143 1_555
O12 Zn3 2.157839 1_556
O12 Zn1 2.179277 1_665
O13 P5 1.538143 1_555
O13 Zn2 2.157839 1_555
O13 Zn0 2.179277 1_545
O14 P6 1.538143 1_555
O14 Zn1 2.157839 1_554
O14 Zn3 2.179277 1_445
O15 P7 1.538143 1_555
O15 Zn0 2.157839 1_555
O15 Zn2 2.179277 1_565
O16 Zn0 2.140196 1_555
O17 Zn1 2.140196 1_654
O18 Zn2 2.140196 1_555
O19 Zn3 2.140196 1_456
