# generated using pymatgen
data_Mn4TeO8
_symmetry_space_group_name_H-M   'P 1'
_cell_length_a   6.15133994
_cell_length_b   6.28292007
_cell_length_c   6.32236941
_cell_angle_alpha   118.99210672
_cell_angle_beta   119.29399999
_cell_angle_gamma   60.50910223
_symmetry_Int_Tables_number   1
_chemical_formula_structural   Mn4TeO8
_chemical_formula_sum   'Mn4 Te1 O8'
_cell_volume   175.66333087
_cell_formula_units_Z   1
loop_
 _symmetry_equiv_pos_site_id
 _symmetry_equiv_pos_as_xyz
  1  'x, y, z'
loop_
 _atom_site_type_symbol
 _atom_site_label
 _atom_site_symmetry_multiplicity
 _atom_site_fract_x
 _atom_site_fract_y
 _atom_site_fract_z
 _atom_site_occupancy
  Mn  Mn0  1  0.50000500  0.50000600  0.50000500  1
  Mn  Mn1  1  0.50000200  0.49999200  0.99999100  1
  Mn  Mn2  1  0.00000800  0.00000500  0.00001900  1
  Mn  Mn3  1  0.00000100  0.49999300  0.00000400  1
  Te  Te0  1  0.50000000  0.99999800  0.99999800  1
  O  O0  1  0.27787700  0.25513300  0.81120500  1
  O  O1  1  0.72211800  0.74486800  0.18879000  1
  O  O2  1  0.75038200  0.31326200  0.81417000  1
  O  O3  1  0.24961400  0.68673600  0.18582200  1
  O  O4  1  0.27823700  0.78059800  0.78232400  1
  O  O5  1  0.72404200  0.78099100  0.78302300  1
  O  O6  1  0.72175600  0.21940700  0.21767500  1
  O  O7  1  0.27595600  0.21901200  0.21697500  1
loop_
_geom_bond_atom_site_label_1
_geom_bond_atom_site_label_2
_geom_bond_distance
_geom_bond_site_symmetry_2
Mn0 O6 2.262613 1_555
Mn0 O4 2.262623 1_555
Mn0 O5 2.266660 1_555
Mn0 O7 2.266753 1_555
Mn0 O2 2.276019 1_555
Mn0 O3 2.276056 1_555
Mn1 O2 1.945323 1_555
Mn1 O3 1.945399 1_556
Mn1 O0 2.086153 1_555
Mn1 O1 2.086187 1_556
Mn1 O6 2.238262 1_556
Mn1 O4 2.238285 1_555
Mn2 O7 2.201762 1_555
Mn2 O5 2.201865 1_444
Mn2 O6 2.206028 1_455
Mn2 O4 2.206089 1_544
Mn2 O3 2.261035 1_545
Mn2 O2 2.261152 1_454
Mn3 O2 1.945922 1_454
Mn3 O3 1.945953 1_555
Mn3 O1 2.083433 1_455
Mn3 O0 2.083447 1_554
Mn3 O7 2.235658 1_555
Mn3 O5 2.235775 1_454
O0 Te0 1.990872 1_545
O1 Te0 1.990844 1_554
O4 Te0 1.957121 1_555
O5 Te0 1.956452 1_555
O6 Te0 1.957131 1_544
O7 Te0 1.956471 1_544
