# generated using pymatgen
data_LiNdO2
_symmetry_space_group_name_H-M   'P 1'
_cell_length_a   6.09058271
_cell_length_b   6.60133265
_cell_length_c   6.78586118
_cell_angle_alpha   58.77487466
_cell_angle_beta   90.00000000
_cell_angle_gamma   90.00000000
_symmetry_Int_Tables_number   1
_chemical_formula_structural   LiNdO2
_chemical_formula_sum   'Li4 Nd4 O8'
_cell_volume   233.30881003
_cell_formula_units_Z   4
loop_
 _symmetry_equiv_pos_site_id
 _symmetry_equiv_pos_as_xyz
  1  'x, y, z'
loop_
 _atom_site_type_symbol
 _atom_site_label
 _atom_site_symmetry_multiplicity
 _atom_site_fract_x
 _atom_site_fract_y
 _atom_site_fract_z
 _atom_site_occupancy
  Li  Li0  1  0.16528834  0.68185917  0.60063008  1
  Li  Li1  1  0.66528834  0.31814083  0.89936992  1
  Li  Li2  1  0.33471166  0.68185917  0.10063008  1
  Li  Li3  1  0.83471166  0.31814083  0.39936992  1
  Nd  Nd0  1  0.86341581  0.77826993  0.96111890  1
  Nd  Nd1  1  0.63658419  0.77826993  0.46111890  1
  Nd  Nd2  1  0.36341581  0.22173007  0.53888110  1
  Nd  Nd3  1  0.13658419  0.22173007  0.03888110  1
  O  O0  1  0.19900417  0.96634772  0.89045486  1
  O  O1  1  0.30099583  0.96634772  0.39045486  1
  O  O2  1  0.89600630  0.55357514  0.76506199  1
  O  O3  1  0.39600630  0.44642486  0.73493801  1
  O  O4  1  0.60399370  0.55357514  0.26506199  1
  O  O5  1  0.10399370  0.44642486  0.23493801  1
  O  O6  1  0.69900417  0.03365228  0.60954514  1
  O  O7  1  0.80099583  0.03365228  0.10954514  1
loop_
_geom_bond_atom_site_label_1
_geom_bond_atom_site_label_2
_geom_bond_distance
_geom_bond_site_symmetry_2
Li0 O1 1.862026 1_555
Li0 O2 1.916341 1_455
Li0 O3 1.937039 1_555
Li1 O7 1.862026 1_556
Li1 O3 1.916341 1_555
Li1 O2 1.937039 1_555
Li2 O0 1.862026 1_554
Li2 O4 1.916341 1_555
Li2 O5 1.937039 1_555
Li3 O6 1.862026 1_555
Li3 O5 1.916341 1_655
Li3 O4 1.937039 1_555
Nd0 O0 2.309069 1_655
Nd0 O6 2.316578 1_565
Nd0 O7 2.400337 1_566
Nd0 O4 2.403895 1_556
Nd0 O2 2.460803 1_555
Nd0 O5 2.485586 1_656
Nd1 O1 2.309069 1_555
Nd1 O7 2.316578 1_565
Nd1 O6 2.400337 1_565
Nd1 O2 2.403895 1_555
Nd1 O4 2.460803 1_555
Nd1 O3 2.485586 1_555
Nd2 O6 2.309069 1_555
Nd2 O0 2.316578 1_545
Nd2 O1 2.400337 1_545
Nd2 O5 2.403895 1_555
Nd2 O3 2.460803 1_555
Nd2 O4 2.485586 1_555
Nd3 O7 2.309069 1_455
Nd3 O1 2.316578 1_545
Nd3 O0 2.400337 1_544
Nd3 O3 2.403895 1_554
Nd3 O5 2.460803 1_555
Nd3 O2 2.485586 1_454
