# generated using pymatgen
data_LiV2O2F3
_symmetry_space_group_name_H-M   'P 1'
_cell_length_a   5.93994877
_cell_length_b   5.93994877
_cell_length_c   7.13783750
_cell_angle_alpha   71.06512047
_cell_angle_beta   71.06512047
_cell_angle_gamma   51.31498180
_symmetry_Int_Tables_number   1
_chemical_formula_structural   LiV2O2F3
_chemical_formula_sum   'Li2 V4 O4 F6'
_cell_volume   183.40816199
_cell_formula_units_Z   2
loop_
 _symmetry_equiv_pos_site_id
 _symmetry_equiv_pos_as_xyz
  1  'x, y, z'
loop_
 _atom_site_type_symbol
 _atom_site_label
 _atom_site_symmetry_multiplicity
 _atom_site_fract_x
 _atom_site_fract_y
 _atom_site_fract_z
 _atom_site_occupancy
  Li  Li0  1  0.58934500  0.36199800  0.98120200  1
  Li  Li1  1  0.36199800  0.58934500  0.48120200  1
  V  V0  1  0.79284000  0.81624600  0.87761800  1
  V  V1  1  0.81624600  0.79284000  0.37761800  1
  V  V2  1  0.18892200  0.20316100  0.62758300  1
  V  V3  1  0.20316100  0.18892200  0.12758300  1
  O  O0  1  0.98123600  0.63109400  0.63674800  1
  O  O1  1  0.63109400  0.98123600  0.13674800  1
  O  O2  1  0.37401700  0.04836100  0.86190100  1
  O  O3  1  0.04836100  0.37401700  0.36190100  1
  F  F0  1  0.15540500  0.85344400  0.26005900  1
  F  F1  1  0.55569600  0.19761800  0.46445500  1
  F  F2  1  0.19761800  0.55569600  0.96445500  1
  F  F3  1  0.79319700  0.45592900  0.04607300  1
  F  F4  1  0.45592900  0.79319700  0.54607300  1
  F  F5  1  0.85344400  0.15540500  0.76005900  1
loop_
_geom_bond_atom_site_label_1
_geom_bond_atom_site_label_2
_geom_bond_distance
_geom_bond_site_symmetry_2
Li0 O1 2.063343 1_546
Li1 O0 2.063343 1_455
O0 V0 1.964126 1_555
O0 V2 2.030508 1_655
O0 V1 2.037336 1_555
O1 V1 1.964126 1_555
O1 V3 2.030508 1_565
O1 V0 2.037336 1_554
O2 V2 1.945040 1_555
O2 V0 1.973716 1_545
O2 V3 2.010639 1_556
O3 V3 1.945040 1_555
O3 V1 1.973716 1_455
O3 V2 2.010639 1_555
F0 Li1 1.924064 1_555
F0 V3 2.062818 1_565
F0 V1 2.122667 1_455
F1 Li1 1.869985 1_555
F1 V1 2.062354 1_545
F1 V2 2.095745 1_555
F2 Li0 1.869985 1_555
F2 V0 2.062354 1_455
F2 V3 2.095745 1_556
F3 Li0 1.835213 1_554
F3 V3 2.067979 1_655
F3 V0 2.086229 1_554
F4 Li1 1.835213 1_555
F4 V2 2.067979 1_565
F4 V1 2.086229 1_555
F5 Li0 1.924064 1_555
F5 V2 2.062818 1_655
F5 V0 2.122667 1_545
