# generated using pymatgen
data_Li4V5Cu3O16
_symmetry_space_group_name_H-M   'P 1'
_cell_length_a   5.89967107
_cell_length_b   5.86293363
_cell_length_c   9.69993924
_cell_angle_alpha   89.98687607
_cell_angle_beta   87.28719859
_cell_angle_gamma   119.83797407
_symmetry_Int_Tables_number   1
_chemical_formula_structural   Li4V5Cu3O16
_chemical_formula_sum   'Li4 V5 Cu3 O16'
_cell_volume   290.60200434
_cell_formula_units_Z   1
loop_
 _symmetry_equiv_pos_site_id
 _symmetry_equiv_pos_as_xyz
  1  'x, y, z'
loop_
 _atom_site_type_symbol
 _atom_site_label
 _atom_site_symmetry_multiplicity
 _atom_site_fract_x
 _atom_site_fract_y
 _atom_site_fract_z
 _atom_site_occupancy
  Li  Li0  1  0.31978000  0.66046900  0.91209900  1
  Li  Li1  1  0.00460000  0.00251500  0.99056700  1
  Li  Li2  1  0.00163400  0.00062500  0.48187500  1
  Li  Li3  1  0.67974400  0.34006400  0.41268400  1
  V  V0  1  0.79922600  0.65102900  0.72482700  1
  V  V1  1  0.28196500  0.64104700  0.48865500  1
  V  V2  1  0.63580900  0.81787600  0.24225400  1
  V  V3  1  0.67813300  0.33905700  0.99962300  1
  V  V4  1  0.80110900  0.14929700  0.72415000  1
  Cu  Cu0  1  0.16439000  0.82705400  0.19780100  1
  Cu  Cu1  1  0.16408900  0.33745700  0.19788100  1
  Cu  Cu2  1  0.33994100  0.16884700  0.70524900  1
  O  O0  1  0.16075100  0.81738800  0.58524000  1
  O  O1  1  0.05419700  0.52717000  0.35840000  1
  O  O2  1  0.37276300  0.68659600  0.11636100  1
  O  O3  1  0.98080300  0.99023700  0.28463100  1
  O  O4  1  0.00051200  0.99987500  0.79957900  1
  O  O5  1  0.15916900  0.34323600  0.58590600  1
  O  O6  1  0.51738000  0.97463400  0.35570800  1
  O  O7  1  0.51632100  0.54207600  0.35569100  1
  O  O8  1  0.35221500  0.17566600  0.07361800  1
  O  O9  1  0.67866300  0.83897600  0.60585800  1
  O  O10  1  0.53282500  0.50288200  0.84799200  1
  O  O11  1  0.53437800  0.03055600  0.84744100  1
  O  O12  1  0.68533600  0.34301400  0.60919600  1
  O  O13  1  0.81312100  0.64451200  0.08402700  1
  O  O14  1  0.95753300  0.47929800  0.83662100  1
  O  O15  1  0.81361300  0.16885100  0.08390800  1
loop_
_geom_bond_atom_site_label_1
_geom_bond_atom_site_label_2
_geom_bond_distance
_geom_bond_site_symmetry_2
Li0 O11 1.973540 1_565
Li0 O10 1.975337 1_555
Li0 O2 2.014436 1_556
Li0 O14 2.030067 1_455
Li1 O4 1.853838 1_545
Li1 O8 1.992593 1_556
Li1 O15 2.009397 1_456
Li1 O13 2.011535 1_446
Li2 O3 1.922035 1_445
Li2 O9 1.990159 1_445
Li2 O0 2.032926 1_545
Li2 O5 2.036890 1_555
Li3 O12 1.907934 1_555
Li3 O6 1.954918 1_545
Li3 O7 1.955613 1_555
Li3 O1 1.959356 1_655
Cu0 O2 1.931115 1_555
Cu0 O3 1.934683 1_455
Cu0 O8 2.115453 1_565
Cu0 O13 2.160565 1_455
Cu0 O1 2.169359 1_555
Cu0 O6 2.437440 1_555
Cu1 O2 1.931432 1_555
Cu1 O3 1.934972 1_445
Cu1 O8 2.122735 1_555
Cu1 O15 2.158164 1_455
Cu1 O1 2.169016 1_555
Cu1 O7 2.433494 1_555
Cu2 O4 1.918530 1_545
Cu2 O12 1.952524 1_555
Cu2 O0 2.160687 1_545
Cu2 O5 2.173536 1_555
Cu2 O11 2.224940 1_555
Cu2 O10 2.231635 1_555
O0 V1 1.769398 1_555
O0 V0 2.233759 1_455
O1 V1 1.765253 1_555
O2 V2 1.866331 1_555
O3 V2 1.834523 1_555
O4 V0 1.945342 1_455
O4 V4 1.947681 1_465
O5 V1 1.771780 1_555
O5 V4 2.212336 1_455
O6 V2 1.763692 1_555
O6 V1 2.131523 1_555
O7 V2 1.764600 1_555
O7 V1 2.131121 1_555
O8 V3 1.779366 1_554
O9 V0 1.977094 1_555
O9 V4 1.979941 1_565
O9 V1 2.380418 1_555
O10 V0 1.765005 1_555
O10 V3 2.181472 1_555
O11 V4 1.767059 1_555
O11 V3 2.182442 1_555
O12 V0 1.958438 1_555
O12 V4 1.960416 1_555
O13 V3 1.776197 1_554
O13 V2 2.321589 1_555
O14 V0 2.023128 1_555
O14 V4 2.026010 1_555
O14 V3 2.072943 1_555
O15 V3 1.777152 1_554
O15 V2 2.322044 1_545
