# generated using pymatgen
data_Fe4OF7
_symmetry_space_group_name_H-M   'P 1'
_cell_length_a   4.78544200
_cell_length_b   5.79010300
_cell_length_c   10.88396602
_cell_angle_alpha   82.15544839
_cell_angle_beta   90.00000000
_cell_angle_gamma   90.00000000
_symmetry_Int_Tables_number   1
_chemical_formula_structural   Fe4OF7
_chemical_formula_sum   'Fe8 O2 F14'
_cell_volume   298.75299357
_cell_formula_units_Z   2
loop_
 _symmetry_equiv_pos_site_id
 _symmetry_equiv_pos_as_xyz
  1  'x, y, z'
loop_
 _atom_site_type_symbol
 _atom_site_label
 _atom_site_symmetry_multiplicity
 _atom_site_fract_x
 _atom_site_fract_y
 _atom_site_fract_z
 _atom_site_occupancy
  Fe  Fe0  1  0.75862800  0.00954100  0.49652900  1
  Fe  Fe1  1  0.75502400  0.48514300  0.99879200  1
  Fe  Fe2  1  0.76872500  0.24626100  0.76486200  1
  Fe  Fe3  1  0.75149400  0.75300600  0.24623300  1
  Fe  Fe4  1  0.23127500  0.24626100  0.26486200  1
  Fe  Fe5  1  0.24497600  0.48514300  0.49879200  1
  Fe  Fe6  1  0.24850600  0.75300600  0.74623300  1
  Fe  Fe7  1  0.24137200  0.00954100  0.99652900  1
  O  O0  1  0.05847800  0.22142800  0.41725200  1
  O  O1  1  0.94152200  0.22142800  0.91725200  1
  F  F0  1  0.03560000  0.47746400  0.67416600  1
  F  F1  1  0.05174700  0.72076700  0.92203700  1
  F  F2  1  0.05755600  0.98630000  0.18278600  1
  F  F3  1  0.96440000  0.47746400  0.17416600  1
  F  F4  1  0.94825300  0.72076700  0.42203700  1
  F  F5  1  0.94244400  0.98630000  0.68278600  1
  F  F6  1  0.55055900  0.77775100  0.07080400  1
  F  F7  1  0.55698000  0.27764700  0.59109400  1
  F  F8  1  0.54647000  0.51812500  0.81584000  1
  F  F9  1  0.54349500  0.02656700  0.31960400  1
  F  F10  1  0.45650500  0.02656700  0.81960400  1
  F  F11  1  0.44302000  0.27764700  0.09109400  1
  F  F12  1  0.45353000  0.51812500  0.31584000  1
  F  F13  1  0.44944100  0.77775100  0.57080400  1
loop_
_geom_bond_atom_site_label_1
_geom_bond_atom_site_label_2
_geom_bond_distance
_geom_bond_site_symmetry_2
Fe0 O0 2.004914 1_655
Fe1 O1 2.070164 1_555
Fe2 O1 1.841286 1_555
Fe4 O0 1.841286 1_555
Fe5 O0 2.070164 1_555
Fe7 O1 2.004914 1_455
F0 Fe2 2.009184 1_455
F0 Fe6 2.130786 1_555
F0 Fe5 2.150839 1_555
F1 Fe1 2.065023 1_455
F1 Fe6 2.117826 1_555
F1 Fe7 2.155581 1_565
F2 Fe4 2.030216 1_565
F2 Fe3 2.047453 1_455
F2 Fe7 2.197046 1_564
F3 Fe4 2.009184 1_655
F3 Fe3 2.130786 1_555
F3 Fe1 2.150839 1_554
F4 Fe5 2.065023 1_655
F4 Fe3 2.117826 1_555
F4 Fe0 2.155581 1_565
F5 Fe2 2.030216 1_565
F5 Fe6 2.047453 1_655
F5 Fe0 2.197046 1_565
F6 Fe7 2.085130 1_564
F6 Fe3 2.125117 1_555
F6 Fe1 2.191934 1_554
F7 Fe5 2.086259 1_555
F7 Fe2 2.131414 1_555
F7 Fe0 2.199201 1_555
F8 Fe2 2.038464 1_555
F8 Fe6 2.043387 1_555
F8 Fe1 2.212186 1_555
F9 Fe4 1.999646 1_555
F9 Fe3 2.117222 1_545
F9 Fe0 2.173912 1_555
F10 Fe2 1.999646 1_555
F10 Fe6 2.117222 1_545
F10 Fe7 2.173912 1_555
F11 Fe1 2.086259 1_554
F11 Fe4 2.131414 1_555
F11 Fe7 2.199201 1_554
F12 Fe4 2.038464 1_555
F12 Fe3 2.043387 1_555
F12 Fe5 2.212186 1_555
F13 Fe0 2.085130 1_565
F13 Fe6 2.125117 1_555
F13 Fe5 2.191934 1_555
