# generated using pymatgen
data_CaTm2O4
_symmetry_space_group_name_H-M   'P 1'
_cell_length_a   3.32779800
_cell_length_b   9.85069800
_cell_length_c   11.66279700
_cell_angle_alpha   90.00000000
_cell_angle_beta   90.00000000
_cell_angle_gamma   90.00000000
_symmetry_Int_Tables_number   1
_chemical_formula_structural   CaTm2O4
_chemical_formula_sum   'Ca4 Tm8 O16'
_cell_volume   382.31970081
_cell_formula_units_Z   4
loop_
 _symmetry_equiv_pos_site_id
 _symmetry_equiv_pos_as_xyz
  1  'x, y, z'
loop_
 _atom_site_type_symbol
 _atom_site_label
 _atom_site_symmetry_multiplicity
 _atom_site_fract_x
 _atom_site_fract_y
 _atom_site_fract_z
 _atom_site_occupancy
  Ca  Ca0  1  0.75000000  0.24821300  0.64882600  1
  Ca  Ca1  1  0.25000000  0.25178700  0.14882600  1
  Ca  Ca2  1  0.75000000  0.74821300  0.85117400  1
  Ca  Ca3  1  0.25000000  0.75178700  0.35117400  1
  Tm  Tm0  1  0.75000000  0.07945000  0.38967500  1
  Tm  Tm1  1  0.75000000  0.07572800  0.88603100  1
  Tm  Tm2  1  0.25000000  0.42427200  0.38603100  1
  Tm  Tm3  1  0.25000000  0.42055000  0.88967500  1
  Tm  Tm4  1  0.75000000  0.57945000  0.11032500  1
  Tm  Tm5  1  0.75000000  0.57572700  0.61396900  1
  Tm  Tm6  1  0.25000000  0.92427300  0.11396900  1
  Tm  Tm7  1  0.25000000  0.92055000  0.61032500  1
  O  O0  1  0.25000000  0.02072300  0.28294300  1
  O  O1  1  0.75000000  0.07867900  0.07800100  1
  O  O2  1  0.25000000  0.12955600  0.52350400  1
  O  O3  1  0.25000000  0.21013000  0.81753700  1
  O  O4  1  0.75000000  0.28987000  0.31753700  1
  O  O5  1  0.75000000  0.37044400  0.02350400  1
  O  O6  1  0.25000000  0.42132100  0.57800100  1
  O  O7  1  0.75000000  0.47927700  0.78294300  1
  O  O8  1  0.25000000  0.52072300  0.21705700  1
  O  O9  1  0.75000000  0.57867900  0.42199900  1
  O  O10  1  0.25000000  0.62955600  0.97649600  1
  O  O11  1  0.25000000  0.71013000  0.68246300  1
  O  O12  1  0.75000000  0.78987000  0.18246300  1
  O  O13  1  0.75000000  0.87044400  0.47649600  1
  O  O14  1  0.25000000  0.92132100  0.92199900  1
  O  O15  1  0.75000000  0.97927700  0.71705700  1
loop_
_geom_bond_atom_site_label_1
_geom_bond_atom_site_label_2
_geom_bond_distance
_geom_bond_site_symmetry_2
Ca0 O2 2.504210 1_555
Ca0 O2 2.504210 1_655
Ca0 O6 2.521644 1_555
Ca0 O6 2.521644 1_655
Ca0 O3 2.604018 1_655
Ca0 O3 2.604018 1_555
Ca0 O7 2.761789 1_555
Ca0 O15 2.766142 1_545
Ca1 O5 2.504210 1_555
Ca1 O5 2.504210 1_455
Ca1 O1 2.521644 1_455
Ca1 O1 2.521644 1_555
Ca1 O4 2.604018 1_455
Ca1 O4 2.604018 1_555
Ca1 O0 2.761789 1_555
Ca1 O8 2.766142 1_555
Ca2 O10 2.504210 1_655
Ca2 O10 2.504210 1_555
Ca2 O14 2.521644 1_555
Ca2 O14 2.521644 1_655
Ca2 O11 2.604018 1_655
Ca2 O11 2.604018 1_555
Ca2 O15 2.761789 1_555
Ca2 O7 2.766142 1_555
Ca3 O13 2.504210 1_455
Ca3 O13 2.504210 1_555
Ca3 O9 2.521644 1_455
Ca3 O9 2.521644 1_555
Ca3 O12 2.604018 1_455
Ca3 O12 2.604018 1_555
Ca3 O8 2.761789 1_555
Ca3 O0 2.766142 1_565
O0 Tm0 2.157020 1_455
O0 Tm0 2.157020 1_555
O0 Tm6 2.187781 1_545
O1 Tm1 2.239096 1_554
O1 Tm6 2.293031 1_545
O1 Tm6 2.293031 1_645
O2 Tm7 2.294383 1_545
O2 Tm0 2.334168 1_555
O2 Tm0 2.334168 1_455
O3 Tm3 2.237023 1_555
O3 Tm1 2.271463 1_455
O3 Tm1 2.271463 1_555
O4 Tm0 2.237023 1_555
O4 Tm2 2.271463 1_555
O4 Tm2 2.271463 1_655
O5 Tm4 2.294383 1_555
O5 Tm3 2.334168 1_554
O5 Tm3 2.334168 1_654
O6 Tm2 2.239096 1_555
O6 Tm5 2.293031 1_455
O6 Tm5 2.293031 1_555
O7 Tm3 2.157020 1_655
O7 Tm3 2.157020 1_555
O7 Tm5 2.187781 1_555
O8 Tm4 2.157020 1_455
O8 Tm4 2.157020 1_555
O8 Tm2 2.187785 1_555
O9 Tm5 2.239096 1_555
O9 Tm2 2.293038 1_655
O9 Tm2 2.293038 1_555
O10 Tm3 2.294383 1_555
O10 Tm4 2.334168 1_456
O10 Tm4 2.334168 1_556
O11 Tm7 2.237023 1_555
O11 Tm5 2.271469 1_555
O11 Tm5 2.271469 1_455
O12 Tm4 2.237023 1_555
O12 Tm6 2.271469 1_655
O12 Tm6 2.271469 1_555
O13 Tm0 2.294383 1_565
O13 Tm7 2.334168 1_655
O13 Tm7 2.334168 1_555
O14 Tm6 2.239096 1_556
O14 Tm1 2.293038 1_565
O14 Tm1 2.293038 1_465
O15 Tm7 2.157020 1_655
O15 Tm7 2.157020 1_555
O15 Tm1 2.187785 1_565
