# generated using pymatgen
data_Sn5C6S9(NO)2
_symmetry_space_group_name_H-M   'P 1'
_cell_length_a   12.80308000
_cell_length_b   12.80308000
_cell_length_c   15.13140800
_cell_angle_alpha   90.00000000
_cell_angle_beta   90.00000000
_cell_angle_gamma   90.00000000
_symmetry_Int_Tables_number   1
_chemical_formula_structural   Sn5C6S9(NO)2
_chemical_formula_sum   'Sn20 C24 S36 N8 O8'
_cell_volume   2480.32311152
_cell_formula_units_Z   4
loop_
 _symmetry_equiv_pos_site_id
 _symmetry_equiv_pos_as_xyz
  1  'x, y, z'
loop_
 _atom_site_type_symbol
 _atom_site_label
 _atom_site_symmetry_multiplicity
 _atom_site_fract_x
 _atom_site_fract_y
 _atom_site_fract_z
 _atom_site_occupancy
  Sn  Sn0  1  0.32492200  0.39554200  0.50466000  1
  Sn  Sn1  1  0.17507800  0.89554200  0.00466000  1
  Sn  Sn2  1  0.60445800  0.32492200  0.49534000  1
  Sn  Sn3  1  0.89554200  0.82492200  0.99534000  1
  Sn  Sn4  1  0.67507800  0.60445800  0.50466000  1
  Sn  Sn5  1  0.82492200  0.10445800  0.00466000  1
  Sn  Sn6  1  0.39554200  0.67507800  0.49534000  1
  Sn  Sn7  1  0.10445800  0.17507800  0.99534000  1
  Sn  Sn8  1  0.50000000  0.50000000  0.67901200  1
  Sn  Sn9  1  0.00000000  0.00000000  0.17901200  1
  Sn  Sn10  1  0.50000000  0.50000000  0.32098800  1
  Sn  Sn11  1  0.00000000  0.00000000  0.82098800  1
  Sn  Sn12  1  0.41625200  0.24217200  0.67378700  1
  Sn  Sn13  1  0.08374800  0.74217200  0.17378700  1
  Sn  Sn14  1  0.75782800  0.41625200  0.32621300  1
  Sn  Sn15  1  0.74217200  0.91625200  0.82621300  1
  Sn  Sn16  1  0.58374800  0.75782800  0.67378700  1
  Sn  Sn17  1  0.91625200  0.25782800  0.17378700  1
  Sn  Sn18  1  0.24217200  0.58374800  0.32621300  1
  Sn  Sn19  1  0.25782800  0.08374800  0.82621300  1
  C  C0  1  0.14342700  0.44709200  0.01108200  1
  C  C1  1  0.35657300  0.94709200  0.51108200  1
  C  C2  1  0.55290800  0.14342700  0.98891800  1
  C  C3  1  0.94709200  0.64342700  0.48891800  1
  C  C4  1  0.85657300  0.55290800  0.01108200  1
  C  C5  1  0.64342700  0.05290800  0.51108200  1
  C  C6  1  0.44709200  0.85657300  0.98891800  1
  C  C7  1  0.05290800  0.35657300  0.48891800  1
  C  C8  1  0.18488500  0.51252700  0.96259900  1
  C  C9  1  0.31511500  0.01252700  0.46259900  1
  C  C10  1  0.48747300  0.18488500  0.03740100  1
  C  C11  1  0.01252700  0.68488500  0.53740100  1
  C  C12  1  0.81511500  0.48747300  0.96259900  1
  C  C13  1  0.68488500  0.98747300  0.46259900  1
  C  C14  1  0.51252700  0.81511500  0.03740100  1
  C  C15  1  0.98747300  0.31511500  0.53740100  1
  C  C16  1  0.28131200  0.62154200  0.85302400  1
  C  C17  1  0.21868800  0.12154200  0.35302400  1
  C  C18  1  0.37845800  0.28131200  0.14697600  1
  C  C19  1  0.12154200  0.78131200  0.64697600  1
  C  C20  1  0.71868800  0.37845800  0.85302400  1
  C  C21  1  0.78131200  0.87845800  0.35302400  1
  C  C22  1  0.62154200  0.71868800  0.14697600  1
  C  C23  1  0.87845800  0.21868800  0.64697600  1
  S  S0  1  0.25741000  0.24624100  0.59216600  1
  S  S1  1  0.24259000  0.74624100  0.09216600  1
  S  S2  1  0.75375900  0.25741000  0.40783400  1
  S  S3  1  0.74624100  0.75741000  0.90783400  1
  S  S4  1  0.74259000  0.75375900  0.59216600  1
  S  S5  1  0.75741000  0.25375900  0.09216600  1
  S  S6  1  0.24624100  0.74259000  0.40783400  1
  S  S7  1  0.25375900  0.24259000  0.90783400  1
  S  S8  1  0.42488700  0.07511300  0.75000000  1
  S  S9  1  0.07511300  0.57511300  0.25000000  1
  S  S10  1  0.92488700  0.42488700  0.25000000  1
  S  S11  1  0.57511300  0.92488700  0.75000000  1
  S  S12  1  0.53843400  0.63761800  0.78823700  1
  S  S13  1  0.96156600  0.13761800  0.28823700  1
  S  S14  1  0.36238200  0.53843400  0.21176300  1
  S  S15  1  0.13761800  0.03843400  0.71176300  1
  S  S16  1  0.46156600  0.36238200  0.78823700  1
  S  S17  1  0.03843400  0.86238200  0.28823700  1
  S  S18  1  0.63761800  0.46156600  0.21176300  1
  S  S19  1  0.86238200  0.96156600  0.71176300  1
  S  S20  1  0.31362800  0.54960900  0.61586700  1
  S  S21  1  0.18637200  0.04960900  0.11586700  1
  S  S22  1  0.45039100  0.31362800  0.38413300  1
  S  S23  1  0.04960900  0.81362800  0.88413300  1
  S  S24  1  0.68637200  0.45039100  0.61586700  1
  S  S25  1  0.81362800  0.95039100  0.11586700  1
  S  S26  1  0.54960900  0.68637200  0.38413300  1
  S  S27  1  0.95039100  0.18637200  0.88413300  1
  S  S28  1  0.38768500  0.85572800  0.58435300  1
  S  S29  1  0.11231500  0.35572800  0.08435300  1
  S  S30  1  0.14427200  0.38768500  0.41564700  1
  S  S31  1  0.35572800  0.88768500  0.91564700  1
  S  S32  1  0.61231500  0.14427200  0.58435300  1
  S  S33  1  0.88768500  0.64427200  0.08435300  1
  S  S34  1  0.85572800  0.61231500  0.41564700  1
  S  S35  1  0.64427200  0.11231500  0.91564700  1
  N  N0  1  0.23413000  0.57206000  0.90724000  1
  N  N1  1  0.26587000  0.07206000  0.40724000  1
  N  N2  1  0.42794000  0.23413000  0.09276000  1
  N  N3  1  0.07206000  0.73413000  0.59276000  1
  N  N4  1  0.76587000  0.42794000  0.90724000  1
  N  N5  1  0.73413000  0.92794000  0.40724000  1
  N  N6  1  0.57206000  0.76587000  0.09276000  1
  N  N7  1  0.92794000  0.26587000  0.59276000  1
  O  O0  1  0.63292300  0.47202100  0.41977600  1
  O  O1  1  0.86707700  0.97202100  0.91977600  1
  O  O2  1  0.52797900  0.63292300  0.58022400  1
  O  O3  1  0.97202100  0.13292300  0.08022400  1
  O  O4  1  0.36707700  0.52797900  0.41977600  1
  O  O5  1  0.13292300  0.02797900  0.91977600  1
  O  O6  1  0.47202100  0.36707700  0.58022400  1
  O  O7  1  0.02797900  0.86707700  0.08022400  1
loop_
_geom_bond_atom_site_label_1
_geom_bond_atom_site_label_2
_geom_bond_distance
_geom_bond_site_symmetry_2
C0 C8 1.233608 1_554
C0 S29 1.660169 1_555
C1 C9 1.233608 1_565
C1 S28 1.660169 1_555
C2 S35 1.660169 1_555
C3 S34 1.660169 1_555
C4 S33 1.660169 1_555
C5 S32 1.660169 1_555
C6 S31 1.660169 1_555
C7 S30 1.660169 1_555
C8 N0 1.296204 1_555
C9 N1 1.296204 1_555
C10 C2 1.233608 1_554
C10 N2 1.296204 1_555
C11 C3 1.233608 1_455
C11 N3 1.296204 1_555
C12 C4 1.233608 1_556
C12 N4 1.296204 1_555
C13 C5 1.233608 1_565
C13 N5 1.296204 1_555
C14 C6 1.233608 1_554
C14 N6 1.296204 1_555
C15 C7 1.233608 1_655
C15 N7 1.296204 1_555
C16 N0 1.199689 1_555
C17 N1 1.199689 1_555
C18 N2 1.199689 1_555
C19 N3 1.199689 1_555
C20 N4 1.199689 1_555
C21 N5 1.199689 1_555
C22 N6 1.199689 1_555
C23 N7 1.199689 1_555
S0 Sn12 2.379882 1_555
S0 Sn0 2.480769 1_555
S1 Sn13 2.379882 1_555
S1 Sn1 2.480769 1_555
S2 Sn14 2.379882 1_555
S2 Sn2 2.480769 1_555
S3 Sn15 2.379882 1_555
S3 Sn3 2.480769 1_555
S4 Sn16 2.379882 1_555
S4 Sn4 2.480769 1_555
S5 Sn17 2.379882 1_555
S5 Sn5 2.480769 1_555
S6 Sn18 2.379882 1_555
S6 Sn6 2.480769 1_555
S7 Sn19 2.379882 1_555
S7 Sn7 2.480769 1_555
S8 Sn19 2.432464 1_555
S8 Sn12 2.432464 1_555
S9 Sn13 2.432464 1_555
S9 Sn18 2.432464 1_555
S10 Sn17 2.432464 1_555
S10 Sn14 2.432464 1_555
S11 Sn15 2.432464 1_555
S11 Sn16 2.432464 1_555
S12 Sn16 2.388384 1_555
S12 Sn8 2.465372 1_555
S13 Sn17 2.388384 1_555
S13 Sn9 2.465372 1_655
S14 Sn18 2.388384 1_555
S14 Sn10 2.465372 1_555
S15 Sn19 2.388384 1_555
S15 Sn11 2.465372 1_555
S16 Sn12 2.388384 1_555
S16 Sn8 2.465372 1_555
S17 Sn13 2.388384 1_555
S17 Sn9 2.465372 1_565
S18 Sn14 2.388384 1_555
S18 Sn10 2.465372 1_555
S19 Sn15 2.388384 1_555
S19 Sn11 2.465372 1_665
S20 Sn0 2.596793 1_555
S20 Sn6 2.646962 1_555
S20 Sn8 2.647638 1_555
S21 Sn1 2.596793 1_545
S21 Sn7 2.646962 1_554
S21 Sn9 2.647638 1_555
S22 Sn2 2.596793 1_555
S22 Sn0 2.646962 1_555
S22 Sn10 2.647638 1_555
S23 Sn3 2.596793 1_455
S23 Sn1 2.646962 1_556
S23 Sn11 2.647638 1_565
S24 Sn4 2.596793 1_555
S24 Sn2 2.646962 1_555
S24 Sn8 2.647638 1_555
S25 Sn5 2.596793 1_565
S25 Sn3 2.646962 1_554
S25 Sn9 2.647638 1_665
S26 Sn6 2.596793 1_555
S26 Sn4 2.646962 1_555
S26 Sn10 2.647638 1_555
S27 Sn7 2.596793 1_655
S27 Sn5 2.646962 1_556
S27 Sn11 2.647638 1_655
S28 Sn6 2.678364 1_555
S28 Sn16 3.115051 1_555
S29 Sn7 2.678364 1_554
S29 Sn17 3.115051 1_455
S30 Sn0 2.678364 1_555
S30 Sn18 3.115051 1_555
S31 Sn1 2.678364 1_556
S31 Sn19 3.115051 1_565
S32 Sn2 2.678364 1_555
S32 Sn12 3.115051 1_555
S33 Sn3 2.678364 1_554
S33 Sn13 3.115051 1_655
S34 Sn4 2.678364 1_555
S34 Sn14 3.115051 1_555
S35 Sn5 2.678364 1_556
S35 Sn15 3.115051 1_545
O0 Sn4 2.194556 1_555
O0 Sn2 2.233171 1_555
O0 Sn14 2.251994 1_555
O0 Sn10 2.293241 1_555
O1 Sn5 2.194556 1_566
O1 Sn3 2.233171 1_555
O1 Sn15 2.251994 1_555
O1 Sn11 2.293241 1_665
O2 Sn6 2.194556 1_555
O2 Sn4 2.233171 1_555
O2 Sn16 2.251994 1_555
O2 Sn8 2.293241 1_555
O3 Sn7 2.194556 1_654
O3 Sn5 2.233171 1_555
O3 Sn17 2.251994 1_555
O3 Sn9 2.293241 1_655
O4 Sn0 2.194556 1_555
O4 Sn6 2.233171 1_555
O4 Sn18 2.251994 1_555
O4 Sn10 2.293241 1_555
O5 Sn1 2.194556 1_546
O5 Sn7 2.233171 1_555
O5 Sn19 2.251994 1_555
O5 Sn11 2.293241 1_555
O6 Sn2 2.194556 1_555
O6 Sn0 2.233171 1_555
O6 Sn12 2.251994 1_555
O6 Sn8 2.293241 1_555
O7 Sn3 2.194556 1_454
O7 Sn1 2.233171 1_555
O7 Sn13 2.251994 1_555
O7 Sn9 2.293241 1_565
