# generated using pymatgen
data_Li2Mn2FeO6
_symmetry_space_group_name_H-M   'P 1'
_cell_length_a   6.63441500
_cell_length_b   6.66710910
_cell_length_c   8.66393064
_cell_angle_alpha   70.89182295
_cell_angle_beta   70.87039534
_cell_angle_gamma   82.52287728
_symmetry_Int_Tables_number   1
_chemical_formula_structural   Li2Mn2FeO6
_chemical_formula_sum   'Li6 Mn6 Fe3 O18'
_cell_volume   342.00323509
_cell_formula_units_Z   3
loop_
 _symmetry_equiv_pos_site_id
 _symmetry_equiv_pos_as_xyz
  1  'x, y, z'
loop_
 _atom_site_type_symbol
 _atom_site_label
 _atom_site_symmetry_multiplicity
 _atom_site_fract_x
 _atom_site_fract_y
 _atom_site_fract_z
 _atom_site_occupancy
  Li  Li0  1  0.83625900  0.49696800  0.67107300  1
  Li  Li1  1  0.16374100  0.50303200  0.32892700  1
  Li  Li2  1  0.50283100  0.16157100  0.32855800  1
  Li  Li3  1  0.49716900  0.83842900  0.67144200  1
  Li  Li4  1  0.83124700  0.16562000  0.00134900  1
  Li  Li5  1  0.16875300  0.83438000  0.99865100  1
  Mn  Mn0  1  0.50241500  0.17187400  0.83189300  1
  Mn  Mn1  1  0.83673300  0.16387600  0.49854500  1
  Mn  Mn2  1  0.16497700  0.16456400  0.16068500  1
  Mn  Mn3  1  0.16326700  0.83612400  0.50145500  1
  Mn  Mn4  1  0.49758500  0.82812600  0.16810700  1
  Mn  Mn5  1  0.83502300  0.83543600  0.83931500  1
  Fe  Fe0  1  0.50000000  0.50000000  0.50000000  1
  Fe  Fe1  1  0.82871900  0.49575100  0.16702500  1
  Fe  Fe2  1  0.17128100  0.50424900  0.83297500  1
  O  O0  1  0.14411000  0.81836500  0.77163500  1
  O  O1  1  0.47207300  0.82767100  0.41422600  1
  O  O2  1  0.81220800  0.82109700  0.07137400  1
  O  O3  1  0.49363300  0.48752300  0.73631000  1
  O  O4  1  0.82719800  0.46998400  0.41476500  1
  O  O5  1  0.80733600  0.14793800  0.77238900  1
  O  O6  1  0.17280200  0.53001600  0.58523500  1
  O  O7  1  0.50636700  0.51247700  0.26369000  1
  O  O8  1  0.52792700  0.17232900  0.58577400  1
  O  O9  1  0.15039300  0.47299600  0.08681300  1
  O  O10  1  0.15179300  0.14895700  0.39311300  1
  O  O11  1  0.47848900  0.13996400  0.08848400  1
  O  O12  1  0.84960700  0.52700400  0.91318700  1
  O  O13  1  0.85589000  0.18163500  0.22836500  1
  O  O14  1  0.18779200  0.17890300  0.92862600  1
  O  O15  1  0.84820700  0.85104300  0.60688700  1
  O  O16  1  0.19266400  0.85206200  0.22761100  1
  O  O17  1  0.52151100  0.86003600  0.91151600  1
loop_
_geom_bond_atom_site_label_1
_geom_bond_atom_site_label_2
_geom_bond_distance
_geom_bond_site_symmetry_2
Li0 O6 2.125869 1_655
Li0 O3 2.159259 1_555
Li0 O12 2.202158 1_555
Li0 O5 2.211528 1_555
Li0 O15 2.246902 1_555
Li0 O4 2.306309 1_555
Li1 O4 2.125869 1_455
Li1 O7 2.159259 1_555
Li1 O9 2.202158 1_555
Li1 O16 2.211528 1_555
Li1 O10 2.246902 1_555
Li1 O6 2.306309 1_555
Li2 O1 2.117891 1_545
Li2 O11 2.189875 1_555
Li2 O10 2.215913 1_555
Li2 O13 2.220554 1_555
Li2 O7 2.221398 1_555
Li2 O8 2.313012 1_555
Li3 O8 2.117891 1_565
Li3 O17 2.189875 1_555
Li3 O15 2.215913 1_555
Li3 O0 2.220554 1_555
Li3 O3 2.221398 1_555
Li3 O1 2.313012 1_555
Li4 O13 2.063838 1_555
Li4 O5 2.082864 1_554
Li4 O2 2.184726 1_545
Li4 O11 2.222172 1_555
Li4 O14 2.245312 1_654
Li4 O12 2.283402 1_554
Li5 O0 2.063838 1_555
Li5 O16 2.082864 1_556
Li5 O14 2.184726 1_565
Li5 O17 2.222172 1_555
Li5 O2 2.245312 1_456
Li5 O9 2.283402 1_556
Mn0 O5 1.915715 1_555
Mn0 O17 1.965744 1_545
Mn0 O14 1.978704 1_555
Mn0 O3 1.994162 1_555
Mn0 O8 2.082056 1_555
Mn0 O11 2.116703 1_556
Mn1 O4 1.929403 1_555
Mn1 O8 1.937713 1_555
Mn1 O15 1.990163 1_545
Mn1 O10 1.991824 1_655
Mn1 O13 2.266514 1_555
Mn1 O5 2.283737 1_555
Mn2 O14 1.937215 1_554
Mn2 O13 1.938211 1_455
Mn2 O9 1.942860 1_555
Mn2 O10 1.955343 1_555
Mn2 O11 1.967256 1_555
Mn2 O16 1.972340 1_545
Mn3 O6 1.929403 1_555
Mn3 O1 1.937713 1_555
Mn3 O10 1.990163 1_565
Mn3 O15 1.991824 1_455
Mn3 O0 2.266514 1_555
Mn3 O16 2.283737 1_555
Mn4 O16 1.915715 1_555
Mn4 O11 1.965744 1_565
Mn4 O2 1.978704 1_555
Mn4 O7 1.994162 1_555
Mn4 O1 2.082056 1_555
Mn4 O17 2.116703 1_554
Mn5 O2 1.937215 1_556
Mn5 O0 1.938211 1_655
Mn5 O12 1.942860 1_555
Mn5 O15 1.955343 1_555
Mn5 O17 1.967256 1_555
Mn5 O5 1.972340 1_565
Fe0 O7 2.008275 1_555
Fe0 O3 2.008275 1_555
Fe0 O6 2.056855 1_555
Fe0 O4 2.056855 1_555
Fe0 O8 2.069092 1_555
Fe0 O1 2.069092 1_555
Fe1 O13 1.984101 1_555
Fe1 O9 2.018205 1_655
Fe1 O7 2.027978 1_555
Fe1 O2 2.055385 1_555
Fe1 O4 2.093203 1_555
Fe1 O12 2.099286 1_554
Fe2 O0 1.984101 1_555
Fe2 O12 2.018205 1_455
Fe2 O3 2.027978 1_555
Fe2 O14 2.055385 1_555
Fe2 O6 2.093203 1_555
Fe2 O9 2.099286 1_556
