# generated using pymatgen
data_Li3FeO4
_symmetry_space_group_name_H-M   'P 1'
_cell_length_a   5.17735247
_cell_length_b   5.17735247
_cell_length_c   5.17735247
_cell_angle_alpha   134.10639526
_cell_angle_beta   134.10639526
_cell_angle_gamma   66.92187574
_symmetry_Int_Tables_number   1
_chemical_formula_structural   Li3FeO4
_chemical_formula_sum   'Li3 Fe1 O4'
_cell_volume   70.39458760
_cell_formula_units_Z   1
loop_
 _symmetry_equiv_pos_site_id
 _symmetry_equiv_pos_as_xyz
  1  'x, y, z'
loop_
 _atom_site_type_symbol
 _atom_site_label
 _atom_site_symmetry_multiplicity
 _atom_site_fract_x
 _atom_site_fract_y
 _atom_site_fract_z
 _atom_site_occupancy
  Li  Li0  1  0.75000000  0.25000000  0.50000000  1
  Li  Li1  1  0.25000000  0.75000000  0.50000000  1
  Li  Li2  1  0.50000000  0.50000000  0.00000000  1
  Fe  Fe0  1  0.00000000  0.00000000  0.00000000  1
  O  O0  1  0.00000000  0.50000000  0.50000000  1
  O  O1  1  0.21241500  0.21241500  0.00000000  1
  O  O2  1  0.50000000  0.00000000  0.50000000  1
  O  O3  1  0.78758500  0.78758500  0.00000000  1
loop_
_geom_bond_atom_site_label_1
_geom_bond_atom_site_label_2
_geom_bond_distance
_geom_bond_site_symmetry_2
Li0 O1 2.044473 1_656
Li0 O3 2.044473 1_556
Li0 O1 2.044473 1_555
Li0 O3 2.044473 1_545
Li0 O2 2.159634 1_555
Li0 O0 2.159634 1_655
Li1 O3 2.044473 1_455
Li1 O1 2.044473 1_566
Li1 O3 2.044473 1_556
Li1 O1 2.044473 1_555
Li1 O0 2.159634 1_555
Li1 O2 2.159634 1_565
Li2 O2 2.018527 1_554
Li2 O0 2.018527 1_554
Li2 O2 2.018527 1_565
Li2 O0 2.018527 1_655
Li2 O3 2.484313 1_555
Li2 O1 2.484313 1_555
Fe0 O1 1.834955 1_555
Fe0 O3 1.834955 1_445
Fe0 O0 2.018527 1_544
Fe0 O2 2.018527 1_454
Fe0 O2 2.018527 1_555
Fe0 O0 2.018527 1_555
