# generated using pymatgen
data_CrPHO5
_symmetry_space_group_name_H-M   'P 1'
_cell_length_a   5.21259188
_cell_length_b   7.24564315
_cell_length_c   5.20623075
_cell_angle_alpha   108.88459086
_cell_angle_beta   99.35348255
_cell_angle_gamma   105.96888926
_symmetry_Int_Tables_number   1
_chemical_formula_structural   CrPHO5
_chemical_formula_sum   'Cr2 P2 H2 O10'
_cell_volume   171.89225909
_cell_formula_units_Z   2
loop_
 _symmetry_equiv_pos_site_id
 _symmetry_equiv_pos_as_xyz
  1  'x, y, z'
loop_
 _atom_site_type_symbol
 _atom_site_label
 _atom_site_symmetry_multiplicity
 _atom_site_fract_x
 _atom_site_fract_y
 _atom_site_fract_z
 _atom_site_occupancy
  Cr  Cr0  1  0.00004000  0.49998900  0.99981200  1
  Cr  Cr1  1  0.99984600  0.00003600  0.00008200  1
  P  P0  1  0.33873800  0.22661800  0.67457400  1
  P  P1  1  0.66129200  0.77338700  0.32546400  1
  H  H0  1  0.00410100  0.32249600  0.34540900  1
  H  H1  1  0.99594500  0.67762500  0.65448500  1
  O  O0  1  0.04068900  0.73220000  0.86457100  1
  O  O1  1  0.16426500  0.37288300  0.70301400  1
  O  O2  1  0.35395100  0.63785200  0.27095900  1
  O  O3  1  0.24052500  0.06438400  0.37039200  1
  O  O4  1  0.31940500  0.12268900  0.89023300  1
  O  O5  1  0.68069700  0.87729500  0.10984100  1
  O  O6  1  0.75940700  0.93546000  0.62971600  1
  O  O7  1  0.64605000  0.36202500  0.72904400  1
  O  O8  1  0.83579000  0.62720600  0.29703900  1
  O  O9  1  0.95926000  0.26785700  0.13536500  1
loop_
_geom_bond_atom_site_label_1
_geom_bond_atom_site_label_2
_geom_bond_distance
_geom_bond_site_symmetry_2
Cr0 O7 1.902273 1_455
Cr0 O2 1.902786 1_556
Cr0 O1 1.977669 1_555
Cr0 O8 1.979591 1_456
Cr0 O0 1.997675 1_555
Cr0 O9 1.998142 1_456
Cr1 O9 1.922521 1_555
Cr1 O0 1.923289 1_644
Cr1 O5 1.925851 1_545
Cr1 O4 1.927600 1_654
Cr1 O6 1.953330 1_544
Cr1 O3 1.954039 1_655
H0 O9 0.996467 1_455
H1 O0 0.996708 1_655
O1 P0 1.563553 1_555
O2 P1 1.554878 1_555
O3 P0 1.533656 1_555
O4 P0 1.542774 1_555
O5 P1 1.542518 1_555
O6 P1 1.533549 1_555
O7 P0 1.554520 1_555
O8 P1 1.563166 1_555
