# generated using pymatgen
data_Li7V4O11F
_symmetry_space_group_name_H-M   'P 1'
_cell_length_a   5.03463000
_cell_length_b   5.13304408
_cell_length_c   9.84453520
_cell_angle_alpha   84.57742333
_cell_angle_beta   78.90023294
_cell_angle_gamma   60.95146830
_symmetry_Int_Tables_number   1
_chemical_formula_structural   Li7V4O11F
_chemical_formula_sum   'Li7 V4 O11 F1'
_cell_volume   218.24861831
_cell_formula_units_Z   1
loop_
 _symmetry_equiv_pos_site_id
 _symmetry_equiv_pos_as_xyz
  1  'x, y, z'
loop_
 _atom_site_type_symbol
 _atom_site_label
 _atom_site_symmetry_multiplicity
 _atom_site_fract_x
 _atom_site_fract_y
 _atom_site_fract_z
 _atom_site_occupancy
  Li  Li0  1  0.69034700  0.14967600  0.49631600  1
  Li  Li1  1  0.51683700  0.48605800  0.99267300  1
  Li  Li2  1  0.83218800  0.85105500  0.99928300  1
  Li  Li3  1  0.08547200  0.82885600  0.25025600  1
  Li  Li4  1  0.00948700  0.49164100  0.49953400  1
  Li  Li5  1  0.15001900  0.16488300  0.00413300  1
  Li  Li6  1  0.31093400  0.85345900  0.50349100  1
  V  V0  1  0.22615800  0.49452900  0.75413200  1
  V  V1  1  0.42101500  0.15625200  0.25041400  1
  V  V2  1  0.57939100  0.86249400  0.75685100  1
  V  V3  1  0.74399100  0.50971700  0.25089900  1
  O  O0  1  0.75776000  0.18327700  0.13465000  1
  O  O1  1  0.50271500  0.16795700  0.87033800  1
  O  O2  1  0.41411400  0.47438500  0.36262700  1
  O  O3  1  0.32788300  0.18290900  0.63660300  1
  O  O4  1  0.94720300  0.79383100  0.63354500  1
  O  O5  1  0.87267700  0.54349500  0.87155000  1
  O  O6  1  0.10854500  0.47667600  0.13962300  1
  O  O7  1  0.05808900  0.18307100  0.36708800  1
  O  O8  1  0.68944800  0.83361600  0.36381500  1
  O  O9  1  0.47419600  0.83226500  0.13829500  1
  O  O10  1  0.26591900  0.78011400  0.85427400  1
  F  F0  1  0.59921100  0.53258600  0.61961000  1
loop_
_geom_bond_atom_site_label_1
_geom_bond_atom_site_label_2
_geom_bond_distance
_geom_bond_site_symmetry_2
Li0 O3 2.009582 1_555
Li0 O7 2.106127 1_655
Li0 O2 2.117418 1_555
Li0 O8 2.177819 1_545
Li0 O4 2.178580 1_545
Li1 O10 2.037853 1_555
Li1 O0 2.062001 1_556
Li1 O5 2.083808 1_555
Li1 O1 2.153825 1_555
Li1 O9 2.291687 1_556
Li1 O6 2.293160 1_556
Li2 O5 2.019686 1_555
Li2 O9 2.079608 1_556
Li2 O0 2.107388 1_566
Li2 O1 2.192980 1_565
Li2 O10 2.250492 1_655
Li2 O6 2.275836 1_656
Li3 O9 2.060189 1_555
Li3 O8 2.079752 1_455
Li3 O6 2.141765 1_555
Li3 O2 2.161680 1_555
Li3 O7 2.176808 1_565
Li3 O0 2.178062 1_465
Li4 O4 2.000009 1_455
Li4 O7 2.039562 1_555
Li4 O2 2.182775 1_555
Li4 O3 2.205360 1_555
Li4 O8 2.258688 1_455
Li5 O1 2.002738 1_554
Li5 O6 2.087068 1_555
Li5 O0 2.103523 1_455
Li5 O5 2.239933 1_454
Li5 O9 2.240754 1_545
Li5 O10 2.349007 1_544
Li6 O8 2.088484 1_555
Li6 O7 2.103205 1_565
Li6 O4 2.157282 1_455
Li6 O3 2.277339 1_565
Li6 O2 2.286939 1_555
O0 V1 1.909694 1_555
O0 V3 2.083584 1_555
O1 V2 1.852817 1_545
O1 V0 2.010395 1_555
O2 V3 1.884786 1_555
O2 V1 2.039428 1_555
O3 V0 1.866995 1_555
O3 V2 1.973967 1_545
O4 V2 1.899591 1_555
O4 V0 1.985934 1_655
O5 V0 1.842536 1_655
O5 V2 2.020169 1_555
O6 V3 1.885774 1_455
O6 V1 2.044157 1_555
O7 V1 1.911654 1_555
O7 V3 2.092724 1_455
O8 V3 1.965625 1_555
O8 V1 1.968106 1_565
O9 V1 1.963774 1_565
O9 V3 1.965714 1_555
O10 V2 1.891570 1_555
O10 V0 1.948075 1_555
F0 Li6 2.021779 1_555
F0 Li4 2.096042 1_655
F0 V0 2.160840 1_555
F0 Li0 2.215315 1_555
F0 V2 2.217992 1_555
