# generated using pymatgen
data_KCrH24(SO10)2
_symmetry_space_group_name_H-M   'P 1'
_cell_length_a   12.13922600
_cell_length_b   12.13922600
_cell_length_c   12.13922600
_cell_angle_alpha   90.00000000
_cell_angle_beta   90.00000000
_cell_angle_gamma   90.00000000
_symmetry_Int_Tables_number   1
_chemical_formula_structural   KCrH24(SO10)2
_chemical_formula_sum   'K4 Cr4 H96 S8 O80'
_cell_volume   1788.84615039
_cell_formula_units_Z   4
loop_
 _symmetry_equiv_pos_site_id
 _symmetry_equiv_pos_as_xyz
  1  'x, y, z'
loop_
 _atom_site_type_symbol
 _atom_site_label
 _atom_site_symmetry_multiplicity
 _atom_site_fract_x
 _atom_site_fract_y
 _atom_site_fract_z
 _atom_site_occupancy
  K  K0  1  0.00000000  0.00000000  0.50000000  1
  K  K1  1  0.00000000  0.50000000  0.00000000  1
  K  K2  1  0.50000000  0.00000000  0.00000000  1
  K  K3  1  0.50000000  0.50000000  0.50000000  1
  Cr  Cr0  1  0.50000000  0.50000000  0.00000000  1
  Cr  Cr1  1  0.50000000  0.00000000  0.50000000  1
  Cr  Cr2  1  0.00000000  0.50000000  0.50000000  1
  Cr  Cr3  1  0.00000000  0.00000000  0.00000000  1
  H  H0  1  0.55787000  0.70141300  0.01600100  1
  H  H1  1  0.44213000  0.20141300  0.48399900  1
  H  H2  1  0.94213000  0.29858700  0.51600100  1
  H  H3  1  0.05787000  0.79858700  0.98399900  1
  H  H4  1  0.01600100  0.55787000  0.70141300  1
  H  H5  1  0.48399900  0.44213000  0.20141300  1
  H  H6  1  0.51600100  0.94213000  0.29858700  1
  H  H7  1  0.98399900  0.05787000  0.79858700  1
  H  H8  1  0.70141300  0.01600100  0.55787000  1
  H  H9  1  0.20141300  0.48399900  0.44213000  1
  H  H10  1  0.29858700  0.51600100  0.94213000  1
  H  H11  1  0.79858700  0.98399900  0.05787000  1
  H  H12  1  0.44213000  0.29858700  0.98399900  1
  H  H13  1  0.55787000  0.79858700  0.51600100  1
  H  H14  1  0.05787000  0.70141300  0.48399900  1
  H  H15  1  0.94213000  0.20141300  0.01600100  1
  H  H16  1  0.98399900  0.44213000  0.29858700  1
  H  H17  1  0.51600100  0.55787000  0.79858700  1
  H  H18  1  0.48399900  0.05787000  0.70141300  1
  H  H19  1  0.01600100  0.94213000  0.20141300  1
  H  H20  1  0.29858700  0.98399900  0.44213000  1
  H  H21  1  0.79858700  0.51600100  0.55787000  1
  H  H22  1  0.70141300  0.48399900  0.05787000  1
  H  H23  1  0.20141300  0.01600100  0.94213000  1
  H  H24  1  0.42532500  0.71253400  0.01479300  1
  H  H25  1  0.57467500  0.21253400  0.48520700  1
  H  H26  1  0.07467500  0.28746600  0.51479300  1
  H  H27  1  0.92532500  0.78746600  0.98520700  1
  H  H28  1  0.01479300  0.42532500  0.71253400  1
  H  H29  1  0.48520700  0.57467500  0.21253400  1
  H  H30  1  0.51479300  0.07467500  0.28746600  1
  H  H31  1  0.98520700  0.92532500  0.78746600  1
  H  H32  1  0.71253400  0.01479300  0.42532500  1
  H  H33  1  0.21253400  0.48520700  0.57467500  1
  H  H34  1  0.28746600  0.51479300  0.07467500  1
  H  H35  1  0.78746600  0.98520700  0.92532500  1
  H  H36  1  0.57467500  0.28746600  0.98520700  1
  H  H37  1  0.42532500  0.78746600  0.51479300  1
  H  H38  1  0.92532500  0.71253400  0.48520700  1
  H  H39  1  0.07467500  0.21253400  0.01479300  1
  H  H40  1  0.98520700  0.57467500  0.28746600  1
  H  H41  1  0.51479300  0.42532500  0.78746600  1
  H  H42  1  0.48520700  0.92532500  0.71253400  1
  H  H43  1  0.01479300  0.07467500  0.21253400  1
  H  H44  1  0.28746600  0.98520700  0.57467500  1
  H  H45  1  0.78746600  0.51479300  0.42532500  1
  H  H46  1  0.71253400  0.48520700  0.92532500  1
  H  H47  1  0.21253400  0.01479300  0.07467500  1
  H  H48  1  0.20484400  0.62452100  0.18585000  1
  H  H49  1  0.79515600  0.12452100  0.31415000  1
  H  H50  1  0.29515600  0.37547900  0.68585000  1
  H  H51  1  0.70484400  0.87547900  0.81415000  1
  H  H52  1  0.18585000  0.20484400  0.62452100  1
  H  H53  1  0.31415000  0.79515600  0.12452100  1
  H  H54  1  0.68585000  0.29515600  0.37547900  1
  H  H55  1  0.81415000  0.70484400  0.87547900  1
  H  H56  1  0.62452100  0.18585000  0.20484400  1
  H  H57  1  0.12452100  0.31415000  0.79515600  1
  H  H58  1  0.37547900  0.68585000  0.29515600  1
  H  H59  1  0.87547900  0.81415000  0.70484400  1
  H  H60  1  0.79515600  0.37547900  0.81415000  1
  H  H61  1  0.20484400  0.87547900  0.68585000  1
  H  H62  1  0.70484400  0.62452100  0.31415000  1
  H  H63  1  0.29515600  0.12452100  0.18585000  1
  H  H64  1  0.81415000  0.79515600  0.37547900  1
  H  H65  1  0.68585000  0.20484400  0.87547900  1
  H  H66  1  0.31415000  0.70484400  0.62452100  1
  H  H67  1  0.18585000  0.29515600  0.12452100  1
  H  H68  1  0.37547900  0.81415000  0.79515600  1
  H  H69  1  0.87547900  0.68585000  0.20484400  1
  H  H70  1  0.62452100  0.31415000  0.70484400  1
  H  H71  1  0.12452100  0.18585000  0.29515600  1
  H  H72  1  0.20100400  0.50033800  0.21826200  1
  H  H73  1  0.79899600  0.00033800  0.28173800  1
  H  H74  1  0.29899600  0.49966200  0.71826200  1
  H  H75  1  0.70100400  0.99966200  0.78173800  1
  H  H76  1  0.21826200  0.20100400  0.50033800  1
  H  H77  1  0.28173800  0.79899600  0.00033800  1
  H  H78  1  0.71826200  0.29899600  0.49966200  1
  H  H79  1  0.78173800  0.70100400  0.99966200  1
  H  H80  1  0.50033800  0.21826200  0.20100400  1
  H  H81  1  0.00033800  0.28173800  0.79899600  1
  H  H82  1  0.49966200  0.71826200  0.29899600  1
  H  H83  1  0.99966200  0.78173800  0.70100400  1
  H  H84  1  0.79899600  0.49966200  0.78173800  1
  H  H85  1  0.20100400  0.99966200  0.71826200  1
  H  H86  1  0.70100400  0.50033800  0.28173800  1
  H  H87  1  0.29899600  0.00033800  0.21826200  1
  H  H88  1  0.78173800  0.79899600  0.49966200  1
  H  H89  1  0.71826200  0.20100400  0.99966200  1
  H  H90  1  0.28173800  0.70100400  0.50033800  1
  H  H91  1  0.21826200  0.29899600  0.00033800  1
  H  H92  1  0.49966200  0.78173800  0.79899600  1
  H  H93  1  0.99966200  0.71826200  0.20100400  1
  H  H94  1  0.50033800  0.28173800  0.70100400  1
  H  H95  1  0.00033800  0.21826200  0.29899600  1
  S  S0  1  0.18039300  0.81960700  0.31960700  1
  S  S1  1  0.81960700  0.31960700  0.18039300  1
  S  S2  1  0.31960700  0.18039300  0.81960700  1
  S  S3  1  0.68039300  0.68039300  0.68039300  1
  S  S4  1  0.81960700  0.18039300  0.68039300  1
  S  S5  1  0.18039300  0.68039300  0.81960700  1
  S  S6  1  0.68039300  0.81960700  0.18039300  1
  S  S7  1  0.31960700  0.31960700  0.31960700  1
  O  O0  1  0.25199000  0.74801000  0.24801000  1
  O  O1  1  0.74801000  0.24801000  0.25199000  1
  O  O2  1  0.24801000  0.25199000  0.74801000  1
  O  O3  1  0.75199000  0.75199000  0.75199000  1
  O  O4  1  0.74801000  0.25199000  0.75199000  1
  O  O5  1  0.25199000  0.75199000  0.74801000  1
  O  O6  1  0.75199000  0.74801000  0.25199000  1
  O  O7  1  0.24801000  0.24801000  0.24801000  1
  O  O8  1  0.07004200  0.83190500  0.26699600  1
  O  O9  1  0.92995800  0.33190500  0.23300400  1
  O  O10  1  0.42995800  0.16809500  0.76699600  1
  O  O11  1  0.57004200  0.66809500  0.73300400  1
  O  O12  1  0.26699600  0.07004200  0.83190500  1
  O  O13  1  0.23300400  0.92995800  0.33190500  1
  O  O14  1  0.76699600  0.42995800  0.16809500  1
  O  O15  1  0.73300400  0.57004200  0.66809500  1
  O  O16  1  0.83190500  0.26699600  0.07004200  1
  O  O17  1  0.33190500  0.23300400  0.92995800  1
  O  O18  1  0.16809500  0.76699600  0.42995800  1
  O  O19  1  0.66809500  0.73300400  0.57004200  1
  O  O20  1  0.92995800  0.16809500  0.73300400  1
  O  O21  1  0.07004200  0.66809500  0.76699600  1
  O  O22  1  0.57004200  0.83190500  0.23300400  1
  O  O23  1  0.42995800  0.33190500  0.26699600  1
  O  O24  1  0.73300400  0.92995800  0.16809500  1
  O  O25  1  0.76699600  0.07004200  0.66809500  1
  O  O26  1  0.23300400  0.57004200  0.83190500  1
  O  O27  1  0.26699600  0.42995800  0.33190500  1
  O  O28  1  0.16809500  0.73300400  0.92995800  1
  O  O29  1  0.66809500  0.76699600  0.07004200  1
  O  O30  1  0.83190500  0.23300400  0.57004200  1
  O  O31  1  0.33190500  0.26699600  0.42995800  1
  O  O32  1  0.33554100  0.48823800  0.01030800  1
  O  O33  1  0.66445900  0.98823800  0.48969200  1
  O  O34  1  0.16445900  0.51176200  0.51030800  1
  O  O35  1  0.83554100  0.01176200  0.98969200  1
  O  O36  1  0.01030800  0.33554100  0.48823800  1
  O  O37  1  0.48969200  0.66445900  0.98823800  1
  O  O38  1  0.51030800  0.16445900  0.51176200  1
  O  O39  1  0.98969200  0.83554100  0.01176200  1
  O  O40  1  0.48823800  0.01030800  0.33554100  1
  O  O41  1  0.98823800  0.48969200  0.66445900  1
  O  O42  1  0.51176200  0.51030800  0.16445900  1
  O  O43  1  0.01176200  0.98969200  0.83554100  1
  O  O44  1  0.66445900  0.51176200  0.98969200  1
  O  O45  1  0.33554100  0.01176200  0.51030800  1
  O  O46  1  0.83554100  0.48823800  0.48969200  1
  O  O47  1  0.16445900  0.98823800  0.01030800  1
  O  O48  1  0.98969200  0.66445900  0.51176200  1
  O  O49  1  0.51030800  0.33554100  0.01176200  1
  O  O50  1  0.48969200  0.83554100  0.48823800  1
  O  O51  1  0.01030800  0.16445900  0.98823800  1
  O  O52  1  0.51176200  0.98969200  0.66445900  1
  O  O53  1  0.01176200  0.51030800  0.33554100  1
  O  O54  1  0.48823800  0.48969200  0.83554100  1
  O  O55  1  0.98823800  0.01030800  0.16445900  1
  O  O56  1  0.19159300  0.54999400  0.15429800  1
  O  O57  1  0.80840700  0.04999400  0.34570200  1
  O  O58  1  0.30840700  0.45000600  0.65429800  1
  O  O59  1  0.69159300  0.95000600  0.84570200  1
  O  O60  1  0.15429800  0.19159300  0.54999400  1
  O  O61  1  0.34570200  0.80840700  0.04999400  1
  O  O62  1  0.65429800  0.30840700  0.45000600  1
  O  O63  1  0.84570200  0.69159300  0.95000600  1
  O  O64  1  0.54999400  0.15429800  0.19159300  1
  O  O65  1  0.04999400  0.34570200  0.80840700  1
  O  O66  1  0.45000600  0.65429800  0.30840700  1
  O  O67  1  0.95000600  0.84570200  0.69159300  1
  O  O68  1  0.80840700  0.45000600  0.84570200  1
  O  O69  1  0.19159300  0.95000600  0.65429800  1
  O  O70  1  0.69159300  0.54999400  0.34570200  1
  O  O71  1  0.30840700  0.04999400  0.15429800  1
  O  O72  1  0.84570200  0.80840700  0.45000600  1
  O  O73  1  0.65429800  0.19159300  0.95000600  1
  O  O74  1  0.34570200  0.69159300  0.54999400  1
  O  O75  1  0.15429800  0.30840700  0.04999400  1
  O  O76  1  0.45000600  0.84570200  0.80840700  1
  O  O77  1  0.95000600  0.65429800  0.19159300  1
  O  O78  1  0.54999400  0.34570200  0.69159300  1
  O  O79  1  0.04999400  0.15429800  0.30840700  1
loop_
_geom_bond_atom_site_label_1
_geom_bond_atom_site_label_2
_geom_bond_distance
_geom_bond_site_symmetry_2
K0 O69 3.047288 1_545
K0 O60 3.047288 1_555
K0 O79 3.047288 1_555
K0 O57 3.047288 1_455
K0 O72 3.047288 1_445
K0 O67 3.047288 1_445
K1 O77 3.047288 1_455
K1 O56 3.047288 1_555
K1 O75 3.047288 1_555
K1 O65 3.047288 1_554
K1 O63 3.047288 1_454
K1 O68 3.047288 1_454
K2 O73 3.047288 1_554
K2 O64 3.047288 1_555
K2 O71 3.047288 1_555
K2 O61 3.047288 1_545
K2 O59 3.047288 1_544
K2 O76 3.047288 1_544
K3 O62 3.047288 1_555
K3 O58 3.047288 1_555
K3 O66 3.047288 1_555
K3 O78 3.047288 1_555
K3 O70 3.047288 1_555
K3 O74 3.047288 1_555
Cr0 O42 2.005412 1_555
Cr0 O44 2.005412 1_554
Cr0 O32 2.005412 1_555
Cr0 O49 2.005412 1_555
Cr0 O37 2.005412 1_554
Cr0 O54 2.005412 1_554
Cr1 O38 2.005412 1_555
Cr1 O52 2.005412 1_545
Cr1 O45 2.005412 1_555
Cr1 O40 2.005412 1_555
Cr1 O33 2.005412 1_545
Cr1 O50 2.005412 1_545
Cr2 O34 2.005412 1_555
Cr2 O53 2.005412 1_555
Cr2 O48 2.005412 1_455
Cr2 O36 2.005412 1_555
Cr2 O41 2.005412 1_455
Cr2 O46 2.005412 1_455
Cr3 O51 2.005412 1_554
Cr3 O47 2.005412 1_545
Cr3 O55 2.005412 1_455
Cr3 O43 2.005412 1_544
Cr3 O35 2.005412 1_454
Cr3 O39 2.005412 1_445
H0 O37 0.999894 1_554
H0 O29 1.689539 1_555
H1 O38 0.999894 1_555
H1 O31 1.689539 1_555
H2 O36 0.999894 1_655
H2 O30 1.689539 1_555
H3 O39 0.999894 1_456
H3 O28 1.689539 1_555
H4 O41 0.999894 1_455
H4 O21 1.689539 1_555
H5 O42 0.999894 1_555
H5 O23 1.689539 1_555
H6 O40 0.999894 1_565
H6 O22 1.689539 1_555
H7 O43 0.999894 1_645
H7 O20 1.689539 1_555
H8 O33 0.999894 1_545
H8 O25 1.689539 1_555
H9 O34 0.999894 1_555
H9 O27 1.689539 1_555
H10 O32 0.999894 1_556
H10 O26 1.689539 1_555
H11 O35 0.999894 1_564
H11 O24 1.689539 1_555
H12 O49 0.999894 1_556
H12 O17 1.689539 1_555
H13 O50 0.999894 1_555
H13 O19 1.689539 1_555
H14 O48 0.999894 1_455
H14 O18 1.689539 1_555
H15 O51 0.999894 1_654
H15 O16 1.689539 1_555
H16 O53 0.999894 1_655
H16 O9 1.689539 1_555
H17 O54 0.999894 1_555
H17 O11 1.689539 1_555
H18 O52 0.999894 1_545
H18 O10 1.689539 1_555
H19 O55 0.999894 1_465
H19 O8 1.689539 1_555
H20 O45 0.999894 1_565
H20 O13 1.689539 1_555
H21 O46 0.999894 1_555
H21 O15 1.689539 1_555
H22 O44 0.999894 1_554
H22 O14 1.689539 1_555
H23 O47 0.999894 1_546
H23 O12 1.689539 1_555
H24 O37 1.027145 1_554
H24 O61 1.572045 1_555
H25 O38 1.027145 1_555
H25 O62 1.572045 1_555
H26 O36 1.027145 1_555
H26 O60 1.572045 1_555
H27 O39 1.027145 1_556
H27 O63 1.572045 1_555
H28 O41 1.027145 1_455
H28 O65 1.572045 1_555
H29 O42 1.027145 1_555
H29 O66 1.572045 1_555
H30 O40 1.027145 1_555
H30 O64 1.572045 1_555
H31 O43 1.027145 1_655
H31 O67 1.572045 1_555
H32 O33 1.027145 1_545
H32 O57 1.572045 1_555
H33 O34 1.027145 1_555
H33 O58 1.572045 1_555
H34 O32 1.027145 1_555
H34 O56 1.572045 1_555
H35 O35 1.027145 1_565
H35 O59 1.572045 1_555
H36 O49 1.027145 1_556
H36 O73 1.572045 1_555
H37 O50 1.027145 1_555
H37 O74 1.572045 1_555
H38 O48 1.027145 1_555
H38 O72 1.572045 1_555
H39 O51 1.027145 1_554
H39 O75 1.572045 1_555
H40 O53 1.027145 1_655
H40 O77 1.572045 1_555
H41 O54 1.027145 1_555
H41 O78 1.572045 1_555
H42 O52 1.027145 1_555
H42 O76 1.572045 1_555
H43 O55 1.027145 1_455
H43 O79 1.572045 1_555
H44 O45 1.027145 1_565
H44 O69 1.572045 1_555
H45 O46 1.027145 1_555
H45 O70 1.572045 1_555
H46 O44 1.027145 1_555
H46 O68 1.572045 1_555
H47 O47 1.027145 1_545
H47 O71 1.572045 1_555
H48 O56 0.995520 1_555
H49 O57 0.995520 1_555
H50 O58 0.995520 1_555
H51 O59 0.995520 1_555
H52 O60 0.995520 1_555
H53 O61 0.995520 1_555
H54 O62 0.995520 1_555
H55 O63 0.995520 1_555
H56 O64 0.995520 1_555
H57 O65 0.995520 1_555
H58 O66 0.995520 1_555
H59 O67 0.995520 1_555
H60 O68 0.995520 1_555
H61 O69 0.995520 1_555
H62 O70 0.995520 1_555
H63 O71 0.995520 1_555
H64 O72 0.995520 1_555
H65 O73 0.995520 1_555
H66 O74 0.995520 1_555
H67 O75 0.995520 1_555
H68 O76 0.995520 1_555
H69 O77 0.995520 1_555
H70 O78 0.995520 1_555
H71 O79 0.995520 1_555
H72 O56 0.989602 1_555
H73 O57 0.989602 1_555
H74 O58 0.989602 1_555
H75 O59 0.989602 1_555
H76 O60 0.989602 1_555
H77 O61 0.989602 1_555
H78 O62 0.989602 1_555
H79 O63 0.989602 1_555
H80 O64 0.989602 1_555
H81 O65 0.989602 1_555
H82 O66 0.989602 1_555
H83 O67 0.989602 1_555
H84 O68 0.989602 1_555
H85 O69 0.989602 1_555
H86 O70 0.989602 1_555
H87 O71 0.989602 1_555
H88 O72 0.989602 1_555
H89 O73 0.989602 1_555
H90 O74 0.989602 1_555
H91 O75 0.989602 1_555
H92 O76 0.989602 1_555
H93 O77 0.989602 1_555
H94 O78 0.989602 1_555
H95 O79 0.989602 1_555
O0 S0 1.505381 1_555
O1 S1 1.505381 1_555
O2 S2 1.505381 1_555
O3 S3 1.505381 1_555
O4 S4 1.505381 1_555
O5 S5 1.505381 1_555
O6 S6 1.505381 1_555
O7 S7 1.505381 1_555
O8 S0 1.491520 1_555
O9 S1 1.491520 1_555
O10 S2 1.491520 1_555
O11 S3 1.491520 1_555
O12 S2 1.491520 1_555
O13 S0 1.491520 1_555
O14 S1 1.491520 1_555
O15 S3 1.491520 1_555
O16 S1 1.491520 1_555
O17 S2 1.491520 1_555
O18 S0 1.491520 1_555
O19 S3 1.491520 1_555
O20 S4 1.491520 1_555
O21 S5 1.491520 1_555
O22 S6 1.491520 1_555
O23 S7 1.491520 1_555
O24 S6 1.491520 1_555
O25 S4 1.491520 1_555
O26 S5 1.491520 1_555
O27 S7 1.491520 1_555
O28 S5 1.491520 1_555
O29 S6 1.491520 1_555
O30 S4 1.491520 1_555
O31 S7 1.491520 1_555
