# generated using pymatgen
data_Li4Mn3Co2Te3O16
_symmetry_space_group_name_H-M   'P 1'
_cell_length_a   6.26057400
_cell_length_b   6.27556070
_cell_length_c   9.83400590
_cell_angle_alpha   89.09313725
_cell_angle_beta   88.74404241
_cell_angle_gamma   60.10706734
_symmetry_Int_Tables_number   1
_chemical_formula_structural   Li4Mn3Co2Te3O16
_chemical_formula_sum   'Li4 Mn3 Co2 Te3 O16'
_cell_volume   334.87600268
_cell_formula_units_Z   1
loop_
 _symmetry_equiv_pos_site_id
 _symmetry_equiv_pos_as_xyz
  1  'x, y, z'
loop_
 _atom_site_type_symbol
 _atom_site_label
 _atom_site_symmetry_multiplicity
 _atom_site_fract_x
 _atom_site_fract_y
 _atom_site_fract_z
 _atom_site_occupancy
  Li  Li0  1  0.65937500  0.65623600  0.12440200  1
  Li  Li1  1  0.98960500  0.99445000  0.00501700  1
  Li  Li2  1  0.98478700  0.00661100  0.49547200  1
  Li  Li3  1  0.33887500  0.29851700  0.60485500  1
  Mn  Mn0  1  0.84012900  0.82381600  0.78447300  1
  Mn  Mn1  1  0.66106800  0.16942400  0.28453700  1
  Mn  Mn2  1  0.16829600  0.66736800  0.28497700  1
  Co  Co0  1  0.68992300  0.67513900  0.49696100  1
  Co  Co1  1  0.33083200  0.36339300  0.01627500  1
  Te  Te0  1  0.83497400  0.33372800  0.78548400  1
  Te  Te1  1  0.34696700  0.82506900  0.78246600  1
  Te  Te2  1  0.16851900  0.17479900  0.28476800  1
  O  O0  1  0.86797800  0.32415200  0.39983900  1
  O  O1  1  0.53546800  0.49172800  0.66664900  1
  O  O2  1  0.67739700  0.63479400  0.90083100  1
  O  O3  1  0.97989800  0.03163200  0.67842800  1
  O  O4  1  0.99439000  0.03785200  0.18566000  1
  O  O5  1  0.30763600  0.85926400  0.39028700  1
  O  O6  1  0.97347400  0.48312100  0.66595800  1
  O  O7  1  0.53103400  0.94112500  0.64782300  1
  O  O8  1  0.12344200  0.19230500  0.90239400  1
  O  O9  1  0.84740700  0.85167600  0.38600200  1
  O  O10  1  0.45308900  0.03839300  0.15907500  1
  O  O11  1  0.03415200  0.48205600  0.17565100  1
  O  O12  1  0.33793600  0.30234900  0.39706900  1
  O  O13  1  0.68422500  0.18379900  0.89839700  1
  O  O14  1  0.47641800  0.47539100  0.17891300  1
  O  O15  1  0.16300400  0.68151900  0.90949800  1
loop_
_geom_bond_atom_site_label_1
_geom_bond_atom_site_label_2
_geom_bond_distance
_geom_bond_site_symmetry_2
Li0 O14 2.033937 1_555
Li0 O11 2.105238 1_655
Li0 O10 2.110711 1_565
Li0 O2 2.201824 1_554
Li1 O4 1.804611 1_565
Li1 O15 1.950929 1_654
Li1 O13 1.987593 1_564
Li1 O8 2.054876 1_664
Li2 O3 1.806770 1_555
Li2 O9 1.936826 1_545
Li2 O0 1.977006 1_555
Li2 O5 2.021391 1_645
Li3 O7 1.989714 1_545
Li3 O12 2.043232 1_555
Li3 O6 2.063139 1_455
Li3 O1 2.213119 1_555
Mn0 O3 2.146739 1_565
Mn0 O15 2.161029 1_655
Mn0 O7 2.180635 1_555
Mn0 O2 2.205660 1_555
Mn0 O6 2.209897 1_555
Mn0 O13 2.268403 1_565
Mn1 O14 1.969552 1_555
Mn1 O9 2.000530 1_545
Mn1 O4 2.049616 1_555
Mn1 O12 2.064464 1_555
Mn1 O10 2.250233 1_555
Mn1 O0 2.293363 1_555
Mn2 O14 1.973723 1_555
Mn2 O9 1.998367 1_455
Mn2 O11 2.065486 1_555
Mn2 O5 2.099985 1_555
Mn2 O4 2.235282 1_465
Mn2 O12 2.266447 1_555
Co0 O7 2.082166 1_555
Co0 O9 2.096052 1_555
Co0 O0 2.139855 1_555
Co0 O6 2.301972 1_555
Co0 O5 2.340696 1_555
Co0 O1 2.454042 1_555
Co1 O15 2.020747 1_554
Co1 O14 2.149604 1_555
Co1 O13 2.225396 1_554
Co1 O11 2.234173 1_555
Co1 O10 2.262325 1_555
Co1 O8 2.363066 1_554
O0 Te2 1.970202 1_655
O1 Te0 2.017658 1_555
O1 Te1 2.149821 1_555
O2 Te0 1.997627 1_555
O2 Te1 2.158602 1_555
O3 Te0 1.957676 1_555
O3 Te1 2.258317 1_645
O4 Te2 1.970755 1_655
O5 Te2 2.002971 1_565
O6 Te0 1.934717 1_555
O7 Te1 2.085841 1_555
O8 Te0 1.957577 1_455
O8 Te1 2.336564 1_545
O10 Te2 1.962514 1_555
O11 Te2 1.983527 1_555
O12 Te2 1.977598 1_555
O13 Te0 1.953214 1_555
O15 Te1 2.152684 1_555
