# generated using pymatgen
data_Tl6WO12
_symmetry_space_group_name_H-M   'P 1'
_cell_length_a   6.45947830
_cell_length_b   6.45947830
_cell_length_c   6.45947785
_cell_angle_alpha   98.39548920
_cell_angle_beta   98.39548917
_cell_angle_gamma   98.39549048
_symmetry_Int_Tables_number   1
_chemical_formula_structural   Tl6WO12
_chemical_formula_sum   'Tl6 W1 O12'
_cell_volume   259.89165730
_cell_formula_units_Z   1
loop_
 _symmetry_equiv_pos_site_id
 _symmetry_equiv_pos_as_xyz
  1  'x, y, z'
loop_
 _atom_site_type_symbol
 _atom_site_label
 _atom_site_symmetry_multiplicity
 _atom_site_fract_x
 _atom_site_fract_y
 _atom_site_fract_z
 _atom_site_occupancy
  Tl  Tl0  1  0.30644735  0.60385469  0.13443237  1
  Tl  Tl1  1  0.86556763  0.69355265  0.39614531  1
  Tl  Tl2  1  0.39614531  0.86556763  0.69355265  1
  Tl  Tl3  1  0.60385469  0.13443237  0.30644735  1
  Tl  Tl4  1  0.13443237  0.30644735  0.60385469  1
  Tl  Tl5  1  0.69355265  0.39614531  0.86556763  1
  W  W0  1  -0.00000000  -0.00000000  -0.00000000  1
  O  O0  1  0.28994449  0.96445335  0.08749543  1
  O  O1  1  0.91250457  0.71005551  0.03554665  1
  O  O2  1  0.58270961  0.82547567  0.40007872  1
  O  O3  1  0.59992128  0.41729039  0.17452433  1
  O  O4  1  0.03554665  0.91250457  0.71005551  1
  O  O5  1  0.17452433  0.59992128  0.41729039  1
  O  O6  1  0.82547567  0.40007872  0.58270961  1
  O  O7  1  0.96445335  0.08749543  0.28994449  1
  O  O8  1  0.40007872  0.58270961  0.82547567  1
  O  O9  1  0.41729039  0.17452433  0.59992128  1
  O  O10  1  0.08749543  0.28994449  0.96445335  1
  O  O11  1  0.71005551  0.03554665  0.91250457  1
loop_
_geom_bond_atom_site_label_1
_geom_bond_atom_site_label_2
_geom_bond_distance
_geom_bond_site_symmetry_2
O0 W0 1.932417 1_565
O0 Tl3 2.318703 1_565
O0 Tl0 2.407928 1_555
O0 Tl2 2.741712 1_554
O1 W0 1.932417 1_665
O1 Tl5 2.318703 1_554
O1 Tl1 2.407928 1_555
O1 Tl0 2.741712 1_655
O2 Tl1 2.127687 1_555
O2 Tl3 2.159688 1_565
O2 Tl2 2.393296 1_555
O2 Tl0 2.412636 1_555
O3 Tl3 2.127687 1_555
O3 Tl5 2.159688 1_554
O3 Tl0 2.393296 1_555
O3 Tl1 2.412636 1_555
O4 W0 1.932417 1_566
O4 Tl1 2.318703 1_455
O4 Tl2 2.407928 1_555
O4 Tl4 2.741712 1_565
O5 Tl0 2.127687 1_555
O5 Tl1 2.159688 1_455
O5 Tl4 2.393296 1_555
O5 Tl2 2.412636 1_555
O6 Tl5 2.127687 1_555
O6 Tl4 2.159688 1_655
O6 Tl1 2.393296 1_555
O6 Tl3 2.412636 1_555
O7 W0 1.932417 1_655
O7 Tl4 2.318703 1_655
O7 Tl3 2.407928 1_555
O7 Tl1 2.741712 1_545
O8 Tl2 2.127687 1_555
O8 Tl0 2.159688 1_556
O8 Tl5 2.393296 1_555
O8 Tl4 2.412636 1_555
O9 Tl4 2.127687 1_555
O9 Tl2 2.159688 1_545
O9 Tl3 2.393296 1_555
O9 Tl5 2.412636 1_555
O10 W0 1.932417 1_556
O10 Tl0 2.318703 1_556
O10 Tl4 2.407928 1_555
O10 Tl5 2.741712 1_455
O11 W0 1.932417 1_656
O11 Tl2 2.318703 1_545
O11 Tl5 2.407928 1_555
O11 Tl3 2.741712 1_556
