# generated using pymatgen
data_LiCoS2
_symmetry_space_group_name_H-M   'P 1'
_cell_length_a   3.37949169
_cell_length_b   5.70321873
_cell_length_c   5.85380038
_cell_angle_alpha   89.97093396
_cell_angle_beta   90.00000000
_cell_angle_gamma   90.00000000
_symmetry_Int_Tables_number   1
_chemical_formula_structural   LiCoS2
_chemical_formula_sum   'Li2 Co2 S4'
_cell_volume   112.82601884
_cell_formula_units_Z   2
loop_
 _symmetry_equiv_pos_site_id
 _symmetry_equiv_pos_as_xyz
  1  'x, y, z'
loop_
 _atom_site_type_symbol
 _atom_site_label
 _atom_site_symmetry_multiplicity
 _atom_site_fract_x
 _atom_site_fract_y
 _atom_site_fract_z
 _atom_site_occupancy
  Li  Li0  1  0.25496508  0.50000000  0.75000000  1
  Li  Li1  1  0.74503492  0.50000000  0.25000000  1
  Co  Co0  1  0.74960486  0.00000000  0.25000000  1
  Co  Co1  1  0.25039514  0.00000000  0.75000000  1
  S  S0  1  0.24961839  0.20574911  0.08310835  1
  S  S1  1  0.75038161  0.20574911  0.58310835  1
  S  S2  1  0.75038161  0.79425089  0.91689165  1
  S  S3  1  0.24961839  0.79425089  0.41689165  1
loop_
_geom_bond_atom_site_label_1
_geom_bond_atom_site_label_2
_geom_bond_distance
_geom_bond_site_symmetry_2
Li0 S1 2.564275 1_555
Li0 S2 2.564275 1_555
Li0 S3 2.572079 1_555
Li0 S0 2.572079 1_556
Li0 S1 2.584609 1_455
Li0 S2 2.584609 1_455
Li1 S3 2.564275 1_555
Li1 S0 2.564275 1_555
Li1 S1 2.572079 1_555
Li1 S2 2.572079 1_554
Li1 S3 2.584609 1_655
Li1 S0 2.584609 1_655
Co0 S2 2.276307 1_544
Co0 S1 2.276307 1_555
Co0 S0 2.277125 1_555
Co0 S3 2.277125 1_545
Co0 S0 2.277193 1_655
Co0 S3 2.277193 1_645
Co1 S3 2.276307 1_545
Co1 S0 2.276307 1_556
Co1 S2 2.277125 1_545
Co1 S1 2.277125 1_555
Co1 S2 2.277193 1_445
Co1 S1 2.277193 1_455
