# generated using pymatgen
data_Na3PH12CO11
_symmetry_space_group_name_H-M   'P 1'
_cell_length_a   12.36572000
_cell_length_b   8.98762500
_cell_length_c   11.98745071
_cell_angle_alpha   57.37177691
_cell_angle_beta   90.00000000
_cell_angle_gamma   90.00000000
_symmetry_Int_Tables_number   1
_chemical_formula_structural   Na3PH12CO11
_chemical_formula_sum   'Na12 P4 H48 C4 O44'
_cell_volume   1122.01760262
_cell_formula_units_Z   4
loop_
 _symmetry_equiv_pos_site_id
 _symmetry_equiv_pos_as_xyz
  1  'x, y, z'
loop_
 _atom_site_type_symbol
 _atom_site_label
 _atom_site_symmetry_multiplicity
 _atom_site_fract_x
 _atom_site_fract_y
 _atom_site_fract_z
 _atom_site_occupancy
  Na  Na0  1  0.06899800  0.34338400  0.75917100  1
  Na  Na1  1  0.75954500  0.35844100  0.77375500  1
  Na  Na2  1  0.33550800  0.99899900  0.23125500  1
  Na  Na3  1  0.25954500  0.64155900  0.72624500  1
  Na  Na4  1  0.56899800  0.65661600  0.74082900  1
  Na  Na5  1  0.83550800  0.00100100  0.26874500  1
  Na  Na6  1  0.16449200  0.99899900  0.73125500  1
  Na  Na7  1  0.43100200  0.34338400  0.25917100  1
  Na  Na8  1  0.74045500  0.35844100  0.27375500  1
  Na  Na9  1  0.66449200  0.00100100  0.76874500  1
  Na  Na10  1  0.24045500  0.64155900  0.22624500  1
  Na  Na11  1  0.93100200  0.65661600  0.24082900  1
  P  P0  1  0.58964500  0.86112500  0.29162900  1
  P  P1  1  0.08964500  0.13887500  0.20837100  1
  P  P2  1  0.91035500  0.86112500  0.79162900  1
  P  P3  1  0.41035500  0.13887500  0.70837100  1
  H  H0  1  0.54289800  0.14027500  0.86636700  1
  H  H1  1  0.88058900  0.09773700  0.96989400  1
  H  H2  1  0.26396400  0.13109700  0.89328500  1
  H  H3  1  0.61363200  0.19251000  0.94512600  1
  H  H4  1  0.24191000  0.40412000  0.60405100  1
  H  H5  1  0.57908800  0.39984900  0.63409100  1
  H  H6  1  0.18926600  0.16000400  0.98725800  1
  H  H7  1  0.18174400  0.58200400  0.50645000  1
  H  H8  1  0.40553800  0.31820300  0.86077700  1
  H  H9  1  0.93830700  0.22906200  0.99718100  1
  H  H10  1  0.63464800  0.58834000  0.54289800  1
  H  H11  1  0.91870100  0.48402700  0.73352900  1
  H  H12  1  0.41870100  0.51597300  0.76647100  1
  H  H13  1  0.13464800  0.41166000  0.95710200  1
  H  H14  1  0.43830700  0.77093800  0.50281900  1
  H  H15  1  0.90553800  0.68179700  0.63922300  1
  H  H16  1  0.68174400  0.41799600  0.99355000  1
  H  H17  1  0.68926600  0.83999600  0.51274200  1
  H  H18  1  0.07908800  0.60015100  0.86590900  1
  H  H19  1  0.74191000  0.59588000  0.89594900  1
  H  H20  1  0.11363200  0.80749000  0.55487400  1
  H  H21  1  0.76396400  0.86890300  0.60671500  1
  H  H22  1  0.38058900  0.90226300  0.53010600  1
  H  H23  1  0.04289800  0.85972500  0.63363300  1
  H  H24  1  0.95710200  0.14027500  0.36636700  1
  H  H25  1  0.61941100  0.09773700  0.46989400  1
  H  H26  1  0.23603600  0.13109700  0.39328500  1
  H  H27  1  0.88636800  0.19251000  0.44512600  1
  H  H28  1  0.25809000  0.40412000  0.10405100  1
  H  H29  1  0.92091200  0.39984900  0.13409100  1
  H  H30  1  0.31073400  0.16000400  0.48725800  1
  H  H31  1  0.31825600  0.58200400  0.00645000  1
  H  H32  1  0.09446200  0.31820300  0.36077700  1
  H  H33  1  0.56169300  0.22906200  0.49718100  1
  H  H34  1  0.86535200  0.58834000  0.04289800  1
  H  H35  1  0.58129900  0.48402700  0.23352900  1
  H  H36  1  0.08129900  0.51597300  0.26647100  1
  H  H37  1  0.36535200  0.41166000  0.45710200  1
  H  H38  1  0.06169300  0.77093800  0.00281900  1
  H  H39  1  0.59446200  0.68179700  0.13922300  1
  H  H40  1  0.81825600  0.41799600  0.49355000  1
  H  H41  1  0.81073400  0.83999600  0.01274200  1
  H  H42  1  0.42091200  0.60015100  0.36590900  1
  H  H43  1  0.75809000  0.59588000  0.39594900  1
  H  H44  1  0.38636800  0.80749000  0.05487400  1
  H  H45  1  0.73603600  0.86890300  0.10671500  1
  H  H46  1  0.11941100  0.90226300  0.03010600  1
  H  H47  1  0.45710200  0.85972500  0.13363300  1
  C  C0  1  0.08662300  0.89194500  0.29121700  1
  C  C1  1  0.58662300  0.10805500  0.20878300  1
  C  C2  1  0.41337700  0.89194500  0.79121700  1
  C  C3  1  0.91337700  0.10805500  0.70878300  1
  O  O0  1  0.61967800  0.14871900  0.88665600  1
  O  O1  1  0.18691100  0.12743300  0.92000300  1
  O  O2  1  0.91063600  0.21914200  0.92276600  1
  O  O3  1  0.20238000  0.50279600  0.60017000  1
  O  O4  1  0.61535100  0.49772000  0.63527800  1
  O  O5  1  0.60359000  0.83995700  0.17295100  1
  O  O6  1  0.90855000  0.57060300  0.63924900  1
  O  O7  1  0.17779900  0.81050600  0.32116900  1
  O  O8  1  0.47970400  0.78854000  0.36090300  1
  O  O9  1  0.40855000  0.42939700  0.86075100  1
  O  O10  1  0.99428900  0.82139900  0.31987200  1
  O  O11  1  0.68789000  0.78676100  0.38778800  1
  O  O12  1  0.11535100  0.50228000  0.86472200  1
  O  O13  1  0.70238000  0.49720400  0.89983000  1
  O  O14  1  0.41063600  0.78085800  0.57723400  1
  O  O15  1  0.68691100  0.87256700  0.57999700  1
  O  O16  1  0.18789000  0.21323900  0.11221200  1
  O  O17  1  0.49428900  0.17860100  0.18012800  1
  O  O18  1  0.11967800  0.85128100  0.61334400  1
  O  O19  1  0.97970400  0.21146000  0.13909700  1
  O  O20  1  0.67779900  0.18949400  0.17883100  1
  O  O21  1  0.89641000  0.83995700  0.67295100  1
  O  O22  1  0.10359000  0.16004300  0.32704900  1
  O  O23  1  0.32220100  0.81050600  0.82116900  1
  O  O24  1  0.02029600  0.78854000  0.86090300  1
  O  O25  1  0.88032200  0.14871900  0.38665600  1
  O  O26  1  0.50571100  0.82139900  0.81987200  1
  O  O27  1  0.81211000  0.78676100  0.88778800  1
  O  O28  1  0.31308900  0.12743300  0.42000300  1
  O  O29  1  0.58936400  0.21914200  0.42276600  1
  O  O30  1  0.29762000  0.50279600  0.10017000  1
  O  O31  1  0.88464900  0.49772000  0.13527800  1
  O  O32  1  0.31211000  0.21323900  0.61221200  1
  O  O33  1  0.00571100  0.17860100  0.68012800  1
  O  O34  1  0.59145000  0.57060300  0.13924900  1
  O  O35  1  0.52029600  0.21146000  0.63909700  1
  O  O36  1  0.82220100  0.18949400  0.67883100  1
  O  O37  1  0.09145000  0.42939700  0.36075100  1
  O  O38  1  0.39641000  0.16004300  0.82704900  1
  O  O39  1  0.38464900  0.50228000  0.36472200  1
  O  O40  1  0.79762000  0.49720400  0.39983000  1
  O  O41  1  0.08936400  0.78085800  0.07723400  1
  O  O42  1  0.81308900  0.87256700  0.07999700  1
  O  O43  1  0.38032200  0.85128100  0.11334400  1
loop_
_geom_bond_atom_site_label_1
_geom_bond_atom_site_label_2
_geom_bond_distance
_geom_bond_site_symmetry_2
Na0 O33 2.284054 1_555
Na0 O3 2.336921 1_555
Na0 O1 2.361114 1_555
Na0 O12 2.432597 1_555
Na0 O2 2.562437 1_455
Na1 O4 2.293695 1_555
Na1 O0 2.371699 1_555
Na1 O2 2.416045 1_555
Na1 O36 2.462513 1_555
Na1 O13 2.524225 1_555
Na2 O17 2.401980 1_565
Na2 O7 2.421957 1_555
Na2 O8 2.450010 1_555
Na2 O43 2.468029 1_555
Na2 O16 2.472445 1_565
Na3 O12 2.293695 1_555
Na3 O18 2.371699 1_555
Na3 O14 2.416045 1_555
Na3 O23 2.462513 1_555
Na3 O3 2.524225 1_555
Na4 O26 2.284054 1_555
Na4 O13 2.336921 1_555
Na4 O15 2.361114 1_555
Na4 O4 2.432597 1_555
Na4 O14 2.562437 1_555
Na5 O10 2.401980 1_545
Na5 O20 2.421957 1_555
Na5 O19 2.450010 1_555
Na5 O25 2.468029 1_555
Na5 O11 2.472445 1_545
Na6 O33 2.401980 1_565
Na6 O23 2.421957 1_555
Na6 O24 2.450010 1_555
Na6 O18 2.468029 1_555
Na6 O32 2.472445 1_565
Na7 O17 2.284054 1_555
Na7 O30 2.336921 1_555
Na7 O28 2.361114 1_555
Na7 O39 2.432597 1_555
Na7 O29 2.562437 1_555
Na8 O31 2.293695 1_555
Na8 O25 2.371699 1_555
Na8 O29 2.416045 1_555
Na8 O20 2.462513 1_555
Na8 O40 2.524225 1_555
Na9 O26 2.401980 1_545
Na9 O36 2.421957 1_555
Na9 O35 2.450010 1_555
Na9 O0 2.468029 1_555
Na9 O27 2.472445 1_545
Na10 O39 2.293695 1_555
Na10 O43 2.371699 1_555
Na10 O41 2.416045 1_555
Na10 O7 2.462513 1_555
Na10 O30 2.524225 1_555
Na11 O10 2.284054 1_555
Na11 O40 2.336921 1_555
Na11 O42 2.361114 1_555
Na11 O31 2.432597 1_555
Na11 O41 2.562437 1_655
H0 O0 0.993103 1_555
H1 O2 0.991494 1_555
H2 O1 1.000074 1_555
H3 O0 0.974291 1_555
H4 O3 0.991534 1_555
H5 O4 0.994245 1_555
H6 O1 0.995506 1_555
H7 O3 0.985704 1_555
H8 O9 0.999896 1_555
H9 O2 1.003266 1_555
H10 O4 0.986915 1_555
H11 O6 0.974777 1_555
H11 Na0 2.174267 1_655
H11 Na1 2.189277 1_555
H12 O9 0.974777 1_555
H12 Na4 2.174267 1_555
H12 Na3 2.189277 1_555
H13 O12 0.986915 1_555
H14 O14 1.003266 1_555
H15 O6 0.999896 1_555
H16 O13 0.985704 1_555
H17 O15 0.995506 1_555
H18 O12 0.994245 1_555
H19 O13 0.991534 1_555
H20 O18 0.974291 1_555
H21 O15 1.000074 1_555
H22 O14 0.991494 1_555
H23 O18 0.993103 1_555
H24 O25 0.993103 1_555
H25 O29 0.991494 1_555
H26 O28 1.000074 1_555
H27 O25 0.974291 1_555
H28 O30 0.991534 1_555
H29 O31 0.994245 1_555
H30 O28 0.995506 1_555
H31 O30 0.985704 1_555
H32 O37 0.999896 1_555
H33 O29 1.003266 1_555
H34 O31 0.986915 1_555
H35 O34 0.974777 1_555
H35 Na7 2.174267 1_555
H35 Na8 2.189277 1_555
H36 O37 0.974777 1_555
H36 Na11 2.174267 1_455
H36 Na10 2.189277 1_555
H37 O39 0.986915 1_555
H38 O41 1.003266 1_555
H39 O34 0.999896 1_555
H40 O40 0.985704 1_555
H41 O42 0.995506 1_555
H42 O39 0.994245 1_555
H43 O40 0.991534 1_555
H44 O43 0.974291 1_555
H45 O42 1.000074 1_555
H46 O41 0.991494 1_555
H47 O43 0.993103 1_555
C0 O10 1.260473 1_455
C0 O7 1.285463 1_555
C0 P1 1.880495 1_565
C1 O17 1.260473 1_555
C1 O20 1.285463 1_555
C1 P0 1.880495 1_545
C2 O26 1.260473 1_555
C2 O23 1.285463 1_555
C2 P3 1.880495 1_565
C3 O33 1.260473 1_655
C3 O36 1.285463 1_555
C3 P2 1.880495 1_545
O5 P0 1.543284 1_555
O8 P0 1.542473 1_555
O11 P0 1.555807 1_555
O16 P1 1.555807 1_555
O19 P1 1.542473 1_655
O21 P2 1.543284 1_555
O22 P1 1.543284 1_555
O24 P2 1.542473 1_455
O27 P2 1.555807 1_555
O32 P3 1.555807 1_555
O35 P3 1.542473 1_555
O38 P3 1.543284 1_555
