# generated using pymatgen
data_Li3Mn5O2F9
_symmetry_space_group_name_H-M   'P 1'
_cell_length_a   6.64804800
_cell_length_b   6.93082704
_cell_length_c   10.76251350
_cell_angle_alpha   81.12898108
_cell_angle_beta   84.44906203
_cell_angle_gamma   77.73318848
_symmetry_Int_Tables_number   1
_chemical_formula_structural   Li3Mn5O2F9
_chemical_formula_sum   'Li6 Mn10 O4 F18'
_cell_volume   477.72821004
_cell_formula_units_Z   2
loop_
 _symmetry_equiv_pos_site_id
 _symmetry_equiv_pos_as_xyz
  1  'x, y, z'
loop_
 _atom_site_type_symbol
 _atom_site_label
 _atom_site_symmetry_multiplicity
 _atom_site_fract_x
 _atom_site_fract_y
 _atom_site_fract_z
 _atom_site_occupancy
  Li  Li0  1  0.79994900  0.79294000  0.99599000  1
  Li  Li1  1  0.77818200  0.86495100  0.53408600  1
  Li  Li2  1  0.57434300  0.57382700  0.73093200  1
  Li  Li3  1  0.42374200  0.41184100  0.25417600  1
  Li  Li4  1  0.18576400  0.15136300  0.45881000  1
  Li  Li5  1  0.26272000  0.20662000  0.04153100  1
  Mn  Mn0  1  0.99945300  0.97872600  0.76767600  1
  Mn  Mn1  1  0.53520800  0.91029600  0.26360100  1
  Mn  Mn2  1  0.89322500  0.52045700  0.21985500  1
  Mn  Mn3  1  0.31241400  0.69921500  0.98760400  1
  Mn  Mn4  1  0.29951500  0.67838700  0.51532900  1
  Mn  Mn5  1  0.64235900  0.34287700  0.49565200  1
  Mn  Mn6  1  0.71639800  0.29276200  0.99353800  1
  Mn  Mn7  1  0.11707500  0.49510600  0.78133700  1
  Mn  Mn8  1  0.45147000  0.12167900  0.74871700  1
  Mn  Mn9  1  0.02515600  0.94485300  0.25077200  1
  O  O0  1  0.82527400  0.82603200  0.17489100  1
  O  O1  1  0.25263700  0.90804000  0.37056600  1
  O  O2  1  0.39018400  0.42202000  0.66146900  1
  O  O3  1  0.05547700  0.72373500  0.88893600  1
  F  F0  1  0.73106500  0.03909400  0.38483000  1
  F  F1  1  0.61918900  0.67237100  0.54905800  1
  F  F2  1  0.81606800  0.42247200  0.80607700  1
  F  F3  1  0.48845400  0.80812000  0.81624100  1
  F  F4  1  0.94055600  0.34484200  0.40668900  1
  F  F5  1  0.31075500  0.92548400  0.10047800  1
  F  F6  1  0.97028100  0.25106300  0.12225200  1
  F  F7  1  0.64896400  0.57811400  0.05090300  1
  F  F8  1  0.59197300  0.56068800  0.31471000  1
  F  F9  1  0.40071900  0.39624400  0.92876800  1
  F  F10  1  0.71064200  0.05360700  0.89465900  1
  F  F11  1  0.01054700  0.72232700  0.61744600  1
  F  F12  1  0.51251900  0.20574100  0.15375900  1
  F  F13  1  0.74993500  0.08629500  0.63429300  1
  F  F14  1  0.20223300  0.53966400  0.16486600  1
  F  F15  1  0.35810900  0.33592500  0.42436200  1
  F  F16  1  0.16285400  0.15966900  0.86620800  1
  F  F17  1  0.23459200  0.03255800  0.62893200  1
loop_
_geom_bond_atom_site_label_1
_geom_bond_atom_site_label_2
_geom_bond_distance
_geom_bond_site_symmetry_2
Li0 O3 1.972031 1_655
Li0 O0 2.000883 1_556
Li2 O2 2.032698 1_555
Li4 O1 2.009324 1_545
Mn0 O3 2.016986 1_655
Mn1 O0 2.075684 1_555
Mn1 O1 2.107847 1_555
Mn2 O0 2.059939 1_555
Mn3 O3 2.060621 1_555
Mn4 O1 2.043600 1_555
Mn4 O2 2.204689 1_555
Mn5 O2 2.372470 1_555
Mn7 O3 2.053811 1_555
Mn7 O2 2.138935 1_555
Mn8 O2 2.119343 1_555
Mn9 O0 1.998327 1_455
Mn9 O1 2.031307 1_555
F0 Li1 1.863868 1_545
F0 Mn1 2.318696 1_545
F0 Mn9 2.352258 1_645
F0 Mn5 2.512805 1_555
F1 Li1 1.850658 1_555
F1 Li2 1.986998 1_555
F1 Mn4 2.181043 1_555
F1 Mn5 2.409868 1_555
F2 Li2 1.900104 1_555
F2 Mn7 2.147651 1_655
F2 Mn6 2.180104 1_555
F3 Li2 1.941725 1_555
F3 Mn8 2.152184 1_565
F3 Mn3 2.206640 1_555
F4 Li4 1.945839 1_655
F4 Mn5 2.118298 1_555
F4 Mn2 2.197413 1_555
F5 Li5 1.922151 1_565
F5 Mn3 2.124350 1_554
F5 Mn9 2.367264 1_555
F5 Mn1 2.388076 1_555
F6 Li5 2.032400 1_655
F6 Mn2 2.224050 1_555
F6 Mn6 2.229995 1_554
F6 Mn9 2.326731 1_645
F7 Li0 1.955146 1_554
F7 Mn6 2.107093 1_554
F7 Mn3 2.344161 1_554
F7 Mn2 2.484832 1_555
F8 Li3 1.891583 1_555
F8 Mn2 2.141462 1_555
F8 Mn5 2.277737 1_555
F8 Mn1 2.357283 1_555
F9 Li5 1.961326 1_556
F9 Mn6 2.212213 1_555
F9 Mn3 2.229191 1_555
F9 Mn7 2.497494 1_555
F10 Li0 1.966620 1_545
F10 Mn6 2.111935 1_555
F10 Mn0 2.260816 1_545
F10 Mn8 2.368115 1_555
F11 Li1 1.874591 1_455
F11 Mn4 2.106493 1_555
F11 Mn7 2.236944 1_555
F11 Mn0 2.566123 1_455
F12 Li3 1.884482 1_555
F12 Li5 2.144361 1_555
F12 Mn6 2.179173 1_554
F12 Mn1 2.184017 1_545
F13 Li1 1.974973 1_545
F13 Mn5 2.178986 1_555
F13 Mn8 2.219784 1_555
F13 Mn0 2.230095 1_545
F14 Li3 1.825967 1_555
F14 Mn2 2.108274 1_455
F14 Mn3 2.195950 1_554
F15 Li3 1.862203 1_555
F15 Li4 1.865695 1_555
F15 Mn5 2.119574 1_555
F15 Mn4 2.644618 1_555
F16 Li5 2.151898 1_556
F16 Mn8 2.183678 1_555
F16 Mn0 2.255935 1_445
F16 Mn7 2.330255 1_555
F17 Li4 1.916285 1_555
F17 Mn0 2.106422 1_445
F17 Mn8 2.259646 1_555
