# generated using pymatgen
data_LiFe2(PO4)2
_symmetry_space_group_name_H-M   'P 1'
_cell_length_a   5.45903500
_cell_length_b   7.79306000
_cell_length_c   8.53284642
_cell_angle_alpha   75.59413233
_cell_angle_beta   90.00000000
_cell_angle_gamma   90.00000000
_symmetry_Int_Tables_number   1
_chemical_formula_structural   LiFe2(PO4)2
_chemical_formula_sum   'Li2 Fe4 P4 O16'
_cell_volume   351.59551002
_cell_formula_units_Z   2
loop_
 _symmetry_equiv_pos_site_id
 _symmetry_equiv_pos_as_xyz
  1  'x, y, z'
loop_
 _atom_site_type_symbol
 _atom_site_label
 _atom_site_symmetry_multiplicity
 _atom_site_fract_x
 _atom_site_fract_y
 _atom_site_fract_z
 _atom_site_occupancy
  Li  Li0  1  0.82582900  0.64079300  0.38736400  1
  Li  Li1  1  0.17417100  0.64079300  0.88736400  1
  Fe  Fe0  1  0.84569700  0.05537000  0.04273000  1
  Fe  Fe1  1  0.33077400  0.50203400  0.26997800  1
  Fe  Fe2  1  0.15430300  0.05537000  0.54273000  1
  Fe  Fe3  1  0.66922600  0.50203400  0.76997800  1
  P  P0  1  0.67363600  0.75149900  0.01271100  1
  P  P1  1  0.82727300  0.25284000  0.33241400  1
  P  P2  1  0.32636400  0.75149900  0.51271100  1
  P  P3  1  0.17272700  0.25284000  0.83241400  1
  O  O0  1  0.18649500  0.09950300  0.98994800  1
  O  O1  1  0.41375900  0.67351500  0.05701500  1
  O  O2  1  0.73530900  0.19009000  0.18440800  1
  O  O3  1  0.81319600  0.78904300  0.16288900  1
  O  O4  1  0.10992300  0.29105100  0.32222200  1
  O  O5  1  0.67972300  0.41708100  0.34555200  1
  O  O6  1  0.81350500  0.09950300  0.48994800  1
  O  O7  1  0.17765200  0.62558900  0.43446900  1
  O  O8  1  0.33645800  0.94235700  0.39932900  1
  O  O9  1  0.58624100  0.67351500  0.55701500  1
  O  O10  1  0.26469100  0.19009000  0.68440800  1
  O  O11  1  0.18680400  0.78904300  0.66288900  1
  O  O12  1  0.89007700  0.29105100  0.82222200  1
  O  O13  1  0.32027700  0.41708100  0.84555200  1
  O  O14  1  0.82234800  0.62558900  0.93446900  1
  O  O15  1  0.66354200  0.94235700  0.89932900  1
loop_
_geom_bond_atom_site_label_1
_geom_bond_atom_site_label_2
_geom_bond_distance
_geom_bond_site_symmetry_2
Li0 O7 1.959759 1_655
Li0 O3 1.976670 1_555
Li0 O9 2.013684 1_555
Li0 O5 2.027904 1_555
Li1 O14 1.959759 1_455
Li1 O11 1.976670 1_555
Li1 O1 2.013684 1_556
Li1 O13 2.027904 1_555
Fe0 O2 1.886374 1_555
Fe0 O0 1.924903 1_654
Fe0 O15 1.948830 1_544
Fe0 O3 2.081244 1_545
Fe0 O12 2.291900 1_554
Fe1 O4 1.997742 1_555
Fe1 O1 2.021116 1_555
Fe1 O7 2.065995 1_555
Fe1 O5 2.066509 1_555
Fe2 O10 1.886374 1_555
Fe2 O6 1.924903 1_455
Fe2 O8 1.948830 1_545
Fe2 O11 2.081244 1_545
Fe2 O4 2.291900 1_555
Fe3 O12 1.997742 1_555
Fe3 O9 2.021116 1_555
Fe3 O14 2.065995 1_555
Fe3 O13 2.066509 1_555
O0 P3 1.562449 1_555
O1 P0 1.552605 1_555
O2 P1 1.547067 1_555
O3 P0 1.579462 1_555
O4 P1 1.569773 1_455
O5 P1 1.539808 1_555
O6 P1 1.562449 1_555
O7 P2 1.547108 1_555
O8 P2 1.560542 1_555
O9 P2 1.552605 1_555
O10 P3 1.547067 1_555
O11 P2 1.579462 1_555
O12 P3 1.569773 1_655
O13 P3 1.539808 1_555
O14 P0 1.547108 1_556
O15 P0 1.560542 1_556
