# generated using pymatgen
data_Li2Y14Ti14(S2O5)7
_symmetry_space_group_name_H-M   'P 1'
_cell_length_a   8.59631300
_cell_length_b   12.15707490
_cell_length_c   12.89677681
_cell_angle_alpha   67.85049520
_cell_angle_beta   70.53680677
_cell_angle_gamma   81.86812672
_symmetry_Int_Tables_number   1
_chemical_formula_structural   Li2Y14Ti14(S2O5)7
_chemical_formula_sum   'Li2 Y14 Ti14 S14 O35'
_cell_volume   1176.80008932
_cell_formula_units_Z   1
loop_
 _symmetry_equiv_pos_site_id
 _symmetry_equiv_pos_as_xyz
  1  'x, y, z'
loop_
 _atom_site_type_symbol
 _atom_site_label
 _atom_site_symmetry_multiplicity
 _atom_site_fract_x
 _atom_site_fract_y
 _atom_site_fract_z
 _atom_site_occupancy
  Li  Li0  1  0.00000000  0.50000000  0.00000000  1
  Li  Li1  1  0.00000000  0.00000000  0.00000000  1
  Y  Y0  1  0.78507200  0.23895000  0.33204200  1
  Y  Y1  1  0.93034200  0.52382400  0.33211700  1
  Y  Y2  1  0.92650000  0.18977300  0.66933200  1
  Y  Y3  1  0.06965800  0.47617600  0.66788300  1
  Y  Y4  1  0.21716400  0.09416200  0.33317200  1
  Y  Y5  1  0.35691700  0.38075700  0.33362800  1
  Y  Y6  1  0.07350000  0.81022700  0.33066800  1
  Y  Y7  1  0.50273300  0.33195100  0.66698200  1
  Y  Y8  1  0.35725700  0.04670600  0.66848700  1
  Y  Y9  1  0.21492800  0.76105000  0.66795800  1
  Y  Y10  1  0.64274300  0.95329400  0.33151300  1
  Y  Y11  1  0.49726700  0.66804900  0.33301800  1
  Y  Y12  1  0.64308300  0.61924300  0.66637200  1
  Y  Y13  1  0.78283600  0.90583800  0.66682800  1
  Ti  Ti0  1  0.15196200  0.36940300  0.16398700  1
  Ti  Ti1  1  0.85488300  0.79426800  0.16401800  1
  Ti  Ti2  1  0.00434700  0.08853700  0.16414800  1
  Ti  Ti3  1  0.99565300  0.91146300  0.83585200  1
  Ti  Ti4  1  0.29247700  0.48649500  0.83627000  1
  Ti  Ti5  1  0.14511700  0.20573200  0.83598200  1
  Ti  Ti6  1  0.84803800  0.63059700  0.83601300  1
  Ti  Ti7  1  0.70752300  0.51350500  0.16373000  1
  Ti  Ti8  1  0.57578700  0.22724500  0.16014900  1
  Ti  Ti9  1  0.43150800  0.94296800  0.15992200  1
  Ti  Ti10  1  0.28705000  0.65837100  0.15991600  1
  Ti  Ti11  1  0.56849200  0.05703200  0.84007800  1
  Ti  Ti12  1  0.42421300  0.77275500  0.83985100  1
  Ti  Ti13  1  0.71295000  0.34162900  0.84008400  1
  S  S0  1  0.81924200  0.43273000  0.58812600  1
  S  S1  1  0.03826600  0.28294300  0.40777500  1
  S  S2  1  0.89684900  0.99599000  0.40752500  1
  S  S3  1  0.18075800  0.56727000  0.41187400  1
  S  S4  1  0.10315100  0.00401000  0.59247500  1
  S  S5  1  0.24540600  0.28739000  0.59242500  1
  S  S6  1  0.96173400  0.71705700  0.59222500  1
  S  S7  1  0.61186800  0.42586000  0.40789300  1
  S  S8  1  0.32295100  0.85282200  0.41206200  1
  S  S9  1  0.46623300  0.13884800  0.41159000  1
  S  S10  1  0.67704900  0.14717800  0.58793800  1
  S  S11  1  0.38813200  0.57414000  0.59210700  1
  S  S12  1  0.53376700  0.86115200  0.58841000  1
  S  S13  1  0.75459400  0.71261000  0.40757500  1
  O  O0  1  0.79934600  0.50031700  0.79881700  1
  O  O1  1  0.91929800  0.43282900  0.18794900  1
  O  O2  1  0.79061600  0.56916900  0.99996400  1
  O  O3  1  0.93020500  0.86017100  0.99998100  1
  O  O4  1  0.20938400  0.43083100  0.00003600  1
  O  O5  1  0.05870600  0.21505300  0.20052200  1
  O  O6  1  0.20065400  0.49968300  0.20118300  1
  O  O7  1  0.91977300  0.93299500  0.18734600  1
  O  O8  1  0.79945500  0.99999600  0.79895900  1
  O  O9  1  0.94410800  0.28686100  0.79899300  1
  O  O10  1  0.06979500  0.13982900  0.00001900  1
  O  O11  1  0.08070200  0.56717100  0.81205100  1
  O  O12  1  0.23062700  0.35834900  0.79943300  1
  O  O13  1  0.94129400  0.78494700  0.79947800  1
  O  O14  1  0.20054500  0.00000400  0.20104100  1
  O  O15  1  0.08022700  0.06700500  0.81265400  1
  O  O16  1  0.34501800  0.28470700  0.20050200  1
  O  O17  1  0.05589200  0.71313900  0.20100700  1
  O  O18  1  0.51702300  0.42796200  0.79934000  1
  O  O19  1  0.48637600  0.07076800  0.20063500  1
  O  O20  1  0.62681200  0.35670100  0.20115400  1
  O  O21  1  0.34154500  0.78590800  0.20061300  1
  O  O22  1  0.35547000  0.71475200  0.99994700  1
  O  O23  1  0.50000000  0.00000000  0.00000000  1
  O  O24  1  0.37297300  0.14376400  0.79879300  1
  O  O25  1  0.22813100  0.85677900  0.79892800  1
  O  O26  1  0.64453000  0.28524800  0.00005300  1
  O  O27  1  0.37318800  0.64329900  0.79884600  1
  O  O28  1  0.65845500  0.21409200  0.79938700  1
  O  O29  1  0.48297700  0.57203800  0.20066000  1
  O  O30  1  0.77186900  0.14322100  0.20107200  1
  O  O31  1  0.62702700  0.85623600  0.20120700  1
  O  O32  1  0.51362400  0.92923200  0.79936500  1
  O  O33  1  0.65498200  0.71529300  0.79949800  1
  O  O34  1  0.76937300  0.64165100  0.20056700  1
loop_
_geom_bond_atom_site_label_1
_geom_bond_atom_site_label_2
_geom_bond_distance
_geom_bond_site_symmetry_2
Li0 O4 1.875880 1_555
Li0 O2 1.875880 1_454
Li0 O1 2.137915 1_455
Li0 O11 2.137915 1_554
Li1 O10 1.881123 1_555
Li1 O3 1.881123 1_444
Li1 O15 2.131055 1_554
Li1 O7 2.131055 1_445
S0 Y7 2.845645 1_555
S0 Y3 2.859689 1_655
S0 Y12 2.861547 1_555
S0 Y2 2.865573 1_555
S0 Ti13 2.866073 1_555
S0 Y1 2.912120 1_555
S1 Ti0 2.774200 1_555
S1 Y1 2.840497 1_455
S1 Y0 2.849068 1_455
S1 Y5 2.854872 1_555
S1 Y4 2.870259 1_555
S1 Y2 2.975206 1_455
S2 Ti2 2.769489 1_665
S2 Y6 2.846616 1_655
S2 Y10 2.851909 1_555
S2 Y4 2.869321 1_665
S2 Y0 2.871839 1_565
S2 Y13 2.949785 1_555
S3 Y11 2.845645 1_555
S3 Y1 2.859689 1_455
S3 Y5 2.861547 1_555
S3 Y6 2.865573 1_555
S3 Ti10 2.866073 1_555
S3 Y3 2.912120 1_555
S4 Ti3 2.769489 1_445
S4 Y2 2.846616 1_455
S4 Y8 2.851909 1_555
S4 Y13 2.869321 1_445
S4 Y9 2.871839 1_545
S4 Y4 2.949785 1_555
S5 Ti5 2.771543 1_555
S5 Y8 2.848967 1_555
S5 Y2 2.851016 1_455
S5 Y3 2.867123 1_555
S5 Y7 2.874109 1_555
S5 Y5 2.943839 1_555
S6 Ti6 2.774200 1_555
S6 Y3 2.840497 1_655
S6 Y9 2.849068 1_655
S6 Y12 2.854872 1_555
S6 Y13 2.870259 1_555
S6 Y6 2.975206 1_655
S7 Ti7 2.778398 1_555
S7 Y0 2.843489 1_555
S7 Y1 2.851365 1_555
S7 Y5 2.855889 1_555
S7 Y11 2.870789 1_555
S7 Y7 2.947209 1_555
S8 Y4 2.842753 1_565
S8 Y11 2.843758 1_555
S8 Y6 2.862240 1_555
S8 Y10 2.866762 1_555
S8 Ti9 2.868089 1_555
S8 Y9 2.910843 1_555
S9 Y4 2.844023 1_555
S9 Y5 2.856756 1_555
S9 Y0 2.859025 1_555
S9 Ti8 2.860214 1_555
S9 Y10 2.863833 1_545
S9 Y8 2.922213 1_555
S10 Y13 2.842753 1_545
S10 Y7 2.843758 1_555
S10 Y2 2.862240 1_555
S10 Y8 2.866762 1_555
S10 Ti11 2.868089 1_555
S10 Y0 2.910843 1_555
S11 Ti4 2.778398 1_555
S11 Y9 2.843489 1_555
S11 Y3 2.851365 1_555
S11 Y12 2.855889 1_555
S11 Y7 2.870789 1_555
S11 Y11 2.947209 1_555
S12 Y13 2.844023 1_555
S12 Y12 2.856756 1_555
S12 Y9 2.859025 1_555
S12 Ti12 2.860214 1_555
S12 Y8 2.863833 1_565
S12 Y10 2.922213 1_555
S13 Ti1 2.771543 1_555
S13 Y10 2.848967 1_555
S13 Y6 2.851016 1_655
S13 Y1 2.867123 1_555
S13 Y11 2.874109 1_555
S13 Y12 2.943839 1_555
O0 Ti6 1.951431 1_555
O0 Ti13 1.980985 1_555
O0 Y3 2.429613 1_655
O0 Y12 2.435122 1_555
O1 Ti7 2.004113 1_555
O1 Ti0 2.005434 1_655
O1 Y0 2.525448 1_555
O1 Y1 2.527461 1_555
O2 Ti7 1.866171 1_556
O2 Ti6 1.868229 1_555
O3 Ti1 1.868833 1_556
O3 Ti3 1.869834 1_555
O4 Ti4 1.866171 1_554
O4 Ti0 1.868229 1_555
O5 Ti2 1.922896 1_555
O5 Ti0 1.973034 1_555
O5 Y0 2.452325 1_455
O5 Y4 2.456178 1_555
O6 Ti0 1.951431 1_555
O6 Ti10 1.980985 1_555
O6 Y1 2.429613 1_455
O6 Y5 2.435122 1_555
O7 Ti1 2.001646 1_555
O7 Ti2 2.002773 1_665
O7 Y6 2.525868 1_655
O7 Y10 2.533404 1_555
O8 Ti3 1.965817 1_555
O8 Ti11 1.972335 1_565
O8 Y2 2.428613 1_565
O8 Y13 2.431853 1_555
O9 Ti13 1.965389 1_555
O9 Ti5 1.974460 1_655
O9 Y3 2.423434 1_655
O9 Y2 2.433067 1_555
O10 Ti5 1.868833 1_554
O10 Ti2 1.869834 1_555
O11 Ti4 2.004113 1_555
O11 Ti6 2.005434 1_455
O11 Y9 2.525448 1_555
O11 Y3 2.527461 1_555
O12 Ti5 1.923645 1_555
O12 Ti4 1.973858 1_555
O12 Y3 2.452784 1_555
O12 Y7 2.455734 1_555
O13 Ti3 1.922896 1_555
O13 Ti6 1.973034 1_555
O13 Y9 2.452325 1_655
O13 Y13 2.456178 1_555
O14 Ti2 1.965817 1_555
O14 Ti9 1.972335 1_545
O14 Y6 2.428613 1_545
O14 Y4 2.431853 1_555
O15 Ti5 2.001646 1_555
O15 Ti3 2.002773 1_445
O15 Y2 2.525868 1_455
O15 Y8 2.533404 1_555
O16 Ti0 1.925590 1_555
O16 Ti8 1.971865 1_555
O16 Y4 2.445395 1_555
O16 Y5 2.446268 1_555
O17 Ti10 1.965389 1_555
O17 Ti1 1.974460 1_455
O17 Y1 2.423434 1_455
O17 Y6 2.433067 1_555
O18 Ti4 1.927033 1_555
O18 Ti13 1.971852 1_555
O18 Y7 2.444173 1_555
O18 Y12 2.447480 1_555
O19 Ti8 1.969611 1_555
O19 Ti9 1.974729 1_545
O19 Y10 2.417979 1_545
O19 Y4 2.429511 1_555
O20 Ti7 1.950761 1_555
O20 Ti8 1.981508 1_555
O20 Y0 2.430396 1_555
O20 Y5 2.435283 1_555
O21 Ti10 1.970247 1_555
O21 Ti9 1.977615 1_555
O21 Y6 2.411581 1_555
O21 Y11 2.428285 1_555
O22 Ti10 1.819666 1_556
O22 Ti12 1.821117 1_555
O23 Ti11 1.819108 1_554
O23 Ti9 1.819108 1_545
O24 Ti5 1.965481 1_555
O24 Ti11 1.972774 1_555
O24 Y7 2.427716 1_555
O24 Y8 2.434400 1_555
O25 Ti12 1.965294 1_555
O25 Ti3 1.972614 1_455
O25 Y9 2.422331 1_555
O25 Y8 2.438270 1_565
O26 Ti13 1.819666 1_554
O26 Ti8 1.821117 1_555
O27 Ti4 1.950761 1_555
O27 Ti12 1.981508 1_555
O27 Y9 2.430396 1_555
O27 Y12 2.435283 1_555
O28 Ti13 1.970247 1_555
O28 Ti11 1.977615 1_555
O28 Y2 2.411581 1_555
O28 Y7 2.428285 1_555
O29 Ti7 1.927033 1_555
O29 Ti10 1.971852 1_555
O29 Y11 2.444173 1_555
O29 Y5 2.447480 1_555
O30 Ti8 1.965294 1_555
O30 Ti2 1.972614 1_655
O30 Y0 2.422331 1_555
O30 Y10 2.438270 1_545
O31 Ti1 1.965481 1_555
O31 Ti9 1.972774 1_555
O31 Y11 2.427716 1_555
O31 Y10 2.434400 1_555
O32 Ti12 1.969611 1_555
O32 Ti11 1.974729 1_565
O32 Y8 2.417979 1_565
O32 Y13 2.429511 1_555
O33 Ti6 1.925590 1_555
O33 Ti12 1.971865 1_555
O33 Y13 2.445395 1_555
O33 Y12 2.446268 1_555
O34 Ti1 1.923645 1_555
O34 Ti7 1.973858 1_555
O34 Y1 2.452784 1_555
O34 Y11 2.455734 1_555
