# generated using pymatgen
data_NaCaB5H8O13
_symmetry_space_group_name_H-M   'P 1'
_cell_length_a   13.41008200
_cell_length_b   6.55040200
_cell_length_c   11.64253682
_cell_angle_alpha   86.77599054
_cell_angle_beta   90.00000000
_cell_angle_gamma   90.00000000
_symmetry_Int_Tables_number   1
_chemical_formula_structural   NaCaB5H8O13
_chemical_formula_sum   'Na4 Ca4 B20 H32 O52'
_cell_volume   1021.07842108
_cell_formula_units_Z   4
loop_
 _symmetry_equiv_pos_site_id
 _symmetry_equiv_pos_as_xyz
  1  'x, y, z'
loop_
 _atom_site_type_symbol
 _atom_site_label
 _atom_site_symmetry_multiplicity
 _atom_site_fract_x
 _atom_site_fract_y
 _atom_site_fract_z
 _atom_site_occupancy
  Na  Na0  1  0.48297600  0.66202500  0.85486500  1
  Na  Na1  1  0.98297600  0.33797500  0.64513500  1
  Na  Na2  1  0.51702400  0.33797500  0.14513500  1
  Na  Na3  1  0.01702400  0.66202500  0.35486500  1
  Ca  Ca0  1  0.39579100  0.78914800  0.58083000  1
  Ca  Ca1  1  0.89579100  0.21085200  0.91917000  1
  Ca  Ca2  1  0.60420900  0.21085200  0.41917000  1
  Ca  Ca3  1  0.10420900  0.78914800  0.08083000  1
  B  B0  1  0.54115100  0.37755900  0.68252500  1
  B  B1  1  0.04115100  0.62244100  0.81747500  1
  B  B2  1  0.45884900  0.62244100  0.31747500  1
  B  B3  1  0.95884900  0.37755900  0.18252500  1
  B  B4  1  0.62742200  0.68560800  0.57713900  1
  B  B5  1  0.12742200  0.31439200  0.92286100  1
  B  B6  1  0.37257800  0.31439200  0.42286100  1
  B  B7  1  0.87257800  0.68560800  0.07713900  1
  B  B8  1  0.24393400  0.16032200  0.78455500  1
  B  B9  1  0.74393400  0.83967800  0.71544500  1
  B  B10  1  0.75606600  0.83967800  0.21544500  1
  B  B11  1  0.25606600  0.16032200  0.28455500  1
  B  B12  1  0.43276200  0.11984900  0.78063300  1
  B  B13  1  0.93276200  0.88015100  0.71936700  1
  B  B14  1  0.56723800  0.88015100  0.21936700  1
  B  B15  1  0.06723800  0.11984900  0.28063300  1
  B  B16  1  0.58256700  0.01551300  0.65915400  1
  B  B17  1  0.08256700  0.98448700  0.84084600  1
  B  B18  1  0.41743300  0.98448700  0.34084600  1
  B  B19  1  0.91743300  0.01551300  0.15915400  1
  H  H0  1  0.26717700  0.77052400  0.78393100  1
  H  H1  1  0.76717700  0.22947600  0.71606900  1
  H  H2  1  0.73282300  0.22947600  0.21606900  1
  H  H3  1  0.23282300  0.77052400  0.28393100  1
  H  H4  1  0.28841000  0.53365700  0.79567800  1
  H  H5  1  0.78841000  0.46634300  0.70432200  1
  H  H6  1  0.71159000  0.46634300  0.20432200  1
  H  H7  1  0.21159000  0.53365700  0.29567800  1
  H  H8  1  0.34922800  0.32512100  0.59460700  1
  H  H9  1  0.84922800  0.67487900  0.90539300  1
  H  H10  1  0.65077200  0.67487900  0.40539300  1
  H  H11  1  0.15077200  0.32512100  0.09460700  1
  H  H12  1  0.19096400  0.91040000  0.62813900  1
  H  H13  1  0.69096400  0.08960000  0.87186100  1
  H  H14  1  0.80903600  0.08960000  0.37186100  1
  H  H15  1  0.30903600  0.91040000  0.12813900  1
  H  H16  1  0.18126500  0.92094800  0.49237100  1
  H  H17  1  0.68126500  0.07905200  0.00762900  1
  H  H18  1  0.81873500  0.07905200  0.50762900  1
  H  H19  1  0.31873500  0.92094800  0.99237100  1
  H  H20  1  0.46144400  0.10946600  0.95351200  1
  H  H21  1  0.96144400  0.89053400  0.54648800  1
  H  H22  1  0.53855600  0.89053400  0.04648800  1
  H  H23  1  0.03855600  0.10946600  0.45351200  1
  H  H24  1  0.34897600  0.57758900  0.05121300  1
  H  H25  1  0.84897600  0.42241100  0.44878700  1
  H  H26  1  0.65102400  0.42241100  0.94878700  1
  H  H27  1  0.15102400  0.57758900  0.55121300  1
  H  H28  1  0.32779100  0.37835100  0.98777100  1
  H  H29  1  0.82779100  0.62164900  0.51222900  1
  H  H30  1  0.67220900  0.62164900  0.01222900  1
  H  H31  1  0.17220900  0.37835100  0.48777100  1
  O  O0  1  0.59212700  0.89661700  0.55616400  1
  O  O1  1  0.09212700  0.10338300  0.94383600  1
  O  O2  1  0.40787300  0.10338300  0.44383600  1
  O  O3  1  0.90787300  0.89661700  0.05616400  1
  O  O4  1  0.33237500  0.13921800  0.72568300  1
  O  O5  1  0.83237500  0.86078200  0.77431700  1
  O  O6  1  0.66762500  0.86078200  0.27431700  1
  O  O7  1  0.16762500  0.13921800  0.22568300  1
  O  O8  1  0.55227200  0.58278300  0.65610000  1
  O  O9  1  0.05227200  0.41721700  0.84390000  1
  O  O10  1  0.44772800  0.41721700  0.34390000  1
  O  O11  1  0.94772800  0.58278300  0.15610000  1
  O  O12  1  0.72795200  0.68880500  0.63933100  1
  O  O13  1  0.22795200  0.31119500  0.86066900  1
  O  O14  1  0.27204800  0.31119500  0.36066900  1
  O  O15  1  0.77204800  0.68880500  0.13933100  1
  O  O16  1  0.58817800  0.23513700  0.61902600  1
  O  O17  1  0.08817800  0.76486300  0.88097400  1
  O  O18  1  0.41182200  0.76486300  0.38097400  1
  O  O19  1  0.91182200  0.23513700  0.11902600  1
  O  O20  1  0.48268600  0.32082900  0.77641800  1
  O  O21  1  0.98268600  0.67917100  0.72358200  1
  O  O22  1  0.51731400  0.67917100  0.22358200  1
  O  O23  1  0.01731400  0.32082900  0.27641800  1
  O  O24  1  0.31765800  0.66720900  0.76763300  1
  O  O25  1  0.81765800  0.33279100  0.73236700  1
  O  O26  1  0.68234200  0.33279100  0.23236700  1
  O  O27  1  0.18234200  0.66720900  0.26763300  1
  O  O28  1  0.36258100  0.42306900  0.52860500  1
  O  O29  1  0.86258100  0.57693100  0.97139500  1
  O  O30  1  0.63741900  0.57693100  0.47139500  1
  O  O31  1  0.13741900  0.42306900  0.02860500  1
  O  O32  1  0.48852500  0.97044800  0.71762200  1
  O  O33  1  0.98852500  0.02955200  0.78237800  1
  O  O34  1  0.51147500  0.02955200  0.28237800  1
  O  O35  1  0.01147500  0.97044800  0.21762200  1
  O  O36  1  0.21321100  0.84246000  0.55797500  1
  O  O37  1  0.71321100  0.15754000  0.94202500  1
  O  O38  1  0.78678900  0.15754000  0.44202500  1
  O  O39  1  0.28678900  0.84246000  0.05797500  1
  O  O40  1  0.58140400  0.96333300  0.09724500  1
  O  O41  1  0.08140400  0.03666700  0.40275500  1
  O  O42  1  0.41859600  0.03666700  0.90275500  1
  O  O43  1  0.91859600  0.96333300  0.59724500  1
  O  O44  1  0.32959800  0.02034800  0.26192000  1
  O  O45  1  0.82959800  0.97965200  0.23808000  1
  O  O46  1  0.67040200  0.97965200  0.73808000  1
  O  O47  1  0.17040200  0.02034800  0.76192000  1
  O  O48  1  0.38117400  0.45138000  0.02678800  1
  O  O49  1  0.88117400  0.54862000  0.47321200  1
  O  O50  1  0.61882600  0.54862000  0.97321200  1
  O  O51  1  0.11882600  0.45138000  0.52678800  1
loop_
_geom_bond_atom_site_label_1
_geom_bond_atom_site_label_2
_geom_bond_distance
_geom_bond_site_symmetry_2
Na0 O50 2.377814 1_555
Na0 O24 2.437927 1_555
Na0 O20 2.461477 1_555
Na0 O32 2.505429 1_555
Na0 O8 2.573571 1_555
Na0 O42 2.689336 1_565
Na0 O48 2.731923 1_556
Na1 O51 2.377814 1_655
Na1 O25 2.437927 1_555
Na1 O21 2.461477 1_555
Na1 O33 2.505429 1_555
Na1 O9 2.573571 1_655
Na1 O43 2.689336 1_545
Na1 O49 2.731923 1_555
Na2 O48 2.377814 1_555
Na2 O26 2.437927 1_555
Na2 O22 2.461477 1_555
Na2 O34 2.505429 1_555
Na2 O10 2.573571 1_555
Na2 O40 2.689336 1_545
Na2 O50 2.731923 1_554
Na3 O49 2.377814 1_455
Na3 O27 2.437927 1_555
Na3 O23 2.461477 1_555
Na3 O35 2.505429 1_555
Na3 O11 2.573571 1_455
Na3 O41 2.689336 1_565
Na3 O51 2.731923 1_555
Ca0 O18 2.351020 1_555
Ca0 O32 2.388716 1_555
Ca0 O36 2.485363 1_555
Ca0 O24 2.504086 1_555
Ca0 O2 2.537270 1_565
Ca0 O28 2.546031 1_555
Ca0 O8 2.620189 1_555
Ca0 O0 2.736305 1_555
Ca1 O19 2.351020 1_556
Ca1 O33 2.388716 1_555
Ca1 O37 2.485363 1_555
Ca1 O25 2.504086 1_555
Ca1 O3 2.537270 1_546
Ca1 O29 2.546031 1_555
Ca1 O9 2.620189 1_655
Ca1 O1 2.736305 1_655
Ca2 O16 2.351020 1_555
Ca2 O34 2.388716 1_555
Ca2 O38 2.485363 1_555
Ca2 O26 2.504086 1_555
Ca2 O0 2.537270 1_545
Ca2 O30 2.546031 1_555
Ca2 O10 2.620189 1_555
Ca2 O2 2.736305 1_555
Ca3 O17 2.351020 1_554
Ca3 O35 2.388716 1_555
Ca3 O39 2.485363 1_555
Ca3 O27 2.504086 1_555
Ca3 O1 2.537270 1_564
Ca3 O31 2.546031 1_555
Ca3 O11 2.620189 1_455
Ca3 O3 2.736305 1_455
B0 O8 1.370224 1_555
B0 O16 1.375562 1_555
B0 O20 1.379155 1_555
B1 O9 1.370224 1_555
B1 O17 1.375562 1_555
B1 O21 1.379155 1_455
B2 O10 1.370224 1_555
B2 O18 1.375562 1_555
B2 O22 1.379155 1_555
B3 O11 1.370224 1_555
B3 O19 1.375562 1_555
B3 O23 1.379155 1_655
B4 O30 1.462532 1_555
B4 O0 1.468383 1_555
B4 O8 1.498244 1_555
B4 O12 1.530961 1_555
B5 O31 1.462532 1_556
B5 O1 1.468383 1_555
B5 O9 1.498244 1_555
B5 O13 1.530961 1_555
B6 O28 1.462532 1_555
B6 O2 1.468383 1_555
B6 O10 1.498244 1_555
B6 O14 1.530961 1_555
B7 O29 1.462532 1_554
B7 O3 1.468383 1_555
B7 O11 1.498244 1_555
B7 O15 1.530961 1_555
B8 O4 1.380640 1_555
B8 O13 1.380730 1_555
B8 O47 1.381897 1_555
B9 O5 1.380640 1_555
B9 O12 1.380730 1_555
B9 O46 1.381897 1_555
B10 O6 1.380640 1_555
B10 O15 1.380730 1_555
B10 O45 1.381897 1_555
B11 O7 1.380640 1_555
B11 O14 1.380730 1_555
B11 O44 1.381897 1_555
B12 O32 1.461454 1_545
B12 O20 1.475304 1_555
B12 O4 1.492818 1_555
B12 O42 1.505783 1_555
B13 O33 1.461454 1_565
B13 O21 1.475304 1_555
B13 O5 1.492818 1_555
B13 O43 1.505783 1_555
B14 O34 1.461454 1_565
B14 O22 1.475304 1_555
B14 O6 1.492818 1_555
B14 O40 1.505783 1_555
B15 O35 1.461454 1_545
B15 O23 1.475304 1_555
B15 O7 1.492818 1_555
B15 O41 1.505783 1_555
B16 O32 1.455442 1_545
B16 O0 1.471661 1_545
B16 O16 1.489286 1_555
B16 O46 1.504216 1_545
B17 O33 1.455442 1_465
B17 O1 1.471661 1_565
B17 O17 1.489286 1_555
B17 O47 1.504216 1_565
B18 O34 1.455442 1_565
B18 O2 1.471661 1_565
B18 O18 1.489286 1_555
B18 O44 1.504216 1_565
B19 O35 1.455442 1_645
B19 O3 1.471661 1_545
B19 O19 1.489286 1_555
B19 O45 1.504216 1_545
H0 O24 0.983216 1_555
H1 O25 0.983216 1_555
H2 O26 0.983216 1_555
H3 O27 0.983216 1_555
H4 O24 0.996808 1_555
H5 O25 0.996808 1_555
H6 O26 0.996808 1_555
H7 O27 0.996808 1_555
H8 O28 0.989315 1_555
H9 O29 0.989315 1_555
H10 O30 0.989315 1_555
H11 O31 0.989315 1_555
H12 O36 0.997624 1_555
H13 O37 0.997624 1_555
H14 O38 0.997624 1_555
H15 O39 0.997624 1_555
H16 O36 0.993513 1_555
H17 O37 0.993513 1_554
H18 O38 0.993513 1_555
H19 O39 0.993513 1_556
H20 O42 0.968744 1_555
H21 O43 0.968744 1_555
H22 O40 0.968744 1_555
H23 O41 0.968744 1_555
H24 O48 0.988538 1_555
H25 O49 0.988538 1_555
H26 O50 0.988538 1_555
H27 O51 0.988538 1_555
H28 O48 0.985951 1_556
H29 O49 0.985951 1_555
H30 O50 0.985951 1_554
H31 O51 0.985951 1_555
