# generated using pymatgen
data_Li9(CoO4)2
_symmetry_space_group_name_H-M   'P 1'
_cell_length_a   9.11957200
_cell_length_b   9.27685100
_cell_length_c   9.30084700
_cell_angle_alpha   90.00000000
_cell_angle_beta   90.00000000
_cell_angle_gamma   90.00000000
_symmetry_Int_Tables_number   1
_chemical_formula_structural   Li9(CoO4)2
_chemical_formula_sum   'Li36 Co8 O32'
_cell_volume   786.86012581
_cell_formula_units_Z   4
loop_
 _symmetry_equiv_pos_site_id
 _symmetry_equiv_pos_as_xyz
  1  'x, y, z'
loop_
 _atom_site_type_symbol
 _atom_site_label
 _atom_site_symmetry_multiplicity
 _atom_site_fract_x
 _atom_site_fract_y
 _atom_site_fract_z
 _atom_site_occupancy
  Li  Li0  1  0.86226900  0.36856400  0.64657500  1
  Li  Li1  1  0.36226900  0.13143600  0.64657500  1
  Li  Li2  1  0.16539900  0.89105100  0.63367800  1
  Li  Li3  1  0.66539900  0.60894900  0.63367800  1
  Li  Li4  1  0.64044700  0.15064900  0.63332900  1
  Li  Li5  1  0.14044700  0.34935100  0.63332900  1
  Li  Li6  1  0.58452000  0.87855700  0.58890900  1
  Li  Li7  1  0.08452000  0.62144300  0.58890900  1
  Li  Li8  1  0.08452000  0.12144300  0.41109100  1
  Li  Li9  1  0.58452000  0.37855700  0.41109100  1
  Li  Li10  1  0.14044700  0.84935100  0.36667100  1
  Li  Li11  1  0.64044700  0.65064900  0.36667100  1
  Li  Li12  1  0.16539900  0.39105100  0.36632200  1
  Li  Li13  1  0.66539900  0.10894900  0.36632200  1
  Li  Li14  1  0.86226900  0.86856400  0.35342500  1
  Li  Li15  1  0.36226900  0.63143600  0.35342500  1
  Li  Li16  1  0.64225000  0.38466900  0.13448500  1
  Li  Li17  1  0.14225000  0.11533100  0.13448500  1
  Li  Li18  1  0.34561300  0.88481600  0.13960700  1
  Li  Li19  1  0.84561300  0.61518400  0.13960700  1
  Li  Li20  1  0.37177500  0.35124400  0.12804400  1
  Li  Li21  1  0.87177500  0.14875600  0.12804400  1
  Li  Li22  1  0.10430300  0.38003300  0.09875200  1
  Li  Li23  1  0.60430300  0.11996700  0.09875200  1
  Li  Li24  1  0.89563500  0.88587500  0.08704100  1
  Li  Li25  1  0.39563500  0.61412500  0.08704100  1
  Li  Li26  1  0.89563500  0.38587500  0.91295900  1
  Li  Li27  1  0.39563500  0.11412500  0.91295900  1
  Li  Li28  1  0.60430300  0.61996700  0.90124800  1
  Li  Li29  1  0.10430300  0.88003300  0.90124800  1
  Li  Li30  1  0.37177500  0.85124400  0.87195600  1
  Li  Li31  1  0.87177500  0.64875600  0.87195600  1
  Li  Li32  1  0.34561300  0.38481600  0.86039300  1
  Li  Li33  1  0.84561300  0.11518400  0.86039300  1
  Li  Li34  1  0.64225000  0.88466900  0.86551500  1
  Li  Li35  1  0.14225000  0.61533100  0.86551500  1
  Co  Co0  1  0.87805700  0.86894600  0.62730700  1
  Co  Co1  1  0.37805700  0.63105400  0.62730700  1
  Co  Co2  1  0.87805700  0.36894600  0.37269300  1
  Co  Co3  1  0.37805700  0.13105400  0.37269300  1
  Co  Co4  1  0.62044500  0.85056600  0.13789800  1
  Co  Co5  1  0.12044500  0.64943400  0.13789800  1
  Co  Co6  1  0.62044500  0.35056600  0.86210200  1
  Co  Co7  1  0.12044500  0.14943400  0.86210200  1
  O  O0  1  0.50278000  0.73889700  0.74114500  1
  O  O1  1  0.00278000  0.76110300  0.74114500  1
  O  O2  1  0.75129000  0.98584300  0.71955700  1
  O  O3  1  0.25129000  0.51415700  0.71955700  1
  O  O4  1  0.00125800  0.95150700  0.50207600  1
  O  O5  1  0.50125800  0.54849300  0.50207600  1
  O  O6  1  0.75491000  0.76416000  0.51356300  1
  O  O7  1  0.25491000  0.73584000  0.51356300  1
  O  O8  1  0.75491000  0.26416000  0.48643700  1
  O  O9  1  0.25491000  0.23584000  0.48643700  1
  O  O10  1  0.00125800  0.45150700  0.49792400  1
  O  O11  1  0.50125800  0.04849300  0.49792400  1
  O  O12  1  0.75129000  0.48584300  0.28044300  1
  O  O13  1  0.25129000  0.01415700  0.28044300  1
  O  O14  1  0.50278000  0.23889700  0.25885500  1
  O  O15  1  0.00278000  0.26110300  0.25885500  1
  O  O16  1  0.99403800  0.76265000  0.23063600  1
  O  O17  1  0.49403800  0.73735000  0.23063600  1
  O  O18  1  0.74713900  0.99012400  0.21526900  1
  O  O19  1  0.24713900  0.50987600  0.21526900  1
  O  O20  1  0.50044800  0.96217000  0.00665800  1
  O  O21  1  0.00044800  0.53783000  0.00665800  1
  O  O22  1  0.74203400  0.75142900  0.00158800  1
  O  O23  1  0.24203400  0.74857100  0.00158800  1
  O  O24  1  0.74203400  0.25142900  0.99841200  1
  O  O25  1  0.24203400  0.24857100  0.99841200  1
  O  O26  1  0.50044800  0.46217000  0.99334200  1
  O  O27  1  0.00044800  0.03783000  0.99334200  1
  O  O28  1  0.24713900  0.00987600  0.78473100  1
  O  O29  1  0.74713900  0.49012400  0.78473100  1
  O  O30  1  0.99403800  0.26265000  0.76936400  1
  O  O31  1  0.49403800  0.23735000  0.76936400  1
loop_
_geom_bond_atom_site_label_1
_geom_bond_atom_site_label_2
_geom_bond_distance
_geom_bond_site_symmetry_2
Li0 O30 1.927093 1_555
Li0 O29 2.006291 1_555
Li0 O10 2.027360 1_655
Li0 O8 2.028550 1_555
Li1 O31 1.927093 1_555
Li1 O28 2.006291 1_555
Li1 O11 2.027360 1_555
Li1 O9 2.028550 1_555
Li2 O28 1.935094 1_565
Li2 O7 1.996909 1_555
Li2 O4 2.013316 1_555
Li2 O1 2.156769 1_555
Li3 O29 1.935094 1_555
Li3 O6 1.996909 1_555
Li3 O5 2.013316 1_555
Li3 O0 2.156769 1_555
Li4 O2 2.000617 1_545
Li4 O31 2.007605 1_555
Li4 O8 2.016196 1_555
Li4 O11 2.023706 1_555
Li5 O3 2.000617 1_555
Li5 O30 2.007605 1_455
Li5 O9 2.016196 1_555
Li5 O10 2.023706 1_555
Li6 O11 1.943691 1_565
Li6 O6 2.007956 1_555
Li6 O0 2.058908 1_555
Li6 O2 2.186363 1_555
Li7 O10 1.943691 1_555
Li7 O7 2.007956 1_555
Li7 O1 2.058908 1_555
Li7 O3 2.186363 1_555
Li8 O4 1.943691 1_545
Li8 O9 2.007956 1_555
Li8 O15 2.058908 1_555
Li8 O13 2.186363 1_555
Li9 O5 1.943691 1_555
Li9 O8 2.007956 1_555
Li9 O14 2.058908 1_555
Li9 O12 2.186363 1_555
Li10 O13 2.000617 1_565
Li10 O16 2.007605 1_455
Li10 O7 2.016196 1_555
Li10 O4 2.023706 1_555
Li11 O12 2.000617 1_555
Li11 O17 2.007605 1_555
Li11 O6 2.016196 1_555
Li11 O5 2.023706 1_555
Li12 O19 1.935094 1_555
Li12 O9 1.996909 1_555
Li12 O10 2.013316 1_555
Li12 O15 2.156769 1_555
Li13 O18 1.935094 1_545
Li13 O8 1.996909 1_555
Li13 O11 2.013316 1_555
Li13 O14 2.156769 1_555
Li14 O16 1.927093 1_555
Li14 O18 2.006291 1_555
Li14 O4 2.027360 1_655
Li14 O6 2.028550 1_555
Li15 O17 1.927093 1_555
Li15 O19 2.006291 1_555
Li15 O5 2.027360 1_555
Li15 O7 2.028550 1_555
Li16 O12 1.926823 1_555
Li16 O26 1.978009 1_554
Li16 O24 1.989377 1_554
Li16 O14 2.187359 1_555
Li17 O13 1.926823 1_555
Li17 O27 1.978009 1_554
Li17 O25 1.989377 1_554
Li17 O15 2.187359 1_555
Li18 O13 1.973689 1_565
Li18 O20 2.009429 1_555
Li18 O23 2.034118 1_555
Li18 O17 2.102486 1_555
Li19 O12 1.973689 1_555
Li19 O21 2.009429 1_655
Li19 O22 2.034118 1_555
Li19 O16 2.102486 1_555
Li20 O25 1.939285 1_554
Li20 O14 1.998452 1_555
Li20 O26 2.001378 1_554
Li20 O19 2.028718 1_555
Li21 O24 1.939285 1_554
Li21 O15 1.998452 1_655
Li21 O27 2.001378 1_654
Li21 O18 2.028718 1_545
Li22 O21 1.942573 1_555
Li22 O25 1.983914 1_554
Li22 O15 2.071679 1_555
Li22 O19 2.078966 1_555
Li23 O20 1.942573 1_545
Li23 O24 1.983914 1_554
Li23 O14 2.071679 1_555
Li23 O18 2.078966 1_545
Li24 O27 1.913185 1_664
Li24 O16 1.973776 1_555
Li24 O22 2.037020 1_555
Li24 O18 2.047331 1_555
Li25 O26 1.913185 1_554
Li25 O17 1.973776 1_555
Li25 O23 2.037020 1_555
Li25 O19 2.047331 1_555
Li26 O21 1.913185 1_656
Li26 O30 1.973776 1_555
Li26 O24 2.037020 1_555
Li26 O29 2.047331 1_555
Li27 O20 1.913185 1_546
Li27 O31 1.973776 1_555
Li27 O25 2.037020 1_555
Li27 O28 2.047331 1_555
Li28 O26 1.942573 1_555
Li28 O22 1.983914 1_556
Li28 O0 2.071679 1_555
Li28 O29 2.078966 1_555
Li29 O27 1.942573 1_565
Li29 O23 1.983914 1_556
Li29 O1 2.071679 1_555
Li29 O28 2.078966 1_565
Li30 O23 1.939285 1_556
Li30 O0 1.998452 1_555
Li30 O20 2.001378 1_556
Li30 O28 2.028718 1_565
Li31 O22 1.939285 1_556
Li31 O1 1.998452 1_655
Li31 O21 2.001378 1_656
Li31 O29 2.028718 1_555
Li32 O3 1.973689 1_555
Li32 O26 2.009429 1_555
Li32 O25 2.034118 1_555
Li32 O31 2.102486 1_555
Li33 O2 1.973689 1_545
Li33 O27 2.009429 1_655
Li33 O24 2.034118 1_555
Li33 O30 2.102486 1_555
Li34 O2 1.926823 1_555
Li34 O20 1.978009 1_556
Li34 O22 1.989377 1_556
Li34 O0 2.187359 1_555
Li35 O3 1.926823 1_555
Li35 O21 1.978009 1_556
Li35 O23 1.989377 1_556
Li35 O1 2.187359 1_555
Co0 O4 1.790421 1_655
Co0 O2 1.802400 1_555
Co0 O6 1.823560 1_555
Co0 O1 1.848147 1_655
Co1 O5 1.790421 1_555
Co1 O3 1.802400 1_555
Co1 O7 1.823560 1_555
Co1 O0 1.848147 1_555
Co2 O10 1.790421 1_655
Co2 O12 1.802400 1_555
Co2 O8 1.823560 1_555
Co2 O15 1.848147 1_655
Co3 O11 1.790421 1_555
Co3 O13 1.802400 1_555
Co3 O9 1.823560 1_555
Co3 O14 1.848147 1_555
Co4 O17 1.782128 1_555
Co4 O18 1.878544 1_555
Co4 O22 1.919023 1_555
Co4 O20 1.938924 1_555
Co5 O16 1.782128 1_455
Co5 O19 1.878544 1_555
Co5 O23 1.919023 1_555
Co5 O21 1.938924 1_555
Co6 O31 1.782128 1_555
Co6 O29 1.878544 1_555
Co6 O24 1.919023 1_555
Co6 O26 1.938924 1_555
Co7 O30 1.782128 1_455
Co7 O28 1.878544 1_555
Co7 O25 1.919023 1_555
Co7 O27 1.938924 1_555
