# generated using pymatgen
data_LiV3(OF2)4
_symmetry_space_group_name_H-M   'P 1'
_cell_length_a   5.43989700
_cell_length_b   5.83861701
_cell_length_c   6.97933513
_cell_angle_alpha   103.19034693
_cell_angle_beta   103.62793642
_cell_angle_gamma   92.78115490
_symmetry_Int_Tables_number   1
_chemical_formula_structural   LiV3(OF2)4
_chemical_formula_sum   'Li1 V3 O4 F8'
_cell_volume   208.52018500
_cell_formula_units_Z   1
loop_
 _symmetry_equiv_pos_site_id
 _symmetry_equiv_pos_as_xyz
  1  'x, y, z'
loop_
 _atom_site_type_symbol
 _atom_site_label
 _atom_site_symmetry_multiplicity
 _atom_site_fract_x
 _atom_site_fract_y
 _atom_site_fract_z
 _atom_site_occupancy
  Li  Li0  1  0.20766700  0.45516600  0.61995900  1
  V  V0  1  0.61810700  0.17058400  0.33850200  1
  V  V1  1  0.30747800  0.63824100  0.16246600  1
  V  V2  1  0.98054700  0.01537500  0.97104200  1
  O  O0  1  0.83399000  0.06473400  0.20297800  1
  O  O1  1  0.53464600  0.40081200  0.23347100  1
  O  O2  1  0.31110800  0.95192600  0.15102300  1
  O  O3  1  0.09596300  0.29560600  0.01713500  1
  F  F0  1  0.96420400  0.67279900  0.01176300  1
  F  F1  1  0.86634900  0.30921400  0.57192600  1
  F  F2  1  0.66367800  0.98865400  0.82114500  1
  F  F3  1  0.59533600  0.80718100  0.37521400  1
  F  F4  1  0.39450100  0.21271600  0.51010700  1
  F  F5  1  0.39261900  0.56645500  0.91958100  1
  F  F6  1  0.15827300  0.60527200  0.36193300  1
  F  F7  1  0.09237400  0.88444400  0.75200500  1
loop_
_geom_bond_atom_site_label_1
_geom_bond_atom_site_label_2
_geom_bond_distance
_geom_bond_site_symmetry_2
O0 V0 1.727103 1_555
O0 V2 1.938195 1_554
O1 V0 1.703669 1_555
O1 V1 1.971193 1_555
O2 V1 1.850702 1_555
O2 V0 2.032735 1_565
O2 V2 2.039930 1_464
O3 V2 1.655183 1_454
O3 V1 2.157642 1_555
F0 V1 1.960092 1_655
F0 V2 2.084091 1_564
F1 V0 1.840728 1_555
F1 Li0 1.925821 1_655
F2 V2 1.771926 1_565
F3 V1 1.927643 1_555
F3 V0 2.195556 1_565
F4 V0 1.885652 1_555
F4 Li0 1.906872 1_555
F5 V1 1.824383 1_556
F5 Li0 2.032839 1_555
F6 V1 1.809288 1_555
F6 Li0 2.144405 1_555
F7 V2 1.800416 1_465
