# generated using pymatgen
data_Li3Mn3CrO8
_symmetry_space_group_name_H-M   'P 1'
_cell_length_a   5.86069843
_cell_length_b   5.86069843
_cell_length_c   9.50882021
_cell_angle_alpha   89.56364926
_cell_angle_beta   89.56364926
_cell_angle_gamma   118.83148683
_symmetry_Int_Tables_number   1
_chemical_formula_structural   Li3Mn3CrO8
_chemical_formula_sum   'Li6 Mn6 Cr2 O16'
_cell_volume   286.08926412
_cell_formula_units_Z   2
loop_
 _symmetry_equiv_pos_site_id
 _symmetry_equiv_pos_as_xyz
  1  'x, y, z'
loop_
 _atom_site_type_symbol
 _atom_site_label
 _atom_site_symmetry_multiplicity
 _atom_site_fract_x
 _atom_site_fract_y
 _atom_site_fract_z
 _atom_site_occupancy
  Li  Li0  1  0.82543700  0.64736300  0.44521000  1
  Li  Li1  1  0.34673800  0.16461500  0.44220900  1
  Li  Li2  1  0.83551500  0.17317300  0.44302600  1
  Li  Li3  1  0.17317300  0.83551500  0.94302600  1
  Li  Li4  1  0.64736300  0.82543700  0.94521000  1
  Li  Li5  1  0.16461500  0.34673800  0.94220900  1
  Mn  Mn0  1  0.83439200  0.66105200  0.71548000  1
  Mn  Mn1  1  0.34102600  0.16599600  0.71439700  1
  Mn  Mn2  1  0.83744000  0.16489300  0.71136000  1
  Mn  Mn3  1  0.16489300  0.83744000  0.21136000  1
  Mn  Mn4  1  0.66105200  0.83439200  0.21548000  1
  Mn  Mn5  1  0.16599600  0.34102600  0.21439700  1
  Cr  Cr0  1  0.65773000  0.33688400  0.98980100  1
  Cr  Cr1  1  0.33688400  0.65773000  0.48980100  1
  O  O0  1  0.80966700  0.67665500  0.09177500  1
  O  O1  1  0.51546600  0.48476600  0.83709100  1
  O  O2  1  0.70487900  0.35131100  0.59840400  1
  O  O3  1  0.97076300  0.98047300  0.82458900  1
  O  O4  1  0.98047300  0.97076300  0.32458900  1
  O  O5  1  0.30756700  0.16418500  0.09235900  1
  O  O6  1  0.96643600  0.50091200  0.85249400  1
  O  O7  1  0.52022000  0.04227100  0.84236700  1
  O  O8  1  0.83312500  0.16317100  0.10281100  1
  O  O9  1  0.16317100  0.83312500  0.60281100  1
  O  O10  1  0.50091200  0.96643600  0.35249400  1
  O  O11  1  0.35131100  0.70487900  0.09840400  1
  O  O12  1  0.04227100  0.52022000  0.34236700  1
  O  O13  1  0.67665500  0.80966700  0.59177500  1
  O  O14  1  0.48476600  0.51546600  0.33709100  1
  O  O15  1  0.16418500  0.30756700  0.59235900  1
loop_
_geom_bond_atom_site_label_1
_geom_bond_atom_site_label_2
_geom_bond_distance
_geom_bond_site_symmetry_2
Li0 O4 2.005870 1_555
Li0 O12 2.007972 1_655
Li0 O14 2.048324 1_555
Li0 O2 2.096452 1_555
Li0 O13 2.099777 1_555
Li0 O9 2.310972 1_655
Li1 O10 1.977048 1_545
Li1 O14 2.057591 1_555
Li1 O15 2.178185 1_555
Li1 O4 2.203001 1_445
Li1 O9 2.275488 1_545
Li1 O2 2.380326 1_555
Li2 O10 1.950555 1_545
Li2 O12 2.024103 1_655
Li2 O4 2.091662 1_545
Li2 O2 2.153186 1_555
Li2 O15 2.223179 1_655
Li2 O13 2.329608 1_545
Li3 O6 1.950555 1_455
Li3 O7 2.024103 1_565
Li3 O3 2.091662 1_455
Li3 O11 2.153186 1_556
Li3 O5 2.223179 1_566
Li3 O0 2.329608 1_456
Li4 O3 2.005870 1_555
Li4 O7 2.007972 1_565
Li4 O1 2.048324 1_555
Li4 O11 2.096452 1_556
Li4 O0 2.099777 1_556
Li4 O8 2.310972 1_566
Li5 O6 1.977048 1_455
Li5 O1 2.057591 1_555
Li5 O5 2.178185 1_556
Li5 O3 2.203001 1_445
Li5 O8 2.275488 1_456
Li5 O11 2.380326 1_556
Mn0 O13 1.942785 1_555
Mn0 O3 1.954189 1_555
Mn0 O2 1.955891 1_555
Mn0 O6 1.968335 1_555
Mn0 O9 1.988867 1_655
Mn0 O1 1.996160 1_555
Mn1 O7 1.962119 1_555
Mn1 O15 1.985495 1_555
Mn1 O9 2.026157 1_545
Mn1 O1 2.026280 1_555
Mn1 O2 2.157678 1_555
Mn1 O3 2.159028 1_445
Mn2 O3 1.935862 1_545
Mn2 O2 1.940189 1_555
Mn2 O15 2.013679 1_655
Mn2 O7 2.046251 1_555
Mn2 O13 2.162285 1_545
Mn2 O6 2.206925 1_555
Mn3 O4 1.935862 1_455
Mn3 O11 1.940189 1_555
Mn3 O5 2.013679 1_565
Mn3 O12 2.046251 1_555
Mn3 O0 2.162285 1_455
Mn3 O10 2.206925 1_555
Mn4 O0 1.942785 1_555
Mn4 O4 1.954189 1_555
Mn4 O11 1.955891 1_555
Mn4 O10 1.968335 1_555
Mn4 O8 1.988867 1_565
Mn4 O14 1.996160 1_555
Mn5 O12 1.962119 1_555
Mn5 O5 1.985495 1_555
Mn5 O8 2.026157 1_455
Mn5 O14 2.026280 1_555
Mn5 O11 2.157678 1_555
Mn5 O4 2.159028 1_445
Cr0 O0 2.007684 1_556
Cr0 O5 2.034243 1_556
Cr0 O6 2.041952 1_555
Cr0 O1 2.061822 1_555
Cr0 O8 2.063344 1_556
Cr0 O7 2.075611 1_555
Cr1 O13 2.007684 1_555
Cr1 O15 2.034243 1_555
Cr1 O10 2.041952 1_555
Cr1 O14 2.061822 1_555
Cr1 O9 2.063344 1_555
Cr1 O12 2.075611 1_555
