# generated using pymatgen
data_Li5V3P8O29
_symmetry_space_group_name_H-M   'P 1'
_cell_length_a   9.79809172
_cell_length_b   9.80148939
_cell_length_c   14.08596882
_cell_angle_alpha   90.07913892
_cell_angle_beta   91.29061956
_cell_angle_gamma   60.10817089
_symmetry_Int_Tables_number   1
_chemical_formula_structural   Li5V3P8O29
_chemical_formula_sum   'Li10 V6 P16 O58'
_cell_volume   1172.42502432
_cell_formula_units_Z   2
loop_
 _symmetry_equiv_pos_site_id
 _symmetry_equiv_pos_as_xyz
  1  'x, y, z'
loop_
 _atom_site_type_symbol
 _atom_site_label
 _atom_site_symmetry_multiplicity
 _atom_site_fract_x
 _atom_site_fract_y
 _atom_site_fract_z
 _atom_site_occupancy
  Li  Li0  1  0.69177900  0.65502500  0.39102200  1
  Li  Li1  1  0.77313400  0.31432300  0.06092200  1
  Li  Li2  1  0.32458300  0.90600200  0.06620600  1
  Li  Li3  1  0.67454000  0.23518500  0.43797500  1
  Li  Li4  1  0.32014600  0.76951200  0.56116500  1
  Li  Li5  1  0.68643900  0.08551900  0.93461400  1
  Li  Li6  1  0.23093400  0.67767700  0.94509900  1
  Li  Li7  1  0.33017700  0.32326900  0.60941800  1
  Li  Li8  1  0.09800600  0.22914900  0.94279800  1
  Li  Li9  1  0.00393300  0.00715300  0.49508600  1
  V  V0  1  0.56862100  0.43043000  0.24937400  1
  V  V1  1  0.42912700  0.56968900  0.75161400  1
  V  V2  1  0.57076300  0.99542700  0.74865300  1
  V  V3  1  0.43212300  0.00495100  0.25240500  1
  V  V4  1  0.00411500  0.56929900  0.25387000  1
  V  V5  1  0.99427600  0.43754500  0.74224100  1
  P  P0  1  0.92048500  0.76777200  0.84036100  1
  P  P1  1  0.78076100  0.91454700  0.33760900  1
  P  P2  1  0.91886200  0.30270200  0.34280600  1
  P  P3  1  0.66363100  0.66685300  0.13121800  1
  P  P4  1  0.65876100  0.67140700  0.62766000  1
  P  P5  1  0.77170500  0.31924300  0.83748500  1
  P  P6  1  0.67725300  0.22881400  0.65649000  1
  P  P7  1  0.32118600  0.91504600  0.84584900  1
  P  P8  1  0.67973100  0.08552200  0.15270100  1
  P  P9  1  0.32447200  0.77402600  0.34460500  1
  P  P10  1  0.22774800  0.68403100  0.16447300  1
  P  P11  1  0.33663700  0.32971600  0.37334300  1
  P  P12  1  0.33324600  0.33224100  0.86916000  1
  P  P13  1  0.08021700  0.69562200  0.65360400  1
  P  P14  1  0.21780100  0.08847200  0.66146100  1
  P  P15  1  0.08452400  0.23349400  0.15828700  1
  O  O0  1  0.00302400  0.79182400  0.56764900  1
  O  O1  1  0.91848600  0.73940200  0.33833400  1
  O  O2  1  0.74095900  0.01294200  0.05958900  1
  O  O3  1  0.75274200  0.91281600  0.83873600  1
  O  O4  1  0.91286900  0.61569700  0.81711200  1
  O  O5  1  0.81502500  0.65675100  0.18290700  1
  O  O6  1  0.91054400  0.46546200  0.33641000  1
  O  O7  1  0.99983800  0.24317800  0.06606500  1
  O  O8  1  0.91967400  0.33847800  0.83717500  1
  O  O9  1  0.66945300  0.80958300  0.67148200  1
  O  O10  1  0.62922600  0.90281400  0.33292600  1
  O  O11  1  0.81012900  0.51862600  0.67261900  1
  O  O12  1  0.66300700  0.67210300  0.02575600  1
  O  O13  1  0.66417800  0.66520400  0.52165900  1
  O  O14  1  0.66772600  0.51107200  0.16607900  1
  O  O15  1  0.47919400  0.90397200  0.82238700  1
  O  O16  1  0.51521000  0.81367500  0.17136700  1
  O  O17  1  0.74294000  0.33962000  0.33701300  1
  O  O18  1  0.78998200  0.21230500  0.74728400  1
  O  O19  1  0.75742600  0.22372900  0.56723500  1
  O  O20  1  0.76154400  0.24250400  0.92739300  1
  O  O21  1  0.62119100  0.47975000  0.81871400  1
  O  O22  1  0.50903300  0.67230600  0.66291400  1
  O  O23  1  0.66434000  0.25110900  0.16117600  1
  O  O24  1  0.48601600  0.62531100  0.33022400  1
  O  O25  1  0.34780500  0.91846000  0.33468900  1
  O  O26  1  0.80110900  0.98203700  0.23729600  1
  O  O27  1  0.79412100  0.00980000  0.41572100  1
  O  O28  1  0.20248600  0.99415400  0.58326600  1
  O  O29  1  0.65330600  0.08445900  0.66762100  1
  O  O30  1  0.51396800  0.37587900  0.67137500  1
  O  O31  1  0.33544000  0.75062600  0.84176400  1
  O  O32  1  0.48520500  0.33263400  0.33937400  1
  O  O33  1  0.37658000  0.52203600  0.18269700  1
  O  O34  1  0.23942500  0.75748900  0.07399600  1
  O  O35  1  0.24163600  0.78080300  0.43331100  1
  O  O36  1  0.21126000  0.79311800  0.25310400  1
  O  O37  1  0.25582200  0.65867400  0.66320400  1
  O  O38  1  0.48586800  0.18599000  0.83244500  1
  O  O39  1  0.52122200  0.09729700  0.17827800  1
  O  O40  1  0.33019000  0.48715300  0.83410800  1
  O  O41  1  0.31959100  0.33170400  0.97443500  1
  O  O42  1  0.33506500  0.32841000  0.47934500  1
  O  O43  1  0.18455500  0.48117300  0.32952100  1
  O  O44  1  0.36908000  0.10035900  0.66707300  1
  O  O45  1  0.32762300  0.19178100  0.32712500  1
  O  O46  1  0.08116000  0.66325900  0.16888200  1
  O  O47  1  0.00163000  0.79105900  0.74808800  1
  O  O48  1  0.01377400  0.75614600  0.92705400  1
  O  O49  1  0.08871700  0.53125800  0.66472900  1
  O  O50  1  0.18534700  0.33390000  0.81813400  1
  O  O51  1  0.09222300  0.38405300  0.18012700  1
  O  O52  1  0.24968000  0.08495200  0.16040000  1
  O  O53  1  0.25304700  0.99863100  0.93709100  1
  O  O54  1  0.20071900  0.01646900  0.76113800  1
  O  O55  1  0.07691900  0.26119300  0.66287300  1
  O  O56  1  0.00075200  0.19618500  0.42444800  1
  O  O57  1  0.99012300  0.21363700  0.24361600  1
loop_
_geom_bond_atom_site_label_1
_geom_bond_atom_site_label_2
_geom_bond_distance
_geom_bond_site_symmetry_2
Li0 O13 1.861251 1_555
Li0 O6 2.176972 1_555
Li0 O24 2.321555 1_555
Li0 O10 2.333052 1_555
Li1 O7 1.968387 1_555
Li1 O20 2.027941 1_554
Li1 O23 2.059846 1_555
Li1 O14 2.248433 1_555
Li2 O53 1.983968 1_554
Li2 O34 2.010552 1_555
Li2 O52 2.032211 1_565
Li2 O16 2.167054 1_555
Li3 O27 1.945762 1_555
Li3 O19 1.957130 1_555
Li3 O17 2.061597 1_555
Li3 O32 2.098638 1_555
Li4 O35 1.923718 1_555
Li4 O28 1.938613 1_555
Li4 O37 2.090667 1_555
Li4 O22 2.124586 1_555
Li5 O2 1.863524 1_556
Li5 O3 2.012087 1_545
Li5 O20 2.012915 1_555
Li5 O38 2.202395 1_555
Li6 O48 1.878437 1_555
Li6 O34 1.992377 1_556
Li6 O31 2.116172 1_555
Li6 O40 2.264417 1_555
Li7 O42 1.835325 1_555
Li7 O44 2.176990 1_555
Li7 O30 2.263614 1_555
Li7 O49 2.373088 1_555
Li8 O7 1.975269 1_456
Li8 O53 2.000763 1_545
Li8 O8 2.106177 1_455
Li8 O50 2.412160 1_555
Li9 O56 2.090453 1_555
Li9 O28 2.233453 1_545
Li9 O27 2.306507 1_455
Li9 O0 2.350386 1_545
Li9 O35 2.457513 1_545
Li9 O19 2.523276 1_455
O0 P13 1.475859 1_555
O1 P1 1.567973 1_555
O1 V4 1.882668 1_655
O2 P8 1.481111 1_555
O3 P0 1.546730 1_555
O3 V2 1.976588 1_555
O4 P0 1.563011 1_555
O4 V5 1.855288 1_555
O5 P3 1.595451 1_555
O5 V4 1.871503 1_655
O6 P2 1.558905 1_555
O6 V4 2.051703 1_655
O7 P15 1.502761 1_655
O8 P5 1.552499 1_555
O8 V5 2.005096 1_555
O9 P4 1.537013 1_555
O9 V2 1.928979 1_555
O10 P1 1.545259 1_555
O10 V3 1.998935 1_565
O11 P4 1.609279 1_555
O11 V5 1.828122 1_555
O12 P3 1.486266 1_555
O13 P4 1.495341 1_555
O14 P3 1.585636 1_555
O14 V0 1.939891 1_555
O15 P7 1.540555 1_555
O15 V2 1.879729 1_555
O16 P3 1.566676 1_555
O16 V3 1.998823 1_565
O17 P2 1.575055 1_555
O17 V0 1.904259 1_555
O18 P5 1.601411 1_555
O18 P6 1.624993 1_555
O19 P6 1.485097 1_555
O20 P5 1.504152 1_555
O21 P5 1.546243 1_555
O21 V1 1.865617 1_555
O22 P4 1.555258 1_555
O22 V1 2.004519 1_555
O23 P8 1.558025 1_555
O23 V0 1.978808 1_555
O24 P9 1.544362 1_555
O24 V0 2.023662 1_555
O25 P9 1.549344 1_555
O25 V3 1.867757 1_565
O26 P8 1.612534 1_565
O26 P1 1.618841 1_555
O27 P1 1.487244 1_545
O28 P14 1.489411 1_565
O29 P6 1.553940 1_555
O29 V2 1.861781 1_545
O30 P6 1.548238 1_555
O30 V1 2.009850 1_555
O31 P7 1.547809 1_555
O31 V1 2.005981 1_555
O32 P11 1.556179 1_555
O32 V0 2.006211 1_555
O33 P10 1.545943 1_555
O33 V0 1.862155 1_555
O34 P10 1.498978 1_555
O35 P9 1.488676 1_555
O36 P10 1.600371 1_555
O36 P9 1.629741 1_555
O37 P13 1.574315 1_555
O37 V1 1.904349 1_555
O38 P12 1.566757 1_555
O38 V2 2.015748 1_545
O39 P8 1.549718 1_555
O39 V3 1.871604 1_555
O40 P12 1.583101 1_555
O40 V1 1.944073 1_555
O41 P12 1.492174 1_555
O42 P11 1.493705 1_555
O43 P11 1.600460 1_555
O43 V4 1.844696 1_555
O44 P14 1.543925 1_555
O44 V2 2.039244 1_545
O45 P11 1.540599 1_555
O45 V3 1.919336 1_555
O46 P10 1.550398 1_555
O46 V4 1.894162 1_555
O47 P13 1.601255 1_555
O47 P0 1.613021 1_455
O48 P0 1.478507 1_455
O49 P13 1.578997 1_555
O49 V5 1.946150 1_455
O50 P12 1.595765 1_555
O50 V5 1.922735 1_455
O51 P15 1.544890 1_555
O51 V4 1.895738 1_555
O52 P15 1.545603 1_555
O52 V3 1.997809 1_555
O53 P7 1.503100 1_555
O54 P7 1.604852 1_545
O54 P14 1.621259 1_555
O55 P14 1.563247 1_555
O55 V5 1.879808 1_455
O56 P2 1.477530 1_455
O57 P15 1.602571 1_655
O57 P2 1.623196 1_555
