# generated using pymatgen
data_Ni4(PO4)3
_symmetry_space_group_name_H-M   'P 1'
_cell_length_a   6.13859600
_cell_length_b   9.57169600
_cell_length_c   16.29559900
_cell_angle_alpha   90.00000000
_cell_angle_beta   90.00000000
_cell_angle_gamma   90.00000000
_symmetry_Int_Tables_number   1
_chemical_formula_structural   Ni4(PO4)3
_chemical_formula_sum   'Ni16 P12 O48'
_cell_volume   957.47684033
_cell_formula_units_Z   4
loop_
 _symmetry_equiv_pos_site_id
 _symmetry_equiv_pos_as_xyz
  1  'x, y, z'
loop_
 _atom_site_type_symbol
 _atom_site_label
 _atom_site_symmetry_multiplicity
 _atom_site_fract_x
 _atom_site_fract_y
 _atom_site_fract_z
 _atom_site_occupancy
  Ni  Ni0  1  0.00000000  0.53350000  0.09173000  1
  Ni  Ni1  1  0.00000000  0.99056300  0.14143600  1
  Ni  Ni2  1  0.00000000  0.00943700  0.85856400  1
  Ni  Ni3  1  0.00000000  0.46650000  0.90827000  1
  Ni  Ni4  1  0.75150400  0.75151800  0.29639300  1
  Ni  Ni5  1  0.75150400  0.24848200  0.70360700  1
  Ni  Ni6  1  0.74849600  0.25151800  0.20360700  1
  Ni  Ni7  1  0.74849600  0.74848200  0.79639300  1
  Ni  Ni8  1  0.50000000  0.96650000  0.59173000  1
  Ni  Ni9  1  0.50000000  0.03350000  0.40827000  1
  Ni  Ni10  1  0.50000000  0.49056300  0.35856400  1
  Ni  Ni11  1  0.50000000  0.50943700  0.64143600  1
  Ni  Ni12  1  0.25150400  0.74848200  0.79639300  1
  Ni  Ni13  1  0.25150400  0.25151800  0.20360700  1
  Ni  Ni14  1  0.24849600  0.75151800  0.29639300  1
  Ni  Ni15  1  0.24849600  0.24848200  0.70360700  1
  P  P0  1  0.00000000  0.20647300  0.03586500  1
  P  P1  1  0.00000000  0.04335500  0.33914900  1
  P  P2  1  0.00000000  0.45373500  0.28173400  1
  P  P3  1  0.00000000  0.54626500  0.71826600  1
  P  P4  1  0.00000000  0.95664500  0.66085100  1
  P  P5  1  0.00000000  0.79352700  0.96413500  1
  P  P6  1  0.50000000  0.95373500  0.21826600  1
  P  P7  1  0.50000000  0.29352700  0.53586500  1
  P  P8  1  0.50000000  0.54335500  0.16085100  1
  P  P9  1  0.50000000  0.70647300  0.46413500  1
  P  P10  1  0.50000000  0.04626500  0.78173400  1
  P  P11  1  0.50000000  0.45664500  0.83914900  1
  O  O0  1  0.00000000  0.36619200  0.01971200  1
  O  O1  1  0.00000000  0.11553500  0.24904500  1
  O  O2  1  0.00000000  0.39357800  0.18887500  1
  O  O3  1  0.00000000  0.86497300  0.04648900  1
  O  O4  1  0.00000000  0.61506000  0.27529900  1
  O  O5  1  0.00000000  0.11849700  0.67243400  1
  O  O6  1  0.00000000  0.88150300  0.32756600  1
  O  O7  1  0.00000000  0.38494000  0.72470100  1
  O  O8  1  0.00000000  0.13502700  0.95351100  1
  O  O9  1  0.00000000  0.60642200  0.81112500  1
  O  O10  1  0.00000000  0.88446500  0.75095500  1
  O  O11  1  0.00000000  0.63380800  0.98028800  1
  O  O12  1  0.79625200  0.09083900  0.38429000  1
  O  O13  1  0.79625200  0.90916100  0.61571000  1
  O  O14  1  0.80190300  0.15979000  0.09082900  1
  O  O15  1  0.80190300  0.84021000  0.90917100  1
  O  O16  1  0.78600300  0.39221100  0.31542200  1
  O  O17  1  0.78600300  0.60778900  0.68457800  1
  O  O18  1  0.71399700  0.89221100  0.18457800  1
  O  O19  1  0.71399700  0.10778900  0.81542200  1
  O  O20  1  0.69809700  0.34021000  0.59082900  1
  O  O21  1  0.69809700  0.65979000  0.40917100  1
  O  O22  1  0.70374800  0.40916100  0.88429000  1
  O  O23  1  0.70374800  0.59083900  0.11571000  1
  O  O24  1  0.50000000  0.38150300  0.17243400  1
  O  O25  1  0.50000000  0.36497300  0.45351100  1
  O  O26  1  0.50000000  0.13380800  0.51971200  1
  O  O27  1  0.50000000  0.11506000  0.22470100  1
  O  O28  1  0.50000000  0.86619200  0.48028800  1
  O  O29  1  0.50000000  0.63502700  0.54648900  1
  O  O30  1  0.50000000  0.88494000  0.77529900  1
  O  O31  1  0.50000000  0.61553500  0.25095500  1
  O  O32  1  0.50000000  0.89357800  0.31112500  1
  O  O33  1  0.50000000  0.10642200  0.68887500  1
  O  O34  1  0.50000000  0.38446500  0.74904500  1
  O  O35  1  0.50000000  0.61849700  0.82756600  1
  O  O36  1  0.29625200  0.59083900  0.11571000  1
  O  O37  1  0.29625200  0.40916100  0.88429000  1
  O  O38  1  0.30190300  0.65979000  0.40917100  1
  O  O39  1  0.30190300  0.34021000  0.59082900  1
  O  O40  1  0.28600300  0.89221100  0.18457800  1
  O  O41  1  0.28600300  0.10778900  0.81542200  1
  O  O42  1  0.21399700  0.60778900  0.68457800  1
  O  O43  1  0.21399700  0.39221100  0.31542200  1
  O  O44  1  0.19809700  0.15979000  0.09082900  1
  O  O45  1  0.19809700  0.84021000  0.90917100  1
  O  O46  1  0.20374800  0.09083900  0.38429000  1
  O  O47  1  0.20374800  0.90916100  0.61571000  1
loop_
_geom_bond_atom_site_label_1
_geom_bond_atom_site_label_2
_geom_bond_distance
_geom_bond_site_symmetry_2
Ni0 O23 1.939360 1_455
Ni0 O36 1.939360 1_555
Ni0 O0 1.985405 1_555
Ni0 O11 2.054199 1_554
Ni0 O2 2.073572 1_555
Ni1 O3 1.959324 1_555
Ni1 O40 2.112534 1_555
Ni1 O18 2.112534 1_455
Ni1 O1 2.122694 1_565
Ni1 O14 2.186904 1_465
Ni1 O44 2.186904 1_565
Ni2 O8 1.959324 1_555
Ni2 O19 2.112534 1_455
Ni2 O41 2.112534 1_555
Ni2 O10 2.122694 1_545
Ni2 O15 2.186904 1_445
Ni2 O45 2.186904 1_545
Ni3 O22 1.939360 1_455
Ni3 O37 1.939360 1_555
Ni3 O11 1.985405 1_555
Ni3 O0 2.054199 1_556
Ni3 O9 2.073572 1_555
Ni4 O6 2.032958 1_655
Ni4 O4 2.037410 1_655
Ni4 O21 2.062961 1_555
Ni4 O32 2.071264 1_555
Ni4 O31 2.150803 1_555
Ni4 O18 2.277401 1_555
Ni5 O5 2.032958 1_655
Ni5 O7 2.037410 1_655
Ni5 O20 2.062961 1_555
Ni5 O33 2.071264 1_555
Ni5 O34 2.150803 1_555
Ni5 O19 2.277401 1_555
Ni6 O24 2.032958 1_555
Ni6 O27 2.037410 1_555
Ni6 O14 2.062961 1_555
Ni6 O2 2.071264 1_655
Ni6 O1 2.150803 1_655
Ni6 O16 2.277401 1_555
Ni7 O35 2.032958 1_555
Ni7 O30 2.037410 1_555
Ni7 O15 2.062961 1_555
Ni7 O9 2.071264 1_655
Ni7 O10 2.150803 1_655
Ni7 O17 2.277401 1_555
Ni8 O47 1.939360 1_555
Ni8 O13 1.939360 1_555
Ni8 O26 1.985405 1_565
Ni8 O28 2.054199 1_555
Ni8 O33 2.073572 1_565
Ni9 O46 1.939360 1_555
Ni9 O12 1.939360 1_555
Ni9 O28 1.985405 1_545
Ni9 O26 2.054199 1_555
Ni9 O32 2.073572 1_545
Ni10 O25 1.959324 1_555
Ni10 O16 2.112534 1_555
Ni10 O43 2.112534 1_555
Ni10 O31 2.122694 1_555
Ni10 O21 2.186904 1_555
Ni10 O38 2.186904 1_555
Ni11 O29 1.959324 1_555
Ni11 O42 2.112534 1_555
Ni11 O17 2.112534 1_555
Ni11 O34 2.122694 1_555
Ni11 O20 2.186904 1_555
Ni11 O39 2.186904 1_555
Ni12 O35 2.032958 1_555
Ni12 O30 2.037410 1_555
Ni12 O45 2.062961 1_555
Ni12 O9 2.071264 1_555
Ni12 O10 2.150803 1_555
Ni12 O42 2.277401 1_555
Ni13 O24 2.032958 1_555
Ni13 O27 2.037410 1_555
Ni13 O44 2.062961 1_555
Ni13 O2 2.071264 1_555
Ni13 O1 2.150803 1_555
Ni13 O43 2.277401 1_555
Ni14 O6 2.032958 1_555
Ni14 O4 2.037410 1_555
Ni14 O38 2.062961 1_555
Ni14 O32 2.071264 1_555
Ni14 O31 2.150803 1_555
Ni14 O40 2.277401 1_555
Ni15 O5 2.032958 1_555
Ni15 O7 2.037410 1_555
Ni15 O39 2.062961 1_555
Ni15 O33 2.071264 1_555
Ni15 O34 2.150803 1_555
Ni15 O41 2.277401 1_555
O0 P0 1.551277 1_555
O1 P1 1.622721 1_555
O2 P2 1.619044 1_555
O3 P5 1.506203 1_554
O4 P2 1.547710 1_555
O5 P4 1.560654 1_545
O6 P1 1.560654 1_565
O7 P3 1.547710 1_555
O8 P0 1.506203 1_556
O9 P3 1.619044 1_555
O10 P4 1.622721 1_555
O11 P5 1.551277 1_555
O12 P1 1.520525 1_655
O13 P4 1.520525 1_655
O14 P0 1.575004 1_655
O15 P5 1.575004 1_655
O16 P2 1.540716 1_655
O17 P3 1.540716 1_655
O18 P6 1.540716 1_555
O19 P10 1.540716 1_555
O20 P7 1.575004 1_555
O21 P9 1.575004 1_555
O22 P11 1.520525 1_555
O23 P8 1.520525 1_555
O24 P8 1.560654 1_555
O25 P7 1.506203 1_555
O26 P7 1.551277 1_555
O27 P6 1.547710 1_545
O28 P9 1.551277 1_555
O29 P9 1.506203 1_555
O30 P10 1.547710 1_565
O31 P8 1.622721 1_555
O32 P6 1.619044 1_555
O33 P10 1.619044 1_555
O34 P11 1.622721 1_555
O35 P11 1.560654 1_555
O36 P8 1.520525 1_555
O37 P11 1.520525 1_555
O38 P9 1.575004 1_555
O39 P7 1.575004 1_555
O40 P6 1.540716 1_555
O41 P10 1.540716 1_555
O42 P3 1.540716 1_555
O43 P2 1.540716 1_555
O44 P0 1.575004 1_555
O45 P5 1.575004 1_555
O46 P1 1.520525 1_555
O47 P4 1.520525 1_555
