# generated using pymatgen
data_Li2MnV3O8
_symmetry_space_group_name_H-M   'P 1'
_cell_length_a   5.93104196
_cell_length_b   5.93104196
_cell_length_c   9.92888200
_cell_angle_alpha   90.00000000
_cell_angle_beta   90.00000000
_cell_angle_gamma   119.99999959
_symmetry_Int_Tables_number   1
_chemical_formula_structural   Li2MnV3O8
_chemical_formula_sum   'Li4 Mn2 V6 O16'
_cell_volume   302.47743134
_cell_formula_units_Z   2
loop_
 _symmetry_equiv_pos_site_id
 _symmetry_equiv_pos_as_xyz
  1  'x, y, z'
loop_
 _atom_site_type_symbol
 _atom_site_label
 _atom_site_symmetry_multiplicity
 _atom_site_fract_x
 _atom_site_fract_y
 _atom_site_fract_z
 _atom_site_occupancy
  Li  Li0  1  0.33333300  0.66666700  0.89413000  1
  Li  Li1  1  0.00000000  0.00000000  0.99689000  1
  Li  Li2  1  0.00000000  0.00000000  0.49689000  1
  Li  Li3  1  0.66666700  0.33333300  0.39413000  1
  Mn  Mn0  1  0.33333300  0.66666700  0.49741200  1
  Mn  Mn1  1  0.66666700  0.33333300  0.99741200  1
  V  V0  1  0.15816800  0.82022500  0.21445000  1
  V  V1  1  0.17977500  0.33794400  0.21445000  1
  V  V2  1  0.66205600  0.84183200  0.21445000  1
  V  V3  1  0.33794400  0.17977500  0.71445000  1
  V  V4  1  0.84183200  0.66205600  0.71445000  1
  V  V5  1  0.82022500  0.15816800  0.71445000  1
  O  O0  1  0.16919200  0.85832600  0.60925900  1
  O  O1  1  0.03360900  0.53266800  0.32579200  1
  O  O2  1  0.33333300  0.66666700  0.10310700  1
  O  O3  1  0.00000000  0.00000000  0.31383900  1
  O  O4  1  0.00000000  0.00000000  0.81383900  1
  O  O5  1  0.14167400  0.31086600  0.60925900  1
  O  O6  1  0.49905900  0.96639100  0.32579200  1
  O  O7  1  0.46733200  0.50094100  0.32579200  1
  O  O8  1  0.31086600  0.14167400  0.10925900  1
  O  O9  1  0.68913400  0.83080800  0.60925900  1
  O  O10  1  0.50094100  0.46733200  0.82579200  1
  O  O11  1  0.53266800  0.03360900  0.82579200  1
  O  O12  1  0.66666700  0.33333300  0.60310700  1
  O  O13  1  0.83080800  0.68913400  0.10925900  1
  O  O14  1  0.96639100  0.49905900  0.82579200  1
  O  O15  1  0.85832600  0.16919200  0.10925900  1
loop_
_geom_bond_atom_site_label_1
_geom_bond_atom_site_label_2
_geom_bond_distance
_geom_bond_site_symmetry_2
Li0 O14 2.005395 1_455
Li0 O11 2.005396 1_565
Li0 O10 2.005400 1_555
Li0 O2 2.074908 1_556
Li1 O4 1.817492 1_555
Li1 O15 1.949623 1_456
Li1 O8 1.949623 1_556
Li1 O13 1.949623 1_446
Li2 O3 1.817492 1_555
Li2 O0 1.949623 1_545
Li2 O5 1.949623 1_555
Li2 O9 1.949623 1_445
Li3 O6 2.005395 1_545
Li3 O1 2.005396 1_655
Li3 O7 2.005400 1_555
Li3 O12 2.074908 1_555
Mn0 O0 2.140051 1_555
Mn0 O5 2.140055 1_555
Mn0 O9 2.140055 1_555
Mn0 O1 2.298379 1_555
Mn0 O6 2.298380 1_555
Mn0 O7 2.298383 1_555
Mn1 O15 2.140051 1_556
Mn1 O8 2.140055 1_556
Mn1 O13 2.140055 1_556
Mn1 O11 2.298379 1_555
Mn1 O14 2.298380 1_555
Mn1 O10 2.298383 1_555
O0 V3 1.954286 1_565
O0 V4 1.988847 1_455
O1 V0 1.848434 1_555
O1 V1 2.075747 1_555
O2 V0 2.019201 1_555
O2 V1 2.019201 1_555
O2 V2 2.019201 1_555
O3 V0 1.997749 1_545
O3 V1 1.997753 1_555
O3 V2 1.997753 1_445
O4 V5 1.997749 1_455
O4 V3 1.997753 1_555
O4 V4 1.997753 1_445
O5 V5 1.954286 1_455
O5 V3 1.988851 1_555
O6 V2 1.848430 1_555
O6 V0 2.075752 1_555
O7 V1 1.848434 1_555
O7 V2 2.075751 1_555
O8 V0 1.954286 1_545
O8 V1 1.988851 1_555
O9 V4 1.954290 1_555
O9 V5 1.988846 1_565
O10 V3 1.848434 1_555
O10 V4 2.075751 1_555
O11 V5 1.848434 1_555
O11 V3 2.075747 1_555
O12 V5 2.019201 1_555
O12 V3 2.019201 1_555
O12 V4 2.019201 1_555
O13 V2 1.954290 1_555
O13 V0 1.988846 1_655
O14 V4 1.848430 1_555
O14 V5 2.075752 1_555
O15 V1 1.954286 1_655
O15 V2 1.988847 1_545
