# generated using pymatgen
data_Li2BiO3
_symmetry_space_group_name_H-M   'P 1'
_cell_length_a   5.34126898
_cell_length_b   5.34126898
_cell_length_c   3.42873088
_cell_angle_alpha   90.00000000
_cell_angle_beta   90.00000000
_cell_angle_gamma   131.50345439
_symmetry_Int_Tables_number   1
_chemical_formula_structural   Li2BiO3
_chemical_formula_sum   'Li2 Bi1 O3'
_cell_volume   73.25803621
_cell_formula_units_Z   1
loop_
 _symmetry_equiv_pos_site_id
 _symmetry_equiv_pos_as_xyz
  1  'x, y, z'
loop_
 _atom_site_type_symbol
 _atom_site_label
 _atom_site_symmetry_multiplicity
 _atom_site_fract_x
 _atom_site_fract_y
 _atom_site_fract_z
 _atom_site_occupancy
  Li  Li0  1  0.65626231  0.34373769  0.50000000  1
  Li  Li1  1  0.34373769  0.65626231  0.50000000  1
  Bi  Bi0  1  -0.00000000  -0.00000000  -0.00000000  1
  O  O0  1  0.14783368  0.85216632  0.50000000  1
  O  O1  1  0.85216632  0.14783368  0.50000000  1
  O  O2  1  0.50000000  0.50000000  0.00000000  1
loop_
_geom_bond_atom_site_label_1
_geom_bond_atom_site_label_2
_geom_bond_distance
_geom_bond_site_symmetry_2
Li0 O1 1.908118 1_555
Li0 O0 2.195149 1_545
Li0 O0 2.195149 1_655
Li0 O2 2.292498 1_555
Li0 O2 2.292498 1_556
Li1 O0 1.908118 1_555
Li1 O1 2.195149 1_565
Li1 O1 2.195149 1_455
Li1 O2 2.292498 1_555
Li1 O2 2.292498 1_556
Bi0 O2 2.193613 1_555
Bi0 O2 2.193613 1_445
Bi0 O1 2.238836 1_455
Bi0 O0 2.238836 1_544
Bi0 O0 2.238836 1_545
Bi0 O1 2.238836 1_454
