# generated using pymatgen
data_Li3V2(PO4)3
_symmetry_space_group_name_H-M   'P 1'
_cell_length_a   8.79102100
_cell_length_b   8.56103800
_cell_length_c   14.72268572
_cell_angle_alpha   55.08492776
_cell_angle_beta   90.00000000
_cell_angle_gamma   90.00000000
_symmetry_Int_Tables_number   1
_chemical_formula_structural   Li3V2(PO4)3
_chemical_formula_sum   'Li12 V8 P12 O48'
_cell_volume   908.58872903
_cell_formula_units_Z   4
loop_
 _symmetry_equiv_pos_site_id
 _symmetry_equiv_pos_as_xyz
  1  'x, y, z'
loop_
 _atom_site_type_symbol
 _atom_site_label
 _atom_site_symmetry_multiplicity
 _atom_site_fract_x
 _atom_site_fract_y
 _atom_site_fract_z
 _atom_site_occupancy
  Li  Li0  1  0.91302200  0.38884800  0.69057000  1
  Li  Li1  1  0.48789500  0.71949300  0.34641300  1
  Li  Li2  1  0.22040400  0.00190100  0.17796700  1
  Li  Li3  1  0.72040400  0.99809900  0.32203300  1
  Li  Li4  1  0.41302200  0.61115200  0.80943000  1
  Li  Li5  1  0.98789500  0.28050700  0.15358700  1
  Li  Li6  1  0.01210500  0.71949300  0.84641300  1
  Li  Li7  1  0.58697800  0.38884800  0.19057000  1
  Li  Li8  1  0.27959600  0.00190100  0.67796700  1
  Li  Li9  1  0.77959600  0.99809900  0.82203300  1
  Li  Li10  1  0.51210500  0.28050700  0.65358700  1
  Li  Li11  1  0.08697800  0.61115200  0.30943000  1
  V  V0  1  0.97196900  0.35018100  0.89477200  1
  V  V1  1  0.47196900  0.64981900  0.60522800  1
  V  V2  1  0.03416600  0.86434300  0.39138200  1
  V  V3  1  0.53416600  0.13565700  0.10861800  1
  V  V4  1  0.46583400  0.86434300  0.89138200  1
  V  V5  1  0.96583400  0.13565700  0.60861800  1
  V  V6  1  0.52803100  0.35018100  0.39477200  1
  V  V7  1  0.02803100  0.64981900  0.10522800  1
  P  P0  1  0.75119800  0.54826300  0.49074900  1
  P  P1  1  0.61742400  0.26548300  0.84812900  1
  P  P2  1  0.88934800  0.96749600  0.14690600  1
  P  P3  1  0.11742400  0.73451700  0.65187100  1
  P  P4  1  0.38934800  0.03250400  0.35309400  1
  P  P5  1  0.25119800  0.45173700  0.00925100  1
  P  P6  1  0.74880200  0.54826300  0.99074900  1
  P  P7  1  0.61065200  0.96749600  0.64690600  1
  P  P8  1  0.88257600  0.26548300  0.34812900  1
  P  P9  1  0.11065200  0.03250400  0.85309400  1
  P  P10  1  0.38257600  0.73451700  0.15187100  1
  P  P11  1  0.24880200  0.45173700  0.50925100  1
  O  O0  1  0.12798700  0.60653200  0.44490800  1
  O  O1  1  0.11008100  0.15501700  0.89781800  1
  O  O2  1  0.33369200  0.45568600  0.60018300  1
  O  O3  1  0.42168600  0.86925100  0.18903400  1
  O  O4  1  0.63954800  0.51541200  0.58215500  1
  O  O5  1  0.79392300  0.29145000  0.83096400  1
  O  O6  1  0.57930300  0.16767400  0.97020000  1
  O  O7  1  0.00616300  0.88248600  0.24545400  1
  O  O8  1  0.73092200  0.98431700  0.18701200  1
  O  O9  1  0.82288900  0.75071900  0.43358700  1
  O  O10  1  0.52897700  0.45491700  0.77543200  1
  O  O11  1  0.02897700  0.54508300  0.72456800  1
  O  O12  1  0.94970200  0.17462000  0.06125900  1
  O  O13  1  0.44970200  0.82538000  0.43874100  1
  O  O14  1  0.32288900  0.24928100  0.06641300  1
  O  O15  1  0.23092200  0.01568300  0.31298800  1
  O  O16  1  0.07930300  0.83232600  0.52980000  1
  O  O17  1  0.50616300  0.11751400  0.25454600  1
  O  O18  1  0.29392300  0.70855000  0.66903600  1
  O  O19  1  0.13954800  0.48458800  0.91784500  1
  O  O20  1  0.83369200  0.54431400  0.89981700  1
  O  O21  1  0.61008100  0.84498300  0.60218200  1
  O  O22  1  0.92168600  0.13074900  0.31096600  1
  O  O23  1  0.62798700  0.39346800  0.05509200  1
  O  O24  1  0.37201300  0.60653200  0.94490800  1
  O  O25  1  0.07831400  0.86925100  0.68903400  1
  O  O26  1  0.38991900  0.15501700  0.39781700  1
  O  O27  1  0.16630800  0.45568600  0.10018300  1
  O  O28  1  0.86045200  0.51541200  0.08215500  1
  O  O29  1  0.70607700  0.29145000  0.33096400  1
  O  O30  1  0.49383700  0.88248600  0.74545400  1
  O  O31  1  0.92069700  0.16767400  0.47020000  1
  O  O32  1  0.76907800  0.98431700  0.68701200  1
  O  O33  1  0.67711100  0.75071900  0.93358700  1
  O  O34  1  0.55029800  0.17462000  0.56125900  1
  O  O35  1  0.05029800  0.82538000  0.93874100  1
  O  O36  1  0.97102300  0.45491700  0.27543200  1
  O  O37  1  0.47102300  0.54508300  0.22456800  1
  O  O38  1  0.17711100  0.24928100  0.56641300  1
  O  O39  1  0.26907800  0.01568300  0.81298800  1
  O  O40  1  0.99383700  0.11751400  0.75454600  1
  O  O41  1  0.42069700  0.83232600  0.02980000  1
  O  O42  1  0.20607700  0.70855000  0.16903600  1
  O  O43  1  0.36045200  0.48458800  0.41784500  1
  O  O44  1  0.57831400  0.13074900  0.81096600  1
  O  O45  1  0.66630800  0.54431400  0.39981700  1
  O  O46  1  0.88991900  0.84498300  0.10218200  1
  O  O47  1  0.87201300  0.39346800  0.55509200  1
loop_
_geom_bond_atom_site_label_1
_geom_bond_atom_site_label_2
_geom_bond_distance
_geom_bond_site_symmetry_2
Li0 O11 1.960873 1_655
Li0 O47 2.004907 1_555
Li0 O5 2.022607 1_555
Li0 O40 2.069588 1_555
Li1 O3 1.987620 1_555
Li1 O45 1.994370 1_555
Li1 O43 1.996103 1_555
Li1 O13 2.047626 1_555
Li2 O14 2.003159 1_555
Li2 O3 2.058012 1_545
Li2 O15 2.059756 1_555
Li2 O7 2.101611 1_545
Li3 O9 2.003159 1_555
Li3 O22 2.058012 1_565
Li3 O8 2.059756 1_555
Li3 O17 2.101611 1_565
Li4 O10 1.960873 1_555
Li4 O24 2.004907 1_555
Li4 O18 2.022607 1_555
Li4 O30 2.069588 1_555
Li5 O22 1.987620 1_555
Li5 O27 1.994370 1_655
Li5 O28 1.996103 1_555
Li5 O12 2.047626 1_555
Li6 O25 1.987620 1_555
Li6 O20 1.994370 1_455
Li6 O19 1.996103 1_555
Li6 O35 2.047626 1_555
Li7 O37 1.960873 1_555
Li7 O23 2.004907 1_555
Li7 O29 2.022607 1_555
Li7 O17 2.069588 1_555
Li8 O38 2.003159 1_555
Li8 O25 2.058012 1_545
Li8 O39 2.059756 1_555
Li8 O30 2.101611 1_545
Li9 O33 2.003159 1_555
Li9 O44 2.058012 1_565
Li9 O32 2.059756 1_555
Li9 O40 2.101611 1_565
Li10 O44 1.987620 1_555
Li10 O2 1.994370 1_555
Li10 O4 1.996103 1_555
Li10 O34 2.047626 1_555
Li11 O36 1.960873 1_455
Li11 O0 2.004907 1_555
Li11 O42 2.022607 1_555
Li11 O7 2.069588 1_555
O0 P11 1.531186 1_555
O0 V2 2.044912 1_555
O1 P9 1.524538 1_555
O1 V0 2.044990 1_455
O2 P11 1.549890 1_555
O2 V1 2.094440 1_555
O3 P10 1.571779 1_555
O3 V3 2.118986 1_565
O4 P0 1.555713 1_555
O4 V1 2.014238 1_555
O5 P1 1.567309 1_555
O5 V0 2.031230 1_555
O6 P1 1.523400 1_555
O6 V3 1.935493 1_556
O7 P2 1.574984 1_455
O7 V2 2.078118 1_555
O8 P2 1.551262 1_555
O8 V3 2.071421 1_565
O9 P0 1.561986 1_555
O9 V2 2.022407 1_655
O10 P1 1.547004 1_555
O10 V1 2.127980 1_555
O11 P3 1.547004 1_555
O11 V0 2.127980 1_455
O12 P2 1.567236 1_545
O12 V0 2.021921 1_554
O13 P4 1.567236 1_565
O13 V1 2.021921 1_555
O14 P5 1.561986 1_555
O14 V3 2.022407 1_555
O15 P4 1.551262 1_555
O15 V2 2.071421 1_545
O16 P3 1.523400 1_555
O16 V2 1.935493 1_555
O17 P4 1.574984 1_555
O17 V3 2.078118 1_555
O18 P3 1.567309 1_555
O18 V1 2.031230 1_555
O19 P5 1.555713 1_556
O19 V0 2.014238 1_455
O20 P6 1.549890 1_555
O20 V0 2.094440 1_555
O21 P7 1.524538 1_555
O21 V1 2.044990 1_555
O22 P8 1.571779 1_555
O22 V2 2.118986 1_645
O23 P6 1.531186 1_554
O23 V3 2.044912 1_555
O24 P5 1.531186 1_556
O24 V4 2.044912 1_555
O25 P3 1.571779 1_555
O25 V5 2.118986 1_465
O26 P4 1.524526 1_555
O26 V6 2.044996 1_555
O27 P5 1.549890 1_555
O27 V7 2.094440 1_555
O28 P6 1.555713 1_554
O28 V7 2.014238 1_655
O29 P8 1.567309 1_555
O29 V6 2.031230 1_555
O30 P7 1.574984 1_555
O30 V4 2.078118 1_555
O31 P8 1.523400 1_555
O31 V5 1.935493 1_555
O32 P7 1.551262 1_555
O32 V5 2.071421 1_565
O33 P6 1.561986 1_555
O33 V4 2.022407 1_555
O34 P7 1.567236 1_545
O34 V6 2.021921 1_555
O35 P9 1.567236 1_565
O35 V7 2.021921 1_556
O36 P8 1.547004 1_555
O36 V7 2.127980 1_655
O37 P10 1.547004 1_555
O37 V6 2.127980 1_555
O38 P11 1.561986 1_555
O38 V5 2.022407 1_455
O39 P9 1.551262 1_555
O39 V4 2.071421 1_545
O40 P9 1.574984 1_655
O40 V5 2.078118 1_555
O41 P10 1.523400 1_555
O41 V4 1.935493 1_554
O42 P10 1.567309 1_555
O42 V7 2.031230 1_555
O43 P11 1.555713 1_555
O43 V6 2.014238 1_555
O44 P1 1.571779 1_555
O44 V4 2.118986 1_545
O45 P0 1.549890 1_555
O45 V6 2.094440 1_555
O46 P2 1.524538 1_555
O46 V7 2.044990 1_655
O47 P0 1.531186 1_555
O47 V5 2.044912 1_555
