# generated using pymatgen
data_Li3Mn2Fe(BO3)3
_symmetry_space_group_name_H-M   'P 1'
_cell_length_a   3.17449400
_cell_length_b   8.26180900
_cell_length_c   14.29065134
_cell_angle_alpha   89.95532415
_cell_angle_beta   90.00000000
_cell_angle_gamma   90.00000000
_symmetry_Int_Tables_number   1
_chemical_formula_structural   Li3Mn2Fe(BO3)3
_chemical_formula_sum   'Li6 Mn4 Fe2 B6 O18'
_cell_volume   374.80170060
_cell_formula_units_Z   2
loop_
 _symmetry_equiv_pos_site_id
 _symmetry_equiv_pos_as_xyz
  1  'x, y, z'
loop_
 _atom_site_type_symbol
 _atom_site_label
 _atom_site_symmetry_multiplicity
 _atom_site_fract_x
 _atom_site_fract_y
 _atom_site_fract_z
 _atom_site_occupancy
  Li  Li0  1  0.50000000  0.70726100  0.99042700  1
  Li  Li1  1  0.50000000  0.65891400  0.35789500  1
  Li  Li2  1  0.50000000  0.63332600  0.65109900  1
  Li  Li3  1  0.50000000  0.20724700  0.49166800  1
  Li  Li4  1  0.50000000  0.15984500  0.85779200  1
  Li  Li5  1  0.50000000  0.13430400  0.15005900  1
  Mn  Mn0  1  0.00000000  0.86482600  0.50620700  1
  Mn  Mn1  1  0.00000000  0.80729700  0.18009700  1
  Mn  Mn2  1  0.00000000  0.32665800  0.31435100  1
  Mn  Mn3  1  0.00000000  0.30855700  0.67971800  1
  Fe  Fe0  1  0.00000000  0.82428500  0.81658600  1
  Fe  Fe1  1  0.00000000  0.36343300  0.00379800  1
  B  B0  1  0.50000000  0.99833100  0.66804400  1
  B  B1  1  0.00000000  0.00178400  0.99981100  1
  B  B2  1  0.50000000  0.00012400  0.33332200  1
  B  B3  1  0.50000000  0.49921300  0.16493300  1
  B  B4  1  0.00000000  0.49999000  0.50001500  1
  B  B5  1  0.50000000  0.50101000  0.83435300  1
  O  O0  1  0.50000000  0.99001800  0.43022100  1
  O  O1  1  0.50000000  0.98237500  0.76495800  1
  O  O2  1  0.50000000  0.86087000  0.61160700  1
  O  O3  1  0.50000000  0.85969400  0.27986500  1
  O  O4  1  0.00000000  0.84896500  0.95804800  1
  O  O5  1  0.50000000  0.65284600  0.12426700  1
  O  O6  1  0.50000000  0.65279900  0.79193600  1
  O  O7  1  0.00000000  0.63563100  0.44191100  1
  O  O8  1  0.00000000  0.51907100  0.59694600  1
  O  O9  1  0.50000000  0.48828900  0.93142200  1
  O  O10  1  0.50000000  0.48542900  0.26223000  1
  O  O11  1  0.50000000  0.36210700  0.10871900  1
  O  O12  1  0.50000000  0.36200200  0.77989200  1
  O  O13  1  0.00000000  0.34517500  0.46118000  1
  O  O14  1  0.50000000  0.15116800  0.62648800  1
  O  O15  1  0.50000000  0.15033200  0.28969300  1
  O  O16  1  0.00000000  0.14024700  0.94387200  1
  O  O17  1  0.00000000  0.01657500  0.09657400  1
loop_
_geom_bond_atom_site_label_1
_geom_bond_atom_site_label_2
_geom_bond_distance
_geom_bond_site_symmetry_2
Li0 O5 1.964444 1_556
Li0 O9 1.996562 1_555
Li0 O4 2.025642 1_555
Li0 O4 2.025642 1_655
Li1 O10 1.981517 1_555
Li1 O3 1.998049 1_555
Li1 O7 1.999385 1_655
Li1 O7 1.999385 1_555
Li2 O2 1.962390 1_555
Li2 O8 2.002606 1_555
Li2 O8 2.002606 1_655
Li2 O6 2.019197 1_555
Li3 O14 1.981239 1_555
Li3 O0 1.998628 1_545
Li3 O13 2.001736 1_555
Li3 O13 2.001736 1_655
Li4 O1 1.978097 1_545
Li4 O12 2.006469 1_555
Li4 O16 2.014572 1_555
Li4 O16 2.014572 1_655
Li5 O11 1.972169 1_555
Li5 O15 1.999953 1_555
Li5 O17 2.012654 1_555
Li5 O17 2.012654 1_655
Mn0 O7 2.105363 1_555
Mn0 O0 2.183245 1_555
Mn0 O0 2.183245 1_455
Mn0 O2 2.188398 1_555
Mn0 O2 2.188398 1_455
Mn1 O17 2.100226 1_565
Mn1 O3 2.177263 1_455
Mn1 O3 2.177263 1_555
Mn1 O5 2.187645 1_455
Mn1 O5 2.187645 1_555
Mn2 O13 2.103971 1_555
Mn2 O15 2.183233 1_555
Mn2 O15 2.183233 1_455
Mn2 O10 2.189354 1_555
Mn2 O10 2.189354 1_455
Mn3 O8 2.102587 1_555
Mn3 O12 2.182807 1_455
Mn3 O12 2.182807 1_555
Mn3 O14 2.188692 1_555
Mn3 O14 2.188692 1_455
Fe0 O4 2.031999 1_555
Fe0 O6 2.156734 1_555
Fe0 O6 2.156734 1_455
Fe0 O1 2.183602 1_455
Fe0 O1 2.183602 1_555
Fe1 O16 2.033690 1_554
Fe1 O9 2.156741 1_454
Fe1 O9 2.156741 1_554
Fe1 O11 2.183487 1_455
Fe1 O11 2.183487 1_555
B0 O1 1.391121 1_555
B0 O2 1.393437 1_555
B0 O14 1.394969 1_565
B1 O17 1.388290 1_556
B1 O16 1.395082 1_555
B1 O4 1.396936 1_545
B2 O0 1.387200 1_545
B2 O15 1.388375 1_555
B2 O3 1.389625 1_545
B3 O11 1.389199 1_555
B3 O10 1.395005 1_555
B3 O5 1.395588 1_555
B4 O7 1.394222 1_555
B4 O8 1.394271 1_555
B4 O13 1.394662 1_555
B5 O12 1.387830 1_555
B5 O9 1.391073 1_555
B5 O6 1.392443 1_555
