# generated using pymatgen
data_Li2V2(PO4)3
_symmetry_space_group_name_H-M   'P 1'
_cell_length_a   8.30297800
_cell_length_b   8.45287231
_cell_length_c   8.94587988
_cell_angle_alpha   91.19065546
_cell_angle_beta   117.26622484
_cell_angle_gamma   119.21355551
_symmetry_Int_Tables_number   1
_chemical_formula_structural   Li2V2(PO4)3
_chemical_formula_sum   'Li4 V4 P6 O24'
_cell_volume   462.31318502
_cell_formula_units_Z   2
loop_
 _symmetry_equiv_pos_site_id
 _symmetry_equiv_pos_as_xyz
  1  'x, y, z'
loop_
 _atom_site_type_symbol
 _atom_site_label
 _atom_site_symmetry_multiplicity
 _atom_site_fract_x
 _atom_site_fract_y
 _atom_site_fract_z
 _atom_site_occupancy
  Li  Li0  1  0.05808800  0.73185700  0.14314000  1
  Li  Li1  1  0.81263300  0.07462600  0.13967400  1
  Li  Li2  1  0.18736700  0.92537400  0.86032600  1
  Li  Li3  1  0.94191200  0.26814300  0.85686000  1
  V  V0  1  0.69931500  0.35309900  0.05577600  1
  V  V1  1  0.29162800  0.15287700  0.43588500  1
  V  V2  1  0.70837200  0.84712300  0.56411500  1
  V  V3  1  0.30068500  0.64690100  0.94422400  1
  P  P0  1  0.78867000  0.75264700  0.25258700  1
  P  P1  1  0.49924700  0.03429400  0.25306000  1
  P  P2  1  0.21311300  0.45908400  0.24376100  1
  P  P3  1  0.78688700  0.54091600  0.75623900  1
  P  P4  1  0.50075300  0.96570600  0.74694000  1
  P  P5  1  0.21133000  0.24735300  0.74741300  1
  O  O0  1  0.71584100  0.54538600  0.20603200  1
  O  O1  1  0.00990900  0.88900600  0.26869000  1
  O  O2  1  0.81710600  0.81027000  0.43405900  1
  O  O3  1  0.29991300  0.84777400  0.09144800  1
  O  O4  1  0.39020300  0.12379300  0.28960600  1
  O  O5  1  0.66002000  0.16690900  0.20239100  1
  O  O6  1  0.03142900  0.49343000  0.20423200  1
  O  O7  1  0.23622500  0.45698700  0.08192400  1
  O  O8  1  0.62624300  0.79458700  0.11376700  1
  O  O9  1  0.57285200  0.38790400  0.58736300  1
  O  O10  1  0.86206300  0.74295100  0.73370900  1
  O  O11  1  0.38242500  0.00909500  0.58157900  1
  O  O12  1  0.61757500  0.99090500  0.41842100  1
  O  O13  1  0.13793700  0.25704900  0.26629100  1
  O  O14  1  0.42714800  0.61209600  0.41263700  1
  O  O15  1  0.37375700  0.20541300  0.88623300  1
  O  O16  1  0.76377500  0.54301300  0.91807600  1
  O  O17  1  0.96857100  0.50657000  0.79576800  1
  O  O18  1  0.33998000  0.83309100  0.79760900  1
  O  O19  1  0.60979700  0.87620700  0.71039400  1
  O  O20  1  0.70008700  0.15222600  0.90855200  1
  O  O21  1  0.18289400  0.18973000  0.56594100  1
  O  O22  1  0.99009100  0.11099400  0.73131000  1
  O  O23  1  0.28415900  0.45461400  0.79396800  1
loop_
_geom_bond_atom_site_label_1
_geom_bond_atom_site_label_2
_geom_bond_distance
_geom_bond_site_symmetry_2
Li0 O1 2.013555 1_555
Li0 O16 2.030794 1_454
Li0 O6 2.032400 1_555
Li0 O3 2.038283 1_555
Li1 O13 2.003704 1_655
Li1 O8 2.030941 1_545
Li1 O5 2.031499 1_555
Li1 O20 2.112539 1_554
Li2 O10 2.003704 1_455
Li2 O15 2.030941 1_565
Li2 O18 2.031499 1_555
Li2 O3 2.112539 1_556
Li3 O22 2.013555 1_555
Li3 O7 2.030794 1_656
Li3 O17 2.032400 1_555
Li3 O20 2.038283 1_555
O0 P0 1.520939 1_555
O0 V0 1.997495 1_555
O1 P0 1.551620 1_455
O1 V1 2.060706 1_565
O2 P0 1.559548 1_555
O2 V2 1.867528 1_555
O3 P1 1.575094 1_565
O3 V3 2.131461 1_554
O4 P1 1.558359 1_555
O4 V1 1.899244 1_555
O5 P1 1.535854 1_555
O5 V0 2.068904 1_555
O6 P2 1.558192 1_555
O6 V0 2.039843 1_455
O7 P2 1.545963 1_555
O7 V3 2.056340 1_554
O8 P0 1.561137 1_555
O8 V3 2.009107 1_554
O9 P3 1.525971 1_555
O9 V1 1.922537 1_555
O10 P3 1.560697 1_555
O10 V2 2.020902 1_555
O11 P4 1.526671 1_545
O11 V1 1.950420 1_555
O12 P1 1.526671 1_565
O12 V2 1.950420 1_555
O13 P2 1.560697 1_555
O13 V1 2.020902 1_555
O14 P2 1.525971 1_555
O14 V2 1.922537 1_555
O15 P5 1.561137 1_555
O15 V0 2.009107 1_556
O16 P3 1.545963 1_555
O16 V0 2.056340 1_556
O17 P3 1.558192 1_555
O17 V3 2.039843 1_655
O18 P4 1.535854 1_555
O18 V3 2.068904 1_555
O19 P4 1.558359 1_555
O19 V2 1.899244 1_555
O20 P4 1.575094 1_545
O20 V0 2.131461 1_556
O21 P5 1.559548 1_555
O21 V1 1.867528 1_555
O22 P5 1.551620 1_655
O22 V2 2.060706 1_545
O23 P5 1.520939 1_555
O23 V3 1.997495 1_555
