# generated using pymatgen
data_Li2TiS2O
_symmetry_space_group_name_H-M   'P 1'
_cell_length_a   12.62791600
_cell_length_b   5.55007700
_cell_length_c   6.46800030
_cell_angle_alpha   65.74852966
_cell_angle_beta   90.00000000
_cell_angle_gamma   90.00000000
_symmetry_Int_Tables_number   1
_chemical_formula_structural   Li2TiS2O
_chemical_formula_sum   'Li8 Ti4 S8 O4'
_cell_volume   413.31123652
_cell_formula_units_Z   4
loop_
 _symmetry_equiv_pos_site_id
 _symmetry_equiv_pos_as_xyz
  1  'x, y, z'
loop_
 _atom_site_type_symbol
 _atom_site_label
 _atom_site_symmetry_multiplicity
 _atom_site_fract_x
 _atom_site_fract_y
 _atom_site_fract_z
 _atom_site_occupancy
  Li  Li0  1  0.44240200  0.15788500  0.20843500  1
  Li  Li1  1  0.86236500  0.05011700  0.40275000  1
  Li  Li2  1  0.05759800  0.65788500  0.20843500  1
  Li  Li3  1  0.63763500  0.55011700  0.40275000  1
  Li  Li4  1  0.36236500  0.44988300  0.59725000  1
  Li  Li5  1  0.94240200  0.34211500  0.79156500  1
  Li  Li6  1  0.13763500  0.94988300  0.59725000  1
  Li  Li7  1  0.55759800  0.84211500  0.79156500  1
  Ti  Ti0  1  0.68064000  0.14980600  0.01859000  1
  Ti  Ti1  1  0.81936000  0.64980600  0.01859000  1
  Ti  Ti2  1  0.18064000  0.35019400  0.98141000  1
  Ti  Ti3  1  0.31936000  0.85019400  0.98141000  1
  S  S0  1  0.04943700  0.12546100  0.20921700  1
  S  S1  1  0.64205100  0.05385300  0.38082100  1
  S  S2  1  0.45056300  0.62546100  0.20921700  1
  S  S3  1  0.85794900  0.55385300  0.38082100  1
  S  S4  1  0.14205100  0.44614700  0.61917900  1
  S  S5  1  0.54943700  0.37453900  0.79078300  1
  S  S6  1  0.35794900  0.94614700  0.61917900  1
  S  S7  1  0.95056300  0.87453900  0.79078300  1
  O  O0  1  0.30606200  0.15857500  0.03007700  1
  O  O1  1  0.19393800  0.65857500  0.03007700  1
  O  O2  1  0.80606200  0.34142500  0.96992300  1
  O  O3  1  0.69393800  0.84142500  0.96992300  1
loop_
_geom_bond_atom_site_label_1
_geom_bond_atom_site_label_2
_geom_bond_distance
_geom_bond_site_symmetry_2
Li0 O0 2.071579 1_555
Li0 S2 2.599208 1_555
Li0 S6 2.647953 1_545
Li0 S1 2.721016 1_555
Li0 S5 2.811015 1_554
Li0 S2 2.954718 1_545
Li1 S7 2.545586 1_545
Li1 S0 2.625336 1_655
Li1 O2 2.690467 1_554
Li1 S3 2.741135 1_555
Li1 S1 2.785363 1_555
Li1 S3 2.816085 1_545
Li2 O1 2.071579 1_555
Li2 S0 2.599208 1_565
Li2 S4 2.647953 1_555
Li2 S3 2.721016 1_455
Li2 S7 2.811015 1_454
Li2 S0 2.954718 1_555
Li3 S5 2.545586 1_555
Li3 S2 2.625336 1_555
Li3 O3 2.690467 1_554
Li3 S1 2.741135 1_565
Li3 S3 2.785363 1_555
Li3 S1 2.816085 1_555
Li4 S2 2.545586 1_555
Li4 S5 2.625336 1_555
Li4 O0 2.690467 1_556
Li4 S6 2.741135 1_545
Li4 S4 2.785363 1_555
Li4 S6 2.816085 1_555
Li5 O2 2.071579 1_555
Li5 S7 2.599208 1_545
Li5 S3 2.647953 1_555
Li5 S4 2.721016 1_655
Li5 S0 2.811015 1_656
Li5 S7 2.954718 1_555
Li6 S0 2.545586 1_565
Li6 S7 2.625336 1_455
Li6 O1 2.690467 1_556
Li6 S4 2.741135 1_555
Li6 S6 2.785363 1_555
Li6 S4 2.816085 1_565
Li7 O3 2.071579 1_555
Li7 S5 2.599208 1_555
Li7 S1 2.647953 1_565
Li7 S6 2.721016 1_555
Li7 S2 2.811015 1_556
Li7 S5 2.954718 1_565
S0 Ti2 2.227579 1_554
S1 Ti0 2.232783 1_555
S2 Ti3 2.227579 1_554
S3 Ti1 2.232783 1_555
S4 Ti2 2.232783 1_555
S5 Ti0 2.227579 1_556
S6 Ti3 2.232783 1_555
S7 Ti1 2.227579 1_556
O0 Ti2 1.861073 1_554
O0 Ti3 1.870622 1_544
O1 Ti3 1.861073 1_554
O1 Ti2 1.870622 1_554
O2 Ti0 1.861073 1_556
O2 Ti1 1.870622 1_556
O3 Ti1 1.861073 1_556
O3 Ti0 1.870622 1_566
