# generated using pymatgen
data_Mn3O2F5
_symmetry_space_group_name_H-M   'P 1'
_cell_length_a   8.44548393
_cell_length_b   8.44548393
_cell_length_c   8.44548393
_cell_angle_alpha   135.26127527
_cell_angle_beta   129.98590793
_cell_angle_gamma   69.33379139
_symmetry_Int_Tables_number   1
_chemical_formula_structural   Mn3O2F5
_chemical_formula_sum   'Mn6 O4 F10'
_cell_volume   318.83006858
_cell_formula_units_Z   2
loop_
 _symmetry_equiv_pos_site_id
 _symmetry_equiv_pos_as_xyz
  1  'x, y, z'
loop_
 _atom_site_type_symbol
 _atom_site_label
 _atom_site_symmetry_multiplicity
 _atom_site_fract_x
 _atom_site_fract_y
 _atom_site_fract_z
 _atom_site_occupancy
  Mn  Mn0  1  0.10882600  0.10882600  0.00000000  1
  Mn  Mn1  1  0.00000000  0.50000000  0.00000000  1
  Mn  Mn2  1  0.00000000  0.00000000  0.50000000  1
  Mn  Mn3  1  0.50000000  0.50000000  0.50000000  1
  Mn  Mn4  1  0.50000000  0.00000000  0.00000000  1
  Mn  Mn5  1  0.89117400  0.89117400  0.00000000  1
  O  O0  1  0.79865300  0.01995100  0.22129900  1
  O  O1  1  0.79865300  0.57735400  0.77870100  1
  O  O2  1  0.20134700  0.98004900  0.77870100  1
  O  O3  1  0.20134700  0.42264600  0.22129900  1
  F  F0  1  0.00000000  0.19171800  0.19171800  1
  F  F1  1  0.00000000  0.80828200  0.80828200  1
  F  F2  1  0.44414800  0.14639900  0.29774800  1
  F  F3  1  0.15134900  0.85360100  0.29774800  1
  F  F4  1  0.11066100  0.33067900  0.77998200  1
  F  F5  1  0.44930300  0.66932100  0.77998200  1
  F  F6  1  0.88933900  0.66932100  0.22001800  1
  F  F7  1  0.55069700  0.33067900  0.22001800  1
  F  F8  1  0.55585200  0.85360100  0.70225200  1
  F  F9  1  0.84865100  0.14639900  0.70225200  1
loop_
_geom_bond_atom_site_label_1
_geom_bond_atom_site_label_2
_geom_bond_distance
_geom_bond_site_symmetry_2
Mn0 O3 1.917240 1_555
Mn0 O2 1.917242 1_544
Mn1 O1 1.917653 1_454
Mn1 O3 1.917653 1_555
Mn2 O0 1.917647 1_455
Mn2 O2 1.917647 1_545
Mn3 O3 1.917653 1_555
Mn3 O1 1.917653 1_555
Mn4 O2 1.917654 1_544
Mn4 O0 1.917654 1_555
Mn5 O1 1.917240 1_554
Mn5 O0 1.917242 1_565
F0 Mn0 1.950526 1_555
F0 Mn5 1.950526 1_445
F1 Mn0 1.950526 1_566
F1 Mn5 1.950526 1_456
F2 Mn4 2.184118 1_555
F2 Mn3 2.184123 1_555
F2 Mn0 2.189160 1_555
F3 Mn2 2.184125 1_565
F3 Mn1 2.184125 1_555
F3 Mn5 2.189154 1_455
F4 Mn2 1.970979 1_555
F4 Mn1 1.970979 1_556
F5 Mn3 1.970979 1_555
F5 Mn4 1.970979 1_566
F6 Mn1 1.970979 1_655
F6 Mn2 1.970979 1_665
F7 Mn4 1.970979 1_555
F7 Mn3 1.970979 1_555
F8 Mn4 2.184118 1_566
F8 Mn3 2.184123 1_555
F8 Mn5 2.189160 1_556
F9 Mn1 2.184125 1_656
F9 Mn2 2.184125 1_655
F9 Mn0 2.189154 1_656
