# generated using pymatgen
data_Li4V3Ni3(SnO8)2
_symmetry_space_group_name_H-M   'P 1'
_cell_length_a   5.92497492
_cell_length_b   5.86746427
_cell_length_c   9.79004740
_cell_angle_alpha   89.98428872
_cell_angle_beta   90.84480462
_cell_angle_gamma   119.70613635
_symmetry_Int_Tables_number   1
_chemical_formula_structural   Li4V3Ni3(SnO8)2
_chemical_formula_sum   'Li4 V3 Ni3 Sn2 O16'
_cell_volume   295.57613431
_cell_formula_units_Z   1
loop_
 _symmetry_equiv_pos_site_id
 _symmetry_equiv_pos_as_xyz
  1  'x, y, z'
loop_
 _atom_site_type_symbol
 _atom_site_label
 _atom_site_symmetry_multiplicity
 _atom_site_fract_x
 _atom_site_fract_y
 _atom_site_fract_z
 _atom_site_occupancy
  Li  Li0  1  0.31928200  0.65878400  0.88942300  1
  Li  Li1  1  0.00235900  0.00368400  0.99018900  1
  Li  Li2  1  0.00581100  0.00290600  0.49450900  1
  Li  Li3  1  0.66199400  0.32991200  0.40008100  1
  V  V0  1  0.18160200  0.83302100  0.21273300  1
  V  V1  1  0.17364200  0.35584700  0.21798000  1
  V  V2  1  0.34627500  0.17247900  0.71812000  1
  Ni  Ni0  1  0.65933800  0.82810600  0.21226700  1
  Ni  Ni1  1  0.82404900  0.65623000  0.71350000  1
  Ni  Ni2  1  0.82367400  0.16709900  0.71381400  1
  Sn  Sn0  1  0.34386100  0.67131900  0.49900800  1
  Sn  Sn1  1  0.67346800  0.33589800  0.98999600  1
  O  O0  1  0.17757300  0.85093200  0.60423500  1
  O  O1  1  0.03122500  0.51356900  0.33918300  1
  O  O2  1  0.31143200  0.65195200  0.09870600  1
  O  O3  1  0.02174500  0.01429300  0.30291900  1
  O  O4  1  0.01422200  0.00773500  0.80047200  1
  O  O5  1  0.17791700  0.32661700  0.60544100  1
  O  O6  1  0.46565400  0.96071300  0.33463700  1
  O  O7  1  0.46893000  0.50649900  0.33659800  1
  O  O8  1  0.32942300  0.16330000  0.10727800  1
  O  O9  1  0.69480200  0.84888900  0.59775000  1
  O  O10  1  0.49730500  0.46835300  0.84149800  1
  O  O11  1  0.49526000  0.02689200  0.84106100  1
  O  O12  1  0.63655800  0.31740600  0.60522300  1
  O  O13  1  0.85631100  0.68299500  0.10422100  1
  O  O14  1  0.95363200  0.47541600  0.83372400  1
  O  O15  1  0.85265800  0.16945500  0.10327100  1
loop_
_geom_bond_atom_site_label_1
_geom_bond_atom_site_label_2
_geom_bond_distance
_geom_bond_site_symmetry_2
Li0 O11 1.938644 1_565
Li0 O10 1.940134 1_555
Li0 O14 1.950336 1_455
Li0 O2 2.050034 1_556
Li1 O4 1.859403 1_555
Li1 O15 1.960356 1_456
Li1 O13 1.987265 1_446
Li1 O8 2.020578 1_556
Li2 O3 1.878945 1_555
Li2 O9 1.907314 1_445
Li2 O0 1.962500 1_545
Li2 O5 1.968694 1_555
Li3 O7 1.980319 1_555
Li3 O6 1.984350 1_545
Li3 O1 2.001066 1_655
Li3 O12 2.014808 1_555
Ni0 O3 2.052124 1_665
Ni0 O15 2.055050 1_565
Ni0 O13 2.056110 1_555
Ni0 O7 2.060216 1_555
Ni0 O6 2.069669 1_555
Ni0 O2 2.091618 1_555
Ni1 O14 1.969854 1_555
Ni1 O4 1.979322 1_665
Ni1 O9 1.995014 1_555
Ni1 O12 2.021790 1_555
Ni1 O10 2.118733 1_555
Ni1 O0 2.128518 1_655
Ni2 O14 1.958970 1_555
Ni2 O4 1.971378 1_655
Ni2 O9 1.980600 1_545
Ni2 O12 2.017645 1_555
Ni2 O11 2.121173 1_555
Ni2 O5 2.127234 1_655
O0 V2 1.975082 1_565
O0 Sn0 2.049940 1_555
O1 V1 1.944350 1_555
O1 V0 2.053223 1_555
O1 Sn0 2.225371 1_555
O2 V1 1.915660 1_555
O2 V0 1.950026 1_555
O3 V1 1.936822 1_555
O3 V0 1.957425 1_545
O4 V2 1.901730 1_555
O5 V2 1.972565 1_555
O5 Sn0 2.049689 1_555
O6 V0 1.873413 1_555
O6 Sn0 2.193587 1_555
O7 V1 1.897053 1_555
O7 Sn0 2.181355 1_555
O8 V0 1.982876 1_545
O8 V1 2.089623 1_555
O8 Sn1 2.126412 1_554
O9 Sn0 2.034137 1_555
O10 V2 1.924353 1_555
O10 Sn1 2.136723 1_555
O11 V2 1.916512 1_555
O11 Sn1 2.141689 1_555
O12 V2 1.873193 1_555
O13 V0 1.968941 1_655
O13 Sn1 2.085821 1_554
O14 Sn1 2.119825 1_555
O15 V1 1.987564 1_655
O15 Sn1 2.074383 1_554
