# generated using pymatgen
data_Tm(ClO4)3
_symmetry_space_group_name_H-M   'P 1'
_cell_length_a   9.25774882
_cell_length_b   9.25774882
_cell_length_c   9.25775026
_cell_angle_alpha   51.80933479
_cell_angle_beta   51.80933479
_cell_angle_gamma   51.80933314
_symmetry_Int_Tables_number   1
_chemical_formula_structural   Tm(ClO4)3
_chemical_formula_sum   'Tm2 Cl6 O24'
_cell_volume   452.95087164
_cell_formula_units_Z   2
loop_
 _symmetry_equiv_pos_site_id
 _symmetry_equiv_pos_as_xyz
  1  'x, y, z'
loop_
 _atom_site_type_symbol
 _atom_site_label
 _atom_site_symmetry_multiplicity
 _atom_site_fract_x
 _atom_site_fract_y
 _atom_site_fract_z
 _atom_site_occupancy
  Tm  Tm0  1  0.94118965  0.94118965  0.94118965  1
  Tm  Tm1  1  0.44118965  0.44118965  0.44118965  1
  Cl  Cl0  1  0.53437412  0.15760043  0.80769136  1
  Cl  Cl1  1  0.80769136  0.53437412  0.15760043  1
  Cl  Cl2  1  0.65760043  0.03437412  0.30769136  1
  Cl  Cl3  1  0.15760043  0.80769136  0.53437412  1
  Cl  Cl4  1  0.03437412  0.30769136  0.65760043  1
  Cl  Cl5  1  0.30769136  0.65760043  0.03437412  1
  O  O0  1  0.92090249  0.24651174  0.87256847  1
  O  O1  1  0.87256847  0.92090249  0.24651174  1
  O  O2  1  0.72083456  0.11750670  0.79315268  1
  O  O3  1  0.99878363  0.42813832  0.05070651  1
  O  O4  1  0.58178815  0.11182098  0.65391919  1
  O  O5  1  0.92813832  0.49878363  0.55070651  1
  O  O6  1  0.61750670  0.22083456  0.29315268  1
  O  O7  1  0.24651174  0.87256847  0.92090249  1
  O  O8  1  0.42813832  0.05070651  0.99878363  1
  O  O9  1  0.74651174  0.42090249  0.37256847  1
  O  O10  1  0.79315268  0.72083456  0.11750670  1
  O  O11  1  0.65391919  0.58178815  0.11182098  1
  O  O12  1  0.42090249  0.37256847  0.74651174  1
  O  O13  1  0.49878363  0.55070651  0.92813832  1
  O  O14  1  0.22083456  0.29315268  0.61750670  1
  O  O15  1  0.29315268  0.61750670  0.22083456  1
  O  O16  1  0.55070651  0.92813832  0.49878363  1
  O  O17  1  0.37256847  0.74651174  0.42090249  1
  O  O18  1  0.61182098  0.08178815  0.15391919  1
  O  O19  1  0.11182098  0.65391919  0.58178815  1
  O  O20  1  0.11750670  0.79315268  0.72083456  1
  O  O21  1  0.05070651  0.99878363  0.42813832  1
  O  O22  1  0.08178815  0.15391919  0.61182098  1
  O  O23  1  0.15391919  0.61182098  0.08178815  1
loop_
_geom_bond_atom_site_label_1
_geom_bond_atom_site_label_2
_geom_bond_distance
_geom_bond_site_symmetry_2
Cl0 O8 1.401227 1_555
Cl0 O2 1.455282 1_555
Cl0 O12 1.463440 1_555
Cl0 O4 1.463628 1_555
Cl1 O3 1.401227 1_555
Cl1 O10 1.455282 1_555
Cl1 O9 1.463440 1_555
Cl1 O11 1.463628 1_555
Cl2 O16 1.401227 1_545
Cl2 O6 1.455282 1_555
Cl2 O1 1.463440 1_545
Cl2 O18 1.463628 1_555
Cl3 O21 1.401227 1_555
Cl3 O20 1.455282 1_555
Cl3 O17 1.463440 1_555
Cl3 O19 1.463628 1_555
Cl4 O5 1.401227 1_455
Cl4 O14 1.455282 1_555
Cl4 O0 1.463440 1_455
Cl4 O22 1.463628 1_555
Cl5 O13 1.401227 1_554
Cl5 O15 1.455282 1_555
Cl5 O7 1.463440 1_554
Cl5 O23 1.463628 1_555
O0 Tm0 2.387282 1_545
O1 Tm0 2.387283 1_554
O2 Tm0 2.297287 1_545
O4 Tm1 2.388883 1_555
O6 Tm1 2.297287 1_555
O7 Tm0 2.387282 1_455
O9 Tm1 2.387282 1_555
O10 Tm0 2.297287 1_554
O11 Tm1 2.388883 1_555
O12 Tm1 2.387283 1_555
O14 Tm1 2.297287 1_555
O15 Tm1 2.297287 1_555
O17 Tm1 2.387282 1_555
O18 Tm0 2.388883 1_544
O19 Tm1 2.388883 1_555
O20 Tm0 2.297287 1_455
O22 Tm0 2.388883 1_445
O23 Tm0 2.388883 1_454
