# generated using pymatgen
data_KLiZnS2
_symmetry_space_group_name_H-M   'P 1'
_cell_length_a   7.23757689
_cell_length_b   7.23757689
_cell_length_c   7.23757689
_cell_angle_alpha   148.07795843
_cell_angle_beta   148.07795843
_cell_angle_gamma   45.77029661
_symmetry_Int_Tables_number   1
_chemical_formula_structural   KLiZnS2
_chemical_formula_sum   'K1 Li1 Zn1 S2'
_cell_volume   105.64449808
_cell_formula_units_Z   1
loop_
 _symmetry_equiv_pos_site_id
 _symmetry_equiv_pos_as_xyz
  1  'x, y, z'
loop_
 _atom_site_type_symbol
 _atom_site_label
 _atom_site_symmetry_multiplicity
 _atom_site_fract_x
 _atom_site_fract_y
 _atom_site_fract_z
 _atom_site_occupancy
  K  K0  1  0.00000000  0.00000000  0.00000000  1
  Li  Li0  1  0.75000000  0.25000000  0.50000000  1
  Zn  Zn0  1  0.25000000  0.75000000  0.50000000  1
  S  S0  1  0.64814300  0.64814300  0.00000000  1
  S  S1  1  0.35185700  0.35185700  0.00000000  1
loop_
_geom_bond_atom_site_label_1
_geom_bond_atom_site_label_2
_geom_bond_distance
_geom_bond_site_symmetry_2
K0 S1 3.438734 1_545
K0 S0 3.438734 1_455
K0 S1 3.438734 1_455
K0 S0 3.438734 1_545
K0 S0 3.438734 1_444
K0 S1 3.438734 1_556
K0 S1 3.438734 1_444
K0 S0 3.438734 1_556
Li0 S1 2.409572 1_656
Li0 S0 2.409572 1_545
Li0 S1 2.409572 1_555
Li0 S0 2.409572 1_556
S0 Zn0 2.409572 1_554
S0 Zn0 2.409572 1_655
S1 Zn0 2.409572 1_544
S1 Zn0 2.409572 1_555
