# generated using pymatgen
data_Li2VFe(P2O7)2
_symmetry_space_group_name_H-M   'P 1'
_cell_length_a   8.24282400
_cell_length_b   7.03942400
_cell_length_c   9.75935426
_cell_angle_alpha   71.10683100
_cell_angle_beta   90.00000000
_cell_angle_gamma   90.00000000
_symmetry_Int_Tables_number   1
_chemical_formula_structural   Li2VFe(P2O7)2
_chemical_formula_sum   'Li4 V2 Fe2 P8 O28'
_cell_volume   535.77479648
_cell_formula_units_Z   2
loop_
 _symmetry_equiv_pos_site_id
 _symmetry_equiv_pos_as_xyz
  1  'x, y, z'
loop_
 _atom_site_type_symbol
 _atom_site_label
 _atom_site_symmetry_multiplicity
 _atom_site_fract_x
 _atom_site_fract_y
 _atom_site_fract_z
 _atom_site_occupancy
  Li  Li0  1  0.86362200  0.67679600  0.66227000  1
  Li  Li1  1  0.36362200  0.32320400  0.33773000  1
  Li  Li2  1  0.86304400  0.67683000  0.16195800  1
  Li  Li3  1  0.36304400  0.32317000  0.83804200  1
  V  V0  1  0.49933300  0.72847500  0.64182100  1
  V  V1  1  0.99933300  0.27152500  0.35817900  1
  Fe  Fe0  1  0.49908800  0.73176500  0.14180700  1
  Fe  Fe1  1  0.99908800  0.26823500  0.85819300  1
  P  P0  1  0.17958200  0.52177600  0.55019300  1
  P  P1  1  0.78402900  0.08569100  0.64452900  1
  P  P2  1  0.28402900  0.91430900  0.35547100  1
  P  P3  1  0.67958200  0.47822400  0.44980700  1
  P  P4  1  0.18109300  0.52138100  0.04983100  1
  P  P5  1  0.78355500  0.08505800  0.14405700  1
  P  P6  1  0.28355500  0.91494200  0.85594300  1
  P  P7  1  0.68109300  0.47861900  0.95016900  1
  O  O0  1  0.32306700  0.85229100  0.72428200  1
  O  O1  1  0.69577300  0.88454800  0.68493800  1
  O  O2  1  0.03681300  0.48258400  0.65585200  1
  O  O3  1  0.34403000  0.50548700  0.62645200  1
  O  O4  1  0.67824800  0.60560300  0.55155900  1
  O  O5  1  0.43409500  0.91765000  0.44845300  1
  O  O6  1  0.15279600  0.75364700  0.45235200  1
  O  O7  1  0.65279600  0.24635300  0.54764800  1
  O  O8  1  0.93409500  0.08235000  0.55154700  1
  O  O9  1  0.17824800  0.39439700  0.44844100  1
  O  O10  1  0.84403000  0.49451300  0.37354800  1
  O  O11  1  0.53681300  0.51741600  0.34414800  1
  O  O12  1  0.32447900  0.85284700  0.22403700  1
  O  O13  1  0.69416300  0.88351900  0.18508800  1
  O  O14  1  0.19577300  0.11545200  0.31506200  1
  O  O15  1  0.82306700  0.14770900  0.27571800  1
  O  O16  1  0.03798400  0.48233600  0.15656900  1
  O  O17  1  0.34546100  0.50716100  0.12675100  1
  O  O18  1  0.67908900  0.60552100  0.05122100  1
  O  O19  1  0.43341400  0.91760600  0.94850300  1
  O  O20  1  0.15282500  0.75378600  0.95263100  1
  O  O21  1  0.65282500  0.24621400  0.04736900  1
  O  O22  1  0.93341400  0.08239400  0.05149700  1
  O  O23  1  0.17908900  0.39447900  0.94877900  1
  O  O24  1  0.84546100  0.49283900  0.87324900  1
  O  O25  1  0.53798400  0.51766400  0.84343100  1
  O  O26  1  0.19416300  0.11648100  0.81491200  1
  O  O27  1  0.82447900  0.14715300  0.77596300  1
loop_
_geom_bond_atom_site_label_1
_geom_bond_atom_site_label_2
_geom_bond_distance
_geom_bond_site_symmetry_2
Li0 O2 1.991594 1_655
Li0 O4 2.025843 1_555
Li0 O24 2.052347 1_555
Li0 O1 2.076402 1_555
Li1 O11 1.991594 1_555
Li1 O9 2.025843 1_555
Li1 O17 2.052347 1_555
Li1 O14 2.076402 1_555
Li2 O16 2.000816 1_655
Li2 O18 2.017537 1_555
Li2 O10 2.054153 1_555
Li2 O13 2.078080 1_555
Li3 O25 2.000816 1_555
Li3 O23 2.017537 1_555
Li3 O3 2.054153 1_555
Li3 O26 2.078080 1_555
Fe0 O12 1.971040 1_555
Fe0 O19 1.991270 1_554
Fe0 O13 2.048751 1_555
Fe0 O17 2.067712 1_555
Fe0 O18 2.069187 1_555
Fe0 O11 2.084064 1_555
Fe1 O27 1.971040 1_555
Fe1 O22 1.991270 1_556
Fe1 O26 2.048751 1_655
Fe1 O24 2.067712 1_555
Fe1 O23 2.069187 1_655
Fe1 O2 2.084064 1_655
O0 P6 1.522697 1_555
O0 V0 1.993133 1_555
O1 P1 1.525775 1_565
O1 V0 2.074946 1_555
O2 P0 1.529733 1_555
O3 P0 1.532709 1_555
O3 V0 2.068260 1_555
O4 P3 1.538477 1_555
O4 V0 2.047555 1_555
O5 P2 1.538804 1_555
O5 V0 1.999094 1_555
O6 P0 1.617212 1_555
O6 P2 1.628093 1_555
O7 P3 1.617212 1_555
O7 P1 1.628093 1_555
O8 P1 1.538804 1_555
O8 V1 1.999094 1_555
O9 P0 1.538477 1_555
O9 V1 2.047555 1_455
O10 P3 1.532709 1_555
O10 V1 2.068260 1_555
O11 P3 1.529733 1_555
O12 P2 1.517602 1_555
O13 P5 1.532363 1_565
O14 P2 1.525775 1_545
O14 V1 2.074946 1_455
O15 P5 1.522697 1_555
O15 V1 1.993133 1_555
O16 P4 1.538428 1_555
O16 V1 2.069824 1_455
O17 P4 1.536401 1_555
O18 P7 1.530170 1_554
O19 P6 1.534011 1_555
O20 P4 1.620370 1_556
O20 P6 1.626440 1_555
O21 P7 1.620370 1_554
O21 P5 1.626440 1_555
O22 P5 1.534011 1_555
O23 P4 1.530170 1_556
O24 P7 1.536401 1_555
O25 P7 1.538428 1_555
O25 V0 2.069824 1_555
O26 P6 1.532363 1_545
O27 P1 1.517602 1_555
