# generated using pymatgen
data_Na3CuBSO7
_symmetry_space_group_name_H-M   'P 1'
_cell_length_a   7.22585900
_cell_length_b   5.12741500
_cell_length_c   8.76833887
_cell_angle_alpha   88.90035083
_cell_angle_beta   90.00000000
_cell_angle_gamma   90.00000000
_symmetry_Int_Tables_number   1
_chemical_formula_structural   Na3CuBSO7
_chemical_formula_sum   'Na6 Cu2 B2 S2 O14'
_cell_volume   324.80692979
_cell_formula_units_Z   2
loop_
 _symmetry_equiv_pos_site_id
 _symmetry_equiv_pos_as_xyz
  1  'x, y, z'
loop_
 _atom_site_type_symbol
 _atom_site_label
 _atom_site_symmetry_multiplicity
 _atom_site_fract_x
 _atom_site_fract_y
 _atom_site_fract_z
 _atom_site_occupancy
  Na  Na0  1  0.75000000  0.24227700  0.92796700  1
  Na  Na1  1  0.00521800  0.75078600  0.75043000  1
  Na  Na2  1  0.49478200  0.75078600  0.75043000  1
  Na  Na3  1  0.50521800  0.24921400  0.24957000  1
  Na  Na4  1  0.99478200  0.24921400  0.24957000  1
  Na  Na5  1  0.25000000  0.75772300  0.07203300  1
  Cu  Cu0  1  0.25000000  0.22301200  0.66166400  1
  Cu  Cu1  1  0.75000000  0.77698800  0.33833600  1
  B  B0  1  0.25000000  0.26470900  0.93529200  1
  B  B1  1  0.75000000  0.73529100  0.06470800  1
  S  S0  1  0.75000000  0.29298700  0.58381800  1
  S  S1  1  0.25000000  0.70701300  0.41618200  1
  O  O0  1  0.75000000  0.71565500  0.91132300  1
  O  O1  1  0.25000000  0.02807600  0.85858900  1
  O  O2  1  0.25000000  0.47614300  0.83252200  1
  O  O3  1  0.91623300  0.22463200  0.67575500  1
  O  O4  1  0.58376700  0.22463200  0.67575500  1
  O  O5  1  0.75000000  0.58345700  0.54829600  1
  O  O6  1  0.25000000  0.84452000  0.56506200  1
  O  O7  1  0.75000000  0.15548000  0.43493800  1
  O  O8  1  0.25000000  0.41654300  0.45170400  1
  O  O9  1  0.41623300  0.77536800  0.32424500  1
  O  O10  1  0.08376700  0.77536800  0.32424500  1
  O  O11  1  0.75000000  0.52385700  0.16747800  1
  O  O12  1  0.75000000  0.97192400  0.14141100  1
  O  O13  1  0.25000000  0.28434500  0.08867700  1
loop_
_geom_bond_atom_site_label_1
_geom_bond_atom_site_label_2
_geom_bond_distance
_geom_bond_site_symmetry_2
Na0 O12 2.307532 1_546
Na0 O0 2.428792 1_555
Na0 O3 2.519789 1_555
Na0 O4 2.519789 1_555
Na0 O11 2.571255 1_556
Na0 O0 2.706946 1_545
Na1 O0 2.326781 1_455
Na1 O2 2.364484 1_555
Na1 O6 2.443633 1_555
Na1 O1 2.470049 1_565
Na1 O3 2.585361 1_465
Na1 O5 2.708645 1_455
Na1 O3 2.861495 1_455
Na2 O0 2.326781 1_555
Na2 O2 2.364484 1_555
Na2 O6 2.443633 1_555
Na2 O1 2.470049 1_565
Na2 O4 2.585361 1_565
Na2 O5 2.708645 1_555
Na2 O4 2.861495 1_555
Na3 O13 2.326781 1_555
Na3 O11 2.364484 1_555
Na3 O7 2.443633 1_555
Na3 O12 2.470049 1_545
Na3 O9 2.585361 1_545
Na3 O8 2.708645 1_555
Na3 O9 2.861495 1_555
Na4 O13 2.326781 1_655
Na4 O11 2.364484 1_555
Na4 O7 2.443633 1_555
Na4 O12 2.470049 1_545
Na4 O10 2.585361 1_645
Na4 O8 2.708645 1_655
Na4 O10 2.861495 1_655
Na5 O1 2.307532 1_564
Na5 O13 2.428792 1_555
Na5 O10 2.519789 1_555
Na5 O9 2.519789 1_555
Na5 O2 2.571255 1_554
Na5 O13 2.706946 1_565
Cu0 O1 1.978460 1_555
Cu0 O2 2.000906 1_555
Cu0 O8 2.074572 1_555
Cu0 O6 2.132330 1_545
Cu0 O4 2.414939 1_555
Cu0 O3 2.414939 1_455
Cu1 O12 1.978460 1_555
Cu1 O11 2.000906 1_555
Cu1 O5 2.074572 1_555
Cu1 O7 2.132330 1_565
Cu1 O10 2.414939 1_655
Cu1 O9 2.414939 1_555
B0 O13 1.350620 1_556
B0 O2 1.396359 1_555
B0 O1 1.398496 1_555
B1 O0 1.350620 1_554
B1 O11 1.396359 1_555
B1 O12 1.398496 1_555
O3 S0 1.484814 1_555
O4 S0 1.484814 1_555
O5 S0 1.515718 1_555
O6 S1 1.495520 1_555
O7 S0 1.495520 1_555
O8 S1 1.515718 1_555
O9 S1 1.484814 1_555
O10 S1 1.484814 1_555
