# generated using pymatgen
data_Na3SnAsCO7
_symmetry_space_group_name_H-M   'P 1'
_cell_length_a   7.45314700
_cell_length_b   5.34704100
_cell_length_c   9.59757520
_cell_angle_alpha   88.58899233
_cell_angle_beta   90.00000000
_cell_angle_gamma   90.00000000
_symmetry_Int_Tables_number   1
_chemical_formula_structural   Na3SnAsCO7
_chemical_formula_sum   'Na6 Sn2 As2 C2 O14'
_cell_volume   382.36930092
_cell_formula_units_Z   2
loop_
 _symmetry_equiv_pos_site_id
 _symmetry_equiv_pos_as_xyz
  1  'x, y, z'
loop_
 _atom_site_type_symbol
 _atom_site_label
 _atom_site_symmetry_multiplicity
 _atom_site_fract_x
 _atom_site_fract_y
 _atom_site_fract_z
 _atom_site_occupancy
  Na  Na0  1  0.25000000  0.76838200  0.92073200  1
  Na  Na1  1  0.00808200  0.24533700  0.74889400  1
  Na  Na2  1  0.49191800  0.24533700  0.74889400  1
  Na  Na3  1  0.50808200  0.75466300  0.25110600  1
  Na  Na4  1  0.99191800  0.75466300  0.25110600  1
  Na  Na5  1  0.75000000  0.23161800  0.07926800  1
  Sn  Sn0  1  0.75000000  0.76696800  0.64316300  1
  Sn  Sn1  1  0.25000000  0.23303200  0.35683700  1
  As  As0  1  0.25000000  0.70875200  0.60079500  1
  As  As1  1  0.75000000  0.29124800  0.39920500  1
  C  C0  1  0.75000000  0.73044700  0.95065300  1
  C  C1  1  0.25000000  0.26955300  0.04934700  1
  O  O0  1  0.25000000  0.27475600  0.91479600  1
  O  O1  1  0.75000000  0.94640900  0.88198800  1
  O  O2  1  0.75000000  0.52197600  0.88244300  1
  O  O3  1  0.06753900  0.81339500  0.69450900  1
  O  O4  1  0.43246100  0.81339500  0.69450900  1
  O  O5  1  0.25000000  0.38687200  0.60532700  1
  O  O6  1  0.75000000  0.19486400  0.57452100  1
  O  O7  1  0.25000000  0.80513600  0.42547900  1
  O  O8  1  0.75000000  0.61312800  0.39467300  1
  O  O9  1  0.56753900  0.18660500  0.30549100  1
  O  O10  1  0.93246100  0.18660500  0.30549100  1
  O  O11  1  0.25000000  0.47802400  0.11755700  1
  O  O12  1  0.25000000  0.05359100  0.11801200  1
  O  O13  1  0.75000000  0.72524400  0.08520400  1
loop_
_geom_bond_atom_site_label_1
_geom_bond_atom_site_label_2
_geom_bond_distance
_geom_bond_site_symmetry_2
Na0 O11 2.415466 1_556
Na0 O12 2.460265 1_566
Na0 O3 2.568194 1_555
Na0 O4 2.568194 1_555
Na0 O0 2.641455 1_555
Na0 O0 2.706799 1_565
Na1 O5 2.381379 1_555
Na1 O0 2.413162 1_555
Na1 O3 2.421260 1_545
Na1 O6 2.568232 1_455
Na1 O2 2.761199 1_455
Na1 O1 2.790324 1_445
Na2 O5 2.381379 1_555
Na2 O0 2.413162 1_555
Na2 O4 2.421260 1_545
Na2 O6 2.568232 1_555
Na2 O2 2.761199 1_555
Na2 O1 2.790324 1_545
Na3 O8 2.381379 1_555
Na3 O13 2.413162 1_555
Na3 O9 2.421260 1_565
Na3 O7 2.568232 1_555
Na3 O11 2.761199 1_555
Na3 O12 2.790324 1_565
Na4 O8 2.381379 1_555
Na4 O13 2.413162 1_555
Na4 O10 2.421260 1_565
Na4 O7 2.568232 1_655
Na4 O11 2.761199 1_655
Na4 O12 2.790324 1_665
Na5 O2 2.415466 1_554
Na5 O1 2.460265 1_544
Na5 O9 2.568194 1_555
Na5 O10 2.568194 1_555
Na5 O13 2.641455 1_555
Na5 O13 2.706799 1_545
As0 O5 1.720584 1_555
As0 O4 1.730948 1_555
As0 O3 1.730948 1_555
As0 O7 1.747590 1_555
As1 O8 1.720584 1_555
As1 O10 1.730948 1_555
As1 O9 1.730948 1_555
As1 O6 1.747590 1_555
C0 O13 1.290978 1_556
C0 O2 1.306548 1_555
C0 O1 1.315405 1_555
C1 O0 1.290978 1_554
C1 O11 1.306548 1_555
C1 O12 1.315405 1_555
O1 Sn0 2.506555 1_555
O2 Sn0 2.615692 1_555
O3 Sn0 2.431379 1_455
O4 Sn0 2.431379 1_555
O5 Sn1 2.541854 1_555
O6 Sn0 2.365295 1_545
O7 Sn1 2.365295 1_565
O8 Sn0 2.541854 1_555
O9 Sn1 2.431379 1_555
O10 Sn1 2.431379 1_655
O11 Sn1 2.615692 1_555
O12 Sn1 2.506555 1_555
