# generated using pymatgen
data_LiVSiO4
_symmetry_space_group_name_H-M   'P 1'
_cell_length_a   4.78795100
_cell_length_b   5.80965600
_cell_length_c   10.42502200
_cell_angle_alpha   90.00000000
_cell_angle_beta   90.00000000
_cell_angle_gamma   90.00000000
_symmetry_Int_Tables_number   1
_chemical_formula_structural   LiVSiO4
_chemical_formula_sum   'Li4 V4 Si4 O16'
_cell_volume   289.98604252
_cell_formula_units_Z   4
loop_
 _symmetry_equiv_pos_site_id
 _symmetry_equiv_pos_as_xyz
  1  'x, y, z'
loop_
 _atom_site_type_symbol
 _atom_site_label
 _atom_site_symmetry_multiplicity
 _atom_site_fract_x
 _atom_site_fract_y
 _atom_site_fract_z
 _atom_site_occupancy
  Li  Li0  1  0.50000000  0.50000000  0.50000000  1
  Li  Li1  1  0.50000000  0.00000000  0.50000000  1
  Li  Li2  1  0.00000000  0.00000000  0.00000000  1
  Li  Li3  1  0.00000000  0.50000000  0.00000000  1
  V  V0  1  0.49555600  0.75000000  0.22661600  1
  V  V1  1  0.00444400  0.75000000  0.72661600  1
  V  V2  1  0.99555600  0.25000000  0.27338400  1
  V  V3  1  0.50444400  0.25000000  0.77338400  1
  Si  Si0  1  0.44305600  0.25000000  0.09220400  1
  Si  Si1  1  0.05694400  0.25000000  0.59220400  1
  Si  Si2  1  0.94305600  0.75000000  0.40779600  1
  Si  Si3  1  0.55694400  0.75000000  0.90779600  1
  O  O0  1  0.22030300  0.75000000  0.90079000  1
  O  O1  1  0.69194800  0.75000000  0.05119800  1
  O  O2  1  0.21361200  0.46489500  0.67340900  1
  O  O3  1  0.21361200  0.03510500  0.67340900  1
  O  O4  1  0.28638800  0.46489500  0.17340900  1
  O  O5  1  0.28638800  0.03510500  0.17340900  1
  O  O6  1  0.80805200  0.75000000  0.55119800  1
  O  O7  1  0.27969700  0.75000000  0.40079000  1
  O  O8  1  0.72030300  0.25000000  0.59921000  1
  O  O9  1  0.19194800  0.25000000  0.44880200  1
  O  O10  1  0.78638800  0.96489500  0.32659100  1
  O  O11  1  0.78638800  0.53510500  0.32659100  1
  O  O12  1  0.71361200  0.96489500  0.82659100  1
  O  O13  1  0.71361200  0.53510500  0.82659100  1
  O  O14  1  0.30805200  0.25000000  0.94880200  1
  O  O15  1  0.77969700  0.25000000  0.09921000  1
loop_
_geom_bond_atom_site_label_1
_geom_bond_atom_site_label_2
_geom_bond_distance
_geom_bond_site_symmetry_2
Li0 O8 2.071670 1_555
Li0 O7 2.071670 1_555
Li0 O6 2.137715 1_555
Li0 O9 2.137715 1_555
Li0 O2 2.278142 1_555
Li0 O11 2.278142 1_555
Li1 O8 2.071670 1_555
Li1 O7 2.071670 1_545
Li1 O6 2.137715 1_545
Li1 O9 2.137715 1_555
Li1 O3 2.278142 1_555
Li1 O10 2.278142 1_545
Li2 O0 2.071670 1_544
Li2 O15 2.071670 1_455
Li2 O1 2.137715 1_445
Li2 O14 2.137715 1_554
Li2 O5 2.278142 1_555
Li2 O12 2.278142 1_444
Li3 O0 2.071670 1_554
Li3 O15 2.071670 1_455
Li3 O1 2.137715 1_455
Li3 O14 2.137715 1_554
Li3 O4 2.278142 1_555
Li3 O13 2.278142 1_454
O0 Si3 1.613475 1_555
O0 V1 2.089302 1_555
O1 Si3 1.628728 1_554
O1 V0 2.056324 1_555
O2 Si1 1.684641 1_555
O2 V1 2.013500 1_555
O2 V3 2.141019 1_555
O3 Si1 1.684641 1_555
O3 V1 2.013500 1_545
O3 V3 2.141019 1_555
O4 Si0 1.684641 1_555
O4 V0 2.013500 1_555
O4 V2 2.141019 1_455
O5 Si0 1.684641 1_555
O5 V0 2.013500 1_545
O5 V2 2.141019 1_455
O6 Si2 1.628728 1_555
O6 V1 2.056324 1_655
O7 Si2 1.613475 1_455
O7 V0 2.089302 1_555
O8 Si1 1.613475 1_655
O8 V3 2.089302 1_555
O9 Si1 1.628728 1_555
O9 V2 2.056324 1_455
O10 Si2 1.684641 1_555
O10 V2 2.013500 1_565
O10 V0 2.141019 1_555
O11 Si2 1.684641 1_555
O11 V2 2.013500 1_555
O11 V0 2.141019 1_555
O12 Si3 1.684641 1_555
O12 V3 2.013500 1_565
O12 V1 2.141019 1_655
O13 Si3 1.684641 1_555
O13 V3 2.013500 1_555
O13 V1 2.141019 1_655
O14 Si0 1.628728 1_556
O14 V3 2.056324 1_555
O15 Si0 1.613475 1_555
O15 V2 2.089302 1_555
