# generated using pymatgen
data_Li5MgTi12O24
_symmetry_space_group_name_H-M   'P 1'
_cell_length_a   5.99481828
_cell_length_b   5.99481828
_cell_length_c   14.75757100
_cell_angle_alpha   90.00000000
_cell_angle_beta   90.00000000
_cell_angle_gamma   120.00000307
_symmetry_Int_Tables_number   1
_chemical_formula_structural   Li5MgTi12O24
_chemical_formula_sum   'Li5 Mg1 Ti12 O24'
_cell_volume   459.30116307
_cell_formula_units_Z   1
loop_
 _symmetry_equiv_pos_site_id
 _symmetry_equiv_pos_as_xyz
  1  'x, y, z'
loop_
 _atom_site_type_symbol
 _atom_site_label
 _atom_site_symmetry_multiplicity
 _atom_site_fract_x
 _atom_site_fract_y
 _atom_site_fract_z
 _atom_site_occupancy
  Li  Li0  1  0.66666700  0.33333300  0.04218800  1
  Li  Li1  1  0.66666700  0.33333300  0.29011900  1
  Li  Li2  1  0.33333300  0.66666700  0.37590800  1
  Li  Li3  1  0.33333300  0.66666700  0.62026300  1
  Li  Li4  1  0.00000000  0.00000000  0.96180400  1
  Mg  Mg0  1  0.66666700  0.33333300  0.66372300  1
  Ti  Ti0  1  0.16684800  0.33369600  0.16694700  1
  Ti  Ti1  1  0.82923100  0.17076900  0.49879000  1
  Ti  Ti2  1  0.16684800  0.83315200  0.16694700  1
  Ti  Ti3  1  0.00000000  0.00000000  0.33288600  1
  Ti  Ti4  1  0.33333300  0.66666700  0.00183600  1
  Ti  Ti5  1  0.66630400  0.83315200  0.16694700  1
  Ti  Ti6  1  0.34153800  0.17076900  0.49879000  1
  Ti  Ti7  1  0.82923100  0.65846200  0.49879000  1
  Ti  Ti8  1  0.00896800  0.50448400  0.83806200  1
  Ti  Ti9  1  0.00000000  0.00000000  0.70976800  1
  Ti  Ti10  1  0.49551600  0.50448400  0.83806200  1
  Ti  Ti11  1  0.49551600  0.99103200  0.83806200  1
  O  O0  1  0.03326800  0.51663400  0.08826700  1
  O  O1  1  0.48336600  0.51663400  0.08826700  1
  O  O2  1  0.00000000  0.00000000  0.09673200  1
  O  O3  1  0.85064500  0.14935500  0.24586100  1
  O  O4  1  0.85064500  0.70128900  0.24586100  1
  O  O5  1  0.29871100  0.14935500  0.24586100  1
  O  O6  1  0.97124600  0.48562300  0.57413800  1
  O  O7  1  0.48336600  0.96673200  0.08826700  1
  O  O8  1  0.14798800  0.29597600  0.42084300  1
  O  O9  1  0.14798800  0.85201200  0.42084300  1
  O  O10  1  0.33333300  0.66666700  0.23700900  1
  O  O11  1  0.00000000  0.00000000  0.57925100  1
  O  O12  1  0.66666700  0.33333300  0.42668700  1
  O  O13  1  0.51437700  0.48562300  0.57413800  1
  O  O14  1  0.51437700  0.02875400  0.57413800  1
  O  O15  1  0.18188100  0.36376200  0.91316200  1
  O  O16  1  0.70402400  0.85201200  0.42084300  1
  O  O17  1  0.34456000  0.17228000  0.75295900  1
  O  O18  1  0.82772000  0.65544000  0.75295900  1
  O  O19  1  0.82772000  0.17228000  0.75295900  1
  O  O20  1  0.66666700  0.33333300  0.90168300  1
  O  O21  1  0.33333300  0.66666700  0.76305600  1
  O  O22  1  0.18188100  0.81811900  0.91316200  1
  O  O23  1  0.63623800  0.81811900  0.91316200  1
loop_
_geom_bond_atom_site_label_1
_geom_bond_atom_site_label_2
_geom_bond_distance
_geom_bond_site_symmetry_2
Li0 O0 2.021102 1_655
Li0 O7 2.021102 1_545
Li0 O1 2.021107 1_555
Li0 O20 2.073513 1_554
Li1 O12 2.015412 1_555
Li1 O4 2.018875 1_555
Li1 O5 2.018875 1_555
Li1 O3 2.018875 1_555
Li2 O9 2.035543 1_555
Li2 O16 2.035548 1_555
Li2 O8 2.035548 1_555
Li2 O10 2.049812 1_555
Li3 O14 1.999280 1_565
Li3 O6 1.999280 1_455
Li3 O13 1.999285 1_555
Li3 O21 2.107278 1_555
Li4 O2 1.991210 1_556
Li4 O15 2.020356 1_555
Li4 O23 2.020356 1_445
Li4 O22 2.020356 1_545
Mg0 O6 2.061130 1_555
Mg0 O14 2.061130 1_555
Mg0 O13 2.061134 1_555
Mg0 O19 2.128548 1_555
Mg0 O17 2.128552 1_555
Mg0 O18 2.128552 1_555
O0 Ti4 2.013402 1_555
O0 Ti2 2.017521 1_555
O0 Ti0 2.017521 1_555
O1 Ti4 2.013406 1_555
O1 Ti0 2.017521 1_555
O1 Ti5 2.017521 1_555
O2 Ti5 2.018677 1_445
O2 Ti0 2.018677 1_555
O2 Ti2 2.018677 1_545
O3 Ti3 2.013543 1_655
O3 Ti0 2.018887 1_655
O3 Ti5 2.018887 1_545
O4 Ti3 2.013547 1_665
O4 Ti2 2.018886 1_655
O4 Ti5 2.018891 1_555
O5 Ti3 2.013547 1_555
O5 Ti2 2.018886 1_545
O5 Ti0 2.018891 1_555
O6 Ti1 1.979128 1_555
O6 Ti7 1.979128 1_555
O7 Ti4 2.013402 1_555
O7 Ti2 2.017521 1_555
O7 Ti5 2.017521 1_555
O8 Ti3 2.011480 1_555
O8 Ti1 2.025784 1_455
O8 Ti6 2.025784 1_555
O9 Ti3 2.011480 1_565
O9 Ti7 2.025784 1_455
O9 Ti6 2.025784 1_565
O10 Ti2 2.014283 1_555
O10 Ti5 2.014288 1_555
O10 Ti0 2.014288 1_555
O11 Ti9 1.926114 1_555
O11 Ti7 2.134011 1_445
O11 Ti6 2.134011 1_555
O11 Ti1 2.134011 1_455
O12 Ti1 1.995352 1_555
O12 Ti6 1.995356 1_555
O12 Ti7 1.995356 1_555
O13 Ti6 1.979128 1_555
O13 Ti7 1.979128 1_555
O14 Ti1 1.979128 1_555
O14 Ti6 1.979128 1_555
O15 Ti10 1.972041 1_555
O15 Ti8 1.972041 1_555
O15 Ti4 2.045844 1_556
O16 Ti3 2.011480 1_665
O16 Ti1 2.025784 1_565
O16 Ti7 2.025784 1_555
O17 Ti9 1.899005 1_555
O17 Ti10 2.135445 1_555
O17 Ti11 2.135445 1_545
O18 Ti9 1.899005 1_665
O18 Ti10 2.135445 1_555
O18 Ti8 2.135445 1_655
O19 Ti9 1.899005 1_655
O19 Ti8 2.135445 1_655
O19 Ti11 2.135445 1_545
O20 Ti8 2.009887 1_655
O20 Ti11 2.009887 1_545
O20 Ti10 2.009891 1_555
O21 Ti11 2.015212 1_555
O21 Ti8 2.015212 1_555
O21 Ti10 2.015216 1_555
O22 Ti11 1.972041 1_555
O22 Ti8 1.972041 1_555
O22 Ti4 2.045840 1_556
O23 Ti10 1.972041 1_555
O23 Ti11 1.972041 1_555
O23 Ti4 2.045844 1_556
