# generated using pymatgen
data_Li2BiBO4
_symmetry_space_group_name_H-M   'P 1'
_cell_length_a   4.82420900
_cell_length_b   6.85174800
_cell_length_c   10.33408200
_cell_angle_alpha   90.00000000
_cell_angle_beta   90.00000000
_cell_angle_gamma   90.00000000
_symmetry_Int_Tables_number   1
_chemical_formula_structural   Li2BiBO4
_chemical_formula_sum   'Li8 Bi4 B4 O16'
_cell_volume   341.58547842
_cell_formula_units_Z   4
loop_
 _symmetry_equiv_pos_site_id
 _symmetry_equiv_pos_as_xyz
  1  'x, y, z'
loop_
 _atom_site_type_symbol
 _atom_site_label
 _atom_site_symmetry_multiplicity
 _atom_site_fract_x
 _atom_site_fract_y
 _atom_site_fract_z
 _atom_site_occupancy
  Li  Li0  1  0.21538900  0.99539200  0.66031200  1
  Li  Li1  1  0.28461100  0.99539200  0.16031200  1
  Li  Li2  1  0.21538900  0.50460800  0.66031200  1
  Li  Li3  1  0.28461100  0.50460800  0.16031200  1
  Li  Li4  1  0.71538900  0.49539200  0.83968800  1
  Li  Li5  1  0.78461100  0.49539200  0.33968800  1
  Li  Li6  1  0.78461100  0.00460800  0.33968800  1
  Li  Li7  1  0.71538900  0.00460800  0.83968800  1
  Bi  Bi0  1  0.73257900  0.25000000  0.60168100  1
  Bi  Bi1  1  0.76742100  0.25000000  0.10168100  1
  Bi  Bi2  1  0.23257900  0.75000000  0.89831900  1
  Bi  Bi3  1  0.26742100  0.75000000  0.39831900  1
  B  B0  1  0.22645200  0.25000000  0.90160100  1
  B  B1  1  0.27354800  0.25000000  0.40160100  1
  B  B2  1  0.72645200  0.75000000  0.59839900  1
  B  B3  1  0.77354800  0.75000000  0.09839900  1
  O  O0  1  0.32649600  0.07404400  0.83683500  1
  O  O1  1  0.17350400  0.07404400  0.33683500  1
  O  O2  1  0.90346500  0.25000000  0.90041200  1
  O  O3  1  0.19479600  0.25000000  0.54766500  1
  O  O4  1  0.30520400  0.25000000  0.04766500  1
  O  O5  1  0.59653500  0.25000000  0.40041200  1
  O  O6  1  0.32649600  0.42595600  0.83683500  1
  O  O7  1  0.17350400  0.42595600  0.33683500  1
  O  O8  1  0.67350400  0.57404400  0.16316500  1
  O  O9  1  0.82649600  0.57404400  0.66316500  1
  O  O10  1  0.69479600  0.75000000  0.95233500  1
  O  O11  1  0.40346500  0.75000000  0.59958800  1
  O  O12  1  0.80520400  0.75000000  0.45233500  1
  O  O13  1  0.09653500  0.75000000  0.09958800  1
  O  O14  1  0.82649600  0.92595600  0.66316500  1
  O  O15  1  0.67350400  0.92595600  0.16316500  1
loop_
_geom_bond_atom_site_label_1
_geom_bond_atom_site_label_2
_geom_bond_distance
_geom_bond_site_symmetry_2
Li0 O14 1.935709 1_455
Li0 O0 1.976217 1_565
Li0 O11 2.010970 1_555
Li0 O3 2.099600 1_565
Li1 O15 1.935709 1_555
Li1 O1 1.976217 1_565
Li1 O13 2.010970 1_555
Li1 O4 2.099600 1_565
Li2 O9 1.935709 1_455
Li2 O6 1.976217 1_555
Li2 O11 2.010970 1_555
Li2 O3 2.099600 1_555
Li3 O8 1.935709 1_555
Li3 O7 1.976217 1_555
Li3 O13 2.010970 1_555
Li3 O4 2.099600 1_555
Li4 O6 1.935709 1_555
Li4 O9 1.976217 1_555
Li4 O2 2.010970 1_555
Li4 O10 2.099600 1_555
Li5 O7 1.935709 1_655
Li5 O8 1.976217 1_555
Li5 O5 2.010970 1_555
Li5 O12 2.099600 1_555
Li6 O1 1.935709 1_655
Li6 O15 1.976217 1_545
Li6 O5 2.010970 1_555
Li6 O12 2.099600 1_545
Li7 O0 1.935709 1_555
Li7 O14 1.976217 1_545
Li7 O2 2.010970 1_555
Li7 O10 2.099600 1_545
Bi0 O5 2.181020 1_555
Bi0 O3 2.298639 1_655
Bi0 O9 2.353418 1_555
Bi0 O14 2.353418 1_545
Bi0 O3 2.653750 1_555
Bi1 O2 2.181020 1_554
Bi1 O4 2.298639 1_555
Bi1 O15 2.353418 1_545
Bi1 O8 2.353418 1_555
Bi1 O4 2.653750 1_655
Bi2 O13 2.181020 1_556
Bi2 O10 2.298639 1_555
Bi2 O0 2.353418 1_565
Bi2 O6 2.353418 1_555
Bi2 O10 2.653750 1_455
Bi3 O11 2.181020 1_555
Bi3 O12 2.298639 1_455
Bi3 O7 2.353418 1_555
Bi3 O1 2.353418 1_565
Bi3 O12 2.653750 1_555
B0 O0 1.460952 1_555
B0 O6 1.460952 1_555
B0 O4 1.556514 1_556
B0 O2 1.558205 1_455
B1 O7 1.460952 1_555
B1 O1 1.460952 1_555
B1 O3 1.556514 1_555
B1 O5 1.558205 1_555
B2 O14 1.460952 1_555
B2 O9 1.460952 1_555
B2 O12 1.556514 1_555
B2 O11 1.558205 1_555
B3 O15 1.460952 1_555
B3 O8 1.460952 1_555
B3 O10 1.556514 1_554
B3 O13 1.558205 1_655
