# generated using pymatgen
data_Li4V3P8O29
_symmetry_space_group_name_H-M   'P 1'
_cell_length_a   9.75913300
_cell_length_b   9.78213693
_cell_length_c   14.22878123
_cell_angle_alpha   89.88780963
_cell_angle_beta   89.77756566
_cell_angle_gamma   60.21021409
_symmetry_Int_Tables_number   1
_chemical_formula_structural   Li4V3P8O29
_chemical_formula_sum   'Li8 V6 P16 O58'
_cell_volume   1178.84332948
_cell_formula_units_Z   2
loop_
 _symmetry_equiv_pos_site_id
 _symmetry_equiv_pos_as_xyz
  1  'x, y, z'
loop_
 _atom_site_type_symbol
 _atom_site_label
 _atom_site_symmetry_multiplicity
 _atom_site_fract_x
 _atom_site_fract_y
 _atom_site_fract_z
 _atom_site_occupancy
  Li  Li0  1  0.68600900  0.08624700  0.06138400  1
  Li  Li1  1  0.67264000  0.23370800  0.55891800  1
  Li  Li2  1  0.23499400  0.09330200  0.55603000  1
  Li  Li3  1  0.08591400  0.23078900  0.06223000  1
  Li  Li4  1  0.23393500  0.66965500  0.05913200  1
  Li  Li5  1  0.09787300  0.66616500  0.55680500  1
  Li  Li6  1  0.31114000  0.91323900  0.94139300  1
  Li  Li7  1  0.00119500  0.99911000  0.49111200  1
  V  V0  1  0.99611600  0.43686900  0.25312000  1
  V  V1  1  0.00149800  0.56517700  0.75015700  1
  V  V2  1  0.56608200  0.43323800  0.74965100  1
  V  V3  1  0.43737300  0.56556000  0.25330600  1
  V  V4  1  0.56840000  0.99846100  0.25095700  1
  V  V5  1  0.43398200  0.00291100  0.74691800  1
  P  P0  1  0.68135300  0.08766500  0.84255700  1
  P  P1  1  0.68839600  0.22600500  0.34308700  1
  P  P2  1  0.22356000  0.08645100  0.34107600  1
  P  P3  1  0.33269300  0.33465600  0.13125600  1
  P  P4  1  0.33160000  0.33636200  0.62813400  1
  P  P5  1  0.08724400  0.23111400  0.84501200  1
  P  P6  1  0.91715300  0.30620100  0.66274700  1
  P  P7  1  0.23012900  0.68150300  0.84199100  1
  P  P8  1  0.77363800  0.31365400  0.16121500  1
  P  P9  1  0.08520600  0.68931500  0.34242600  1
  P  P10  1  0.91530100  0.77240700  0.16038700  1
  P  P11  1  0.66723700  0.66693600  0.36862700  1
  P  P12  1  0.66459000  0.66735300  0.86594800  1
  P  P13  1  0.78011600  0.91525900  0.66144700  1
  P  P14  1  0.30829500  0.77601000  0.66015700  1
  P  P15  1  0.31781800  0.91100000  0.16033400  1
  O  O0  1  0.79788900  0.00620700  0.58263900  1
  O  O1  1  0.65585800  0.08871700  0.32911400  1
  O  O2  1  0.76833100  0.22460100  0.07864600  1
  O  O3  1  0.65818500  0.25629000  0.82728300  1
  O  O4  1  0.52020400  0.09844200  0.81856800  1
  O  O5  1  0.48262400  0.18424800  0.16708600  1
  O  O6  1  0.37947700  0.08508700  0.33072400  1
  O  O7  1  0.23958700  0.99933100  0.07181200  1
  O  O8  1  0.25215400  0.08203700  0.83600600  1
  O  O9  1  0.48719200  0.32651700  0.66918100  1
  O  O10  1  0.53014900  0.38363400  0.32818100  1
  O  O11  1  0.32112900  0.19124300  0.66426100  1
  O  O12  1  0.32300000  0.34582400  0.02671900  1
  O  O13  1  0.32677300  0.34962700  0.52373400  1
  O  O14  1  0.18252900  0.33563200  0.17467900  1
  O  O15  1  0.38113600  0.52052500  0.82088400  1
  O  O16  1  0.33641900  0.48237600  0.17429600  1
  O  O17  1  0.08302900  0.25786100  0.32806100  1
  O  O18  1  0.98330300  0.21655400  0.76193500  1
  O  O19  1  0.00936300  0.20123600  0.58338400  1
  O  O20  1  0.01284100  0.24409100  0.93751600  1
  O  O21  1  0.09947300  0.38091900  0.81942500  1
  O  O22  1  0.18673800  0.49031200  0.67215300  1
  O  O23  1  0.91691900  0.34174800  0.15991300  1
  O  O24  1  0.08492800  0.53165700  0.32901300  1
  O  O25  1  0.25694300  0.65731800  0.32874200  1
  O  O26  1  0.80118700  0.21379300  0.25756200  1
  O  O27  1  0.76729800  0.21427800  0.43454000  1
  O  O28  1  0.20484400  0.78750200  0.58048000  1
  O  O29  1  0.74256900  0.34202600  0.66026500  1
  O  O30  1  0.92094400  0.46268800  0.67137700  1
  O  O31  1  0.08459600  0.65969200  0.83374300  1
  O  O32  1  0.81340600  0.51528700  0.32200800  1
  O  O33  1  0.90769700  0.61934300  0.17884600  1
  O  O34  1  0.01302000  0.76253700  0.07835600  1
  O  O35  1  0.01920600  0.76944700  0.43404600  1
  O  O36  1  0.98896500  0.80054600  0.25673900  1
  O  O37  1  0.92030200  0.74079200  0.66178400  1
  O  O38  1  0.65952000  0.52235800  0.81769000  1
  O  O39  1  0.61975000  0.47313300  0.17801300  1
  O  O40  1  0.81586500  0.66001600  0.81876900  1
  O  O41  1  0.66914800  0.65755200  0.96954300  1
  O  O42  1  0.66782000  0.65431400  0.47201000  1
  O  O43  1  0.67299300  0.80852800  0.32639500  1
  O  O44  1  0.46383100  0.61674500  0.67074700  1
  O  O45  1  0.51716300  0.66744100  0.32245800  1
  O  O46  1  0.74659500  0.91558500  0.15897800  1
  O  O47  1  0.80249600  0.98426400  0.76093600  1
  O  O48  1  0.74164500  0.01873600  0.93565900  1
  O  O49  1  0.62320700  0.91660300  0.66859700  1
  O  O50  1  0.51526600  0.81690400  0.82846200  1
  O  O51  1  0.47636100  0.90378300  0.17767400  1
  O  O52  1  0.34066700  0.74207700  0.15952400  1
  O  O53  1  0.24448200  0.74997800  0.93283600  1
  O  O54  1  0.21394900  0.79927000  0.75885300  1
  O  O55  1  0.34337200  0.91444400  0.65999600  1
  O  O56  1  0.20139500  0.01893200  0.43043000  1
  O  O57  1  0.20639000  0.99413100  0.25069200  1
loop_
_geom_bond_atom_site_label_1
_geom_bond_atom_site_label_2
_geom_bond_distance
_geom_bond_site_symmetry_2
Li0 O48 1.889958 1_554
Li0 O2 1.902807 1_555
Li0 O46 2.020259 1_545
Li0 O5 2.283094 1_555
Li1 O27 1.958484 1_555
Li1 O0 1.964168 1_555
Li1 O29 2.097634 1_555
Li1 O9 2.216310 1_555
Li2 O19 1.949295 1_555
Li2 O56 2.019230 1_555
Li2 O55 2.128718 1_545
Li2 O11 2.193665 1_555
Li3 O20 1.895034 1_554
Li3 O7 2.005124 1_545
Li3 O23 2.009818 1_455
Li3 O14 2.340915 1_555
Li4 O34 1.896951 1_555
Li4 O53 1.982601 1_554
Li4 O52 2.091907 1_555
Li4 O16 2.285169 1_555
Li5 O28 1.961535 1_555
Li5 O35 1.973305 1_555
Li5 O37 2.119990 1_455
Li5 O22 2.218702 1_555
Li6 O53 2.005550 1_555
Li6 O7 2.013011 1_556
Li6 O8 2.087815 1_565
Li6 O50 2.356747 1_555
Li7 O56 2.227788 1_565
Li7 O35 2.313235 1_555
Li7 O0 2.341130 1_465
Li7 O27 2.349948 1_465
Li7 O28 2.402751 1_555
Li7 O19 2.409794 1_565
O0 P13 1.492284 1_545
O1 P1 1.539222 1_555
O1 V4 1.872084 1_545
O2 P8 1.480252 1_555
O3 P0 1.564494 1_555
O3 V2 1.865069 1_555
O4 P0 1.562119 1_555
O4 V5 1.847272 1_555
O5 P3 1.558636 1_555
O5 V4 1.978742 1_545
O6 P2 1.521604 1_555
O6 V4 1.959768 1_545
O7 P15 1.504559 1_555
O8 P5 1.549275 1_555
O8 V5 1.994084 1_555
O9 P4 1.586638 1_555
O9 V2 1.950321 1_555
O10 P1 1.562919 1_555
O10 V3 1.876404 1_555
O11 P4 1.559086 1_555
O11 V5 1.993917 1_555
O12 P3 1.491151 1_555
O13 P4 1.489777 1_555
O14 P3 1.583834 1_555
O14 V0 1.932474 1_455
O15 P7 1.560199 1_555
O15 V2 1.863313 1_555
O16 P3 1.587541 1_555
O16 V3 1.924952 1_555
O17 P2 1.562847 1_555
O17 V0 1.856517 1_455
O18 P5 1.612479 1_655
O18 P6 1.617814 1_555
O19 P6 1.489228 1_455
O20 P5 1.475611 1_555
O21 P5 1.570215 1_555
O21 V1 1.849954 1_555
O22 P4 1.593795 1_555
O22 V1 1.925719 1_555
O23 P8 1.553294 1_555
O23 V0 1.987315 1_555
O24 P9 1.555707 1_555
O24 V0 1.893888 1_455
O25 P9 1.556060 1_555
O25 V3 1.864664 1_555
O26 P1 1.601968 1_555
O26 P8 1.625592 1_555
O27 P1 1.489563 1_555
O28 P14 1.487555 1_555
O29 P6 1.560156 1_555
O29 V2 1.959766 1_555
O30 P6 1.554597 1_555
O30 V1 1.916777 1_655
O31 P7 1.542391 1_555
O31 V1 1.919318 1_555
O32 P11 1.602916 1_555
O32 V0 1.832730 1_555
O33 P10 1.557270 1_555
O33 V0 1.875336 1_555
O34 P10 1.476971 1_455
O35 P9 1.491507 1_555
O36 P9 1.593991 1_655
O36 P10 1.636428 1_555
O37 P13 1.569839 1_555
O37 V1 1.951123 1_655
O38 P12 1.599843 1_555
O38 V2 1.824506 1_555
O39 P8 1.554668 1_555
O39 V3 1.876978 1_555
O40 P12 1.588239 1_555
O40 V1 1.848120 1_655
O41 P12 1.476365 1_555
O42 P11 1.475742 1_555
O43 P11 1.535077 1_555
O43 V4 1.939674 1_555
O44 P14 1.550813 1_555
O44 V2 1.923409 1_555
O45 P11 1.605266 1_555
O45 V3 1.829928 1_555
O46 P10 1.543248 1_555
O46 V4 1.994969 1_555
O47 P0 1.604777 1_565
O47 P13 1.630929 1_555
O48 P0 1.471087 1_555
O49 P13 1.527803 1_555
O49 V5 1.950240 1_565
O50 P12 1.559793 1_555
O50 V5 1.962378 1_565
O51 P15 1.534332 1_555
O51 V4 1.894596 1_555
O52 P15 1.553803 1_555
O52 V3 2.008575 1_555
O53 P7 1.495717 1_555
O54 P7 1.602126 1_555
O54 P14 1.629324 1_555
O55 P14 1.552930 1_555
O55 V5 1.957952 1_565
O56 P2 1.495331 1_555
O57 P15 1.615971 1_555
O57 P2 1.629160 1_565
