# generated using pymatgen
data_Ti2V(PO4)3
_symmetry_space_group_name_H-M   'P 1'
_cell_length_a   8.58437284
_cell_length_b   8.58437284
_cell_length_c   8.58437258
_cell_angle_alpha   60.90825014
_cell_angle_beta   60.90825014
_cell_angle_gamma   60.90825075
_symmetry_Int_Tables_number   1
_chemical_formula_structural   Ti2V(PO4)3
_chemical_formula_sum   'Ti4 V2 P6 O24'
_cell_volume   456.46903875
_cell_formula_units_Z   2
loop_
 _symmetry_equiv_pos_site_id
 _symmetry_equiv_pos_as_xyz
  1  'x, y, z'
loop_
 _atom_site_type_symbol
 _atom_site_label
 _atom_site_symmetry_multiplicity
 _atom_site_fract_x
 _atom_site_fract_y
 _atom_site_fract_z
 _atom_site_occupancy
  Ti  Ti0  1  0.35637500  0.35637500  0.35637500  1
  Ti  Ti1  1  0.85637500  0.85637500  0.85637500  1
  Ti  Ti2  1  0.14362500  0.14362500  0.14362500  1
  Ti  Ti3  1  0.64362500  0.64362500  0.64362500  1
  V  V0  1  0.00000000  0.00000000  0.00000000  1
  V  V1  1  0.50000000  0.50000000  0.50000000  1
  P  P0  1  0.75000000  0.04264400  0.45735600  1
  P  P1  1  0.04264400  0.45735600  0.75000000  1
  P  P2  1  0.45735600  0.75000000  0.04264400  1
  P  P3  1  0.54264400  0.25000000  0.95735600  1
  P  P4  1  0.95735600  0.54264400  0.25000000  1
  P  P5  1  0.25000000  0.95735600  0.54264400  1
  O  O0  1  0.88541300  0.50079600  0.68263200  1
  O  O1  1  0.50079600  0.68263200  0.88541300  1
  O  O2  1  0.68263200  0.88541300  0.50079600  1
  O  O3  1  0.90987000  0.05700200  0.26260700  1
  O  O4  1  0.81736800  0.99920400  0.61458700  1
  O  O5  1  0.59013000  0.23739300  0.44299800  1
  O  O6  1  0.05700200  0.26260700  0.90987000  1
  O  O7  1  0.23739300  0.44299800  0.59013000  1
  O  O8  1  0.38541300  0.18263200  0.00079600  1
  O  O9  1  0.44299800  0.59013000  0.23739300  1
  O  O10  1  0.73739300  0.09013000  0.94299800  1
  O  O11  1  0.00079600  0.38541300  0.18263200  1
  O  O12  1  0.99920400  0.61458700  0.81736800  1
  O  O13  1  0.26260700  0.90987000  0.05700200  1
  O  O14  1  0.55700200  0.40987000  0.76260700  1
  O  O15  1  0.61458700  0.81736800  0.99920400  1
  O  O16  1  0.76260700  0.55700200  0.40987000  1
  O  O17  1  0.94299800  0.73739300  0.09013000  1
  O  O18  1  0.40987000  0.76260700  0.55700200  1
  O  O19  1  0.18263200  0.00079600  0.38541300  1
  O  O20  1  0.09013000  0.94299800  0.73739300  1
  O  O21  1  0.31736800  0.11458700  0.49920400  1
  O  O22  1  0.49920400  0.31736800  0.11458700  1
  O  O23  1  0.11458700  0.49920400  0.31736800  1
loop_
_geom_bond_atom_site_label_1
_geom_bond_atom_site_label_2
_geom_bond_distance
_geom_bond_site_symmetry_2
O0 P1 1.534654 1_655
O0 Ti3 1.930146 1_555
O1 P2 1.534654 1_556
O1 Ti3 1.930146 1_555
O2 P0 1.534654 1_565
O2 Ti3 1.930146 1_555
O3 P0 1.557749 1_555
O3 Ti2 2.083792 1_655
O3 V0 2.220011 1_655
O4 P0 1.534654 1_565
O4 Ti1 1.930146 1_555
O5 P0 1.557749 1_555
O5 Ti0 2.083792 1_555
O5 V1 2.220011 1_555
O6 P1 1.557749 1_555
O6 Ti2 2.083792 1_556
O6 V0 2.220011 1_556
O7 P1 1.557749 1_555
O7 Ti0 2.083792 1_555
O7 V1 2.220011 1_555
O8 P3 1.534654 1_554
O8 Ti2 1.930146 1_555
O9 P2 1.557749 1_555
O9 Ti0 2.083792 1_555
O9 V1 2.220011 1_555
O10 P3 1.557749 1_555
O10 Ti1 2.083792 1_545
O10 V0 2.220011 1_656
O11 P4 1.534654 1_455
O11 Ti2 1.930146 1_555
O12 P1 1.534654 1_655
O12 Ti1 1.930146 1_555
O13 P2 1.557749 1_555
O13 Ti2 2.083792 1_565
O13 V0 2.220011 1_565
O14 P3 1.557749 1_555
O14 Ti3 2.083792 1_555
O14 V1 2.220011 1_555
O15 P2 1.534654 1_556
O15 Ti1 1.930146 1_555
O16 P4 1.557749 1_555
O16 Ti3 2.083792 1_555
O16 V1 2.220011 1_555
O17 P4 1.557749 1_555
O17 Ti1 2.083792 1_554
O17 V0 2.220011 1_665
O18 P5 1.557749 1_555
O18 Ti3 2.083792 1_555
O18 V1 2.220011 1_555
O19 P5 1.534654 1_545
O19 Ti2 1.930146 1_555
O20 P5 1.557749 1_555
O20 Ti1 2.083792 1_455
O20 V0 2.220011 1_566
O21 P5 1.534654 1_545
O21 Ti0 1.930146 1_555
O22 P3 1.534654 1_554
O22 Ti0 1.930146 1_555
O23 P4 1.534654 1_455
O23 Ti0 1.930146 1_555
