# generated using pymatgen
data_Li3Cr2(PS4)3
_symmetry_space_group_name_H-M   'P 1'
_cell_length_a   10.73783600
_cell_length_b   9.70839800
_cell_length_c   17.50965480
_cell_angle_alpha   85.55444796
_cell_angle_beta   90.00000000
_cell_angle_gamma   90.00000000
_symmetry_Int_Tables_number   1
_chemical_formula_structural   Li3Cr2(PS4)3
_chemical_formula_sum   'Li12 Cr8 P12 S48'
_cell_volume   1819.84061616
_cell_formula_units_Z   4
loop_
 _symmetry_equiv_pos_site_id
 _symmetry_equiv_pos_as_xyz
  1  'x, y, z'
loop_
 _atom_site_type_symbol
 _atom_site_label
 _atom_site_symmetry_multiplicity
 _atom_site_fract_x
 _atom_site_fract_y
 _atom_site_fract_z
 _atom_site_occupancy
  Li  Li0  1  0.41968800  0.76206300  0.95979100  1
  Li  Li1  1  0.91025600  0.48666400  0.85102300  1
  Li  Li2  1  0.12649400  0.00612200  0.77519100  1
  Li  Li3  1  0.62649400  0.49387800  0.72480900  1
  Li  Li4  1  0.41025600  0.01333600  0.64897700  1
  Li  Li5  1  0.91968800  0.73793700  0.54020900  1
  Li  Li6  1  0.08031200  0.26206300  0.45979100  1
  Li  Li7  1  0.58974400  0.98666400  0.35102300  1
  Li  Li8  1  0.37350600  0.50612200  0.27519100  1
  Li  Li9  1  0.87350600  0.99387800  0.22480900  1
  Li  Li10  1  0.08974400  0.51333600  0.14897700  1
  Li  Li11  1  0.58031200  0.23793700  0.04020900  1
  Cr  Cr0  1  0.77697900  0.89784800  0.90147700  1
  Cr  Cr1  1  0.26673400  0.42541800  0.78633200  1
  Cr  Cr2  1  0.76673400  0.07458200  0.71366800  1
  Cr  Cr3  1  0.27697900  0.60215200  0.59852300  1
  Cr  Cr4  1  0.72302100  0.39784800  0.40147700  1
  Cr  Cr5  1  0.23326600  0.92541800  0.28633200  1
  Cr  Cr6  1  0.73326600  0.57458200  0.21366800  1
  Cr  Cr7  1  0.22302100  0.10215200  0.09852300  1
  P  P0  1  0.23653100  0.27025800  0.94388900  1
  P  P1  1  0.69701900  0.20688000  0.86802600  1
  P  P2  1  0.85840000  0.77118900  0.75048200  1
  P  P3  1  0.35840000  0.72881100  0.74951800  1
  P  P4  1  0.19701900  0.29312000  0.63197400  1
  P  P5  1  0.73653100  0.22974200  0.55611100  1
  P  P6  1  0.26346900  0.77025800  0.44388900  1
  P  P7  1  0.80298100  0.70688000  0.36802600  1
  P  P8  1  0.64160000  0.27118900  0.25048200  1
  P  P9  1  0.14160000  0.22881100  0.24951800  1
  P  P10  1  0.30298100  0.79312000  0.13197400  1
  P  P11  1  0.76346900  0.72974200  0.05611100  1
  S  S0  1  0.66347800  0.70454800  0.95718300  1
  S  S1  1  0.11936800  0.11210000  0.97733900  1
  S  S2  1  0.61637000  0.05487700  0.93899100  1
  S  S3  1  0.14657400  0.44825700  0.90097900  1
  S  S4  1  0.71664400  0.38147100  0.91894000  1
  S  S5  1  0.94628200  0.75945400  0.85514600  1
  S  S6  1  0.35800100  0.23545400  0.85794400  1
  S  S7  1  0.43775000  0.57634000  0.82226500  1
  S  S8  1  0.86425700  0.10952600  0.83779000  1
  S  S9  1  0.34730000  0.91399800  0.79409700  1
  S  S10  1  0.68567600  0.85928300  0.77631100  1
  S  S11  1  0.61208700  0.22704800  0.76176600  1
  S  S12  1  0.11208700  0.27295200  0.73823400  1
  S  S13  1  0.18567600  0.64071700  0.72368900  1
  S  S14  1  0.84730000  0.58600200  0.70590300  1
  S  S15  1  0.93775000  0.92366000  0.67773500  1
  S  S16  1  0.36425700  0.39047400  0.66221000  1
  S  S17  1  0.44628200  0.74054600  0.64485400  1
  S  S18  1  0.85800100  0.26454600  0.64205600  1
  S  S19  1  0.21664400  0.11852900  0.58106000  1
  S  S20  1  0.64657400  0.05174300  0.59902100  1
  S  S21  1  0.11637000  0.44512300  0.56100900  1
  S  S22  1  0.16347800  0.79545200  0.54281700  1
  S  S23  1  0.61936800  0.38790000  0.52266100  1
  S  S24  1  0.38063200  0.61210000  0.47733900  1
  S  S25  1  0.83652200  0.20454800  0.45718300  1
  S  S26  1  0.88363000  0.55487700  0.43899100  1
  S  S27  1  0.35342600  0.94825700  0.40097900  1
  S  S28  1  0.78335600  0.88147100  0.41894000  1
  S  S29  1  0.14199900  0.73545400  0.35794400  1
  S  S30  1  0.55371800  0.25945400  0.35514600  1
  S  S31  1  0.63574300  0.60952600  0.33779000  1
  S  S32  1  0.06225000  0.07634000  0.32226500  1
  S  S33  1  0.15270000  0.41399800  0.29409700  1
  S  S34  1  0.81432400  0.35928300  0.27631100  1
  S  S35  1  0.88791300  0.72704800  0.26176600  1
  S  S36  1  0.38791300  0.77295200  0.23823400  1
  S  S37  1  0.31432400  0.14071700  0.22368900  1
  S  S38  1  0.65270000  0.08600200  0.20590300  1
  S  S39  1  0.13574300  0.89047400  0.16221000  1
  S  S40  1  0.56225000  0.42366000  0.17773500  1
  S  S41  1  0.64199900  0.76454600  0.14205600  1
  S  S42  1  0.05371800  0.24054600  0.14485400  1
  S  S43  1  0.28335600  0.61852900  0.08106000  1
  S  S44  1  0.85342600  0.55174300  0.09902100  1
  S  S45  1  0.38363000  0.94512300  0.06100900  1
  S  S46  1  0.88063200  0.88790000  0.02266100  1
  S  S47  1  0.33652200  0.29545200  0.04281700  1
loop_
_geom_bond_atom_site_label_1
_geom_bond_atom_site_label_2
_geom_bond_distance
_geom_bond_site_symmetry_2
Li0 S45 2.633956 1_556
Li0 S0 2.677794 1_555
Li0 S43 2.852170 1_556
Li1 S4 2.567300 1_555
Li1 S5 2.682960 1_555
Li1 S3 2.700504 1_655
Li1 S14 2.732009 1_555
Li2 S9 2.546593 1_545
Li2 S12 2.625539 1_555
Li2 S15 2.805725 1_445
Li3 S14 2.546593 1_555
Li3 S11 2.625539 1_555
Li3 S7 2.805725 1_555
Li4 S19 2.567300 1_555
Li4 S17 2.682960 1_545
Li4 S20 2.700504 1_555
Li4 S9 2.732009 1_545
Li5 S26 2.633956 1_555
Li5 S22 2.677794 1_655
Li5 S28 2.852170 1_555
Li6 S21 2.633956 1_555
Li6 S25 2.677794 1_455
Li6 S19 2.852170 1_555
Li7 S28 2.567300 1_555
Li7 S30 2.682960 1_565
Li7 S27 2.700504 1_555
Li7 S38 2.732009 1_565
Li8 S33 2.546593 1_555
Li8 S36 2.625539 1_555
Li8 S40 2.805725 1_555
Li9 S38 2.546593 1_565
Li9 S35 2.625539 1_555
Li9 S32 2.805725 1_665
Li10 S43 2.567300 1_555
Li10 S42 2.682960 1_555
Li10 S44 2.700504 1_455
Li10 S33 2.732009 1_555
Li11 S2 2.633956 1_554
Li11 S47 2.677794 1_555
Li11 S4 2.852170 1_554
Cr0 S0 2.382172 1_555
Cr0 S46 2.391394 1_556
Cr0 S2 2.425906 1_565
Cr0 S5 2.436644 1_555
Cr0 S8 2.447410 1_565
Cr0 S10 2.455958 1_555
Cr1 S6 2.361237 1_555
Cr1 S3 2.410955 1_555
Cr1 S12 2.418888 1_555
Cr1 S13 2.444223 1_555
Cr1 S16 2.459546 1_555
Cr1 S7 2.461253 1_555
Cr2 S18 2.361237 1_555
Cr2 S20 2.410955 1_555
Cr2 S11 2.418888 1_555
Cr2 S10 2.444223 1_545
Cr2 S8 2.459546 1_555
Cr2 S15 2.461253 1_545
Cr3 S22 2.382172 1_555
Cr3 S24 2.391394 1_555
Cr3 S21 2.425906 1_555
Cr3 S17 2.436644 1_555
Cr3 S16 2.447410 1_555
Cr3 S13 2.455958 1_555
Cr4 S25 2.382172 1_555
Cr4 S23 2.391394 1_555
Cr4 S26 2.425906 1_555
Cr4 S30 2.436644 1_555
Cr4 S31 2.447410 1_555
Cr4 S34 2.455958 1_555
Cr5 S29 2.361237 1_555
Cr5 S27 2.410955 1_555
Cr5 S36 2.418888 1_555
Cr5 S37 2.444223 1_565
Cr5 S39 2.459546 1_555
Cr5 S32 2.461253 1_565
Cr6 S41 2.361237 1_555
Cr6 S44 2.410955 1_555
Cr6 S35 2.418888 1_555
Cr6 S34 2.444223 1_555
Cr6 S31 2.459546 1_555
Cr6 S40 2.461253 1_555
Cr7 S47 2.382172 1_555
Cr7 S1 2.391394 1_554
Cr7 S45 2.425906 1_545
Cr7 S42 2.436644 1_555
Cr7 S39 2.447410 1_545
Cr7 S37 2.455958 1_555
P0 S1 2.035688 1_555
P0 S6 2.039335 1_555
P0 S47 2.068529 1_556
P0 S3 2.069434 1_555
P1 S4 1.986562 1_555
P1 S2 2.046309 1_555
P1 S11 2.067686 1_555
P1 S8 2.115650 1_555
P2 S14 2.018259 1_555
P2 S5 2.056610 1_555
P2 S15 2.060904 1_555
P2 S10 2.106134 1_555
P3 S9 2.018259 1_555
P3 S17 2.056610 1_555
P3 S7 2.060904 1_555
P3 S13 2.106134 1_555
P4 S19 1.986562 1_555
P4 S21 2.046309 1_555
P4 S12 2.067686 1_555
P4 S16 2.115650 1_555
P5 S23 2.035688 1_555
P5 S18 2.039335 1_555
P5 S25 2.068529 1_555
P5 S20 2.069434 1_555
P6 S24 2.035688 1_555
P6 S29 2.039335 1_555
P6 S22 2.068529 1_555
P6 S27 2.069434 1_555
P7 S28 1.986562 1_555
P7 S26 2.046309 1_555
P7 S35 2.067686 1_555
P7 S31 2.115650 1_555
P8 S38 2.018259 1_555
P8 S30 2.056610 1_555
P8 S40 2.060904 1_555
P8 S34 2.106134 1_555
P9 S33 2.018259 1_555
P9 S42 2.056610 1_555
P9 S32 2.060904 1_555
P9 S37 2.106134 1_555
P10 S43 1.986562 1_555
P10 S45 2.046309 1_555
P10 S36 2.067686 1_555
P10 S39 2.115650 1_555
P11 S46 2.035688 1_555
P11 S41 2.039335 1_555
P11 S0 2.068529 1_554
P11 S44 2.069434 1_555
