# generated using pymatgen
data_LiNdTi2O6
_symmetry_space_group_name_H-M   'P 1'
_cell_length_a   5.38743300
_cell_length_b   5.38743300
_cell_length_c   7.91891700
_cell_angle_alpha   90.00000000
_cell_angle_beta   90.00000000
_cell_angle_gamma   90.00000000
_symmetry_Int_Tables_number   1
_chemical_formula_structural   LiNdTi2O6
_chemical_formula_sum   'Li2 Nd2 Ti4 O12'
_cell_volume   229.84208643
_cell_formula_units_Z   2
loop_
 _symmetry_equiv_pos_site_id
 _symmetry_equiv_pos_as_xyz
  1  'x, y, z'
loop_
 _atom_site_type_symbol
 _atom_site_label
 _atom_site_symmetry_multiplicity
 _atom_site_fract_x
 _atom_site_fract_y
 _atom_site_fract_z
 _atom_site_occupancy
  Li  Li0  1  0.00000000  0.50000000  0.00000000  1
  Li  Li1  1  0.50000000  0.00000000  0.00000000  1
  Nd  Nd0  1  0.00000000  0.50000000  0.50000000  1
  Nd  Nd1  1  0.50000000  0.00000000  0.50000000  1
  Ti  Ti0  1  0.00000000  0.00000000  0.23611800  1
  Ti  Ti1  1  0.00000000  0.00000000  0.76388200  1
  Ti  Ti2  1  0.50000000  0.50000000  0.23611800  1
  Ti  Ti3  1  0.50000000  0.50000000  0.76388200  1
  O  O0  1  0.00000000  0.00000000  0.00000000  1
  O  O1  1  0.00000000  0.00000000  0.50000000  1
  O  O2  1  0.19388700  0.69388700  0.74166300  1
  O  O3  1  0.19388700  0.30611300  0.25833700  1
  O  O4  1  0.30611300  0.80611300  0.25833700  1
  O  O5  1  0.30611300  0.19388700  0.74166300  1
  O  O6  1  0.50000000  0.50000000  0.00000000  1
  O  O7  1  0.50000000  0.50000000  0.50000000  1
  O  O8  1  0.69388700  0.80611300  0.74166300  1
  O  O9  1  0.69388700  0.19388700  0.25833700  1
  O  O10  1  0.80611300  0.69388700  0.25833700  1
  O  O11  1  0.80611300  0.30611300  0.74166300  1
loop_
_geom_bond_atom_site_label_1
_geom_bond_atom_site_label_2
_geom_bond_distance
_geom_bond_site_symmetry_2
Li0 O3 2.523346 1_555
Li0 O11 2.523346 1_454
Li0 O2 2.523346 1_554
Li0 O10 2.523346 1_455
Li1 O4 2.523346 1_545
Li1 O9 2.523346 1_555
Li1 O5 2.523346 1_554
Li1 O8 2.523346 1_544
Nd0 O11 2.417533 1_455
Nd0 O2 2.417533 1_555
Nd0 O10 2.417533 1_455
Nd0 O3 2.417533 1_555
Nd0 O1 2.693716 1_565
Nd0 O7 2.693716 1_455
Nd0 O1 2.693716 1_555
Nd0 O7 2.693716 1_555
Nd1 O8 2.417533 1_545
Nd1 O5 2.417533 1_555
Nd1 O4 2.417533 1_545
Nd1 O9 2.417533 1_555
Nd1 O1 2.693716 1_655
Nd1 O7 2.693716 1_545
Nd1 O1 2.693716 1_555
Nd1 O7 2.693716 1_555
O0 Ti0 1.869799 1_555
O0 Ti1 1.869799 1_554
O1 Ti1 2.089660 1_555
O1 Ti0 2.089660 1_555
O2 Ti1 1.960048 1_565
O2 Ti3 1.960048 1_555
O3 Ti2 1.960048 1_555
O3 Ti0 1.960048 1_555
O4 Ti2 1.960048 1_555
O4 Ti0 1.960048 1_565
O5 Ti3 1.960048 1_555
O5 Ti1 1.960048 1_555
O6 Ti2 1.869799 1_555
O6 Ti3 1.869799 1_554
O7 Ti3 2.089660 1_555
O7 Ti2 2.089660 1_555
O8 Ti3 1.960048 1_555
O8 Ti1 1.960048 1_665
O9 Ti0 1.960048 1_655
O9 Ti2 1.960048 1_555
O10 Ti2 1.960048 1_555
O10 Ti0 1.960048 1_665
O11 Ti3 1.960048 1_555
O11 Ti1 1.960048 1_655
