# generated using pymatgen
data_CS3
_symmetry_space_group_name_H-M   'P 1'
_cell_length_a   22.90630600
_cell_length_b   5.91854200
_cell_length_c   13.49461968
_cell_angle_alpha   89.91842496
_cell_angle_beta   90.00000000
_cell_angle_gamma   90.00000000
_symmetry_Int_Tables_number   1
_chemical_formula_structural   CS3
_chemical_formula_sum   'C16 S48'
_cell_volume   1829.48983569
_cell_formula_units_Z   16
loop_
 _symmetry_equiv_pos_site_id
 _symmetry_equiv_pos_as_xyz
  1  'x, y, z'
loop_
 _atom_site_type_symbol
 _atom_site_label
 _atom_site_symmetry_multiplicity
 _atom_site_fract_x
 _atom_site_fract_y
 _atom_site_fract_z
 _atom_site_occupancy
  C  C0  1  0.64532500  0.55035500  0.45610200  1
  C  C1  1  0.14532500  0.44964500  0.04389800  1
  C  C2  1  0.35467500  0.44964500  0.54389800  1
  C  C3  1  0.85467500  0.55035500  0.95610200  1
  C  C4  1  0.48543300  0.06217600  0.28052100  1
  C  C5  1  0.98543300  0.93782400  0.21947900  1
  C  C6  1  0.51456700  0.93782400  0.71947900  1
  C  C7  1  0.01456700  0.06217600  0.78052100  1
  C  C8  1  0.60449500  0.51878100  0.04408700  1
  C  C9  1  0.10449500  0.48121900  0.45591300  1
  C  C10  1  0.39550500  0.48121900  0.95591300  1
  C  C11  1  0.89550500  0.51878100  0.54408700  1
  C  C12  1  0.76292800  0.07998500  0.21747300  1
  C  C13  1  0.26292800  0.92001500  0.28252700  1
  C  C14  1  0.23707200  0.92001500  0.78252700  1
  C  C15  1  0.73707200  0.07998500  0.71747300  1
  S  S0  1  0.58543200  0.66201200  0.50742600  1
  S  S1  1  0.08543200  0.33798800  0.99257400  1
  S  S2  1  0.41456800  0.33798800  0.49257400  1
  S  S3  1  0.91456800  0.66201200  0.00742600  1
  S  S4  1  0.66754900  0.29590200  0.49377300  1
  S  S5  1  0.16754900  0.70409800  0.00622700  1
  S  S6  1  0.33245100  0.70409800  0.50622700  1
  S  S7  1  0.83245100  0.29590200  0.99377300  1
  S  S8  1  0.68073900  0.69542800  0.36845500  1
  S  S9  1  0.18073900  0.30457200  0.13154500  1
  S  S10  1  0.31926100  0.30457200  0.63154500  1
  S  S11  1  0.81926100  0.69542800  0.86845500  1
  S  S12  1  0.54559800  0.17984500  0.32788600  1
  S  S13  1  0.04559800  0.82015500  0.17211400  1
  S  S14  1  0.45440200  0.82015500  0.67211400  1
  S  S15  1  0.95440200  0.17984500  0.82788600  1
  S  S16  1  0.44957500  0.19014100  0.18846000  1
  S  S17  1  0.94957500  0.80985900  0.31154000  1
  S  S18  1  0.55042500  0.80985900  0.81154000  1
  S  S19  1  0.05042500  0.19014100  0.68846000  1
  S  S20  1  0.46137900  0.81777900  0.32686100  1
  S  S21  1  0.96137900  0.18222100  0.17313900  1
  S  S22  1  0.53862100  0.18222100  0.67313900  1
  S  S23  1  0.03862100  0.81777900  0.82686100  1
  S  S24  1  0.66185300  0.64506000  0.99117600  1
  S  S25  1  0.16185300  0.35494000  0.50882400  1
  S  S26  1  0.33814700  0.35494000  0.00882400  1
  S  S27  1  0.83814700  0.64506000  0.49117600  1
  S  S28  1  0.58257800  0.26884600  0.00055100  1
  S  S29  1  0.08257800  0.73115400  0.49944900  1
  S  S30  1  0.41742200  0.73115400  0.99944900  1
  S  S31  1  0.91742200  0.26884600  0.50055100  1
  S  S32  1  0.56995500  0.64090700  0.13902000  1
  S  S33  1  0.06995500  0.35909300  0.36098000  1
  S  S34  1  0.43004500  0.35909300  0.86098000  1
  S  S35  1  0.93004500  0.64090700  0.63902000  1
  S  S36  1  0.79634300  0.24078100  0.30149100  1
  S  S37  1  0.29634300  0.75921900  0.19850900  1
  S  S38  1  0.20365700  0.75921900  0.69850900  1
  S  S39  1  0.70365700  0.24078100  0.80149100  1
  S  S40  1  0.69771900  0.15521900  0.17300900  1
  S  S41  1  0.19771900  0.84478100  0.32699100  1
  S  S42  1  0.30228100  0.84478100  0.82699100  1
  S  S43  1  0.80228100  0.15521900  0.67300900  1
  S  S44  1  0.79390900  0.84173300  0.17733400  1
  S  S45  1  0.29390900  0.15826700  0.32266600  1
  S  S46  1  0.20609100  0.15826700  0.82266600  1
  S  S47  1  0.70609100  0.84173300  0.67733400  1
loop_
_geom_bond_atom_site_label_1
_geom_bond_atom_site_label_2
_geom_bond_distance
_geom_bond_site_symmetry_2
C0 S4 1.668354 1_555
C0 S8 1.670724 1_555
C0 S0 1.673290 1_555
C1 S5 1.668354 1_555
C1 S9 1.670724 1_555
C1 S1 1.673290 1_554
C2 S6 1.668354 1_555
C2 S10 1.670724 1_555
C2 S2 1.673290 1_555
C3 S7 1.668354 1_555
C3 S11 1.670724 1_555
C3 S3 1.673290 1_556
C4 S20 1.668637 1_545
C4 S16 1.670018 1_555
C4 S12 1.671569 1_555
C5 S21 1.668637 1_565
C5 S17 1.670018 1_555
C5 S13 1.671569 1_655
C6 S22 1.668637 1_565
C6 S18 1.670018 1_555
C6 S14 1.671569 1_555
C7 S23 1.668637 1_545
C7 S19 1.670018 1_555
C7 S15 1.671569 1_455
C8 S28 1.669688 1_555
C8 S32 1.670999 1_555
C8 S24 1.671261 1_554
C9 S29 1.669688 1_555
C9 S33 1.670999 1_555
C9 S25 1.671261 1_555
C10 S30 1.669688 1_555
C10 S34 1.670999 1_555
C10 S26 1.671261 1_556
C11 S31 1.669688 1_555
C11 S35 1.670999 1_555
C11 S27 1.671261 1_555
C12 S36 1.667364 1_555
C12 S44 1.669606 1_545
C12 S40 1.669931 1_555
C13 S37 1.667364 1_555
C13 S45 1.669606 1_565
C13 S41 1.669931 1_555
C14 S38 1.667364 1_555
C14 S46 1.669606 1_565
C14 S42 1.669931 1_555
C15 S39 1.667364 1_555
C15 S47 1.669606 1_545
C15 S43 1.669931 1_555
