# generated using pymatgen
data_BeH8(IO5)2
_symmetry_space_group_name_H-M   'P 1'
_cell_length_a   6.56898600
_cell_length_b   8.88047100
_cell_length_c   15.88971100
_cell_angle_alpha   90.00000000
_cell_angle_beta   90.00000000
_cell_angle_gamma   90.00000000
_symmetry_Int_Tables_number   1
_chemical_formula_structural   BeH8(IO5)2
_chemical_formula_sum   'Be4 H32 I8 O40'
_cell_volume   926.93724988
_cell_formula_units_Z   4
loop_
 _symmetry_equiv_pos_site_id
 _symmetry_equiv_pos_as_xyz
  1  'x, y, z'
loop_
 _atom_site_type_symbol
 _atom_site_label
 _atom_site_symmetry_multiplicity
 _atom_site_fract_x
 _atom_site_fract_y
 _atom_site_fract_z
 _atom_site_occupancy
  Be  Be0  1  0.75000000  0.83099800  0.75000000  1
  Be  Be1  1  0.25000000  0.66900200  0.25000000  1
  Be  Be2  1  0.25000000  0.16900200  0.25000000  1
  Be  Be3  1  0.75000000  0.33099800  0.75000000  1
  H  H0  1  0.02167200  0.98812200  0.70973900  1
  H  H1  1  0.47832800  0.98812200  0.79026100  1
  H  H2  1  0.97832800  0.51187800  0.20973900  1
  H  H3  1  0.52167200  0.51187800  0.29026100  1
  H  H4  1  0.97832800  0.01187800  0.29026100  1
  H  H5  1  0.52167200  0.01187800  0.20973900  1
  H  H6  1  0.02167200  0.48812200  0.79026100  1
  H  H7  1  0.47832800  0.48812200  0.70973900  1
  H  H8  1  0.00649000  0.96007400  0.81195200  1
  H  H9  1  0.49351000  0.96007400  0.68804800  1
  H  H10  1  0.99351000  0.53992600  0.31195200  1
  H  H11  1  0.50649000  0.53992600  0.18804800  1
  H  H12  1  0.99351000  0.03992600  0.18804800  1
  H  H13  1  0.50649000  0.03992600  0.31195200  1
  H  H14  1  0.00649000  0.46007400  0.68804800  1
  H  H15  1  0.49351000  0.46007400  0.81195200  1
  H  H16  1  0.86357500  0.18187300  0.86502400  1
  H  H17  1  0.63642500  0.18187300  0.63497600  1
  H  H18  1  0.13642500  0.31812700  0.36502400  1
  H  H19  1  0.36357500  0.31812700  0.13497600  1
  H  H20  1  0.13642500  0.81812700  0.13497600  1
  H  H21  1  0.36357500  0.81812700  0.36502400  1
  H  H22  1  0.86357500  0.68187300  0.63497600  1
  H  H23  1  0.63642500  0.68187300  0.86502400  1
  H  H24  1  0.61639500  0.19628900  0.85864100  1
  H  H25  1  0.88360500  0.19628900  0.64135900  1
  H  H26  1  0.38360500  0.30371100  0.35864100  1
  H  H27  1  0.11639500  0.30371100  0.14135900  1
  H  H28  1  0.38360500  0.80371100  0.14135900  1
  H  H29  1  0.11639500  0.80371100  0.35864100  1
  H  H30  1  0.61639500  0.69628900  0.64135900  1
  H  H31  1  0.88360500  0.69628900  0.85864100  1
  I  I0  1  0.26356600  0.06882400  0.95592100  1
  I  I1  1  0.23643400  0.06882400  0.54407900  1
  I  I2  1  0.73643400  0.43117600  0.45592100  1
  I  I3  1  0.76356600  0.43117600  0.04407900  1
  I  I4  1  0.73643400  0.93117600  0.04407900  1
  I  I5  1  0.76356600  0.93117600  0.45592100  1
  I  I6  1  0.26356600  0.56882400  0.54407900  1
  I  I7  1  0.23643400  0.56882400  0.95592100  1
  O  O0  1  0.40226000  0.11758100  0.85926800  1
  O  O1  1  0.09774000  0.11758100  0.64073200  1
  O  O2  1  0.59774000  0.38241900  0.35926800  1
  O  O3  1  0.90226000  0.38241900  0.14073200  1
  O  O4  1  0.59774000  0.88241900  0.14073200  1
  O  O5  1  0.90226000  0.88241900  0.35926800  1
  O  O6  1  0.40226000  0.61758100  0.64073200  1
  O  O7  1  0.09774000  0.61758100  0.85926800  1
  O  O8  1  0.01384700  0.03242800  0.90590200  1
  O  O9  1  0.48615300  0.03242800  0.59409800  1
  O  O10  1  0.98615300  0.46757200  0.40590200  1
  O  O11  1  0.51384700  0.46757200  0.09409800  1
  O  O12  1  0.98615300  0.96757200  0.09409800  1
  O  O13  1  0.51384700  0.96757200  0.40590200  1
  O  O14  1  0.01384700  0.53242800  0.59409800  1
  O  O15  1  0.48615300  0.53242800  0.90590200  1
  O  O16  1  0.35661600  0.87579600  0.97096300  1
  O  O17  1  0.14338400  0.87579600  0.52903700  1
  O  O18  1  0.64338400  0.62420400  0.47096300  1
  O  O19  1  0.85661600  0.62420400  0.02903700  1
  O  O20  1  0.64338400  0.12420400  0.02903700  1
  O  O21  1  0.85661600  0.12420400  0.47096300  1
  O  O22  1  0.35661600  0.37579600  0.52903700  1
  O  O23  1  0.14338400  0.37579600  0.97096300  1
  O  O24  1  0.96524500  0.92105400  0.75489600  1
  O  O25  1  0.53475500  0.92105400  0.74510400  1
  O  O26  1  0.03475500  0.57894600  0.25489600  1
  O  O27  1  0.46524500  0.57894600  0.24510400  1
  O  O28  1  0.03475500  0.07894600  0.24510400  1
  O  O29  1  0.46524500  0.07894600  0.25489600  1
  O  O30  1  0.96524500  0.42105400  0.74510400  1
  O  O31  1  0.53475500  0.42105400  0.75489600  1
  O  O32  1  0.75085100  0.24348900  0.84083400  1
  O  O33  1  0.74914900  0.24348900  0.65916600  1
  O  O34  1  0.24914900  0.25651100  0.34083400  1
  O  O35  1  0.25085100  0.25651100  0.15916600  1
  O  O36  1  0.24914900  0.75651100  0.15916600  1
  O  O37  1  0.25085100  0.75651100  0.34083400  1
  O  O38  1  0.75085100  0.74348900  0.65916600  1
  O  O39  1  0.74914900  0.74348900  0.84083400  1
loop_
_geom_bond_atom_site_label_1
_geom_bond_atom_site_label_2
_geom_bond_distance
_geom_bond_site_symmetry_2
Be0 O24 1.626304 1_555
Be0 O25 1.626304 1_555
Be0 O39 1.639249 1_555
Be0 O38 1.639249 1_555
Be1 O27 1.626304 1_555
Be1 O26 1.626304 1_555
Be1 O37 1.639249 1_555
Be1 O36 1.639249 1_555
Be2 O29 1.626304 1_555
Be2 O28 1.626304 1_555
Be2 O34 1.639249 1_555
Be2 O35 1.639249 1_555
Be3 O30 1.626304 1_555
Be3 O31 1.626304 1_555
Be3 O32 1.639249 1_555
Be3 O33 1.639249 1_555
H0 O24 1.003484 1_455
H0 O1 1.665448 1_565
H1 O25 1.003484 1_555
H1 O0 1.665448 1_565
H2 O26 1.003484 1_655
H2 O3 1.665448 1_555
H3 O27 1.003484 1_555
H3 O2 1.665448 1_555
H4 O28 1.003484 1_655
H4 O5 1.665448 1_545
H5 O29 1.003484 1_555
H5 O4 1.665448 1_545
H6 O30 1.003484 1_455
H6 O7 1.665448 1_555
H7 O31 1.003484 1_555
H7 O6 1.665448 1_555
H8 O24 1.007676 1_455
H8 O8 1.625963 1_565
H9 O25 1.007676 1_555
H9 O9 1.625963 1_565
H10 O26 1.007676 1_655
H10 O10 1.625963 1_555
H11 O27 1.007676 1_555
H11 O11 1.625963 1_555
H12 O28 1.007676 1_655
H12 O12 1.625963 1_545
H13 O29 1.007676 1_555
H13 O13 1.625963 1_545
H14 O30 1.007676 1_455
H14 O14 1.625963 1_555
H15 O31 1.007676 1_555
H15 O15 1.625963 1_555
H16 O32 0.997728 1_555
H17 O33 0.997728 1_555
H18 O34 0.997728 1_555
H19 O35 0.997728 1_555
H20 O36 0.997728 1_555
H21 O37 0.997728 1_555
H22 O38 0.997728 1_555
H23 O39 0.997728 1_555
H24 O32 1.017775 1_555
H24 O0 1.570769 1_555
H25 O33 1.017775 1_555
H25 O1 1.570769 1_655
H26 O34 1.017775 1_555
H26 O2 1.570769 1_555
H27 O35 1.017775 1_555
H27 O3 1.570769 1_455
H28 O36 1.017775 1_555
H28 O4 1.570769 1_555
H29 O37 1.017775 1_555
H29 O5 1.570769 1_455
H30 O38 1.017775 1_555
H30 O6 1.570769 1_555
H31 O39 1.017775 1_555
H31 O7 1.570769 1_655
I0 O16 1.835527 1_545
I0 O0 1.837440 1_555
I0 O8 1.851234 1_555
I1 O17 1.835527 1_545
I1 O1 1.837440 1_555
I1 O9 1.851234 1_555
I2 O18 1.835527 1_555
I2 O2 1.837440 1_555
I2 O10 1.851234 1_555
I3 O19 1.835527 1_555
I3 O3 1.837440 1_555
I3 O11 1.851234 1_555
I4 O20 1.835527 1_565
I4 O4 1.837440 1_555
I4 O12 1.851234 1_555
I5 O21 1.835527 1_565
I5 O5 1.837440 1_555
I5 O13 1.851234 1_555
I6 O22 1.835527 1_555
I6 O6 1.837440 1_555
I6 O14 1.851234 1_555
I7 O23 1.835527 1_555
I7 O7 1.837440 1_555
I7 O15 1.851234 1_555
