# generated using pymatgen
data_V3OF11
_symmetry_space_group_name_H-M   'P 1'
_cell_length_a   5.09479347
_cell_length_b   5.34593022
_cell_length_c   14.02416931
_cell_angle_alpha   99.82630053
_cell_angle_beta   89.97251685
_cell_angle_gamma   90.16624131
_symmetry_Int_Tables_number   1
_chemical_formula_structural   V3OF11
_chemical_formula_sum   'V6 O2 F22'
_cell_volume   376.36284598
_cell_formula_units_Z   2
loop_
 _symmetry_equiv_pos_site_id
 _symmetry_equiv_pos_as_xyz
  1  'x, y, z'
loop_
 _atom_site_type_symbol
 _atom_site_label
 _atom_site_symmetry_multiplicity
 _atom_site_fract_x
 _atom_site_fract_y
 _atom_site_fract_z
 _atom_site_occupancy
  V  V0  1  0.03320899  0.77789366  0.66342643  1
  V  V1  1  0.48365463  0.69273588  0.33219549  1
  V  V2  1  0.00000000  0.50000000  0.00000000  1
  V  V3  1  0.51634537  0.30726412  0.66780451  1
  V  V4  1  0.96679101  0.22210634  0.33657357  1
  V  V5  1  0.50000000  0.00000000  0.00000000  1
  O  O0  1  0.78879126  0.47745683  0.36032918  1
  O  O1  1  0.21120874  0.52254317  0.63967082  1
  F  F0  1  0.80562424  0.81307520  0.02836467  1
  F  F1  1  0.72084469  0.62510800  0.69672082  1
  F  F2  1  0.30586397  0.68648348  0.97162548  1
  F  F3  1  0.90161061  0.79876952  0.54991702  1
  F  F4  1  0.59845402  0.63099782  0.21363028  1
  F  F5  1  0.90153260  0.46511896  0.87964809  1
  F  F6  1  0.40199830  0.70361437  0.45353770  1
  F  F7  1  0.09846740  0.53488104  0.12035191  1
  F  F8  1  0.40154598  0.36900218  0.78636972  1
  F  F9  1  0.69413603  0.31351652  0.02837452  1
  F  F10  1  0.80639389  0.12948747  0.69474973  1
  F  F11  1  0.27915531  0.37489200  0.30327918  1
  F  F12  1  0.19437576  0.18692480  0.97163533  1
  F  F13  1  0.59800170  0.29638563  0.54646230  1
  F  F14  1  0.90088559  0.11977012  0.21408776  1
  F  F15  1  0.59820489  0.96359526  0.87956127  1
  F  F16  1  0.09838939  0.20123048  0.45008298  1
  F  F17  1  0.40179511  0.03640474  0.12043873  1
  F  F18  1  0.09911441  0.88022988  0.78591224  1
  F  F19  1  0.68998674  0.99554608  0.36241573  1
  F  F20  1  0.31001326  0.00445392  0.63758427  1
  F  F21  1  0.19360611  0.87051253  0.30525027  1
loop_
_geom_bond_atom_site_label_1
_geom_bond_atom_site_label_2
_geom_bond_distance
_geom_bond_site_symmetry_2
O0 V4 1.627431 1_555
O0 V1 2.015671 1_555
O1 V0 1.627431 1_555
O1 V3 2.015671 1_555
F0 V2 1.929283 1_655
F0 V5 1.930454 1_565
F1 V0 1.881415 1_655
F1 V3 1.972839 1_555
F2 V2 1.925188 1_556
F2 V5 1.925837 1_566
F3 V0 1.748755 1_655
F4 V1 1.740321 1_555
F5 V2 1.740137 1_656
F6 V1 1.742987 1_555
F7 V2 1.740137 1_555
F8 V3 1.740321 1_555
F9 V2 1.925188 1_655
F9 V5 1.925837 1_555
F10 V3 1.833302 1_555
F10 V0 2.188950 1_645
F11 V4 1.881415 1_455
F11 V1 1.972839 1_555
F12 V2 1.929283 1_556
F12 V5 1.930454 1_556
F13 V3 1.742987 1_555
F14 V4 1.743983 1_555
F15 V5 1.740306 1_566
F16 V4 1.748755 1_455
F17 V5 1.740306 1_555
F18 V0 1.743983 1_555
F19 V1 1.913526 1_555
F19 V4 1.930426 1_565
F20 V3 1.913526 1_555
F20 V0 1.930426 1_545
F21 V1 1.833302 1_555
F21 V4 2.188950 1_465
