# generated using pymatgen
data_Li2VF7
_symmetry_space_group_name_H-M   'P 1'
_cell_length_a   6.97349100
_cell_length_b   7.04796600
_cell_length_c   10.19833600
_cell_angle_alpha   90.00000000
_cell_angle_beta   90.00000000
_cell_angle_gamma   90.00000000
_symmetry_Int_Tables_number   1
_chemical_formula_structural   Li2VF7
_chemical_formula_sum   'Li8 V4 F28'
_cell_volume   501.23727637
_cell_formula_units_Z   4
loop_
 _symmetry_equiv_pos_site_id
 _symmetry_equiv_pos_as_xyz
  1  'x, y, z'
loop_
 _atom_site_type_symbol
 _atom_site_label
 _atom_site_symmetry_multiplicity
 _atom_site_fract_x
 _atom_site_fract_y
 _atom_site_fract_z
 _atom_site_occupancy
  Li  Li0  1  0.13081100  0.25000000  0.74892700  1
  Li  Li1  1  0.16911500  0.75000000  0.00078900  1
  Li  Li2  1  0.33088500  0.25000000  0.50078900  1
  Li  Li3  1  0.36918900  0.75000000  0.24892700  1
  Li  Li4  1  0.63081100  0.25000000  0.75107300  1
  Li  Li5  1  0.66911500  0.75000000  0.49921100  1
  Li  Li6  1  0.83088500  0.25000000  0.99921100  1
  Li  Li7  1  0.86918900  0.75000000  0.25107300  1
  V  V0  1  0.19475400  0.75000000  0.55864400  1
  V  V1  1  0.30524600  0.25000000  0.05864400  1
  V  V2  1  0.69475400  0.75000000  0.94135600  1
  V  V3  1  0.80524600  0.25000000  0.44135600  1
  F  F0  1  0.04631400  0.25000000  0.51395500  1
  F  F1  1  0.05700100  0.25000000  0.11381900  1
  F  F2  1  0.11692700  0.75000000  0.17744600  1
  F  F3  1  0.12893600  0.56989600  0.67327800  1
  F  F4  1  0.12893600  0.93010400  0.67327800  1
  F  F5  1  0.23606400  0.06763000  0.93943100  1
  F  F6  1  0.23606400  0.43237000  0.93943100  1
  F  F7  1  0.26393600  0.56763000  0.43943100  1
  F  F8  1  0.26393600  0.93237000  0.43943100  1
  F  F9  1  0.37106400  0.06989600  0.17327800  1
  F  F10  1  0.37106400  0.43010400  0.17327800  1
  F  F11  1  0.38307300  0.25000000  0.67744600  1
  F  F12  1  0.44299900  0.75000000  0.61381900  1
  F  F13  1  0.45368600  0.75000000  0.01395500  1
  F  F14  1  0.54631400  0.25000000  0.98604500  1
  F  F15  1  0.55700100  0.25000000  0.38618100  1
  F  F16  1  0.61692700  0.75000000  0.32255400  1
  F  F17  1  0.62893600  0.93010400  0.82672200  1
  F  F18  1  0.62893600  0.56989600  0.82672200  1
  F  F19  1  0.73606400  0.06763000  0.56056900  1
  F  F20  1  0.73606400  0.43237000  0.56056900  1
  F  F21  1  0.76393600  0.93237000  0.06056900  1
  F  F22  1  0.76393600  0.56763000  0.06056900  1
  F  F23  1  0.87106400  0.06989600  0.32672200  1
  F  F24  1  0.87106400  0.43010400  0.32672200  1
  F  F25  1  0.88307300  0.25000000  0.82255400  1
  F  F26  1  0.94299900  0.75000000  0.88618100  1
  F  F27  1  0.95368600  0.75000000  0.48604500  1
loop_
_geom_bond_atom_site_label_1
_geom_bond_atom_site_label_2
_geom_bond_distance
_geom_bond_site_symmetry_2
F0 V3 1.836906 1_455
F0 Li2 1.988991 1_555
F0 Li0 2.467705 1_555
F1 V1 1.820288 1_555
F1 Li6 1.962772 1_454
F2 Li1 1.837998 1_555
F2 Li7 1.883722 1_455
F2 Li3 1.904211 1_555
F3 V0 1.785692 1_555
F3 Li0 2.382996 1_555
F4 V0 1.785692 1_555
F4 Li0 2.382996 1_565
F5 V1 1.833834 1_556
F5 Li1 2.370878 1_546
F5 Li0 2.442414 1_555
F6 V1 1.833834 1_556
F6 Li1 2.370878 1_556
F6 Li0 2.442414 1_555
F7 V0 1.833834 1_555
F7 Li2 2.370878 1_555
F7 Li3 2.442414 1_555
F8 V0 1.833834 1_555
F8 Li2 2.370878 1_565
F8 Li3 2.442414 1_555
F9 V1 1.785692 1_555
F9 Li3 2.382996 1_545
F10 V1 1.785692 1_555
F10 Li3 2.382996 1_555
F11 Li2 1.837998 1_555
F11 Li4 1.883722 1_555
F11 Li0 1.904211 1_555
F12 V0 1.820288 1_555
F12 Li5 1.962772 1_555
F13 V2 1.836906 1_554
F13 Li1 1.988991 1_555
F13 Li3 2.467705 1_555
F14 V1 1.836906 1_556
F14 Li6 1.988991 1_555
F14 Li4 2.467705 1_555
F15 V3 1.820288 1_555
F15 Li2 1.962772 1_555
F16 Li5 1.837998 1_555
F16 Li3 1.883722 1_555
F16 Li7 1.904211 1_555
F17 V2 1.785692 1_555
F17 Li4 2.382996 1_565
F18 V2 1.785692 1_555
F18 Li4 2.382996 1_555
F19 V3 1.833834 1_555
F19 Li5 2.370878 1_545
F19 Li4 2.442414 1_555
F20 V3 1.833834 1_555
F20 Li5 2.370878 1_555
F20 Li4 2.442414 1_555
F21 V2 1.833834 1_554
F21 Li6 2.370878 1_564
F21 Li7 2.442414 1_555
F22 V2 1.833834 1_554
F22 Li6 2.370878 1_554
F22 Li7 2.442414 1_555
F23 V3 1.785692 1_555
F23 Li7 2.382996 1_545
F24 V3 1.785692 1_555
F24 Li7 2.382996 1_555
F25 Li6 1.837998 1_555
F25 Li0 1.883722 1_655
F25 Li4 1.904211 1_555
F26 V2 1.820288 1_555
F26 Li1 1.962772 1_656
F27 V0 1.836906 1_655
F27 Li5 1.988991 1_555
F27 Li7 2.467705 1_555
