# generated using pymatgen
data_Dy3TaO7
_symmetry_space_group_name_H-M   'P 1'
_cell_length_a   6.46554486
_cell_length_b   6.46554486
_cell_length_c   7.52877800
_cell_angle_alpha   90.00000000
_cell_angle_beta   90.00000000
_cell_angle_gamma   110.32869745
_symmetry_Int_Tables_number   1
_chemical_formula_structural   Dy3TaO7
_chemical_formula_sum   'Dy6 Ta2 O14'
_cell_volume   295.12475250
_cell_formula_units_Z   2
loop_
 _symmetry_equiv_pos_site_id
 _symmetry_equiv_pos_as_xyz
  1  'x, y, z'
loop_
 _atom_site_type_symbol
 _atom_site_label
 _atom_site_symmetry_multiplicity
 _atom_site_fract_x
 _atom_site_fract_y
 _atom_site_fract_z
 _atom_site_occupancy
  Dy  Dy0  1  0.51468300  0.05375900  0.25000000  1
  Dy  Dy1  1  0.94624100  0.48531700  0.75000000  1
  Dy  Dy2  1  0.00000000  0.00000000  0.00000000  1
  Dy  Dy3  1  0.00000000  0.00000000  0.50000000  1
  Dy  Dy4  1  0.05375900  0.51468300  0.25000000  1
  Dy  Dy5  1  0.48531700  0.94624100  0.75000000  1
  Ta  Ta0  1  0.50000000  0.50000000  0.00000000  1
  Ta  Ta1  1  0.50000000  0.50000000  0.50000000  1
  O  O0  1  0.88657900  0.15198800  0.25000000  1
  O  O1  1  0.84801200  0.11342100  0.75000000  1
  O  O2  1  0.82240000  0.56384100  0.03403500  1
  O  O3  1  0.82240000  0.56384100  0.46596500  1
  O  O4  1  0.43615900  0.17760000  0.96596500  1
  O  O5  1  0.43615900  0.17760000  0.53403500  1
  O  O6  1  0.57690400  0.57690400  0.75000000  1
  O  O7  1  0.42309600  0.42309600  0.25000000  1
  O  O8  1  0.56384100  0.82240000  0.03403500  1
  O  O9  1  0.17760000  0.43615900  0.53403500  1
  O  O10  1  0.56384100  0.82240000  0.46596500  1
  O  O11  1  0.17760000  0.43615900  0.96596500  1
  O  O12  1  0.11342100  0.84801200  0.75000000  1
  O  O13  1  0.15198800  0.88657900  0.25000000  1
loop_
_geom_bond_atom_site_label_1
_geom_bond_atom_site_label_2
_geom_bond_distance
_geom_bond_site_symmetry_2
Dy0 O13 2.215020 1_545
Dy0 O0 2.263619 1_555
Dy0 O10 2.304925 1_545
Dy0 O8 2.304925 1_545
Dy0 O5 2.398800 1_555
Dy0 O4 2.398800 1_554
Dy0 O7 2.652458 1_555
Dy1 O12 2.215020 1_655
Dy1 O1 2.263619 1_555
Dy1 O11 2.304925 1_655
Dy1 O9 2.304925 1_655
Dy1 O2 2.398800 1_556
Dy1 O3 2.398800 1_555
Dy1 O6 2.652458 1_555
Dy2 O0 2.355164 1_455
Dy2 O13 2.355164 1_545
Dy2 O1 2.355164 1_454
Dy2 O12 2.355164 1_544
Dy2 O4 2.662092 1_554
Dy2 O11 2.662092 1_554
Dy2 O8 2.662092 1_445
Dy2 O2 2.662092 1_445
Dy3 O0 2.355164 1_455
Dy3 O13 2.355164 1_545
Dy3 O12 2.355164 1_545
Dy3 O1 2.355164 1_455
Dy3 O5 2.662092 1_555
Dy3 O9 2.662092 1_555
Dy3 O10 2.662092 1_445
Dy3 O3 2.662092 1_445
Dy4 O0 2.215020 1_455
Dy4 O13 2.263619 1_555
Dy4 O3 2.304925 1_455
Dy4 O2 2.304925 1_455
Dy4 O9 2.398800 1_555
Dy4 O11 2.398800 1_554
Dy4 O7 2.652458 1_555
Dy5 O1 2.215020 1_565
Dy5 O12 2.263619 1_555
Dy5 O4 2.304925 1_565
Dy5 O5 2.304925 1_565
Dy5 O8 2.398800 1_556
Dy5 O10 2.398800 1_555
Dy5 O6 2.652458 1_555
O2 Ta0 1.995826 1_555
O3 Ta1 1.995826 1_555
O4 Ta0 1.995826 1_556
O5 Ta1 1.995826 1_555
O6 Ta1 1.966048 1_555
O6 Ta0 1.966048 1_556
O7 Ta1 1.966048 1_555
O7 Ta0 1.966048 1_555
O8 Ta0 1.995826 1_555
O9 Ta1 1.995826 1_555
O10 Ta1 1.995826 1_555
O11 Ta0 1.995826 1_556
