# generated using pymatgen
data_Na9Mn15O32
_symmetry_space_group_name_H-M   'P 1'
_cell_length_a   5.96075100
_cell_length_b   6.11613104
_cell_length_c   20.07737642
_cell_angle_alpha   88.70923135
_cell_angle_beta   97.99594322
_cell_angle_gamma   119.02224720
_symmetry_Int_Tables_number   1
_chemical_formula_structural   Na9Mn15O32
_chemical_formula_sum   'Na9 Mn15 O32'
_cell_volume   632.96748472
_cell_formula_units_Z   1
loop_
 _symmetry_equiv_pos_site_id
 _symmetry_equiv_pos_as_xyz
  1  'x, y, z'
loop_
 _atom_site_type_symbol
 _atom_site_label
 _atom_site_symmetry_multiplicity
 _atom_site_fract_x
 _atom_site_fract_y
 _atom_site_fract_z
 _atom_site_occupancy
  Na  Na0  1  0.56570300  0.03821300  0.09187100  1
  Na  Na1  1  0.00000000  0.00000000  0.00000000  1
  Na  Na2  1  0.43429700  0.96178700  0.90812900  1
  Na  Na3  1  0.05568500  0.26512600  0.84666500  1
  Na  Na4  1  0.55569700  0.52661100  0.59263500  1
  Na  Na5  1  0.44430300  0.47338900  0.40736500  1
  Na  Na6  1  0.95001500  0.23854600  0.65803800  1
  Na  Na7  1  0.04998500  0.76145400  0.34196200  1
  Na  Na8  1  0.94431500  0.73487400  0.15333500  1
  Mn  Mn0  1  0.00000000  0.50000000  0.00000000  1
  Mn  Mn1  1  0.74140300  0.60597100  0.87560300  1
  Mn  Mn2  1  0.50250400  0.25014100  0.75120100  1
  Mn  Mn3  1  0.25859700  0.39402900  0.12439700  1
  Mn  Mn4  1  0.50239500  0.75117800  0.75152200  1
  Mn  Mn5  1  0.00097900  0.75075400  0.75096400  1
  Mn  Mn6  1  0.50000000  0.50000000  0.00000000  1
  Mn  Mn7  1  0.25136400  0.87843200  0.62538200  1
  Mn  Mn8  1  0.99902100  0.24924600  0.24903600  1
  Mn  Mn9  1  0.00000000  0.00000000  0.50000000  1
  Mn  Mn10  1  0.50000000  0.00000000  0.50000000  1
  Mn  Mn11  1  0.49749600  0.74985900  0.24879900  1
  Mn  Mn12  1  0.74863600  0.12156800  0.37461800  1
  Mn  Mn13  1  0.00000000  0.50000000  0.50000000  1
  Mn  Mn14  1  0.49760500  0.24882200  0.24847800  1
  O  O0  1  0.94713300  0.26287000  0.06819200  1
  O  O1  1  0.35188000  0.65034500  0.05454900  1
  O  O2  1  0.64812000  0.34965500  0.94545100  1
  O  O3  1  0.84270100  0.64093200  0.04565000  1
  O  O4  1  0.05286700  0.73713000  0.93180800  1
  O  O5  1  0.61639200  0.73908200  0.93126200  1
  O  O6  1  0.84137900  0.45230100  0.80443100  1
  O  O7  1  0.38360800  0.26091800  0.06873800  1
  O  O8  1  0.64094100  0.57524800  0.70292500  1
  O  O9  1  0.83858400  0.86731000  0.80866300  1
  O  O10  1  0.33795000  0.12897700  0.55820100  1
  O  O11  1  0.15729900  0.35906800  0.95435000  1
  O  O12  1  0.36070100  0.92929900  0.79844900  1
  O  O13  1  0.08727800  0.29743300  0.44893800  1
  O  O14  1  0.16028700  0.04482300  0.69601100  1
  O  O15  1  0.59608000  0.04789100  0.70002500  1
  O  O16  1  0.41638600  0.45225700  0.80472100  1
  O  O17  1  0.91272200  0.70256700  0.55106200  1
  O  O18  1  0.33945300  0.71270400  0.55325700  1
  O  O19  1  0.16474300  0.87727500  0.44787700  1
  O  O20  1  0.35905900  0.42475200  0.29707500  1
  O  O21  1  0.66205000  0.87102300  0.44179900  1
  O  O22  1  0.83525700  0.12272500  0.55212300  1
  O  O23  1  0.16526700  0.63091200  0.69318700  1
  O  O24  1  0.15862100  0.54769900  0.19556900  1
  O  O25  1  0.66054700  0.28729600  0.44674300  1
  O  O26  1  0.40392000  0.95210900  0.29997500  1
  O  O27  1  0.83971300  0.95517700  0.30398900  1
  O  O28  1  0.83473300  0.36908800  0.30681300  1
  O  O29  1  0.63929900  0.07070100  0.20155100  1
  O  O30  1  0.16141600  0.13269000  0.19133700  1
  O  O31  1  0.58361400  0.54774300  0.19527900  1
loop_
_geom_bond_atom_site_label_1
_geom_bond_atom_site_label_2
_geom_bond_distance
_geom_bond_site_symmetry_2
Na0 O7 2.124838 1_555
Na0 O0 2.126814 1_555
Na0 O1 2.166606 1_545
Na0 O29 2.178874 1_555
Na1 O11 2.166216 1_554
Na1 O3 2.166216 1_445
Na1 O4 2.295525 1_544
Na1 O0 2.295525 1_455
Na1 O7 2.315261 1_555
Na1 O5 2.315261 1_444
Na2 O5 2.124838 1_555
Na2 O4 2.126814 1_555
Na2 O2 2.166606 1_565
Na2 O12 2.178874 1_555
Na3 O16 2.171273 1_555
Na3 O11 2.173786 1_555
Na3 O6 2.176058 1_455
Na3 O9 2.220491 1_445
Na4 O17 2.148323 1_555
Na4 O18 2.163653 1_555
Na4 O8 2.195436 1_555
Na4 O10 2.200099 1_555
Na5 O13 2.148323 1_555
Na5 O25 2.163653 1_555
Na5 O20 2.195436 1_555
Na5 O21 2.200099 1_555
Na6 O15 2.141202 1_555
Na6 O22 2.164419 1_555
Na6 O14 2.165743 1_655
Na6 O23 2.177136 1_655
Na7 O26 2.141202 1_555
Na7 O19 2.164419 1_555
Na7 O27 2.165743 1_455
Na7 O28 2.177136 1_455
Na8 O31 2.171273 1_555
Na8 O3 2.173786 1_555
Na8 O24 2.176058 1_655
Na8 O30 2.220491 1_665
Mn0 O11 1.876431 1_554
Mn0 O3 1.876431 1_455
Mn0 O0 1.914241 1_455
Mn0 O4 1.914241 1_554
Mn0 O1 1.994810 1_555
Mn0 O2 1.994810 1_454
Mn1 O5 1.824314 1_555
Mn1 O4 1.837545 1_655
Mn1 O9 1.979414 1_555
Mn1 O2 2.001367 1_555
Mn1 O6 2.030085 1_555
Mn1 O16 2.046562 1_555
Mn2 O16 1.943005 1_555
Mn2 O15 1.945034 1_555
Mn2 O6 1.945951 1_555
Mn2 O14 1.978426 1_555
Mn2 O12 1.998703 1_545
Mn2 O8 2.029220 1_555
Mn3 O7 1.824314 1_555
Mn3 O0 1.837545 1_455
Mn3 O30 1.979414 1_555
Mn3 O1 2.001367 1_555
Mn3 O24 2.030085 1_555
Mn3 O31 2.046562 1_555
Mn4 O15 1.940851 1_565
Mn4 O9 1.962770 1_555
Mn4 O23 1.975050 1_555
Mn4 O16 1.975105 1_555
Mn4 O8 1.981284 1_555
Mn4 O12 1.987027 1_555
Mn5 O9 1.950881 1_455
Mn5 O23 1.972983 1_555
Mn5 O14 1.974527 1_565
Mn5 O6 1.974908 1_455
Mn5 O12 1.976180 1_555
Mn5 O8 1.980848 1_455
Mn6 O3 1.887353 1_555
Mn6 O11 1.887353 1_554
Mn6 O7 1.927498 1_555
Mn6 O5 1.927498 1_554
Mn6 O1 1.981579 1_555
Mn6 O2 1.981579 1_554
Mn7 O23 1.938067 1_555
Mn7 O10 1.940875 1_565
Mn7 O14 2.038747 1_565
Mn7 O18 2.047959 1_555
Mn7 O17 2.141423 1_455
Mn7 O15 2.165428 1_565
Mn8 O30 1.950881 1_655
Mn8 O28 1.972983 1_555
Mn8 O27 1.974527 1_545
Mn8 O24 1.974908 1_655
Mn8 O29 1.976180 1_555
Mn8 O20 1.980848 1_655
Mn9 O22 1.912940 1_455
Mn9 O19 1.912940 1_545
Mn9 O17 1.943453 1_445
Mn9 O13 1.943453 1_555
Mn9 O21 1.972423 1_445
Mn9 O10 1.972423 1_555
Mn10 O22 1.910557 1_555
Mn10 O19 1.910557 1_545
Mn10 O25 1.927459 1_555
Mn10 O18 1.927459 1_545
Mn10 O10 2.003907 1_555
Mn10 O21 2.003907 1_545
Mn11 O31 1.943005 1_555
Mn11 O26 1.945034 1_555
Mn11 O24 1.945951 1_555
Mn11 O27 1.978426 1_555
Mn11 O29 1.998703 1_565
Mn11 O20 2.029220 1_555
Mn12 O28 1.938067 1_555
Mn12 O21 1.940875 1_545
Mn12 O27 2.038747 1_545
Mn12 O25 2.047959 1_555
Mn12 O13 2.141423 1_655
Mn12 O26 2.165428 1_545
Mn13 O17 1.920315 1_455
Mn13 O13 1.920315 1_555
Mn13 O18 1.958701 1_555
Mn13 O25 1.958701 1_455
Mn13 O22 2.315673 1_455
Mn13 O19 2.315673 1_555
Mn14 O26 1.940851 1_545
Mn14 O30 1.962770 1_555
Mn14 O28 1.975050 1_555
Mn14 O31 1.975105 1_555
Mn14 O20 1.981284 1_555
Mn14 O29 1.987027 1_555
