# generated using pymatgen
data_NbSb3(PO4)6
_symmetry_space_group_name_H-M   'P 1'
_cell_length_a   9.08133061
_cell_length_b   9.08133061
_cell_length_c   9.08133069
_cell_angle_alpha   58.25156986
_cell_angle_beta   58.25156986
_cell_angle_gamma   58.25157073
_symmetry_Int_Tables_number   1
_chemical_formula_structural   NbSb3(PO4)6
_chemical_formula_sum   'Nb1 Sb3 P6 O24'
_cell_volume   508.37143056
_cell_formula_units_Z   1
loop_
 _symmetry_equiv_pos_site_id
 _symmetry_equiv_pos_as_xyz
  1  'x, y, z'
loop_
 _atom_site_type_symbol
 _atom_site_label
 _atom_site_symmetry_multiplicity
 _atom_site_fract_x
 _atom_site_fract_y
 _atom_site_fract_z
 _atom_site_occupancy
  Nb  Nb0  1  0.14154200  0.14154200  0.14154200  1
  Sb  Sb0  1  0.85662100  0.85662100  0.85662100  1
  Sb  Sb1  1  0.64206600  0.64206600  0.64206600  1
  Sb  Sb2  1  0.35551500  0.35551500  0.35551500  1
  P  P0  1  0.53736700  0.96091100  0.25005100  1
  P  P1  1  0.25005100  0.53736700  0.96091100  1
  P  P2  1  0.96091100  0.25005100  0.53736700  1
  P  P3  1  0.03912000  0.74774600  0.46211100  1
  P  P4  1  0.74774600  0.46211100  0.03912000  1
  P  P5  1  0.46211100  0.03912000  0.74774600  1
  O  O0  1  0.48097200  0.87294500  0.72684600  1
  O  O1  1  0.87294500  0.72684600  0.48097200  1
  O  O2  1  0.71649400  0.93736900  0.08070200  1
  O  O3  1  0.72684600  0.48097200  0.87294500  1
  O  O4  1  0.55389100  0.78351400  0.42000700  1
  O  O5  1  0.36792100  0.00050700  0.21595300  1
  O  O6  1  0.08070200  0.71649400  0.93736900  1
  O  O7  1  0.42000700  0.55389100  0.78351400  1
  O  O8  1  0.78351400  0.42000700  0.55389100  1
  O  O9  1  0.01523700  0.77444200  0.62884000  1
  O  O10  1  0.06660100  0.92191700  0.28775900  1
  O  O11  1  0.77444200  0.62884000  0.01523700  1
  O  O12  1  0.21595300  0.36792100  0.00050700  1
  O  O13  1  0.93736900  0.08070200  0.71649400  1
  O  O14  1  0.00050700  0.21595300  0.36792100  1
  O  O15  1  0.21855000  0.57937400  0.43637000  1
  O  O16  1  0.57937400  0.43637000  0.21855000  1
  O  O17  1  0.92191700  0.28775900  0.06660100  1
  O  O18  1  0.62884000  0.01523700  0.77444200  1
  O  O19  1  0.43637000  0.21855000  0.57937400  1
  O  O20  1  0.27768200  0.51681600  0.12624000  1
  O  O21  1  0.28775900  0.06660100  0.92191700  1
  O  O22  1  0.12624000  0.27768200  0.51681600  1
  O  O23  1  0.51681600  0.12624000  0.27768200  1
loop_
_geom_bond_atom_site_label_1
_geom_bond_atom_site_label_2
_geom_bond_distance
_geom_bond_site_symmetry_2
Nb0 O10 1.973495 1_545
Nb0 O17 1.973495 1_455
Nb0 O21 1.973495 1_554
Nb0 O12 2.025742 1_555
Nb0 O5 2.025742 1_555
Nb0 O14 2.025742 1_555
O0 P5 1.529022 1_565
O0 Sb1 2.101085 1_555
O1 P3 1.529022 1_655
O1 Sb1 2.101084 1_555
O2 P0 1.550584 1_555
O2 Sb0 2.039922 1_554
O3 P4 1.529022 1_556
O3 Sb1 2.101085 1_555
O4 P0 1.540335 1_555
O4 Sb1 2.061236 1_555
O5 P0 1.547593 1_545
O6 P1 1.550584 1_555
O6 Sb0 2.039922 1_455
O7 P1 1.540335 1_555
O7 Sb1 2.061235 1_555
O8 P2 1.540335 1_555
O8 Sb1 2.061236 1_555
O9 P3 1.543939 1_555
O9 Sb0 2.065998 1_455
O10 P3 1.560468 1_555
O11 P4 1.543939 1_555
O11 Sb0 2.065998 1_554
O12 P1 1.547593 1_554
O13 P2 1.550584 1_555
O13 Sb0 2.039922 1_545
O14 P2 1.547593 1_455
O15 P3 1.549527 1_555
O15 Sb2 2.041517 1_555
O16 P4 1.549527 1_555
O16 Sb2 2.041517 1_555
O17 P4 1.560468 1_555
O18 P5 1.543939 1_555
O18 Sb0 2.065998 1_545
O19 P5 1.549527 1_555
O19 Sb2 2.041517 1_555
O20 P1 1.550589 1_554
O20 Sb2 2.056702 1_555
O21 P5 1.560468 1_555
O22 P2 1.550589 1_455
O22 Sb2 2.056702 1_555
O23 P0 1.550589 1_545
O23 Sb2 2.056702 1_555
