# generated using pymatgen
data_LiTi8O16
_symmetry_space_group_name_H-M   'P 1'
_cell_length_a   7.79155869
_cell_length_b   7.79155869
_cell_length_c   9.62083900
_cell_angle_alpha   90.00000000
_cell_angle_beta   90.00000000
_cell_angle_gamma   99.87169906
_symmetry_Int_Tables_number   1
_chemical_formula_structural   LiTi8O16
_chemical_formula_sum   'Li2 Ti16 O32'
_cell_volume   575.41801553
_cell_formula_units_Z   2
loop_
 _symmetry_equiv_pos_site_id
 _symmetry_equiv_pos_as_xyz
  1  'x, y, z'
loop_
 _atom_site_type_symbol
 _atom_site_label
 _atom_site_symmetry_multiplicity
 _atom_site_fract_x
 _atom_site_fract_y
 _atom_site_fract_z
 _atom_site_occupancy
  Li  Li0  1  0.15838800  0.15838800  0.54361700  1
  Li  Li1  1  0.84161200  0.84161200  0.04361700  1
  Ti  Ti0  1  0.27187900  0.52493800  0.63471300  1
  Ti  Ti1  1  0.01650000  0.76549200  0.64367900  1
  Ti  Ti2  1  0.36783300  0.36783300  0.35583900  1
  Ti  Ti3  1  0.10151600  0.60349500  0.36365400  1
  Ti  Ti4  1  0.14778600  0.14778600  0.86432500  1
  Ti  Ti5  1  0.39650500  0.89848400  0.86365400  1
  Ti  Ti6  1  0.89848400  0.39650500  0.86365400  1
  Ti  Ti7  1  0.63216700  0.63216700  0.85583900  1
  Ti  Ti8  1  0.23450800  0.98350000  0.14367900  1
  Ti  Ti9  1  0.72812100  0.47506200  0.13471300  1
  Ti  Ti10  1  0.47506200  0.72812100  0.13471300  1
  Ti  Ti11  1  0.98350000  0.23450800  0.14367900  1
  Ti  Ti12  1  0.76549200  0.01650000  0.64367900  1
  Ti  Ti13  1  0.52493800  0.27187900  0.63471300  1
  Ti  Ti14  1  0.85221400  0.85221400  0.36432500  1
  Ti  Ti15  1  0.60349500  0.10151600  0.36365400  1
  O  O0  1  0.41158600  0.66441500  0.77414700  1
  O  O1  1  0.27857800  0.77921100  0.03503400  1
  O  O2  1  0.22078900  0.72142200  0.53503400  1
  O  O3  1  0.33558500  0.58841400  0.27414700  1
  O  O4  1  0.28175600  0.28175600  0.71659600  1
  O  O5  1  0.04082300  0.53981300  0.72784900  1
  O  O6  1  0.78757000  0.78757000  0.72831700  1
  O  O7  1  0.90057000  0.65171300  0.46532000  1
  O  O8  1  0.39665600  0.15383300  0.46471300  1
  O  O9  1  0.15383300  0.39665600  0.46471300  1
  O  O10  1  0.09943000  0.34828700  0.96532000  1
  O  O11  1  0.84616700  0.60334400  0.96471300  1
  O  O12  1  0.34828700  0.09943000  0.96532000  1
  O  O13  1  0.21243000  0.21243000  0.22831700  1
  O  O14  1  0.95917700  0.46018700  0.22784900  1
  O  O15  1  0.71824400  0.71824400  0.21659600  1
  O  O16  1  0.16601500  0.91605200  0.77158500  1
  O  O17  1  0.66441500  0.41158600  0.77414700  1
  O  O18  1  0.91605200  0.16601500  0.77158500  1
  O  O19  1  0.77921100  0.27857800  0.03503400  1
  O  O20  1  0.52353100  0.52353100  0.03514100  1
  O  O21  1  0.02682000  0.02682000  0.03637000  1
  O  O22  1  0.72142200  0.22078900  0.53503400  1
  O  O23  1  0.47646900  0.47646900  0.53514100  1
  O  O24  1  0.97318000  0.97318000  0.53637000  1
  O  O25  1  0.83398500  0.08394800  0.27158500  1
  O  O26  1  0.58841400  0.33558500  0.27414700  1
  O  O27  1  0.08394800  0.83398500  0.27158500  1
  O  O28  1  0.53981300  0.04082300  0.72784900  1
  O  O29  1  0.65171300  0.90057000  0.46532000  1
  O  O30  1  0.60334400  0.84616700  0.96471300  1
  O  O31  1  0.46018700  0.95917700  0.22784900  1
loop_
_geom_bond_atom_site_label_1
_geom_bond_atom_site_label_2
_geom_bond_distance
_geom_bond_site_symmetry_2
Li0 O24 1.858943 1_445
Li0 O9 2.011625 1_555
Li0 O8 2.011625 1_555
Li0 O4 2.073809 1_555
Li1 O21 1.858943 1_665
Li1 O11 2.011625 1_554
Li1 O30 2.011625 1_554
Li1 O15 2.073809 1_555
O0 Ti0 1.939033 1_555
O0 Ti7 1.944927 1_555
O0 Ti5 2.038368 1_555
O1 Ti10 1.905465 1_555
O1 Ti8 1.982795 1_555
O1 Ti5 2.033154 1_554
O2 Ti0 1.905465 1_555
O2 Ti1 1.982795 1_555
O2 Ti3 2.033154 1_555
O3 Ti10 1.939033 1_555
O3 Ti2 1.944927 1_555
O3 Ti3 2.038368 1_555
O4 Ti4 1.955916 1_555
O4 Ti13 2.065591 1_555
O4 Ti0 2.065591 1_555
O5 Ti6 1.938875 1_455
O5 Ti1 1.974303 1_555
O5 Ti0 2.031971 1_555
O6 Ti7 1.983614 1_555
O6 Ti1 1.994876 1_655
O6 Ti12 1.994876 1_565
O7 Ti14 1.930909 1_555
O7 Ti3 1.936724 1_655
O7 Ti1 2.066827 1_655
O8 Ti15 1.983426 1_555
O8 Ti2 2.014002 1_555
O8 Ti13 2.050555 1_555
O9 Ti3 1.983426 1_555
O9 Ti2 2.014002 1_555
O9 Ti0 2.050555 1_555
O10 Ti4 1.930909 1_555
O10 Ti6 1.936724 1_455
O10 Ti11 2.066827 1_456
O11 Ti6 1.983426 1_555
O11 Ti7 2.014002 1_555
O11 Ti9 2.050555 1_556
O12 Ti4 1.930909 1_555
O12 Ti5 1.936724 1_545
O12 Ti8 2.066827 1_546
O13 Ti2 1.983614 1_555
O13 Ti8 1.994876 1_545
O13 Ti11 1.994876 1_455
O14 Ti3 1.938875 1_655
O14 Ti11 1.974303 1_555
O14 Ti9 2.031971 1_555
O15 Ti14 1.955916 1_555
O15 Ti9 2.065591 1_555
O15 Ti10 2.065591 1_555
O16 Ti1 1.943958 1_555
O16 Ti5 2.028005 1_555
O16 Ti4 2.040655 1_565
O17 Ti13 1.939033 1_555
O17 Ti7 1.944927 1_555
O17 Ti6 2.038368 1_555
O18 Ti12 1.943958 1_555
O18 Ti6 2.028005 1_555
O18 Ti4 2.040655 1_655
O19 Ti9 1.905465 1_555
O19 Ti11 1.982795 1_555
O19 Ti6 2.033154 1_554
O20 Ti10 1.951361 1_555
O20 Ti9 1.951361 1_555
O20 Ti7 2.040347 1_554
O21 Ti11 1.996416 1_455
O21 Ti8 1.996416 1_545
O21 Ti4 2.052270 1_554
O22 Ti13 1.905465 1_555
O22 Ti12 1.982795 1_555
O22 Ti15 2.033154 1_555
O23 Ti13 1.951361 1_555
O23 Ti0 1.951361 1_555
O23 Ti2 2.040347 1_555
O24 Ti12 1.996416 1_565
O24 Ti1 1.996416 1_655
O24 Ti14 2.052270 1_555
O25 Ti11 1.943958 1_555
O25 Ti15 2.028005 1_555
O25 Ti14 2.040655 1_545
O26 Ti9 1.939033 1_555
O26 Ti2 1.944927 1_555
O26 Ti15 2.038368 1_555
O27 Ti8 1.943958 1_555
O27 Ti3 2.028005 1_555
O27 Ti14 2.040655 1_455
O28 Ti5 1.938875 1_545
O28 Ti12 1.974303 1_555
O28 Ti13 2.031971 1_555
O29 Ti14 1.930909 1_555
O29 Ti15 1.936724 1_565
O29 Ti12 2.066827 1_565
O30 Ti5 1.983426 1_555
O30 Ti7 2.014002 1_555
O30 Ti10 2.050555 1_556
O31 Ti15 1.938875 1_565
O31 Ti8 1.974303 1_555
O31 Ti10 2.031971 1_555
