# generated using pymatgen
data_Li4NbFe3O8
_symmetry_space_group_name_H-M   'P 1'
_cell_length_a   6.06040197
_cell_length_b   6.06040197
_cell_length_c   6.08297112
_cell_angle_alpha   60.34504570
_cell_angle_beta   60.34504570
_cell_angle_gamma   60.37160325
_symmetry_Int_Tables_number   1
_chemical_formula_structural   Li4NbFe3O8
_chemical_formula_sum   'Li4 Nb1 Fe3 O8'
_cell_volume   159.24526455
_cell_formula_units_Z   1
loop_
 _symmetry_equiv_pos_site_id
 _symmetry_equiv_pos_as_xyz
  1  'x, y, z'
loop_
 _atom_site_type_symbol
 _atom_site_label
 _atom_site_symmetry_multiplicity
 _atom_site_fract_x
 _atom_site_fract_y
 _atom_site_fract_z
 _atom_site_occupancy
  Li  Li0  1  0.50000000  0.50000000  0.00000000  1
  Li  Li1  1  0.00000000  0.50000000  0.50000000  1
  Li  Li2  1  0.00000000  0.00000000  0.00000000  1
  Li  Li3  1  0.50000000  0.00000000  0.50000000  1
  Nb  Nb0  1  0.00000000  0.00000000  0.50000000  1
  Fe  Fe0  1  0.50000000  0.00000000  0.00000000  1
  Fe  Fe1  1  0.50000000  0.50000000  0.50000000  1
  Fe  Fe2  1  0.00000000  0.50000000  0.00000000  1
  O  O0  1  0.26550800  0.26550800  0.75234300  1
  O  O1  1  0.75063600  0.23863100  0.27340200  1
  O  O2  1  0.76487900  0.76487900  0.72722600  1
  O  O3  1  0.73449200  0.73449200  0.24765700  1
  O  O4  1  0.23863100  0.75063600  0.27340200  1
  O  O5  1  0.24936400  0.76136900  0.72659800  1
  O  O6  1  0.23512100  0.23512100  0.27277400  1
  O  O7  1  0.76136900  0.24936400  0.72659800  1
loop_
_geom_bond_atom_site_label_1
_geom_bond_atom_site_label_2
_geom_bond_distance
_geom_bond_site_symmetry_2
Li0 O4 2.257472 1_555
Li0 O1 2.257472 1_555
Li0 O7 2.257472 1_554
Li0 O5 2.257472 1_554
Li0 O6 2.276704 1_555
Li0 O2 2.276704 1_554
Li1 O7 2.103861 1_455
Li1 O4 2.103861 1_555
Li1 O6 2.121989 1_555
Li1 O2 2.121989 1_455
Li1 O3 2.233717 1_455
Li1 O0 2.233717 1_555
Li2 O7 2.207540 1_454
Li2 O4 2.207540 1_545
Li2 O5 2.207540 1_544
Li2 O1 2.207540 1_455
Li2 O3 2.282620 1_445
Li2 O0 2.282620 1_554
Li3 O5 2.103861 1_545
Li3 O1 2.103861 1_555
Li3 O6 2.121989 1_555
Li3 O2 2.121989 1_545
Li3 O3 2.233717 1_545
Li3 O0 2.233717 1_555
Nb0 O6 2.020141 1_555
Nb0 O2 2.020141 1_445
Nb0 O7 2.050139 1_455
Nb0 O5 2.050139 1_545
Nb0 O4 2.050139 1_545
Nb0 O1 2.050139 1_455
Fe0 O0 2.082562 1_554
Fe0 O3 2.082562 1_545
Fe0 O2 2.191517 1_544
Fe0 O6 2.191517 1_555
Fe0 O7 2.198131 1_554
Fe0 O4 2.198131 1_545
Fe1 O0 2.018654 1_555
Fe1 O3 2.018654 1_555
Fe1 O7 2.103810 1_555
Fe1 O5 2.103810 1_555
Fe1 O1 2.103810 1_555
Fe1 O4 2.103810 1_555
Fe2 O0 2.082562 1_554
Fe2 O3 2.082562 1_455
Fe2 O2 2.191517 1_454
Fe2 O6 2.191517 1_555
Fe2 O5 2.198131 1_554
Fe2 O1 2.198131 1_455
