# generated using pymatgen
data_LiVP3(H7O8)2
_symmetry_space_group_name_H-M   'P 1'
_cell_length_a   7.54974100
_cell_length_b   9.06699415
_cell_length_c   10.92285379
_cell_angle_alpha   71.98362957
_cell_angle_beta   80.05238990
_cell_angle_gamma   71.17923971
_symmetry_Int_Tables_number   1
_chemical_formula_structural   LiVP3(H7O8)2
_chemical_formula_sum   'Li2 V2 P6 H28 O32'
_cell_volume   670.81272978
_cell_formula_units_Z   2
loop_
 _symmetry_equiv_pos_site_id
 _symmetry_equiv_pos_as_xyz
  1  'x, y, z'
loop_
 _atom_site_type_symbol
 _atom_site_label
 _atom_site_symmetry_multiplicity
 _atom_site_fract_x
 _atom_site_fract_y
 _atom_site_fract_z
 _atom_site_occupancy
  Li  Li0  1  0.00880300  0.48824600  0.49279800  1
  Li  Li1  1  0.59319700  0.36061800  0.38999400  1
  V  V0  1  0.00054900  0.99906900  0.99976500  1
  V  V1  1  0.41556800  0.62862800  0.59611300  1
  P  P0  1  0.15158800  0.13507600  0.20037700  1
  P  P1  1  0.04442300  0.53294500  0.78830500  1
  P  P2  1  0.29378800  0.22894300  0.92878000  1
  P  P3  1  0.70551900  0.76958400  0.07329600  1
  P  P4  1  0.95933700  0.47030800  0.21208200  1
  P  P5  1  0.84631500  0.86450000  0.80125800  1
  H  H0  1  0.08800400  0.66333600  0.27741200  1
  H  H1  1  0.04437600  0.82563700  0.31546700  1
  H  H2  1  0.28142300  0.27485100  0.38982000  1
  H  H3  1  0.19857300  0.67317200  0.06969800  1
  H  H4  1  0.30035300  0.07773700  0.74933400  1
  H  H5  1  0.32076000  0.23307200  0.53296100  1
  H  H6  1  0.49206100  0.99718800  0.67835200  1
  H  H7  1  0.34032800  0.77355100  0.05800000  1
  H  H8  1  0.41474500  0.40114600  0.18251200  1
  H  H9  1  0.29444200  0.65534300  0.37546600  1
  H  H10  1  0.22290800  0.94949700  0.47237100  1
  H  H11  1  0.62167600  0.31227600  0.13912400  1
  H  H12  1  0.25997400  0.93794100  0.61255300  1
  H  H13  1  0.48610400  0.68809200  0.31348700  1
  H  H14  1  0.51826100  0.31001200  0.70138900  1
  H  H15  1  0.74313900  0.06739700  0.38717600  1
  H  H16  1  0.37456200  0.68761300  0.85834300  1
  H  H17  1  0.77922500  0.04929000  0.52662700  1
  H  H18  1  0.70122700  0.34602000  0.62277000  1
  H  H19  1  0.58450900  0.59835600  0.81669400  1
  H  H20  1  0.66040800  0.22548300  0.94161600  1
  H  H21  1  0.50837700  0.00202100  0.32222500  1
  H  H22  1  0.67535500  0.77375800  0.46390600  1
  H  H23  1  0.69973700  0.91998400  0.25177900  1
  H  H24  1  0.80244300  0.32569500  0.93027700  1
  H  H25  1  0.71482200  0.72907900  0.60964300  1
  H  H26  1  0.95474300  0.17467600  0.68280600  1
  H  H27  1  0.91118100  0.33571300  0.72251700  1
  O  O0  1  0.07104000  0.01424900  0.17879800  1
  O  O1  1  0.24640500  0.09638200  0.32099300  1
  O  O2  1  0.14399100  0.51177100  0.18850200  1
  O  O3  1  0.30757400  0.17855700  0.08188300  1
  O  O4  1  0.07414200  0.70716300  0.35232300  1
  O  O5  1  0.18746400  0.13582600  0.89136200  1
  O  O6  1  0.01601100  0.69814600  0.82544300  1
  O  O7  1  0.15982500  0.53795800  0.66023500  1
  O  O8  1  0.29360300  0.32550600  0.45416600  1
  O  O9  1  0.23524100  0.77091600  0.01444400  1
  O  O10  1  0.35748000  0.05244200  0.66674100  1
  O  O11  1  0.16683300  0.41500400  0.90768500  1
  O  O12  1  0.23386800  0.87519300  0.56075700  1
  O  O13  1  0.54536000  0.36444900  0.20481400  1
  O  O14  1  0.42908800  0.62818100  0.39404300  1
  O  O15  1  0.48761700  0.22002900  0.86505200  1
  O  O16  1  0.51195000  0.77841800  0.13738000  1
  O  O17  1  0.56185100  0.37683700  0.61822800  1
  O  O18  1  0.45402000  0.63404200  0.79390000  1
  O  O19  1  0.76940300  0.12722400  0.44038400  1
  O  O20  1  0.83325100  0.58471400  0.09254500  1
  O  O21  1  0.64119400  0.94056700  0.33568600  1
  O  O22  1  0.76721200  0.22737800  0.98374100  1
  O  O23  1  0.68592000  0.68429100  0.54658800  1
  O  O24  1  0.85115000  0.47115200  0.34026900  1
  O  O25  1  0.98569900  0.30267300  0.17772400  1
  O  O26  1  0.81197700  0.86440200  0.10863700  1
  O  O27  1  0.92465800  0.29315900  0.64701700  1
  O  O28  1  0.69130100  0.82086800  0.91929100  1
  O  O29  1  0.86168400  0.49236300  0.80351100  1
  O  O30  1  0.75373100  0.89734600  0.68073000  1
  O  O31  1  0.92665100  0.98694400  0.82003700  1
loop_
_geom_bond_atom_site_label_1
_geom_bond_atom_site_label_2
_geom_bond_distance
_geom_bond_site_symmetry_2
Li0 O27 2.209560 1_455
Li0 O8 2.236774 1_555
Li0 O4 2.241402 1_555
Li0 O24 2.276027 1_455
Li0 O7 2.531792 1_555
Li0 O23 2.608173 1_455
Li1 O19 2.065666 1_555
Li1 O13 2.103275 1_555
Li1 O8 2.342538 1_555
Li1 O14 2.351710 1_555
Li1 O24 2.376817 1_555
Li1 O17 2.508586 1_555
H0 O4 0.991512 1_555
H1 O4 0.987157 1_555
H2 O8 0.981147 1_555
H3 O9 0.998012 1_555
H4 O10 0.991075 1_555
H5 O8 0.994532 1_555
H6 O10 0.988037 1_565
H7 O9 1.003013 1_555
H8 O13 0.981640 1_555
H9 O14 1.006979 1_555
H9 O4 1.618178 1_555
H10 O12 0.991000 1_555
H11 O13 0.980742 1_555
H12 O12 0.996294 1_555
H13 O14 0.989417 1_555
H14 O17 0.992701 1_555
H14 O15 1.729631 1_555
H15 O19 0.987712 1_555
H16 O18 0.984314 1_555
H17 O19 0.985285 1_555
H18 O17 1.003756 1_555
H19 O18 0.983087 1_555
H20 O22 1.002105 1_555
H20 O15 1.687531 1_555
H21 O21 0.988599 1_545
H22 O23 1.004987 1_555
H23 O21 0.991357 1_555
H24 O22 0.991839 1_555
H25 O23 0.984375 1_555
H26 O27 0.985879 1_555
H27 O27 0.990867 1_555
O0 P0 1.504882 1_555
O0 V0 2.167872 1_544
O1 P0 1.499708 1_555
O2 P4 1.518344 1_455
O3 P2 1.604078 1_554
O3 P0 1.635481 1_555
O5 P2 1.512718 1_555
O5 V0 2.138793 1_545
O6 P1 1.610183 1_555
O6 P5 1.615503 1_455
O7 P1 1.511019 1_555
O7 V1 2.257242 1_555
O9 V0 2.229929 1_554
O11 P2 1.615656 1_555
O11 P1 1.616820 1_555
O12 V1 2.167742 1_555
O14 V1 2.193060 1_555
O15 P2 1.496346 1_555
O16 P3 1.495927 1_555
O17 V1 2.148095 1_555
O18 V1 2.246216 1_555
O20 P3 1.610263 1_555
O20 P4 1.625264 1_555
O22 V0 2.224564 1_645
O23 V1 2.197200 1_555
O24 P4 1.495038 1_555
O25 P0 1.607943 1_655
O25 P4 1.619427 1_555
O26 P3 1.514073 1_555
O26 V0 2.137849 1_654
O28 P3 1.613623 1_556
O28 P5 1.627962 1_555
O29 P1 1.508950 1_655
O30 P5 1.500520 1_555
O31 P5 1.503591 1_555
O31 V0 2.174572 1_655
