# generated using pymatgen
data_Li7Mn10Cr6O32
_symmetry_space_group_name_H-M   'P 1'
_cell_length_a   5.87735100
_cell_length_b   5.90732168
_cell_length_c   19.51645689
_cell_angle_alpha   81.74164967
_cell_angle_beta   81.43987089
_cell_angle_gamma   60.33122341
_symmetry_Int_Tables_number   1
_chemical_formula_structural   Li7Mn10Cr6O32
_chemical_formula_sum   'Li7 Mn10 Cr6 O32'
_cell_volume   580.27549371
_cell_formula_units_Z   1
loop_
 _symmetry_equiv_pos_site_id
 _symmetry_equiv_pos_as_xyz
  1  'x, y, z'
loop_
 _atom_site_type_symbol
 _atom_site_label
 _atom_site_symmetry_multiplicity
 _atom_site_fract_x
 _atom_site_fract_y
 _atom_site_fract_z
 _atom_site_occupancy
  Li  Li0  1  0.90335500  0.41323800  0.78120700  1
  Li  Li1  1  0.58980800  0.08955300  0.71969700  1
  Li  Li2  1  0.34700700  0.83617000  0.47035000  1
  Li  Li3  1  0.65990500  0.16017300  0.53080600  1
  Li  Li4  1  0.40016400  0.91421800  0.28150500  1
  Li  Li5  1  0.09879600  0.58550200  0.21741800  1
  Li  Li6  1  0.15231100  0.66530300  0.02974900  1
  Mn  Mn0  1  0.12472900  0.62491200  0.62532100  1
  Mn  Mn1  1  0.37519900  0.87682800  0.87554800  1
  Mn  Mn2  1  0.50079400  0.00045200  0.99861500  1
  Mn  Mn3  1  0.24746300  0.75187500  0.75001800  1
  Mn  Mn4  1  0.87241800  0.87674700  0.87579800  1
  Mn  Mn5  1  0.00308200  0.49752000  0.50073600  1
  Mn  Mn6  1  0.37689200  0.37335700  0.37525000  1
  Mn  Mn7  1  0.12300800  0.12658300  0.12395700  1
  Mn  Mn8  1  0.87488200  0.37295100  0.37544700  1
  Mn  Mn9  1  0.62663600  0.12649800  0.12389200  1
  Cr  Cr0  1  0.37491700  0.37443900  0.87553000  1
  Cr  Cr1  1  0.62492600  0.62484900  0.62531600  1
  Cr  Cr2  1  0.12483900  0.12491600  0.62537600  1
  Cr  Cr3  1  0.87499500  0.87415500  0.37582300  1
  Cr  Cr4  1  0.74940000  0.25017300  0.24987500  1
  Cr  Cr5  1  0.62652400  0.62356300  0.12348800  1
  O  O0  1  0.23214900  0.15909900  0.93445800  1
  O  O1  1  0.67448900  0.15989900  0.93451700  1
  O  O2  1  0.18745700  0.69974700  0.92707300  1
  O  O3  1  0.07276900  0.58815600  0.81553300  1
  O  O4  1  0.52194900  0.58792000  0.81477500  1
  O  O5  1  0.07740800  0.02777000  0.81647000  1
  O  O6  1  0.66805800  0.72888800  0.93351100  1
  O  O7  1  0.41291200  0.47369900  0.68555800  1
  O  O8  1  0.17774400  0.66131100  0.43540700  1
  O  O9  1  0.41687500  0.91840400  0.68756200  1
  O  O10  1  0.56260000  0.05161900  0.82249600  1
  O  O11  1  0.30412800  0.80370300  0.57271700  1
  O  O12  1  0.94541700  0.44621300  0.67807800  1
  O  O13  1  0.83668000  0.77622800  0.56501600  1
  O  O14  1  0.02649200  0.08478700  0.31760100  1
  O  O15  1  0.27825000  0.33507500  0.56547800  1
  O  O16  1  0.97150900  0.91485900  0.68523100  1
  O  O17  1  0.72844200  0.66080700  0.43637100  1
  O  O18  1  0.17330700  0.22225200  0.43507600  1
  O  O19  1  0.06290600  0.55088200  0.32290000  1
  O  O20  1  0.56971300  0.08433000  0.31774200  1
  O  O21  1  0.68693000  0.19741000  0.42838300  1
  O  O22  1  0.43739100  0.94889200  0.17637500  1
  O  O23  1  0.83318900  0.33138800  0.56309800  1
  O  O24  1  0.33021200  0.27582500  0.06469200  1
  O  O25  1  0.57525400  0.53070700  0.31760400  1
  O  O26  1  0.47278400  0.41437200  0.18207200  1
  O  O27  1  0.92375000  0.97009200  0.18157900  1
  O  O28  1  0.81461900  0.29777300  0.07320500  1
  O  O29  1  0.93006300  0.41448700  0.18230300  1
  O  O30  1  0.32517800  0.83781300  0.06379700  1
  O  O31  1  0.77357700  0.83787000  0.06385200  1
loop_
_geom_bond_atom_site_label_1
_geom_bond_atom_site_label_2
_geom_bond_distance
_geom_bond_site_symmetry_2
Li0 O3 1.980884 1_655
Li0 O12 1.984185 1_555
Li0 O4 1.996519 1_555
Li0 O5 2.039259 1_655
Li1 O9 1.959024 1_545
Li1 O10 1.977809 1_555
Li1 O16 2.002129 1_545
Li1 O7 2.027479 1_555
Li2 O11 1.969659 1_555
Li2 O8 1.985784 1_555
Li2 O17 1.998600 1_555
Li2 O18 2.042292 1_565
Li3 O23 1.962484 1_555
Li3 O21 1.970560 1_555
Li3 O15 2.002902 1_555
Li3 O13 2.026842 1_545
Li4 O14 1.971666 1_565
Li4 O20 1.976944 1_565
Li4 O22 2.022267 1_555
Li4 O25 2.034021 1_555
Li5 O29 1.966405 1_455
Li5 O26 1.969379 1_555
Li5 O19 2.028986 1_555
Li5 O27 2.037893 1_455
Li6 O2 1.975051 1_554
Li6 O30 1.983136 1_555
Li6 O31 1.986080 1_455
Li6 O24 2.057152 1_555
Mn0 O11 1.936480 1_555
Mn0 O12 1.936812 1_455
Mn0 O15 1.959856 1_555
Mn0 O7 1.960123 1_555
Mn0 O13 1.960395 1_455
Mn0 O16 1.961293 1_455
Mn1 O0 1.919443 1_565
Mn1 O6 1.952583 1_555
Mn1 O10 1.957182 1_565
Mn1 O2 1.957857 1_555
Mn1 O4 1.970568 1_555
Mn1 O5 1.987004 1_565
Mn2 O0 1.930192 1_555
Mn2 O1 1.930677 1_555
Mn2 O6 1.951109 1_545
Mn2 O31 1.961087 1_546
Mn2 O30 1.961230 1_546
Mn2 O24 1.979294 1_556
Mn3 O9 1.925831 1_555
Mn3 O4 1.961224 1_555
Mn3 O3 1.965045 1_555
Mn3 O16 1.967511 1_455
Mn3 O7 1.968849 1_555
Mn3 O5 1.986427 1_565
Mn4 O1 1.921425 1_565
Mn4 O6 1.956382 1_555
Mn4 O3 1.962823 1_655
Mn4 O2 1.964052 1_655
Mn4 O10 1.964184 1_565
Mn4 O5 1.984983 1_665
Mn5 O23 1.925273 1_455
Mn5 O17 1.956545 1_455
Mn5 O8 1.963379 1_555
Mn5 O15 1.963806 1_555
Mn5 O13 1.968514 1_455
Mn5 O18 1.973234 1_555
Mn6 O20 1.927550 1_555
Mn6 O8 1.958444 1_555
Mn6 O21 1.963150 1_555
Mn6 O25 1.967446 1_555
Mn6 O19 1.971485 1_555
Mn6 O18 1.983383 1_555
Mn7 O28 1.929013 1_455
Mn7 O29 1.933332 1_455
Mn7 O30 1.963111 1_545
Mn7 O27 1.967693 1_445
Mn7 O22 1.974001 1_545
Mn7 O24 1.987148 1_555
Mn8 O14 1.928018 1_655
Mn8 O21 1.962001 1_555
Mn8 O17 1.968098 1_555
Mn8 O19 1.969920 1_655
Mn8 O25 1.977115 1_555
Mn8 O18 1.996852 1_655
Mn9 O28 1.927874 1_555
Mn9 O26 1.930185 1_555
Mn9 O31 1.959829 1_545
Mn9 O27 1.964627 1_545
Mn9 O22 1.973429 1_545
Mn9 O24 1.983249 1_555
Cr0 O0 1.998517 1_555
Cr0 O1 2.001688 1_555
Cr0 O2 2.011987 1_555
Cr0 O10 2.017276 1_555
Cr0 O4 2.021719 1_555
Cr0 O3 2.023213 1_555
Cr1 O11 2.004373 1_555
Cr1 O12 2.004862 1_555
Cr1 O23 2.009868 1_555
Cr1 O9 2.010462 1_555
Cr1 O7 2.023862 1_555
Cr1 O13 2.024099 1_555
Cr2 O11 2.006367 1_545
Cr2 O23 2.006940 1_455
Cr2 O12 2.007207 1_455
Cr2 O9 2.007266 1_545
Cr2 O16 2.023290 1_445
Cr2 O15 2.024413 1_555
Cr3 O14 2.005394 1_665
Cr3 O20 2.010361 1_565
Cr3 O21 2.013975 1_565
Cr3 O17 2.017553 1_555
Cr3 O19 2.018055 1_655
Cr3 O8 2.020005 1_655
Cr4 O29 2.011097 1_555
Cr4 O26 2.011369 1_555
Cr4 O14 2.012095 1_655
Cr4 O20 2.016068 1_555
Cr4 O25 2.022007 1_555
Cr4 O27 2.027961 1_545
Cr5 O28 2.000599 1_555
Cr5 O26 2.010668 1_555
Cr5 O29 2.011651 1_555
Cr5 O31 2.016126 1_555
Cr5 O30 2.016773 1_555
Cr5 O22 2.026781 1_555
