# generated using pymatgen
data_Mn(Ni9O10)2
_symmetry_space_group_name_H-M   'P 1'
_cell_length_a   5.95305845
_cell_length_b   5.95305845
_cell_length_c   21.39607227
_cell_angle_alpha   97.99667792
_cell_angle_beta   97.99667792
_cell_angle_gamma   90.00000000
_symmetry_Int_Tables_number   1
_chemical_formula_structural   Mn(Ni9O10)2
_chemical_formula_sum   'Mn2 Ni36 O40'
_cell_volume   743.43394547
_cell_formula_units_Z   2
loop_
 _symmetry_equiv_pos_site_id
 _symmetry_equiv_pos_as_xyz
  1  'x, y, z'
loop_
 _atom_site_type_symbol
 _atom_site_label
 _atom_site_symmetry_multiplicity
 _atom_site_fract_x
 _atom_site_fract_y
 _atom_site_fract_z
 _atom_site_occupancy
  Mn  Mn0  1  0.59968200  0.59968200  0.19936400  1
  Mn  Mn1  1  0.20031800  0.20031800  0.40063600  1
  Ni  Ni0  1  0.99959800  0.99959800  0.99919500  1
  Ni  Ni1  1  0.50035700  0.00035700  0.00071400  1
  Ni  Ni2  1  0.49998800  0.49998800  0.99997700  1
  Ni  Ni3  1  0.00035700  0.50035700  0.00071400  1
  Ni  Ni4  1  0.80740200  0.80740200  0.10114200  1
  Ni  Ni5  1  0.29373900  0.80740200  0.10114200  1
  Ni  Ni6  1  0.29373900  0.29373900  0.10114200  1
  Ni  Ni7  1  0.80740200  0.29373900  0.10114200  1
  Ni  Ni8  1  0.10011300  0.60011300  0.20022700  1
  Ni  Ni9  1  0.60011300  0.10011300  0.20022700  1
  Ni  Ni10  1  0.90000000  0.40000000  0.30000000  1
  Ni  Ni11  1  0.40000000  0.40000000  0.30000000  1
  Ni  Ni12  1  0.90000000  0.90000000  0.30000000  1
  Ni  Ni13  1  0.40000000  0.90000000  0.30000000  1
  Ni  Ni14  1  0.69988700  0.19988700  0.39977300  1
  Ni  Ni15  1  0.19988700  0.69988700  0.39977300  1
  Ni  Ni16  1  0.99259800  0.99259800  0.49885800  1
  Ni  Ni17  1  0.50626100  0.50626100  0.49885800  1
  Ni  Ni18  1  0.99259800  0.50626100  0.49885800  1
  Ni  Ni19  1  0.50626100  0.99259800  0.49885800  1
  Ni  Ni20  1  0.29964300  0.79964300  0.59928600  1
  Ni  Ni21  1  0.80040200  0.80040200  0.60080500  1
  Ni  Ni22  1  0.30001200  0.30001200  0.60002300  1
  Ni  Ni23  1  0.79964300  0.29964300  0.59928600  1
  Ni  Ni24  1  0.10009400  0.59974100  0.69983600  1
  Ni  Ni25  1  0.59974100  0.59974100  0.69983600  1
  Ni  Ni26  1  0.59974100  0.10009400  0.69983600  1
  Ni  Ni27  1  0.10009400  0.10009400  0.69983600  1
  Ni  Ni28  1  0.90000000  0.40000000  0.80000000  1
  Ni  Ni29  1  0.40000000  0.40000000  0.80000000  1
  Ni  Ni30  1  0.40000000  0.90000000  0.80000000  1
  Ni  Ni31  1  0.90000000  0.90000000  0.80000000  1
  Ni  Ni32  1  0.20025900  0.20025900  0.90016400  1
  Ni  Ni33  1  0.69990600  0.69990600  0.90016400  1
  Ni  Ni34  1  0.20025900  0.69990600  0.90016400  1
  Ni  Ni35  1  0.69990600  0.20025900  0.90016400  1
  O  O0  1  0.25248300  0.25248300  0.00048400  1
  O  O1  1  0.74800100  0.25248300  0.00048400  1
  O  O2  1  0.74800100  0.74800100  0.00048400  1
  O  O3  1  0.25248300  0.74800100  0.00048400  1
  O  O4  1  0.04731900  0.04731900  0.09463800  1
  O  O5  1  0.05069000  0.55069000  0.10137900  1
  O  O6  1  0.55069000  0.05069000  0.10137900  1
  O  O7  1  0.55253100  0.55253100  0.10506200  1
  O  O8  1  0.37179100  0.82857300  0.20036400  1
  O  O9  1  0.82857300  0.37179100  0.20036400  1
  O  O10  1  0.37179100  0.37179100  0.20036400  1
  O  O11  1  0.82857300  0.82857300  0.20036400  1
  O  O12  1  0.64532200  0.64532200  0.29064400  1
  O  O13  1  0.15000000  0.65000000  0.30000000  1
  O  O14  1  0.65000000  0.15000000  0.30000000  1
  O  O15  1  0.15467800  0.15467800  0.30935600  1
  O  O16  1  0.97142700  0.42820900  0.39963600  1
  O  O17  1  0.42820900  0.42820900  0.39963600  1
  O  O18  1  0.42820900  0.97142700  0.39963600  1
  O  O19  1  0.97142700  0.97142700  0.39963600  1
  O  O20  1  0.24746900  0.24746900  0.49493800  1
  O  O21  1  0.74931000  0.24931000  0.49862100  1
  O  O22  1  0.24931000  0.74931000  0.49862100  1
  O  O23  1  0.75268100  0.75268100  0.50536200  1
  O  O24  1  0.54751700  0.54751700  0.59951600  1
  O  O25  1  0.05199900  0.54751700  0.59951600  1
  O  O26  1  0.05199900  0.05199900  0.59951600  1
  O  O27  1  0.54751700  0.05199900  0.59951600  1
  O  O28  1  0.84992200  0.84992200  0.69984400  1
  O  O29  1  0.84979100  0.34979100  0.69958100  1
  O  O30  1  0.34979100  0.84979100  0.69958100  1
  O  O31  1  0.35000300  0.35000300  0.70000600  1
  O  O32  1  0.65016100  0.14983900  0.80000000  1
  O  O33  1  0.14983900  0.14983900  0.80000000  1
  O  O34  1  0.65016100  0.65016100  0.80000000  1
  O  O35  1  0.14983900  0.65016100  0.80000000  1
  O  O36  1  0.44999700  0.44999700  0.89999400  1
  O  O37  1  0.95020900  0.45020900  0.90041900  1
  O  O38  1  0.45020900  0.95020900  0.90041900  1
  O  O39  1  0.95007800  0.95007800  0.90015600  1
loop_
_geom_bond_atom_site_label_1
_geom_bond_atom_site_label_2
_geom_bond_distance
_geom_bond_site_symmetry_2
Mn0 O12 1.914863 1_555
Mn0 O10 1.922915 1_555
Mn0 O8 1.922915 1_555
Mn0 O9 1.922915 1_555
Mn0 O11 1.922915 1_555
Mn0 O7 1.978258 1_555
Mn1 O15 1.914863 1_555
Mn1 O17 1.922915 1_555
Mn1 O18 1.922915 1_545
Mn1 O16 1.922915 1_455
Mn1 O19 1.922915 1_445
Mn1 O20 1.978258 1_555
Ni0 O4 2.002194 1_666
Ni0 O39 2.077631 1_555
Ni0 O0 2.123759 1_666
Ni0 O3 2.123763 1_656
Ni0 O1 2.123763 1_566
Ni0 O2 2.123767 1_556
Ni1 O38 2.103979 1_544
Ni1 O0 2.104814 1_555
Ni1 O1 2.104814 1_555
Ni1 O3 2.104814 1_545
Ni1 O2 2.104814 1_545
Ni1 O6 2.111741 1_555
Ni2 O0 2.085880 1_556
Ni2 O3 2.085884 1_556
Ni2 O1 2.085884 1_556
Ni2 O2 2.085889 1_556
Ni2 O36 2.097434 1_555
Ni2 O7 2.204463 1_556
Ni3 O37 2.103979 1_454
Ni3 O0 2.104814 1_555
Ni3 O3 2.104814 1_555
Ni3 O1 2.104814 1_455
Ni3 O2 2.104814 1_455
Ni3 O5 2.111741 1_555
Ni4 O4 2.051756 1_665
Ni4 O11 2.095195 1_555
Ni4 O5 2.105515 1_655
Ni4 O6 2.105515 1_565
Ni4 O2 2.112975 1_555
Ni4 O7 2.163797 1_555
Ni5 O4 2.051752 1_565
Ni5 O8 2.095196 1_555
Ni5 O5 2.105507 1_555
Ni5 O6 2.105524 1_565
Ni5 O3 2.112975 1_555
Ni5 O7 2.163801 1_555
Ni6 O4 2.051748 1_555
Ni6 O10 2.095196 1_555
Ni6 O5 2.105516 1_555
Ni6 O6 2.105516 1_555
Ni6 O0 2.112975 1_555
Ni6 O7 2.163805 1_555
Ni7 O4 2.051752 1_655
Ni7 O9 2.095196 1_555
Ni7 O6 2.105507 1_555
Ni7 O5 2.105524 1_655
Ni7 O1 2.112975 1_555
Ni7 O7 2.163801 1_555
Ni8 O5 2.073624 1_555
Ni8 O13 2.093028 1_555
Ni8 O9 2.112570 1_455
Ni8 O11 2.112573 1_455
Ni8 O10 2.112574 1_555
Ni8 O8 2.112578 1_555
Ni9 O6 2.073624 1_555
Ni9 O14 2.093028 1_555
Ni9 O8 2.112570 1_545
Ni9 O11 2.112573 1_545
Ni9 O10 2.112574 1_555
Ni9 O9 2.112578 1_555
Ni10 O16 2.098057 1_555
Ni10 O9 2.098057 1_555
Ni10 O13 2.104724 1_655
Ni10 O14 2.104724 1_555
Ni10 O15 2.113855 1_655
Ni10 O12 2.113855 1_555
Ni11 O17 2.098057 1_555
Ni11 O10 2.098057 1_555
Ni11 O13 2.104724 1_555
Ni11 O14 2.104724 1_555
Ni11 O12 2.113855 1_555
Ni11 O15 2.113855 1_555
Ni12 O19 2.098057 1_555
Ni12 O11 2.098057 1_555
Ni12 O13 2.104724 1_655
Ni12 O14 2.104724 1_565
Ni12 O15 2.113855 1_665
Ni12 O12 2.113855 1_555
Ni13 O18 2.098057 1_555
Ni13 O8 2.098057 1_555
Ni13 O14 2.104724 1_565
Ni13 O13 2.104724 1_555
Ni13 O15 2.113855 1_565
Ni13 O12 2.113855 1_555
Ni14 O21 2.073624 1_555
Ni14 O14 2.093028 1_555
Ni14 O16 2.112570 1_555
Ni14 O19 2.112573 1_545
Ni14 O17 2.112574 1_555
Ni14 O18 2.112578 1_545
Ni15 O22 2.073624 1_555
Ni15 O13 2.093028 1_555
Ni15 O18 2.112570 1_555
Ni15 O19 2.112573 1_455
Ni15 O17 2.112574 1_555
Ni15 O16 2.112578 1_455
Ni16 O23 2.051756 1_555
Ni16 O19 2.095195 1_555
Ni16 O22 2.105515 1_655
Ni16 O21 2.105515 1_565
Ni16 O26 2.112975 1_665
Ni16 O20 2.163797 1_665
Ni17 O23 2.051748 1_555
Ni17 O17 2.095196 1_555
Ni17 O21 2.105516 1_555
Ni17 O22 2.105516 1_555
Ni17 O24 2.112975 1_555
Ni17 O20 2.163805 1_555
Ni18 O23 2.051752 1_555
Ni18 O16 2.095196 1_555
Ni18 O22 2.105507 1_655
Ni18 O21 2.105524 1_555
Ni18 O25 2.112975 1_655
Ni18 O20 2.163801 1_655
Ni19 O23 2.051752 1_555
Ni19 O18 2.095196 1_555
Ni19 O21 2.105507 1_565
Ni19 O22 2.105524 1_555
Ni19 O27 2.112975 1_565
Ni19 O20 2.163801 1_565
Ni20 O30 2.103979 1_555
Ni20 O27 2.104814 1_565
Ni20 O26 2.104814 1_565
Ni20 O24 2.104814 1_555
Ni20 O25 2.104814 1_555
Ni20 O22 2.111741 1_555
Ni21 O23 2.002194 1_555
Ni21 O28 2.077631 1_555
Ni21 O24 2.123759 1_555
Ni21 O25 2.123763 1_655
Ni21 O27 2.123763 1_565
Ni21 O26 2.123767 1_665
Ni22 O24 2.085880 1_555
Ni22 O27 2.085884 1_555
Ni22 O25 2.085884 1_555
Ni22 O26 2.085889 1_555
Ni22 O31 2.097434 1_555
Ni22 O20 2.204463 1_555
Ni23 O29 2.103979 1_555
Ni23 O25 2.104814 1_655
Ni23 O26 2.104814 1_655
Ni23 O24 2.104814 1_555
Ni23 O27 2.104814 1_555
Ni23 O21 2.111741 1_555
Ni24 O35 2.101233 1_555
Ni24 O31 2.103241 1_555
Ni24 O25 2.104575 1_555
Ni24 O29 2.104723 1_455
Ni24 O30 2.104740 1_555
Ni24 O28 2.106210 1_455
Ni25 O34 2.101233 1_555
Ni25 O31 2.103237 1_555
Ni25 O24 2.104575 1_555
Ni25 O29 2.104731 1_555
Ni25 O30 2.104731 1_555
Ni25 O28 2.106214 1_555
Ni26 O32 2.101233 1_555
Ni26 O31 2.103241 1_555
Ni26 O27 2.104575 1_555
Ni26 O30 2.104723 1_545
Ni26 O29 2.104740 1_555
Ni26 O28 2.106210 1_545
Ni27 O33 2.101233 1_555
Ni27 O31 2.103245 1_555
Ni27 O26 2.104575 1_555
Ni27 O29 2.104731 1_455
Ni27 O30 2.104731 1_545
Ni27 O28 2.106206 1_445
Ni28 O35 2.104724 1_655
Ni28 O34 2.104724 1_555
Ni28 O32 2.104724 1_555
Ni28 O33 2.104724 1_655
Ni28 O37 2.106580 1_555
Ni28 O29 2.106580 1_555
Ni29 O36 2.097665 1_555
Ni29 O31 2.097665 1_555
Ni29 O34 2.106079 1_555
Ni29 O32 2.106079 1_555
Ni29 O35 2.106079 1_555
Ni29 O33 2.106079 1_555
Ni30 O35 2.104724 1_555
Ni30 O32 2.104724 1_565
Ni30 O33 2.104724 1_565
Ni30 O34 2.104724 1_555
Ni30 O38 2.106580 1_555
Ni30 O30 2.106580 1_555
Ni31 O39 2.101063 1_555
Ni31 O28 2.101063 1_555
Ni31 O35 2.103369 1_655
Ni31 O33 2.103369 1_665
Ni31 O32 2.103369 1_565
Ni31 O34 2.103369 1_555
Ni32 O33 2.101233 1_555
Ni32 O36 2.103237 1_555
Ni32 O0 2.104575 1_556
Ni32 O38 2.104731 1_545
Ni32 O37 2.104731 1_455
Ni32 O39 2.106214 1_445
Ni33 O34 2.101233 1_555
Ni33 O36 2.103245 1_555
Ni33 O2 2.104575 1_556
Ni33 O37 2.104731 1_555
Ni33 O38 2.104731 1_555
Ni33 O39 2.106206 1_555
Ni34 O35 2.101233 1_555
Ni34 O36 2.103241 1_555
Ni34 O3 2.104575 1_556
Ni34 O38 2.104723 1_555
Ni34 O37 2.104740 1_455
Ni34 O39 2.106210 1_455
Ni35 O32 2.101233 1_555
Ni35 O36 2.103241 1_555
Ni35 O1 2.104575 1_556
Ni35 O37 2.104723 1_555
Ni35 O38 2.104740 1_545
Ni35 O39 2.106210 1_545
