# generated using pymatgen
data_Yb(BO2)3
_symmetry_space_group_name_H-M   'P 1'
_cell_length_a   6.38008418
_cell_length_b   6.38008418
_cell_length_c   6.29807452
_cell_angle_alpha   62.63537757
_cell_angle_beta   62.63537757
_cell_angle_gamma   79.79958690
_symmetry_Int_Tables_number   1
_chemical_formula_structural   Yb(BO2)3
_chemical_formula_sum   'Yb2 B6 O12'
_cell_volume   202.01116041
_cell_formula_units_Z   2
loop_
 _symmetry_equiv_pos_site_id
 _symmetry_equiv_pos_as_xyz
  1  'x, y, z'
loop_
 _atom_site_type_symbol
 _atom_site_label
 _atom_site_symmetry_multiplicity
 _atom_site_fract_x
 _atom_site_fract_y
 _atom_site_fract_z
 _atom_site_occupancy
  Yb  Yb0  1  0.79586000  0.20414000  0.25000000  1
  Yb  Yb1  1  0.20414000  0.79586000  0.75000000  1
  B  B0  1  0.21951900  0.78048100  0.25000000  1
  B  B1  1  0.79188000  0.65929100  0.41369600  1
  B  B2  1  0.34070900  0.20812000  0.08630400  1
  B  B3  1  0.65929100  0.79188000  0.91369600  1
  B  B4  1  0.20812000  0.34070900  0.58630400  1
  B  B5  1  0.78048100  0.21951900  0.75000000  1
  O  O0  1  0.21332000  0.58424300  0.49296100  1
  O  O1  1  0.21726600  0.99276600  0.28983200  1
  O  O2  1  0.39111900  0.21660100  0.49984900  1
  O  O3  1  0.00723400  0.78273400  0.21016800  1
  O  O4  1  0.41575700  0.78668000  0.00703900  1
  O  O5  1  0.21660100  0.39111900  0.99984900  1
  O  O6  1  0.78339900  0.60888100  0.00015100  1
  O  O7  1  0.58424300  0.21332000  0.99296100  1
  O  O8  1  0.99276600  0.21726600  0.78983200  1
  O  O9  1  0.60888100  0.78339900  0.50015100  1
  O  O10  1  0.78273400  0.00723400  0.71016800  1
  O  O11  1  0.78668000  0.41575700  0.50703900  1
loop_
_geom_bond_atom_site_label_1
_geom_bond_atom_site_label_2
_geom_bond_distance
_geom_bond_site_symmetry_2
B0 O4 1.453019 1_555
B0 O0 1.453019 1_555
B0 O1 1.483129 1_555
B0 O3 1.483129 1_555
B1 O9 1.330833 1_555
B1 O11 1.386184 1_555
B1 O3 1.409714 1_655
B2 O5 1.330833 1_554
B2 O7 1.386184 1_554
B2 O1 1.409714 1_545
B3 O6 1.330833 1_556
B3 O4 1.386184 1_556
B3 O10 1.409714 1_565
B4 O2 1.330833 1_555
B4 O0 1.386184 1_555
B4 O8 1.409714 1_455
B5 O7 1.453019 1_555
B5 O11 1.453019 1_555
B5 O10 1.483129 1_555
B5 O8 1.483129 1_555
O0 Yb1 2.518152 1_555
O1 Yb1 2.540018 1_555
O1 Yb0 2.852200 1_465
O2 Yb0 2.336112 1_555
O2 Yb1 2.574798 1_545
O3 Yb1 2.540018 1_554
O3 Yb0 2.852200 1_465
O4 Yb1 2.518152 1_554
O5 Yb1 2.336112 1_555
O5 Yb0 2.574798 1_456
O6 Yb0 2.336112 1_555
O6 Yb1 2.574798 1_654
O7 Yb0 2.518152 1_556
O8 Yb0 2.540018 1_556
O8 Yb1 2.852200 1_645
O9 Yb1 2.336112 1_555
O9 Yb0 2.574798 1_565
O10 Yb0 2.540018 1_555
O10 Yb1 2.852200 1_645
O11 Yb0 2.518152 1_555
