# generated using pymatgen
data_Li2FePO4F
_symmetry_space_group_name_H-M   'P 1'
_cell_length_a   6.50756200
_cell_length_b   10.66171700
_cell_length_c   11.08516800
_cell_angle_alpha   90.00000000
_cell_angle_beta   90.00000000
_cell_angle_gamma   90.00000000
_symmetry_Int_Tables_number   1
_chemical_formula_structural   Li2FePO4F
_chemical_formula_sum   'Li16 Fe8 P8 O32 F8'
_cell_volume   769.10873626
_cell_formula_units_Z   8
loop_
 _symmetry_equiv_pos_site_id
 _symmetry_equiv_pos_as_xyz
  1  'x, y, z'
loop_
 _atom_site_type_symbol
 _atom_site_label
 _atom_site_symmetry_multiplicity
 _atom_site_fract_x
 _atom_site_fract_y
 _atom_site_fract_z
 _atom_site_occupancy
  Li  Li0  1  0.75000000  0.02612700  0.27209400  1
  Li  Li1  1  0.25000000  0.23020600  0.08341200  1
  Li  Li2  1  0.51003200  0.24066100  0.33367800  1
  Li  Li3  1  0.98996800  0.24066100  0.33367800  1
  Li  Li4  1  0.01003200  0.25933900  0.83367800  1
  Li  Li5  1  0.48996800  0.25933900  0.83367800  1
  Li  Li6  1  0.75000000  0.26979400  0.58341200  1
  Li  Li7  1  0.25000000  0.47387300  0.77209400  1
  Li  Li8  1  0.75000000  0.52612700  0.22790600  1
  Li  Li9  1  0.25000000  0.73020600  0.41658800  1
  Li  Li10  1  0.51003200  0.74066100  0.16632200  1
  Li  Li11  1  0.98996800  0.74066100  0.16632200  1
  Li  Li12  1  0.01003200  0.75933900  0.66632200  1
  Li  Li13  1  0.48996800  0.75933900  0.66632200  1
  Li  Li14  1  0.75000000  0.76979400  0.91658800  1
  Li  Li15  1  0.25000000  0.97387300  0.72790600  1
  Fe  Fe0  1  0.00000000  0.00000000  0.00000000  1
  Fe  Fe1  1  0.50000000  0.00000000  0.00000000  1
  Fe  Fe2  1  0.00000000  0.00000000  0.50000000  1
  Fe  Fe3  1  0.50000000  0.00000000  0.50000000  1
  Fe  Fe4  1  0.00000000  0.50000000  0.50000000  1
  Fe  Fe5  1  0.50000000  0.50000000  0.50000000  1
  Fe  Fe6  1  0.00000000  0.50000000  0.00000000  1
  Fe  Fe7  1  0.50000000  0.50000000  0.00000000  1
  P  P0  1  0.75000000  0.02171100  0.74472000  1
  P  P1  1  0.75000000  0.24375200  0.07993400  1
  P  P2  1  0.25000000  0.25624800  0.57993400  1
  P  P3  1  0.25000000  0.47828900  0.24472000  1
  P  P4  1  0.75000000  0.52171100  0.75528000  1
  P  P5  1  0.75000000  0.74375200  0.42006600  1
  P  P6  1  0.25000000  0.75624800  0.92006600  1
  P  P7  1  0.25000000  0.97828900  0.25528000  1
  O  O0  1  0.25000000  0.02932200  0.12342900  1
  O  O1  1  0.05631900  0.03331600  0.31931100  1
  O  O2  1  0.44368100  0.03331600  0.31931100  1
  O  O3  1  0.25000000  0.11160800  0.55771900  1
  O  O4  1  0.75000000  0.16788800  0.74440400  1
  O  O5  1  0.55397500  0.19049800  0.01659200  1
  O  O6  1  0.94602500  0.19049800  0.01659200  1
  O  O7  1  0.75000000  0.21574800  0.21642900  1
  O  O8  1  0.25000000  0.28425200  0.71642900  1
  O  O9  1  0.05397500  0.30950200  0.51659200  1
  O  O10  1  0.44602500  0.30950200  0.51659200  1
  O  O11  1  0.25000000  0.33211200  0.24440400  1
  O  O12  1  0.75000000  0.38839200  0.05771900  1
  O  O13  1  0.55631900  0.46668400  0.81931100  1
  O  O14  1  0.94368100  0.46668400  0.81931100  1
  O  O15  1  0.75000000  0.47067800  0.62342900  1
  O  O16  1  0.25000000  0.52932200  0.37657100  1
  O  O17  1  0.05631900  0.53331600  0.18068900  1
  O  O18  1  0.44368100  0.53331600  0.18068900  1
  O  O19  1  0.25000000  0.61160800  0.94228100  1
  O  O20  1  0.75000000  0.66788800  0.75559600  1
  O  O21  1  0.55397500  0.69049800  0.48340800  1
  O  O22  1  0.94602500  0.69049800  0.48340800  1
  O  O23  1  0.75000000  0.71574800  0.28357100  1
  O  O24  1  0.25000000  0.78425200  0.78357100  1
  O  O25  1  0.05397500  0.80950200  0.98340800  1
  O  O26  1  0.44602500  0.80950200  0.98340800  1
  O  O27  1  0.25000000  0.83211200  0.25559600  1
  O  O28  1  0.75000000  0.88839200  0.44228100  1
  O  O29  1  0.55631900  0.96668400  0.68068900  1
  O  O30  1  0.94368100  0.96668400  0.68068900  1
  O  O31  1  0.75000000  0.97067800  0.87657100  1
  F  F0  1  0.25000000  0.05378400  0.87919700  1
  F  F1  1  0.75000000  0.13437200  0.46716700  1
  F  F2  1  0.25000000  0.36562800  0.96716700  1
  F  F3  1  0.75000000  0.44621600  0.37919700  1
  F  F4  1  0.25000000  0.55378400  0.62080300  1
  F  F5  1  0.75000000  0.63437200  0.03283300  1
  F  F6  1  0.25000000  0.86562800  0.53283300  1
  F  F7  1  0.75000000  0.94621600  0.12080300  1
loop_
_geom_bond_atom_site_label_1
_geom_bond_atom_site_label_2
_geom_bond_distance
_geom_bond_site_symmetry_2
Li0 O2 2.062386 1_555
Li0 O1 2.062386 1_655
Li0 O7 2.113757 1_555
Li0 O28 2.390720 1_545
Li1 O11 2.089341 1_555
Li1 O5 2.154276 1_555
Li1 O6 2.154276 1_455
Li1 O0 2.187224 1_555
Li2 O7 2.049012 1_555
Li2 O11 2.189399 1_555
Li2 O10 2.196245 1_555
Li2 O2 2.258050 1_555
Li3 O7 2.049012 1_555
Li3 O11 2.189399 1_655
Li3 O9 2.196245 1_655
Li3 O1 2.258050 1_655
Li4 O8 2.049012 1_555
Li4 O4 2.189399 1_455
Li4 O6 2.196245 1_456
Li4 O14 2.258050 1_455
Li5 O8 2.049012 1_555
Li5 O4 2.189399 1_555
Li5 O5 2.196245 1_556
Li5 O13 2.258050 1_555
Li6 O4 2.089341 1_555
Li6 O10 2.154276 1_555
Li6 O9 2.154276 1_655
Li6 O15 2.187224 1_555
Li7 O14 2.062386 1_455
Li7 O13 2.062386 1_555
Li7 O8 2.113757 1_555
Li7 O19 2.390720 1_555
Li8 O17 2.062386 1_655
Li8 O18 2.062386 1_555
Li8 O23 2.113757 1_555
Li8 O12 2.390720 1_555
Li9 O27 2.089341 1_555
Li9 O21 2.154276 1_555
Li9 O22 2.154276 1_455
Li9 O16 2.187224 1_555
Li10 O23 2.049012 1_555
Li10 O27 2.189399 1_555
Li10 O26 2.196245 1_554
Li10 O18 2.258050 1_555
Li11 O23 2.049012 1_555
Li11 O27 2.189399 1_655
Li11 O25 2.196245 1_654
Li11 O17 2.258050 1_655
Li12 O24 2.049012 1_555
Li12 O20 2.189399 1_455
Li12 O22 2.196245 1_455
Li12 O30 2.258050 1_455
Li13 O24 2.049012 1_555
Li13 O20 2.189399 1_555
Li13 O21 2.196245 1_555
Li13 O29 2.258050 1_555
Li14 O20 2.089341 1_555
Li14 O26 2.154276 1_555
Li14 O25 2.154276 1_655
Li14 O31 2.187224 1_555
Li15 O30 2.062386 1_455
Li15 O29 2.062386 1_555
Li15 O24 2.113757 1_555
Li15 O3 2.390720 1_565
Fe0 O25 2.069374 1_544
Fe0 O6 2.069374 1_455
Fe0 O31 2.148619 1_444
Fe0 O0 2.148619 1_555
Fe1 O26 2.069374 1_544
Fe1 O5 2.069374 1_555
Fe1 O0 2.148619 1_555
Fe1 O31 2.148619 1_544
Fe2 O30 2.066972 1_445
Fe2 O1 2.066972 1_555
Fe2 O3 2.114731 1_555
Fe2 O28 2.114731 1_445
Fe3 O29 2.066972 1_545
Fe3 O2 2.066972 1_555
Fe3 O3 2.114731 1_555
Fe3 O28 2.114731 1_545
Fe4 O22 2.069374 1_455
Fe4 O9 2.069374 1_555
Fe4 O15 2.148619 1_455
Fe4 O16 2.148619 1_555
Fe5 O21 2.069374 1_555
Fe5 O10 2.069374 1_555
Fe5 O15 2.148619 1_555
Fe5 O16 2.148619 1_555
Fe6 O14 2.066972 1_454
Fe6 O17 2.066972 1_555
Fe6 O19 2.114731 1_554
Fe6 O12 2.114731 1_455
Fe7 O18 2.066972 1_555
Fe7 O13 2.066972 1_554
Fe7 O19 2.114731 1_554
Fe7 O12 2.114731 1_555
O0 P7 1.559580 1_545
O1 P7 1.560958 1_545
O2 P7 1.560958 1_545
O3 P2 1.561649 1_555
O4 P0 1.558502 1_555
O5 P1 1.562903 1_555
O6 P1 1.562903 1_555
O7 P1 1.542247 1_555
O8 P2 1.542247 1_555
O9 P2 1.562903 1_555
O10 P2 1.562903 1_555
O11 P3 1.558502 1_555
O12 P1 1.561649 1_555
O13 P4 1.560958 1_555
O14 P4 1.560958 1_555
O15 P4 1.559580 1_555
O16 P3 1.559580 1_555
O17 P3 1.560958 1_555
O18 P3 1.560958 1_555
O19 P6 1.561649 1_555
O20 P4 1.558502 1_555
O21 P5 1.562903 1_555
O22 P5 1.562903 1_555
O23 P5 1.542247 1_555
O24 P6 1.542247 1_555
O25 P6 1.562903 1_555
O26 P6 1.562903 1_555
O27 P7 1.558502 1_555
O28 P5 1.561649 1_555
O29 P0 1.560958 1_565
O30 P0 1.560958 1_565
O31 P0 1.559580 1_565
F0 Li15 1.881091 1_545
F0 Fe1 2.183768 1_556
F0 Fe0 2.183768 1_556
F1 Li6 1.935233 1_555
F1 Fe3 2.198110 1_555
F1 Fe2 2.198110 1_655
F1 Li2 2.431556 1_555
F1 Li3 2.431556 1_555
F1 Li0 2.451110 1_555
F2 Li1 1.935233 1_556
F2 Fe6 2.198110 1_556
F2 Fe7 2.198110 1_556
F2 Li4 2.431556 1_555
F2 Li5 2.431556 1_555
F2 Li7 2.451110 1_555
F3 Li8 1.881091 1_555
F3 Fe5 2.183768 1_555
F3 Fe4 2.183768 1_655
F4 Li7 1.881091 1_555
F4 Fe5 2.183768 1_555
F4 Fe4 2.183768 1_555
F5 Li14 1.935233 1_554
F5 Fe7 2.198110 1_555
F5 Fe6 2.198110 1_655
F5 Li10 2.431556 1_555
F5 Li11 2.431556 1_555
F5 Li8 2.451110 1_555
F6 Li9 1.935233 1_555
F6 Fe2 2.198110 1_565
F6 Fe3 2.198110 1_565
F6 Li12 2.431556 1_555
F6 Li13 2.431556 1_555
F6 Li15 2.451110 1_555
F7 Li0 1.881091 1_565
F7 Fe1 2.183768 1_565
F7 Fe0 2.183768 1_665
