# generated using pymatgen
data_Li3Cu2F8
_symmetry_space_group_name_H-M   'P 1'
_cell_length_a   5.44892400
_cell_length_b   5.77589362
_cell_length_c   6.04605406
_cell_angle_alpha   62.05737526
_cell_angle_beta   68.02274676
_cell_angle_gamma   68.04274443
_symmetry_Int_Tables_number   1
_chemical_formula_structural   Li3Cu2F8
_chemical_formula_sum   'Li3 Cu2 F8'
_cell_volume   151.23692504
_cell_formula_units_Z   1
loop_
 _symmetry_equiv_pos_site_id
 _symmetry_equiv_pos_as_xyz
  1  'x, y, z'
loop_
 _atom_site_type_symbol
 _atom_site_label
 _atom_site_symmetry_multiplicity
 _atom_site_fract_x
 _atom_site_fract_y
 _atom_site_fract_z
 _atom_site_occupancy
  Li  Li0  1  0.94132000  0.93555700  0.04009300  1
  Li  Li1  1  0.11317700  0.18721600  0.48492700  1
  Li  Li2  1  0.90667400  0.82049200  0.53642700  1
  Cu  Cu0  1  0.52892500  0.51066800  0.23952300  1
  Cu  Cu1  1  0.47369700  0.49590700  0.75423400  1
  F  F0  1  0.33446100  0.34230400  0.60624900  1
  F  F1  1  0.34439800  0.33805900  0.15704000  1
  F  F2  1  0.79320200  0.21505200  0.76304700  1
  F  F3  1  0.82530800  0.19560000  0.28357700  1
  F  F4  1  0.16739600  0.80028200  0.72078600  1
  F  F5  1  0.21229500  0.80180500  0.22810500  1
  F  F6  1  0.65403200  0.66855800  0.85394100  1
  F  F7  1  0.70529200  0.68832200  0.33205100  1
loop_
_geom_bond_atom_site_label_1
_geom_bond_atom_site_label_2
_geom_bond_distance
_geom_bond_site_symmetry_2
Cu0 F5 1.902588 1_555
Cu0 F3 1.913277 1_555
Cu0 F1 1.960747 1_555
Cu0 F7 1.991785 1_555
Cu0 F0 1.993995 1_555
Cu0 F6 2.003521 1_554
Cu1 F2 1.881942 1_555
Cu1 F4 1.908496 1_555
Cu1 F0 1.979551 1_555
Cu1 F6 2.015678 1_555
Cu1 F1 2.091395 1_556
Cu1 F7 2.307027 1_555
F0 Li1 2.209029 1_555
F1 Li1 1.899792 1_555
F2 Li0 1.888526 1_546
F2 Li1 1.934584 1_655
F3 Li2 1.978031 1_545
F3 Li1 2.293899 1_655
F3 Li0 2.342712 1_545
F4 Li1 1.987545 1_565
F4 Li2 2.052704 1_455
F4 Li0 2.183766 1_456
F5 Li0 1.910319 1_455
F5 Li2 1.997621 1_455
F6 Li2 1.922780 1_555
F7 Li0 2.030035 1_555
F7 Li2 2.416428 1_555
