# generated using pymatgen
data_LiCrP2O7
_symmetry_space_group_name_H-M   'P 1'
_cell_length_a   13.44956000
_cell_length_b   5.04158100
_cell_length_c   9.50203015
_cell_angle_alpha   58.57778139
_cell_angle_beta   90.00000000
_cell_angle_gamma   90.00000000
_symmetry_Int_Tables_number   1
_chemical_formula_structural   LiCrP2O7
_chemical_formula_sum   'Li4 Cr4 P8 O28'
_cell_volume   549.81648506
_cell_formula_units_Z   4
loop_
 _symmetry_equiv_pos_site_id
 _symmetry_equiv_pos_as_xyz
  1  'x, y, z'
loop_
 _atom_site_type_symbol
 _atom_site_label
 _atom_site_symmetry_multiplicity
 _atom_site_fract_x
 _atom_site_fract_y
 _atom_site_fract_z
 _atom_site_occupancy
  Li  Li0  1  0.38018300  0.98982200  0.35649100  1
  Li  Li1  1  0.88018300  0.01017800  0.14350900  1
  Li  Li2  1  0.11981700  0.98982200  0.85649100  1
  Li  Li3  1  0.61981700  0.01017800  0.64350900  1
  Cr  Cr0  1  0.66786700  0.02679000  0.26615500  1
  Cr  Cr1  1  0.83213300  0.02679000  0.76615500  1
  Cr  Cr2  1  0.33213300  0.97321000  0.73384500  1
  Cr  Cr3  1  0.16786700  0.97321000  0.23384500  1
  P  P0  1  0.47117600  0.48157200  0.72556400  1
  P  P1  1  0.52882400  0.51842800  0.27443600  1
  P  P2  1  0.82187400  0.73072200  0.53939000  1
  P  P3  1  0.67812600  0.73072200  0.03939000  1
  P  P4  1  0.02882400  0.48157200  0.22556400  1
  P  P5  1  0.32187400  0.26927800  0.96061000  1
  P  P6  1  0.17812600  0.26927800  0.46061000  1
  P  P7  1  0.97117600  0.51842800  0.77443600  1
  O  O0  1  0.04430700  0.22010500  0.18520500  1
  O  O1  1  0.78442100  0.41355500  0.57572700  1
  O  O2  1  0.39231400  0.74400900  0.63162900  1
  O  O3  1  0.42497200  0.40604400  0.29056900  1
  O  O4  1  0.93970500  0.69292600  0.57622600  1
  O  O5  1  0.06029500  0.30707400  0.42377400  1
  O  O6  1  0.89231400  0.25599100  0.86837100  1
  O  O7  1  0.77473800  0.82981400  0.65144200  1
  O  O8  1  0.54430700  0.77989500  0.31479500  1
  O  O9  1  0.07502800  0.40604400  0.79056900  1
  O  O10  1  0.43970500  0.30707400  0.92377400  1
  O  O11  1  0.80611200  0.97388400  0.35635000  1
  O  O12  1  0.57502800  0.59395600  0.70943100  1
  O  O13  1  0.28442100  0.58644500  0.92427300  1
  O  O14  1  0.45569300  0.22010500  0.68520500  1
  O  O15  1  0.60768600  0.25599100  0.36837100  1
  O  O16  1  0.71557900  0.41355500  0.07572700  1
  O  O17  1  0.19388800  0.02611600  0.64365000  1
  O  O18  1  0.10768600  0.74400900  0.13162900  1
  O  O19  1  0.92497200  0.59395600  0.20943100  1
  O  O20  1  0.95569300  0.77989500  0.81479500  1
  O  O21  1  0.56029500  0.69292600  0.07622600  1
  O  O22  1  0.69388800  0.97388400  0.85635000  1
  O  O23  1  0.22526200  0.17018600  0.34855800  1
  O  O24  1  0.72526200  0.82981400  0.15144200  1
  O  O25  1  0.30611200  0.02611600  0.14365000  1
  O  O26  1  0.27473800  0.17018600  0.84855800  1
  O  O27  1  0.21557900  0.58644500  0.42427300  1
loop_
_geom_bond_atom_site_label_1
_geom_bond_atom_site_label_2
_geom_bond_distance
_geom_bond_site_symmetry_2
Li0 O3 1.946295 1_565
Li0 O25 2.174919 1_565
Li0 O2 2.240344 1_555
Li0 O23 2.258881 1_565
Li0 O8 2.566499 1_555
Li1 O19 1.946295 1_545
Li1 O11 2.174919 1_545
Li1 O6 2.240344 1_554
Li1 O24 2.258881 1_545
Li1 O0 2.566499 1_655
Li2 O9 1.946295 1_565
Li2 O17 2.174919 1_565
Li2 O18 2.240344 1_556
Li2 O26 2.258881 1_565
Li2 O20 2.566499 1_455
Li3 O12 1.946295 1_545
Li3 O22 2.174919 1_545
Li3 O15 2.240344 1_555
Li3 O7 2.258881 1_545
Li3 O14 2.566499 1_555
Cr0 O16 1.951714 1_555
Cr0 O24 1.974549 1_545
Cr0 O8 1.981114 1_545
Cr0 O11 2.006097 1_545
Cr0 O15 2.025827 1_555
Cr1 O1 1.951714 1_555
Cr1 O7 1.974549 1_545
Cr1 O20 1.981114 1_545
Cr1 O22 2.006097 1_545
Cr1 O6 2.025827 1_555
Cr2 O13 1.951714 1_555
Cr2 O26 1.974549 1_565
Cr2 O14 1.981114 1_565
Cr2 O17 2.006097 1_565
Cr2 O2 2.025827 1_555
Cr3 O27 1.951714 1_555
Cr3 O23 1.974549 1_565
Cr3 O0 1.981114 1_565
Cr3 O25 2.006097 1_565
Cr3 O18 2.025827 1_555
O0 P4 1.566907 1_555
O1 P2 1.534328 1_555
O2 P0 1.562340 1_555
O3 P1 1.484895 1_555
O4 P2 1.612697 1_555
O4 P7 1.665133 1_555
O5 P6 1.612697 1_555
O5 P4 1.665133 1_555
O6 P7 1.562340 1_555
O7 P2 1.529618 1_555
O8 P1 1.566907 1_555
O9 P7 1.484895 1_455
O10 P5 1.612697 1_555
O10 P0 1.665133 1_555
O11 P2 1.532850 1_555
O12 P0 1.484895 1_555
O13 P5 1.534328 1_555
O14 P0 1.566907 1_555
O15 P1 1.562340 1_555
O16 P3 1.534328 1_555
O17 P6 1.532850 1_555
O18 P4 1.562340 1_555
O19 P4 1.484895 1_655
O20 P7 1.566907 1_555
O21 P3 1.612697 1_555
O21 P1 1.665133 1_555
O22 P3 1.532850 1_556
O23 P6 1.529618 1_555
O24 P3 1.529618 1_555
O25 P5 1.532850 1_554
O26 P5 1.529618 1_555
O27 P6 1.534328 1_555
