# generated using pymatgen
data_P2H10S4N2O
_symmetry_space_group_name_H-M   'P 1'
_cell_length_a   8.18261000
_cell_length_b   8.78566900
_cell_length_c   14.46450900
_cell_angle_alpha   90.00000000
_cell_angle_beta   90.00000000
_cell_angle_gamma   90.00000000
_symmetry_Int_Tables_number   1
_chemical_formula_structural   P2H10S4N2O
_chemical_formula_sum   'P8 H40 S16 N8 O4'
_cell_volume   1039.84925628
_cell_formula_units_Z   4
loop_
 _symmetry_equiv_pos_site_id
 _symmetry_equiv_pos_as_xyz
  1  'x, y, z'
loop_
 _atom_site_type_symbol
 _atom_site_label
 _atom_site_symmetry_multiplicity
 _atom_site_fract_x
 _atom_site_fract_y
 _atom_site_fract_z
 _atom_site_occupancy
  P  P0  1  0.42164100  0.86702700  0.43307800  1
  P  P1  1  0.57835900  0.86702700  0.56692200  1
  P  P2  1  0.92164100  0.13297300  0.06692200  1
  P  P3  1  0.07835900  0.13297300  0.93307800  1
  P  P4  1  0.57835900  0.13297300  0.56692200  1
  P  P5  1  0.42164100  0.13297300  0.43307800  1
  P  P6  1  0.07835900  0.86702700  0.93307800  1
  P  P7  1  0.92164100  0.86702700  0.06692200  1
  H  H0  1  0.33735000  0.41200600  0.09313700  1
  H  H1  1  0.66265000  0.41200600  0.90686300  1
  H  H2  1  0.83735000  0.58799400  0.40686300  1
  H  H3  1  0.16265000  0.58799400  0.59313700  1
  H  H4  1  0.66265000  0.58799400  0.90686300  1
  H  H5  1  0.33735000  0.58799400  0.09313700  1
  H  H6  1  0.16265000  0.41200600  0.59313700  1
  H  H7  1  0.83735000  0.41200600  0.40686300  1
  H  H8  1  0.27499700  0.40376300  0.33917600  1
  H  H9  1  0.72500300  0.40376300  0.66082400  1
  H  H10  1  0.77499700  0.59623700  0.16082400  1
  H  H11  1  0.22500300  0.59623700  0.83917600  1
  H  H12  1  0.72500300  0.59623700  0.66082400  1
  H  H13  1  0.27499700  0.59623700  0.33917600  1
  H  H14  1  0.22500300  0.40376300  0.83917600  1
  H  H15  1  0.77499700  0.40376300  0.16082400  1
  H  H16  1  0.23761600  0.50000000  0.24018400  1
  H  H17  1  0.76238400  0.50000000  0.75981600  1
  H  H18  1  0.73761600  0.50000000  0.25981600  1
  H  H19  1  0.26238400  0.50000000  0.74018400  1
  H  H20  1  0.09772000  0.50000000  0.33105400  1
  H  H21  1  0.90228000  0.50000000  0.66894600  1
  H  H22  1  0.59772000  0.50000000  0.16894600  1
  H  H23  1  0.40228000  0.50000000  0.83105400  1
  H  H24  1  0.97896200  0.90505000  0.35656900  1
  H  H25  1  0.02103800  0.90505000  0.64343100  1
  H  H26  1  0.47896200  0.09495000  0.14343100  1
  H  H27  1  0.52103800  0.09495000  0.85656900  1
  H  H28  1  0.02103800  0.09495000  0.64343100  1
  H  H29  1  0.97896200  0.09495000  0.35656900  1
  H  H30  1  0.52103800  0.90505000  0.85656900  1
  H  H31  1  0.47896200  0.90505000  0.14343100  1
  H  H32  1  0.82597800  0.00000000  0.40820000  1
  H  H33  1  0.17402200  0.00000000  0.59180000  1
  H  H34  1  0.32597800  0.00000000  0.09180000  1
  H  H35  1  0.67402200  0.00000000  0.90820000  1
  H  H36  1  0.84170300  0.00000000  0.29115400  1
  H  H37  1  0.15829700  0.00000000  0.70884600  1
  H  H38  1  0.34170300  0.00000000  0.20884600  1
  H  H39  1  0.65829700  0.00000000  0.79115400  1
  S  S0  1  0.54412900  0.78367900  0.32607100  1
  S  S1  1  0.45587100  0.78367900  0.67392900  1
  S  S2  1  0.04412900  0.21632100  0.17392900  1
  S  S3  1  0.95587100  0.21632100  0.82607100  1
  S  S4  1  0.45587100  0.21632100  0.67392900  1
  S  S5  1  0.54412900  0.21632100  0.32607100  1
  S  S6  1  0.95587100  0.78367900  0.82607100  1
  S  S7  1  0.04412900  0.78367900  0.17392900  1
  S  S8  1  0.19735200  0.78744400  0.46090600  1
  S  S9  1  0.80264800  0.78744400  0.53909400  1
  S  S10  1  0.69735200  0.21255600  0.03909400  1
  S  S11  1  0.30264800  0.21255600  0.96090600  1
  S  S12  1  0.80264800  0.21255600  0.53909400  1
  S  S13  1  0.19735200  0.21255600  0.46090600  1
  S  S14  1  0.30264800  0.78744400  0.96090600  1
  S  S15  1  0.69735200  0.78744400  0.03909400  1
  N  N0  1  0.21996900  0.50000000  0.31160400  1
  N  N1  1  0.78003100  0.50000000  0.68839600  1
  N  N2  1  0.71996900  0.50000000  0.18839600  1
  N  N3  1  0.28003100  0.50000000  0.81160400  1
  N  N4  1  0.90438600  0.00000000  0.35251100  1
  N  N5  1  0.09561400  0.00000000  0.64748900  1
  N  N6  1  0.40438600  0.00000000  0.14748900  1
  N  N7  1  0.59561400  0.00000000  0.85251100  1
  O  O0  1  0.36884700  0.50000000  0.13123900  1
  O  O1  1  0.63115300  0.50000000  0.86876100  1
  O  O2  1  0.86884700  0.50000000  0.36876100  1
  O  O3  1  0.13115300  0.50000000  0.63123900  1
loop_
_geom_bond_atom_site_label_1
_geom_bond_atom_site_label_2
_geom_bond_distance
_geom_bond_site_symmetry_2
P0 S0 1.984052 1_555
P0 S8 2.004770 1_555
P1 S1 1.984052 1_555
P1 S9 2.004770 1_555
P2 S2 1.984052 1_655
P2 S10 2.004770 1_555
P3 S3 1.984052 1_455
P3 S11 2.004770 1_555
P4 S4 1.984052 1_555
P4 S12 2.004770 1_555
P5 S5 1.984052 1_555
P5 S13 2.004770 1_555
P6 S6 1.984052 1_455
P6 S14 2.004770 1_555
P7 S7 1.984052 1_655
P7 S15 2.004770 1_555
H0 O0 0.983782 1_555
H1 O1 0.983782 1_555
H2 O2 0.983782 1_555
H3 O3 0.983782 1_555
H4 O1 0.983782 1_555
H5 O0 0.983782 1_555
H6 O3 0.983782 1_555
H7 O2 0.983782 1_555
H8 N0 1.037632 1_555
H9 N1 1.037632 1_555
H10 N2 1.037632 1_555
H11 N3 1.037632 1_555
H12 N1 1.037632 1_555
H13 N0 1.037632 1_555
H14 N3 1.037632 1_555
H15 N2 1.037632 1_555
H16 N0 1.043098 1_555
H17 N1 1.043098 1_555
H18 N2 1.043098 1_555
H19 N3 1.043098 1_555
H20 N0 1.039125 1_555
H21 N1 1.039125 1_555
H22 N2 1.039125 1_555
H23 N3 1.039125 1_555
H24 N4 1.035234 1_565
H25 N5 1.035234 1_565
H26 N6 1.035234 1_555
H27 N7 1.035234 1_555
H28 N5 1.035234 1_555
H29 N4 1.035234 1_555
H30 N7 1.035234 1_565
H31 N6 1.035234 1_565
H32 N4 1.029796 1_555
H33 N5 1.029796 1_555
H34 N6 1.029796 1_555
H35 N7 1.029796 1_555
H36 N4 1.025052 1_555
H37 N5 1.025052 1_555
H38 N6 1.025052 1_555
H39 N7 1.025052 1_555
