# generated using pymatgen
data_Co3(O2F)2
_symmetry_space_group_name_H-M   'P 1'
_cell_length_a   5.44007000
_cell_length_b   5.45362842
_cell_length_c   6.81921163
_cell_angle_alpha   74.83508773
_cell_angle_beta   74.57289770
_cell_angle_gamma   77.30492708
_symmetry_Int_Tables_number   1
_chemical_formula_structural   Co3(O2F)2
_chemical_formula_sum   'Co6 O8 F4'
_cell_volume   185.76430314
_cell_formula_units_Z   2
loop_
 _symmetry_equiv_pos_site_id
 _symmetry_equiv_pos_as_xyz
  1  'x, y, z'
loop_
 _atom_site_type_symbol
 _atom_site_label
 _atom_site_symmetry_multiplicity
 _atom_site_fract_x
 _atom_site_fract_y
 _atom_site_fract_z
 _atom_site_occupancy
  Co  Co0  1  0.50000000  0.50000000  0.50000000  1
  Co  Co1  1  0.50000000  0.50000000  0.00000000  1
  Co  Co2  1  0.20312300  0.12648100  0.33222000  1
  Co  Co3  1  0.17795200  0.16775800  0.82768200  1
  Co  Co4  1  0.82204800  0.83224200  0.17231800  1
  Co  Co5  1  0.79687700  0.87351900  0.66778000  1
  O  O0  1  0.40691300  0.38634200  0.29818900  1
  O  O1  1  0.71835000  0.74180700  0.96359800  1
  O  O2  1  0.06940900  0.06576900  0.62693500  1
  O  O3  1  0.28165000  0.25819300  0.03640200  1
  O  O4  1  0.59308700  0.61365800  0.70181100  1
  O  O5  1  0.93059100  0.93423100  0.37306500  1
  O  O6  1  0.48142500  0.83905800  0.33684900  1
  O  O7  1  0.51857500  0.16094200  0.66315100  1
  F  F0  1  0.17930300  0.79982200  0.01022900  1
  F  F1  1  0.87054300  0.45629200  0.33465200  1
  F  F2  1  0.82069700  0.20017800  0.98977100  1
  F  F3  1  0.12945700  0.54370800  0.66534800  1
loop_
_geom_bond_atom_site_label_1
_geom_bond_atom_site_label_2
_geom_bond_distance
_geom_bond_site_symmetry_2
Co0 O4 1.868045 1_555
Co0 O0 1.868045 1_555
Co0 O6 1.889050 1_555
Co0 O7 1.889050 1_555
Co0 F1 2.027743 1_555
Co0 F3 2.027743 1_555
Co1 O3 1.889964 1_555
Co1 O1 1.889964 1_554
Co1 O0 1.925126 1_555
Co1 O4 1.925126 1_554
Co1 F0 2.112646 1_555
Co1 F2 2.112646 1_554
Co2 O2 1.912510 1_555
Co2 O0 1.916492 1_555
Co2 O5 1.919807 1_445
Co2 O3 1.919902 1_555
Co2 O6 1.925270 1_545
Co2 F1 2.253489 1_455
Co3 O3 1.871900 1_556
Co3 O2 1.872111 1_555
Co3 O7 1.891907 1_555
Co3 F2 1.959206 1_455
Co3 F3 2.056425 1_555
Co3 F0 2.065806 1_546
Co4 O1 1.871900 1_554
Co4 O5 1.872111 1_555
Co4 O6 1.891907 1_555
Co4 F0 1.959206 1_655
Co4 F1 2.056425 1_555
Co4 F2 2.065806 1_564
Co5 O5 1.912510 1_555
Co5 O4 1.916492 1_555
Co5 O2 1.919807 1_665
Co5 O1 1.919902 1_555
Co5 O7 1.925270 1_565
Co5 F3 2.253489 1_655
