# generated using pymatgen
data_La3Al5O12
_symmetry_space_group_name_H-M   'P 1'
_cell_length_a   10.83284677
_cell_length_b   10.83284677
_cell_length_c   10.83284677
_cell_angle_alpha   109.47122063
_cell_angle_beta   109.47122063
_cell_angle_gamma   109.47122063
_symmetry_Int_Tables_number   1
_chemical_formula_structural   La3Al5O12
_chemical_formula_sum   'La12 Al20 O48'
_cell_volume   978.60157381
_cell_formula_units_Z   4
loop_
 _symmetry_equiv_pos_site_id
 _symmetry_equiv_pos_as_xyz
  1  'x, y, z'
loop_
 _atom_site_type_symbol
 _atom_site_label
 _atom_site_symmetry_multiplicity
 _atom_site_fract_x
 _atom_site_fract_y
 _atom_site_fract_z
 _atom_site_occupancy
  La  La0  1  0.75000000  0.12500000  0.37500000  1
  La  La1  1  0.37500000  0.12500000  0.25000000  1
  La  La2  1  0.87500000  0.62500000  0.25000000  1
  La  La3  1  0.25000000  0.37500000  0.12500000  1
  La  La4  1  0.12500000  0.25000000  0.37500000  1
  La  La5  1  0.62500000  0.25000000  0.87500000  1
  La  La6  1  0.37500000  0.75000000  0.12500000  1
  La  La7  1  0.87500000  0.75000000  0.62500000  1
  La  La8  1  0.75000000  0.62500000  0.87500000  1
  La  La9  1  0.12500000  0.37500000  0.75000000  1
  La  La10  1  0.62500000  0.87500000  0.75000000  1
  La  La11  1  0.25000000  0.87500000  0.62500000  1
  Al  Al0  1  0.87500000  0.25000000  0.12500000  1
  Al  Al1  1  0.50000000  0.00000000  0.00000000  1
  Al  Al2  1  0.00000000  0.00000000  0.00000000  1
  Al  Al3  1  0.87500000  0.12500000  0.75000000  1
  Al  Al4  1  0.50000000  0.50000000  0.00000000  1
  Al  Al5  1  0.50000000  0.00000000  0.50000000  1
  Al  Al6  1  0.62500000  0.37500000  0.25000000  1
  Al  Al7  1  0.75000000  0.87500000  0.12500000  1
  Al  Al8  1  0.75000000  0.37500000  0.62500000  1
  Al  Al9  1  0.62500000  0.75000000  0.37500000  1
  Al  Al10  1  0.37500000  0.25000000  0.62500000  1
  Al  Al11  1  0.00000000  0.50000000  0.00000000  1
  Al  Al12  1  0.00000000  0.00000000  0.50000000  1
  Al  Al13  1  0.50000000  0.50000000  0.50000000  1
  Al  Al14  1  0.25000000  0.62500000  0.37500000  1
  Al  Al15  1  0.25000000  0.12500000  0.87500000  1
  Al  Al16  1  0.00000000  0.50000000  0.50000000  1
  Al  Al17  1  0.37500000  0.62500000  0.75000000  1
  Al  Al18  1  0.12500000  0.87500000  0.25000000  1
  Al  Al19  1  0.12500000  0.75000000  0.87500000  1
  O  O0  1  0.89818000  0.01160800  0.31869200  1
  O  O1  1  0.88657200  0.39818000  0.07948800  1
  O  O2  1  0.92051200  0.30708400  0.31869200  1
  O  O3  1  0.92051200  0.11342800  0.60182000  1
  O  O4  1  0.98839200  0.68130800  0.10182000  1
  O  O5  1  0.57948800  0.18130800  0.19291600  1
  O  O6  1  0.61342800  0.42051200  0.10182000  1
  O  O7  1  0.19291600  0.11342800  0.01160800  1
  O  O8  1  0.69291600  0.68130800  0.07948800  1
  O  O9  1  0.60182000  0.18130800  0.48839200  1
  O  O10  1  0.89818000  0.38657200  0.57948800  1
  O  O11  1  0.11342800  0.01160800  0.19291600  1
  O  O12  1  0.81869200  0.51160800  0.39818000  1
  O  O13  1  0.68130800  0.07948800  0.69291600  1
  O  O14  1  0.48839200  0.38657200  0.30708400  1
  O  O15  1  0.48839200  0.60182000  0.18130800  1
  O  O16  1  0.01160800  0.19291600  0.11342800  1
  O  O17  1  0.42051200  0.10182000  0.61342800  1
  O  O18  1  0.38657200  0.30708400  0.48839200  1
  O  O19  1  0.68130800  0.10182000  0.98839200  1
  O  O20  1  0.81869200  0.80708400  0.42051200  1
  O  O21  1  0.80708400  0.42051200  0.81869200  1
  O  O22  1  0.69291600  0.51160800  0.61342800  1
  O  O23  1  0.60182000  0.92051200  0.11342800  1
  O  O24  1  0.19291600  0.57948800  0.18130800  1
  O  O25  1  0.30708400  0.48839200  0.38657200  1
  O  O26  1  0.39818000  0.07948800  0.88657200  1
  O  O27  1  0.61342800  0.69291600  0.51160800  1
  O  O28  1  0.18130800  0.19291600  0.57948800  1
  O  O29  1  0.31869200  0.89818000  0.01160800  1
  O  O30  1  0.57948800  0.89818000  0.38657200  1
  O  O31  1  0.51160800  0.39818000  0.81869200  1
  O  O32  1  0.98839200  0.80708400  0.88657200  1
  O  O33  1  0.51160800  0.61342800  0.69291600  1
  O  O34  1  0.18130800  0.48839200  0.60182000  1
  O  O35  1  0.88657200  0.98839200  0.80708400  1
  O  O36  1  0.31869200  0.92051200  0.30708400  1
  O  O37  1  0.30708400  0.31869200  0.92051200  1
  O  O38  1  0.39818000  0.81869200  0.51160800  1
  O  O39  1  0.10182000  0.61342800  0.42051200  1
  O  O40  1  0.80708400  0.88657200  0.98839200  1
  O  O41  1  0.38657200  0.57948800  0.89818000  1
  O  O42  1  0.07948800  0.88657200  0.39818000  1
  O  O43  1  0.42051200  0.81869200  0.80708400  1
  O  O44  1  0.01160800  0.31869200  0.89818000  1
  O  O45  1  0.07948800  0.69291600  0.68130800  1
  O  O46  1  0.11342800  0.60182000  0.92051200  1
  O  O47  1  0.10182000  0.98839200  0.68130800  1
loop_
_geom_bond_atom_site_label_1
_geom_bond_atom_site_label_2
_geom_bond_distance
_geom_bond_site_symmetry_2
La0 O9 2.434215 1_555
La0 O0 2.434215 1_555
La0 O23 2.434215 1_545
La0 O10 2.434215 1_555
La0 O5 2.607481 1_555
La0 O3 2.607481 1_555
La0 O30 2.607481 1_545
La0 O2 2.607481 1_555
La1 O14 2.434215 1_555
La1 O5 2.434215 1_555
La1 O36 2.434215 1_545
La1 O11 2.434215 1_555
La1 O7 2.607481 1_555
La1 O9 2.607481 1_555
La1 O18 2.607481 1_555
La1 O29 2.607481 1_545
La2 O42 2.434215 1_655
La2 O6 2.434215 1_555
La2 O4 2.434215 1_555
La2 O12 2.434215 1_555
La2 O1 2.607481 1_555
La2 O20 2.607481 1_555
La2 O39 2.607481 1_655
La2 O8 2.607481 1_555
La3 O24 2.434215 1_555
La3 O7 2.434215 1_555
La3 O37 2.434215 1_554
La3 O25 2.434215 1_555
La3 O14 2.607481 1_555
La3 O44 2.607481 1_554
La3 O15 2.607481 1_555
La3 O16 2.607481 1_555
La4 O2 2.434215 1_455
La4 O28 2.434215 1_555
La4 O18 2.434215 1_555
La4 O16 2.434215 1_555
La4 O0 2.607481 1_455
La4 O11 2.607481 1_555
La4 O34 2.607481 1_555
La4 O25 2.607481 1_555
La5 O17 2.434215 1_555
La5 O19 2.434215 1_555
La5 O1 2.434215 1_556
La5 O31 2.434215 1_555
La5 O13 2.607481 1_555
La5 O6 2.607481 1_556
La5 O26 2.607481 1_555
La5 O21 2.607481 1_555
La6 O15 2.434215 1_555
La6 O29 2.434215 1_555
La6 O46 2.434215 1_554
La6 O30 2.434215 1_555
La6 O24 2.607481 1_555
La6 O23 2.607481 1_555
La6 O36 2.607481 1_555
La6 O41 2.607481 1_554
La7 O45 2.434215 1_655
La7 O32 2.434215 1_555
La7 O27 2.434215 1_555
La7 O20 2.434215 1_555
La7 O35 2.607481 1_555
La7 O47 2.607481 1_655
La7 O22 2.607481 1_555
La7 O12 2.607481 1_555
La8 O22 2.434215 1_555
La8 O21 2.434215 1_555
La8 O8 2.434215 1_556
La8 O40 2.434215 1_555
La8 O33 2.607481 1_555
La8 O31 2.607481 1_555
La8 O32 2.607481 1_555
La8 O4 2.607481 1_556
La9 O3 2.434215 1_455
La9 O34 2.434215 1_555
La9 O44 2.434215 1_555
La9 O41 2.434215 1_555
La9 O46 2.607481 1_555
La9 O28 2.607481 1_555
La9 O10 2.607481 1_455
La9 O37 2.607481 1_555
La10 O43 2.434215 1_555
La10 O35 2.434215 1_555
La10 O13 2.434215 1_565
La10 O33 2.434215 1_555
La10 O38 2.607481 1_555
La10 O27 2.607481 1_555
La10 O19 2.607481 1_565
La10 O40 2.607481 1_555
La11 O38 2.434215 1_555
La11 O39 2.434215 1_555
La11 O26 2.434215 1_565
La11 O47 2.434215 1_555
La11 O43 2.607481 1_555
La11 O45 2.607481 1_555
La11 O42 2.607481 1_555
La11 O17 2.607481 1_565
Al0 O2 1.808355 1_555
Al0 O1 1.808355 1_555
Al0 O19 1.808355 1_554
Al0 O16 1.808355 1_655
Al1 O43 1.975577 1_544
Al1 O19 1.975577 1_554
Al1 O5 1.975577 1_555
Al1 O26 1.975577 1_554
Al1 O23 1.975577 1_545
Al1 O29 1.975577 1_545
Al2 O35 1.975577 1_444
Al2 O7 1.975577 1_555
Al2 O11 1.975577 1_555
Al2 O32 1.975577 1_444
Al2 O40 1.975577 1_444
Al2 O16 1.975577 1_555
Al3 O35 1.808355 1_545
Al3 O13 1.808355 1_555
Al3 O3 1.808355 1_555
Al3 O44 1.808355 1_655
Al4 O6 1.975577 1_555
Al4 O37 1.975577 1_554
Al4 O8 1.975577 1_555
Al4 O15 1.975577 1_555
Al4 O31 1.975577 1_554
Al4 O41 1.975577 1_554
Al5 O17 1.975577 1_555
Al5 O13 1.975577 1_555
Al5 O38 1.975577 1_545
Al5 O36 1.975577 1_545
Al5 O9 1.975577 1_555
Al5 O30 1.975577 1_545
Al6 O12 1.808355 1_555
Al6 O6 1.808355 1_555
Al6 O5 1.808355 1_555
Al6 O14 1.808355 1_555
Al7 O40 1.808355 1_554
Al7 O8 1.808355 1_555
Al7 O0 1.808355 1_565
Al7 O23 1.808355 1_555
Al8 O10 1.808355 1_555
Al8 O22 1.808355 1_555
Al8 O21 1.808355 1_555
Al8 O9 1.808355 1_555
Al9 O27 1.808355 1_555
Al9 O20 1.808355 1_555
Al9 O30 1.808355 1_555
Al9 O15 1.808355 1_555
Al10 O31 1.808355 1_555
Al10 O28 1.808355 1_555
Al10 O17 1.808355 1_555
Al10 O18 1.808355 1_555
Al11 O24 1.975577 1_555
Al11 O4 1.975577 1_455
Al11 O1 1.975577 1_455
Al11 O46 1.975577 1_554
Al11 O21 1.975577 1_454
Al11 O44 1.975577 1_554
Al12 O20 1.975577 1_445
Al12 O47 1.975577 1_545
Al12 O3 1.975577 1_455
Al12 O28 1.975577 1_555
Al12 O0 1.975577 1_455
Al12 O42 1.975577 1_545
Al13 O14 1.975577 1_555
Al13 O18 1.975577 1_555
Al13 O25 1.975577 1_555
Al13 O33 1.975577 1_555
Al13 O27 1.975577 1_555
Al13 O22 1.975577 1_555
Al14 O38 1.808355 1_555
Al14 O39 1.808355 1_555
Al14 O24 1.808355 1_555
Al14 O25 1.808355 1_555
Al15 O47 1.808355 1_545
Al15 O37 1.808355 1_555
Al15 O26 1.808355 1_555
Al15 O7 1.808355 1_556
Al16 O39 1.975577 1_555
Al16 O10 1.975577 1_455
Al16 O45 1.975577 1_555
Al16 O2 1.975577 1_455
Al16 O34 1.975577 1_555
Al16 O12 1.975577 1_455
Al17 O33 1.808355 1_555
Al17 O41 1.808355 1_555
Al17 O43 1.808355 1_555
Al17 O34 1.808355 1_555
Al18 O42 1.808355 1_555
Al18 O36 1.808355 1_555
Al18 O4 1.808355 1_455
Al18 O11 1.808355 1_565
Al19 O45 1.808355 1_555
Al19 O32 1.808355 1_455
Al19 O46 1.808355 1_555
Al19 O29 1.808355 1_556
