# generated using pymatgen
data_Li2VO3F
_symmetry_space_group_name_H-M   'P 1'
_cell_length_a   5.05047900
_cell_length_b   5.21350892
_cell_length_c   5.79558087
_cell_angle_alpha   91.05051643
_cell_angle_beta   91.29622969
_cell_angle_gamma   111.69033657
_symmetry_Int_Tables_number   1
_chemical_formula_structural   Li2VO3F
_chemical_formula_sum   'Li4 V2 O6 F2'
_cell_volume   141.70199023
_cell_formula_units_Z   2
loop_
 _symmetry_equiv_pos_site_id
 _symmetry_equiv_pos_as_xyz
  1  'x, y, z'
loop_
 _atom_site_type_symbol
 _atom_site_label
 _atom_site_symmetry_multiplicity
 _atom_site_fract_x
 _atom_site_fract_y
 _atom_site_fract_z
 _atom_site_occupancy
  Li  Li0  1  0.80628200  0.48178200  0.87463400  1
  Li  Li1  1  0.75663300  0.48375000  0.37499600  1
  Li  Li2  1  0.26937500  0.51987500  0.60629700  1
  Li  Li3  1  0.23550500  0.00517400  0.37856800  1
  V  V0  1  0.70046900  0.93164500  0.13544500  1
  V  V1  1  0.26971900  0.06762100  0.87263900  1
  O  O0  1  0.97271700  0.78764900  0.11082500  1
  O  O1  1  0.51771900  0.21876600  0.11452300  1
  O  O2  1  0.46969800  0.25035100  0.64852000  1
  O  O3  1  0.51422300  0.75464800  0.35828800  1
  O  O4  1  0.47421300  0.78646900  0.89450400  1
  O  O5  1  0.02317700  0.22329400  0.88811900  1
  F  F0  1  0.97437500  0.23748900  0.35790000  1
  F  F1  1  0.03117300  0.74685100  0.63796000  1
loop_
_geom_bond_atom_site_label_1
_geom_bond_atom_site_label_2
_geom_bond_distance
_geom_bond_site_symmetry_2
Li0 O0 2.000082 1_556
Li0 O5 2.028140 1_655
Li0 O2 2.094743 1_555
Li0 O1 2.149781 1_556
Li1 O1 2.062110 1_555
Li1 O3 2.186479 1_555
Li1 O0 2.220751 1_555
Li1 O2 2.228206 1_555
Li2 O2 2.027368 1_555
Li2 O3 2.029640 1_555
Li2 O4 2.136791 1_555
Li2 O5 2.316891 1_555
Li3 O0 2.045768 1_445
Li3 O2 2.050856 1_555
Li3 O1 2.145065 1_555
Li3 O3 2.249924 1_545
O0 V0 1.800689 1_555
O0 V1 2.198928 1_664
O1 V1 1.818089 1_554
O1 V0 2.032282 1_545
O2 V1 1.734443 1_555
O3 V0 1.691552 1_555
O4 V0 1.754506 1_556
O4 V1 2.085942 1_565
O5 V1 1.722364 1_555
O5 V0 2.318778 1_446
F0 Li1 1.977732 1_555
F0 V0 2.081299 1_545
F0 Li3 2.097500 1_655
F0 Li2 2.159529 1_655
F1 Li2 1.983831 1_555
F1 Li0 2.015202 1_455
F1 Li3 2.062970 1_565
F1 V1 2.109795 1_565
F1 Li1 2.132744 1_455
