# generated using pymatgen
data_Ti3Bi2(PO4)6
_symmetry_space_group_name_H-M   'P 1'
_cell_length_a   8.87179401
_cell_length_b   8.87179401
_cell_length_c   8.87179457
_cell_angle_alpha   59.15953427
_cell_angle_beta   59.15953427
_cell_angle_gamma   59.15953157
_symmetry_Int_Tables_number   1
_chemical_formula_structural   Ti3Bi2(PO4)6
_chemical_formula_sum   'Ti3 Bi2 P6 O24'
_cell_volume   484.30665187
_cell_formula_units_Z   1
loop_
 _symmetry_equiv_pos_site_id
 _symmetry_equiv_pos_as_xyz
  1  'x, y, z'
loop_
 _atom_site_type_symbol
 _atom_site_label
 _atom_site_symmetry_multiplicity
 _atom_site_fract_x
 _atom_site_fract_y
 _atom_site_fract_z
 _atom_site_occupancy
  Ti  Ti0  1  0.35041400  0.35041400  0.35041400  1
  Ti  Ti1  1  0.14057300  0.14057300  0.14057300  1
  Ti  Ti2  1  0.65929500  0.65929500  0.65929500  1
  Bi  Bi0  1  0.97700500  0.97700500  0.97700500  1
  Bi  Bi1  1  0.50267500  0.50267500  0.50267500  1
  P  P0  1  0.06207800  0.45417100  0.75120200  1
  P  P1  1  0.45417100  0.75120200  0.06207800  1
  P  P2  1  0.75120200  0.06207800  0.45417100  1
  P  P3  1  0.26673800  0.95643400  0.52040500  1
  P  P4  1  0.52040500  0.26673800  0.95643400  1
  P  P5  1  0.95643400  0.52040500  0.26673800  1
  O  O0  1  0.51509200  0.70319800  0.88324300  1
  O  O1  1  0.70319800  0.88324300  0.51509200  1
  O  O2  1  0.88324300  0.51509200  0.70319800  1
  O  O3  1  0.04651500  0.27353100  0.92822200  1
  O  O4  1  0.24209700  0.38211500  0.59396300  1
  O  O5  1  0.08248900  0.60089400  0.76715000  1
  O  O6  1  0.27353100  0.92822200  0.04651500  1
  O  O7  1  0.38211500  0.59396300  0.24209700  1
  O  O8  1  0.59396300  0.24209700  0.38211500  1
  O  O9  1  0.21609600  0.98712300  0.36213000  1
  O  O10  1  0.10259500  0.95284800  0.70327600  1
  O  O11  1  0.36213000  0.21609600  0.98712300  1
  O  O12  1  0.60089400  0.76715000  0.08248900  1
  O  O13  1  0.92822200  0.04651500  0.27353100  1
  O  O14  1  0.76715000  0.08248900  0.60089400  1
  O  O15  1  0.43432900  0.76767100  0.54776000  1
  O  O16  1  0.54776000  0.43432900  0.76767100  1
  O  O17  1  0.70327600  0.10259500  0.95284800  1
  O  O18  1  0.98712300  0.36213000  0.21609600  1
  O  O19  1  0.76767100  0.54776000  0.43432900  1
  O  O20  1  0.95284800  0.70327600  0.10259500  1
  O  O21  1  0.10696400  0.46337600  0.34145200  1
  O  O22  1  0.34145200  0.10696400  0.46337600  1
  O  O23  1  0.46337600  0.34145200  0.10696400  1
loop_
_geom_bond_atom_site_label_1
_geom_bond_atom_site_label_2
_geom_bond_distance
_geom_bond_site_symmetry_2
Bi0 O17 2.167802 1_565
Bi0 O20 2.167802 1_556
Bi0 O10 2.167802 1_655
Bi0 O6 2.776800 1_656
Bi0 O3 2.776800 1_665
Bi0 O13 2.776801 1_566
Bi1 O15 2.304061 1_555
Bi1 O19 2.304061 1_555
Bi1 O16 2.304061 1_555
Bi1 O8 2.621395 1_555
Bi1 O4 2.621395 1_555
Bi1 O7 2.621395 1_555
O0 P1 1.602601 1_556
O0 Ti2 1.847237 1_555
O1 P2 1.602601 1_565
O1 Ti2 1.847237 1_555
O2 P0 1.602601 1_655
O2 Ti2 1.847237 1_555
O3 P0 1.574112 1_555
O3 Ti1 1.990252 1_556
O4 P0 1.577532 1_555
O4 Ti0 1.971879 1_555
O5 P0 1.484588 1_555
O6 P1 1.574112 1_555
O6 Ti1 1.990252 1_565
O7 P1 1.577532 1_555
O7 Ti0 1.971879 1_555
O8 P2 1.577532 1_555
O8 Ti0 1.971879 1_555
O9 P3 1.541802 1_555
O9 Ti1 1.958917 1_565
O10 P3 1.525132 1_555
O11 P4 1.541802 1_555
O11 Ti1 1.958917 1_556
O12 P1 1.484588 1_555
O13 P2 1.574112 1_555
O13 Ti1 1.990252 1_655
O14 P2 1.484588 1_555
O15 P3 1.573022 1_555
O15 Ti2 2.229103 1_555
O16 P4 1.573022 1_555
O16 Ti2 2.229103 1_555
O17 P4 1.525132 1_555
O18 P5 1.541802 1_555
O18 Ti1 1.958917 1_655
O19 P5 1.573022 1_555
O19 Ti2 2.229103 1_555
O20 P5 1.525132 1_555
O21 P5 1.532911 1_455
O21 Ti0 1.884318 1_555
O22 P3 1.532911 1_545
O22 Ti0 1.884318 1_555
O23 P4 1.532911 1_554
O23 Ti0 1.884318 1_555
