# generated using pymatgen
data_Li2Ti3FeO8
_symmetry_space_group_name_H-M   'P 1'
_cell_length_a   5.96093495
_cell_length_b   9.87048131
_cell_length_c   10.29237845
_cell_angle_alpha   90.02047135
_cell_angle_beta   90.05304360
_cell_angle_gamma   90.02023459
_symmetry_Int_Tables_number   1
_chemical_formula_structural   Li2Ti3FeO8
_chemical_formula_sum   'Li8 Ti12 Fe4 O32'
_cell_volume   605.57539174
_cell_formula_units_Z   4
loop_
 _symmetry_equiv_pos_site_id
 _symmetry_equiv_pos_as_xyz
  1  'x, y, z'
loop_
 _atom_site_type_symbol
 _atom_site_label
 _atom_site_symmetry_multiplicity
 _atom_site_fract_x
 _atom_site_fract_y
 _atom_site_fract_z
 _atom_site_occupancy
  Li  Li0  1  0.50022700  0.89026200  0.16645200  1
  Li  Li1  1  0.00076300  0.89027000  0.66638000  1
  Li  Li2  1  0.99994500  0.39016900  0.33370400  1
  Li  Li3  1  0.50069900  0.39022000  0.83375100  1
  Li  Li4  1  0.49991100  0.99900800  0.49961400  1
  Li  Li5  1  0.99956600  0.99903500  0.99977600  1
  Li  Li6  1  0.99988200  0.49896700  0.00023300  1
  Li  Li7  1  0.49925800  0.49901400  0.50008400  1
  Ti  Ti0  1  0.74632400  0.21458900  0.08514700  1
  Ti  Ti1  1  0.24600400  0.21494700  0.58473600  1
  Ti  Ti2  1  0.25288500  0.21503700  0.08430700  1
  Ti  Ti3  1  0.75233500  0.21455500  0.58464100  1
  Ti  Ti4  1  0.49934900  0.21672100  0.33267600  1
  Ti  Ti5  1  0.00002800  0.21674600  0.83237700  1
  Ti  Ti6  1  0.99946800  0.71639500  0.16724400  1
  Ti  Ti7  1  0.50016500  0.71638800  0.66723200  1
  Ti  Ti8  1  0.24689500  0.71556400  0.41495300  1
  Ti  Ti9  1  0.74632600  0.71569300  0.91531000  1
  Ti  Ti10  1  0.75348900  0.71446900  0.41536100  1
  Ti  Ti11  1  0.25300000  0.71429100  0.91507600  1
  Fe  Fe0  1  0.00055000  0.49249400  0.66806300  1
  Fe  Fe1  1  0.50135700  0.99294800  0.83252000  1
  Fe  Fe2  1  0.49960400  0.49282700  0.16808200  1
  Fe  Fe3  1  0.00053900  0.99286400  0.33183900  1
  O  O0  1  0.49996300  0.10583600  0.16658400  1
  O  O1  1  0.99997700  0.10575800  0.66661300  1
  O  O2  1  0.99980700  0.60587200  0.33339300  1
  O  O3  1  0.49981100  0.60585600  0.83332800  1
  O  O4  1  0.99973700  0.31558500  0.00065000  1
  O  O5  1  0.49967000  0.31574000  0.50070800  1
  O  O6  1  0.50003100  0.81570400  0.49924800  1
  O  O7  1  0.99999100  0.81571800  0.99928100  1
  O  O8  1  0.76613700  0.60863200  0.07778200  1
  O  O9  1  0.26545200  0.60892100  0.57838900  1
  O  O10  1  0.23430200  0.60869300  0.07821400  1
  O  O11  1  0.73384600  0.60851700  0.57762200  1
  O  O12  1  0.99990000  0.10752500  0.15777500  1
  O  O13  1  0.50091100  0.10766500  0.65735300  1
  O  O14  1  0.49949800  0.60755500  0.34214900  1
  O  O15  1  0.00093700  0.60750300  0.84219900  1
  O  O16  1  0.26539400  0.10857600  0.42179400  1
  O  O17  1  0.76474600  0.10848400  0.92143600  1
  O  O18  1  0.73388700  0.10881800  0.42211600  1
  O  O19  1  0.23357900  0.10847400  0.92259600  1
  O  O20  1  0.50007700  0.32767800  0.01846300  1
  O  O21  1  0.00023900  0.32770700  0.51858500  1
  O  O22  1  0.72546300  0.32595600  0.24144700  1
  O  O23  1  0.22626200  0.32507400  0.74226400  1
  O  O24  1  0.27420400  0.32559800  0.24210300  1
  O  O25  1  0.77503500  0.32623100  0.74163600  1
  O  O26  1  0.22613200  0.82548100  0.25821000  1
  O  O27  1  0.72641400  0.82510700  0.75772100  1
  O  O28  1  0.77485300  0.82611500  0.25830000  1
  O  O29  1  0.27587600  0.82697400  0.75889400  1
  O  O30  1  0.99969600  0.82774400  0.48156000  1
  O  O31  1  0.50020900  0.82711200  0.98202800  1
loop_
_geom_bond_atom_site_label_1
_geom_bond_atom_site_label_2
_geom_bond_distance
_geom_bond_site_symmetry_2
Li0 O28 1.993165 1_555
Li0 O26 1.993194 1_555
Li0 O31 1.997674 1_554
Li0 O0 2.127820 1_565
Li1 O27 1.993616 1_455
Li1 O29 1.996152 1_555
Li1 O30 1.999643 1_455
Li1 O1 2.126978 1_465
Li2 O24 1.992719 1_655
Li2 O22 1.994082 1_555
Li2 O21 2.000460 1_655
Li2 O2 2.129096 1_555
Li3 O23 1.993055 1_555
Li3 O25 1.993780 1_555
Li3 O20 1.999056 1_556
Li3 O3 2.128446 1_555
Li4 O6 1.809302 1_555
Li4 O18 1.938520 1_565
Li4 O16 1.940360 1_565
Li4 O13 1.945457 1_565
Li5 O7 1.809435 1_555
Li5 O19 1.935286 1_665
Li5 O17 1.943219 1_565
Li5 O12 1.946779 1_566
Li6 O4 1.810075 1_555
Li6 O8 1.937177 1_555
Li6 O10 1.940627 1_655
Li6 O15 1.947983 1_654
Li7 O5 1.809019 1_555
Li7 O11 1.938243 1_555
Li7 O9 1.941995 1_555
Li7 O14 1.947147 1_555
Fe0 O15 2.121191 1_555
Fe0 O9 2.160581 1_555
Fe0 O11 2.169047 1_455
Fe0 O21 2.238466 1_555
Fe0 O25 2.252757 1_455
Fe0 O23 2.263818 1_555
Fe1 O13 2.129315 1_565
Fe1 O17 2.144385 1_565
Fe1 O19 2.170468 1_565
Fe1 O31 2.247025 1_555
Fe1 O29 2.249511 1_555
Fe1 O27 2.267062 1_555
Fe2 O14 2.119110 1_555
Fe2 O10 2.159580 1_555
Fe2 O8 2.167211 1_555
Fe2 O20 2.242064 1_555
Fe2 O22 2.257495 1_555
Fe2 O24 2.260857 1_555
Fe3 O12 2.119415 1_465
Fe3 O16 2.156267 1_565
Fe3 O18 2.168648 1_465
Fe3 O30 2.243381 1_455
Fe3 O28 2.255513 1_455
Fe3 O26 2.261590 1_555
O0 Ti0 2.003311 1_555
O0 Ti2 2.011855 1_555
O0 Ti4 2.029513 1_555
O1 Ti1 2.006064 1_655
O1 Ti3 2.010867 1_555
O1 Ti5 2.027213 1_655
O2 Ti10 2.004829 1_555
O2 Ti8 2.010531 1_655
O2 Ti6 2.028734 1_555
O3 Ti11 2.005178 1_555
O3 Ti9 2.010619 1_555
O3 Ti7 2.028325 1_555
O4 Ti5 1.987500 1_654
O4 Ti2 2.000671 1_655
O4 Ti0 2.008467 1_555
O5 Ti4 1.986209 1_555
O5 Ti3 2.002855 1_555
O5 Ti1 2.006519 1_555
O6 Ti7 1.987832 1_555
O6 Ti8 2.000622 1_555
O6 Ti10 2.007350 1_555
O7 Ti6 1.987683 1_556
O7 Ti9 2.001000 1_555
O7 Ti11 2.007692 1_655
O8 Ti6 1.977280 1_555
O8 Ti9 1.981910 1_554
O9 Ti7 1.978567 1_555
O9 Ti8 1.987676 1_555
O10 Ti11 1.979807 1_554
O10 Ti6 1.982936 1_455
O11 Ti10 1.974335 1_555
O11 Ti7 1.981757 1_555
O12 Ti0 1.989958 1_555
O12 Ti2 1.993393 1_655
O13 Ti3 1.980128 1_555
O13 Ti1 1.997088 1_555
O14 Ti8 1.991983 1_555
O14 Ti10 1.992461 1_555
O15 Ti11 1.981783 1_555
O15 Ti9 2.003192 1_455
O16 Ti1 1.981776 1_555
O16 Ti4 1.981832 1_555
O17 Ti0 1.986760 1_556
O17 Ti5 1.987748 1_655
O18 Ti3 1.974294 1_555
O18 Ti4 1.983863 1_555
O19 Ti2 1.971824 1_556
O19 Ti5 1.985419 1_555
O20 Ti2 1.966680 1_555
O20 Ti0 1.967617 1_555
O21 Ti1 1.961723 1_555
O21 Ti3 1.973465 1_455
O22 Ti0 1.952158 1_555
O22 Ti4 1.965430 1_555
O23 Ti1 1.955339 1_555
O23 Ti5 1.955542 1_555
O24 Ti4 1.955636 1_555
O24 Ti2 1.960359 1_555
O25 Ti5 1.959146 1_655
O25 Ti3 1.960245 1_555
O26 Ti8 1.948327 1_555
O26 Ti6 1.964023 1_455
O27 Ti9 1.952480 1_555
O27 Ti7 1.958004 1_555
O28 Ti10 1.960956 1_555
O28 Ti6 1.961248 1_555
O29 Ti11 1.959909 1_555
O29 Ti7 1.967643 1_555
O30 Ti10 1.965883 1_555
O30 Ti8 1.967184 1_655
O31 Ti9 1.958525 1_555
O31 Ti11 1.970495 1_555
