# generated using pymatgen
data_Li3MnV(PO4)3
_symmetry_space_group_name_H-M   'P 1'
_cell_length_a   9.75582300
_cell_length_b   9.85065716
_cell_length_c   9.87293651
_cell_angle_alpha   84.66906894
_cell_angle_beta   86.43178782
_cell_angle_gamma   87.47591208
_symmetry_Int_Tables_number   1
_chemical_formula_structural   Li3MnV(PO4)3
_chemical_formula_sum   'Li12 Mn4 V4 P12 O48'
_cell_volume   942.16750310
_cell_formula_units_Z   4
loop_
 _symmetry_equiv_pos_site_id
 _symmetry_equiv_pos_as_xyz
  1  'x, y, z'
loop_
 _atom_site_type_symbol
 _atom_site_label
 _atom_site_symmetry_multiplicity
 _atom_site_fract_x
 _atom_site_fract_y
 _atom_site_fract_z
 _atom_site_occupancy
  Li  Li0  1  0.24249000  0.51222100  0.98639000  1
  Li  Li1  1  0.38491600  0.25916300  0.00499300  1
  Li  Li2  1  0.47255400  0.56245500  0.77472600  1
  Li  Li3  1  0.17799400  0.73424000  0.77322000  1
  Li  Li4  1  0.60416800  0.98857800  0.74728300  1
  Li  Li5  1  0.81062900  0.74586100  0.62588900  1
  Li  Li6  1  0.75236300  0.01164500  0.49516200  1
  Li  Li7  1  0.52998200  0.22569300  0.44109400  1
  Li  Li8  1  0.97864700  0.92463800  0.30329000  1
  Li  Li9  1  0.81849400  0.23158000  0.26797200  1
  Li  Li10  1  0.19350300  0.38198300  0.24891900  1
  Li  Li11  1  0.02323800  0.69341200  0.07620100  1
  Mn  Mn0  1  0.21844500  0.02726800  0.74021300  1
  Mn  Mn1  1  0.50632200  0.53125100  0.46484100  1
  Mn  Mn2  1  0.49930700  0.75791600  0.24744700  1
  Mn  Mn3  1  0.72219700  0.73742300  0.02896500  1
  V  V0  1  0.78478300  0.24916000  0.97194100  1
  V  V1  1  0.00072800  0.24696300  0.75305000  1
  V  V2  1  0.00199800  0.46414300  0.53129300  1
  V  V3  1  0.28170100  0.96613400  0.25393700  1
  P  P0  1  0.40473300  0.82520000  0.94846000  1
  P  P1  1  0.89997900  0.94572200  0.82593500  1
  P  P2  1  0.92992700  0.55068300  0.83825600  1
  P  P3  1  0.30400000  0.34164800  0.67869600  1
  P  P4  1  0.69700000  0.31931600  0.66327700  1
  P  P5  1  0.42578800  0.83152900  0.55624800  1
  P  P6  1  0.07141600  0.15317200  0.44994400  1
  P  P7  1  0.80260600  0.67990300  0.34794400  1
  P  P8  1  0.19976700  0.65366000  0.31327200  1
  P  P9  1  0.57615200  0.44529200  0.15938000  1
  P  P10  1  0.59177900  0.05435600  0.18507900  1
  P  P11  1  0.09542200  0.17674900  0.05578900  1
  O  O0  1  0.85673300  0.87031400  0.96701100  1
  O  O1  1  0.56307300  0.82433300  0.91773500  1
  O  O2  1  0.79164000  0.61425900  0.88613200  1
  O  O3  1  0.34549600  0.96275500  0.88222200  1
  O  O4  1  0.33994100  0.69848100  0.90384100  1
  O  O5  1  0.92498200  0.39038400  0.87390600  1
  O  O6  1  0.05477600  0.60226600  0.90360900  1
  O  O7  1  0.12093000  0.16881000  0.89757600  1
  O  O8  1  0.87386000  0.10398800  0.83929800  1
  O  O9  1  0.66946700  0.30510900  0.82096700  1
  O  O10  1  0.05613200  0.90814400  0.80279000  1
  O  O11  1  0.34894100  0.40736000  0.80232900  1
  O  O12  1  0.81249300  0.91254200  0.71105000  1
  O  O13  1  0.94378600  0.58689200  0.67954900  1
  O  O14  1  0.33278000  0.18399600  0.69051600  1
  O  O15  1  0.14221000  0.37635800  0.67085200  1
  O  O16  1  0.28703000  0.86560100  0.63165800  1
  O  O17  1  0.54985200  0.90220400  0.59801800  1
  O  O18  1  0.86070200  0.32329500  0.62367400  1
  O  O19  1  0.63323100  0.45859500  0.61528600  1
  O  O20  1  0.44444500  0.67060400  0.58597200  1
  O  O21  1  0.64748700  0.19632300  0.59819300  1
  O  O22  1  0.07646600  0.12120900  0.61202800  1
  O  O23  1  0.37277600  0.39160100  0.53835100  1
  O  O24  1  0.84377200  0.80278300  0.41988300  1
  O  O25  1  0.14133300  0.59110600  0.45066200  1
  O  O26  1  0.86220500  0.54306700  0.40984900  1
  O  O27  1  0.41212700  0.87299100  0.39876600  1
  O  O28  1  0.63968800  0.66963500  0.37171700  1
  O  O29  1  0.93964700  0.09661300  0.40269000  1
  O  O30  1  0.07236900  0.31099900  0.41120600  1
  O  O31  1  0.20416200  0.08614500  0.39117700  1
  O  O32  1  0.36158300  0.63122900  0.31832200  1
  O  O33  1  0.15554400  0.80899800  0.29649500  1
  O  O34  1  0.56143500  0.41269400  0.31984500  1
  O  O35  1  0.65083100  0.10884300  0.30932600  1
  O  O36  1  0.84492300  0.69736500  0.19265000  1
  O  O37  1  0.62449600  0.89529900  0.18679000  1
  O  O38  1  0.15659500  0.58243600  0.19128300  1
  O  O39  1  0.43329600  0.08789500  0.18123200  1
  O  O40  1  0.59184900  0.60539100  0.12093700  1
  O  O41  1  0.37296400  0.83212300  0.10900900  1
  O  O42  1  0.71309600  0.37239500  0.11619400  1
  O  O43  1  0.93978200  0.20687300  0.09638900  1
  O  O44  1  0.44913100  0.40508400  0.09388800  1
  O  O45  1  0.13208100  0.03605900  0.12962800  1
  O  O46  1  0.18665400  0.29083700  0.08974200  1
  O  O47  1  0.65818900  0.11155500  0.04784800  1
loop_
_geom_bond_atom_site_label_1
_geom_bond_atom_site_label_2
_geom_bond_distance
_geom_bond_site_symmetry_2
Li0 O4 2.171140 1_555
Li0 O6 2.171851 1_555
Li0 O38 2.295789 1_556
Li0 O11 2.338205 1_555
Li0 O46 2.390747 1_556
Li0 O44 2.484969 1_556
Li1 O44 1.900285 1_555
Li1 O46 2.081472 1_555
Li1 O39 2.362898 1_555
Li1 O11 2.399454 1_554
Li2 O11 1.976541 1_555
Li2 O20 2.086136 1_555
Li2 O4 2.248029 1_555
Li2 O19 2.415090 1_555
Li3 O10 2.074507 1_555
Li3 O16 2.087931 1_555
Li3 O4 2.098460 1_555
Li3 O6 2.103891 1_555
Li4 O17 1.883180 1_555
Li4 O12 2.155171 1_555
Li4 O1 2.253364 1_555
Li4 O21 2.443794 1_565
Li5 O12 1.914211 1_555
Li5 O13 2.042730 1_555
Li5 O24 2.068293 1_555
Li6 O29 2.158117 1_555
Li6 O35 2.253983 1_555
Li6 O21 2.332687 1_555
Li6 O12 2.357704 1_545
Li6 O24 2.370798 1_545
Li6 O17 2.414774 1_545
Li7 O21 1.977942 1_555
Li7 O35 2.091687 1_555
Li7 O34 2.124794 1_555
Li7 O23 2.415084 1_555
Li8 O33 2.026587 1_655
Li8 O29 2.045332 1_565
Li8 O24 2.047221 1_555
Li8 O45 2.420860 1_665
Li9 O43 2.032442 1_555
Li9 O35 2.074438 1_555
Li9 O29 2.159249 1_555
Li9 O42 2.215131 1_555
Li10 O46 1.887032 1_555
Li10 O30 2.020300 1_555
Li10 O38 2.026467 1_555
Li11 O6 1.999768 1_554
Li11 O38 2.001637 1_555
Li11 O36 2.025575 1_455
Li11 O0 2.541069 1_454
Mn0 O14 1.952249 1_555
Mn0 O3 1.971621 1_545
Mn0 O10 2.042871 1_545
Mn0 O22 2.065000 1_555
Mn0 O16 2.065560 1_545
Mn0 O7 2.316152 1_555
Mn1 O20 1.954785 1_555
Mn1 O34 1.965155 1_555
Mn1 O23 1.992785 1_555
Mn1 O28 2.042262 1_555
Mn1 O19 2.050530 1_555
Mn1 O32 2.218879 1_555
Mn2 O37 1.893585 1_555
Mn2 O32 1.928914 1_555
Mn2 O41 1.966316 1_555
Mn2 O28 2.010764 1_555
Mn2 O27 2.076504 1_555
Mn2 O40 2.172888 1_555
Mn3 O0 1.926937 1_554
Mn3 O40 1.978809 1_555
Mn3 O2 2.011504 1_554
Mn3 O1 2.066218 1_554
Mn3 O36 2.069197 1_555
Mn3 O37 2.426917 1_555
O0 P1 1.559479 1_555
O1 P0 1.555409 1_555
O2 P2 1.528700 1_555
O3 P0 1.552772 1_555
O4 P0 1.535614 1_555
O5 P2 1.587745 1_555
O5 V1 2.019236 1_655
O5 V0 2.120255 1_555
O6 P2 1.539903 1_455
O7 P11 1.574983 1_556
O7 V1 1.982047 1_555
O8 P1 1.584909 1_545
O8 V1 2.009996 1_655
O8 V0 2.147573 1_555
O9 P4 1.557668 1_555
O9 V0 1.947462 1_555
O10 P1 1.559715 1_455
O11 P3 1.529567 1_555
O12 P1 1.528323 1_555
O13 P2 1.573124 1_555
O13 V2 2.022865 1_655
O14 P3 1.560828 1_555
O15 P3 1.605302 1_555
O15 V1 2.002932 1_555
O15 V2 2.103899 1_555
O16 P5 1.542861 1_555
O17 P5 1.519668 1_555
O18 P4 1.621702 1_555
O18 V1 2.002832 1_655
O18 V2 2.105670 1_655
O19 P4 1.527941 1_555
O20 P5 1.589640 1_555
O21 P4 1.532628 1_555
O22 P6 1.605357 1_555
O22 V1 2.032435 1_555
O23 P3 1.548847 1_555
O24 P7 1.539156 1_555
O25 P8 1.524465 1_555
O25 V2 1.968682 1_555
O26 P7 1.533179 1_555
O26 V2 1.959319 1_655
O27 P5 1.582722 1_555
O27 V3 2.094114 1_555
O28 P7 1.598381 1_555
O29 P6 1.538391 1_655
O30 P6 1.566459 1_555
O30 V2 2.071855 1_555
O31 P6 1.533645 1_555
O31 V3 1.974085 1_545
O32 P8 1.587598 1_555
O33 P8 1.568017 1_555
O33 V3 2.017394 1_555
O34 P9 1.585821 1_555
O35 P10 1.536966 1_555
O36 P7 1.558593 1_555
O37 P10 1.583913 1_565
O38 P8 1.538303 1_555
O39 P10 1.568791 1_555
O39 V3 2.001310 1_545
O40 P9 1.599219 1_555
O41 P0 1.603214 1_554
O41 V3 2.161396 1_555
O42 P9 1.543964 1_555
O42 V0 2.028207 1_554
O43 P11 1.568730 1_655
O43 V0 2.012560 1_554
O44 P9 1.516945 1_555
O45 P11 1.543084 1_555
O45 V3 2.022049 1_545
O46 P11 1.537143 1_555
O47 P10 1.534257 1_555
O47 V0 1.941081 1_554
