# generated using pymatgen
data_LiV2(SO4)3
_symmetry_space_group_name_H-M   'P 1'
_cell_length_a   8.78555627
_cell_length_b   8.78555627
_cell_length_c   8.78555583
_cell_angle_alpha   59.48413906
_cell_angle_beta   59.48413906
_cell_angle_gamma   59.48413586
_symmetry_Int_Tables_number   1
_chemical_formula_structural   LiV2(SO4)3
_chemical_formula_sum   'Li2 V4 S6 O24'
_cell_volume   473.87846557
_cell_formula_units_Z   2
loop_
 _symmetry_equiv_pos_site_id
 _symmetry_equiv_pos_as_xyz
  1  'x, y, z'
loop_
 _atom_site_type_symbol
 _atom_site_label
 _atom_site_symmetry_multiplicity
 _atom_site_fract_x
 _atom_site_fract_y
 _atom_site_fract_z
 _atom_site_occupancy
  Li  Li0  1  0.50000000  0.50000000  0.50000000  1
  Li  Li1  1  0.00000000  0.00000000  0.00000000  1
  V  V0  1  0.85717400  0.85717400  0.85717400  1
  V  V1  1  0.64282600  0.64282600  0.64282600  1
  V  V2  1  0.14282600  0.14282600  0.14282600  1
  V  V3  1  0.35717400  0.35717400  0.35717400  1
  S  S0  1  0.25000000  0.54402500  0.95597500  1
  S  S1  1  0.45597500  0.04402500  0.75000000  1
  S  S2  1  0.04402500  0.75000000  0.45597500  1
  S  S3  1  0.95597500  0.25000000  0.54402500  1
  S  S4  1  0.54402500  0.95597500  0.25000000  1
  S  S5  1  0.75000000  0.45597500  0.04402500  1
  O  O0  1  0.40727800  0.55943700  0.77186100  1
  O  O1  1  0.22813900  0.59272200  0.44056300  1
  O  O2  1  0.39495600  0.99301700  0.19191300  1
  O  O3  1  0.50698300  0.10504400  0.30808700  1
  O  O4  1  0.09272200  0.72813900  0.94056300  1
  O  O5  1  0.27186100  0.05943700  0.90727800  1
  O  O6  1  0.44056300  0.22813900  0.59272200  1
  O  O7  1  0.69191300  0.49301700  0.89495600  1
  O  O8  1  0.00698300  0.80808700  0.60504400  1
  O  O9  1  0.80808700  0.60504400  0.00698300  1
  O  O10  1  0.89495600  0.69191300  0.49301700  1
  O  O11  1  0.05943700  0.90727800  0.27186100  1
  O  O12  1  0.94056300  0.09272200  0.72813900  1
  O  O13  1  0.19191300  0.39495600  0.99301700  1
  O  O14  1  0.10504400  0.30808700  0.50698300  1
  O  O15  1  0.30808700  0.50698300  0.10504400  1
  O  O16  1  0.99301700  0.19191300  0.39495600  1
  O  O17  1  0.55943700  0.77186100  0.40727800  1
  O  O18  1  0.72813900  0.94056300  0.09272200  1
  O  O19  1  0.90727800  0.27186100  0.05943700  1
  O  O20  1  0.60504400  0.00698300  0.80808700  1
  O  O21  1  0.49301700  0.89495600  0.69191300  1
  O  O22  1  0.77186100  0.40727800  0.55943700  1
  O  O23  1  0.59272200  0.44056300  0.22813900  1
loop_
_geom_bond_atom_site_label_1
_geom_bond_atom_site_label_2
_geom_bond_distance
_geom_bond_site_symmetry_2
Li0 O0 2.345136 1_555
Li0 O23 2.345136 1_555
Li0 O22 2.345136 1_555
Li0 O1 2.345136 1_555
Li0 O17 2.345136 1_555
Li0 O6 2.345136 1_555
Li1 O12 2.345136 1_454
Li1 O11 2.345136 1_545
Li1 O4 2.345136 1_544
Li1 O19 2.345136 1_455
Li1 O5 2.345136 1_554
Li1 O18 2.345136 1_445
O0 S0 1.497270 1_555
O0 V1 2.101936 1_555
O1 S2 1.497270 1_555
O1 V3 2.101936 1_555
O2 S4 1.469280 1_555
O2 V2 2.063460 1_565
O3 S4 1.469280 1_545
O3 V3 2.063460 1_555
O4 S0 1.497270 1_555
O4 V0 2.101936 1_455
O5 S1 1.497270 1_555
O5 V2 2.101936 1_556
O6 S1 1.497270 1_555
O6 V3 2.101936 1_555
O7 S5 1.469280 1_556
O7 V1 2.063460 1_555
O8 S2 1.469280 1_555
O8 V0 2.063460 1_455
O9 S5 1.469280 1_555
O9 V0 2.063460 1_554
O10 S2 1.469280 1_655
O10 V1 2.063460 1_555
O11 S2 1.497270 1_555
O11 V2 2.101936 1_565
O12 S3 1.497270 1_555
O12 V0 2.101936 1_545
O13 S0 1.469280 1_555
O13 V2 2.063460 1_556
O14 S3 1.469280 1_455
O14 V3 2.063460 1_555
O15 S0 1.469280 1_554
O15 V3 2.063460 1_555
O16 S3 1.469280 1_555
O16 V2 2.063460 1_655
O17 S4 1.497270 1_555
O17 V1 2.101936 1_555
O18 S4 1.497270 1_555
O18 V0 2.101936 1_554
O19 S5 1.497270 1_555
O19 V2 2.101936 1_655
O20 S1 1.469280 1_555
O20 V0 2.063460 1_545
O21 S1 1.469280 1_565
O21 V1 2.063460 1_555
O22 S3 1.497270 1_555
O22 V1 2.101936 1_555
O23 S5 1.497270 1_555
O23 V3 2.101936 1_555
