# generated using pymatgen
data_Li3MnV(PO4)3
_symmetry_space_group_name_H-M   'P 1'
_cell_length_a   9.86210496
_cell_length_b   9.86210496
_cell_length_c   9.77312377
_cell_angle_alpha   87.11581233
_cell_angle_beta   87.11581233
_cell_angle_gamma   84.37120671
_symmetry_Int_Tables_number   1
_chemical_formula_structural   Li3MnV(PO4)3
_chemical_formula_sum   'Li12 Mn4 V4 P12 O48'
_cell_volume   943.77799416
_cell_formula_units_Z   4
loop_
 _symmetry_equiv_pos_site_id
 _symmetry_equiv_pos_as_xyz
  1  'x, y, z'
loop_
 _atom_site_type_symbol
 _atom_site_label
 _atom_site_symmetry_multiplicity
 _atom_site_fract_x
 _atom_site_fract_y
 _atom_site_fract_z
 _atom_site_occupancy
  Li  Li0  1  0.50688700  0.98826000  0.24130900  1
  Li  Li1  1  0.25401800  0.01156400  0.38754500  1
  Li  Li2  1  0.56500100  0.78460900  0.46602400  1
  Li  Li3  1  0.73337500  0.76930100  0.17770100  1
  Li  Li4  1  0.98843600  0.74598200  0.61245500  1
  Li  Li5  1  0.74794300  0.63143000  0.80315100  1
  Li  Li6  1  0.01174000  0.49311300  0.75869100  1
  Li  Li7  1  0.21539100  0.43499900  0.53397600  1
  Li  Li8  1  0.92531400  0.29867900  0.97560800  1
  Li  Li9  1  0.23069900  0.26662500  0.82229900  1
  Li  Li10  1  0.36857000  0.25205700  0.19684900  1
  Li  Li11  1  0.70132100  0.07468600  0.02439200  1
  Mn  Mn0  1  0.24323600  0.75676400  0.00000000  1
  Mn  Mn1  1  0.97405700  0.26113500  0.27769700  1
  Mn  Mn2  1  0.75603800  0.24396200  0.50000000  1
  Mn  Mn3  1  0.73886500  0.02594300  0.72230300  1
  V  V0  1  0.25139000  0.97305000  0.78027300  1
  V  V1  1  0.02695000  0.74861000  0.21972700  1
  V  V2  1  0.46973700  0.53026300  0.00000000  1
  V  V3  1  0.53332000  0.46668000  0.50000000  1
  P  P0  1  0.81605600  0.94588200  0.40613600  1
  P  P1  1  0.94684700  0.82768600  0.90389200  1
  P  P2  1  0.54951200  0.84028500  0.92782400  1
  P  P3  1  0.34095300  0.68051600  0.30143000  1
  P  P4  1  0.31948400  0.65904700  0.69857000  1
  P  P5  1  0.83784600  0.55719600  0.42624400  1
  P  P6  1  0.15971500  0.45048800  0.07217600  1
  P  P7  1  0.68540100  0.34972900  0.80117900  1
  P  P8  1  0.65027100  0.31459900  0.19882100  1
  P  P9  1  0.44280400  0.16215400  0.57375600  1
  P  P10  1  0.05411800  0.18394400  0.59386400  1
  P  P11  1  0.17231400  0.05315300  0.09610800  1
  O  O0  1  0.87100800  0.96893300  0.86954100  1
  O  O1  1  0.82226600  0.90817300  0.56086200  1
  O  O2  1  0.62044200  0.87362200  0.79061200  1
  O  O3  1  0.95380300  0.88855200  0.33823700  1
  O  O4  1  0.69227400  0.89505500  0.34063500  1
  O  O5  1  0.39344200  0.88068100  0.92163600  1
  O  O6  1  0.60444300  0.89979200  0.05411500  1
  O  O7  1  0.15920800  0.89312200  0.12457600  1
  O  O8  1  0.10687800  0.84079200  0.87542400  1
  O  O9  1  0.31211100  0.81526200  0.67239700  1
  O  O10  1  0.91183300  0.79589000  0.05816100  1
  O  O11  1  0.40273000  0.80643100  0.34870800  1
  O  O12  1  0.91491200  0.71373100  0.81367600  1
  O  O13  1  0.57787400  0.67665200  0.94448200  1
  O  O14  1  0.18473800  0.68788900  0.32760300  1
  O  O15  1  0.37533600  0.67126600  0.13806500  1
  O  O16  1  0.87851700  0.63143400  0.28884700  1
  O  O17  1  0.90677700  0.59699800  0.55232700  1
  O  O18  1  0.32873400  0.62466400  0.86193500  1
  O  O19  1  0.45716000  0.60318900  0.63274400  1
  O  O20  1  0.67745500  0.59141200  0.44337400  1
  O  O21  1  0.19356900  0.59727000  0.65129200  1
  O  O22  1  0.11931900  0.60655800  0.07836400  1
  O  O23  1  0.39681100  0.54284000  0.36725600  1
  O  O24  1  0.80511000  0.42549400  0.84080300  1
  O  O25  1  0.58330000  0.45353300  0.13863800  1
  O  O26  1  0.54646700  0.41670000  0.86136200  1
  O  O27  1  0.87401300  0.39995200  0.41016300  1
  O  O28  1  0.67107800  0.37232800  0.63990100  1
  O  O29  1  0.10020800  0.39555800  0.94588500  1
  O  O30  1  0.32334800  0.42212600  0.05551800  1
  O  O31  1  0.12637800  0.37955800  0.20938800  1
  O  O32  1  0.62767200  0.32892200  0.36009900  1
  O  O33  1  0.80184600  0.30166800  0.15149400  1
  O  O34  1  0.40858800  0.32254500  0.55662600  1
  O  O35  1  0.10494500  0.30772600  0.65936500  1
  O  O36  1  0.69833200  0.19815400  0.84850600  1
  O  O37  1  0.89489600  0.18347100  0.62468000  1
  O  O38  1  0.57450600  0.19489000  0.15919700  1
  O  O39  1  0.09182700  0.17773400  0.43913800  1
  O  O40  1  0.60004800  0.12598700  0.58983700  1
  O  O41  1  0.81652900  0.10510400  0.37532000  1
  O  O42  1  0.36856600  0.12148300  0.71115300  1
  O  O43  1  0.20411000  0.08816700  0.94183900  1
  O  O44  1  0.40300200  0.09322300  0.44767300  1
  O  O45  1  0.03106700  0.12899200  0.13045900  1
  O  O46  1  0.28626900  0.08508800  0.18632400  1
  O  O47  1  0.11144800  0.04619700  0.66176300  1
loop_
_geom_bond_atom_site_label_1
_geom_bond_atom_site_label_2
_geom_bond_distance
_geom_bond_site_symmetry_2
Li0 O6 2.202877 1_555
Li0 O4 2.211125 1_555
Li0 O38 2.299894 1_565
Li0 O11 2.331504 1_555
Li0 O46 2.364959 1_565
Li0 O44 2.445993 1_565
Li1 O44 1.875989 1_555
Li1 O46 2.081605 1_555
Li1 O39 2.232977 1_555
Li1 O11 2.413907 1_545
Li2 O11 2.003548 1_555
Li2 O4 2.059778 1_555
Li2 O20 2.124255 1_555
Li3 O4 2.067177 1_555
Li3 O10 2.093781 1_555
Li3 O6 2.099746 1_555
Li3 O16 2.168774 1_555
Li4 O17 1.875989 1_555
Li4 O12 2.081605 1_555
Li4 O1 2.232977 1_555
Li4 O21 2.413907 1_655
Li5 O12 1.915336 1_555
Li5 O24 2.073433 1_555
Li5 O13 2.145224 1_555
Li6 O29 2.202874 1_555
Li6 O35 2.211125 1_555
Li6 O24 2.299894 1_455
Li6 O21 2.331504 1_555
Li6 O12 2.364959 1_455
Li6 O17 2.445993 1_455
Li7 O21 2.003548 1_555
Li7 O35 2.059778 1_555
Li7 O34 2.124255 1_555
Li8 O29 2.053574 1_655
Li8 O33 2.055670 1_556
Li8 O24 2.098980 1_555
Li8 O45 2.395862 1_656
Li9 O35 2.067177 1_555
Li9 O43 2.093781 1_555
Li9 O29 2.099752 1_555
Li9 O42 2.168774 1_555
Li10 O46 1.915336 1_555
Li10 O38 2.073433 1_555
Li10 O30 2.145224 1_555
Li11 O6 2.053568 1_545
Li11 O36 2.055670 1_554
Li11 O38 2.098980 1_555
Li11 O0 2.395862 1_544
Mn0 O7 1.955014 1_555
Mn0 O8 1.955014 1_554
Mn0 O15 2.018866 1_555
Mn0 O18 2.018866 1_554
Mn0 O22 2.102661 1_555
Mn0 O5 2.102661 1_554
Mn1 O45 2.012133 1_655
Mn1 O31 2.056955 1_655
Mn1 O27 2.075707 1_555
Mn1 O39 2.093162 1_655
Mn1 O33 2.143247 1_555
Mn1 O41 2.421518 1_555
Mn2 O41 1.910635 1_555
Mn2 O37 1.910635 1_555
Mn2 O32 2.006228 1_555
Mn2 O28 2.006228 1_555
Mn2 O40 2.145597 1_555
Mn2 O27 2.145597 1_555
Mn3 O0 2.012133 1_545
Mn3 O2 2.056955 1_545
Mn3 O40 2.075707 1_555
Mn3 O1 2.093162 1_545
Mn3 O36 2.143247 1_555
Mn3 O37 2.421518 1_555
O0 P1 1.544787 1_555
O1 P0 1.541729 1_555
O2 P2 1.517241 1_555
O3 P0 1.549787 1_555
O3 V1 1.909992 1_655
O4 P0 1.543457 1_555
O5 P2 1.555023 1_555
O5 V0 2.125777 1_555
O6 P2 1.537474 1_554
O7 P11 1.605357 1_565
O7 V1 2.169438 1_555
O8 P1 1.605357 1_455
O8 V0 2.169438 1_555
O9 P4 1.544160 1_555
O9 V0 1.952026 1_555
O10 P1 1.553052 1_554
O10 V1 2.000508 1_655
O11 P3 1.536619 1_555
O12 P1 1.528618 1_555
O13 P2 1.612011 1_555
O13 V2 1.918587 1_556
O14 P3 1.544160 1_555
O14 V1 1.952026 1_555
O15 P3 1.620647 1_555
O15 V2 2.104663 1_555
O16 P5 1.550642 1_555
O16 V1 2.021980 1_655
O17 P5 1.523126 1_555
O18 P4 1.620647 1_555
O18 V2 2.104663 1_556
O19 P4 1.536855 1_555
O19 V3 1.984685 1_555
O20 P5 1.586913 1_555
O20 V3 2.008828 1_555
O21 P4 1.536619 1_555
O22 P6 1.555023 1_555
O22 V1 2.125777 1_555
O23 P3 1.536855 1_555
O23 V3 1.984685 1_555
O24 P7 1.533043 1_555
O25 P8 1.562064 1_555
O25 V2 1.883099 1_555
O26 P7 1.562064 1_555
O26 V2 1.883099 1_556
O27 P5 1.570716 1_555
O28 P7 1.592130 1_555
O28 V3 2.095695 1_555
O29 P6 1.537470 1_556
O30 P6 1.612011 1_555
O30 V2 1.918587 1_555
O31 P6 1.517241 1_555
O32 P8 1.592130 1_555
O32 V3 2.095695 1_555
O33 P8 1.537443 1_555
O34 P9 1.586913 1_555
O34 V3 2.008828 1_555
O35 P10 1.543457 1_555
O36 P7 1.537443 1_555
O37 P10 1.584348 1_655
O38 P8 1.533043 1_555
O39 P10 1.541729 1_555
O40 P9 1.570716 1_555
O41 P0 1.584348 1_545
O42 P9 1.550642 1_555
O42 V0 2.021980 1_545
O43 P11 1.553052 1_556
O43 V0 2.000508 1_545
O44 P9 1.523126 1_555
O45 P11 1.544787 1_555
O46 P11 1.528618 1_555
O47 P10 1.549787 1_555
O47 V0 1.909992 1_545
