# generated using pymatgen
data_V4FeCoO12
_symmetry_space_group_name_H-M   'P 1'
_cell_length_a   5.91721273
_cell_length_b   6.86529863
_cell_length_c   6.82917541
_cell_angle_alpha   96.37502920
_cell_angle_beta   74.57969235
_cell_angle_gamma   105.46718028
_symmetry_Int_Tables_number   1
_chemical_formula_structural   V4FeCoO12
_chemical_formula_sum   'V4 Fe1 Co1 O12'
_cell_volume   257.51143266
_cell_formula_units_Z   1
loop_
 _symmetry_equiv_pos_site_id
 _symmetry_equiv_pos_as_xyz
  1  'x, y, z'
loop_
 _atom_site_type_symbol
 _atom_site_label
 _atom_site_symmetry_multiplicity
 _atom_site_fract_x
 _atom_site_fract_y
 _atom_site_fract_z
 _atom_site_occupancy
  V  V0  1  0.25587500  0.38570300  0.79398700  1
  V  V1  1  0.24449500  0.79292400  0.38581000  1
  V  V2  1  0.75958400  0.20856200  0.61212600  1
  V  V3  1  0.74072900  0.61224000  0.20735900  1
  Fe  Fe0  1  0.24880700  0.91316400  0.91407000  1
  Co  Co0  1  0.75023100  0.08797900  0.08671200  1
  O  O0  1  0.64745100  0.04155600  0.80439900  1
  O  O1  1  0.85281900  0.80368600  0.03982100  1
  O  O2  1  0.77733700  0.09049100  0.38128500  1
  O  O3  1  0.72233000  0.38208400  0.09028400  1
  O  O4  1  0.13159900  0.19372300  0.96230000  1
  O  O5  1  0.36667500  0.95958800  0.19154900  1
  O  O6  1  0.55220100  0.36673600  0.65015400  1
  O  O7  1  0.94860800  0.65037000  0.36707900  1
  O  O8  1  0.05586500  0.35427300  0.62980100  1
  O  O9  1  0.44407100  0.62978100  0.35412000  1
  O  O10  1  0.27667200  0.61460300  0.91312700  1
  O  O11  1  0.22465200  0.91253700  0.61601800  1
loop_
_geom_bond_atom_site_label_1
_geom_bond_atom_site_label_2
_geom_bond_distance
_geom_bond_site_symmetry_2
Fe0 O11 2.077484 1_555
Fe0 O10 2.098882 1_555
Fe0 O5 2.151516 1_556
Fe0 O4 2.179352 1_565
Fe0 O1 2.219603 1_456
Fe0 O0 2.236115 1_565
Co0 O2 2.057992 1_555
Co0 O3 2.066255 1_555
Co0 O0 2.138272 1_554
Co0 O4 2.141231 1_654
Co0 O5 2.156279 1_545
Co0 O1 2.161053 1_545
O0 V2 1.715868 1_555
O1 V3 1.715191 1_555
O2 V2 1.681331 1_555
O3 V3 1.679811 1_555
O4 V0 1.723099 1_555
O5 V1 1.725593 1_555
O6 V2 1.797537 1_555
O6 V0 1.798261 1_555
O7 V1 1.793581 1_655
O7 V3 1.802689 1_555
O8 V0 1.794494 1_555
O8 V2 1.799761 1_455
O9 V1 1.792104 1_555
O9 V3 1.802981 1_555
O10 V0 1.677142 1_555
O11 V1 1.681156 1_555
