# generated using pymatgen
data_Li6V3P8O29
_symmetry_space_group_name_H-M   'P 1'
_cell_length_a   9.78630600
_cell_length_b   9.79717430
_cell_length_c   13.98649335
_cell_angle_alpha   89.78351332
_cell_angle_beta   90.65319003
_cell_angle_gamma   119.85743919
_symmetry_Int_Tables_number   1
_chemical_formula_structural   Li6V3P8O29
_chemical_formula_sum   'Li12 V6 P16 O58'
_cell_volume   1162.92559292
_cell_formula_units_Z   2
loop_
 _symmetry_equiv_pos_site_id
 _symmetry_equiv_pos_as_xyz
  1  'x, y, z'
loop_
 _atom_site_type_symbol
 _atom_site_label
 _atom_site_symmetry_multiplicity
 _atom_site_fract_x
 _atom_site_fract_y
 _atom_site_fract_z
 _atom_site_occupancy
  Li  Li0  1  0.77047600  0.09003000  0.05670900  1
  Li  Li1  1  0.33388600  0.09701200  0.56463000  1
  Li  Li2  1  0.67120500  0.33139600  0.88543500  1
  Li  Li3  1  0.32926600  0.23955400  0.06094400  1
  Li  Li4  1  0.91704600  0.68391400  0.05877400  1
  Li  Li5  1  0.23237600  0.33397500  0.44352000  1
  Li  Li6  1  0.76106100  0.66694600  0.56245200  1
  Li  Li7  1  0.66725100  0.76633800  0.93882400  1
  Li  Li8  1  0.66647400  0.90563100  0.44002700  1
  Li  Li9  1  0.09369300  0.76813500  0.44534300  1
  Li  Li10  1  0.04752500  0.02973000  0.98568500  1
  Li  Li11  1  0.98703300  0.04359900  0.51630200  1
  V  V0  1  0.43211900  0.43318800  0.25096700  1
  V  V1  1  0.55975400  0.56030600  0.75017400  1
  V  V2  1  0.99996300  0.43567000  0.75007000  1
  V  V3  1  0.00111900  0.55814300  0.24939000  1
  V  V4  1  0.56397600  0.00058200  0.24601200  1
  V  V5  1  0.43655500  0.99615100  0.74986200  1
  P  P0  1  0.78102100  0.09076700  0.83917600  1
  P  P1  1  0.91651700  0.21994200  0.34159400  1
  P  P2  1  0.31637400  0.08679900  0.34621400  1
  P  P3  1  0.66741300  0.33497800  0.12846600  1
  P  P4  1  0.66509200  0.33401200  0.63099700  1
  P  P5  1  0.31640100  0.21952400  0.84326000  1
  P  P6  1  0.22037200  0.30835700  0.66025700  1
  P  P7  1  0.90947900  0.68866500  0.84515700  1
  P  P8  1  0.08127000  0.30265000  0.15487400  1
  P  P9  1  0.77395100  0.68550100  0.34180600  1
  P  P10  1  0.68260100  0.77027200  0.15720700  1
  P  P11  1  0.33426000  0.66665700  0.36886500  1
  P  P12  1  0.33425200  0.66708800  0.86992300  1
  P  P13  1  0.68875500  0.91174500  0.65483100  1
  P  P14  1  0.08237700  0.77425500  0.65913700  1
  P  P15  1  0.21951600  0.91768000  0.15991800  1
  O  O0  1  0.77993500  0.98725300  0.56537700  1
  O  O1  1  0.74398800  0.08012200  0.33730700  1
  O  O2  1  0.99686700  0.20099200  0.07046700  1
  O  O3  1  0.92271000  0.25571300  0.83978000  1
  O  O4  1  0.62969100  0.10497900  0.82858500  1
  O  O5  1  0.67901500  0.18900900  0.16429500  1
  O  O6  1  0.47333800  0.09258700  0.32902300  1
  O  O7  1  0.20997200  0.01261000  0.07896400  1
  O  O8  1  0.34474700  0.08019600  0.83860900  1
  O  O9  1  0.80919100  0.33219500  0.67932700  1
  O  O10  1  0.91738100  0.37715500  0.33219500  1
  O  O11  1  0.51206500  0.18729800  0.67059900  1
  O  O12  1  0.67125700  0.34176200  0.02089500  1
  O  O13  1  0.66316100  0.33969900  0.52449800  1
  O  O14  1  0.51311000  0.32412900  0.16678500  1
  O  O15  1  0.89674100  0.52509800  0.83526100  1
  O  O16  1  0.81321700  0.48767000  0.17163500  1
  O  O17  1  0.33703200  0.25440900  0.34256400  1
  O  O18  1  0.20570600  0.20333700  0.75274800  1
  O  O19  1  0.21324700  0.21446400  0.57153500  1
  O  O20  1  0.23314700  0.21841700  0.93293800  1
  O  O21  1  0.47948300  0.37224500  0.83128500  1
  O  O22  1  0.67187900  0.48776800  0.67317300  1
  O  O23  1  0.25523000  0.33834300  0.15996400  1
  O  O24  1  0.61913200  0.52754600  0.32619700  1
  O  O25  1  0.91735000  0.66146200  0.34272700  1
  O  O26  1  0.00033200  0.19856500  0.24905400  1
  O  O27  1  0.00387300  0.20684100  0.42670900  1
  O  O28  1  0.99275200  0.77882400  0.57064900  1
  O  O29  1  0.08365800  0.33946300  0.66189500  1
  O  O30  1  0.38009200  0.46201900  0.66766900  1
  O  O31  1  0.74024900  0.66392000  0.84181800  1
  O  O32  1  0.32103300  0.50902000  0.33081600  1
  O  O33  1  0.52530500  0.61903900  0.17226900  1
  O  O34  1  0.76746900  0.76777000  0.06836600  1
  O  O35  1  0.76852000  0.77089700  0.43018900  1
  O  O36  1  0.79430100  0.79377500  0.24917300  1
  O  O37  1  0.65934500  0.74201200  0.66054000  1
  O  O38  1  0.18500300  0.52571100  0.82459600  1
  O  O39  1  0.07764600  0.45756100  0.16438000  1
  O  O40  1  0.48318600  0.66372700  0.82892600  1
  O  O41  1  0.34431900  0.67534500  0.97585500  1
  O  O42  1  0.32871500  0.66686900  0.47534300  1
  O  O43  1  0.48618400  0.80976900  0.32748300  1
  O  O44  1  0.08405600  0.61974400  0.66806500  1
  O  O45  1  0.18707900  0.67283400  0.32354800  1
  O  O46  1  0.66184500  0.91733100  0.15671700  1
  O  O47  1  0.79653700  0.00025200  0.74766500  1
  O  O48  1  0.77494000  0.99733000  0.92754100  1
  O  O49  1  0.53637100  0.91867600  0.66277900  1
  O  O50  1  0.34246200  0.81620700  0.82094100  1
  O  O51  1  0.38126300  0.92265200  0.17011000  1
  O  O52  1  0.08377700  0.74635400  0.15822700  1
  O  O53  1  0.99190900  0.78023100  0.93375300  1
  O  O54  1  0.99707500  0.79340800  0.75246000  1
  O  O55  1  0.24972200  0.91808600  0.65886900  1
  O  O56  1  0.23463100  0.00309200  0.43706400  1
  O  O57  1  0.19935600  0.99128900  0.25872300  1
loop_
_geom_bond_atom_site_label_1
_geom_bond_atom_site_label_2
_geom_bond_distance
_geom_bond_site_symmetry_2
Li0 O2 1.929025 1_555
Li0 O48 2.035747 1_544
Li0 O46 2.043160 1_545
Li0 O5 2.216238 1_555
Li1 O56 2.014080 1_555
Li1 O55 2.014523 1_545
Li1 O19 2.020737 1_555
Li1 O11 2.105926 1_555
Li2 O12 1.897694 1_556
Li2 O15 2.195481 1_555
Li2 O4 2.196942 1_555
Li2 O21 2.228686 1_555
Li3 O7 1.946269 1_555
Li3 O20 1.975735 1_554
Li3 O23 2.027558 1_555
Li3 O14 2.139894 1_555
Li4 O53 1.952742 1_554
Li4 O52 1.983005 1_655
Li4 O34 2.009575 1_555
Li4 O16 2.299830 1_555
Li5 O27 1.955559 1_555
Li5 O19 2.094125 1_555
Li5 O17 2.118175 1_555
Li5 O32 2.169766 1_555
Li6 O28 1.968787 1_555
Li6 O37 2.044880 1_555
Li6 O35 2.092715 1_555
Li6 O22 2.173990 1_555
Li7 O48 1.970641 1_555
Li7 O31 2.025860 1_555
Li7 O34 2.047151 1_556
Li7 O40 2.182545 1_555
Li8 O0 2.007044 1_555
Li8 O35 2.018844 1_555
Li8 O1 2.068105 1_565
Li8 O43 2.184212 1_555
Li9 O56 2.013693 1_565
Li9 O28 2.049935 1_455
Li9 O25 2.071088 1_455
Li9 O45 2.346480 1_555
Li10 O20 1.984467 1_555
Li10 O7 2.115210 1_556
Li10 O2 2.307350 1_456
Li10 O53 2.340632 1_445
Li11 O0 1.948933 1_545
Li11 O27 1.970362 1_655
Li11 O19 2.140285 1_655
O0 P13 1.506670 1_555
O1 P1 1.557641 1_555
O1 V4 1.982548 1_555
O2 P8 1.495147 1_655
O3 P0 1.517552 1_555
O3 V2 1.982944 1_555
O4 P0 1.560364 1_555
O4 V5 1.968870 1_545
O5 P3 1.569750 1_555
O5 V4 1.981340 1_555
O6 P2 1.530429 1_555
O6 V4 1.942877 1_555
O7 P15 1.493938 1_545
O8 P5 1.524000 1_555
O8 V5 1.948257 1_545
O9 P4 1.564952 1_555
O9 V2 1.890294 1_555
O10 P1 1.541178 1_555
O10 V3 1.927772 1_655
O11 P4 1.576445 1_555
O11 V5 1.976662 1_545
O12 P3 1.505829 1_555
O13 P4 1.490635 1_555
O14 P3 1.561096 1_555
O14 V0 2.007523 1_555
O15 P7 1.550827 1_555
O15 V2 2.030847 1_555
O16 P3 1.581220 1_555
O16 V3 1.933071 1_655
O17 P2 1.552108 1_555
O17 V0 1.990582 1_555
O18 P6 1.612401 1_555
O18 P5 1.612603 1_555
O19 P6 1.527644 1_555
O20 P5 1.500518 1_555
O21 P5 1.562192 1_555
O21 V1 1.965243 1_555
O22 P4 1.589890 1_555
O22 V1 1.917847 1_555
O23 P8 1.558934 1_555
O23 V0 1.958890 1_555
O24 P9 1.548703 1_555
O24 V0 1.894754 1_555
O25 P9 1.534165 1_555
O25 V3 2.064344 1_655
O26 P1 1.609097 1_455
O26 P8 1.616109 1_555
O27 P1 1.499802 1_455
O28 P14 1.522161 1_655
O29 P6 1.513330 1_555
O29 V2 1.969952 1_455
O30 P6 1.541047 1_555
O30 V1 1.904364 1_555
O31 P7 1.549934 1_555
O31 V1 1.991577 1_555
O32 P11 1.578200 1_555
O32 V0 1.954274 1_555
O33 P10 1.530804 1_555
O33 V0 1.926912 1_555
O34 P10 1.509446 1_555
O35 P9 1.511453 1_555
O36 P10 1.619269 1_555
O36 P9 1.621319 1_555
O37 P13 1.541894 1_555
O37 V1 1.993526 1_555
O38 P12 1.557217 1_555
O38 V2 1.875435 1_455
O39 P8 1.541929 1_555
O39 V3 1.926032 1_555
O40 P12 1.587831 1_555
O40 V1 1.893292 1_555
O41 P12 1.483604 1_555
O42 P11 1.490907 1_555
O43 P11 1.565006 1_555
O43 V4 1.989827 1_565
O44 P14 1.526649 1_555
O44 V2 1.942477 1_455
O45 P11 1.595530 1_555
O45 V3 1.892086 1_555
O46 P10 1.551899 1_555
O46 V4 1.988763 1_565
O47 P0 1.610816 1_555
O47 P13 1.617706 1_545
O48 P0 1.519180 1_565
O49 P13 1.531515 1_555
O49 V5 1.945813 1_555
O50 P12 1.577015 1_555
O50 V5 1.826329 1_555
O51 P15 1.564103 1_555
O51 V4 1.873690 1_565
O52 P15 1.536898 1_555
O52 V3 2.049583 1_555
O53 P7 1.502018 1_555
O54 P7 1.615004 1_555
O54 P14 1.618165 1_655
O55 P14 1.539491 1_555
O55 V5 2.027225 1_555
O56 P2 1.513006 1_555
O57 P2 1.610647 1_565
O57 P15 1.619924 1_555
