# generated using pymatgen
data_Na3MnSiCO7
_symmetry_space_group_name_H-M   'P 1'
_cell_length_a   6.50430700
_cell_length_b   10.61480000
_cell_length_c   9.13407107
_cell_angle_alpha   88.93426686
_cell_angle_beta   90.00000646
_cell_angle_gamma   90.00003381
_symmetry_Int_Tables_number   1
_chemical_formula_structural   Na3MnSiCO7
_chemical_formula_sum   'Na12 Mn4 Si4 C4 O28'
_cell_volume   630.52469498
_cell_formula_units_Z   4
loop_
 _symmetry_equiv_pos_site_id
 _symmetry_equiv_pos_as_xyz
  1  'x, y, z'
loop_
 _atom_site_type_symbol
 _atom_site_label
 _atom_site_symmetry_multiplicity
 _atom_site_fract_x
 _atom_site_fract_y
 _atom_site_fract_z
 _atom_site_occupancy
  Na  Na0  1  0.25000000  0.39200900  0.09205600  1
  Na  Na1  1  0.24999700  0.89199700  0.09206600  1
  Na  Na2  1  0.75000200  0.10799200  0.90794700  1
  Na  Na3  1  0.75000100  0.60800200  0.90793700  1
  Na  Na4  1  0.00656900  0.13065100  0.26632500  1
  Na  Na5  1  0.00655600  0.63066400  0.26632200  1
  Na  Na6  1  0.49343300  0.13065400  0.26632700  1
  Na  Na7  1  0.49344400  0.63066300  0.26632600  1
  Na  Na8  1  0.50657000  0.36934800  0.73367800  1
  Na  Na9  1  0.50655700  0.86933600  0.73367500  1
  Na  Na10  1  0.99343200  0.36934900  0.73367400  1
  Na  Na11  1  0.99344200  0.86933700  0.73367400  1
  Mn  Mn0  1  0.74999600  0.89100600  0.35265500  1
  Mn  Mn1  1  0.25000100  0.60897200  0.64736000  1
  Mn  Mn2  1  0.75001000  0.39083100  0.35250700  1
  Mn  Mn3  1  0.24999900  0.10916800  0.64750300  1
  Si  Si0  1  0.25000300  0.34645400  0.42732100  1
  Si  Si1  1  0.24999800  0.84648100  0.42734600  1
  Si  Si2  1  0.75000000  0.15354700  0.57267900  1
  Si  Si3  1  0.75000000  0.65352500  0.57265100  1
  C  C0  1  0.75000000  0.35753400  0.05398300  1
  C  C1  1  0.75000000  0.85752800  0.05399300  1
  C  C2  1  0.25000000  0.14246500  0.94601900  1
  C  C3  1  0.24999900  0.64247100  0.94600400  1
  O  O0  1  0.25000000  0.12202600  0.08584700  1
  O  O1  1  0.25000000  0.62202300  0.08583700  1
  O  O2  1  0.74999900  0.37797300  0.91415500  1
  O  O3  1  0.75000100  0.87797900  0.91416200  1
  O  O4  1  0.75000100  0.45654000  0.13962100  1
  O  O5  1  0.74999800  0.95654400  0.13962600  1
  O  O6  1  0.24999900  0.04346000  0.86038000  1
  O  O7  1  0.24999900  0.54345900  0.86036700  1
  O  O8  1  0.74999900  0.24584900  0.11127600  1
  O  O9  1  0.75000100  0.74583900  0.11126300  1
  O  O10  1  0.24999900  0.25415100  0.88872600  1
  O  O11  1  0.24999800  0.75416300  0.88874000  1
  O  O12  1  0.24999800  0.19103300  0.45869400  1
  O  O13  1  0.24999900  0.69103600  0.45865800  1
  O  O14  1  0.75000100  0.30896800  0.54130400  1
  O  O15  1  0.75000000  0.80897000  0.54132400  1
  O  O16  1  0.74999900  0.07864500  0.42017900  1
  O  O17  1  0.74999900  0.57858700  0.42017300  1
  O  O18  1  0.25000200  0.42135600  0.57982000  1
  O  O19  1  0.25000000  0.92141200  0.57982700  1
  O  O20  1  0.04965500  0.37752000  0.31983000  1
  O  O21  1  0.04964600  0.87754600  0.31984700  1
  O  O22  1  0.45034900  0.37752000  0.31983000  1
  O  O23  1  0.45035200  0.87754600  0.31984700  1
  O  O24  1  0.54965300  0.12248200  0.68017200  1
  O  O25  1  0.54964300  0.62245500  0.68015000  1
  O  O26  1  0.95034700  0.12248100  0.68017100  1
  O  O27  1  0.95035500  0.62245300  0.68015000  1
loop_
_geom_bond_atom_site_label_1
_geom_bond_atom_site_label_2
_geom_bond_distance
_geom_bond_site_symmetry_2
Na0 O10 2.385739 1_554
Na0 O1 2.441157 1_555
Na0 O20 2.457302 1_555
Na0 O22 2.457315 1_555
Na0 O7 2.633711 1_554
Na0 O0 2.867431 1_555
Na1 O11 2.385551 1_554
Na1 O0 2.441316 1_565
Na1 O21 2.457358 1_555
Na1 O23 2.457371 1_555
Na1 O6 2.633771 1_564
Na1 O1 2.867343 1_555
Na2 O8 2.385726 1_556
Na2 O3 2.441146 1_545
Na2 O26 2.457317 1_555
Na2 O24 2.457324 1_555
Na2 O5 2.633626 1_546
Na2 O2 2.867410 1_555
Na3 O9 2.385571 1_556
Na3 O2 2.441316 1_555
Na3 O27 2.457414 1_555
Na3 O25 2.457429 1_555
Na3 O4 2.633750 1_556
Na3 O3 2.867373 1_555
Na4 O16 2.244040 1_455
Na4 O0 2.288786 1_555
Na4 O12 2.459085 1_555
Na4 O8 2.494286 1_455
Na4 O20 2.689212 1_555
Na4 O21 2.736198 1_545
Na4 O5 2.760310 1_445
Na5 O17 2.244137 1_455
Na5 O1 2.288900 1_555
Na5 O13 2.458898 1_555
Na5 O9 2.494154 1_455
Na5 O21 2.689386 1_555
Na5 O20 2.736597 1_555
Na5 O4 2.760377 1_455
Na6 O16 2.244017 1_555
Na6 O0 2.288810 1_555
Na6 O12 2.459089 1_555
Na6 O8 2.494262 1_555
Na6 O22 2.689176 1_555
Na6 O23 2.736229 1_545
Na6 O5 2.760317 1_545
Na7 O17 2.244102 1_555
Na7 O1 2.288925 1_555
Na7 O13 2.458883 1_555
Na7 O9 2.494188 1_555
Na7 O23 2.689390 1_555
Na7 O22 2.736578 1_555
Na7 O4 2.760395 1_555
Na8 O18 2.244058 1_555
Na8 O2 2.288770 1_555
Na8 O14 2.459121 1_555
Na8 O10 2.494279 1_555
Na8 O24 2.689181 1_555
Na8 O25 2.736225 1_555
Na8 O7 2.760301 1_555
Na9 O19 2.244117 1_555
Na9 O3 2.288914 1_555
Na9 O15 2.458979 1_555
Na9 O11 2.494191 1_555
Na9 O25 2.689373 1_555
Na9 O24 2.736609 1_565
Na9 O6 2.760406 1_565
Na10 O18 2.244042 1_655
Na10 O2 2.288814 1_555
Na10 O14 2.459097 1_555
Na10 O10 2.494288 1_655
Na10 O26 2.689197 1_555
Na10 O27 2.736191 1_555
Na10 O7 2.760292 1_655
Na11 O19 2.244114 1_655
Na11 O3 2.288907 1_555
Na11 O15 2.458971 1_555
Na11 O11 2.494189 1_655
Na11 O27 2.689403 1_555
Na11 O26 2.736587 1_565
Na11 O6 2.760397 1_665
Mn0 O15 1.916320 1_555
Mn0 O23 1.977452 1_555
Mn0 O21 1.977491 1_655
Mn0 O5 2.054222 1_555
Mn0 O16 2.095989 1_565
Mn1 O13 1.916718 1_555
Mn1 O25 1.977433 1_555
Mn1 O27 1.977457 1_455
Mn1 O7 2.053948 1_555
Mn1 O18 2.095802 1_555
Mn2 O14 1.916559 1_555
Mn2 O20 1.977158 1_655
Mn2 O22 1.977261 1_555
Mn2 O4 2.053577 1_555
Mn2 O17 2.097581 1_555
Mn3 O12 1.916666 1_555
Mn3 O26 1.977192 1_455
Mn3 O24 1.977207 1_555
Mn3 O6 2.053496 1_555
Mn3 O19 2.097610 1_545
C0 O8 1.286945 1_555
C0 O2 1.291510 1_554
C0 O4 1.321705 1_555
C1 O9 1.286902 1_555
C1 O3 1.291557 1_554
C1 O5 1.321763 1_555
C2 O10 1.286955 1_555
C2 O0 1.291510 1_556
C2 O6 1.321702 1_555
C3 O11 1.286910 1_555
C3 O1 1.291570 1_556
C3 O7 1.321751 1_555
O12 Si0 1.669206 1_555
O13 Si1 1.669372 1_555
O14 Si2 1.669209 1_555
O15 Si3 1.669393 1_555
O16 Si2 1.616673 1_555
O17 Si3 1.616692 1_555
O18 Si0 1.616665 1_555
O19 Si1 1.616678 1_555
O20 Si0 1.660971 1_555
O21 Si1 1.661032 1_555
O22 Si0 1.660960 1_555
O23 Si1 1.661042 1_555
O24 Si2 1.660974 1_555
O25 Si3 1.661067 1_555
O26 Si2 1.660971 1_555
O27 Si3 1.661061 1_555
