# generated using pymatgen
data_LiZnBO3
_symmetry_space_group_name_H-M   'P 1'
_cell_length_a   5.08204900
_cell_length_b   8.85928049
_cell_length_c   11.22199812
_cell_angle_alpha   90.01277775
_cell_angle_beta   90.41460926
_cell_angle_gamma   90.09619493
_symmetry_Int_Tables_number   1
_chemical_formula_structural   LiZnBO3
_chemical_formula_sum   'Li8 Zn8 B8 O24'
_cell_volume   505.23740597
_cell_formula_units_Z   8
loop_
 _symmetry_equiv_pos_site_id
 _symmetry_equiv_pos_as_xyz
  1  'x, y, z'
loop_
 _atom_site_type_symbol
 _atom_site_label
 _atom_site_symmetry_multiplicity
 _atom_site_fract_x
 _atom_site_fract_y
 _atom_site_fract_z
 _atom_site_occupancy
  Li  Li0  1  0.67538600  0.01450600  0.16637700  1
  Li  Li1  1  0.34831200  0.99788100  0.89759700  1
  Li  Li2  1  0.33607400  0.00256000  0.35253800  1
  Li  Li3  1  0.82433600  0.50951900  0.33311500  1
  Li  Li4  1  0.10376700  0.49151500  0.72560300  1
  Li  Li5  1  0.16517800  0.50914200  0.15285500  1
  Li  Li6  1  0.15216400  0.50634300  0.53428600  1
  Li  Li7  1  0.66087400  0.99350200  0.67236600  1
  Zn  Zn0  1  0.85494800  0.16911800  0.89057000  1
  Zn  Zn1  1  0.16044100  0.16242000  0.62102000  1
  Zn  Zn2  1  0.66182600  0.34501000  0.10190700  1
  Zn  Zn3  1  0.34423200  0.32571600  0.35266600  1
  Zn  Zn4  1  0.65143200  0.66641400  0.65026500  1
  Zn  Zn5  1  0.83973000  0.83770500  0.39469300  1
  Zn  Zn6  1  0.36648700  0.65472900  0.90837400  1
  Zn  Zn7  1  0.15036800  0.83930700  0.11205900  1
  B  B0  1  0.84363800  0.16885200  0.37134100  1
  B  B1  1  0.16734100  0.17079600  0.12989200  1
  B  B2  1  0.65801800  0.33559200  0.62540700  1
  B  B3  1  0.34542900  0.32661100  0.88509500  1
  B  B4  1  0.66381300  0.67264600  0.13374100  1
  B  B5  1  0.84459700  0.83114500  0.87417800  1
  B  B6  1  0.34000700  0.67042900  0.36719300  1
  B  B7  1  0.15209200  0.82634200  0.62300100  1
  O  O0  1  0.70498100  0.03658600  0.34885700  1
  O  O1  1  0.90327200  0.16923100  0.09879100  1
  O  O2  1  0.31049400  0.03815100  0.13092800  1
  O  O3  1  0.78074500  0.19819500  0.64913600  1
  O  O4  1  0.72301500  0.30704000  0.35696400  1
  O  O5  1  0.22312300  0.19113400  0.85412600  1
  O  O6  1  0.11066300  0.16176400  0.40413500  1
  O  O7  1  0.60520900  0.32582100  0.92517700  1
  O  O8  1  0.81066000  0.46701500  0.62077500  1
  O  O9  1  0.29343500  0.30646700  0.16222100  1
  O  O10  1  0.38385500  0.34486500  0.60950000  1
  O  O11  1  0.79883000  0.53935000  0.15375700  1
  O  O12  1  0.21080100  0.46046300  0.87843400  1
  O  O13  1  0.71356400  0.70004000  0.83814600  1
  O  O14  1  0.60522700  0.66538600  0.38892900  1
  O  O15  1  0.19694700  0.53327400  0.36401800  1
  O  O16  1  0.39715400  0.66451700  0.09702500  1
  O  O17  1  0.78188300  0.81074300  0.14728400  1
  O  O18  1  0.88178800  0.83531000  0.59279500  1
  O  O19  1  0.26391600  0.68275500  0.63760300  1
  O  O20  1  0.20721700  0.80473700  0.34802400  1
  O  O21  1  0.71235600  0.96754800  0.86313800  1
  O  O22  1  0.10561700  0.82809500  0.91679300  1
  O  O23  1  0.29722000  0.95662600  0.63703700  1
loop_
_geom_bond_atom_site_label_1
_geom_bond_atom_site_label_2
_geom_bond_distance
_geom_bond_site_symmetry_2
Li0 O17 1.897983 1_545
Li0 O2 1.905674 1_555
Li0 O1 1.950209 1_555
Li0 O0 2.061455 1_555
Li1 O5 1.890375 1_565
Li1 O21 1.912213 1_555
Li1 O22 1.956521 1_555
Li2 O20 1.870436 1_545
Li2 O0 1.899129 1_555
Li2 O6 1.910898 1_555
Li2 O2 2.509350 1_555
Li3 O4 1.885115 1_555
Li3 O14 1.885182 1_555
Li3 O15 1.933780 1_655
Li3 O11 2.033324 1_555
Li4 O12 1.816655 1_555
Li4 O8 1.903492 1_455
Li4 O19 2.125056 1_555
Li4 O10 2.333227 1_555
Li5 O11 1.881479 1_455
Li5 O9 1.913881 1_555
Li5 O16 1.919056 1_555
Li5 O15 2.383534 1_555
Li6 O15 1.940616 1_555
Li6 O19 2.023880 1_555
Li6 O8 2.024356 1_455
Li6 O10 2.034014 1_555
Li7 O23 1.914869 1_555
Li7 O3 1.930391 1_565
Li7 O18 2.010259 1_555
Li7 O21 2.167221 1_555
B0 O4 1.379047 1_555
B0 O0 1.388454 1_555
B0 O6 1.404987 1_655
B1 O2 1.383153 1_555
B1 O1 1.384253 1_455
B1 O9 1.407408 1_555
B2 O3 1.393512 1_555
B2 O8 1.399167 1_555
B2 O10 1.405958 1_555
B3 O12 1.371831 1_555
B3 O7 1.391680 1_555
B3 O5 1.393504 1_555
B4 O17 1.369701 1_555
B4 O11 1.384349 1_555
B4 O16 1.415284 1_555
B5 O21 1.388850 1_555
B5 O13 1.396178 1_555
B5 O22 1.407132 1_655
B6 O14 1.368821 1_555
B6 O20 1.384989 1_555
B6 O15 1.415255 1_555
B7 O23 1.377097 1_555
B7 O19 1.403269 1_555
B7 O18 1.414885 1_455
O0 Zn5 1.958910 1_545
O1 Zn2 1.984684 1_555
O1 Zn0 2.347758 1_554
O2 Zn7 1.950095 1_545
O3 Zn1 1.983509 1_655
O4 Zn3 1.932623 1_555
O5 Zn0 1.927729 1_455
O6 Zn3 1.963886 1_555
O6 Zn1 2.445178 1_555
O7 Zn0 1.924000 1_555
O7 Zn2 2.009092 1_556
O8 Zn4 1.973165 1_555
O9 Zn2 2.023876 1_555
O9 Zn3 2.157531 1_555
O10 Zn1 1.978492 1_555
O11 Zn2 1.943528 1_555
O12 Zn6 1.921523 1_555
O13 Zn6 1.977709 1_555
O13 Zn4 2.150249 1_555
O14 Zn5 1.935917 1_555
O15 Zn3 1.990887 1_555
O16 Zn7 2.002196 1_555
O16 Zn6 2.123386 1_554
O17 Zn7 1.932955 1_655
O18 Zn4 2.007687 1_555
O18 Zn5 2.231921 1_555
O19 Zn4 1.979016 1_555
O20 Zn5 1.965550 1_455
O21 Zn0 1.949625 1_565
O22 Zn6 2.033253 1_555
O22 Zn7 2.203608 1_556
O23 Zn1 1.960127 1_565
