# generated using pymatgen
data_Na2H5RuN5O12
_symmetry_space_group_name_H-M   'P 1'
_cell_length_a   9.87516384
_cell_length_b   9.87516384
_cell_length_c   7.52287632
_cell_angle_alpha   69.58645687
_cell_angle_beta   69.58645687
_cell_angle_gamma   97.11015195
_symmetry_Int_Tables_number   1
_chemical_formula_structural   Na2H5RuN5O12
_chemical_formula_sum   'Na4 H10 Ru2 N10 O24'
_cell_volume   618.70442942
_cell_formula_units_Z   2
loop_
 _symmetry_equiv_pos_site_id
 _symmetry_equiv_pos_as_xyz
  1  'x, y, z'
loop_
 _atom_site_type_symbol
 _atom_site_label
 _atom_site_symmetry_multiplicity
 _atom_site_fract_x
 _atom_site_fract_y
 _atom_site_fract_z
 _atom_site_occupancy
  Na  Na0  1  0.00000000  0.50000000  0.50000000  1
  Na  Na1  1  0.50000000  0.00000000  0.50000000  1
  Na  Na2  1  0.89133900  0.10866100  0.50000000  1
  Na  Na3  1  0.10866100  0.89133900  0.50000000  1
  H  H0  1  0.04362100  0.04362100  0.14324600  1
  H  H1  1  0.95637900  0.95637900  0.85675400  1
  H  H2  1  0.79743400  0.21650600  0.81325500  1
  H  H3  1  0.21650600  0.79743400  0.81325500  1
  H  H4  1  0.20256600  0.78349400  0.18674500  1
  H  H5  1  0.78349400  0.20256600  0.18674500  1
  H  H6  1  0.67816200  0.24332500  0.72629500  1
  H  H7  1  0.24332500  0.67816200  0.72629500  1
  H  H8  1  0.32183800  0.75667500  0.27370500  1
  H  H9  1  0.75667500  0.32183800  0.27370500  1
  Ru  Ru0  1  0.26317500  0.26317500  0.99676400  1
  Ru  Ru1  1  0.73682500  0.73682500  0.00323600  1
  N  N0  1  0.41973100  0.41973100  0.81089400  1
  N  N1  1  0.58026900  0.58026900  0.18910600  1
  N  N2  1  0.13034800  0.33170600  0.82892500  1
  N  N3  1  0.33170600  0.13034800  0.82892500  1
  N  N4  1  0.86965200  0.66829400  0.17107500  1
  N  N5  1  0.66829400  0.86965200  0.17107500  1
  N  N6  1  0.18089700  0.38745900  0.17258800  1
  N  N7  1  0.38745900  0.18089700  0.17258800  1
  N  N8  1  0.81910300  0.61254100  0.82741200  1
  N  N9  1  0.61254100  0.81910300  0.82741200  1
  O  O0  1  0.08878900  0.08878900  0.21389800  1
  O  O1  1  0.91121100  0.91121100  0.78610200  1
  O  O2  1  0.52265800  0.52265800  0.68902100  1
  O  O3  1  0.47734200  0.47734200  0.31097900  1
  O  O4  1  0.01795200  0.23821400  0.86016900  1
  O  O5  1  0.23821400  0.01795200  0.86016900  1
  O  O6  1  0.98204800  0.76178600  0.13983100  1
  O  O7  1  0.76178600  0.98204800  0.13983100  1
  O  O8  1  0.16754000  0.46548700  0.69707400  1
  O  O9  1  0.46548700  0.16754000  0.69707400  1
  O  O10  1  0.83246000  0.53451300  0.30292600  1
  O  O11  1  0.53451300  0.83246000  0.30292600  1
  O  O12  1  0.09988500  0.32166600  0.36582700  1
  O  O13  1  0.32166600  0.09988500  0.36582700  1
  O  O14  1  0.90011500  0.67833400  0.63417300  1
  O  O15  1  0.67833400  0.90011500  0.63417300  1
  O  O16  1  0.21470700  0.52695900  0.08090500  1
  O  O17  1  0.52695900  0.21470700  0.08090500  1
  O  O18  1  0.78529300  0.47304100  0.91909500  1
  O  O19  1  0.47304100  0.78529300  0.91909500  1
  O  O20  1  0.78513200  0.24817000  0.68303500  1
  O  O21  1  0.24817000  0.78513200  0.68303500  1
  O  O22  1  0.21486800  0.75183000  0.31696500  1
  O  O23  1  0.75183000  0.21486800  0.31696500  1
loop_
_geom_bond_atom_site_label_1
_geom_bond_atom_site_label_2
_geom_bond_distance
_geom_bond_site_symmetry_2
Na0 O14 2.463467 1_455
Na0 O12 2.463467 1_555
Na0 O10 2.559234 1_455
Na0 O8 2.559234 1_555
Na0 O22 2.617173 1_555
Na0 O20 2.617173 1_455
Na1 O15 2.463467 1_545
Na1 O13 2.463467 1_555
Na1 O11 2.559234 1_545
Na1 O9 2.559234 1_555
Na1 O23 2.617173 1_555
Na1 O21 2.617173 1_545
Na2 O23 2.359569 1_555
Na2 O20 2.359569 1_555
Na2 O12 2.383492 1_655
Na2 O15 2.383492 1_545
Na2 O1 2.436119 1_545
Na2 O0 2.436119 1_655
Na3 O22 2.359569 1_555
Na3 O21 2.359569 1_555
Na3 O13 2.383492 1_565
Na3 O14 2.383492 1_455
Na3 O1 2.436119 1_455
Na3 O0 2.436119 1_565
H0 O0 0.980771 1_555
H1 O1 0.980771 1_555
H2 O20 0.975164 1_555
H3 O21 0.975164 1_555
H4 O22 0.975164 1_555
H5 O23 0.975164 1_555
H6 O20 0.980245 1_555
H7 O21 0.980245 1_555
H8 O22 0.980245 1_555
H9 O23 0.980245 1_555
N0 O2 1.162286 1_555
N0 Ru0 1.768554 1_555
N1 O3 1.162286 1_555
N1 Ru1 1.768554 1_555
N2 O4 1.246005 1_555
N2 O8 1.255274 1_555
N2 Ru0 2.133486 1_555
N3 O5 1.246005 1_555
N3 O9 1.255274 1_555
N3 Ru0 2.133486 1_555
N4 O6 1.246005 1_555
N4 O10 1.255274 1_555
N4 Ru1 2.133486 1_555
N5 O7 1.246005 1_555
N5 O11 1.255274 1_555
N5 Ru1 2.133486 1_555
N6 O16 1.244032 1_555
N6 O12 1.255627 1_555
N6 Ru0 2.132054 1_554
N7 O17 1.244032 1_555
N7 O13 1.255627 1_555
N7 Ru0 2.132054 1_554
N8 O18 1.244032 1_555
N8 O14 1.255627 1_555
N8 Ru1 2.132054 1_556
N9 O19 1.244032 1_555
N9 O15 1.255627 1_555
N9 Ru1 2.132054 1_556
O0 Ru0 1.985112 1_554
O1 Ru1 1.985112 1_556
