# generated using pymatgen
data_Li2Mn3SnO8
_symmetry_space_group_name_H-M   'P 1'
_cell_length_a   6.17442625
_cell_length_b   6.17442625
_cell_length_c   6.17442694
_cell_angle_alpha   58.03310227
_cell_angle_beta   58.03310227
_cell_angle_gamma   58.03309997
_symmetry_Int_Tables_number   1
_chemical_formula_structural   Li2Mn3SnO8
_chemical_formula_sum   'Li2 Mn3 Sn1 O8'
_cell_volume   158.93811647
_cell_formula_units_Z   1
loop_
 _symmetry_equiv_pos_site_id
 _symmetry_equiv_pos_as_xyz
  1  'x, y, z'
loop_
 _atom_site_type_symbol
 _atom_site_label
 _atom_site_symmetry_multiplicity
 _atom_site_fract_x
 _atom_site_fract_y
 _atom_site_fract_z
 _atom_site_occupancy
  Li  Li0  1  0.87824300  0.87824300  0.87824300  1
  Li  Li1  1  0.12175700  0.12175700  0.12175700  1
  Mn  Mn0  1  0.50000000  0.50000000  0.00000000  1
  Mn  Mn1  1  0.00000000  0.50000000  0.50000000  1
  Mn  Mn2  1  0.50000000  0.00000000  0.50000000  1
  Sn  Sn0  1  0.50000000  0.50000000  0.50000000  1
  O  O0  1  0.72778900  0.72778900  0.72778900  1
  O  O1  1  0.74202600  0.27857500  0.74202600  1
  O  O2  1  0.27857500  0.74202600  0.74202600  1
  O  O3  1  0.74202600  0.74202600  0.27857500  1
  O  O4  1  0.25797400  0.25797400  0.72142500  1
  O  O5  1  0.72142500  0.25797400  0.25797400  1
  O  O6  1  0.25797400  0.72142500  0.25797400  1
  O  O7  1  0.27221100  0.27221100  0.27221100  1
loop_
_geom_bond_atom_site_label_1
_geom_bond_atom_site_label_2
_geom_bond_distance
_geom_bond_site_symmetry_2
Li0 O2 1.967499 1_655
Li0 O1 1.967499 1_565
Li0 O3 1.967499 1_556
Li0 O0 2.308736 1_555
Li1 O6 1.967499 1_545
Li1 O5 1.967499 1_455
Li1 O4 1.967499 1_554
Li1 O7 2.308736 1_555
Mn0 O0 1.967151 1_554
Mn0 O7 1.967151 1_555
Mn0 O5 2.064365 1_555
Mn0 O6 2.064365 1_555
Mn0 O1 2.064365 1_554
Mn0 O2 2.064365 1_554
Mn1 O7 1.967151 1_555
Mn1 O0 1.967151 1_455
Mn1 O6 2.064365 1_555
Mn1 O1 2.064365 1_455
Mn1 O4 2.064365 1_555
Mn1 O3 2.064365 1_455
Mn2 O0 1.967151 1_545
Mn2 O7 1.967151 1_555
Mn2 O5 2.064365 1_555
Mn2 O2 2.064365 1_545
Mn2 O4 2.064365 1_555
Mn2 O3 2.064365 1_545
O1 Sn0 2.091270 1_555
O2 Sn0 2.091270 1_555
O3 Sn0 2.091270 1_555
O4 Sn0 2.091270 1_555
O5 Sn0 2.091270 1_555
O6 Sn0 2.091270 1_555
