# generated using pymatgen
data_K2TiH2O3F4
_symmetry_space_group_name_H-M   'P 1'
_cell_length_a   14.52319300
_cell_length_b   6.14007700
_cell_length_c   8.58433495
_cell_angle_alpha   60.04989395
_cell_angle_beta   90.00000000
_cell_angle_gamma   90.00000000
_symmetry_Int_Tables_number   1
_chemical_formula_structural   K2TiH2O3F4
_chemical_formula_sum   'K8 Ti4 H8 O12 F16'
_cell_volume   663.27150709
_cell_formula_units_Z   4
loop_
 _symmetry_equiv_pos_site_id
 _symmetry_equiv_pos_as_xyz
  1  'x, y, z'
loop_
 _atom_site_type_symbol
 _atom_site_label
 _atom_site_symmetry_multiplicity
 _atom_site_fract_x
 _atom_site_fract_y
 _atom_site_fract_z
 _atom_site_occupancy
  K  K0  1  0.91405600  0.73507300  0.71042400  1
  K  K1  1  0.58594400  0.73507300  0.21042400  1
  K  K2  1  0.08594400  0.26492700  0.28957600  1
  K  K3  1  0.41405600  0.26492700  0.78957600  1
  K  K4  1  0.71083900  0.30452600  0.78769800  1
  K  K5  1  0.78916100  0.30452600  0.28769800  1
  K  K6  1  0.28916100  0.69547400  0.21230200  1
  K  K7  1  0.21083900  0.69547400  0.71230200  1
  Ti  Ti0  1  0.90189600  0.93145800  0.13354700  1
  Ti  Ti1  1  0.59810400  0.93145800  0.63354700  1
  Ti  Ti2  1  0.09810400  0.06854200  0.86645300  1
  Ti  Ti3  1  0.40189600  0.06854200  0.36645300  1
  H  H0  1  0.90384300  0.24317900  0.68967000  1
  H  H1  1  0.59615700  0.24317900  0.18967000  1
  H  H2  1  0.09615700  0.75682100  0.31033000  1
  H  H3  1  0.40384300  0.75682100  0.81033000  1
  H  H4  1  0.90322500  0.44867400  0.48390700  1
  H  H5  1  0.59677500  0.44867400  0.98390700  1
  H  H6  1  0.09677500  0.55132600  0.51609300  1
  H  H7  1  0.40322500  0.55132600  0.01609300  1
  O  O0  1  0.79362700  0.83730200  0.05775600  1
  O  O1  1  0.70637300  0.83730200  0.55775600  1
  O  O2  1  0.20637300  0.16269800  0.94224400  1
  O  O3  1  0.29362700  0.16269800  0.44224400  1
  O  O4  1  0.78197900  0.83037200  0.23040300  1
  O  O5  1  0.71802100  0.83037200  0.73040300  1
  O  O6  1  0.21802100  0.16962800  0.76959700  1
  O  O7  1  0.28197900  0.16962800  0.26959700  1
  O  O8  1  0.86321400  0.34709700  0.58780800  1
  O  O9  1  0.63678600  0.34709700  0.08780800  1
  O  O10  1  0.13678600  0.65290300  0.41219200  1
  O  O11  1  0.36321400  0.65290300  0.91219200  1
  F  F0  1  0.87515300  0.28239100  0.00062500  1
  F  F1  1  0.62484700  0.28239100  0.50062500  1
  F  F2  1  0.12484700  0.71760900  0.99937500  1
  F  F3  1  0.37515300  0.71760900  0.49937500  1
  F  F4  1  0.92478400  0.96728900  0.34520600  1
  F  F5  1  0.57521600  0.96728900  0.84520600  1
  F  F6  1  0.07521600  0.03271100  0.65479400  1
  F  F7  1  0.42478400  0.03271100  0.15479400  1
  F  F8  1  0.95185800  0.59355800  0.26267700  1
  F  F9  1  0.54814200  0.59355800  0.76267700  1
  F  F10  1  0.04814200  0.40644200  0.73732300  1
  F  F11  1  0.45185800  0.40644200  0.23732300  1
  F  F12  1  0.95251700  0.96439600  0.89815500  1
  F  F13  1  0.54748300  0.96439600  0.39815500  1
  F  F14  1  0.04748300  0.03560400  0.10184500  1
  F  F15  1  0.45251700  0.03560400  0.60184500  1
loop_
_geom_bond_atom_site_label_1
_geom_bond_atom_site_label_2
_geom_bond_distance
_geom_bond_site_symmetry_2
K0 O5 2.928776 1_555
K1 O4 2.928776 1_555
K2 O7 2.928776 1_555
K3 O6 2.928776 1_555
K4 O8 2.731686 1_555
K4 O1 2.855582 1_555
K4 O0 2.899892 1_546
K4 O9 2.921373 1_556
K4 O5 3.015276 1_555
K4 O5 3.187233 1_545
K5 O9 2.731686 1_555
K5 O0 2.855582 1_555
K5 O1 2.899892 1_545
K5 O8 2.921373 1_555
K5 O4 3.015276 1_555
K5 O4 3.187233 1_545
K6 O10 2.731686 1_555
K6 O3 2.855582 1_555
K6 O2 2.899892 1_564
K6 O11 2.921373 1_554
K6 O7 3.015276 1_555
K6 O7 3.187233 1_565
K7 O11 2.731686 1_555
K7 O2 2.855582 1_555
K7 O3 2.899892 1_565
K7 O10 2.921373 1_555
K7 O6 3.015276 1_555
K7 O6 3.187233 1_565
H0 O8 0.981231 1_555
H1 O9 0.981231 1_555
H2 O10 0.981231 1_555
H3 O11 0.981231 1_555
H4 O8 0.983225 1_555
H4 K5 2.802331 1_555
H5 O9 0.983225 1_556
H5 K4 2.802331 1_555
H6 O10 0.983225 1_555
H6 K7 2.802331 1_555
H7 O11 0.983225 1_554
H7 K6 2.802331 1_555
O0 Ti0 1.898836 1_555
O1 Ti1 1.898836 1_555
O2 Ti2 1.898836 1_555
O3 Ti3 1.898836 1_555
O4 Ti0 1.895878 1_555
O5 Ti1 1.895878 1_555
O6 Ti2 1.895878 1_555
O7 Ti3 1.895878 1_555
F0 Ti0 1.908099 1_545
F0 K0 2.708698 1_554
F0 K5 2.825866 1_555
F0 K4 2.967515 1_554
F1 Ti1 1.908099 1_545
F1 K1 2.708698 1_555
F1 K4 2.825866 1_555
F1 K5 2.967515 1_555
F2 Ti2 1.908099 1_565
F2 K2 2.708698 1_556
F2 K7 2.825866 1_555
F2 K6 2.967515 1_556
F3 Ti3 1.908099 1_565
F3 K3 2.708698 1_555
F3 K6 2.825866 1_555
F3 K7 2.967515 1_555
F4 Ti0 1.964522 1_555
F4 K5 2.718511 1_565
F4 K0 2.724519 1_555
F4 K2 2.859140 1_665
F5 Ti1 1.964522 1_555
F5 K4 2.718511 1_565
F5 K1 2.724519 1_556
F5 K3 2.859140 1_565
F6 Ti2 1.964522 1_555
F6 K7 2.718511 1_545
F6 K2 2.724519 1_555
F6 K0 2.859140 1_445
F7 Ti3 1.964522 1_555
F7 K6 2.718511 1_545
F7 K3 2.724519 1_554
F7 K1 2.859140 1_545
F8 Ti0 1.939954 1_555
F8 K2 2.729814 1_655
F8 K5 2.897967 1_555
F9 Ti1 1.939954 1_555
F9 K3 2.729814 1_555
F9 K4 2.897967 1_555
F10 Ti2 1.939954 1_555
F10 K0 2.729814 1_455
F10 K7 2.897967 1_555
F11 Ti3 1.939954 1_555
F11 K1 2.729814 1_555
F11 K6 2.897967 1_555
F12 Ti0 2.063129 1_556
F12 Ti2 2.186287 1_665
F12 K0 2.675342 1_555
F13 Ti1 2.063129 1_555
F13 Ti3 2.186287 1_565
F13 K1 2.675342 1_555
F14 Ti2 2.063129 1_554
F14 Ti0 2.186287 1_445
F14 K2 2.675342 1_555
F15 Ti3 2.063129 1_555
F15 Ti1 2.186287 1_545
F15 K3 2.675342 1_555
