# generated using pymatgen
data_NaCa2B9(H2O5)4
_symmetry_space_group_name_H-M   'P 1'
_cell_length_a   12.68710200
_cell_length_b   10.62917300
_cell_length_c   11.61137799
_cell_angle_alpha   80.72808012
_cell_angle_beta   90.00000000
_cell_angle_gamma   90.00000000
_symmetry_Int_Tables_number   1
_chemical_formula_structural   NaCa2B9(H2O5)4
_chemical_formula_sum   'Na4 Ca8 B36 H32 O80'
_cell_volume   1545.37589016
_cell_formula_units_Z   4
loop_
 _symmetry_equiv_pos_site_id
 _symmetry_equiv_pos_as_xyz
  1  'x, y, z'
loop_
 _atom_site_type_symbol
 _atom_site_label
 _atom_site_symmetry_multiplicity
 _atom_site_fract_x
 _atom_site_fract_y
 _atom_site_fract_z
 _atom_site_occupancy
  Na  Na0  1  0.64849200  0.46801600  0.50079500  1
  Na  Na1  1  0.14849200  0.03198400  0.49920500  1
  Na  Na2  1  0.35150800  0.53198400  0.49920500  1
  Na  Na3  1  0.85150800  0.96801600  0.50079500  1
  Ca  Ca0  1  0.62852400  0.96922900  0.86825000  1
  Ca  Ca1  1  0.12852400  0.53077100  0.13175000  1
  Ca  Ca2  1  0.37147600  0.03077100  0.13175000  1
  Ca  Ca3  1  0.87147600  0.46922900  0.86825000  1
  Ca  Ca4  1  0.60119400  0.13477900  0.34597300  1
  Ca  Ca5  1  0.10119400  0.36522100  0.65402700  1
  Ca  Ca6  1  0.39880600  0.86522100  0.65402700  1
  Ca  Ca7  1  0.89880600  0.63477900  0.34597300  1
  B  B0  1  0.58631200  0.15973200  0.06342200  1
  B  B1  1  0.08631200  0.34026800  0.93657800  1
  B  B2  1  0.41368800  0.84026800  0.93657800  1
  B  B3  1  0.91368800  0.65973200  0.06342200  1
  B  B4  1  0.93118200  0.31305500  0.42990100  1
  B  B5  1  0.43118200  0.18694500  0.57009900  1
  B  B6  1  0.06881800  0.68694500  0.57009900  1
  B  B7  1  0.56881800  0.81305500  0.42990100  1
  B  B8  1  0.71835200  0.31964500  0.11189900  1
  B  B9  1  0.21835200  0.18035500  0.88810100  1
  B  B10  1  0.28164800  0.68035500  0.88810100  1
  B  B11  1  0.78164800  0.81964500  0.11189900  1
  B  B12  1  0.52104600  0.67253800  0.05361000  1
  B  B13  1  0.02104600  0.82746200  0.94639000  1
  B  B14  1  0.47895400  0.32746200  0.94639000  1
  B  B15  1  0.97895400  0.17253800  0.05361000  1
  B  B16  1  0.73850800  0.72799400  0.49940800  1
  B  B17  1  0.23850800  0.77200600  0.50059200  1
  B  B18  1  0.26149200  0.27200600  0.50059200  1
  B  B19  1  0.76149200  0.22799400  0.49940800  1
  B  B20  1  0.88037900  0.59730300  0.60911200  1
  B  B21  1  0.38037900  0.90269700  0.39088800  1
  B  B22  1  0.11962100  0.40269700  0.39088800  1
  B  B23  1  0.61962100  0.09730300  0.60911200  1
  B  B24  1  0.33036100  0.70303900  0.09275600  1
  B  B25  1  0.83036100  0.79696100  0.90724400  1
  B  B26  1  0.66963900  0.29696100  0.90724400  1
  B  B27  1  0.16963900  0.20303900  0.09275600  1
  B  B28  1  0.22908100  0.60614600  0.68852200  1
  B  B29  1  0.72908100  0.89385400  0.31147800  1
  B  B30  1  0.77091900  0.39385400  0.31147800  1
  B  B31  1  0.27091900  0.10614600  0.68852200  1
  B  B32  1  0.78941600  0.75664700  0.70573600  1
  B  B33  1  0.28941600  0.74335300  0.29426400  1
  B  B34  1  0.21058400  0.24335300  0.29426400  1
  B  B35  1  0.71058400  0.25664700  0.70573600  1
  H  H0  1  0.11416000  0.53013600  0.85614500  1
  H  H1  1  0.61416000  0.96986400  0.14385500  1
  H  H2  1  0.88584000  0.46986400  0.14385500  1
  H  H3  1  0.38584000  0.03013600  0.85614500  1
  H  H4  1  0.68973900  0.55181600  0.23135100  1
  H  H5  1  0.18973900  0.94818400  0.76864900  1
  H  H6  1  0.31026100  0.44818400  0.76864900  1
  H  H7  1  0.81026100  0.05181600  0.23135100  1
  H  H8  1  0.45794000  0.57979100  0.26752000  1
  H  H9  1  0.95794000  0.92020900  0.73248000  1
  H  H10  1  0.54206000  0.42020900  0.73248000  1
  H  H11  1  0.04206000  0.07979100  0.26752000  1
  H  H12  1  0.13858600  0.59628100  0.37065500  1
  H  H13  1  0.63858600  0.90371900  0.62934500  1
  H  H14  1  0.86141400  0.40371900  0.62934500  1
  H  H15  1  0.36141400  0.09628100  0.37065500  1
  H  H16  1  0.67121100  0.63015000  0.02675800  1
  H  H17  1  0.17121100  0.86985000  0.97324200  1
  H  H18  1  0.32878900  0.36985000  0.97324200  1
  H  H19  1  0.82878900  0.13015000  0.02675800  1
  H  H20  1  0.52945500  0.63962700  0.78445100  1
  H  H21  1  0.02945500  0.86037300  0.21554900  1
  H  H22  1  0.47054500  0.36037300  0.21554900  1
  H  H23  1  0.97054500  0.13962700  0.78445100  1
  H  H24  1  0.44894000  0.41762700  0.64693400  1
  H  H25  1  0.94894000  0.08237300  0.35306600  1
  H  H26  1  0.55106000  0.58237300  0.35306600  1
  H  H27  1  0.05106000  0.91762700  0.64693400  1
  H  H28  1  0.56107800  0.66246600  0.65188200  1
  H  H29  1  0.06107800  0.83753400  0.34811800  1
  H  H30  1  0.43892200  0.33753400  0.34811800  1
  H  H31  1  0.93892200  0.16246600  0.65188200  1
  O  O0  1  0.71439500  0.29798200  0.39175100  1
  O  O1  1  0.21439500  0.20201800  0.60824900  1
  O  O2  1  0.28560500  0.70201800  0.60824900  1
  O  O3  1  0.78560500  0.79798200  0.39175100  1
  O  O4  1  0.74761900  0.80616400  0.59858700  1
  O  O5  1  0.24761900  0.69383600  0.40141300  1
  O  O6  1  0.25238100  0.19383600  0.40141300  1
  O  O7  1  0.75238100  0.30616400  0.59858700  1
  O  O8  1  0.78061000  0.37052100  0.18861500  1
  O  O9  1  0.28061000  0.12947900  0.81138500  1
  O  O10  1  0.21939000  0.62947900  0.81138500  1
  O  O11  1  0.71939000  0.87052100  0.18861500  1
  O  O12  1  0.96473000  0.67540500  0.54339200  1
  O  O13  1  0.46473000  0.82459500  0.45660800  1
  O  O14  1  0.03527000  0.32459500  0.45660800  1
  O  O15  1  0.53527000  0.17540500  0.54339200  1
  O  O16  1  0.64770600  0.14971200  0.71786300  1
  O  O17  1  0.14770600  0.35028800  0.28213700  1
  O  O18  1  0.35229400  0.85028800  0.28213700  1
  O  O19  1  0.85229400  0.64971200  0.71786300  1
  O  O20  1  0.61925200  0.90730900  0.35463700  1
  O  O21  1  0.11925200  0.59269100  0.64536300  1
  O  O22  1  0.38074800  0.09269100  0.64536300  1
  O  O23  1  0.88074800  0.40730900  0.35463700  1
  O  O24  1  0.70943600  0.10477300  0.53022500  1
  O  O25  1  0.20943600  0.39522700  0.46977500  1
  O  O26  1  0.29056400  0.89522700  0.46977500  1
  O  O27  1  0.79056400  0.60477300  0.53022500  1
  O  O28  1  0.62361600  0.70761000  0.48531900  1
  O  O29  1  0.12361600  0.79239000  0.51468100  1
  O  O30  1  0.37638400  0.29239000  0.51468100  1
  O  O31  1  0.87638400  0.20761000  0.48531900  1
  O  O32  1  0.91459500  0.46447400  0.64997800  1
  O  O33  1  0.41459500  0.03552600  0.35002200  1
  O  O34  1  0.08540500  0.53552600  0.35002200  1
  O  O35  1  0.58540500  0.96447400  0.64997800  1
  O  O36  1  0.85010400  0.66312000  0.95764400  1
  O  O37  1  0.35010400  0.83688000  0.04235600  1
  O  O38  1  0.14989600  0.33688000  0.04235600  1
  O  O39  1  0.64989600  0.16312000  0.95764400  1
  O  O40  1  0.98157400  0.27453900  0.96423200  1
  O  O41  1  0.48157400  0.22546100  0.03576800  1
  O  O42  1  0.01842600  0.72546100  0.03576800  1
  O  O43  1  0.51842600  0.77453900  0.96423200  1
  O  O44  1  0.76680800  0.81608500  0.80034000  1
  O  O45  1  0.26680800  0.68391500  0.19966000  1
  O  O46  1  0.23319200  0.18391500  0.19966000  1
  O  O47  1  0.73319200  0.31608500  0.80034000  1
  O  O48  1  0.94350700  0.53102200  0.11738500  1
  O  O49  1  0.44350700  0.96897800  0.88261500  1
  O  O50  1  0.05649300  0.46897800  0.88261500  1
  O  O51  1  0.55649300  0.03102200  0.11738500  1
  O  O52  1  0.73369900  0.35890400  0.99264800  1
  O  O53  1  0.23369900  0.14109600  0.00735200  1
  O  O54  1  0.26630100  0.64109600  0.00735200  1
  O  O55  1  0.76630100  0.85890400  0.99264800  1
  O  O56  1  0.72229800  0.52259400  0.30738000  1
  O  O57  1  0.22229800  0.97740600  0.69262000  1
  O  O58  1  0.27770200  0.47740600  0.69262000  1
  O  O59  1  0.77770200  0.02259400  0.30738000  1
  O  O60  1  0.64363500  0.22728900  0.14912900  1
  O  O61  1  0.14363500  0.27271100  0.85087100  1
  O  O62  1  0.35636500  0.77271100  0.85087100  1
  O  O63  1  0.85636500  0.72728900  0.14912900  1
  O  O64  1  0.43304700  0.63313700  0.11902300  1
  O  O65  1  0.93304700  0.86686300  0.88097700  1
  O  O66  1  0.56695300  0.36686300  0.88097700  1
  O  O67  1  0.06695300  0.13313700  0.11902300  1
  O  O68  1  0.53187500  0.70368200  0.71458100  1
  O  O69  1  0.03187500  0.79631800  0.28541900  1
  O  O70  1  0.46812500  0.29631800  0.28541900  1
  O  O71  1  0.96812500  0.20368200  0.71458100  1
  O  O72  1  0.61370000  0.60406300  0.08155400  1
  O  O73  1  0.11370000  0.89593700  0.91844600  1
  O  O74  1  0.38630000  0.39593700  0.91844600  1
  O  O75  1  0.88630000  0.10406300  0.08155400  1
  O  O76  1  0.47814200  0.55394200  0.35098400  1
  O  O77  1  0.97814200  0.94605800  0.64901600  1
  O  O78  1  0.52185800  0.44605800  0.64901600  1
  O  O79  1  0.02185800  0.05394200  0.35098400  1
loop_
_geom_bond_atom_site_label_1
_geom_bond_atom_site_label_2
_geom_bond_distance
_geom_bond_site_symmetry_2
Na0 O7 2.314465 1_555
Na0 O78 2.338433 1_555
Na0 O27 2.374611 1_555
Na0 O56 2.416032 1_555
Na0 O0 2.511182 1_555
Na0 O28 2.543627 1_555
Na1 O6 2.314465 1_555
Na1 O79 2.338433 1_555
Na1 O26 2.374611 1_545
Na1 O57 2.416032 1_545
Na1 O1 2.511182 1_555
Na1 O29 2.543627 1_545
Na2 O5 2.314465 1_555
Na2 O76 2.338433 1_555
Na2 O25 2.374611 1_555
Na2 O58 2.416032 1_555
Na2 O2 2.511182 1_555
Na2 O30 2.543627 1_555
Na3 O4 2.314465 1_555
Na3 O77 2.338433 1_555
Na3 O24 2.374611 1_565
Na3 O59 2.416032 1_565
Na3 O3 2.511182 1_555
Na3 O31 2.543627 1_565
Ca0 O49 2.353219 1_555
Ca0 O16 2.389388 1_565
Ca0 O55 2.443599 1_555
Ca0 O39 2.467303 1_565
Ca0 O43 2.594686 1_555
Ca0 O44 2.600597 1_555
Ca0 O35 2.601246 1_555
Ca1 O48 2.353219 1_455
Ca1 O17 2.389388 1_555
Ca1 O54 2.443599 1_555
Ca1 O38 2.467303 1_555
Ca1 O42 2.594686 1_555
Ca1 O45 2.600597 1_555
Ca1 O34 2.601246 1_555
Ca2 O51 2.353219 1_555
Ca2 O18 2.389388 1_545
Ca2 O53 2.443599 1_555
Ca2 O37 2.467303 1_545
Ca2 O41 2.594686 1_555
Ca2 O46 2.600597 1_555
Ca2 O33 2.601246 1_555
Ca3 O50 2.353219 1_655
Ca3 O19 2.389388 1_555
Ca3 O52 2.443599 1_555
Ca3 O36 2.467303 1_555
Ca3 O40 2.594686 1_555
Ca3 O47 2.600597 1_555
Ca3 O32 2.601246 1_555
Ca4 O0 2.377299 1_555
Ca4 O60 2.399312 1_555
Ca4 O20 2.414554 1_545
Ca4 O70 2.429762 1_555
Ca4 O24 2.518899 1_555
Ca4 O15 2.541585 1_555
Ca4 O33 2.589168 1_555
Ca4 O59 2.609540 1_555
Ca5 O1 2.377299 1_555
Ca5 O61 2.399312 1_555
Ca5 O21 2.414554 1_555
Ca5 O71 2.429762 1_455
Ca5 O25 2.518899 1_555
Ca5 O14 2.541585 1_555
Ca5 O32 2.589168 1_455
Ca5 O58 2.609540 1_555
Ca6 O2 2.377299 1_555
Ca6 O62 2.399312 1_555
Ca6 O22 2.414554 1_565
Ca6 O68 2.429762 1_555
Ca6 O26 2.518899 1_555
Ca6 O13 2.541585 1_555
Ca6 O35 2.589168 1_555
Ca6 O57 2.609540 1_555
Ca7 O3 2.377299 1_555
Ca7 O63 2.399312 1_555
Ca7 O23 2.414554 1_555
Ca7 O69 2.429762 1_655
Ca7 O27 2.518899 1_555
Ca7 O12 2.541585 1_555
Ca7 O34 2.589168 1_655
Ca7 O56 2.609540 1_555
B0 O51 1.459845 1_555
B0 O39 1.465042 1_554
B0 O60 1.505057 1_555
B0 O41 1.511518 1_555
B1 O50 1.459845 1_555
B1 O38 1.465042 1_556
B1 O61 1.505057 1_555
B1 O40 1.511518 1_455
B2 O49 1.459845 1_555
B2 O37 1.465042 1_556
B2 O62 1.505057 1_555
B2 O43 1.511518 1_555
B3 O48 1.459845 1_555
B3 O36 1.465042 1_554
B3 O63 1.505057 1_555
B3 O42 1.511518 1_655
B4 O14 1.366524 1_655
B4 O23 1.376486 1_555
B4 O31 1.386067 1_555
B5 O15 1.366524 1_555
B5 O22 1.376486 1_555
B5 O30 1.386067 1_555
B6 O12 1.366524 1_455
B6 O21 1.376486 1_555
B6 O29 1.386067 1_555
B7 O13 1.366524 1_555
B7 O20 1.376486 1_555
B7 O28 1.386067 1_555
B8 O8 1.365666 1_555
B8 O60 1.382893 1_555
B8 O52 1.393971 1_554
B9 O9 1.365666 1_555
B9 O61 1.382893 1_555
B9 O53 1.393971 1_556
B10 O10 1.365666 1_555
B10 O62 1.382893 1_555
B10 O54 1.393971 1_556
B11 O11 1.365666 1_555
B11 O63 1.382893 1_555
B11 O55 1.393971 1_554
B12 O43 1.375144 1_554
B12 O64 1.377044 1_555
B12 O72 1.393106 1_555
B13 O42 1.375144 1_556
B13 O65 1.377044 1_455
B13 O73 1.393106 1_555
B14 O41 1.375144 1_556
B14 O66 1.377044 1_555
B14 O74 1.393106 1_555
B15 O40 1.375144 1_554
B15 O67 1.377044 1_655
B15 O75 1.393106 1_555
B16 O27 1.458976 1_555
B16 O3 1.474245 1_555
B16 O28 1.486560 1_555
B16 O4 1.529136 1_555
B17 O26 1.458976 1_555
B17 O2 1.474245 1_555
B17 O29 1.486560 1_555
B17 O5 1.529136 1_555
B18 O25 1.458976 1_555
B18 O1 1.474245 1_555
B18 O30 1.486560 1_555
B18 O6 1.529136 1_555
B19 O24 1.458976 1_555
B19 O0 1.474245 1_555
B19 O31 1.486560 1_555
B19 O7 1.529136 1_555
B20 O27 1.456139 1_555
B20 O32 1.480229 1_555
B20 O12 1.487485 1_555
B20 O19 1.502828 1_555
B21 O26 1.456139 1_555
B21 O33 1.480229 1_565
B21 O13 1.487485 1_555
B21 O18 1.502828 1_555
B22 O25 1.456139 1_555
B22 O34 1.480229 1_555
B22 O14 1.487485 1_555
B22 O17 1.502828 1_555
B23 O24 1.456139 1_555
B23 O35 1.480229 1_545
B23 O15 1.487485 1_555
B23 O16 1.502828 1_555
B24 O45 1.466618 1_555
B24 O37 1.469961 1_555
B24 O64 1.506421 1_555
B24 O54 1.512552 1_555
B25 O44 1.466618 1_555
B25 O36 1.469961 1_555
B25 O65 1.506421 1_555
B25 O55 1.512552 1_555
B26 O47 1.466618 1_555
B26 O39 1.469961 1_555
B26 O66 1.506421 1_555
B26 O52 1.512552 1_555
B27 O46 1.466618 1_555
B27 O38 1.469961 1_555
B27 O67 1.506421 1_555
B27 O53 1.512552 1_555
B28 O2 1.454446 1_555
B28 O10 1.491929 1_555
B28 O58 1.494763 1_555
B28 O21 1.495420 1_555
B29 O3 1.454446 1_555
B29 O11 1.491929 1_555
B29 O59 1.494763 1_565
B29 O20 1.495420 1_555
B30 O0 1.454446 1_555
B30 O8 1.491929 1_555
B30 O56 1.494763 1_555
B30 O23 1.495420 1_555
B31 O1 1.454446 1_555
B31 O9 1.491929 1_555
B31 O57 1.494763 1_545
B31 O22 1.495420 1_555
B32 O4 1.376630 1_555
B32 O19 1.377160 1_555
B32 O44 1.382646 1_555
B33 O5 1.376630 1_555
B33 O18 1.377160 1_555
B33 O45 1.382646 1_555
B34 O6 1.376630 1_555
B34 O17 1.377160 1_555
B34 O46 1.382646 1_555
B35 O7 1.376630 1_555
B35 O16 1.377160 1_555
B35 O47 1.382646 1_555
H0 O50 0.993951 1_555
H1 O51 0.993951 1_565
H2 O48 0.993951 1_555
H3 O49 0.993951 1_545
H4 O56 0.978820 1_555
H5 O57 0.978820 1_555
H6 O58 0.978820 1_555
H7 O59 0.978820 1_555
H8 O76 0.997294 1_555
H9 O77 0.997294 1_555
H10 O78 0.997294 1_555
H11 O79 0.997294 1_555
H12 O34 0.989705 1_555
H13 O35 0.989705 1_555
H14 O32 0.989705 1_555
H15 O33 0.989705 1_555
H16 O72 0.978389 1_555
H17 O73 0.978389 1_555
H18 O74 0.978389 1_555
H19 O75 0.978389 1_555
H20 O68 0.971954 1_555
H21 O69 0.971954 1_555
H22 O70 0.971954 1_555
H23 O71 0.971954 1_555
H24 O78 0.974734 1_555
H24 Na2 2.296956 1_555
H25 O79 0.974734 1_655
H25 Na3 2.296956 1_545
H26 O76 0.974734 1_555
H26 Na0 2.296956 1_555
H27 O77 0.974734 1_455
H27 Na1 2.296956 1_565
H28 O68 0.980809 1_555
H29 O69 0.980809 1_555
H30 O70 0.980809 1_555
H31 O71 0.980809 1_555
