# generated using pymatgen
data_TaFeO4
_symmetry_space_group_name_H-M   'P 1'
_cell_length_a   5.06975557
_cell_length_b   5.69965600
_cell_length_c   9.37114081
_cell_angle_alpha   89.99998385
_cell_angle_beta   89.92100018
_cell_angle_gamma   90.00000058
_symmetry_Int_Tables_number   1
_chemical_formula_structural   TaFeO4
_chemical_formula_sum   'Ta4 Fe4 O16'
_cell_volume   270.78694099
_cell_formula_units_Z   4
loop_
 _symmetry_equiv_pos_site_id
 _symmetry_equiv_pos_as_xyz
  1  'x, y, z'
loop_
 _atom_site_type_symbol
 _atom_site_label
 _atom_site_symmetry_multiplicity
 _atom_site_fract_x
 _atom_site_fract_y
 _atom_site_fract_z
 _atom_site_occupancy
  Ta  Ta0  1  0.75000000  0.82516300  0.00000000  1
  Ta  Ta1  1  0.75000000  0.82516200  0.50000000  1
  Ta  Ta2  1  0.25000000  0.17483800  0.00000000  1
  Ta  Ta3  1  0.25000000  0.17483700  0.50000000  1
  Fe  Fe0  1  0.74999900  0.33892700  0.75000000  1
  Fe  Fe1  1  0.25000000  0.66107300  0.75000000  1
  Fe  Fe2  1  0.74999900  0.33891200  0.25000000  1
  Fe  Fe3  1  0.25000100  0.66108800  0.25000000  1
  O  O0  1  0.91455200  0.61823600  0.13440800  1
  O  O1  1  0.91455200  0.61823500  0.63440600  1
  O  O2  1  0.41455200  0.38176400  0.13440800  1
  O  O3  1  0.41455200  0.38176500  0.63440600  1
  O  O4  1  0.58544800  0.61823600  0.36559200  1
  O  O5  1  0.58544800  0.61823500  0.86559400  1
  O  O6  1  0.08544800  0.38176400  0.36559200  1
  O  O7  1  0.08544800  0.38176500  0.86559400  1
  O  O8  1  0.42203500  0.88541900  0.11193000  1
  O  O9  1  0.42203600  0.88542100  0.61192800  1
  O  O10  1  0.92203500  0.11458100  0.11193000  1
  O  O11  1  0.92203600  0.11457900  0.61192800  1
  O  O12  1  0.07796500  0.88541900  0.38807000  1
  O  O13  1  0.07796400  0.88542100  0.88807200  1
  O  O14  1  0.57796500  0.11458100  0.38807000  1
  O  O15  1  0.57796400  0.11457900  0.88807200  1
loop_
_geom_bond_atom_site_label_1
_geom_bond_atom_site_label_2
_geom_bond_distance
_geom_bond_site_symmetry_2
Fe0 O15 2.016637 1_555
Fe0 O11 2.016642 1_555
Fe0 O3 2.032308 1_555
Fe0 O7 2.032317 1_655
Fe0 O5 2.097907 1_555
Fe0 O1 2.097911 1_555
Fe1 O9 2.016639 1_555
Fe1 O13 2.016639 1_555
Fe1 O5 2.032313 1_555
Fe1 O1 2.032313 1_455
Fe1 O7 2.097909 1_555
Fe1 O3 2.097909 1_555
Fe2 O14 2.016561 1_555
Fe2 O10 2.016566 1_555
Fe2 O2 2.032308 1_555
Fe2 O6 2.032317 1_655
Fe2 O4 2.097967 1_555
Fe2 O0 2.097970 1_555
Fe3 O8 2.016561 1_555
Fe3 O12 2.016566 1_555
Fe3 O4 2.032308 1_555
Fe3 O0 2.032317 1_455
Fe3 O2 2.097967 1_555
Fe3 O6 2.097970 1_555
O0 Ta0 1.917380 1_555
O1 Ta1 1.917368 1_555
O2 Ta2 1.917377 1_555
O3 Ta3 1.917372 1_555
O4 Ta1 1.917377 1_555
O5 Ta0 1.917372 1_556
O6 Ta3 1.917380 1_555
O7 Ta2 1.917368 1_556
O8 Ta0 1.994476 1_555
O8 Ta2 2.141161 1_565
O9 Ta1 1.994465 1_555
O9 Ta3 2.141141 1_565
O10 Ta2 1.994477 1_655
O10 Ta0 2.141157 1_545
O11 Ta3 1.994464 1_655
O11 Ta1 2.141146 1_545
O12 Ta1 1.994477 1_455
O12 Ta3 2.141157 1_565
O13 Ta0 1.994464 1_456
O13 Ta2 2.141146 1_566
O14 Ta3 1.994476 1_555
O14 Ta1 2.141161 1_545
O15 Ta2 1.994465 1_556
O15 Ta0 2.141141 1_546
