# generated using pymatgen
data_LiNbVO4
_symmetry_space_group_name_H-M   'P 1'
_cell_length_a   6.16688000
_cell_length_b   6.16676100
_cell_length_c   8.77074000
_cell_angle_alpha   89.99994600
_cell_angle_beta   89.99968527
_cell_angle_gamma   89.99955403
_symmetry_Int_Tables_number   1
_chemical_formula_structural   LiNbVO4
_chemical_formula_sum   'Li4 Nb4 V4 O16'
_cell_volume   333.54839237
_cell_formula_units_Z   4
loop_
 _symmetry_equiv_pos_site_id
 _symmetry_equiv_pos_as_xyz
  1  'x, y, z'
loop_
 _atom_site_type_symbol
 _atom_site_label
 _atom_site_symmetry_multiplicity
 _atom_site_fract_x
 _atom_site_fract_y
 _atom_site_fract_z
 _atom_site_occupancy
  Li  Li0  1  0.00000000  0.23044300  0.00000100  1
  Li  Li1  1  0.00000000  0.76955900  0.50000000  1
  Li  Li2  1  0.23045100  0.00000100  0.25000000  1
  Li  Li3  1  0.76954800  0.00000100  0.75000000  1
  Nb  Nb0  1  0.25311000  0.25312800  0.62500200  1
  Nb  Nb1  1  0.25310900  0.74687200  0.87499800  1
  Nb  Nb2  1  0.74689200  0.25312700  0.37499700  1
  Nb  Nb3  1  0.74688900  0.74687100  0.12500300  1
  V  V0  1  0.24210900  0.50000100  0.24999800  1
  V  V1  1  0.49999900  0.24211100  0.00000300  1
  V  V2  1  0.49999700  0.75788700  0.50000100  1
  V  V3  1  0.75789000  0.50000000  0.74999800  1
  O  O0  1  0.99834600  0.25361700  0.25415400  1
  O  O1  1  0.99834300  0.74638000  0.24584200  1
  O  O2  1  0.25362000  0.99832700  0.99584800  1
  O  O3  1  0.25362000  0.00167300  0.50415200  1
  O  O4  1  0.25588300  0.49818500  0.00412700  1
  O  O5  1  0.25588400  0.50181500  0.49587200  1
  O  O6  1  0.49820800  0.25588500  0.24586900  1
  O  O7  1  0.49820500  0.74411900  0.25413300  1
  O  O8  1  0.50179300  0.25588200  0.75413200  1
  O  O9  1  0.50179900  0.74412200  0.74587200  1
  O  O10  1  0.74411500  0.50181200  0.50412700  1
  O  O11  1  0.74411500  0.49818500  0.99587400  1
  O  O12  1  0.74638000  0.99832700  0.00415600  1
  O  O13  1  0.74638300  0.00167100  0.49584500  1
  O  O14  1  0.00165400  0.25362100  0.74584200  1
  O  O15  1  0.00165500  0.74637800  0.75415600  1
loop_
_geom_bond_atom_site_label_1
_geom_bond_atom_site_label_2
_geom_bond_distance
_geom_bond_site_symmetry_2
Li0 O2 2.120482 1_544
Li0 O12 2.120498 1_445
Li0 O0 2.233709 1_455
Li0 O14 2.233763 1_554
Li0 O11 2.284191 1_454
Li0 O4 2.284200 1_555
Li1 O13 2.120452 1_465
Li1 O3 2.120490 1_565
Li1 O15 2.233738 1_555
Li1 O1 2.233755 1_455
Li1 O5 2.284195 1_555
Li1 O10 2.284230 1_455
Li2 O0 2.120414 1_455
Li2 O1 2.120467 1_445
Li2 O2 2.233699 1_544
Li2 O3 2.233700 1_555
Li2 O7 2.284234 1_545
Li2 O6 2.284273 1_555
Li3 O14 2.120454 1_655
Li3 O15 2.120455 1_645
Li3 O13 2.233725 1_555
Li3 O12 2.233733 1_546
Li3 O9 2.284216 1_545
Li3 O8 2.284234 1_555
Nb0 O14 1.878285 1_555
Nb0 O3 1.878310 1_555
Nb0 O5 1.906542 1_555
Nb0 O8 1.906551 1_555
Nb1 O15 1.878294 1_555
Nb1 O2 1.878310 1_555
Nb1 O4 1.906537 1_556
Nb1 O9 1.906554 1_555
Nb2 O0 1.878289 1_555
Nb2 O13 1.878304 1_555
Nb2 O10 1.906534 1_555
Nb2 O6 1.906545 1_555
Nb3 O1 1.878279 1_555
Nb3 O12 1.878299 1_555
Nb3 O11 1.906534 1_554
Nb3 O7 1.906546 1_555
O0 V0 2.137685 1_655
O1 V0 2.137659 1_655
O2 V1 2.137754 1_566
O3 V2 2.137737 1_545
O4 V0 2.158171 1_555
O4 V1 2.182042 1_555
O5 V0 2.158199 1_555
O5 V2 2.182039 1_555
O6 V1 2.158127 1_555
O6 V0 2.182157 1_555
O7 V2 2.158144 1_555
O7 V0 2.182170 1_555
O8 V1 2.158170 1_556
O8 V3 2.182174 1_555
O9 V2 2.158169 1_555
O9 V3 2.182146 1_555
O10 V3 2.158173 1_555
O10 V2 2.182056 1_555
O11 V3 2.158216 1_555
O11 V1 2.182060 1_556
O12 V1 2.137746 1_565
O13 V2 2.137785 1_545
O14 V3 2.137650 1_455
O15 V3 2.137668 1_455
