# generated using pymatgen
data_Mn3Co(PO4)4
_symmetry_space_group_name_H-M   'P 1'
_cell_length_a   6.02442600
_cell_length_b   4.89583200
_cell_length_c   9.82057654
_cell_angle_alpha   89.77231164
_cell_angle_beta   90.00000000
_cell_angle_gamma   90.00000000
_symmetry_Int_Tables_number   1
_chemical_formula_structural   Mn3Co(PO4)4
_chemical_formula_sum   'Mn3 Co1 P4 O16'
_cell_volume   289.65146975
_cell_formula_units_Z   1
loop_
 _symmetry_equiv_pos_site_id
 _symmetry_equiv_pos_as_xyz
  1  'x, y, z'
loop_
 _atom_site_type_symbol
 _atom_site_label
 _atom_site_symmetry_multiplicity
 _atom_site_fract_x
 _atom_site_fract_y
 _atom_site_fract_z
 _atom_site_occupancy
  Mn  Mn0  1  0.00000000  0.43277100  0.78552600  1
  Mn  Mn1  1  0.50000000  0.55894100  0.22041600  1
  Mn  Mn2  1  0.50000000  0.93419900  0.71438200  1
  Co  Co0  1  0.00000000  0.03321600  0.27547000  1
  P  P0  1  0.50000000  0.08810700  0.39827100  1
  P  P1  1  0.50000000  0.41832300  0.90092800  1
  P  P2  1  0.00000000  0.58100900  0.09992800  1
  P  P3  1  0.00000000  0.91911200  0.59975800  1
  O  O0  1  0.50000000  0.14710500  0.55270000  1
  O  O1  1  0.29771400  0.22967800  0.32876900  1
  O  O2  1  0.70228600  0.22967800  0.32876900  1
  O  O3  1  0.00000000  0.23018900  0.61956800  1
  O  O4  1  0.00000000  0.27019800  0.12196500  1
  O  O5  1  0.30009500  0.27504100  0.82937300  1
  O  O6  1  0.69990500  0.27504100  0.82937300  1
  O  O7  1  0.50000000  0.35520700  0.05444900  1
  O  O8  1  0.00000000  0.64826100  0.94710800  1
  O  O9  1  0.80139500  0.72978900  0.17158300  1
  O  O10  1  0.19860500  0.72978900  0.17158300  1
  O  O11  1  0.50000000  0.73014600  0.88091400  1
  O  O12  1  0.50000000  0.77356800  0.38178100  1
  O  O13  1  0.80038700  0.77493800  0.67112700  1
  O  O14  1  0.19961300  0.77493800  0.67112700  1
  O  O15  1  0.00000000  0.86075700  0.44513400  1
loop_
_geom_bond_atom_site_label_1
_geom_bond_atom_site_label_2
_geom_bond_distance
_geom_bond_site_symmetry_2
Mn0 O8 1.909021 1_555
Mn0 O3 1.911227 1_555
Mn0 O6 2.011865 1_455
Mn0 O5 2.011865 1_555
Mn0 O14 2.345126 1_555
Mn0 O13 2.345126 1_455
Mn1 O12 1.904897 1_555
Mn1 O7 1.914254 1_555
Mn1 O9 2.055071 1_555
Mn1 O10 2.055071 1_555
Mn1 O2 2.280871 1_555
Mn1 O1 2.280871 1_555
Mn2 O0 1.895913 1_565
Mn2 O11 1.913034 1_555
Mn2 O13 2.016408 1_555
Mn2 O14 2.016408 1_555
Mn2 O6 2.350573 1_565
Mn2 O5 2.350573 1_565
Co0 O15 1.864921 1_545
Co0 O4 1.898631 1_555
Co0 O1 2.102371 1_555
Co0 O2 2.102371 1_455
Co0 O9 2.165935 1_445
Co0 O10 2.165935 1_545
O0 P0 1.544970 1_555
O1 P0 1.558088 1_555
O2 P0 1.558088 1_555
O3 P3 1.536123 1_545
O4 P2 1.536139 1_555
O5 P1 1.562105 1_555
O6 P1 1.562105 1_555
O7 P1 1.537802 1_554
O8 P2 1.535195 1_556
O9 P2 1.568883 1_655
O10 P2 1.568883 1_555
O11 P1 1.538459 1_555
O12 P0 1.549062 1_565
O13 P3 1.559381 1_655
O14 P3 1.559381 1_555
O15 P3 1.546254 1_555
