# generated using pymatgen
data_Na3CrPCO7
_symmetry_space_group_name_H-M   'P 1'
_cell_length_a   9.16289693
_cell_length_b   5.35637649
_cell_length_c   6.58074901
_cell_angle_alpha   90.00333072
_cell_angle_beta   90.00439897
_cell_angle_gamma   90.96763792
_symmetry_Int_Tables_number   1
_chemical_formula_structural   Na3CrPCO7
_chemical_formula_sum   'Na6 Cr2 P2 C2 O14'
_cell_volume   322.93661115
_cell_formula_units_Z   2
loop_
 _symmetry_equiv_pos_site_id
 _symmetry_equiv_pos_as_xyz
  1  'x, y, z'
loop_
 _atom_site_type_symbol
 _atom_site_label
 _atom_site_symmetry_multiplicity
 _atom_site_fract_x
 _atom_site_fract_y
 _atom_site_fract_z
 _atom_site_occupancy
  Na  Na0  1  0.00430200  0.00379700  0.48180100  1
  Na  Na1  1  0.17513000  0.44494400  0.20824700  1
  Na  Na2  1  0.48649300  0.49407100  0.49863900  1
  Na  Na3  1  0.51351500  0.50635500  0.99862400  1
  Na  Na4  1  0.82488900  0.55516100  0.70837100  1
  Na  Na5  1  0.99567200  0.99643600  0.98175700  1
  Cr  Cr0  1  0.29081400  0.03742200  0.73974000  1
  Cr  Cr1  1  0.70903900  0.96185400  0.23980000  1
  P  P0  1  0.35151600  0.98622200  0.23882900  1
  P  P1  1  0.64851000  0.01376600  0.73913600  1
  C  C0  1  0.13732200  0.50160600  0.73744200  1
  C  C1  1  0.86269500  0.49845400  0.23749900  1
  O  O0  1  0.03670900  0.32682100  0.73540200  1
  O  O1  1  0.09955300  0.73618800  0.73361400  1
  O  O2  1  0.25597100  0.06101600  0.05058500  1
  O  O3  1  0.26035000  0.07430600  0.42731800  1
  O  O4  1  0.27404100  0.44364000  0.74610900  1
  O  O5  1  0.37513300  0.70276700  0.24087500  1
  O  O6  1  0.49804900  0.13648200  0.23505400  1
  O  O7  1  0.50195100  0.86361700  0.73513800  1
  O  O8  1  0.62485000  0.29727300  0.74134500  1
  O  O9  1  0.72600600  0.55641000  0.24615000  1
  O  O10  1  0.73967000  0.92556600  0.92757200  1
  O  O11  1  0.74410200  0.93855300  0.55112700  1
  O  O12  1  0.90046000  0.26394000  0.23363600  1
  O  O13  1  0.96325700  0.67333100  0.23539000  1
loop_
_geom_bond_atom_site_label_1
_geom_bond_atom_site_label_2
_geom_bond_distance
_geom_bond_site_symmetry_2
Na0 O12 2.357717 1_455
Na0 O1 2.367438 1_545
Na0 O3 2.397037 1_555
Na0 O0 2.418535 1_555
Na0 O13 2.425134 1_445
Na0 O11 2.446763 1_445
Na1 O5 2.286073 1_555
Na1 O13 2.318964 1_455
Na1 O2 2.430129 1_555
Na1 O3 2.584946 1_555
Na1 O12 2.686952 1_455
Na2 O5 2.281802 1_555
Na2 O8 2.305298 1_555
Na2 O7 2.520026 1_555
Na2 O4 2.549005 1_555
Na2 O6 2.587505 1_555
Na2 O9 2.768499 1_555
Na3 O8 2.280376 1_555
Na3 O5 2.302438 1_556
Na3 O6 2.521279 1_556
Na3 O9 2.549115 1_556
Na3 O7 2.585913 1_555
Na3 O4 2.768310 1_555
Na4 O8 2.286796 1_555
Na4 O0 2.318348 1_655
Na4 O11 2.426407 1_555
Na4 O10 2.584394 1_555
Na4 O1 2.686853 1_655
Na5 O1 2.358090 1_655
Na5 O12 2.367240 1_566
Na5 O10 2.396546 1_555
Na5 O13 2.419168 1_556
Na5 O0 2.424737 1_665
Na5 O2 2.446514 1_666
Cr0 O2 2.074556 1_556
Cr0 O3 2.084655 1_555
Cr0 O7 2.161303 1_545
Cr0 O4 2.184265 1_555
Cr0 O1 2.362378 1_545
Cr1 O11 2.077864 1_555
Cr1 O10 2.083317 1_554
Cr1 O6 2.162068 1_565
Cr1 O9 2.180288 1_555
Cr1 O12 2.366522 1_565
C0 O4 1.296976 1_555
C0 O0 1.302856 1_555
C0 O1 1.309163 1_555
C1 O9 1.296698 1_555
C1 O13 1.302887 1_555
C1 O12 1.308804 1_555
O2 P0 1.572665 1_545
O3 P0 1.572386 1_545
O5 P0 1.537309 1_555
O6 P0 1.553918 1_545
O7 P1 1.553842 1_565
O8 P1 1.537655 1_555
O10 P1 1.572216 1_565
O11 P1 1.572353 1_565
