# generated using pymatgen
data_La4MnO8
_symmetry_space_group_name_H-M   'P 1'
_cell_length_a   6.90360561
_cell_length_b   11.61467643
_cell_length_c   10.81613001
_cell_angle_alpha   62.24980165
_cell_angle_beta   90.00354030
_cell_angle_gamma   76.51299470
_symmetry_Int_Tables_number   1
_chemical_formula_structural   La4MnO8
_chemical_formula_sum   'La16 Mn4 O32'
_cell_volume   740.38411111
_cell_formula_units_Z   4
loop_
 _symmetry_equiv_pos_site_id
 _symmetry_equiv_pos_as_xyz
  1  'x, y, z'
loop_
 _atom_site_type_symbol
 _atom_site_label
 _atom_site_symmetry_multiplicity
 _atom_site_fract_x
 _atom_site_fract_y
 _atom_site_fract_z
 _atom_site_occupancy
  La  La0  1  0.20241400  0.06737500  0.21629100  1
  La  La1  1  0.20240400  0.06738500  0.71630200  1
  La  La2  1  0.70240300  0.56738200  0.46630000  1
  La  La3  1  0.70240000  0.56738300  0.96629900  1
  La  La4  1  0.79759000  0.93261500  0.28369400  1
  La  La5  1  0.79759200  0.93261100  0.78370200  1
  La  La6  1  0.29759300  0.43260600  0.53370500  1
  La  La7  1  0.29760300  0.43260400  0.03370900  1
  La  La8  1  0.45027200  0.81674600  0.09158400  1
  La  La9  1  0.45028400  0.81674700  0.59158800  1
  La  La10  1  0.95029900  0.31678100  0.34157000  1
  La  La11  1  0.95030300  0.31677200  0.84157700  1
  La  La12  1  0.54968800  0.18322500  0.90841800  1
  La  La13  1  0.54970400  0.18323100  0.40842400  1
  La  La14  1  0.04971600  0.68325500  0.15841100  1
  La  La15  1  0.04972100  0.68325600  0.65839400  1
  Mn  Mn0  1  0.99996300  0.00001900  0.50002700  1
  Mn  Mn1  1  0.50004400  0.49993500  0.75006200  1
  Mn  Mn2  1  0.99998700  0.99998800  0.00001300  1
  Mn  Mn3  1  0.50005400  0.49996300  0.25003700  1
  O  O0  1  0.24362200  0.08110600  0.95935700  1
  O  O1  1  0.24362100  0.08110700  0.45935800  1
  O  O2  1  0.74367200  0.58109800  0.20937300  1
  O  O3  1  0.74367000  0.58109600  0.70937600  1
  O  O4  1  0.75633800  0.91896900  0.04059900  1
  O  O5  1  0.75634800  0.91891000  0.54063100  1
  O  O6  1  0.25637300  0.41889700  0.29063700  1
  O  O7  1  0.25637500  0.41889700  0.79063800  1
  O  O8  1  0.53363800  0.84452600  0.32781900  1
  O  O9  1  0.53363700  0.84452500  0.82782300  1
  O  O10  1  0.03364200  0.34453000  0.57781900  1
  O  O11  1  0.03364200  0.34452900  0.07782000  1
  O  O12  1  0.46634800  0.15547700  0.17217300  1
  O  O13  1  0.46634800  0.15547800  0.67217400  1
  O  O14  1  0.96635200  0.65548200  0.42217100  1
  O  O15  1  0.96635600  0.65548200  0.92217100  1
  O  O16  1  0.62477000  0.37528700  0.93165600  1
  O  O17  1  0.62477100  0.37528800  0.43165500  1
  O  O18  1  0.12475100  0.87529700  0.18163900  1
  O  O19  1  0.12474600  0.87529900  0.68164000  1
  O  O20  1  0.62461700  0.37537700  0.19314300  1
  O  O21  1  0.62461600  0.37537800  0.69314300  1
  O  O22  1  0.12459200  0.87539100  0.44314700  1
  O  O23  1  0.12459400  0.87538700  0.94314700  1
  O  O24  1  0.37540100  0.62461400  0.30684500  1
  O  O25  1  0.37540100  0.62461200  0.80684600  1
  O  O26  1  0.87537800  0.12462400  0.55685200  1
  O  O27  1  0.87538200  0.12462400  0.05685100  1
  O  O28  1  0.37525000  0.62470100  0.56835700  1
  O  O29  1  0.37526400  0.62471000  0.06834500  1
  O  O30  1  0.87522400  0.12471300  0.81833800  1
  O  O31  1  0.87522600  0.12471300  0.31833900  1
loop_
_geom_bond_atom_site_label_1
_geom_bond_atom_site_label_2
_geom_bond_distance
_geom_bond_site_symmetry_2
La0 O12 2.238286 1_555
La0 O18 2.596443 1_545
La0 O27 2.597069 1_455
La0 O22 2.597172 1_545
La0 O31 2.597507 1_455
La0 O1 2.725764 1_555
La0 O0 2.727254 1_554
La0 O8 2.777525 1_545
La0 O11 2.779138 1_555
La1 O13 2.238293 1_555
La1 O19 2.596579 1_545
La1 O26 2.597124 1_455
La1 O23 2.597150 1_545
La1 O30 2.597362 1_455
La1 O0 2.725576 1_555
La1 O1 2.727410 1_555
La1 O9 2.777631 1_545
La1 O10 2.779043 1_555
La2 O14 2.238369 1_555
La2 O17 2.596496 1_555
La2 O24 2.597040 1_555
La2 O21 2.597106 1_555
La2 O28 2.597308 1_555
La2 O3 2.725798 1_555
La2 O2 2.727297 1_555
La2 O10 2.777606 1_655
La2 O8 2.779037 1_555
La3 O15 2.238407 1_555
La3 O16 2.596501 1_555
La3 O25 2.597021 1_555
La3 O20 2.597111 1_556
La3 O29 2.597172 1_556
La3 O2 2.725787 1_556
La3 O3 2.727269 1_555
La3 O11 2.777631 1_656
La3 O9 2.779016 1_555
La4 O8 2.238318 1_555
La4 O31 2.596553 1_565
La4 O22 2.597052 1_655
La4 O27 2.597147 1_565
La4 O18 2.597338 1_655
La4 O4 2.725570 1_555
La4 O5 2.727432 1_555
La4 O12 2.777681 1_565
La4 O14 2.778930 1_555
La5 O9 2.238318 1_555
La5 O30 2.596534 1_565
La5 O23 2.597005 1_655
La5 O26 2.597193 1_565
La5 O19 2.597323 1_655
La5 O5 2.725646 1_555
La5 O4 2.727300 1_556
La5 O13 2.777721 1_565
La5 O15 2.778895 1_555
La6 O10 2.238229 1_555
La6 O28 2.596619 1_555
La6 O21 2.597069 1_555
La6 O24 2.597287 1_555
La6 O17 2.597404 1_555
La6 O6 2.725643 1_555
La6 O7 2.727352 1_555
La6 O14 2.777764 1_455
La6 O13 2.778876 1_555
La7 O11 2.238286 1_555
La7 O29 2.596660 1_555
La7 O20 2.596999 1_555
La7 O25 2.597276 1_554
La7 O16 2.597357 1_554
La7 O7 2.725670 1_554
La7 O6 2.727317 1_555
La7 O15 2.777802 1_454
La7 O12 2.778856 1_555
La8 O23 2.522618 1_554
La8 O18 2.523038 1_555
La8 O29 2.523286 1_555
La8 O24 2.523426 1_555
La8 O4 2.595950 1_555
La8 O0 2.715798 1_564
La8 O2 2.717257 1_555
La8 O9 2.793538 1_554
La8 O8 2.796122 1_555
La9 O22 2.522712 1_555
La9 O19 2.523121 1_555
La9 O28 2.523429 1_555
La9 O25 2.523461 1_555
La9 O5 2.595556 1_555
La9 O1 2.715822 1_565
La9 O3 2.717229 1_555
La9 O8 2.793604 1_555
La9 O9 2.796087 1_555
La10 O20 2.522708 1_555
La10 O17 2.523120 1_555
La10 O31 2.523790 1_555
La10 O26 2.523830 1_555
La10 O6 2.595320 1_655
La10 O2 2.715376 1_555
La10 O1 2.717168 1_655
La10 O11 2.793500 1_655
La10 O10 2.796020 1_655
La11 O21 2.522748 1_555
La11 O16 2.523138 1_555
La11 O27 2.523733 1_556
La11 O30 2.523749 1_555
La11 O7 2.595365 1_655
La11 O3 2.715448 1_555
La11 O0 2.717100 1_655
La11 O10 2.793541 1_655
La11 O11 2.796005 1_656
La12 O27 2.522796 1_556
La12 O30 2.523152 1_555
La12 O16 2.523786 1_555
La12 O21 2.523787 1_555
La12 O0 2.595288 1_555
La12 O4 2.714877 1_546
La12 O7 2.717122 1_555
La12 O12 2.793548 1_556
La12 O13 2.795949 1_555
La13 O26 2.522638 1_555
La13 O31 2.523117 1_555
La13 O17 2.523648 1_555
La13 O20 2.523737 1_555
La13 O1 2.595428 1_555
La13 O5 2.715442 1_545
La13 O6 2.717142 1_555
La13 O13 2.793503 1_555
La13 O12 2.796096 1_555
La14 O24 2.522641 1_555
La14 O29 2.523236 1_555
La14 O18 2.523370 1_555
La14 O23 2.523462 1_554
La14 O2 2.595390 1_455
La14 O6 2.715793 1_555
La14 O4 2.717651 1_455
La14 O14 2.793548 1_455
La14 O15 2.796117 1_454
La15 O25 2.522704 1_555
La15 O28 2.522995 1_555
La15 O22 2.523366 1_555
La15 O19 2.523453 1_555
La15 O3 2.595454 1_455
La15 O7 2.715797 1_555
La15 O5 2.717204 1_455
La15 O15 2.793724 1_455
La15 O14 2.795960 1_455
Mn0 O26 1.860063 1_555
Mn0 O22 1.860781 1_645
Mn0 O19 1.861995 1_645
Mn0 O31 1.862414 1_555
Mn0 O5 2.064633 1_545
Mn0 O1 2.064773 1_655
Mn1 O21 1.860283 1_555
Mn1 O25 1.860558 1_555
Mn1 O16 1.861593 1_555
Mn1 O28 1.862802 1_555
Mn1 O7 2.064525 1_555
Mn1 O3 2.065034 1_555
Mn2 O23 1.860375 1_654
Mn2 O27 1.860496 1_565
Mn2 O18 1.861996 1_655
Mn2 O30 1.862431 1_564
Mn2 O4 2.064277 1_555
Mn2 O0 2.064818 1_664
Mn3 O20 1.860356 1_555
Mn3 O24 1.860508 1_555
Mn3 O17 1.861811 1_555
Mn3 O29 1.862657 1_555
Mn3 O6 2.064779 1_555
Mn3 O2 2.064818 1_555
