# generated using pymatgen
data_KReC3SN3O
_symmetry_space_group_name_H-M   'P 1'
_cell_length_a   12.45404293
_cell_length_b   12.45404293
_cell_length_c   12.45404293
_cell_angle_alpha   107.83358703
_cell_angle_beta   107.83358703
_cell_angle_gamma   112.79860929
_symmetry_Int_Tables_number   1
_chemical_formula_structural   KReC3SN3O
_chemical_formula_sum   'K8 Re8 C24 S8 N24 O8'
_cell_volume   1483.20915411
_cell_formula_units_Z   8
loop_
 _symmetry_equiv_pos_site_id
 _symmetry_equiv_pos_as_xyz
  1  'x, y, z'
loop_
 _atom_site_type_symbol
 _atom_site_label
 _atom_site_symmetry_multiplicity
 _atom_site_fract_x
 _atom_site_fract_y
 _atom_site_fract_z
 _atom_site_occupancy
  K  K0  1  0.93595700  0.79798600  0.36981000  1
  K  K1  1  0.42817700  0.06614800  0.13019000  1
  K  K2  1  0.56614800  0.43595700  0.13797100  1
  K  K3  1  0.29798600  0.92817700  0.36202900  1
  K  K4  1  0.06404300  0.20201400  0.63019000  1
  K  K5  1  0.57182300  0.93385200  0.86981000  1
  K  K6  1  0.43385200  0.56404300  0.86202900  1
  K  K7  1  0.70201400  0.07182300  0.63797100  1
  Re  Re0  1  0.85484900  0.72451700  0.68674400  1
  Re  Re1  1  0.03777300  0.66810500  0.81325600  1
  Re  Re2  1  0.16810500  0.35484900  0.13033200  1
  Re  Re3  1  0.22451700  0.53777300  0.36966800  1
  Re  Re4  1  0.14515100  0.27548300  0.31325600  1
  Re  Re5  1  0.96222700  0.33189500  0.18674400  1
  Re  Re6  1  0.83189500  0.64515100  0.86966800  1
  Re  Re7  1  0.77548300  0.46222700  0.63033200  1
  C  C0  1  0.73552100  0.67790700  0.49906400  1
  C  C1  1  0.17884200  0.73645700  0.00093600  1
  C  C2  1  0.23645700  0.23552100  0.05761500  1
  C  C3  1  0.17790700  0.67884200  0.44238500  1
  C  C4  1  0.26447900  0.32209300  0.50093600  1
  C  C5  1  0.82115800  0.26354300  0.99906400  1
  C  C6  1  0.76354300  0.76447900  0.94238500  1
  C  C7  1  0.82209300  0.32115800  0.55761500  1
  C  C8  1  0.78679900  0.85289400  0.73125400  1
  C  C9  1  0.12164100  0.55554500  0.76874600  1
  C  C10  1  0.05554500  0.28679900  0.93390500  1
  C  C11  1  0.35289400  0.62164100  0.56609500  1
  C  C12  1  0.21320100  0.14710600  0.26874600  1
  C  C13  1  0.87835900  0.44445500  0.23125400  1
  C  C14  1  0.94445500  0.71320100  0.06609500  1
  C  C15  1  0.64710600  0.37835900  0.43390500  1
  C  C16  1  0.98722700  0.88120200  0.67396000  1
  C  C17  1  0.20724200  0.81326800  0.82604000  1
  C  C18  1  0.31326800  0.48722700  0.10602600  1
  C  C19  1  0.38120200  0.70724200  0.39397400  1
  C  C20  1  0.01277300  0.11879800  0.32604000  1
  C  C21  1  0.79275800  0.18673200  0.17396000  1
  C  C22  1  0.68673200  0.51277300  0.89397400  1
  C  C23  1  0.61879800  0.29275800  0.60602600  1
  S  S0  1  0.01020200  0.84551800  0.91013500  1
  S  S1  1  0.93538300  0.60006700  0.58986500  1
  S  S2  1  0.10006700  0.51020200  0.16468500  1
  S  S3  1  0.34551800  0.43538300  0.33531500  1
  S  S4  1  0.98979800  0.15448200  0.08986500  1
  S  S5  1  0.06461700  0.39993300  0.41013500  1
  S  S6  1  0.89993300  0.48979800  0.83531500  1
  S  S7  1  0.65448200  0.56461700  0.66468500  1
  N  N0  1  0.67342900  0.65562800  0.39406600  1
  N  N1  1  0.26156200  0.77936400  0.10593400  1
  N  N2  1  0.27936400  0.17342900  0.01780100  1
  N  N3  1  0.15562800  0.76156200  0.48219900  1
  N  N4  1  0.32657100  0.34437200  0.60593400  1
  N  N5  1  0.73843800  0.22063600  0.89406600  1
  N  N6  1  0.72063600  0.82657100  0.98219900  1
  N  N7  1  0.84437200  0.23843800  0.51780100  1
  N  N8  1  0.74590700  0.92257500  0.75399300  1
  N  N9  1  0.16858200  0.49191400  0.74600700  1
  N  N10  1  0.99191400  0.24590700  0.82333200  1
  N  N11  1  0.42257500  0.66858200  0.67666800  1
  N  N12  1  0.25409300  0.07742500  0.24600700  1
  N  N13  1  0.83141800  0.50808600  0.25399300  1
  N  N14  1  0.00808600  0.75409300  0.17666800  1
  N  N15  1  0.57742500  0.33141800  0.32333200  1
  N  N16  1  0.05385100  0.96660300  0.65937700  1
  N  N17  1  0.30722600  0.89447400  0.84062300  1
  N  N18  1  0.39447400  0.55385100  0.08724800  1
  N  N19  1  0.46660300  0.80722600  0.41275200  1
  N  N20  1  0.94614900  0.03339700  0.34062300  1
  N  N21  1  0.69277400  0.10552600  0.15937700  1
  N  N22  1  0.60552600  0.44614900  0.91275200  1
  N  N23  1  0.53339700  0.19277400  0.58724800  1
  O  O0  1  0.68914500  0.73113300  0.18080900  1
  O  O1  1  0.55032400  0.00833600  0.31919100  1
  O  O2  1  0.50833600  0.18914500  0.95801200  1
  O  O3  1  0.23113300  0.05032400  0.54198800  1
  O  O4  1  0.31085500  0.26886700  0.81919100  1
  O  O5  1  0.44967600  0.99166400  0.68080900  1
  O  O6  1  0.49166400  0.81085500  0.04198800  1
  O  O7  1  0.76886700  0.94967600  0.45801200  1
loop_
_geom_bond_atom_site_label_1
_geom_bond_atom_site_label_2
_geom_bond_distance
_geom_bond_site_symmetry_2
K0 N14 2.791121 1_655
K0 O0 2.840184 1_555
K0 N3 2.941889 1_655
K0 N13 2.971180 1_555
K0 N20 3.022650 1_565
K0 N16 3.049531 1_655
K0 O3 3.174767 1_665
K0 N0 3.219483 1_555
K1 N15 2.791114 1_555
K1 O1 2.840188 1_555
K1 N2 2.941878 1_555
K1 N12 2.971189 1_555
K1 N21 3.022641 1_555
K1 N17 3.049531 1_544
K1 O2 3.174756 1_554
K1 N1 3.219485 1_545
K2 N13 2.791110 1_555
K2 O2 2.840179 1_554
K2 N0 2.941892 1_555
K2 N15 2.971180 1_555
K2 N22 3.022644 1_554
K2 N18 3.049541 1_555
K2 O0 3.174767 1_555
K2 N2 3.219483 1_555
K3 N12 2.791110 1_565
K3 O3 2.840179 1_565
K3 N1 2.941889 1_555
K3 N14 2.971180 1_555
K3 N23 3.022644 1_565
K3 N19 3.049541 1_555
K3 O1 3.174767 1_565
K3 N3 3.219490 1_555
K4 N10 2.791121 1_455
K4 O4 2.840184 1_555
K4 N7 2.941889 1_455
K4 N9 2.971180 1_555
K4 N16 3.022650 1_545
K4 N20 3.049531 1_455
K4 O7 3.174767 1_445
K4 N4 3.219483 1_555
K5 N11 2.791114 1_555
K5 O5 2.840188 1_555
K5 N6 2.941878 1_555
K5 N8 2.971189 1_555
K5 N17 3.022641 1_555
K5 N21 3.049531 1_566
K5 O6 3.174756 1_556
K5 N5 3.219485 1_565
K6 N9 2.791110 1_555
K6 O6 2.840179 1_556
K6 N4 2.941892 1_555
K6 N11 2.971180 1_555
K6 N18 3.022644 1_556
K6 N22 3.049541 1_555
K6 O4 3.174767 1_555
K6 N6 3.219483 1_555
K7 N8 2.791110 1_545
K7 O7 2.840179 1_545
K7 N5 2.941889 1_555
K7 N10 2.971180 1_555
K7 N19 3.022644 1_545
K7 N23 3.049541 1_555
K7 O5 3.174767 1_545
K7 N7 3.219490 1_555
Re0 S0 2.372753 1_655
Re0 S7 2.379483 1_555
Re0 S1 2.380006 1_555
Re1 S1 2.372753 1_455
Re1 S6 2.379469 1_455
Re1 S0 2.380006 1_555
Re2 S2 2.372754 1_555
Re2 S4 2.379477 1_455
Re2 S3 2.379998 1_555
Re3 S3 2.372756 1_555
Re3 S5 2.379477 1_555
Re3 S2 2.379996 1_555
Re4 S4 2.372753 1_455
Re4 S3 2.379483 1_555
Re4 S5 2.380006 1_555
Re5 S5 2.372753 1_655
Re5 S2 2.379469 1_655
Re5 S4 2.380006 1_555
Re6 S6 2.372754 1_555
Re6 S0 2.379477 1_655
Re6 S7 2.379998 1_555
Re7 S7 2.372756 1_555
Re7 S1 2.379477 1_555
Re7 S6 2.379996 1_555
C0 N0 1.173473 1_555
C0 Re0 2.093229 1_555
C1 N1 1.173474 1_555
C1 Re1 2.093224 1_554
C2 N2 1.173488 1_555
C2 Re2 2.093224 1_555
C3 N3 1.173486 1_555
C3 Re3 2.093215 1_555
C4 N4 1.173473 1_555
C4 Re4 2.093229 1_555
C5 N5 1.173474 1_555
C5 Re5 2.093224 1_556
C6 N6 1.173488 1_555
C6 Re6 2.093224 1_555
C7 N7 1.173486 1_555
C7 Re7 2.093215 1_555
C8 N8 1.171735 1_555
C8 Re0 2.092066 1_555
C9 N9 1.171725 1_555
C9 Re1 2.092076 1_555
C10 N10 1.171735 1_455
C10 Re2 2.092066 1_556
C11 N11 1.171737 1_555
C11 Re3 2.092064 1_555
C12 N12 1.171735 1_555
C12 Re4 2.092066 1_555
C13 N13 1.171725 1_555
C13 Re5 2.092076 1_555
C14 N14 1.171735 1_655
C14 Re6 2.092066 1_554
C15 N15 1.171737 1_555
C15 Re7 2.092064 1_555
C16 N16 1.174462 1_655
C16 Re0 2.099772 1_555
C17 N17 1.174457 1_555
C17 Re1 2.099777 1_555
C18 N18 1.174462 1_555
C18 Re2 2.099771 1_555
C19 N19 1.174457 1_555
C19 Re3 2.099777 1_555
C20 N20 1.174462 1_455
C20 Re4 2.099772 1_555
C21 N21 1.174457 1_555
C21 Re5 2.099777 1_555
C22 N22 1.174462 1_555
C22 Re6 2.099771 1_555
C23 N23 1.174457 1_555
C23 Re7 2.099777 1_555
