# generated using pymatgen
data_Dy2SiO5
_symmetry_space_group_name_H-M   'P 1'
_cell_length_a   6.90346100
_cell_length_b   6.75312700
_cell_length_c   9.14042683
_cell_angle_alpha   74.13203998
_cell_angle_beta   90.00000000
_cell_angle_gamma   90.00000000
_symmetry_Int_Tables_number   1
_chemical_formula_structural   Dy2SiO5
_chemical_formula_sum   'Dy8 Si4 O20'
_cell_volume   409.88841798
_cell_formula_units_Z   4
loop_
 _symmetry_equiv_pos_site_id
 _symmetry_equiv_pos_as_xyz
  1  'x, y, z'
loop_
 _atom_site_type_symbol
 _atom_site_label
 _atom_site_symmetry_multiplicity
 _atom_site_fract_x
 _atom_site_fract_y
 _atom_site_fract_z
 _atom_site_occupancy
  Dy  Dy0  1  0.36001600  0.44300300  0.87395100  1
  Dy  Dy1  1  0.13998400  0.94300300  0.87395100  1
  Dy  Dy2  1  0.12430500  0.76880200  0.52927700  1
  Dy  Dy3  1  0.62430500  0.73119800  0.47072300  1
  Dy  Dy4  1  0.37569500  0.26880200  0.52927700  1
  Dy  Dy5  1  0.87569500  0.23119800  0.47072300  1
  Dy  Dy6  1  0.86001600  0.05699700  0.12604900  1
  Dy  Dy7  1  0.63998400  0.55699700  0.12604900  1
  Si  Si0  1  0.91040100  0.47511200  0.79925600  1
  Si  Si1  1  0.58959900  0.97511200  0.79925600  1
  Si  Si2  1  0.41040100  0.02488800  0.20074400  1
  Si  Si3  1  0.08959900  0.52488800  0.20074400  1
  O  O0  1  0.05003300  0.27582000  0.87224800  1
  O  O1  1  0.71675500  0.48033800  0.89639100  1
  O  O2  1  0.44996700  0.77582000  0.87224800  1
  O  O3  1  0.07203000  0.66221600  0.79243400  1
  O  O4  1  0.78324500  0.98033800  0.89639100  1
  O  O5  1  0.86362100  0.51389000  0.61461400  1
  O  O6  1  0.38082800  0.56100400  0.61353900  1
  O  O7  1  0.42797000  0.16221600  0.79243400  1
  O  O8  1  0.63637900  0.01389000  0.61461400  1
  O  O9  1  0.11917200  0.06100400  0.61353900  1
  O  O10  1  0.88082800  0.93899600  0.38646100  1
  O  O11  1  0.36362100  0.98611000  0.38538600  1
  O  O12  1  0.57203000  0.83778400  0.20756600  1
  O  O13  1  0.61917200  0.43899600  0.38646100  1
  O  O14  1  0.13637900  0.48611000  0.38538600  1
  O  O15  1  0.21675500  0.01966200  0.10360900  1
  O  O16  1  0.92797000  0.33778400  0.20756600  1
  O  O17  1  0.55003300  0.22418000  0.12775200  1
  O  O18  1  0.28324500  0.51966200  0.10360900  1
  O  O19  1  0.94996700  0.72418000  0.12775200  1
loop_
_geom_bond_atom_site_label_1
_geom_bond_atom_site_label_2
_geom_bond_distance
_geom_bond_site_symmetry_2
Dy0 O7 2.267905 1_555
Dy0 O6 2.298723 1_555
Dy0 O2 2.327708 1_555
Dy0 O18 2.355774 1_556
Dy0 O0 2.421554 1_555
Dy0 O3 2.469016 1_555
Dy0 O1 2.489774 1_555
Dy0 O17 2.722411 1_556
Dy1 O3 2.267905 1_555
Dy1 O9 2.298723 1_565
Dy1 O0 2.327708 1_565
Dy1 O15 2.355774 1_566
Dy1 O2 2.421554 1_555
Dy1 O7 2.469016 1_565
Dy1 O4 2.489774 1_455
Dy1 O19 2.722411 1_456
Dy2 O10 2.242722 1_455
Dy2 O6 2.259968 1_555
Dy2 O9 2.306375 1_565
Dy2 O3 2.342507 1_555
Dy2 O11 2.357413 1_555
Dy2 O5 2.464992 1_455
Dy2 O14 2.598901 1_555
Dy3 O6 2.242722 1_555
Dy3 O10 2.259968 1_555
Dy3 O13 2.306375 1_555
Dy3 O12 2.342507 1_555
Dy3 O5 2.357413 1_555
Dy3 O11 2.464992 1_555
Dy3 O8 2.598901 1_565
Dy4 O13 2.242722 1_555
Dy4 O9 2.259968 1_555
Dy4 O6 2.306375 1_555
Dy4 O7 2.342507 1_555
Dy4 O14 2.357413 1_555
Dy4 O8 2.464992 1_555
Dy4 O11 2.598901 1_545
Dy5 O9 2.242722 1_655
Dy5 O13 2.259968 1_555
Dy5 O10 2.306375 1_545
Dy5 O16 2.342507 1_555
Dy5 O8 2.357413 1_555
Dy5 O14 2.464992 1_655
Dy5 O5 2.598901 1_555
Dy6 O16 2.267905 1_555
Dy6 O10 2.298723 1_545
Dy6 O19 2.327708 1_545
Dy6 O4 2.355774 1_544
Dy6 O17 2.421554 1_555
Dy6 O12 2.469016 1_545
Dy6 O15 2.489774 1_655
Dy6 O0 2.722411 1_654
Dy7 O12 2.267905 1_555
Dy7 O13 2.298723 1_555
Dy7 O17 2.327708 1_555
Dy7 O1 2.355774 1_554
Dy7 O19 2.421554 1_555
Dy7 O16 2.469016 1_555
Dy7 O18 2.489774 1_555
Dy7 O2 2.722411 1_554
O0 Si0 1.641521 1_455
O1 Si0 1.610520 1_555
O2 Si1 1.641521 1_555
O3 Si0 1.674018 1_455
O4 Si1 1.610520 1_555
O5 Si0 1.667195 1_555
O7 Si1 1.674018 1_545
O8 Si1 1.667195 1_545
O11 Si2 1.667195 1_565
O12 Si2 1.674018 1_565
O14 Si3 1.667195 1_555
O15 Si2 1.610520 1_555
O16 Si3 1.674018 1_655
O17 Si2 1.641521 1_555
O18 Si3 1.610520 1_555
O19 Si3 1.641521 1_655
