# generated using pymatgen
data_Li2MnSnO4
_symmetry_space_group_name_H-M   'P 1'
_cell_length_a   6.18422776
_cell_length_b   10.43728586
_cell_length_c   6.18422620
_cell_angle_alpha   97.58075956
_cell_angle_beta   118.87501855
_cell_angle_gamma   82.41908322
_symmetry_Int_Tables_number   1
_chemical_formula_structural   Li2MnSnO4
_chemical_formula_sum   'Li8 Mn4 Sn4 O16'
_cell_volume   345.41686993
_cell_formula_units_Z   4
loop_
 _symmetry_equiv_pos_site_id
 _symmetry_equiv_pos_as_xyz
  1  'x, y, z'
loop_
 _atom_site_type_symbol
 _atom_site_label
 _atom_site_symmetry_multiplicity
 _atom_site_fract_x
 _atom_site_fract_y
 _atom_site_fract_z
 _atom_site_occupancy
  Li  Li0  1  0.24999900  0.50000500  0.74999700  1
  Li  Li1  1  0.75000300  0.50000500  0.25000200  1
  Li  Li2  1  0.49999700  0.99999800  0.49999800  1
  Li  Li3  1  0.00000200  0.99999800  0.00000400  1
  Li  Li4  1  0.37499800  0.75000100  0.12500300  1
  Li  Li5  1  0.87500200  0.75000100  0.62499800  1
  Li  Li6  1  0.62500000  0.25000100  0.87500000  1
  Li  Li7  1  0.12500000  0.25000100  0.37500000  1
  Mn  Mn0  1  0.99997400  0.99999000  0.50000700  1
  Mn  Mn1  1  0.24999900  0.49999200  0.24995900  1
  Mn  Mn2  1  0.50002100  0.99998600  0.00002000  1
  Mn  Mn3  1  0.75000500  0.50001000  0.74999500  1
  Sn  Sn0  1  0.87500500  0.75000000  0.12500700  1
  Sn  Sn1  1  0.37499700  0.75000100  0.62499600  1
  Sn  Sn2  1  0.12500400  0.24999900  0.87500800  1
  Sn  Sn3  1  0.62500600  0.24999900  0.37500300  1
  O  O0  1  0.79926200  0.13154100  0.20075900  1
  O  O1  1  0.29924100  0.13154100  0.70073900  1
  O  O2  1  0.04925900  0.63153900  0.95076500  1
  O  O3  1  0.54923600  0.63153700  0.45073800  1
  O  O4  1  0.20073700  0.86846300  0.79923800  1
  O  O5  1  0.70076200  0.86846400  0.29926100  1
  O  O6  1  0.45073800  0.36846000  0.54924300  1
  O  O7  1  0.95075500  0.36845900  0.04926000  1
  O  O8  1  0.68721500  0.86647600  0.81278700  1
  O  O9  1  0.18720800  0.86648300  0.31278900  1
  O  O10  1  0.93721100  0.36647500  0.56278800  1
  O  O11  1  0.43720900  0.36647800  0.06279200  1
  O  O12  1  0.31278800  0.13352700  0.18721300  1
  O  O13  1  0.81279200  0.13352400  0.68721100  1
  O  O14  1  0.56278700  0.63352700  0.93721300  1
  O  O15  1  0.06278900  0.63351800  0.43720900  1
loop_
_geom_bond_atom_site_label_1
_geom_bond_atom_site_label_2
_geom_bond_distance
_geom_bond_site_symmetry_2
Li0 O15 2.268612 1_555
Li0 O14 2.268680 1_555
Li0 O10 2.268735 1_455
Li0 O11 2.268738 1_556
Li0 O6 2.357238 1_555
Li0 O2 2.357252 1_555
Li1 O15 2.268609 1_655
Li1 O14 2.268679 1_554
Li1 O10 2.268720 1_555
Li1 O11 2.268740 1_555
Li1 O3 2.357221 1_555
Li1 O7 2.357247 1_555
Li2 O9 2.268636 1_555
Li2 O8 2.268679 1_555
Li2 O12 2.268709 1_565
Li2 O13 2.268737 1_565
Li2 O5 2.357226 1_555
Li2 O1 2.357246 1_565
Li3 O9 2.268613 1_555
Li3 O8 2.268676 1_454
Li3 O12 2.268719 1_565
Li3 O13 2.268723 1_464
Li3 O4 2.357226 1_554
Li3 O0 2.357237 1_465
Li4 O14 2.175503 1_554
Li4 O9 2.175524 1_555
Li4 O3 2.226436 1_555
Li4 O2 2.226446 1_554
Li4 O4 2.226557 1_554
Li4 O5 2.226565 1_555
Li5 O8 2.175494 1_555
Li5 O15 2.175529 1_655
Li5 O4 2.226428 1_655
Li5 O5 2.226438 1_555
Li5 O2 2.226567 1_655
Li5 O3 2.226580 1_555
Li6 O13 2.175525 1_555
Li6 O11 2.175533 1_556
Li6 O7 2.226491 1_556
Li6 O6 2.226501 1_555
Li6 O0 2.226517 1_556
Li6 O1 2.226522 1_555
Li7 O12 2.175485 1_555
Li7 O10 2.175494 1_455
Li7 O7 2.226419 1_455
Li7 O6 2.226422 1_555
Li7 O1 2.226428 1_555
Li7 O0 2.226429 1_455
Mn0 O5 2.202643 1_555
Mn0 O4 2.202729 1_655
Mn0 O0 2.202938 1_565
Mn0 O1 2.203030 1_665
Mn0 O13 2.250703 1_565
Mn0 O9 2.250845 1_655
Mn1 O2 2.202707 1_554
Mn1 O7 2.202798 1_455
Mn1 O3 2.202890 1_555
Mn1 O6 2.202965 1_555
Mn1 O11 2.250564 1_555
Mn1 O15 2.250974 1_555
Mn2 O5 2.202724 1_555
Mn2 O4 2.202929 1_554
Mn2 O0 2.202956 1_565
Mn2 O1 2.203130 1_564
Mn2 O8 2.250754 1_554
Mn2 O12 2.250907 1_565
Mn3 O3 2.202836 1_555
Mn3 O2 2.202844 1_655
Mn3 O7 2.203024 1_556
Mn3 O6 2.203032 1_555
Mn3 O10 2.250822 1_555
Mn3 O14 2.250828 1_555
O0 Sn3 2.066284 1_555
O1 Sn2 2.066310 1_555
O2 Sn0 2.066282 1_456
O3 Sn1 2.066300 1_555
O4 Sn1 2.066312 1_555
O5 Sn0 2.066300 1_555
O6 Sn3 2.066333 1_555
O7 Sn2 2.066298 1_654
O8 Sn1 2.153104 1_555
O8 Sn0 2.153114 1_556
O9 Sn0 2.153087 1_455
O9 Sn1 2.153095 1_555
O10 Sn3 2.153052 1_555
O10 Sn2 2.153115 1_655
O11 Sn2 2.153071 1_554
O11 Sn3 2.153095 1_555
O12 Sn2 2.153021 1_554
O12 Sn3 2.153085 1_555
O13 Sn3 2.153054 1_555
O13 Sn2 2.153079 1_655
O14 Sn1 2.153088 1_555
O14 Sn0 2.153092 1_556
O15 Sn0 2.153072 1_455
O15 Sn1 2.153110 1_555
