# generated using pymatgen
data_Mg2(TeO3)3
_symmetry_space_group_name_H-M   'P 1'
_cell_length_a   7.16377493
_cell_length_b   9.15462134
_cell_length_c   12.57029809
_cell_angle_alpha   56.99900186
_cell_angle_beta   90.00000000
_cell_angle_gamma   90.00000000
_symmetry_Int_Tables_number   1
_chemical_formula_structural   Mg2(TeO3)3
_chemical_formula_sum   'Mg8 Te12 O36'
_cell_volume   691.37613411
_cell_formula_units_Z   4
loop_
 _symmetry_equiv_pos_site_id
 _symmetry_equiv_pos_as_xyz
  1  'x, y, z'
loop_
 _atom_site_type_symbol
 _atom_site_label
 _atom_site_symmetry_multiplicity
 _atom_site_fract_x
 _atom_site_fract_y
 _atom_site_fract_z
 _atom_site_occupancy
  Mg  Mg0  1  0.87148645  0.61131958  0.85843312  1
  Mg  Mg1  1  0.37917070  0.60166831  0.86374503  1
  Mg  Mg2  1  0.87917070  0.39833169  0.63625497  1
  Mg  Mg3  1  0.37148645  0.38868042  0.64156688  1
  Mg  Mg4  1  0.62851355  0.61131958  0.35843312  1
  Mg  Mg5  1  0.12082930  0.60166831  0.36374503  1
  Mg  Mg6  1  0.62082930  0.39833169  0.13625497  1
  Mg  Mg7  1  0.12851355  0.38868042  0.14156688  1
  Te  Te0  1  0.12825905  0.99495875  0.75177986  1
  Te  Te1  1  0.10764224  0.77628939  0.55914798  1
  Te  Te2  1  0.61457031  0.75954166  0.57279380  1
  Te  Te3  1  0.37174095  0.99495875  0.25177986  1
  Te  Te4  1  0.11457031  0.24045834  0.92720620  1
  Te  Te5  1  0.60764224  0.22371061  0.94085202  1
  Te  Te6  1  0.39235776  0.77628939  0.05914798  1
  Te  Te7  1  0.88542969  0.75954166  0.07279380  1
  Te  Te8  1  0.62825905  0.00504125  0.74822014  1
  Te  Te9  1  0.38542969  0.24045834  0.42720620  1
  Te  Te10  1  0.89235776  0.22371061  0.44085202  1
  Te  Te11  1  0.87174095  0.00504125  0.24822014  1
  O  O0  1  0.56694282  0.93092485  0.92415677  1
  O  O1  1  0.19595130  0.91476618  0.92343725  1
  O  O2  1  0.87740726  0.96258987  0.81139861  1
  O  O3  1  0.61544950  0.77193250  0.79809540  1
  O  O4  1  0.13273033  0.76221289  0.79726228  1
  O  O5  1  0.93305718  0.93092485  0.42415677  1
  O  O6  1  0.30404870  0.91476618  0.42343725  1
  O  O7  1  0.62259274  0.96258987  0.31139861  1
  O  O8  1  0.84616379  0.69058545  0.66644222  1
  O  O9  1  0.42561640  0.62501673  0.68915812  1
  O  O10  1  0.14143650  0.41571884  0.96431706  1
  O  O11  1  0.60876199  0.41566624  0.95823483  1
  O  O12  1  0.10876199  0.58433376  0.54176517  1
  O  O13  1  0.64143650  0.58428116  0.53568294  1
  O  O14  1  0.88455050  0.77193250  0.29809540  1
  O  O15  1  0.92561640  0.37498327  0.81084188  1
  O  O16  1  0.36726967  0.76221289  0.29726228  1
  O  O17  1  0.34616379  0.30941455  0.83355778  1
  O  O18  1  0.65383621  0.69058545  0.16644222  1
  O  O19  1  0.63273033  0.23778711  0.70273772  1
  O  O20  1  0.07438360  0.62501673  0.18915812  1
  O  O21  1  0.11544950  0.22806750  0.70190460  1
  O  O22  1  0.35856350  0.41571884  0.46431706  1
  O  O23  1  0.89123801  0.41566624  0.45823483  1
  O  O24  1  0.39123801  0.58433376  0.04176517  1
  O  O25  1  0.85856350  0.58428116  0.03568294  1
  O  O26  1  0.57438360  0.37498327  0.31084188  1
  O  O27  1  0.15383621  0.30941455  0.33355778  1
  O  O28  1  0.37740726  0.03741013  0.68860139  1
  O  O29  1  0.69595130  0.08523382  0.57656275  1
  O  O30  1  0.06694282  0.06907515  0.57584323  1
  O  O31  1  0.86726967  0.23778711  0.20273772  1
  O  O32  1  0.38455050  0.22806750  0.20190460  1
  O  O33  1  0.12259274  0.03741013  0.18860139  1
  O  O34  1  0.80404870  0.08523382  0.07656275  1
  O  O35  1  0.43305718  0.06907515  0.07584323  1
loop_
_geom_bond_atom_site_label_1
_geom_bond_atom_site_label_2
_geom_bond_distance
_geom_bond_site_symmetry_2
Mg0 O25 2.105571 1_556
Mg0 O8 2.115708 1_555
Mg0 O4 2.201110 1_655
Mg0 O3 2.210577 1_555
Mg0 O11 2.424169 1_555
Mg0 O10 2.474186 1_655
Mg0 O15 2.568892 1_555
Mg1 O9 2.112279 1_555
Mg1 O3 2.138798 1_555
Mg1 O4 2.153447 1_555
Mg1 O24 2.157180 1_556
Mg1 O11 2.193692 1_555
Mg1 O10 2.247722 1_555
Mg2 O15 2.112279 1_555
Mg2 O21 2.138798 1_655
Mg2 O19 2.153447 1_555
Mg2 O23 2.157180 1_555
Mg2 O12 2.193692 1_655
Mg2 O13 2.247722 1_555
Mg3 O22 2.105571 1_555
Mg3 O17 2.115708 1_555
Mg3 O19 2.201110 1_555
Mg3 O21 2.210577 1_555
Mg3 O12 2.424169 1_555
Mg3 O13 2.474186 1_555
Mg3 O9 2.568892 1_555
Mg4 O13 2.105571 1_555
Mg4 O18 2.115708 1_555
Mg4 O16 2.201110 1_555
Mg4 O14 2.210577 1_555
Mg4 O23 2.424169 1_555
Mg4 O22 2.474186 1_555
Mg4 O26 2.568892 1_555
Mg5 O20 2.112279 1_555
Mg5 O14 2.138798 1_455
Mg5 O16 2.153447 1_555
Mg5 O12 2.157180 1_555
Mg5 O23 2.193692 1_455
Mg5 O22 2.247722 1_555
Mg6 O26 2.112279 1_555
Mg6 O32 2.138798 1_555
Mg6 O31 2.153447 1_555
Mg6 O11 2.157180 1_554
Mg6 O24 2.193692 1_555
Mg6 O25 2.247722 1_555
Mg7 O10 2.105571 1_554
Mg7 O27 2.115708 1_555
Mg7 O31 2.201110 1_455
Mg7 O32 2.210577 1_555
Mg7 O24 2.424169 1_555
Mg7 O25 2.474186 1_455
Mg7 O20 2.568892 1_555
O0 Te6 1.957280 1_556
O0 Te8 1.977322 1_565
O1 Te0 1.924727 1_555
O1 Te6 2.034991 1_556
O2 Te8 1.905571 1_565
O2 Te0 1.907070 1_655
O3 Te8 1.870329 1_565
O4 Te0 1.881704 1_555
O5 Te1 1.957280 1_655
O5 Te11 1.977322 1_565
O6 Te3 1.924727 1_555
O6 Te1 2.034991 1_555
O7 Te11 1.905571 1_565
O7 Te3 1.907070 1_555
O8 Te2 1.930633 1_555
O8 Te1 2.188769 1_655
O9 Te2 1.877836 1_555
O10 Te4 1.908980 1_555
O11 Te5 1.885237 1_555
O12 Te1 1.885237 1_555
O13 Te2 1.908980 1_555
O14 Te11 1.870329 1_565
O15 Te4 1.877836 1_655
O16 Te3 1.881704 1_555
O17 Te4 1.930633 1_555
O17 Te5 2.188769 1_555
O18 Te7 1.930633 1_555
O18 Te6 2.188769 1_555
O19 Te8 1.881704 1_555
O20 Te7 1.877836 1_455
O21 Te0 1.870329 1_545
O22 Te9 1.908980 1_555
O23 Te10 1.885237 1_555
O24 Te6 1.885237 1_555
O25 Te7 1.908980 1_555
O26 Te9 1.877836 1_555
O27 Te9 1.930633 1_555
O27 Te10 2.188769 1_455
O28 Te0 1.905571 1_545
O28 Te8 1.907070 1_555
O29 Te8 1.924727 1_555
O29 Te10 2.034991 1_555
O30 Te10 1.957280 1_455
O30 Te0 1.977322 1_545
O31 Te11 1.881704 1_555
O32 Te3 1.870329 1_545
O33 Te3 1.905571 1_545
O33 Te11 1.907070 1_455
O34 Te11 1.924727 1_555
O34 Te5 2.034991 1_554
O35 Te5 1.957280 1_554
O35 Te3 1.977322 1_545
