# generated using pymatgen
data_P3(WO6)2
_symmetry_space_group_name_H-M   'P 1'
_cell_length_a   8.88722700
_cell_length_b   8.78609000
_cell_length_c   15.06869322
_cell_angle_alpha   54.72865308
_cell_angle_beta   90.00000000
_cell_angle_gamma   90.00000000
_symmetry_Int_Tables_number   1
_chemical_formula_structural   P3(WO6)2
_chemical_formula_sum   'P12 W8 O48'
_cell_volume   960.62655641
_cell_formula_units_Z   4
loop_
 _symmetry_equiv_pos_site_id
 _symmetry_equiv_pos_as_xyz
  1  'x, y, z'
loop_
 _atom_site_type_symbol
 _atom_site_label
 _atom_site_symmetry_multiplicity
 _atom_site_fract_x
 _atom_site_fract_y
 _atom_site_fract_z
 _atom_site_occupancy
  P  P0  1  0.24710500  0.46451200  0.00457100  1
  P  P1  1  0.38701700  0.74703000  0.64649500  1
  P  P2  1  0.11168100  0.03566900  0.35548500  1
  P  P3  1  0.88701700  0.25297000  0.85350500  1
  P  P4  1  0.61168100  0.96433100  0.14451500  1
  P  P5  1  0.74710500  0.53548800  0.49542900  1
  P  P6  1  0.25289500  0.46451200  0.50457100  1
  P  P7  1  0.38831900  0.03566900  0.85548500  1
  P  P8  1  0.11298300  0.74703000  0.14649500  1
  P  P9  1  0.88831900  0.96433100  0.64451500  1
  P  P10  1  0.61298300  0.25297000  0.35350500  1
  P  P11  1  0.75289500  0.53548800  0.99542900  1
  W  W0  1  0.03260200  0.63264000  0.61643200  1
  W  W1  1  0.53260200  0.36736000  0.88356800  1
  W  W2  1  0.96605000  0.13328200  0.11610800  1
  W  W3  1  0.46605000  0.86671800  0.38389200  1
  W  W4  1  0.53395000  0.13328200  0.61610800  1
  W  W5  1  0.03395000  0.86671800  0.88389200  1
  W  W6  1  0.46739800  0.63264000  0.11643200  1
  W  W7  1  0.96739800  0.36736000  0.38356800  1
  O  O0  1  0.86088800  0.36763000  0.06753200  1
  O  O1  1  0.89103600  0.80469600  0.63054500  1
  O  O2  1  0.67920200  0.52135700  0.90811500  1
  O  O3  1  0.57641700  0.09371200  0.33974200  1
  O  O4  1  0.35442700  0.46106000  0.92842500  1
  O  O5  1  0.21940100  0.71202600  0.66499200  1
  O  O6  1  0.43636900  0.81451500  0.53081200  1
  O  O7  1  0.00378500  0.07915200  0.26289200  1
  O  O8  1  0.15086100  0.28436500  0.06555600  1
  O  O9  1  0.27658600  0.01575900  0.32750900  1
  O  O10  1  0.48472800  0.57681500  0.72670600  1
  O  O11  1  0.06301300  0.84905300  0.45784600  1
  O  O12  1  0.98472800  0.42318500  0.77329400  1
  O  O13  1  0.56301300  0.15094700  0.04215400  1
  O  O14  1  0.77658600  0.98424100  0.17249100  1
  O  O15  1  0.65086100  0.71563500  0.43444400  1
  O  O16  1  0.93636900  0.18548500  0.96918800  1
  O  O17  1  0.50378500  0.92084800  0.23710800  1
  O  O18  1  0.71940100  0.28797400  0.83500800  1
  O  O19  1  0.85442700  0.53894000  0.57157500  1
  O  O20  1  0.17920200  0.47864300  0.59188500  1
  O  O21  1  0.39103600  0.19530400  0.86945500  1
  O  O22  1  0.07641700  0.90628800  0.16025800  1
  O  O23  1  0.36088800  0.63237000  0.43246800  1
  O  O24  1  0.63911200  0.36763000  0.56753200  1
  O  O25  1  0.92358300  0.09371200  0.83974200  1
  O  O26  1  0.60896400  0.80469600  0.13054500  1
  O  O27  1  0.82079800  0.52135700  0.40811500  1
  O  O28  1  0.14557300  0.46106000  0.42842500  1
  O  O29  1  0.28059900  0.71202600  0.16499200  1
  O  O30  1  0.49621500  0.07915200  0.76289200  1
  O  O31  1  0.06363100  0.81451500  0.03081200  1
  O  O32  1  0.34913900  0.28436500  0.56555600  1
  O  O33  1  0.22341400  0.01575900  0.82750900  1
  O  O34  1  0.43698700  0.84905300  0.95784600  1
  O  O35  1  0.01527200  0.57681500  0.22670600  1
  O  O36  1  0.93698700  0.15094700  0.54215400  1
  O  O37  1  0.51527200  0.42318500  0.27329400  1
  O  O38  1  0.72341400  0.98424100  0.67249100  1
  O  O39  1  0.84913900  0.71563500  0.93444400  1
  O  O40  1  0.99621500  0.92084800  0.73710800  1
  O  O41  1  0.56363100  0.18548500  0.46918800  1
  O  O42  1  0.78059900  0.28797400  0.33500800  1
  O  O43  1  0.64557300  0.53894000  0.07157500  1
  O  O44  1  0.42358300  0.90628800  0.66025800  1
  O  O45  1  0.32079800  0.47864300  0.09188500  1
  O  O46  1  0.10896400  0.19530400  0.36945500  1
  O  O47  1  0.13911200  0.63237000  0.93246800  1
loop_
_geom_bond_atom_site_label_1
_geom_bond_atom_site_label_2
_geom_bond_distance
_geom_bond_site_symmetry_2
O0 P11 1.557595 1_554
O0 W2 1.976907 1_555
O1 P9 1.533976 1_555
O1 W0 2.069935 1_655
O2 P11 1.537559 1_555
O2 W1 2.059848 1_555
O3 P10 1.562586 1_555
O3 W3 1.962120 1_545
O4 P0 1.505792 1_556
O4 W1 2.069957 1_555
O5 P1 1.514036 1_555
O5 W0 2.089829 1_555
O6 P1 1.545627 1_555
O6 W3 2.002138 1_555
O7 P2 1.548082 1_555
O7 W2 2.004003 1_455
O8 P0 1.549675 1_555
O8 W2 1.967790 1_455
O9 P2 1.562470 1_555
O9 W3 1.996728 1_545
O10 P1 1.537522 1_555
O10 W1 2.032509 1_555
O11 P2 1.527681 1_565
O11 W0 2.037502 1_555
O12 P3 1.537522 1_555
O12 W0 2.032509 1_655
O13 P4 1.527681 1_545
O13 W1 2.037502 1_554
O14 P4 1.562470 1_555
O14 W2 1.996728 1_565
O15 P5 1.549675 1_555
O15 W3 1.967790 1_555
O16 P3 1.545627 1_555
O16 W2 2.002138 1_556
O17 P4 1.548082 1_555
O17 W3 2.004003 1_555
O18 P3 1.514036 1_555
O18 W1 2.089829 1_555
O19 P5 1.505792 1_555
O19 W0 2.069957 1_655
O20 P6 1.537559 1_555
O20 W0 2.059848 1_555
O21 P7 1.533976 1_555
O21 W1 2.069935 1_555
O22 P8 1.562586 1_555
O22 W2 1.962120 1_465
O23 P6 1.557595 1_555
O23 W3 1.976907 1_555
O24 P5 1.557595 1_555
O24 W4 1.976907 1_555
O25 P3 1.562586 1_555
O25 W5 1.962120 1_645
O26 P4 1.533976 1_555
O26 W6 2.069935 1_555
O27 P5 1.537559 1_555
O27 W7 2.059848 1_555
O28 P6 1.505792 1_555
O28 W7 2.069957 1_455
O29 P8 1.514036 1_555
O29 W6 2.089829 1_555
O30 P7 1.548082 1_555
O30 W4 2.004003 1_555
O31 P8 1.545627 1_555
O31 W5 2.002138 1_554
O32 P6 1.549675 1_555
O32 W4 1.967790 1_555
O33 P7 1.562470 1_555
O33 W5 1.996728 1_545
O34 P7 1.527681 1_565
O34 W6 2.037502 1_556
O35 P8 1.537522 1_555
O35 W7 2.032509 1_455
O36 P9 1.527681 1_545
O36 W7 2.037502 1_555
O37 P10 1.537522 1_555
O37 W6 2.032509 1_555
O38 P9 1.562470 1_555
O38 W4 1.996728 1_565
O39 P11 1.549675 1_555
O39 W5 1.967790 1_655
O40 P9 1.548082 1_555
O40 W5 2.004003 1_655
O41 P10 1.545627 1_555
O41 W4 2.002138 1_555
O42 P10 1.514036 1_555
O42 W7 2.089829 1_555
O43 P11 1.505792 1_554
O43 W6 2.069957 1_555
O44 P1 1.562586 1_555
O44 W4 1.962120 1_565
O45 P0 1.537559 1_555
O45 W6 2.059848 1_555
O46 P2 1.533976 1_555
O46 W7 2.069935 1_455
O47 P0 1.557595 1_556
O47 W5 1.976907 1_555
