# generated using pymatgen
data_ZrSiRu
_symmetry_space_group_name_H-M   'P 1'
_cell_length_a   6.68679911
_cell_length_b   6.68679781
_cell_length_c   3.69115488
_cell_angle_alpha   90.00000000
_cell_angle_beta   90.00000000
_cell_angle_gamma   119.99999632
_symmetry_Int_Tables_number   1
_chemical_formula_structural   ZrSiRu
_chemical_formula_sum   'Zr3 Si3 Ru3'
_cell_volume   142.93197133
_cell_formula_units_Z   3
loop_
 _symmetry_equiv_pos_site_id
 _symmetry_equiv_pos_as_xyz
  1  'x, y, z'
loop_
 _atom_site_type_symbol
 _atom_site_label
 _atom_site_symmetry_multiplicity
 _atom_site_fract_x
 _atom_site_fract_y
 _atom_site_fract_z
 _atom_site_occupancy
  Zr  Zr0  1  0.41506068  0.41506068  0.50000000  1
  Zr  Zr1  1  0.58493932  -0.00000000  0.50000000  1
  Zr  Zr2  1  0.00000000  0.58493932  0.50000000  1
  Si  Si0  1  -0.00000000  -0.00000000  0.50000000  1
  Si  Si1  1  0.66666700  0.33333300  0.00000000  1
  Si  Si2  1  0.33333300  0.66666700  -0.00000000  1
  Ru  Ru0  1  -0.00000000  0.24428527  0.00000000  1
  Ru  Ru1  1  0.24428527  0.00000000  0.00000000  1
  Ru  Ru2  1  0.75571473  0.75571473  -0.00000000  1
loop_
_geom_bond_atom_site_label_1
_geom_bond_atom_site_label_2
_geom_bond_distance
_geom_bond_site_symmetry_2
Si0 Zr2 2.775427 1_545
Si0 Zr0 2.775427 1_555
Si0 Zr1 2.775427 1_455
Si1 Zr1 2.730356 1_554
Si1 Zr1 2.730356 1_555
Si1 Zr2 2.730357 1_655
Si1 Zr2 2.730357 1_654
Si1 Zr0 2.730361 1_555
Si1 Zr0 2.730361 1_554
Si2 Zr2 2.730356 1_554
Si2 Zr2 2.730356 1_555
Si2 Zr1 2.730357 1_565
Si2 Zr1 2.730357 1_564
Si2 Zr0 2.730361 1_555
Si2 Zr0 2.730361 1_554
Ru0 Si0 2.464637 1_554
Ru0 Si0 2.464637 1_555
Ru0 Si1 2.578738 1_455
Ru0 Si2 2.578742 1_555
Ru0 Zr2 2.931709 1_554
Ru0 Zr2 2.931709 1_555
Ru0 Zr1 3.040363 1_455
Ru0 Zr1 3.040363 1_454
Ru0 Zr0 3.040363 1_555
Ru0 Zr0 3.040363 1_554
Ru1 Si0 2.464637 1_554
Ru1 Si0 2.464637 1_555
Ru1 Si2 2.578738 1_545
Ru1 Si1 2.578743 1_555
Ru1 Zr1 2.931709 1_554
Ru1 Zr1 2.931709 1_555
Ru1 Zr0 3.040363 1_555
Ru1 Zr0 3.040363 1_554
Ru1 Zr2 3.040363 1_544
Ru1 Zr2 3.040363 1_545
Ru2 Si0 2.464637 1_665
Ru2 Si0 2.464637 1_664
Ru2 Si1 2.578744 1_555
Ru2 Si2 2.578745 1_555
Ru2 Zr0 2.931709 1_555
Ru2 Zr0 2.931709 1_554
Ru2 Zr1 3.040363 1_565
Ru2 Zr1 3.040363 1_564
Ru2 Zr2 3.040363 1_655
Ru2 Zr2 3.040363 1_654
