# generated using pymatgen
data_Li4V3P8O29
_symmetry_space_group_name_H-M   'P 1'
_cell_length_a   9.74768000
_cell_length_b   9.76209470
_cell_length_c   14.12131042
_cell_angle_alpha   89.95872635
_cell_angle_beta   90.43614206
_cell_angle_gamma   119.72131712
_symmetry_Int_Tables_number   1
_chemical_formula_structural   Li4V3P8O29
_chemical_formula_sum   'Li8 V6 P16 O58'
_cell_volume   1166.93694653
_cell_formula_units_Z   2
loop_
 _symmetry_equiv_pos_site_id
 _symmetry_equiv_pos_as_xyz
  1  'x, y, z'
loop_
 _atom_site_type_symbol
 _atom_site_label
 _atom_site_symmetry_multiplicity
 _atom_site_fract_x
 _atom_site_fract_y
 _atom_site_fract_z
 _atom_site_occupancy
  Li  Li0  1  0.90584500  0.67831800  0.05526000  1
  Li  Li1  1  0.77626500  0.08395900  0.05779200  1
  Li  Li2  1  0.32011300  0.22878400  0.06191400  1
  Li  Li3  1  0.67242700  0.90644200  0.44469400  1
  Li  Li4  1  0.32965300  0.09491100  0.55859200  1
  Li  Li5  1  0.22430200  0.90639200  0.93945700  1
  Li  Li6  1  0.09126600  0.32277900  0.93817300  1
  Li  Li7  1  0.99953400  0.99685300  0.50675100  1
  V  V0  1  0.56865700  0.00062400  0.24818100  1
  V  V1  1  0.43317900  0.99906800  0.75200100  1
  V  V2  1  0.56967600  0.56710400  0.74920200  1
  V  V3  1  0.43467700  0.43942000  0.25479600  1
  V  V4  1  0.00056400  0.56432600  0.25954700  1
  V  V5  1  0.99660600  0.43421100  0.73760700  1
  P  P0  1  0.91282100  0.68077000  0.83991500  1
  P  P1  1  0.77661600  0.69525800  0.34147500  1
  P  P2  1  0.91795800  0.22053700  0.34288400  1
  P  P3  1  0.66858000  0.33648100  0.13270100  1
  P  P4  1  0.65974500  0.33270500  0.62819900  1
  P  P5  1  0.77504900  0.09370700  0.83939600  1
  P  P6  1  0.68691600  0.91188700  0.65925600  1
  P  P7  1  0.32018700  0.23397500  0.84580900  1
  P  P8  1  0.68400000  0.76797300  0.15480200  1
  P  P9  1  0.31596000  0.08915200  0.34169200  1
  P  P10  1  0.22660300  0.90759700  0.16112300  1
  P  P11  1  0.33720500  0.66947900  0.37141700  1
  P  P12  1  0.32746400  0.65944900  0.86691100  1
  P  P13  1  0.08365200  0.78124000  0.65677200  1
  P  P14  1  0.22485000  0.30623200  0.66084100  1
  P  P15  1  0.08732300  0.31955600  0.15832100  1
  O  O0  1  0.00305500  0.80099500  0.57370000  1
  O  O1  1  0.91355100  0.65720100  0.33594400  1
  O  O2  1  0.76503900  0.75608800  0.06994100  1
  O  O3  1  0.74453200  0.65741700  0.83561200  1
  O  O4  1  0.90698900  0.52305900  0.81828400  1
  O  O5  1  0.81775500  0.48353200  0.17846900  1
  O  O6  1  0.91739900  0.38111400  0.33034200  1
  O  O7  1  0.00193700  0.24609600  0.06719400  1
  O  O8  1  0.92082500  0.26221900  0.83304400  1
  O  O9  1  0.66829800  0.48180600  0.67747800  1
  O  O10  1  0.61757100  0.53648300  0.33000400  1
  O  O11  1  0.81019900  0.32917300  0.67223800  1
  O  O12  1  0.67110300  0.34425700  0.02738700  1
  O  O13  1  0.66661300  0.34191800  0.52367600  1
  O  O14  1  0.67169300  0.18547700  0.16919900  1
  O  O15  1  0.47962900  0.38101300  0.82493600  1
  O  O16  1  0.51805500  0.33466800  0.17439700  1
  O  O17  1  0.74353700  0.08341200  0.33632400  1
  O  O18  1  0.79627200  0.00323600  0.75020700  1
  O  O19  1  0.77355300  0.98072800  0.56977800  1
  O  O20  1  0.76949900  0.01671000  0.93068400  1
  O  O21  1  0.62072000  0.10007100  0.81950700  1
  O  O22  1  0.50872700  0.18621000  0.66617400  1
  O  O23  1  0.66215600  0.91504800  0.15666700  1
  O  O24  1  0.47154900  0.08930300  0.32802600  1
  O  O25  1  0.34504900  0.26044800  0.32741700  1
  O  O26  1  0.79437400  0.79383200  0.24730200  1
  O  O27  1  0.78757800  0.79299300  0.42473700  1
  O  O28  1  0.20573400  0.19732600  0.58178400  1
  O  O29  1  0.65708500  0.74039800  0.67149800  1
  O  O30  1  0.53073800  0.91137200  0.67120000  1
  O  O31  1  0.33551200  0.08334600  0.84402200  1
  O  O32  1  0.48960100  0.81380400  0.33343600  1
  O  O33  1  0.37928700  0.89916400  0.17906300  1
  O  O34  1  0.23852900  0.99638400  0.07158400  1
  O  O35  1  0.23201800  0.02234400  0.43173100  1
  O  O36  1  0.20430800  0.99584600  0.25117800  1
  O  O37  1  0.25892200  0.91622400  0.66441900  1
  O  O38  1  0.47170000  0.65628900  0.81936900  1
  O  O39  1  0.52380000  0.61802300  0.17694200  1
  O  O40  1  0.32838000  0.81374400  0.83286400  1
  O  O41  1  0.32388700  0.64665200  0.97187900  1
  O  O42  1  0.33073000  0.65851100  0.47569600  1
  O  O43  1  0.18805400  0.67172000  0.32585800  1
  O  O44  1  0.38420100  0.46065400  0.66869200  1
  O  O45  1  0.33018100  0.51837700  0.32276600  1
  O  O46  1  0.07944400  0.74095100  0.16185700  1
  O  O47  1  0.00803600  0.79850900  0.75498600  1
  O  O48  1  0.99875100  0.75381700  0.93095500  1
  O  O49  1  0.08118800  0.61976400  0.66704700  1
  O  O50  1  0.17786200  0.51404000  0.82125100  1
  O  O51  1  0.09406900  0.47780200  0.18023500  1
  O  O52  1  0.25526500  0.33957500  0.16026900  1
  O  O53  1  0.24595400  0.24699900  0.93592900  1
  O  O54  1  0.20209100  0.21327900  0.75993300  1
  O  O55  1  0.08770400  0.34517100  0.66265600  1
  O  O56  1  0.00170000  0.20697300  0.42629100  1
  O  O57  1  0.99390300  0.20370100  0.24435300  1
loop_
_geom_bond_atom_site_label_1
_geom_bond_atom_site_label_2
_geom_bond_distance
_geom_bond_site_symmetry_2
Li0 O2 1.881754 1_555
Li0 O48 1.950669 1_554
Li0 O46 2.107098 1_655
Li0 O5 2.404001 1_555
Li1 O20 1.901071 1_554
Li1 O7 1.976190 1_655
Li1 O23 2.026663 1_545
Li1 O14 2.350427 1_555
Li2 O53 1.956194 1_554
Li2 O34 2.002586 1_545
Li2 O52 2.047390 1_555
Li2 O16 2.300538 1_555
Li3 O27 1.950328 1_555
Li3 O19 1.970812 1_555
Li3 O17 2.152186 1_565
Li3 O32 2.196262 1_555
Li4 O28 1.941616 1_555
Li4 O35 1.980967 1_555
Li4 O22 2.137343 1_555
Li4 O37 2.137951 1_545
Li5 O48 1.953427 1_455
Li5 O31 2.034078 1_565
Li5 O34 2.037122 1_556
Li5 O40 2.246781 1_555
Li6 O53 1.982092 1_555
Li6 O7 2.003479 1_556
Li6 O8 2.074483 1_455
Li6 O50 2.319212 1_555
Li7 O0 2.147703 1_655
Li7 O28 2.250070 1_665
Li7 O19 2.314093 1_555
Li7 O56 2.335151 1_665
Li7 O27 2.336741 1_555
Li7 O35 2.407650 1_665
O0 P13 1.471875 1_555
O1 P1 1.555364 1_555
O1 V4 1.866318 1_655
O2 P8 1.476143 1_555
O3 P0 1.540892 1_555
O3 V2 1.910814 1_555
O4 P0 1.542887 1_555
O4 V5 1.892397 1_555
O5 P3 1.584332 1_555
O5 V4 1.919625 1_655
O6 P2 1.580102 1_555
O6 V4 1.851366 1_655
O7 P15 1.502045 1_555
O8 P5 1.554749 1_555
O8 V5 1.990752 1_555
O9 P4 1.577988 1_555
O9 V2 1.858265 1_555
O10 P1 1.563972 1_555
O10 V3 1.871285 1_555
O11 P4 1.604683 1_555
O11 V5 1.825795 1_555
O12 P3 1.488822 1_555
O13 P4 1.478680 1_555
O14 P3 1.575625 1_555
O14 V0 1.930319 1_555
O15 P7 1.535271 1_555
O15 V2 1.909126 1_555
O16 P3 1.577108 1_555
O16 V3 1.958334 1_555
O17 P2 1.559561 1_555
O17 V0 1.926505 1_555
O18 P5 1.611151 1_555
O18 P6 1.618428 1_545
O19 P6 1.487833 1_555
O20 P5 1.479543 1_555
O21 P5 1.559494 1_555
O21 V1 1.846719 1_545
O22 P4 1.556669 1_555
O22 V1 2.006284 1_545
O23 P8 1.552647 1_555
O23 V0 1.993244 1_565
O24 P9 1.529593 1_555
O24 V0 1.935694 1_555
O25 P9 1.564463 1_555
O25 V3 1.834386 1_555
O26 P1 1.600296 1_555
O26 P8 1.623963 1_555
O27 P1 1.484172 1_555
O28 P14 1.487765 1_555
O29 P6 1.560346 1_555
O29 V2 1.836901 1_555
O30 P6 1.530494 1_555
O30 V1 1.940194 1_555
O31 P7 1.550196 1_555
O31 V1 2.017140 1_545
O32 P11 1.554085 1_555
O32 V0 1.996682 1_565
O33 P10 1.549760 1_555
O33 V0 1.871404 1_565
O34 P10 1.504740 1_555
O35 P9 1.482227 1_555
O36 P10 1.611844 1_555
O36 P9 1.626479 1_565
O37 P13 1.559500 1_555
O37 V1 1.917351 1_555
O38 P12 1.576647 1_555
O38 V2 1.868691 1_555
O39 P8 1.555391 1_555
O39 V3 1.874352 1_555
O40 P12 1.576607 1_555
O40 V1 1.950062 1_555
O41 P12 1.486672 1_555
O42 P11 1.475926 1_555
O43 P11 1.595436 1_555
O43 V4 1.841617 1_555
O44 P14 1.540565 1_555
O44 V2 1.936133 1_555
O45 P11 1.597848 1_555
O45 V3 1.829577 1_555
O46 P10 1.546155 1_555
O46 V4 2.040924 1_555
O47 P0 1.605622 1_455
O47 P13 1.623064 1_555
O48 P0 1.501849 1_555
O49 P13 1.571201 1_555
O49 V5 1.866214 1_455
O50 P12 1.578519 1_555
O50 V5 1.930909 1_455
O51 P15 1.544728 1_555
O51 V4 1.891785 1_555
O52 P15 1.549504 1_555
O52 V3 2.016542 1_555
O53 P7 1.504918 1_555
O54 P7 1.607817 1_555
O54 P14 1.622952 1_555
O55 P14 1.561012 1_555
O55 V5 1.856146 1_455
O56 P2 1.470860 1_455
O57 P15 1.605604 1_655
O57 P2 1.627160 1_555
