# generated using pymatgen
data_Li6ScFe5(SiO3)12
_symmetry_space_group_name_H-M   'P 1'
_cell_length_a   6.61893100
_cell_length_b   9.54581678
_cell_length_c   11.03196154
_cell_angle_alpha   77.35170843
_cell_angle_beta   79.06394591
_cell_angle_gamma   77.13233578
_symmetry_Int_Tables_number   1
_chemical_formula_structural   Li6ScFe5(SiO3)12
_chemical_formula_sum   'Li6 Sc1 Fe5 Si12 O36'
_cell_volume   655.71923006
_cell_formula_units_Z   1
loop_
 _symmetry_equiv_pos_site_id
 _symmetry_equiv_pos_as_xyz
  1  'x, y, z'
loop_
 _atom_site_type_symbol
 _atom_site_label
 _atom_site_symmetry_multiplicity
 _atom_site_fract_x
 _atom_site_fract_y
 _atom_site_fract_z
 _atom_site_occupancy
  Li  Li0  1  0.25031200  0.08366700  0.33314700  1
  Li  Li1  1  0.25219000  0.41334000  0.66492800  1
  Li  Li2  1  0.74860500  0.25118400  0.00005900  1
  Li  Li3  1  0.25005700  0.75102700  0.00254700  1
  Li  Li4  1  0.74921200  0.58351000  0.33279600  1
  Li  Li5  1  0.74469500  0.92053700  0.66468800  1
  Sc  Sc0  1  0.10219500  0.68135900  0.78438900  1
  Fe  Fe0  1  0.10230600  0.01478500  0.11794000  1
  Fe  Fe1  1  0.10333300  0.34891400  0.45038000  1
  Fe  Fe2  1  0.89688800  0.31841200  0.21633400  1
  Fe  Fe3  1  0.89632100  0.65194000  0.54697000  1
  Fe  Fe4  1  0.89531200  0.98702500  0.88320000  1
  Si  Si0  1  0.20668800  0.00275100  0.61517900  1
  Si  Si1  1  0.38658100  0.04658800  0.84231000  1
  Si  Si2  1  0.20820400  0.33023100  0.95036100  1
  Si  Si3  1  0.38556600  0.38208700  0.17500600  1
  Si  Si4  1  0.61500300  0.28430600  0.49169700  1
  Si  Si5  1  0.20698800  0.66824700  0.28104800  1
  Si  Si6  1  0.79250100  0.33282000  0.71782600  1
  Si  Si7  1  0.38580900  0.71527600  0.50557300  1
  Si  Si8  1  0.61708700  0.61829900  0.82523800  1
  Si  Si9  1  0.79322000  0.66642600  0.05366500  1
  Si  Si10  1  0.61284700  0.95145000  0.15893400  1
  Si  Si11  1  0.79327800  0.99881400  0.38435700  1
  O  O0  1  0.11765800  0.14084100  0.51275000  1
  O  O1  1  0.35556500  0.04977900  0.69712300  1
  O  O2  1  0.03125300  0.24851600  0.05130800  1
  O  O3  1  0.37347200  0.03461300  0.14896300  1
  O  O4  1  0.35694000  0.21431500  0.86543300  1
  O  O5  1  0.20153200  0.30447800  0.27306500  1
  O  O6  1  0.11352500  0.46736500  0.84970900  1
  O  O7  1  0.64868600  0.11484000  0.47119400  1
  O  O8  1  0.03223900  0.58412000  0.38192900  1
  O  O9  1  0.37560900  0.36698600  0.48116700  1
  O  O10  1  0.79639400  0.02963100  0.06081200  1
  O  O11  1  0.64521400  0.28360100  0.63637500  1
  O  O12  1  0.35474100  0.38157900  0.03083300  1
  O  O13  1  0.20440400  0.63417700  0.60152200  1
  O  O14  1  0.88458100  0.19494300  0.81969900  1
  O  O15  1  0.62522400  0.29961400  0.18541400  1
  O  O16  1  0.96890000  0.08232100  0.28400200  1
  O  O17  1  0.64635800  0.45015500  0.80260300  1
  O  O18  1  0.35238200  0.55178700  0.19482900  1
  O  O19  1  0.02691000  0.92417600  0.71547800  1
  O  O20  1  0.37858700  0.70208500  0.81831500  1
  O  O21  1  0.11242500  0.80697800  0.18091500  1
  O  O22  1  0.79886900  0.36221500  0.39380900  1
  O  O23  1  0.65465300  0.61447200  0.96894800  1
  O  O24  1  0.35466000  0.71909500  0.36070300  1
  O  O25  1  0.20090700  0.97047900  0.94002400  1
  O  O26  1  0.62602200  0.63315600  0.51449800  1
  O  O27  1  0.96863700  0.41548800  0.61655800  1
  O  O28  1  0.35045700  0.88278800  0.53165900  1
  O  O29  1  0.88530800  0.52704400  0.15434400  1
  O  O30  1  0.79495700  0.69698300  0.72353300  1
  O  O31  1  0.64293100  0.78228900  0.13851600  1
  O  O32  1  0.62592400  0.96324400  0.85194300  1
  O  O33  1  0.96766300  0.75210000  0.95559300  1
  O  O34  1  0.64423400  0.95096500  0.30336300  1
  O  O35  1  0.88698000  0.85978600  0.48448700  1
loop_
_geom_bond_atom_site_label_1
_geom_bond_atom_site_label_2
_geom_bond_distance
_geom_bond_site_symmetry_2
Li0 O5 2.037825 1_555
Li0 O16 2.039716 1_455
Li0 O0 2.143522 1_555
Li0 O3 2.151892 1_555
Li1 O27 2.040999 1_455
Li1 O13 2.043157 1_555
Li1 O9 2.139236 1_555
Li1 O6 2.191686 1_555
Li2 O10 2.045435 1_555
Li2 O2 2.047949 1_655
Li2 O14 2.151832 1_554
Li2 O15 2.161989 1_555
Li3 O33 2.029444 1_454
Li3 O25 2.029484 1_554
Li3 O21 2.133206 1_555
Li3 O20 2.157679 1_554
Li4 O22 2.043405 1_555
Li4 O8 2.048106 1_655
Li4 O26 2.128693 1_555
Li4 O29 2.133834 1_555
Li5 O19 2.058880 1_655
Li5 O30 2.060373 1_555
Li5 O32 2.159069 1_555
Li5 O35 2.174056 1_555
Li5 O7 2.580014 1_565
Li5 O1 2.590807 1_565
Fe0 O21 1.943479 1_545
Fe0 O3 1.946051 1_555
Fe0 O16 2.049731 1_455
Fe0 O25 2.052269 1_544
Fe0 O2 2.164518 1_555
Fe0 O10 2.198727 1_455
Fe1 O0 1.941621 1_555
Fe1 O9 1.946621 1_555
Fe1 O5 2.046217 1_555
Fe1 O27 2.048731 1_455
Fe1 O8 2.180481 1_555
Fe1 O22 2.189812 1_455
Fe2 O15 1.945521 1_555
Fe2 O29 1.948160 1_555
Fe2 O22 2.045689 1_555
Fe2 O2 2.050339 1_655
Fe2 O16 2.187083 1_555
Fe2 O5 2.190489 1_655
Fe3 O26 1.943069 1_555
Fe3 O35 1.943725 1_555
Fe3 O30 2.042428 1_555
Fe3 O8 2.044212 1_655
Fe3 O27 2.193734 1_555
Fe3 O13 2.194569 1_655
Fe4 O14 1.944792 1_565
Fe4 O32 1.948743 1_555
Fe4 O10 2.043770 1_566
Fe4 O19 2.045514 1_655
Fe4 O33 2.186012 1_555
Fe4 O25 2.191973 1_655
O0 Si0 1.617437 1_555
O1 Si0 1.643937 1_555
O1 Si1 1.645940 1_555
O2 Si2 1.658923 1_554
O3 Si10 1.618740 1_545
O4 Si1 1.639213 1_555
O4 Si2 1.640192 1_555
O5 Si3 1.659481 1_555
O6 Si2 1.612883 1_555
O6 Sc0 2.001336 1_555
O7 Si4 1.642639 1_555
O7 Si11 1.644697 1_545
O8 Si5 1.659889 1_555
O9 Si4 1.618588 1_555
O10 Si10 1.660041 1_545
O11 Si6 1.643115 1_555
O11 Si4 1.644173 1_555
O12 Si2 1.642603 1_554
O12 Si3 1.642657 1_555
O13 Si7 1.653592 1_555
O13 Sc0 2.115352 1_555
O14 Si6 1.619136 1_555
O15 Si3 1.619431 1_555
O16 Si11 1.658406 1_545
O17 Si8 1.641586 1_555
O17 Si6 1.642513 1_555
O18 Si3 1.642761 1_555
O18 Si5 1.644986 1_555
O19 Si0 1.654502 1_565
O19 Sc0 2.248656 1_555
O20 Si8 1.610648 1_555
O20 Sc0 1.994850 1_555
O21 Si5 1.618121 1_555
O22 Si4 1.659250 1_555
O23 Si9 1.640559 1_556
O23 Si8 1.642201 1_555
O24 Si5 1.639260 1_555
O24 Si7 1.641414 1_555
O25 Si1 1.658995 1_565
O26 Si7 1.619449 1_555
O27 Si6 1.661173 1_555
O28 Si7 1.644328 1_555
O28 Si0 1.646173 1_565
O29 Si9 1.619847 1_555
O30 Si8 1.653089 1_555
O30 Sc0 2.224304 1_655
O31 Si10 1.642242 1_555
O31 Si9 1.642885 1_555
O32 Si1 1.618459 1_565
O33 Si9 1.652777 1_556
O33 Sc0 2.113944 1_655
O34 Si11 1.641370 1_555
O34 Si10 1.644334 1_555
O35 Si11 1.617865 1_555
