# generated using pymatgen
data_Mn2AsHO5
_symmetry_space_group_name_H-M   'P 1'
_cell_length_a   13.83099000
_cell_length_b   10.38718500
_cell_length_c   12.98167283
_cell_angle_alpha   71.08431493
_cell_angle_beta   90.00000000
_cell_angle_gamma   90.00000000
_symmetry_Int_Tables_number   1
_chemical_formula_structural   Mn2AsHO5
_chemical_formula_sum   'Mn32 As16 H16 O80'
_cell_volume   1764.29576555
_cell_formula_units_Z   16
loop_
 _symmetry_equiv_pos_site_id
 _symmetry_equiv_pos_as_xyz
  1  'x, y, z'
loop_
 _atom_site_type_symbol
 _atom_site_label
 _atom_site_symmetry_multiplicity
 _atom_site_fract_x
 _atom_site_fract_y
 _atom_site_fract_z
 _atom_site_occupancy
  Mn  Mn0  1  0.67542000  0.02781600  0.11004400  1
  Mn  Mn1  1  0.17975900  0.04174800  0.07849500  1
  Mn  Mn2  1  0.82458000  0.02781600  0.61004400  1
  Mn  Mn3  1  0.32024100  0.04174800  0.57849500  1
  Mn  Mn4  1  0.47948400  0.19343700  0.31160500  1
  Mn  Mn5  1  0.99361800  0.21678900  0.30095600  1
  Mn  Mn6  1  0.75052600  0.28731800  0.19747100  1
  Mn  Mn7  1  0.26653000  0.29996900  0.18655500  1
  Mn  Mn8  1  0.02051600  0.19343700  0.81160500  1
  Mn  Mn9  1  0.50638200  0.21678900  0.80095600  1
  Mn  Mn10  1  0.56963100  0.52669700  0.10064000  1
  Mn  Mn11  1  0.74947400  0.28731800  0.69747100  1
  Mn  Mn12  1  0.23347000  0.29996900  0.68655500  1
  Mn  Mn13  1  0.07349800  0.54809300  0.08653700  1
  Mn  Mn14  1  0.57349800  0.45190700  0.41346300  1
  Mn  Mn15  1  0.06963100  0.47330300  0.39936000  1
  Mn  Mn16  1  0.93036900  0.52669700  0.60064000  1
  Mn  Mn17  1  0.42650200  0.54809300  0.58653700  1
  Mn  Mn18  1  0.92650200  0.45190700  0.91346300  1
  Mn  Mn19  1  0.76653000  0.70003100  0.31344500  1
  Mn  Mn20  1  0.25052600  0.71268200  0.30252900  1
  Mn  Mn21  1  0.43036900  0.47330300  0.89936000  1
  Mn  Mn22  1  0.49361800  0.78321100  0.19904400  1
  Mn  Mn23  1  0.97948400  0.80656300  0.18839500  1
  Mn  Mn24  1  0.73347000  0.70003100  0.81344500  1
  Mn  Mn25  1  0.24947400  0.71268200  0.80252900  1
  Mn  Mn26  1  0.00638200  0.78321100  0.69904400  1
  Mn  Mn27  1  0.52051600  0.80656300  0.68839500  1
  Mn  Mn28  1  0.67975900  0.95825200  0.42150500  1
  Mn  Mn29  1  0.17542000  0.97218400  0.38995600  1
  Mn  Mn30  1  0.82024100  0.95825200  0.92150500  1
  Mn  Mn31  1  0.32458000  0.97218400  0.88995600  1
  As  As0  1  0.42242500  0.11385800  0.07397900  1
  As  As1  1  0.92829100  0.12051900  0.07480200  1
  As  As2  1  0.07757500  0.11385800  0.57397900  1
  As  As3  1  0.57170900  0.12051900  0.57480200  1
  As  As4  1  0.82215500  0.37996300  0.42360600  1
  As  As5  1  0.32429700  0.38345600  0.42493800  1
  As  As6  1  0.82429700  0.61654400  0.07506200  1
  As  As7  1  0.32215500  0.62003700  0.07639400  1
  As  As8  1  0.67784500  0.37996300  0.92360600  1
  As  As9  1  0.17570300  0.38345600  0.92493800  1
  As  As10  1  0.67570300  0.61654400  0.57506200  1
  As  As11  1  0.17784500  0.62003700  0.57639400  1
  As  As12  1  0.42829100  0.87948100  0.42519800  1
  As  As13  1  0.92242500  0.88614200  0.42602100  1
  As  As14  1  0.07170900  0.87948100  0.92519800  1
  As  As15  1  0.57757500  0.88614200  0.92602100  1
  H  H0  1  0.78758500  0.03404500  0.26111100  1
  H  H1  1  0.58123200  0.26826200  0.14075000  1
  H  H2  1  0.71241500  0.03404500  0.76111100  1
  H  H3  1  0.15857000  0.22786700  0.35412300  1
  H  H4  1  0.91876800  0.26826200  0.64075000  1
  H  H5  1  0.34143000  0.22786700  0.85412300  1
  H  H6  1  0.96209900  0.46666300  0.24236800  1
  H  H7  1  0.46209900  0.53333700  0.25763200  1
  H  H8  1  0.53790100  0.46666300  0.74236800  1
  H  H9  1  0.03790100  0.53333700  0.75763200  1
  H  H10  1  0.65857000  0.77213300  0.14587700  1
  H  H11  1  0.08123200  0.73173800  0.35925000  1
  H  H12  1  0.84143000  0.77213300  0.64587700  1
  H  H13  1  0.28758500  0.96595500  0.23888900  1
  H  H14  1  0.41876800  0.73173800  0.85925000  1
  H  H15  1  0.21241500  0.96595500  0.73888900  1
  O  O0  1  0.83678300  0.00974100  0.06889000  1
  O  O1  1  0.33102700  0.02219400  0.04037200  1
  O  O2  1  0.51783500  0.00508500  0.12298000  1
  O  O3  1  0.02839100  0.01635500  0.11668200  1
  O  O4  1  0.72105500  0.06693800  0.25828800  1
  O  O5  1  0.38471600  0.16730200  0.18126700  1
  O  O6  1  0.66321700  0.00974100  0.56889000  1
  O  O7  1  0.16897300  0.02219400  0.54037200  1
  O  O8  1  0.98216500  0.00508500  0.62298000  1
  O  O9  1  0.47160900  0.01635500  0.61668200  1
  O  O10  1  0.70427400  0.25188700  0.04280400  1
  O  O11  1  0.90340000  0.20374500  0.16632500  1
  O  O12  1  0.20647400  0.25455400  0.04287400  1
  O  O13  1  0.15690800  0.19225800  0.29304100  1
  O  O14  1  0.77894500  0.06693800  0.75828800  1
  O  O15  1  0.58448000  0.30687700  0.20000500  1
  O  O16  1  0.55239900  0.23822000  0.44726400  1
  O  O17  1  0.04538300  0.24845900  0.46141800  1
  O  O18  1  0.84796700  0.30956300  0.32331800  1
  O  O19  1  0.11528400  0.16730200  0.68126700  1
  O  O20  1  0.35857200  0.32092400  0.32200800  1
  O  O21  1  0.79572600  0.25188700  0.54280400  1
  O  O22  1  0.59660000  0.20374500  0.66632500  1
  O  O23  1  0.29352600  0.25455400  0.54287400  1
  O  O24  1  0.34309200  0.19225800  0.79304100  1
  O  O25  1  0.02953800  0.43722000  0.24709400  1
  O  O26  1  0.41397100  0.51645200  0.05793500  1
  O  O27  1  0.91993100  0.52852400  0.04655100  1
  O  O28  1  0.72809200  0.50848600  0.12013300  1
  O  O29  1  0.22430600  0.51108900  0.11990900  1
  O  O30  1  0.91552000  0.30687700  0.70000500  1
  O  O31  1  0.94760100  0.23822000  0.94726400  1
  O  O32  1  0.45461700  0.24845900  0.96141800  1
  O  O33  1  0.72430600  0.48891100  0.38009100  1
  O  O34  1  0.65203300  0.30956300  0.82331800  1
  O  O35  1  0.22809200  0.49151400  0.37986700  1
  O  O36  1  0.14142800  0.32092400  0.82200800  1
  O  O37  1  0.41993100  0.47147600  0.45344900  1
  O  O38  1  0.91397100  0.48354800  0.44206500  1
  O  O39  1  0.52953800  0.56278000  0.25290600  1
  O  O40  1  0.47046200  0.43722000  0.74709400  1
  O  O41  1  0.08602900  0.51645200  0.55793500  1
  O  O42  1  0.58006900  0.52852400  0.54655100  1
  O  O43  1  0.85857200  0.67907600  0.17799200  1
  O  O44  1  0.77190800  0.50848600  0.62013300  1
  O  O45  1  0.34796700  0.69043700  0.17668200  1
  O  O46  1  0.27569400  0.51108900  0.61990900  1
  O  O47  1  0.54538300  0.75154100  0.03858200  1
  O  O48  1  0.05239900  0.76178000  0.05273600  1
  O  O49  1  0.08448000  0.69312300  0.29999500  1
  O  O50  1  0.77569400  0.48891100  0.88009100  1
  O  O51  1  0.27190800  0.49151400  0.87986700  1
  O  O52  1  0.08006900  0.47147600  0.95344900  1
  O  O53  1  0.58602900  0.48354800  0.94206500  1
  O  O54  1  0.97046200  0.56278000  0.75290600  1
  O  O55  1  0.65690800  0.80774200  0.20695900  1
  O  O56  1  0.70647400  0.74544600  0.45712600  1
  O  O57  1  0.40340000  0.79625500  0.33367500  1
  O  O58  1  0.20427400  0.74811300  0.45719600  1
  O  O59  1  0.64142800  0.67907600  0.67799200  1
  O  O60  1  0.88471600  0.83269800  0.31873300  1
  O  O61  1  0.15203300  0.69043700  0.67668200  1
  O  O62  1  0.95461700  0.75154100  0.53858200  1
  O  O63  1  0.44760100  0.76178000  0.55273600  1
  O  O64  1  0.41552000  0.69312300  0.79999500  1
  O  O65  1  0.22105500  0.93306200  0.24171200  1
  O  O66  1  0.84309200  0.80774200  0.70695900  1
  O  O67  1  0.79352600  0.74544600  0.95712600  1
  O  O68  1  0.09660000  0.79625500  0.83367500  1
  O  O69  1  0.29572600  0.74811300  0.95719600  1
  O  O70  1  0.52839100  0.98364500  0.38331800  1
  O  O71  1  0.01783500  0.99491500  0.37702000  1
  O  O72  1  0.83102700  0.97780600  0.45962800  1
  O  O73  1  0.33678300  0.99025900  0.43111000  1
  O  O74  1  0.61528400  0.83269800  0.81873300  1
  O  O75  1  0.27894500  0.93306200  0.74171200  1
  O  O76  1  0.97160900  0.98364500  0.88331800  1
  O  O77  1  0.48216500  0.99491500  0.87702000  1
  O  O78  1  0.66897300  0.97780600  0.95962800  1
  O  O79  1  0.16321700  0.99025900  0.93111000  1
loop_
_geom_bond_atom_site_label_1
_geom_bond_atom_site_label_2
_geom_bond_distance
_geom_bond_site_symmetry_2
Mn0 O78 2.179056 1_544
Mn0 O4 2.184967 1_555
Mn0 O2 2.192877 1_555
Mn0 O55 2.238152 1_545
Mn0 O10 2.240780 1_555
Mn0 O0 2.316609 1_555
Mn1 O65 2.130562 1_545
Mn1 O12 2.138633 1_555
Mn1 O3 2.147924 1_555
Mn1 O79 2.159297 1_544
Mn1 O1 2.174533 1_555
Mn2 O72 2.179056 1_545
Mn2 O14 2.184967 1_555
Mn2 O8 2.192877 1_555
Mn2 O66 2.238152 1_545
Mn2 O21 2.240780 1_555
Mn2 O6 2.316609 1_555
Mn3 O75 2.130562 1_545
Mn3 O23 2.138633 1_555
Mn3 O9 2.147924 1_555
Mn3 O73 2.159297 1_545
Mn3 O7 2.174533 1_555
Mn4 O15 2.118823 1_555
Mn4 O20 2.164364 1_555
Mn4 O70 2.181197 1_545
Mn4 O16 2.205893 1_555
Mn4 O5 2.225401 1_555
Mn5 O11 2.187118 1_555
Mn5 O71 2.218820 1_645
Mn5 O25 2.222670 1_655
Mn5 O13 2.278840 1_655
Mn5 O18 2.291831 1_555
Mn5 O17 2.324707 1_655
Mn6 O18 2.187107 1_555
Mn6 O4 2.204046 1_555
Mn6 O28 2.210543 1_555
Mn6 O10 2.248372 1_555
Mn6 O15 2.306723 1_555
Mn6 O11 2.369664 1_555
Mn7 O13 2.111572 1_555
Mn7 O5 2.153380 1_555
Mn7 O29 2.160665 1_555
Mn7 O12 2.227556 1_555
Mn7 O20 2.237886 1_555
Mn8 O30 2.118823 1_455
Mn8 O36 2.164364 1_555
Mn8 O76 2.181197 1_445
Mn8 O31 2.205893 1_455
Mn8 O19 2.225401 1_555
Mn9 O22 2.187118 1_555
Mn9 O77 2.218820 1_545
Mn9 O40 2.222670 1_555
Mn9 O24 2.278840 1_555
Mn9 O34 2.291831 1_555
Mn9 O32 2.324707 1_555
Mn10 O39 2.198983 1_555
Mn10 O28 2.207308 1_555
Mn10 O26 2.234285 1_555
Mn10 O47 2.235207 1_555
Mn10 O15 2.238303 1_555
Mn10 O53 2.255709 1_554
Mn11 O34 2.187107 1_555
Mn11 O14 2.204046 1_555
Mn11 O44 2.210543 1_555
Mn11 O21 2.248372 1_555
Mn11 O30 2.306723 1_555
Mn11 O22 2.369664 1_555
Mn12 O24 2.111572 1_555
Mn12 O19 2.153380 1_555
Mn12 O46 2.160665 1_555
Mn12 O23 2.227556 1_555
Mn12 O36 2.237886 1_555
Mn13 O25 2.117543 1_555
Mn13 O52 2.125569 1_554
Mn13 O48 2.138431 1_555
Mn13 O29 2.139654 1_555
Mn13 O27 2.211444 1_455
Mn14 O39 2.117543 1_555
Mn14 O42 2.125569 1_555
Mn14 O16 2.138431 1_555
Mn14 O33 2.139654 1_555
Mn14 O37 2.211444 1_555
Mn15 O25 2.198983 1_555
Mn15 O35 2.207308 1_555
Mn15 O38 2.234285 1_455
Mn15 O17 2.235207 1_555
Mn15 O49 2.238303 1_555
Mn15 O41 2.255709 1_555
Mn16 O54 2.198983 1_555
Mn16 O44 2.207308 1_555
Mn16 O41 2.234285 1_655
Mn16 O62 2.235207 1_555
Mn16 O30 2.238303 1_555
Mn16 O38 2.255709 1_555
Mn17 O40 2.117543 1_555
Mn17 O37 2.125569 1_555
Mn17 O63 2.138431 1_555
Mn17 O46 2.139654 1_555
Mn17 O42 2.211444 1_555
Mn18 O54 2.117543 1_555
Mn18 O27 2.125569 1_556
Mn18 O31 2.138431 1_555
Mn18 O50 2.139654 1_555
Mn18 O52 2.211444 1_655
Mn19 O55 2.111572 1_555
Mn19 O60 2.153380 1_555
Mn19 O33 2.160665 1_555
Mn19 O56 2.227556 1_555
Mn19 O43 2.237886 1_555
Mn20 O45 2.187107 1_555
Mn20 O65 2.204046 1_555
Mn20 O35 2.210543 1_555
Mn20 O58 2.248372 1_555
Mn20 O49 2.306723 1_555
Mn20 O57 2.369664 1_555
Mn21 O40 2.198983 1_555
Mn21 O51 2.207308 1_555
Mn21 O53 2.234285 1_555
Mn21 O32 2.235207 1_555
Mn21 O64 2.238303 1_555
Mn21 O26 2.255709 1_556
Mn22 O57 2.187118 1_555
Mn22 O2 2.218820 1_565
Mn22 O39 2.222670 1_555
Mn22 O55 2.278840 1_555
Mn22 O45 2.291831 1_555
Mn22 O47 2.324707 1_555
Mn23 O49 2.118823 1_655
Mn23 O43 2.164364 1_555
Mn23 O3 2.181197 1_665
Mn23 O48 2.205893 1_655
Mn23 O60 2.225401 1_555
Mn24 O66 2.111572 1_555
Mn24 O74 2.153380 1_555
Mn24 O50 2.160665 1_555
Mn24 O67 2.227556 1_555
Mn24 O59 2.237886 1_555
Mn25 O61 2.187107 1_555
Mn25 O75 2.204046 1_555
Mn25 O51 2.210543 1_555
Mn25 O69 2.248372 1_555
Mn25 O64 2.306723 1_555
Mn25 O68 2.369664 1_555
Mn26 O68 2.187118 1_555
Mn26 O8 2.218820 1_465
Mn26 O54 2.222670 1_455
Mn26 O66 2.278840 1_455
Mn26 O61 2.291831 1_555
Mn26 O62 2.324707 1_455
Mn27 O64 2.118823 1_555
Mn27 O59 2.164364 1_555
Mn27 O9 2.181197 1_565
Mn27 O63 2.205893 1_555
Mn27 O74 2.225401 1_555
Mn28 O4 2.130562 1_565
Mn28 O56 2.138633 1_555
Mn28 O70 2.147924 1_555
Mn28 O6 2.159297 1_565
Mn28 O72 2.174533 1_555
Mn29 O7 2.179056 1_565
Mn29 O65 2.184967 1_555
Mn29 O71 2.192877 1_555
Mn29 O13 2.238152 1_565
Mn29 O58 2.240780 1_555
Mn29 O73 2.316609 1_555
Mn30 O14 2.130562 1_565
Mn30 O67 2.138633 1_555
Mn30 O76 2.147924 1_555
Mn30 O0 2.159297 1_566
Mn30 O78 2.174533 1_555
Mn31 O1 2.179056 1_566
Mn31 O75 2.184967 1_555
Mn31 O77 2.192877 1_555
Mn31 O24 2.238152 1_565
Mn31 O69 2.240780 1_555
Mn31 O79 2.316609 1_555
As0 O2 1.719476 1_555
As0 O32 1.721517 1_554
As0 O1 1.721691 1_555
As0 O5 1.738192 1_555
As1 O11 1.715639 1_555
As1 O0 1.728888 1_555
As1 O31 1.730565 1_554
As1 O3 1.732526 1_655
As2 O8 1.719476 1_455
As2 O17 1.721517 1_555
As2 O7 1.721691 1_555
As2 O19 1.738192 1_555
As3 O22 1.715639 1_555
As3 O6 1.728888 1_555
As3 O16 1.730565 1_555
As3 O9 1.732526 1_555
As4 O21 1.721390 1_555
As4 O18 1.724645 1_555
As4 O38 1.730587 1_555
As4 O33 1.736908 1_555
As5 O37 1.715187 1_555
As5 O35 1.716653 1_555
As5 O23 1.728808 1_555
As5 O20 1.730541 1_555
As6 O27 1.715187 1_555
As6 O28 1.716653 1_555
As6 O67 1.728808 1_554
As6 O43 1.730541 1_555
As7 O69 1.721390 1_554
As7 O45 1.724645 1_555
As7 O26 1.730587 1_555
As7 O29 1.736908 1_555
As8 O10 1.721390 1_556
As8 O34 1.724645 1_555
As8 O53 1.730587 1_555
As8 O50 1.736908 1_555
As9 O52 1.715187 1_555
As9 O51 1.716653 1_555
As9 O12 1.728808 1_556
As9 O36 1.730541 1_555
As10 O42 1.715187 1_555
As10 O44 1.716653 1_555
As10 O56 1.728808 1_555
As10 O59 1.730541 1_555
As11 O58 1.721390 1_555
As11 O61 1.724645 1_555
As11 O41 1.730587 1_555
As11 O46 1.736908 1_555
As12 O57 1.715639 1_555
As12 O73 1.728888 1_555
As12 O63 1.730565 1_555
As12 O70 1.732526 1_555
As13 O71 1.719476 1_655
As13 O62 1.721517 1_555
As13 O72 1.721691 1_555
As13 O60 1.738192 1_555
As14 O68 1.715639 1_555
As14 O79 1.728888 1_555
As14 O48 1.730565 1_556
As14 O76 1.732526 1_455
As15 O77 1.719476 1_555
As15 O47 1.721517 1_556
As15 O78 1.721691 1_555
As15 O74 1.738192 1_555
H0 O4 0.978102 1_555
H1 O15 0.977065 1_555
H2 O14 0.978102 1_555
H3 O13 0.977885 1_555
H4 O30 0.977065 1_555
H5 O24 0.977885 1_555
H6 O25 0.977318 1_655
H7 O39 0.977318 1_555
H8 O40 0.977318 1_555
H9 O54 0.977318 1_455
H10 O55 0.977885 1_555
H11 O49 0.977065 1_555
H12 O66 0.977885 1_555
H13 O65 0.978102 1_555
H14 O64 0.977065 1_555
H15 O75 0.978102 1_555
