# generated using pymatgen
data_Na4Bi2C4SO16
_symmetry_space_group_name_H-M   'P 1'
_cell_length_a   10.29562136
_cell_length_b   10.27863617
_cell_length_c   17.96265684
_cell_angle_alpha   89.84163746
_cell_angle_beta   72.62229257
_cell_angle_gamma   119.25339279
_symmetry_Int_Tables_number   1
_chemical_formula_structural   Na4Bi2C4SO16
_chemical_formula_sum   'Na16 Bi8 C16 S4 O64'
_cell_volume   1557.32199429
_cell_formula_units_Z   4
loop_
 _symmetry_equiv_pos_site_id
 _symmetry_equiv_pos_as_xyz
  1  'x, y, z'
loop_
 _atom_site_type_symbol
 _atom_site_label
 _atom_site_symmetry_multiplicity
 _atom_site_fract_x
 _atom_site_fract_y
 _atom_site_fract_z
 _atom_site_occupancy
  Na  Na0  1  0.92238547  0.41372769  0.16387171  1
  Na  Na1  1  0.68201962  0.78354417  0.03417067  1
  Na  Na2  1  0.92043514  0.21101915  0.96053380  1
  Na  Na3  1  0.33847115  0.11695728  0.46076800  1
  Na  Na4  1  0.91969814  0.68977248  0.46060336  1
  Na  Na5  1  0.32979422  0.41465969  0.16446225  1
  Na  Na6  1  0.92065344  0.00542907  0.16465485  1
  Na  Na7  1  0.91780913  0.50114283  0.65995579  1
  Na  Na8  1  0.07234668  0.08942891  0.34032003  1
  Na  Na9  1  0.92482487  0.91290201  0.66819360  1
  Na  Na10  1  0.68232710  0.89572149  0.53459744  1
  Na  Na11  1  0.31996899  0.70144370  0.46032857  1
  Na  Na12  1  0.32906619  0.21238770  0.95896084  1
  Na  Na13  1  0.32821129  0.91990122  0.66521053  1
  Na  Na14  1  0.32721587  0.61867358  0.96223273  1
  Na  Na15  1  0.06650955  0.59064830  0.84104504  1
  Bi  Bi0  1  0.49501662  0.00332527  0.99978765  1
  Bi  Bi1  1  0.50833347  0.25118141  0.24881550  1
  Bi  Bi2  1  0.49570827  0.49136273  0.49943179  1
  Bi  Bi3  1  0.49668468  0.75012252  0.25353002  1
  Bi  Bi4  1  0.50109211  0.25243714  0.74940710  1
  Bi  Bi5  1  0.99857787  0.74272335  0.24799113  1
  Bi  Bi6  1  0.50515631  0.75192785  0.75293663  1
  Bi  Bi7  1  -0.00002752  0.24650288  0.74838146  1
  C  C0  1  0.67475156  0.08175041  0.13463290  1
  C  C1  1  0.27218799  0.08841252  0.14197682  1
  C  C2  1  0.71963082  0.42009420  0.35845241  1
  C  C3  1  0.72121429  0.61236137  0.16957070  1
  C  C4  1  0.71886259  0.10696792  0.66968074  1
  C  C5  1  0.72249311  0.80251369  0.36112650  1
  C  C6  1  0.33922615  0.41643606  0.36067843  1
  C  C7  1  0.72154016  0.30231781  0.85866765  1
  C  C8  1  0.27647761  0.18698167  0.63729277  1
  C  C9  1  0.67434391  0.59128428  0.63546773  1
  C  C10  1  0.28299663  0.68907030  0.13615865  1
  C  C11  1  0.27913472  0.59215656  0.63974676  1
  C  C12  1  0.26969546  0.89077427  0.33722081  1
  C  C13  1  0.27013065  0.39066851  0.83717852  1
  C  C14  1  0.71856668  0.91871436  0.86159917  1
  C  C15  1  0.33909969  0.91892060  0.86044378  1
  S  S0  1  0.87378461  0.18439533  0.43728399  1
  S  S1  1  0.12517673  0.31244514  0.06254172  1
  S  S2  1  0.87479719  0.68753024  0.93752288  1
  S  S3  1  0.12522781  0.81192013  0.56260731  1
  O  O0  1  0.67397687  0.13302676  0.06893319  1
  O  O1  1  0.93374888  0.20874348  0.34833940  1
  O  O2  1  0.93241748  0.08784858  0.46566922  1
  O  O3  1  0.67766212  0.15571050  0.19313040  1
  O  O4  1  0.28585014  0.03880139  0.07518557  1
  O  O5  1  0.93395716  0.32872815  0.46725988  1
  O  O6  1  0.69576442  0.09141316  0.46853818  1
  O  O7  1  0.83962087  0.98613458  0.79631428  1
  O  O8  1  0.84475412  0.48141160  0.29478569  1
  O  O9  1  0.71871761  0.48532572  0.17301032  1
  O  O10  1  0.38867727  0.21164366  0.14956203  1
  O  O11  1  0.84045749  0.22870722  0.67390288  1
  O  O12  1  0.59284678  0.29677639  0.35954125  1
  O  O13  1  0.84429136  0.73616438  0.17193945  1
  O  O14  1  0.28307969  0.02398849  0.33750425  1
  O  O15  1  0.30258262  0.40046204  0.03262702  1
  O  O16  1  0.06660135  0.16476455  0.03311543  1
  O  O17  1  0.59032421  0.10617962  0.67335031  1
  O  O18  1  0.71991872  0.48666819  0.42014844  1
  O  O19  1  0.59842419  0.61719499  0.16576462  1
  O  O20  1  0.33183372  0.34925142  0.29924773  1
  O  O21  1  0.85508822  0.81219138  0.35862245  1
  O  O22  1  0.85228290  0.31046690  0.85903028  1
  O  O23  1  0.06572305  0.40177911  0.03312366  1
  O  O24  1  0.06558536  0.28224589  0.15128080  1
  O  O25  1  0.67396957  0.46566340  0.64271882  1
  O  O26  1  0.39290305  0.25064165  0.56988076  1
  O  O27  1  0.67648353  0.95566493  0.14149912  1
  O  O28  1  0.40248525  0.75459095  0.06919803  1
  O  O29  1  0.72039564  0.36050500  0.79475732  1
  O  O30  1  0.34172427  0.35374529  0.42257929  1
  O  O31  1  0.71385914  0.85318394  0.29777083  1
  O  O32  1  0.67271516  0.64330706  0.56954799  1
  O  O33  1  0.29350787  0.13062321  0.69604261  1
  O  O34  1  0.29745978  0.63015564  0.19487366  1
  O  O35  1  0.60032722  0.74060712  0.42667732  1
  O  O36  1  0.59373533  0.23393976  0.92050432  1
  O  O37  1  0.34895852  0.04953007  0.85725428  1
  O  O38  1  0.34861567  0.54736124  0.35970100  1
  O  O39  1  0.93588213  0.59791379  0.96574964  1
  O  O40  1  0.93538033  0.71660736  0.84835379  1
  O  O41  1  0.14179202  0.17600525  0.64494921  1
  O  O42  1  0.68031727  0.66821816  0.69310459  1
  O  O43  1  0.15014357  0.68055733  0.14243797  1
  O  O44  1  0.29171021  0.54147830  0.57399705  1
  O  O45  1  0.38717688  0.87582912  0.33888242  1
  O  O46  1  0.38805026  0.37646266  0.83728057  1
  O  O47  1  0.69656503  0.60102749  0.96822097  1
  O  O48  1  0.93135263  0.83521391  0.96761622  1
  O  O49  1  0.72045236  0.98060412  0.66386925  1
  O  O50  1  0.39847347  0.71793609  0.64598076  1
  O  O51  1  0.13789072  0.27484372  0.83806398  1
  O  O52  1  0.13872621  0.77410806  0.33714087  1
  O  O53  1  0.59263331  0.79425749  0.86202756  1
  O  O54  1  0.28293219  0.52454638  0.83811427  1
  O  O55  1  0.14707276  0.52084837  0.70018798  1
  O  O56  1  0.13797306  0.01467922  0.20133544  1
  O  O57  1  0.30254520  0.89867680  0.53263472  1
  O  O58  1  0.06659092  0.66401234  0.53334400  1
  O  O59  1  0.71926398  0.97620196  0.92616012  1
  O  O60  1  0.32747258  0.84642038  0.80067738  1
  O  O61  1  0.06558792  0.90103776  0.53324268  1
  O  O62  1  0.06580494  0.78139356  0.65137258  1
  O  O63  1  0.34526448  0.85977214  0.92228123  1
loop_
_geom_bond_atom_site_label_1
_geom_bond_atom_site_label_2
_geom_bond_distance
_geom_bond_site_symmetry_2
Na0 O24 2.408546 1_655
Na0 O23 2.411880 1_655
Na0 O8 2.466262 1_555
Na0 O9 2.503744 1_555
Na0 O3 2.515658 1_555
Na0 O43 2.517589 1_655
Na1 O47 2.264096 1_554
Na1 O48 2.265354 1_554
Na1 O19 2.564352 1_555
Na1 O59 2.573888 1_554
Na1 O28 2.616761 1_555
Na1 O27 2.627124 1_555
Na2 O51 2.428335 1_655
Na2 O0 2.434052 1_556
Na2 O16 2.461355 1_656
Na2 O23 2.468788 1_656
Na2 O22 2.513248 1_555
Na2 O59 2.526436 1_545
Na3 O57 2.392662 1_545
Na3 O26 2.441720 1_555
Na3 O12 2.446888 1_555
Na3 O61 2.493762 1_545
Na3 O30 2.508529 1_555
Na3 O14 2.524710 1_555
Na4 O58 2.373688 1_655
Na4 O18 2.412769 1_555
Na4 O52 2.417939 1_655
Na4 O32 2.521738 1_555
Na4 O61 2.583143 1_655
Na4 O21 2.629577 1_555
Na5 O34 2.436025 1_555
Na5 O10 2.436422 1_555
Na5 O15 2.462924 1_555
Na5 O24 2.464962 1_555
Na5 O20 2.519793 1_555
Na5 O19 2.528889 1_555
Na6 O16 2.444497 1_655
Na6 O24 2.452064 1_655
Na6 O13 2.470861 1_545
Na6 O56 2.474336 1_655
Na6 O27 2.474524 1_545
Na6 O31 2.526127 1_545
Na7 O58 2.390194 1_655
Na7 O25 2.470125 1_555
Na7 O62 2.492138 1_655
Na7 O11 2.497171 1_555
Na7 O29 2.500632 1_555
Na7 O55 2.585987 1_655
Na8 O1 2.269255 1_455
Na8 O2 2.277008 1_455
Na8 O14 2.554062 1_555
Na8 O21 2.560790 1_445
Na8 O20 2.579237 1_555
Na8 O56 2.605742 1_555
Na9 O62 2.383923 1_655
Na9 O42 2.448626 1_555
Na9 O41 2.451572 1_665
Na9 O61 2.463167 1_655
Na9 O7 2.466074 1_555
Na9 O49 2.538918 1_555
Na10 O6 2.256067 1_565
Na10 O2 2.274901 1_565
Na10 O49 2.555038 1_555
Na10 O35 2.586850 1_555
Na10 O32 2.614993 1_555
Na10 O50 2.674073 1_555
Na11 O58 2.376122 1_555
Na11 O38 2.452830 1_555
Na11 O57 2.461665 1_555
Na11 O44 2.473072 1_555
Na11 O45 2.512987 1_555
Na11 O35 2.584552 1_555
Na12 O16 2.422706 1_556
Na12 O15 2.424077 1_556
Na12 O46 2.485166 1_555
Na12 O36 2.497260 1_555
Na12 O37 2.512006 1_555
Na12 O4 2.527572 1_556
Na13 O33 2.402171 1_565
Na13 O62 2.455900 1_555
Na13 O57 2.472039 1_555
Na13 O17 2.481375 1_565
Na13 O50 2.504890 1_555
Na13 O60 2.542606 1_555
Na14 O23 2.431091 1_556
Na14 O15 2.435301 1_556
Na14 O28 2.467818 1_556
Na14 O63 2.480177 1_555
Na14 O53 2.487615 1_555
Na14 O54 2.510494 1_555
Na15 O40 2.262626 1_455
Na15 O39 2.265297 1_455
Na15 O60 2.564833 1_555
Na15 O22 2.573716 1_455
Na15 O54 2.615161 1_555
Na15 O55 2.634862 1_555
Bi0 O36 2.332827 1_555
Bi0 O63 2.358542 1_545
Bi0 O4 2.373351 1_556
Bi0 O0 2.385421 1_556
Bi0 O28 2.427126 1_546
Bi0 O59 2.442218 1_545
Bi1 O9 2.337345 1_555
Bi1 O12 2.360707 1_555
Bi1 O3 2.374558 1_555
Bi1 O10 2.384966 1_555
Bi1 O14 2.418491 1_555
Bi1 O20 2.439442 1_555
Bi2 O26 2.338119 1_555
Bi2 O18 2.346201 1_555
Bi2 O30 2.355064 1_555
Bi2 O44 2.418956 1_555
Bi2 O35 2.423855 1_555
Bi2 O32 2.438601 1_555
Bi3 O38 2.332548 1_555
Bi3 O31 2.346115 1_555
Bi3 O34 2.379915 1_555
Bi3 O45 2.386085 1_555
Bi3 O27 2.422571 1_555
Bi3 O19 2.423554 1_555
Bi4 O37 2.351250 1_555
Bi4 O17 2.362605 1_555
Bi4 O29 2.376527 1_555
Bi4 O33 2.381021 1_555
Bi4 O25 2.402239 1_555
Bi4 O46 2.415571 1_555
Bi5 O8 2.337490 1_555
Bi5 O13 2.363487 1_555
Bi5 O43 2.377416 1_655
Bi5 O52 2.382981 1_655
Bi5 O56 2.433857 1_665
Bi5 O21 2.434452 1_555
Bi6 O42 2.347658 1_555
Bi6 O53 2.348674 1_555
Bi6 O54 2.387679 1_555
Bi6 O49 2.401362 1_555
Bi6 O60 2.414403 1_555
Bi6 O50 2.430778 1_555
Bi7 O7 2.334330 1_445
Bi7 O41 2.351582 1_555
Bi7 O11 2.353850 1_455
Bi7 O51 2.379276 1_555
Bi7 O22 2.423574 1_455
Bi7 O55 2.454446 1_555
C0 O0 1.294941 1_555
C0 O3 1.297649 1_555
C0 O27 1.310774 1_545
C1 O10 1.294297 1_555
C1 O4 1.300728 1_555
C1 O56 1.308662 1_555
C2 O12 1.295550 1_555
C2 O8 1.298880 1_555
C2 O18 1.304069 1_555
C3 O9 1.294323 1_555
C3 O13 1.297444 1_555
C3 O19 1.310855 1_555
C4 O11 1.290346 1_555
C4 O17 1.301216 1_555
C4 O49 1.310983 1_545
C5 O31 1.294868 1_555
C5 O35 1.304729 1_555
C5 O21 1.306188 1_555
C6 O30 1.296739 1_555
C6 O38 1.300907 1_555
C6 O20 1.305108 1_555
C7 O36 1.295350 1_555
C7 O29 1.298815 1_555
C7 O22 1.309209 1_555
C8 O33 1.298615 1_555
C8 O41 1.299075 1_555
C8 O26 1.301261 1_555
C9 O25 1.295420 1_555
C9 O42 1.302308 1_555
C9 O32 1.305914 1_555
C10 O34 1.296007 1_555
C10 O43 1.296952 1_555
C10 O28 1.309806 1_555
C11 O44 1.288772 1_555
C11 O55 1.305545 1_555
C11 O50 1.313050 1_555
C12 O52 1.295007 1_555
C12 O45 1.300239 1_555
C12 O14 1.307646 1_565
C13 O46 1.292223 1_555
C13 O51 1.293850 1_555
C13 O54 1.317364 1_555
C14 O7 1.298887 1_555
C14 O53 1.300209 1_555
C14 O59 1.303340 1_555
C15 O37 1.295677 1_565
C15 O63 1.297514 1_555
C15 O60 1.310038 1_555
O1 S0 1.501318 1_555
O2 S0 1.541337 1_555
O5 S0 1.476497 1_555
O6 S0 1.502746 1_555
O15 S1 1.496456 1_555
O16 S1 1.499141 1_555
O23 S1 1.495635 1_555
O24 S1 1.496842 1_555
O39 S2 1.501722 1_555
O40 S2 1.504077 1_555
O47 S2 1.503378 1_555
O48 S2 1.504731 1_555
O57 S3 1.495664 1_555
O58 S3 1.499669 1_555
O61 S3 1.494936 1_555
O62 S3 1.497322 1_555
