# generated using pymatgen
data_Li4Ti3Fe5O16
_symmetry_space_group_name_H-M   'P 1'
_cell_length_a   5.86348462
_cell_length_b   5.90600846
_cell_length_c   9.60798531
_cell_angle_alpha   90.02065123
_cell_angle_beta   89.64424619
_cell_angle_gamma   120.60456085
_symmetry_Int_Tables_number   1
_chemical_formula_structural   Li4Ti3Fe5O16
_chemical_formula_sum   'Li4 Ti3 Fe5 O16'
_cell_volume   286.36772961
_cell_formula_units_Z   1
loop_
 _symmetry_equiv_pos_site_id
 _symmetry_equiv_pos_as_xyz
  1  'x, y, z'
loop_
 _atom_site_type_symbol
 _atom_site_label
 _atom_site_symmetry_multiplicity
 _atom_site_fract_x
 _atom_site_fract_y
 _atom_site_fract_z
 _atom_site_occupancy
  Li  Li0  1  0.33862600  0.66530800  0.89168500  1
  Li  Li1  1  0.98677700  0.99442100  0.99646900  1
  Li  Li2  1  0.99077000  0.99101200  0.49647800  1
  Li  Li3  1  0.66983600  0.33534700  0.39689900  1
  Ti  Ti0  1  0.17327100  0.83316800  0.21473400  1
  Ti  Ti1  1  0.17383800  0.34101400  0.21677600  1
  Ti  Ti2  1  0.34078500  0.17827600  0.71473900  1
  Fe  Fe0  1  0.33865200  0.67611500  0.49253200  1
  Fe  Fe1  1  0.65784200  0.82971600  0.21237300  1
  Fe  Fe2  1  0.67655100  0.34093600  0.99210500  1
  Fe  Fe3  1  0.83081000  0.65798500  0.71303100  1
  Fe  Fe4  1  0.83095100  0.16827400  0.71398600  1
  O  O0  1  0.16493700  0.84091200  0.60202100  1
  O  O1  1  0.03808200  0.51973100  0.33471500  1
  O  O2  1  0.32426100  0.66217500  0.10235200  1
  O  O3  1  0.99828900  0.99906900  0.30968600  1
  O  O4  1  0.00450800  0.99318300  0.81121100  1
  O  O5  1  0.15795000  0.32377800  0.60179100  1
  O  O6  1  0.48108000  0.96394000  0.33625200  1
  O  O7  1  0.47946000  0.51765100  0.33684900  1
  O  O8  1  0.32773500  0.16348700  0.10059200  1
  O  O9  1  0.67248500  0.83066700  0.60425900  1
  O  O10  1  0.51672000  0.47647600  0.83726600  1
  O  O11  1  0.52739600  0.03876800  0.83500700  1
  O  O12  1  0.65905200  0.33290300  0.60237900  1
  O  O13  1  0.83776600  0.67561900  0.10371600  1
  O  O14  1  0.96385800  0.48687300  0.83444900  1
  O  O15  1  0.83771300  0.16349500  0.10348400  1
loop_
_geom_bond_atom_site_label_1
_geom_bond_atom_site_label_2
_geom_bond_distance
_geom_bond_site_symmetry_2
Li0 O10 1.945821 1_555
Li0 O11 1.973362 1_565
Li0 O14 1.974437 1_455
Li0 O2 2.025014 1_556
Li1 O4 1.782575 1_655
Li1 O13 1.919751 1_556
Li1 O15 1.922240 1_566
Li1 O8 1.996542 1_666
Li2 O3 1.795015 1_555
Li2 O9 1.905065 1_555
Li2 O0 1.947406 1_655
Li2 O5 1.973950 1_665
Li3 O1 1.948148 1_655
Li3 O12 1.974691 1_555
Li3 O6 1.977670 1_545
Li3 O7 1.992588 1_555
Fe0 O9 2.005780 1_555
Fe0 O0 2.021589 1_555
Fe0 O5 2.073059 1_555
Fe0 O6 2.093435 1_555
Fe0 O7 2.136678 1_555
Fe0 O1 2.152441 1_555
Fe1 O3 1.961874 1_555
Fe1 O6 1.984907 1_555
Fe1 O7 1.986048 1_555
Fe1 O15 1.990913 1_565
Fe1 O2 1.994118 1_555
Fe1 O13 1.998604 1_555
Fe2 O13 2.014733 1_556
Fe2 O15 2.039139 1_556
Fe2 O8 2.039546 1_556
Fe2 O14 2.089528 1_555
Fe2 O10 2.124700 1_555
Fe2 O11 2.157132 1_555
Fe3 O4 1.950349 1_655
Fe3 O14 1.950820 1_555
Fe3 O12 1.968174 1_555
Fe3 O10 1.982193 1_555
Fe3 O0 1.990671 1_655
Fe3 O9 1.992726 1_555
Fe4 O11 1.921931 1_555
Fe4 O5 1.965651 1_655
Fe4 O14 2.001011 1_555
Fe4 O4 2.015335 1_645
Fe4 O9 2.018589 1_545
Fe4 O12 2.030564 1_555
O0 Ti2 2.031363 1_565
O1 Ti1 1.968548 1_555
O1 Ti0 1.969799 1_555
O2 Ti0 1.966540 1_555
O2 Ti1 1.967324 1_555
O3 Ti1 1.951447 1_665
O3 Ti0 1.963758 1_655
O4 Ti2 1.930099 1_565
O5 Ti2 2.004637 1_555
O6 Ti0 1.955317 1_555
O7 Ti1 1.936962 1_555
O8 Ti0 2.004741 1_545
O8 Ti1 2.027238 1_555
O10 Ti2 1.927555 1_555
O11 Ti2 2.036108 1_555
O12 Ti2 1.929344 1_555
O13 Ti0 2.008748 1_655
O15 Ti1 2.022428 1_655
