# generated using pymatgen
data_Li3V2FeO6
_symmetry_space_group_name_H-M   'P 1'
_cell_length_a   2.97353280
_cell_length_b   6.72971238
_cell_length_c   11.95684594
_cell_angle_alpha   76.68361882
_cell_angle_beta   89.99516953
_cell_angle_gamma   77.23581663
_symmetry_Int_Tables_number   1
_chemical_formula_structural   Li3V2FeO6
_chemical_formula_sum   'Li6 V4 Fe2 O12'
_cell_volume   226.75598753
_cell_formula_units_Z   2
loop_
 _symmetry_equiv_pos_site_id
 _symmetry_equiv_pos_as_xyz
  1  'x, y, z'
loop_
 _atom_site_type_symbol
 _atom_site_label
 _atom_site_symmetry_multiplicity
 _atom_site_fract_x
 _atom_site_fract_y
 _atom_site_fract_z
 _atom_site_occupancy
  Li  Li0  1  0.33329800  0.33342100  0.08330200  1
  Li  Li1  1  0.33330700  0.33340200  0.58332100  1
  Li  Li2  1  0.99787100  0.00433300  0.24931100  1
  Li  Li3  1  0.99785800  0.00435300  0.74930000  1
  Li  Li4  1  0.66876900  0.66243400  0.41733600  1
  Li  Li5  1  0.66878200  0.66241300  0.91734700  1
  V  V0  1  0.99980600  0.00040500  0.50017600  1
  V  V1  1  0.66688700  0.66622400  0.16650100  1
  V  V2  1  0.99981700  0.00039100  0.00017600  1
  V  V3  1  0.66687500  0.66623700  0.66650100  1
  Fe  Fe0  1  0.33333000  0.33332500  0.83333800  1
  Fe  Fe1  1  0.33332600  0.33332700  0.33333700  1
  O  O0  1  0.49570400  0.00862800  0.88176400  1
  O  O1  1  0.49570600  0.00863700  0.38177300  1
  O  O2  1  0.17093000  0.65801300  0.28490000  1
  O  O3  1  0.17093100  0.65801900  0.78491000  1
  O  O4  1  0.16348700  0.67315300  0.04808600  1
  O  O5  1  0.16346600  0.67316500  0.54808200  1
  O  O6  1  0.50327400  0.99342300  0.61859100  1
  O  O7  1  0.50329400  0.99341500  0.11859400  1
  O  O8  1  0.82951300  0.34108300  0.21436500  1
  O  O9  1  0.82949900  0.34110600  0.71436000  1
  O  O10  1  0.83712500  0.32556000  0.45231300  1
  O  O11  1  0.83714300  0.32553500  0.95231800  1
loop_
_geom_bond_atom_site_label_1
_geom_bond_atom_site_label_2
_geom_bond_distance
_geom_bond_site_symmetry_2
Li0 O11 2.168645 1_554
Li0 O8 2.169153 1_455
Li0 O11 2.169226 1_454
Li0 O4 2.169301 1_555
Li0 O8 2.169522 1_555
Li0 O7 2.171023 1_545
Li1 O10 2.168787 1_555
Li1 O9 2.169002 1_455
Li1 O9 2.169363 1_555
Li1 O10 2.169389 1_455
Li1 O5 2.169488 1_555
Li1 O6 2.170862 1_545
Li2 O8 2.150238 1_555
Li2 O7 2.170402 1_645
Li2 O7 2.170731 1_545
Li2 O1 2.177299 1_555
Li2 O1 2.177429 1_655
Li2 O2 2.211551 1_645
Li3 O9 2.150260 1_555
Li3 O6 2.170322 1_645
Li3 O6 2.170704 1_545
Li3 O0 2.177288 1_555
Li3 O0 2.177404 1_655
Li3 O3 2.211629 1_645
Li4 O10 2.151019 1_555
Li4 O5 2.170352 1_555
Li4 O5 2.170788 1_655
Li4 O2 2.177087 1_655
Li4 O2 2.177471 1_555
Li4 O1 2.210813 1_565
Li5 O11 2.151048 1_555
Li5 O4 2.170278 1_556
Li5 O4 2.170765 1_656
Li5 O3 2.177066 1_655
Li5 O3 2.177444 1_555
Li5 O0 2.210878 1_565
Fe0 O11 2.049934 1_555
Fe0 O9 2.049974 1_455
Fe0 O9 2.050058 1_555
Fe0 O11 2.050114 1_455
Fe0 O3 2.072213 1_555
Fe0 O0 2.072231 1_555
Fe1 O10 2.049916 1_555
Fe1 O8 2.049936 1_455
Fe1 O8 2.050043 1_555
Fe1 O10 2.050108 1_455
Fe1 O2 2.072166 1_555
Fe1 O1 2.072191 1_555
O0 V2 2.044878 1_456
O0 V2 2.045027 1_556
O1 V0 2.044832 1_455
O1 V0 2.044935 1_555
O2 V1 2.044821 1_455
O2 V1 2.044918 1_555
O3 V3 2.044917 1_455
O3 V3 2.044974 1_555
O4 V1 2.046119 1_555
O4 V1 2.046225 1_455
O4 V2 2.088084 1_465
O5 V3 2.046173 1_555
O5 V3 2.046238 1_455
O5 V0 2.088095 1_465
O6 V0 2.046086 1_565
O6 V0 2.046159 1_465
O6 V3 2.087755 1_555
O7 V2 2.046090 1_565
O7 V2 2.046215 1_465
O7 V1 2.087786 1_555
O8 V1 2.074804 1_555
O9 V3 2.074738 1_555
O10 V0 2.074892 1_555
O11 V2 2.074820 1_556
