# generated using pymatgen
data_Li7V3P8O29
_symmetry_space_group_name_H-M   'P 1'
_cell_length_a   9.86702976
_cell_length_b   9.89288139
_cell_length_c   13.88665381
_cell_angle_alpha   89.69372393
_cell_angle_beta   89.70914222
_cell_angle_gamma   59.86274043
_symmetry_Int_Tables_number   1
_chemical_formula_structural   Li7V3P8O29
_chemical_formula_sum   'Li14 V6 P16 O58'
_cell_volume   1172.26897167
_cell_formula_units_Z   2
loop_
 _symmetry_equiv_pos_site_id
 _symmetry_equiv_pos_as_xyz
  1  'x, y, z'
loop_
 _atom_site_type_symbol
 _atom_site_label
 _atom_site_symmetry_multiplicity
 _atom_site_fract_x
 _atom_site_fract_y
 _atom_site_fract_z
 _atom_site_occupancy
  Li  Li0  1  0.91380000  0.77313600  0.06285200  1
  Li  Li1  1  0.76511000  0.90732700  0.56203600  1
  Li  Li2  1  0.90755500  0.32744100  0.56233500  1
  Li  Li3  1  0.66283500  0.66161700  0.38097400  1
  Li  Li4  1  0.66877900  0.66552200  0.88383900  1
  Li  Li5  1  0.77174300  0.31735900  0.06664600  1
  Li  Li6  1  0.31253900  0.91250700  0.06288400  1
  Li  Li7  1  0.32559400  0.76617800  0.56110100  1
  Li  Li8  1  0.67548000  0.09749500  0.94160500  1
  Li  Li9  1  0.22351300  0.68437700  0.94120800  1
  Li  Li10  1  0.09839700  0.66697300  0.43945400  1
  Li  Li11  1  0.23396400  0.10344400  0.43999600  1
  Li  Li12  1  0.09412000  0.22624800  0.93812900  1
  Li  Li13  1  0.94822600  0.03138700  0.49221800  1
  V  V0  1  0.56611300  0.43096200  0.25269000  1
  V  V1  1  0.43759800  0.56142200  0.74738100  1
  V  V2  1  0.56586100  0.00164300  0.74807400  1
  V  V3  1  0.43370600  0.00215100  0.25133700  1
  V  V4  1  0.00445700  0.56194900  0.24929900  1
  V  V5  1  0.99881200  0.43399000  0.74821100  1
  P  P0  1  0.90767700  0.76921100  0.84210200  1
  P  P1  1  0.77615200  0.90797500  0.34449000  1
  P  P2  1  0.91019500  0.31564600  0.34218800  1
  P  P3  1  0.66842600  0.66666400  0.12747400  1
  P  P4  1  0.66474100  0.66789800  0.62426400  1
  P  P5  1  0.76886700  0.31935800  0.84600900  1
  P  P6  1  0.69416600  0.22401600  0.65861500  1
  P  P7  1  0.32257700  0.90731800  0.84254600  1
  P  P8  1  0.68326100  0.08547900  0.15865700  1
  P  P9  1  0.31588700  0.77476200  0.34284200  1
  P  P10  1  0.23365100  0.68009600  0.15722700  1
  P  P11  1  0.33143200  0.33106700  0.37282400  1
  P  P12  1  0.33540200  0.33242500  0.87193300  1
  P  P13  1  0.08676400  0.68480800  0.65665400  1
  P  P14  1  0.22998100  0.08439900  0.65685200  1
  P  P15  1  0.08930300  0.23129200  0.15677400  1
  O  O0  1  0.99821700  0.77849500  0.56816700  1
  O  O1  1  0.92108000  0.74217800  0.34242400  1
  O  O2  1  0.75854200  0.99314800  0.06834900  1
  O  O3  1  0.74458800  0.92170400  0.84176000  1
  O  O4  1  0.87940300  0.63136200  0.82698800  1
  O  O5  1  0.81764200  0.66881900  0.16830700  1
  O  O6  1  0.89687900  0.47892300  0.33069400  1
  O  O7  1  0.99956700  0.24066900  0.06719500  1
  O  O8  1  0.91924900  0.32831500  0.84491900  1
  O  O9  1  0.67374800  0.81329400  0.66299900  1
  O  O10  1  0.62671700  0.89431600  0.33203400  1
  O  O11  1  0.80842500  0.51362400  0.65949000  1
  O  O12  1  0.66684400  0.67623900  0.01895900  1
  O  O13  1  0.65441400  0.67515900  0.51607300  1
  O  O14  1  0.67396600  0.51562200  0.16356100  1
  O  O15  1  0.48925900  0.88378000  0.82435600  1
  O  O16  1  0.51760100  0.81498600  0.16930300  1
  O  O17  1  0.74776600  0.33655500  0.34179700  1
  O  O18  1  0.78337500  0.20614800  0.75936700  1
  O  O19  1  0.80367600  0.20688600  0.57803300  1
  O  O20  1  0.74605700  0.25096200  0.93739400  1
  O  O21  1  0.62776600  0.48693000  0.82488600  1
  O  O22  1  0.51060900  0.67690000  0.66730300  1
  O  O23  1  0.67022900  0.24491100  0.15803700  1
  O  O24  1  0.48022300  0.63214800  0.33429600  1
  O  O25  1  0.33063600  0.92395200  0.34283400  1
  O  O26  1  0.79228800  0.99396500  0.25040200  1
  O  O27  1  0.78012800  0.99051600  0.43418000  1
  O  O28  1  0.23716600  0.99439500  0.56751500  1
  O  O29  1  0.66509000  0.08346200  0.65857500  1
  O  O30  1  0.54020100  0.38226500  0.66290100  1
  O  O31  1  0.33634500  0.74502500  0.84427000  1
  O  O32  1  0.47544200  0.32893700  0.33179000  1
  O  O33  1  0.37954100  0.52291500  0.17234500  1
  O  O34  1  0.23992900  0.76407500  0.06734000  1
  O  O35  1  0.22525000  0.77274300  0.43113500  1
  O  O36  1  0.21260500  0.79178400  0.24934600  1
  O  O37  1  0.25153600  0.66809400  0.65866800  1
  O  O38  1  0.48640800  0.18247100  0.83092900  1
  O  O39  1  0.52370700  0.09548000  0.17711900  1
  O  O40  1  0.33913400  0.48001300  0.82355800  1
  O  O41  1  0.34272000  0.34225100  0.97848500  1
  O  O42  1  0.31087700  0.33552200  0.47960000  1
  O  O43  1  0.17988600  0.48451900  0.32937300  1
  O  O44  1  0.38353800  0.08891200  0.67243300  1
  O  O45  1  0.32360700  0.18452700  0.33149800  1
  O  O46  1  0.08344500  0.66787600  0.15847800  1
  O  O47  1  0.99796800  0.78975000  0.75104800  1
  O  O48  1  0.00032700  0.75416300  0.93133200  1
  O  O49  1  0.09443500  0.52888100  0.66704900  1
  O  O50  1  0.18846700  0.33115800  0.83482800  1
  O  O51  1  0.10090500  0.37877200  0.17155400  1
  O  O52  1  0.25257300  0.08237700  0.15816000  1
  O  O53  1  0.24682600  0.00143800  0.93163500  1
  O  O54  1  0.21441700  0.99572300  0.75093300  1
  O  O55  1  0.08539900  0.24678500  0.65690600  1
  O  O56  1  0.00198200  0.22744800  0.43135500  1
  O  O57  1  0.00151500  0.21090800  0.24958900  1
loop_
_geom_bond_atom_site_label_1
_geom_bond_atom_site_label_2
_geom_bond_distance
_geom_bond_site_symmetry_2
Li0 O2 1.934544 1_555
Li0 O46 1.976651 1_655
Li0 O48 1.981591 1_654
Li0 O5 2.250042 1_555
Li1 O27 1.988916 1_555
Li1 O0 1.994786 1_555
Li1 O29 2.022916 1_565
Li1 O9 2.111645 1_555
Li2 O19 1.934664 1_555
Li2 O55 2.011683 1_655
Li2 O56 2.057058 1_655
Li2 O11 2.091316 1_555
Li3 O13 1.880008 1_555
Li3 O24 2.071987 1_555
Li3 O6 2.212029 1_555
Li3 O10 2.247288 1_555
Li4 O12 1.879383 1_556
Li4 O4 2.082663 1_555
Li4 O15 2.153448 1_555
Li4 O21 2.166168 1_555
Li5 O23 1.955983 1_555
Li5 O20 1.975265 1_554
Li5 O7 1.979010 1_555
Li5 O14 2.168867 1_555
Li6 O34 1.930897 1_555
Li6 O53 1.984536 1_564
Li6 O52 1.985461 1_565
Li6 O16 2.294252 1_555
Li7 O28 1.972264 1_555
Li7 O37 1.999775 1_555
Li7 O35 2.047952 1_555
Li7 O22 2.163810 1_555
Li8 O20 1.963082 1_555
Li8 O2 1.995189 1_546
Li8 O3 2.058444 1_545
Li8 O38 2.233762 1_555
Li9 O48 1.954596 1_555
Li9 O34 1.965120 1_556
Li9 O31 2.014559 1_555
Li9 O40 2.399688 1_555
Li10 O35 1.996814 1_555
Li10 O1 2.033785 1_455
Li10 O0 2.072954 1_455
Li10 O43 2.191117 1_555
Li11 O56 1.985016 1_555
Li11 O25 2.048215 1_545
Li11 O28 2.060709 1_545
Li11 O45 2.093289 1_555
Li12 O53 1.964821 1_555
Li12 O8 1.982775 1_455
Li12 O7 1.988765 1_456
Li12 O50 2.223125 1_555
Li13 O19 1.996758 1_555
Li13 O27 2.062660 1_545
Li13 O56 2.401818 1_655
Li13 O0 2.520457 1_545
O0 P13 1.522459 1_655
O1 P1 1.543011 1_555
O1 V4 2.017208 1_655
O2 P8 1.510060 1_565
O3 P0 1.558113 1_555
O3 V2 2.009926 1_565
O4 P0 1.538606 1_555
O4 V5 2.024136 1_555
O5 P3 1.590543 1_555
O5 V4 1.957537 1_655
O6 P2 1.560838 1_555
O6 V4 1.983010 1_655
O7 P15 1.505814 1_655
O8 P5 1.530228 1_555
O8 V5 2.076331 1_555
O9 P4 1.582184 1_555
O9 V2 2.004962 1_565
O10 P1 1.557298 1_555
O10 V3 1.997384 1_565
O11 P4 1.550777 1_555
O11 V5 2.048065 1_555
O12 P3 1.509047 1_555
O13 P4 1.505268 1_555
O14 P3 1.548265 1_555
O14 V0 2.058251 1_555
O15 P7 1.560376 1_555
O15 V2 1.979040 1_565
O16 P3 1.585180 1_555
O16 V3 1.971109 1_565
O17 P2 1.509510 1_555
O17 V0 1.986268 1_555
O18 P5 1.604404 1_555
O18 P6 1.617767 1_555
O19 P6 1.501450 1_555
O20 P5 1.503253 1_555
O21 P5 1.566508 1_555
O21 V1 1.961077 1_555
O22 P4 1.591662 1_555
O22 V1 1.966049 1_555
O23 P8 1.516744 1_555
O23 V0 2.069844 1_555
O24 P9 1.528572 1_555
O24 V0 2.069878 1_555
O25 P9 1.554089 1_555
O25 V3 2.003383 1_565
O26 P1 1.605661 1_555
O26 P8 1.619780 1_565
O27 P1 1.504365 1_555
O28 P14 1.511435 1_565
O29 P6 1.554458 1_555
O29 V2 1.982709 1_555
O30 P6 1.540857 1_555
O30 V1 1.936729 1_555
O31 P7 1.541885 1_555
O31 V1 2.073130 1_555
O32 P11 1.518581 1_555
O32 V0 1.977523 1_555
O33 P10 1.511982 1_555
O33 V0 1.946723 1_555
O34 P10 1.513915 1_555
O35 P9 1.519886 1_555
O36 P9 1.609774 1_555
O36 P10 1.637801 1_555
O37 P13 1.549791 1_555
O37 V1 2.016279 1_555
O38 P12 1.589299 1_555
O38 V2 1.934740 1_555
O39 P8 1.547184 1_555
O39 V3 1.872742 1_555
O40 P12 1.621013 1_555
O40 V1 1.864863 1_555
O41 P12 1.487851 1_555
O42 P11 1.493428 1_555
O43 P11 1.620048 1_555
O43 V4 1.870418 1_555
O44 P14 1.554301 1_555
O44 V2 1.880150 1_555
O45 P11 1.599587 1_555
O45 V3 1.927582 1_555
O46 P10 1.546327 1_555
O46 V4 2.022919 1_555
O47 P0 1.612880 1_555
O47 P13 1.628869 1_655
O48 P0 1.505372 1_455
O49 P13 1.512141 1_555
O49 V5 1.977127 1_455
O50 P12 1.547097 1_555
O50 V5 2.020329 1_455
O51 P15 1.534625 1_555
O51 V4 1.906279 1_555
O52 P15 1.543644 1_555
O52 V3 2.021512 1_555
O53 P7 1.503419 1_545
O54 P7 1.608410 1_555
O54 P14 1.618958 1_565
O55 P14 1.521390 1_555
O55 V5 2.047613 1_455
O56 P2 1.523514 1_455
O57 P2 1.613696 1_455
O57 P15 1.616633 1_555
